
     RDKit          3D

 46 48  0  0  0  0  0  0  0  0999 V2000
   45.1274   36.0079   43.0538 C   0  0  0  0  0  0  0  0  0  0  0  0
   44.1405   35.8043   42.0864 C   0  0  0  0  0  0  0  0  0  0  0  0
   44.3764   34.8112   41.1202 C   0  0  0  0  0  0  0  0  0  0  0  0
   45.5353   34.1087   41.1737 N   0  0  0  0  0  0  0  0  0  0  0  0
   46.4571   34.3417   42.1266 C   0  0  0  0  0  0  0  0  0  0  0  0
   46.2660   35.2863   43.0705 N   0  0  0  0  0  0  0  0  0  0  0  0
   48.9582   35.8052   41.2373 Cl  0  0  0  0  0  0  0  0  0  0  0  0
   48.8725   34.1427   41.7051 C   0  0  0  0  0  0  0  0  0  0  0  0
   47.6931   33.5239   42.1051 C   0  0  0  0  0  0  0  0  0  0  0  0
   47.6076   32.2135   42.4774 C   0  0  0  0  0  0  0  0  0  0  0  0
   48.7527   31.4718   42.4532 C   0  0  0  0  0  0  0  0  0  0  0  0
   49.9767   31.9718   42.0766 C   0  0  0  0  0  0  0  0  0  0  0  0
   49.9811   33.3115   41.7123 C   0  0  0  0  0  0  0  0  0  0  0  0
   44.9110   37.0422   44.0819 C   0  0  0  0  0  0  0  0  0  0  0  0
   45.4783   38.2150   43.9093 C   0  0  0  0  0  0  0  0  0  0  0  0
   45.2739   39.2733   44.9330 C   0  0  0  0  0  0  0  0  0  0  0  0
   44.7503   40.4529   44.2446 N   0  0  0  0  0  0  0  0  0  0  0  0
   43.2295   36.3946   42.0880 H   0  0  0  0  0  0  0  0  0  0  0  0
   43.6269   34.6316   40.3567 H   0  0  0  0  0  0  0  0  0  0  0  0
   46.6628   31.7547   42.7879 H   0  0  0  0  0  0  0  0  0  0  0  0
   48.7021   30.4305   42.7456 H   0  0  0  0  0  0  0  0  0  0  0  0
   50.9117   31.4107   42.0447 H   0  0  0  0  0  0  0  0  0  0  0  0
   50.9352   33.7343   41.4098 H   0  0  0  0  0  0  0  0  0  0  0  0
   44.3132   36.8824   44.9627 H   0  0  0  0  0  0  0  0  0  0  0  0
   46.0852   38.4382   43.0549 H   0  0  0  0  0  0  0  0  0  0  0  0
   46.2752   39.5937   45.3448 H   0  0  0  0  0  0  0  0  0  0  0  0
   44.6133   38.9525   45.7431 H   0  0  0  0  0  0  0  0  0  0  0  0
   45.4401   40.8135   43.5539 H   0  0  0  0  0  0  0  0  0  0  0  0
   42.6871   42.6726   44.3419 O   0  0  0  0  0  0  0  0  0  0  0  0
   44.0170   42.7532   44.6902 C   0  0  2  0  0  0  0  0  0  0  0  0
   44.5653   41.4563   45.2767 C   0  0  1  0  0  0  0  0  0  0  0  0
   43.6893   41.0473   46.2620 O   0  0  0  0  0  0  0  0  0  0  0  0
   43.8172   41.9133   47.3362 C   0  0  0  0  0  0  0  0  0  0  0  0
   43.3811   43.3248   46.9813 C   0  0  2  0  0  0  0  0  0  0  0  0
   42.0420   43.3085   46.6552 O   0  0  0  0  0  0  0  0  0  0  0  0
   44.1677   43.8032   45.7810 C   0  0  1  0  0  0  0  0  0  0  0  0
   45.5407   43.8304   46.1065 O   0  0  0  0  0  0  0  0  0  0  0  0
   42.5147   42.3411   43.4266 H   0  0  0  0  0  0  0  0  0  0  0  0
   44.6828   43.0950   43.8690 H   0  0  0  0  0  0  0  0  0  0  0  0
   45.5264   41.7229   45.7691 H   0  0  0  0  0  0  0  0  0  0  0  0
   44.9056   41.9689   47.5631 H   0  0  0  0  0  0  0  0  0  0  0  0
   43.2936   41.5766   48.2515 H   0  0  0  0  0  0  0  0  0  0  0  0
   43.6173   43.9532   47.8642 H   0  0  0  0  0  0  0  0  0  0  0  0
   41.6931   42.4096   46.4499 H   0  0  0  0  0  0  0  0  0  0  0  0
   43.8188   44.7983   45.4773 H   0  0  0  0  0  0  0  0  0  0  0  0
   45.6940   44.0515   47.0605 H   0  0  0  0  0  0  0  0  0  0  0  0
  1  6  1  0
  1 14  1  0
  2  1  2  0
  3  4  2  0
  3  2  1  0
  4  5  1  0
  5  6  2  0
  7  8  1  0
  8 13  2  0
  8  9  1  0
  9  5  1  0
  9 10  2  0
 11 10  1  0
 12 11  2  0
 13 12  1  0
 15 14  2  0
 15 16  1  0
 17 16  1  0
  2 18  1  0
  3 19  1  0
 10 20  1  0
 11 21  1  0
 12 22  1  0
 13 23  1  0
 14 24  1  0
 15 25  1  0
 16 26  1  0
 16 27  1  0
 17 28  1  0
 29 30  1  0
 30 31  1  0
 31 32  1  0
 32 33  1  0
 33 34  1  0
 34 35  1  0
 34 36  1  0
 36 37  1  0
 36 30  1  0
 29 38  1  0
 30 39  1  6
 31 40  1  1
 33 41  1  0
 33 42  1  0
 34 43  1  1
 35 44  1  0
 36 45  1  6
 37 46  1  0
 17 31  1  0
M  ISO  8  18  14  19  14  20  14  21  14  22  14  23  14  26   8  27   8
M  ISO  1  28   5
M  END
>  <DihAtoms>  (1) 
15,16,30,29

>  <DihDeg>  (1) 
-179.9969048383049

$$$$
