
 OpenBabel03252507393D

 41 45  0  0  1  0  0  0  0  0999 V2000
   37.1770   31.1790   40.8300 C   0  0  0  0  0  0  0  0  0  0  0  0
   38.2610   30.5820   41.5280 C   0  0  0  0  0  0  0  0  0  0  0  0
   38.1290   29.2480   41.8770 C   0  0  0  0  0  0  0  0  0  0  0  0
   36.9940   28.5900   41.5450 N   0  0  0  0  0  0  0  0  0  0  0  0
   35.9730   29.1810   40.8780 C   0  0  0  0  0  0  0  0  0  0  0  0
   36.0720   30.4610   40.5300 N   0  0  0  0  0  0  0  0  0  0  0  0
   39.1540   31.0880   41.7940 H   0  0  0  0  0  0  0  0  0  0  0  0
   35.0620   28.6640   40.6080 H   0  0  0  0  0  0  0  0  0  0  0  0
   38.7380   27.3620   43.2860 C   0  0  0  0  0  0  0  0  0  0  0  0
   39.1470   28.4920   42.5920 C   0  0  0  0  0  0  0  0  0  0  0  0
   40.4710   28.8200   42.6210 C   0  0  0  0  0  0  0  0  0  0  0  0
   41.4210   28.0870   43.3050 C   0  0  0  0  0  0  0  0  0  0  0  0
   42.7530   28.2220   43.4660 N   0  0  0  0  0  0  0  0  0  0  0  0
   43.1820   27.1760   44.2640 C   0  0  0  0  0  0  0  0  0  0  0  0
   42.1120   26.4330   44.5670 N   0  0  0  0  0  0  0  0  0  0  0  0
   41.0290   26.9740   43.9910 C   0  0  0  0  0  0  0  0  0  0  0  0
   39.6890   26.6100   43.9830 C   0  0  0  0  0  0  0  0  0  0  0  0
   37.7140   27.0180   43.3260 H   0  0  0  0  0  0  0  0  0  0  0  0
   40.8110   29.7030   42.0820 H   0  0  0  0  0  0  0  0  0  0  0  0
   43.3130   28.9940   43.0460 H   0  0  0  0  0  0  0  0  0  0  0  0
   44.2360   27.1060   44.5130 H   0  0  0  0  0  0  0  0  0  0  0  0
   39.3500   25.7170   44.5280 H   0  0  0  0  0  0  0  0  0  0  0  0
   37.3100   32.5210   40.4790 O   0  0  0  0  0  0  0  0  0  0  0  0
   38.5300   32.9980   40.0070 C   0  0  0  0  0  0  0  0  0  0  0  0
   38.6410   34.1350   40.7220 C   0  0  0  0  0  0  0  0  0  0  0  0
   40.3080   34.8230   40.1060 S   0  0  0  0  0  0  0  0  0  0  0  0
   40.4710   33.3220   38.9610 C   0  0  0  0  0  0  0  0  0  0  0  0
   39.5370   32.7910   39.2040 N   0  0  0  0  0  0  0  0  0  0  0  0
   38.3250   34.9680   41.5040 H   0  0  0  0  0  0  0  0  0  0  0  0
   42.5220   34.1210   37.8690 C   0  0  1  0  0  3  0  0  0  0  0  0
   41.6040   32.9620   37.9720 C   0  0  1  0  0  3  0  0  0  0  0  0
   42.1520   31.7640   38.3140 O   0  0  0  0  0  0  0  0  0  0  0  0
   43.1420   31.8210   39.2760 C   0  0  0  0  0  2  0  0  0  0  0  0
   44.3210   32.5410   38.6520 C   0  0  1  0  0  3  0  0  0  0  0  0
   43.8590   33.9810   38.4860 C   0  0  2  0  0  3  0  0  0  0  0  0
   42.7410   34.4310   36.5070 O   0  0  0  0  0  0  0  0  0  0  0  0
   42.8500   33.5350   36.0760 H   0  0  0  0  0  0  0  0  0  0  0  0
   45.4500   32.5050   39.4470 O   0  0  0  0  0  0  0  0  0  0  0  0
   45.8780   31.6050   39.2800 H   0  0  0  0  0  0  0  0  0  0  0  0
   43.9080   34.5650   39.7630 O   0  0  0  0  0  0  0  0  0  0  0  0
   44.8400   34.6890   40.0680 H   0  0  0  0  0  0  0  0  0  0  0  0
  1  2  1  0  0  0  0
  2  7  1  0  0  0  0
  2  3  2  0  0  0  0
  3 10  1  0  0  0  0
  4  3  1  0  0  0  0
  5  4  2  0  0  0  0
  6  1  2  0  0  0  0
  6  5  1  0  0  0  0
  8  5  1  0  0  0  0
  9 18  1  0  0  0  0
  9 17  1  0  0  0  0
 10 11  1  0  0  0  0
 10  9  2  0  0  0  0
 11 12  2  0  0  0  0
 12 13  1  0  0  0  0
 12 16  1  0  0  0  0
 13 14  1  0  0  0  0
 14 21  1  0  0  0  0
 14 15  2  0  0  0  0
 16 15  1  0  0  0  0
 17 16  2  0  0  0  0
 17 22  1  0  0  0  0
 19 11  1  0  0  0  0
 20 13  1  0  0  0  0
 23  1  1  0  0  0  0
 24 23  1  0  0  0  0
 24 25  2  0  0  0  0
 25 29  1  0  0  0  0
 26 25  1  0  0  0  0
 27 28  2  0  0  0  0
 27 26  1  0  0  0  0
 28 24  1  0  0  0  0
 30 36  1  6  0  0  0
 30 31  1  0  0  0  0
 30 35  1  0  0  0  0
 31 32  1  0  0  0  0
 31 27  1  1  0  0  0
 32 33  1  0  0  0  0
 34 33  1  0  0  0  0
 34 38  1  1  0  0  0
 35 34  1  0  0  0  0
 35 40  1  1  0  0  0
 37 36  1  0  0  0  0
 39 38  1  0  0  0  0
 40 41  1  0  0  0  0
M  END
>  <minimizedAffinity>
-7.68716192

$$$$

 OpenBabel03252507393D

 41 45  0  0  1  0  0  0  0  0999 V2000
   37.6450   26.3500   42.2630 C   0  0  0  0  0  0  0  0  0  0  0  0
   38.9170   26.7380   42.7620 C   0  0  0  0  0  0  0  0  0  0  0  0
   39.8390   25.7300   42.9930 C   0  0  0  0  0  0  0  0  0  0  0  0
   39.4890   24.4480   42.7380 N   0  0  0  0  0  0  0  0  0  0  0  0
   38.2690   24.1020   42.2620 C   0  0  0  0  0  0  0  0  0  0  0  0
   37.3640   25.0480   42.0310 N   0  0  0  0  0  0  0  0  0  0  0  0
   39.2010   27.7390   42.9650 H   0  0  0  0  0  0  0  0  0  0  0  0
   37.9800   23.0800   42.0560 H   0  0  0  0  0  0  0  0  0  0  0  0
   41.3560   26.9990   44.4070 C   0  0  0  0  0  0  0  0  0  0  0  0
   41.1830   25.9620   43.5010 C   0  0  0  0  0  0  0  0  0  0  0  0
   42.2780   25.2280   43.1480 C   0  0  0  0  0  0  0  0  0  0  0  0
   43.5450   25.4650   43.6450 C   0  0  0  0  0  0  0  0  0  0  0  0
   44.7420   24.8790   43.4400 N   0  0  0  0  0  0  0  0  0  0  0  0
   45.6690   25.5490   44.2180 C   0  0  0  0  0  0  0  0  0  0  0  0
   45.0220   26.5190   44.8740 N   0  0  0  0  0  0  0  0  0  0  0  0
   43.7250   26.4820   44.5360 C   0  0  0  0  0  0  0  0  0  0  0  0
   42.6330   27.2500   44.9180 C   0  0  0  0  0  0  0  0  0  0  0  0
   40.5540   27.6380   44.7510 H   0  0  0  0  0  0  0  0  0  0  0  0
   42.1620   24.4110   42.4390 H   0  0  0  0  0  0  0  0  0  0  0  0
   44.8900   24.0700   42.8000 H   0  0  0  0  0  0  0  0  0  0  0  0
   46.7050   25.2260   44.1940 H   0  0  0  0  0  0  0  0  0  0  0  0
   42.7540   28.0750   45.6360 H   0  0  0  0  0  0  0  0  0  0  0  0
   36.7170   27.3630   42.0300 O   0  0  0  0  0  0  0  0  0  0  0  0
   36.9980   28.3610   41.1000 C   0  0  0  0  0  0  0  0  0  0  0  0
   35.8900   28.2990   40.3330 C   0  0  0  0  0  0  0  0  0  0  0  0
   36.2340   29.6560   39.0410 S   0  0  0  0  0  0  0  0  0  0  0  0
   37.8890   30.0080   39.8920 C   0  0  0  0  0  0  0  0  0  0  0  0
   37.8490   29.2680   40.7070 N   0  0  0  0  0  0  0  0  0  0  0  0
   34.8300   27.9060   39.9770 H   0  0  0  0  0  0  0  0  0  0  0  0
   38.3330   32.1600   38.7910 C   0  0  1  0  0  3  0  0  0  0  0  0
   38.9760   31.0470   39.5310 C   0  0  1  0  0  3  0  0  0  0  0  0
   39.6920   31.3720   40.6410 O   0  0  0  0  0  0  0  0  0  0  0  0
   39.1420   32.3660   41.4290 C   0  0  0  0  0  2  0  0  0  0  0  0
   39.2050   33.6490   40.6260 C   0  0  1  0  0  3  0  0  0  0  0  0
   38.2080   33.4550   39.4940 C   0  0  2  0  0  3  0  0  0  0  0  0
   39.0570   32.4170   37.6040 O   0  0  0  0  0  0  0  0  0  0  0  0
   40.0120   32.3580   37.8920 H   0  0  0  0  0  0  0  0  0  0  0  0
   38.8550   34.7610   41.3670 O   0  0  0  0  0  0  0  0  0  0  0  0
   39.6810   35.0170   41.8900 H   0  0  0  0  0  0  0  0  0  0  0  0
   36.9300   33.6210   40.0550 O   0  0  0  0  0  0  0  0  0  0  0  0
   36.7660   34.5630   40.3060 H   0  0  0  0  0  0  0  0  0  0  0  0
  1  2  1  0  0  0  0
  2  7  1  0  0  0  0
  2  3  2  0  0  0  0
  3 10  1  0  0  0  0
  4  3  1  0  0  0  0
  5  4  2  0  0  0  0
  6  5  1  0  0  0  0
  6  1  2  0  0  0  0
  8  5  1  0  0  0  0
  9 18  1  0  0  0  0
  9 17  1  0  0  0  0
 10  9  2  0  0  0  0
 11 10  1  0  0  0  0
 11 12  2  0  0  0  0
 12 16  1  0  0  0  0
 13 12  1  0  0  0  0
 13 14  1  0  0  0  0
 14 15  2  0  0  0  0
 16 15  1  0  0  0  0
 16 17  2  0  0  0  0
 17 22  1  0  0  0  0
 19 11  1  0  0  0  0
 20 13  1  0  0  0  0
 21 14  1  0  0  0  0
 23  1  1  0  0  0  0
 24 23  1  0  0  0  0
 25 24  2  0  0  0  0
 26 27  1  0  0  0  0
 26 25  1  0  0  0  0
 27 28  2  0  0  0  0
 28 24  1  0  0  0  0
 29 25  1  0  0  0  0
 30 36  1  6  0  0  0
 30 35  1  0  0  0  0
 30 31  1  0  0  0  0
 31 27  1  1  0  0  0
 31 32  1  0  0  0  0
 32 33  1  0  0  0  0
 34 38  1  1  0  0  0
 34 33  1  0  0  0  0
 35 40  1  1  0  0  0
 35 34  1  0  0  0  0
 36 37  1  0  0  0  0
 38 39  1  0  0  0  0
 40 41  1  0  0  0  0
M  END
>  <minimizedAffinity>
-7.529459

$$$$

 OpenBabel03252507393D

 41 45  0  0  1  0  0  0  0  0999 V2000
   37.2580   28.9870   41.9310 C   0  0  0  0  0  0  0  0  0  0  0  0
   37.0460   27.8390   41.1230 C   0  0  0  0  0  0  0  0  0  0  0  0
   37.4400   26.6180   41.6440 C   0  0  0  0  0  0  0  0  0  0  0  0
   38.0000   26.5780   42.8740 N   0  0  0  0  0  0  0  0  0  0  0  0
   38.1930   27.6870   43.6280 C   0  0  0  0  0  0  0  0  0  0  0  0
   37.8240   28.8730   43.1540 N   0  0  0  0  0  0  0  0  0  0  0  0
   36.6080   27.8590   40.1570 H   0  0  0  0  0  0  0  0  0  0  0  0
   38.6400   27.6650   44.6130 H   0  0  0  0  0  0  0  0  0  0  0  0
   36.4790   25.3330   39.8170 C   0  0  0  0  0  0  0  0  0  0  0  0
   37.2900   25.3500   40.9420 C   0  0  0  0  0  0  0  0  0  0  0  0
   37.8960   24.1870   41.3170 C   0  0  0  0  0  0  0  0  0  0  0  0
   37.7400   22.9960   40.6350 C   0  0  0  0  0  0  0  0  0  0  0  0
   38.2310   21.7530   40.8210 N   0  0  0  0  0  0  0  0  0  0  0  0
   37.7260   20.9540   39.8110 C   0  0  0  0  0  0  0  0  0  0  0  0
   36.9470   21.7190   39.0400 N   0  0  0  0  0  0  0  0  0  0  0  0
   36.9440   22.9680   39.5270 C   0  0  0  0  0  0  0  0  0  0  0  0
   36.3120   24.1340   39.1170 C   0  0  0  0  0  0  0  0  0  0  0  0
   35.9550   26.2000   39.4380 H   0  0  0  0  0  0  0  0  0  0  0  0
   38.5360   24.1810   42.1970 H   0  0  0  0  0  0  0  0  0  0  0  0
   38.8720   21.4930   41.6010 H   0  0  0  0  0  0  0  0  0  0  0  0
   38.0070   19.9050   39.7840 H   0  0  0  0  0  0  0  0  0  0  0  0
   35.6660   24.1360   38.2270 H   0  0  0  0  0  0  0  0  0  0  0  0
   36.8620   30.2160   41.4080 O   0  0  0  0  0  0  0  0  0  0  0  0
   37.8130   31.0860   40.8810 C   0  0  0  0  0  0  0  0  0  0  0  0
   37.0220   32.1040   40.4870 C   0  0  0  0  0  0  0  0  0  0  0  0
   38.2920   33.3240   39.7580 S   0  0  0  0  0  0  0  0  0  0  0  0
   39.6720   32.0990   40.1840 C   0  0  0  0  0  0  0  0  0  0  0  0
   39.0790   31.2890   40.6380 N   0  0  0  0  0  0  0  0  0  0  0  0
   36.0110   32.6980   40.3190 H   0  0  0  0  0  0  0  0  0  0  0  0
   41.5440   31.4660   38.7230 C   0  0  1  0  0  3  0  0  0  0  0  0
   41.1960   32.2190   39.9520 C   0  0  1  0  0  3  0  0  0  0  0  0
   41.5700   33.5260   40.0040 O   0  0  0  0  0  0  0  0  0  0  0  0
   41.4320   34.2280   38.8220 C   0  0  0  0  0  2  0  0  0  0  0  0
   42.4400   33.6520   37.8490 C   0  0  1  0  0  3  0  0  0  0  0  0
   41.9270   32.2550   37.5320 C   0  0  2  0  0  3  0  0  0  0  0  0
   42.6260   30.5970   38.9920 O   0  0  0  0  0  0  0  0  0  0  0  0
   43.2410   31.1530   39.5530 H   0  0  0  0  0  0  0  0  0  0  0  0
   42.5360   34.3860   36.6820 O   0  0  0  0  0  0  0  0  0  0  0  0
   43.1470   35.1630   36.8940 H   0  0  0  0  0  0  0  0  0  0  0  0
   40.8480   32.4180   36.6460 O   0  0  0  0  0  0  0  0  0  0  0  0
   41.1540   32.7240   35.7570 H   0  0  0  0  0  0  0  0  0  0  0  0
  1  6  1  0  0  0  0
  2  3  1  0  0  0  0
  2  1  2  0  0  0  0
  3  4  2  0  0  0  0
  4  5  1  0  0  0  0
  5  8  1  0  0  0  0
  6  5  2  0  0  0  0
  7  2  1  0  0  0  0
  9 10  1  0  0  0  0
 10 11  2  0  0  0  0
 10  3  1  0  0  0  0
 11 19  1  0  0  0  0
 12 13  1  0  0  0  0
 12 11  1  0  0  0  0
 13 20  1  0  0  0  0
 14 13  1  0  0  0  0
 15 16  1  0  0  0  0
 15 14  2  0  0  0  0
 16 12  2  0  0  0  0
 17 16  1  0  0  0  0
 17  9  2  0  0  0  0
 18  9  1  0  0  0  0
 21 14  1  0  0  0  0
 22 17  1  0  0  0  0
 23  1  1  0  0  0  0
 24 23  1  0  0  0  0
 25 24  2  0  0  0  0
 26 27  1  0  0  0  0
 26 25  1  0  0  0  0
 27 28  2  0  0  0  0
 28 24  1  0  0  0  0
 29 25  1  0  0  0  0
 30 36  1  1  0  0  0
 30 31  1  0  0  0  0
 31 32  1  0  0  0  0
 31 27  1  6  0  0  0
 33 32  1  0  0  0  0
 34 38  1  6  0  0  0
 34 33  1  0  0  0  0
 35 40  1  6  0  0  0
 35 34  1  0  0  0  0
 35 30  1  0  0  0  0
 36 37  1  0  0  0  0
 38 39  1  0  0  0  0
 41 40  1  0  0  0  0
M  END
>  <minimizedAffinity>
-7.4540658

$$$$

 OpenBabel03252507393D

 41 45  0  0  1  0  0  0  0  0999 V2000
   38.2240   33.5190   39.6400 C   0  0  0  0  0  0  0  0  0  0  0  0
   39.4990   33.0010   39.2900 C   0  0  0  0  0  0  0  0  0  0  0  0
   40.5930   33.8280   39.4840 C   0  0  0  0  0  0  0  0  0  0  0  0
   40.3980   35.0680   39.9870 N   0  0  0  0  0  0  0  0  0  0  0  0
   39.1710   35.5420   40.3150 C   0  0  0  0  0  0  0  0  0  0  0  0
   38.1040   34.7700   40.1400 N   0  0  0  0  0  0  0  0  0  0  0  0
   39.6630   32.0300   38.8940 H   0  0  0  0  0  0  0  0  0  0  0  0
   39.0060   36.5320   40.7180 H   0  0  0  0  0  0  0  0  0  0  0  0
   42.6390   32.6750   40.1110 C   0  0  0  0  0  0  0  0  0  0  0  0
   41.9640   33.4460   39.1760 C   0  0  0  0  0  0  0  0  0  0  0  0
   42.6220   33.7930   38.0320 C   0  0  0  0  0  0  0  0  0  0  0  0
   43.9230   33.4160   37.7600 C   0  0  0  0  0  0  0  0  0  0  0  0
   44.7510   33.6400   36.7200 N   0  0  0  0  0  0  0  0  0  0  0  0
   45.9490   33.0080   37.0020 C   0  0  0  0  0  0  0  0  0  0  0  0
   45.8260   32.4200   38.1960 N   0  0  0  0  0  0  0  0  0  0  0  0
   44.5960   32.6580   38.6740 C   0  0  0  0  0  0  0  0  0  0  0  0
   43.9570   32.2870   39.8490 C   0  0  0  0  0  0  0  0  0  0  0  0
   42.2070   32.3480   41.0470 H   0  0  0  0  0  0  0  0  0  0  0  0
   42.1080   34.3970   37.2870 H   0  0  0  0  0  0  0  0  0  0  0  0
   44.4880   34.1950   35.8780 H   0  0  0  0  0  0  0  0  0  0  0  0
   46.7570   33.0700   36.2780 H   0  0  0  0  0  0  0  0  0  0  0  0
   44.4800   31.6750   40.6000 H   0  0  0  0  0  0  0  0  0  0  0  0
   37.1230   32.6870   39.4460 O   0  0  0  0  0  0  0  0  0  0  0  0
   37.0660   31.4510   40.0840 C   0  0  0  0  0  0  0  0  0  0  0  0
   36.6360   30.6720   39.0720 C   0  0  0  0  0  0  0  0  0  0  0  0
   36.5450   28.9620   39.9070 S   0  0  0  0  0  0  0  0  0  0  0  0
   37.1450   29.7500   41.5220 C   0  0  0  0  0  0  0  0  0  0  0  0
   37.2520   30.7970   41.1980 N   0  0  0  0  0  0  0  0  0  0  0  0
   36.2790   30.4100   37.9730 H   0  0  0  0  0  0  0  0  0  0  0  0
   36.8020   27.7370   42.8890 C   0  0  1  0  0  3  0  0  0  0  0  0
   37.4060   29.0910   42.8960 C   0  0  1  0  0  3  0  0  0  0  0  0
   38.7280   29.1790   43.2070 O   0  0  0  0  0  0  0  0  0  0  0  0
   39.5250   28.1780   42.6860 C   0  0  0  0  0  2  0  0  0  0  0  0
   39.1240   26.8910   43.3760 C   0  0  1  0  0  3  0  0  0  0  0  0
   37.7280   26.5840   42.8560 C   0  0  2  0  0  3  0  0  0  0  0  0
   35.9990   27.5720   44.0410 O   0  0  0  0  0  0  0  0  0  0  0  0
   36.5450   27.9850   44.7700 H   0  0  0  0  0  0  0  0  0  0  0  0
   39.9710   25.8400   43.0800 O   0  0  0  0  0  0  0  0  0  0  0  0
   40.7700   25.9480   43.6890 H   0  0  0  0  0  0  0  0  0  0  0  0
   37.8890   26.0830   41.5520 O   0  0  0  0  0  0  0  0  0  0  0  0
   38.3010   25.1840   41.5600 H   0  0  0  0  0  0  0  0  0  0  0  0
  1  6  1  0  0  0  0
  2  3  1  0  0  0  0
  2  1  2  0  0  0  0
  3  4  2  0  0  0  0
  4  5  1  0  0  0  0
  5  8  1  0  0  0  0
  6  5  2  0  0  0  0
  7  2  1  0  0  0  0
  9 18  1  0  0  0  0
 10  3  1  0  0  0  0
 10  9  2  0  0  0  0
 11 10  1  0  0  0  0
 12 11  2  0  0  0  0
 12 16  1  0  0  0  0
 13 14  1  0  0  0  0
 13 12  1  0  0  0  0
 14 15  2  0  0  0  0
 15 16  1  0  0  0  0
 16 17  2  0  0  0  0
 17  9  1  0  0  0  0
 17 22  1  0  0  0  0
 19 11  1  0  0  0  0
 20 13  1  0  0  0  0
 21 14  1  0  0  0  0
 23  1  1  0  0  0  0
 23 24  1  0  0  0  0
 24 28  1  0  0  0  0
 25 26  1  0  0  0  0
 25 24  2  0  0  0  0
 26 27  1  0  0  0  0
 28 27  2  0  0  0  0
 29 25  1  0  0  0  0
 30 31  1  0  0  0  0
 30 36  1  1  0  0  0
 31 27  1  6  0  0  0
 31 32  1  0  0  0  0
 33 32  1  0  0  0  0
 33 34  1  0  0  0  0
 34 38  1  6  0  0  0
 35 40  1  6  0  0  0
 35 30  1  0  0  0  0
 35 34  1  0  0  0  0
 36 37  1  0  0  0  0
 38 39  1  0  0  0  0
 40 41  1  0  0  0  0
M  END
>  <minimizedAffinity>
-7.27386379

$$$$

 OpenBabel03252507393D

 41 45  0  0  1  0  0  0  0  0999 V2000
   37.5370   28.4240   42.3290 C   0  0  0  0  0  0  0  0  0  0  0  0
   37.1660   27.3310   41.5010 C   0  0  0  0  0  0  0  0  0  0  0  0
   37.7160   26.0950   41.8010 C   0  0  0  0  0  0  0  0  0  0  0  0
   38.5640   25.9900   42.8500 N   0  0  0  0  0  0  0  0  0  0  0  0
   38.9020   27.0470   43.6270 C   0  0  0  0  0  0  0  0  0  0  0  0
   38.3900   28.2450   43.3620 N   0  0  0  0  0  0  0  0  0  0  0  0
   36.5030   27.4020   40.6760 H   0  0  0  0  0  0  0  0  0  0  0  0
   39.5800   26.9730   44.4670 H   0  0  0  0  0  0  0  0  0  0  0  0
   36.4730   24.9490   40.0540 C   0  0  0  0  0  0  0  0  0  0  0  0
   37.4360   24.8790   41.0500 C   0  0  0  0  0  0  0  0  0  0  0  0
   38.0600   23.6840   41.2600 C   0  0  0  0  0  0  0  0  0  0  0  0
   37.7800   22.5430   40.5340 C   0  0  0  0  0  0  0  0  0  0  0  0
   38.2610   21.2840   40.5690 N   0  0  0  0  0  0  0  0  0  0  0  0
   37.5990   20.5610   39.5940 C   0  0  0  0  0  0  0  0  0  0  0  0
   36.7360   21.3870   38.9920 N   0  0  0  0  0  0  0  0  0  0  0  0
   36.8330   22.6010   39.5520 C   0  0  0  0  0  0  0  0  0  0  0  0
   36.1790   23.8010   39.3110 C   0  0  0  0  0  0  0  0  0  0  0  0
   35.9220   25.8470   39.8100 H   0  0  0  0  0  0  0  0  0  0  0  0
   38.8180   23.6110   42.0370 H   0  0  0  0  0  0  0  0  0  0  0  0
   39.0000   20.9630   41.2310 H   0  0  0  0  0  0  0  0  0  0  0  0
   37.8470   19.5120   39.4600 H   0  0  0  0  0  0  0  0  0  0  0  0
   35.4130   23.8710   38.5250 H   0  0  0  0  0  0  0  0  0  0  0  0
   36.9840   29.6670   42.0270 O   0  0  0  0  0  0  0  0  0  0  0  0
   37.6250   30.5100   41.1230 C   0  0  0  0  0  0  0  0  0  0  0  0
   36.5890   31.2750   40.7250 C   0  0  0  0  0  0  0  0  0  0  0  0
   37.4270   32.4500   39.4810 S   0  0  0  0  0  0  0  0  0  0  0  0
   39.0770   31.5790   39.8120 C   0  0  0  0  0  0  0  0  0  0  0  0
   38.7540   30.8280   40.5510 N   0  0  0  0  0  0  0  0  0  0  0  0
   35.4680   31.6570   40.6820 H   0  0  0  0  0  0  0  0  0  0  0  0
   40.3920   33.0980   38.3980 C   0  0  1  0  0  3  0  0  0  0  0  0
   40.4720   31.8580   39.2070 C   0  0  1  0  0  3  0  0  0  0  0  0
   41.4170   31.8160   40.1850 O   0  0  0  0  0  0  0  0  0  0  0  0
   41.5930   32.9930   40.8880 C   0  0  0  0  0  2  0  0  0  0  0  0
   42.1850   33.9980   39.9210 C   0  0  1  0  0  3  0  0  0  0  0  0
   41.0680   34.3000   38.9330 C   0  0  2  0  0  3  0  0  0  0  0  0
   40.9470   32.8630   37.1190 O   0  0  0  0  0  0  0  0  0  0  0  0
   41.7650   32.3220   37.3120 H   0  0  0  0  0  0  0  0  0  0  0  0
   42.5830   35.1660   40.5420 O   0  0  0  0  0  0  0  0  0  0  0  0
   43.4920   34.9730   40.9380 H   0  0  0  0  0  0  0  0  0  0  0  0
   40.1680   35.1510   39.5970 O   0  0  0  0  0  0  0  0  0  0  0  0
   40.5580   36.0490   39.7370 H   0  0  0  0  0  0  0  0  0  0  0  0
  1  6  1  0  0  0  0
  2  3  1  0  0  0  0
  2  1  2  0  0  0  0
  3  4  2  0  0  0  0
  4  5  1  0  0  0  0
  5  8  1  0  0  0  0
  6  5  2  0  0  0  0
  7  2  1  0  0  0  0
  9 10  1  0  0  0  0
 10 11  2  0  0  0  0
 10  3  1  0  0  0  0
 11 19  1  0  0  0  0
 12 13  1  0  0  0  0
 12 11  1  0  0  0  0
 13 20  1  0  0  0  0
 14 13  1  0  0  0  0
 15 16  1  0  0  0  0
 15 14  2  0  0  0  0
 16 12  2  0  0  0  0
 17 16  1  0  0  0  0
 17  9  2  0  0  0  0
 18  9  1  0  0  0  0
 21 14  1  0  0  0  0
 22 17  1  0  0  0  0
 23  1  1  0  0  0  0
 24 23  1  0  0  0  0
 25 24  2  0  0  0  0
 26 27  1  0  0  0  0
 26 25  1  0  0  0  0
 27 28  2  0  0  0  0
 28 24  1  0  0  0  0
 29 25  1  0  0  0  0
 30 36  1  6  0  0  0
 30 35  1  0  0  0  0
 30 31  1  0  0  0  0
 31 27  1  1  0  0  0
 31 32  1  0  0  0  0
 32 33  1  0  0  0  0
 34 38  1  1  0  0  0
 34 33  1  0  0  0  0
 35 40  1  1  0  0  0
 35 34  1  0  0  0  0
 36 37  1  0  0  0  0
 38 39  1  0  0  0  0
 40 41  1  0  0  0  0
M  END
>  <minimizedAffinity>
-7.27132845

$$$$

 OpenBabel03252507393D

 41 45  0  0  1  0  0  0  0  0999 V2000
   36.6660   28.6190   42.0620 C   0  0  0  0  0  0  0  0  0  0  0  0
   37.5250   29.7460   41.9600 C   0  0  0  0  0  0  0  0  0  0  0  0
   37.2700   30.6440   40.9370 C   0  0  0  0  0  0  0  0  0  0  0  0
   36.2340   30.4100   40.1000 N   0  0  0  0  0  0  0  0  0  0  0  0
   35.4260   29.3280   40.2170 C   0  0  0  0  0  0  0  0  0  0  0  0
   35.6470   28.4490   41.1890 N   0  0  0  0  0  0  0  0  0  0  0  0
   38.3410   29.9390   42.6100 H   0  0  0  0  0  0  0  0  0  0  0  0
   34.5950   29.1320   39.5520 H   0  0  0  0  0  0  0  0  0  0  0  0
   37.4240   32.9130   40.0760 C   0  0  0  0  0  0  0  0  0  0  0  0
   38.0560   31.8460   40.6980 C   0  0  0  0  0  0  0  0  0  0  0  0
   39.3670   31.9900   41.0470 C   0  0  0  0  0  0  0  0  0  0  0  0
   40.0940   33.1410   40.8130 C   0  0  0  0  0  0  0  0  0  0  0  0
   41.3700   33.4970   41.0670 N   0  0  0  0  0  0  0  0  0  0  0  0
   41.5390   34.7890   40.6030 C   0  0  0  0  0  0  0  0  0  0  0  0
   40.3740   35.1890   40.0820 N   0  0  0  0  0  0  0  0  0  0  0  0
   39.4810   34.1960   40.2010 C   0  0  0  0  0  0  0  0  0  0  0  0
   38.1470   34.0840   39.8320 C   0  0  0  0  0  0  0  0  0  0  0  0
   36.3890   32.8990   39.7600 H   0  0  0  0  0  0  0  0  0  0  0  0
   39.8800   31.1650   41.5370 H   0  0  0  0  0  0  0  0  0  0  0  0
   42.0640   32.8740   41.5310 H   0  0  0  0  0  0  0  0  0  0  0  0
   42.5100   35.2630   40.7160 H   0  0  0  0  0  0  0  0  0  0  0  0
   37.6320   34.9220   39.3380 H   0  0  0  0  0  0  0  0  0  0  0  0
   36.9220   27.7150   43.0910 O   0  0  0  0  0  0  0  0  0  0  0  0
   38.1070   26.9820   43.0920 C   0  0  0  0  0  0  0  0  0  0  0  0
   37.7430   25.9280   42.3340 C   0  0  0  0  0  0  0  0  0  0  0  0
   39.3440   24.8960   42.3080 S   0  0  0  0  0  0  0  0  0  0  0  0
   40.1760   26.2100   43.3900 C   0  0  0  0  0  0  0  0  0  0  0  0
   39.3420   26.9200   43.5060 N   0  0  0  0  0  0  0  0  0  0  0  0
   37.0250   25.2550   41.6750 H   0  0  0  0  0  0  0  0  0  0  0  0
   42.5140   25.5800   42.9710 C   0  0  1  0  0  3  0  0  0  0  0  0
   41.6190   26.2560   43.9420 C   0  0  1  0  0  3  0  0  0  0  0  0
   41.9390   27.5300   44.2950 O   0  0  0  0  0  0  0  0  0  0  0  0
   42.4090   28.3280   43.2700 C   0  0  0  0  0  2  0  0  0  0  0  0
   43.7560   27.7690   42.8600 C   0  0  1  0  0  3  0  0  0  0  0  0
   43.4430   26.4340   42.2000 C   0  0  2  0  0  3  0  0  0  0  0  0
   43.3120   24.6290   43.6470 O   0  0  0  0  0  0  0  0  0  0  0  0
   43.5810   25.1020   44.4870 H   0  0  0  0  0  0  0  0  0  0  0  0
   44.4230   28.5830   41.9650 O   0  0  0  0  0  0  0  0  0  0  0  0
   44.8630   29.3040   42.5210 H   0  0  0  0  0  0  0  0  0  0  0  0
   42.9390   26.7290   40.9210 O   0  0  0  0  0  0  0  0  0  0  0  0
   43.6470   27.0840   40.3280 H   0  0  0  0  0  0  0  0  0  0  0  0
  1 23  1  0  0  0  0
  2  1  1  0  0  0  0
  2  7  1  0  0  0  0
  3  2  2  0  0  0  0
  4  5  2  0  0  0  0
  4  3  1  0  0  0  0
  5  6  1  0  0  0  0
  6  1  2  0  0  0  0
  8  5  1  0  0  0  0
  9 10  1  0  0  0  0
 10  3  1  0  0  0  0
 10 11  2  0  0  0  0
 11 19  1  0  0  0  0
 12 11  1  0  0  0  0
 12 13  1  0  0  0  0
 13 20  1  0  0  0  0
 14 21  1  0  0  0  0
 14 13  1  0  0  0  0
 15 16  1  0  0  0  0
 15 14  2  0  0  0  0
 16 12  2  0  0  0  0
 17  9  2  0  0  0  0
 17 16  1  0  0  0  0
 18  9  1  0  0  0  0
 22 17  1  0  0  0  0
 23 24  1  0  0  0  0
 24 28  1  0  0  0  0
 25 24  2  0  0  0  0
 26 25  1  0  0  0  0
 26 27  1  0  0  0  0
 27 28  2  0  0  0  0
 29 25  1  0  0  0  0
 30 36  1  1  0  0  0
 30 31  1  0  0  0  0
 31 27  1  6  0  0  0
 31 32  1  0  0  0  0
 33 32  1  0  0  0  0
 34 38  1  6  0  0  0
 34 33  1  0  0  0  0
 35 40  1  6  0  0  0
 35 34  1  0  0  0  0
 35 30  1  0  0  0  0
 36 37  1  0  0  0  0
 38 39  1  0  0  0  0
 41 40  1  0  0  0  0
M  END
>  <minimizedAffinity>
-7.22680378

$$$$

 OpenBabel03252507393D

 41 45  0  0  1  0  0  0  0  0999 V2000
   38.0310   30.2720   41.3810 C   0  0  0  0  0  0  0  0  0  0  0  0
   37.4660   29.1080   40.7950 C   0  0  0  0  0  0  0  0  0  0  0  0
   37.7260   27.8980   41.4180 C   0  0  0  0  0  0  0  0  0  0  0  0
   38.4910   27.8830   42.5330 N   0  0  0  0  0  0  0  0  0  0  0  0
   39.0200   29.0080   43.0740 C   0  0  0  0  0  0  0  0  0  0  0  0
   38.7870   30.1830   42.4980 N   0  0  0  0  0  0  0  0  0  0  0  0
   36.8650   29.1080   39.9210 H   0  0  0  0  0  0  0  0  0  0  0  0
   39.6330   29.0060   43.9650 H   0  0  0  0  0  0  0  0  0  0  0  0
   37.2610   25.5460   41.8250 C   0  0  0  0  0  0  0  0  0  0  0  0
   37.2200   26.6170   40.9440 C   0  0  0  0  0  0  0  0  0  0  0  0
   36.7100   26.4050   39.6970 C   0  0  0  0  0  0  0  0  0  0  0  0
   36.2340   25.1810   39.2690 C   0  0  0  0  0  0  0  0  0  0  0  0
   35.6990   24.7520   38.1080 N   0  0  0  0  0  0  0  0  0  0  0  0
   35.4020   23.4090   38.2600 C   0  0  0  0  0  0  0  0  0  0  0  0
   35.7610   23.0530   39.4980 N   0  0  0  0  0  0  0  0  0  0  0  0
   36.2700   24.1210   40.1280 C   0  0  0  0  0  0  0  0  0  0  0  0
   36.7830   24.3010   41.4060 C   0  0  0  0  0  0  0  0  0  0  0  0
   37.6460   25.6110   42.8340 H   0  0  0  0  0  0  0  0  0  0  0  0
   36.6700   27.2330   38.9920 H   0  0  0  0  0  0  0  0  0  0  0  0
   35.5540   25.3610   37.2750 H   0  0  0  0  0  0  0  0  0  0  0  0
   34.9580   22.8730   37.4260 H   0  0  0  0  0  0  0  0  0  0  0  0
   36.8210   23.4620   42.1150 H   0  0  0  0  0  0  0  0  0  0  0  0
   37.7700   31.4890   40.7550 O   0  0  0  0  0  0  0  0  0  0  0  0
   38.8110   32.2060   40.1690 C   0  0  0  0  0  0  0  0  0  0  0  0
   38.6640   33.3970   40.7840 C   0  0  0  0  0  0  0  0  0  0  0  0
   40.0780   34.4120   40.0080 S   0  0  0  0  0  0  0  0  0  0  0  0
   40.5620   32.8980   38.9780 C   0  0  0  0  0  0  0  0  0  0  0  0
   39.8020   32.1790   39.3220 N   0  0  0  0  0  0  0  0  0  0  0  0
   38.1830   34.1950   41.5160 H   0  0  0  0  0  0  0  0  0  0  0  0
   42.4710   34.0060   37.8970 C   0  0  1  0  0  3  0  0  0  0  0  0
   41.7060   32.7370   37.9490 C   0  0  1  0  0  3  0  0  0  0  0  0
   42.4070   31.6010   38.2120 O   0  0  0  0  0  0  0  0  0  0  0  0
   43.4060   31.7280   39.1580 C   0  0  0  0  0  2  0  0  0  0  0  0
   44.4700   32.6230   38.5550 C   0  0  1  0  0  3  0  0  0  0  0  0
   43.8300   34.0010   38.4800 C   0  0  2  0  0  3  0  0  0  0  0  0
   42.6150   34.4150   36.5510 O   0  0  0  0  0  0  0  0  0  0  0  0
   42.8240   33.5650   36.0670 H   0  0  0  0  0  0  0  0  0  0  0  0
   45.6150   32.6850   39.3260 O   0  0  0  0  0  0  0  0  0  0  0  0
   46.1470   31.8560   39.1000 H   0  0  0  0  0  0  0  0  0  0  0  0
   43.8370   34.5160   39.7880 O   0  0  0  0  0  0  0  0  0  0  0  0
   44.7550   34.7380   40.0830 H   0  0  0  0  0  0  0  0  0  0  0  0
  1  6  1  0  0  0  0
  2  1  2  0  0  0  0
  2  3  1  0  0  0  0
  3  4  2  0  0  0  0
  4  5  1  0  0  0  0
  5  8  1  0  0  0  0
  6  5  2  0  0  0  0
  7  2  1  0  0  0  0
  9 18  1  0  0  0  0
 10  3  1  0  0  0  0
 10  9  2  0  0  0  0
 11 10  1  0  0  0  0
 12 11  2  0  0  0  0
 12 16  1  0  0  0  0
 13 14  1  0  0  0  0
 13 12  1  0  0  0  0
 14 15  2  0  0  0  0
 15 16  1  0  0  0  0
 16 17  2  0  0  0  0
 17  9  1  0  0  0  0
 17 22  1  0  0  0  0
 19 11  1  0  0  0  0
 20 13  1  0  0  0  0
 21 14  1  0  0  0  0
 23  1  1  0  0  0  0
 24 23  1  0  0  0  0
 24 25  2  0  0  0  0
 25 29  1  0  0  0  0
 26 25  1  0  0  0  0
 27 28  2  0  0  0  0
 27 26  1  0  0  0  0
 28 24  1  0  0  0  0
 30 36  1  6  0  0  0
 30 31  1  0  0  0  0
 30 35  1  0  0  0  0
 31 32  1  0  0  0  0
 31 27  1  1  0  0  0
 32 33  1  0  0  0  0
 34 33  1  0  0  0  0
 34 38  1  1  0  0  0
 35 34  1  0  0  0  0
 35 40  1  1  0  0  0
 37 36  1  0  0  0  0
 39 38  1  0  0  0  0
 40 41  1  0  0  0  0
M  END
>  <minimizedAffinity>
-7.02352333

$$$$

 OpenBabel03252507393D

 41 45  0  0  1  0  0  0  0  0999 V2000
   38.5300   27.3300   43.3460 C   0  0  0  0  0  0  0  0  0  0  0  0
   37.8640   26.5070   42.3990 C   0  0  0  0  0  0  0  0  0  0  0  0
   38.3710   25.2330   42.2020 C   0  0  0  0  0  0  0  0  0  0  0  0
   39.4570   24.8410   42.9080 N   0  0  0  0  0  0  0  0  0  0  0  0
   40.0750   25.6440   43.8070 C   0  0  0  0  0  0  0  0  0  0  0  0
   39.6110   26.8720   44.0170 N   0  0  0  0  0  0  0  0  0  0  0  0
   37.0130   26.8040   41.8400 H   0  0  0  0  0  0  0  0  0  0  0  0
   40.9440   25.3400   44.3760 H   0  0  0  0  0  0  0  0  0  0  0  0
   36.4810   24.4460   40.8910 C   0  0  0  0  0  0  0  0  0  0  0  0
   37.8040   24.2690   41.2700 C   0  0  0  0  0  0  0  0  0  0  0  0
   38.4870   23.2110   40.7460 C   0  0  0  0  0  0  0  0  0  0  0  0
   37.9280   22.3100   39.8600 C   0  0  0  0  0  0  0  0  0  0  0  0
   38.4050   21.2170   39.2300 N   0  0  0  0  0  0  0  0  0  0  0  0
   37.3790   20.7060   38.4550 C   0  0  0  0  0  0  0  0  0  0  0  0
   36.3110   21.4920   38.6280 N   0  0  0  0  0  0  0  0  0  0  0  0
   36.6270   22.4750   39.4820 C   0  0  0  0  0  0  0  0  0  0  0  0
   35.9020   23.5420   39.9960 C   0  0  0  0  0  0  0  0  0  0  0  0
   35.8540   25.2520   41.2500 H   0  0  0  0  0  0  0  0  0  0  0  0
   39.5250   23.0560   41.0310 H   0  0  0  0  0  0  0  0  0  0  0  0
   39.3780   20.8610   39.3410 H   0  0  0  0  0  0  0  0  0  0  0  0
   37.5640   19.8150   37.8630 H   0  0  0  0  0  0  0  0  0  0  0  0
   34.8520   23.6950   39.7050 H   0  0  0  0  0  0  0  0  0  0  0  0
   38.0200   28.6120   43.5440 O   0  0  0  0  0  0  0  0  0  0  0  0
   38.0700   29.5460   42.5120 C   0  0  0  0  0  0  0  0  0  0  0  0
   39.2730   30.1070   42.7480 C   0  0  0  0  0  0  0  0  0  0  0  0
   39.3830   31.3960   41.3500 S   0  0  0  0  0  0  0  0  0  0  0  0
   37.6770   30.8400   40.7410 C   0  0  0  0  0  0  0  0  0  0  0  0
   37.4550   30.0540   41.4810 N   0  0  0  0  0  0  0  0  0  0  0  0
   40.3050   30.2820   43.3040 H   0  0  0  0  0  0  0  0  0  0  0  0
   37.7590   32.0690   38.6150 C   0  0  1  0  0  3  0  0  0  0  0  0
   36.8480   31.3550   39.5420 C   0  0  1  0  0  3  0  0  0  0  0  0
   36.1070   30.3390   39.0220 O   0  0  0  0  0  0  0  0  0  0  0  0
   36.7610   29.5400   38.1030 C   0  0  0  0  0  2  0  0  0  0  0  0
   37.0200   30.3980   36.8810 C   0  0  1  0  0  3  0  0  0  0  0  0
   38.0640   31.4120   37.3260 C   0  0  2  0  0  3  0  0  0  0  0  0
   37.2130   33.3350   38.2990 O   0  0  0  0  0  0  0  0  0  0  0  0
   36.2410   33.1450   38.1620 H   0  0  0  0  0  0  0  0  0  0  0  0
   37.5060   29.6710   35.8120 O   0  0  0  0  0  0  0  0  0  0  0  0
   36.6990   29.2480   35.3750 H   0  0  0  0  0  0  0  0  0  0  0  0
   39.2920   30.7280   37.3670 O   0  0  0  0  0  0  0  0  0  0  0  0
   39.6090   30.5010   36.4590 H   0  0  0  0  0  0  0  0  0  0  0  0
  1 23  1  0  0  0  0
  1  6  1  0  0  0  0
  2  1  2  0  0  0  0
  3  2  1  0  0  0  0
  3  4  2  0  0  0  0
  4  5  1  0  0  0  0
  5  6  2  0  0  0  0
  5  8  1  0  0  0  0
  7  2  1  0  0  0  0
  9 18  1  0  0  0  0
  9 10  1  0  0  0  0
 10  3  1  0  0  0  0
 11 19  1  0  0  0  0
 11 10  2  0  0  0  0
 12 11  1  0  0  0  0
 13 20  1  0  0  0  0
 13 12  1  0  0  0  0
 14 15  2  0  0  0  0
 14 13  1  0  0  0  0
 15 16  1  0  0  0  0
 16 12  2  0  0  0  0
 16 17  1  0  0  0  0
 17  9  2  0  0  0  0
 21 14  1  0  0  0  0
 22 17  1  0  0  0  0
 24 25  2  0  0  0  0
 24 23  1  0  0  0  0
 25 29  1  0  0  0  0
 26 25  1  0  0  0  0
 27 26  1  0  0  0  0
 27 28  2  0  0  0  0
 28 24  1  0  0  0  0
 30 36  1  6  0  0  0
 30 31  1  0  0  0  0
 31 27  1  1  0  0  0
 32 31  1  0  0  0  0
 33 32  1  0  0  0  0
 34 38  1  6  0  0  0
 34 35  1  0  0  0  0
 34 33  1  0  0  0  0
 35 40  1  1  0  0  0
 35 30  1  0  0  0  0
 37 36  1  0  0  0  0
 39 38  1  0  0  0  0
 41 40  1  0  0  0  0
M  END
>  <minimizedAffinity>
-6.99842882

$$$$

 OpenBabel03252507393D

 41 45  0  0  1  0  0  0  0  0999 V2000
   38.0250   32.6720   39.1270 C   0  0  0  0  0  0  0  0  0  0  0  0
   39.4010   32.4140   38.8870 C   0  0  0  0  0  0  0  0  0  0  0  0
   40.3090   33.3530   39.3460 C   0  0  0  0  0  0  0  0  0  0  0  0
   39.8510   34.4520   39.9880 N   0  0  0  0  0  0  0  0  0  0  0  0
   38.5330   34.6780   40.2050 C   0  0  0  0  0  0  0  0  0  0  0  0
   37.6380   33.7940   39.7760 N   0  0  0  0  0  0  0  0  0  0  0  0
   39.7710   31.5550   38.3850 H   0  0  0  0  0  0  0  0  0  0  0  0
   38.1570   35.5540   40.7160 H   0  0  0  0  0  0  0  0  0  0  0  0
   42.4710   32.6700   40.2240 C   0  0  0  0  0  0  0  0  0  0  0  0
   41.7510   33.2350   39.1810 C   0  0  0  0  0  0  0  0  0  0  0  0
   42.4350   33.6380   38.0720 C   0  0  0  0  0  0  0  0  0  0  0  0
   43.8040   33.5140   37.9360 C   0  0  0  0  0  0  0  0  0  0  0  0
   44.6680   33.8370   36.9530 N   0  0  0  0  0  0  0  0  0  0  0  0
   45.9340   33.4750   37.3790 C   0  0  0  0  0  0  0  0  0  0  0  0
   45.8140   32.9450   38.6010 N   0  0  0  0  0  0  0  0  0  0  0  0
   44.5220   32.9600   38.9570 C   0  0  0  0  0  0  0  0  0  0  0  0
   43.8580   32.5380   40.1010 C   0  0  0  0  0  0  0  0  0  0  0  0
   42.0240   32.3190   41.1450 H   0  0  0  0  0  0  0  0  0  0  0  0
   41.8870   34.0830   37.2430 H   0  0  0  0  0  0  0  0  0  0  0  0
   44.3840   34.2780   36.0520 H   0  0  0  0  0  0  0  0  0  0  0  0
   46.7790   33.6540   36.7210 H   0  0  0  0  0  0  0  0  0  0  0  0
   44.4150   32.0890   40.9360 H   0  0  0  0  0  0  0  0  0  0  0  0
   37.1100   31.7280   38.6650 O   0  0  0  0  0  0  0  0  0  0  0  0
   37.3150   30.3760   38.9300 C   0  0  0  0  0  0  0  0  0  0  0  0
   37.1940   29.8630   37.6900 C   0  0  0  0  0  0  0  0  0  0  0  0
   37.4710   28.0040   38.0080 S   0  0  0  0  0  0  0  0  0  0  0  0
   37.6990   28.3830   39.8500 C   0  0  0  0  0  0  0  0  0  0  0  0
   37.5610   29.4760   39.8420 N   0  0  0  0  0  0  0  0  0  0  0  0
   37.0170   29.8710   36.5180 H   0  0  0  0  0  0  0  0  0  0  0  0
   39.0040   28.0470   41.9050 C   0  0  1  0  0  3  0  0  0  0  0  0
   37.9940   27.4160   41.0210 C   0  0  1  0  0  3  0  0  0  0  0  0
   36.8270   27.0190   41.5970 O   0  0  0  0  0  0  0  0  0  0  0  0
   36.3210   27.8730   42.5580 C   0  0  0  0  0  2  0  0  0  0  0  0
   37.2800   27.8340   43.7300 C   0  0  1  0  0  3  0  0  0  0  0  0
   38.5420   28.5200   43.2280 C   0  0  2  0  0  3  0  0  0  0  0  0
   40.0520   27.1310   42.1520 O   0  0  0  0  0  0  0  0  0  0  0  0
   39.5780   26.2630   42.3010 H   0  0  0  0  0  0  0  0  0  0  0  0
   36.7970   28.5050   44.8370 O   0  0  0  0  0  0  0  0  0  0  0  0
   36.1680   27.8610   45.2980 H   0  0  0  0  0  0  0  0  0  0  0  0
   38.2710   29.8990   43.2230 O   0  0  0  0  0  0  0  0  0  0  0  0
   38.2020   30.2570   44.1420 H   0  0  0  0  0  0  0  0  0  0  0  0
  1  6  1  0  0  0  0
  2  1  2  0  0  0  0
  2  3  1  0  0  0  0
  3  4  2  0  0  0  0
  4  5  1  0  0  0  0
  5  8  1  0  0  0  0
  6  5  2  0  0  0  0
  7  2  1  0  0  0  0
  9 18  1  0  0  0  0
 10  3  1  0  0  0  0
 10  9  2  0  0  0  0
 11 10  1  0  0  0  0
 12 11  2  0  0  0  0
 12 16  1  0  0  0  0
 13 14  1  0  0  0  0
 13 12  1  0  0  0  0
 14 15  2  0  0  0  0
 15 16  1  0  0  0  0
 16 17  2  0  0  0  0
 17  9  1  0  0  0  0
 17 22  1  0  0  0  0
 19 11  1  0  0  0  0
 20 13  1  0  0  0  0
 21 14  1  0  0  0  0
 23 24  1  0  0  0  0
 23  1  1  0  0  0  0
 24 28  1  0  0  0  0
 25 26  1  0  0  0  0
 25 24  2  0  0  0  0
 26 27  1  0  0  0  0
 28 27  2  0  0  0  0
 29 25  1  0  0  0  0
 30 36  1  1  0  0  0
 30 35  1  0  0  0  0
 31 27  1  6  0  0  0
 31 32  1  0  0  0  0
 31 30  1  0  0  0  0
 32 33  1  0  0  0  0
 33 34  1  0  0  0  0
 34 38  1  1  0  0  0
 35 40  1  6  0  0  0
 35 34  1  0  0  0  0
 36 37  1  0  0  0  0
 38 39  1  0  0  0  0
 40 41  1  0  0  0  0
M  END
>  <minimizedAffinity>
-6.99721766

$$$$
