REMARK  Name = 
REMARK  5 active torsions:
REMARK  status: ('A' for Active; 'I' for Inactive)
REMARK    1  A    between atoms: C_2  and  C_7
REMARK    2  A    between atoms: C_5  and  C_15
REMARK    3  A    between atoms: O_13  and  C_14
REMARK    4  A    between atoms: C_18  and  O_19
REMARK    5  A    between atoms: C_20  and  O_21
REMARK                            x       y       z     vdW  Elec       q    Type
REMARK                         _______ _______ _______ _____ _____    ______ ____
ROOT
ATOM      1  C   UNL     1      44.383  35.779  44.434  0.00  0.00    +0.000 A 
ATOM      2  C   UNL     1      44.664  35.070  43.277  0.00  0.00    +0.000 A 
ATOM      3  C   UNL     1      45.288  33.835  43.392  0.00  0.00    +0.000 A 
ATOM      4  N   UNL     1      45.592  33.380  44.624  0.00  0.00    +0.000 NA
ATOM      5  C   UNL     1      45.308  34.091  45.745  0.00  0.00    +0.000 A 
ATOM      6  N   UNL     1      44.699  35.300  45.668  0.00  0.00    +0.000 NA
ATOM      7  H   UNL     1      43.897  36.746  44.389  0.00  0.00    +0.000 HD
ATOM      8  H   UNL     1      45.496  33.304  42.473  0.00  0.00    +0.000 HD
ENDROOT
BRANCH   5  10
ATOM      9  C   UNL     1      44.517  33.634  48.072  0.00  0.00    +0.000 C 
ATOM     10  C   UNL     1      45.662  33.546  47.056  0.00  0.00    +0.000 C 
ATOM     11  O   UNL     1      45.970  32.181  47.028  0.00  0.00    +0.000 OA
ATOM     12  C   UNL     1      46.752  31.940  48.140  0.00  0.00    +0.000 C 
ATOM     13  C   UNL     1      46.127  32.298  49.452  0.00  0.00    +0.000 C 
ATOM     14  C   UNL     1      45.214  33.481  49.424  0.00  0.00    +0.000 C 
BRANCH   9  15
ATOM     15  O   UNL     1      43.664  32.537  47.858  0.00  0.00    +0.000 OA
ATOM     16  H   UNL     1      42.745  32.850  47.659  0.00  0.00    +0.000 HD
ENDBRANCH   9  15
BRANCH  13  17
ATOM     17  O   UNL     1      45.417  31.198  49.926  0.00  0.00    +0.000 OA
ATOM     18  H   UNL     1      46.055  30.462  50.104  0.00  0.00    +0.000 HD
ENDBRANCH  13  17
BRANCH  14  19
ATOM     19  O   UNL     1      45.986  34.633  49.596  0.00  0.00    +0.000 OA
ATOM     20  H   UNL     1      46.917  34.430  49.808  0.00  0.00    +0.000 HD
ENDBRANCH  14  19
ENDBRANCH   5  10
BRANCH   2  21
ATOM     21  C   UNL     1      44.264  35.711  41.997  0.00  0.00    +0.000 C 
ATOM     22  H   UNL     1      43.209  35.428  41.808  0.00  0.00    +0.000 HD
ATOM     23  H   UNL     1      44.931  35.271  41.210  0.00  0.00    +0.000 HD
ATOM     24  H   UNL     1      44.435  36.783  42.078  0.00  0.00    +0.000 HD
ENDBRANCH   2  21
TORSDOF 5
