REMARK  Name = 
REMARK  6 active torsions:
REMARK  status: ('A' for Active; 'I' for Inactive)
REMARK    1  A    between atoms: C_1  and  C_7
REMARK    2  A    between atoms: C_5  and  C_19
REMARK    3  A    between atoms: C_8  and  C_9
REMARK    4  A    between atoms: O_17  and  C_18
REMARK    5  A    between atoms: C_22  and  O_23
REMARK    6  A    between atoms: C_24  and  O_25
REMARK                            x       y       z     vdW  Elec       q    Type
REMARK                         _______ _______ _______ _____ _____    ______ ____
ROOT
ATOM      1  C   UNL     1      44.694  35.518  43.608  0.00  0.00    +0.000 A 
ATOM      2  C   UNL     1      43.934  35.447  42.401  0.00  0.00    +0.000 A 
ATOM      3  C   UNL     1      43.782  34.172  41.829  0.00  0.00    +0.000 A 
ATOM      4  N   UNL     1      44.355  33.091  42.440  0.00  0.00    +0.000 NA
ATOM      5  C   UNL     1      45.073  33.216  43.595  0.00  0.00    +0.000 A 
ATOM      6  N   UNL     1      45.226  34.435  44.155  0.00  0.00    +0.000 NA
ATOM      7  H   UNL     1      43.527  36.355  42.004  0.00  0.00    +0.000 HD
ATOM      8  H   UNL     1      43.215  34.099  40.924  0.00  0.00    +0.000 HD
ENDROOT
BRANCH   5  10
ATOM      9  C   UNL     1      46.377  31.167  43.202  0.00  0.00    +0.000 C 
ATOM     10  C   UNL     1      45.677  32.033  44.229  0.00  0.00    +0.000 C 
ATOM     11  O   UNL     1      46.637  32.351  45.191  0.00  0.00    +0.000 OA
ATOM     12  C   UNL     1      46.869  31.198  45.938  0.00  0.00    +0.000 C 
ATOM     13  C   UNL     1      47.413  30.056  45.122  0.00  0.00    +0.000 C 
ATOM     14  C   UNL     1      46.602  29.814  43.865  0.00  0.00    +0.000 C 
BRANCH   9  15
ATOM     15  O   UNL     1      47.630  31.659  42.848  0.00  0.00    +0.000 OA
ATOM     16  H   UNL     1      47.592  32.452  42.257  0.00  0.00    +0.000 HD
ENDBRANCH   9  15
BRANCH  13  17
ATOM     17  O   UNL     1      47.291  28.895  45.901  0.00  0.00    +0.000 OA
ATOM     18  H   UNL     1      48.086  28.886  46.495  0.00  0.00    +0.000 HD
ENDBRANCH  13  17
BRANCH  14  19
ATOM     19  O   UNL     1      47.344  29.031  42.978  0.00  0.00    +0.000 OA
ATOM     20  H   UNL     1      46.748  28.452  42.435  0.00  0.00    +0.000 HD
ENDBRANCH  14  19
ENDBRANCH   5  10
BRANCH   1  21
ATOM     21  C   UNL     1      44.858  36.830  44.215  0.00  0.00    +0.000 C 
ATOM     22  C   UNL     1      45.235  37.843  43.466  0.00  0.00    +0.000 C 
BRANCH  22  23
ATOM     23  C   UNL     1      45.425  39.214  43.977  0.00  0.00    +0.000 C 
ATOM     24  H   UNL     1      44.422  39.722  43.929  0.00  0.00    +0.000 HD
ATOM     25  H   UNL     1      46.077  39.801  43.326  0.00  0.00    +0.000 HD
ATOM     26  H   UNL     1      45.708  39.238  45.039  0.00  0.00    +0.000 HD
ENDBRANCH  22  23
ENDBRANCH   1  21
TORSDOF 6
