
     RDKit          3D

 43 46  0  0  0  0  0  0  0  0999 V2000
   45.2183   36.1778   43.4898 C   0  0  0  0  0  0  0  0  0  0  0  0
   45.8561   34.9765   43.1621 C   0  0  0  0  0  0  0  0  0  0  0  0
   45.8035   33.9863   44.1441 C   0  0  0  0  0  0  0  0  0  0  0  0
   45.1840   34.1796   45.3159 N   0  0  0  0  0  0  0  0  0  0  0  0
   44.5779   35.3710   45.5835 C   0  0  0  0  0  0  0  0  0  0  0  0
   44.5982   36.3561   44.6760 N   0  0  0  0  0  0  0  0  0  0  0  0
   46.4233   32.7528   43.8916 C   0  0  0  0  0  0  0  0  0  0  0  0
   47.7038   32.2887   44.0109 C   0  0  0  0  0  0  0  0  0  0  0  0
   48.0388   31.0418   43.6922 C   0  0  0  0  0  0  0  0  0  0  0  0
   47.0474   30.2257   43.2349 C   0  0  0  0  0  0  0  0  0  0  0  0
   45.5651   31.3317   43.2737 S   0  0  0  0  0  0  0  0  0  0  0  0
   46.4959   34.8308   41.9025 C   0  0  0  0  0  0  0  0  0  0  0  0
   47.6926   35.2380   41.8300 O   0  0  0  0  0  0  0  0  0  0  0  0
   45.7546   34.2208   40.7458 C   0  0  0  0  0  0  0  0  0  0  0  0
   44.4070   34.3389   40.4861 C   0  0  0  0  0  0  0  0  0  0  0  0
   44.1921   33.6347   39.3598 N   0  0  0  0  0  0  0  0  0  0  0  0
   45.3854   33.0998   38.9443 C   0  0  0  0  0  0  0  0  0  0  0  0
   46.3510   33.4649   39.8050 N   0  0  0  0  0  0  0  0  0  0  0  0
   45.2205   36.9961   42.7676 H   0  0  0  0  0  0  0  0  0  0  0  0
   44.0857   35.4936   46.5417 H   0  0  0  0  0  0  0  0  0  0  0  0
   48.4367   33.0298   44.3923 H   0  0  0  0  0  0  0  0  0  0  0  0
   49.0272   30.6062   43.7597 H   0  0  0  0  0  0  0  0  0  0  0  0
   47.0275   29.1995   42.9120 H   0  0  0  0  0  0  0  0  0  0  0  0
   43.6870   34.8902   41.0797 H   0  0  0  0  0  0  0  0  0  0  0  0
   43.3079   33.4910   38.8577 H   0  0  0  0  0  0  0  0  0  0  0  0
   46.1284   32.5083   35.4383 O   0  0  0  0  0  0  0  0  0  0  0  0
   46.4831   32.9612   36.7298 C   0  0  1  0  0  0  0  0  0  0  0  0
   45.7070   32.2463   37.7680 C   0  0  1  0  0  0  0  0  0  0  0  0
   46.2263   31.0583   38.2138 O   0  0  0  0  0  0  0  0  0  0  0  0
   47.5069   30.7549   37.8228 C   0  0  0  0  0  0  0  0  0  0  0  0
   48.4124   31.9446   37.9869 C   0  0  1  0  0  0  0  0  0  0  0  0
   49.7111   31.5105   37.6436 O   0  0  0  0  0  0  0  0  0  0  0  0
   47.9759   32.9520   36.9355 C   0  0  1  0  0  0  0  0  0  0  0  0
   48.5548   32.5286   35.7395 O   0  0  0  0  0  0  0  0  0  0  0  0
   45.3301   31.9352   35.4531 H   0  0  0  0  0  0  0  0  0  0  0  0
   46.1622   34.0255   36.7297 H   0  0  0  0  0  0  0  0  0  0  0  0
   44.7315   31.9634   37.2721 H   0  0  0  0  0  0  0  0  0  0  0  0
   47.5931   30.4045   36.7769 H   0  0  0  0  0  0  0  0  0  0  0  0
   47.8882   29.9542   38.4893 H   0  0  0  0  0  0  0  0  0  0  0  0
   48.3752   32.3810   38.9988 H   0  0  0  0  0  0  0  0  0  0  0  0
   50.1735   32.2194   37.0968 H   0  0  0  0  0  0  0  0  0  0  0  0
   48.3947   33.9665   37.1314 H   0  0  0  0  0  0  0  0  0  0  0  0
   48.9715   33.2370   35.2209 H   0  0  0  0  0  0  0  0  0  0  0  0
  1  6  2  0
  2  1  1  0
  2  3  2  0
  3  4  1  0
  4  5  2  0
  6  5  1  0
  7  8  2  0
  7  3  1  0
  9  8  1  0
 10 11  1  0
 10  9  2  0
 11  7  1  0
 12  2  1  0
 13 12  2  0
 14 12  1  0
 15 14  2  0
 16 15  1  0
 17 16  1  0
 17 18  2  0
 18 14  1  0
  1 19  1  0
  5 20  1  0
  8 21  1  0
  9 22  1  0
 10 23  1  0
 15 24  1  0
 16 25  1  0
 26 27  1  0
 27 28  1  0
 28 29  1  0
 29 30  1  0
 30 31  1  0
 31 32  1  0
 31 33  1  0
 33 34  1  0
 33 27  1  0
 26 35  1  0
 27 36  1  6
 28 37  1  6
 30 38  1  0
 30 39  1  0
 31 40  1  1
 32 41  1  0
 33 42  1  1
 34 43  1  0
 17 28  1  0
M  ISO  7  19  14  20  14  21  14  22  14  23  14  24  14  25   9
M  END
>  <DihAtoms>  (1) 
15,16,27,26

>  <DihDeg>  (1) 
3.8545125391431783

$$$$
