REMARK  Name = 
REMARK  13 active torsions:
REMARK  status: ('A' for Active; 'I' for Inactive)
REMARK    1  A    between atoms: C_1  and  O_12
REMARK    2  A    between atoms: C_2  and  C_3
REMARK    3  A    between atoms: C_3  and  O_4
REMARK    4  A    between atoms: O_4  and  P_6
REMARK    5  A    between atoms: P_6  and  O_7
REMARK    6  A    between atoms: P_6  and  O_8
REMARK    7  A    between atoms: O_8  and  C_9
REMARK    8  A    between atoms: O_12  and  C_13
REMARK    9  A    between atoms: C_13  and  C_15
REMARK   10  A    between atoms: C_18  and  C_36
REMARK   11  A    between atoms: O_34  and  C_35
REMARK   12  A    between atoms: C_39  and  O_40
REMARK   13  A    between atoms: C_41  and  O_42
REMARK                            x       y       z     vdW  Elec       q    Type
REMARK                         _______ _______ _______ _____ _____    ______ ____
ROOT
ATOM      1  C   UNL     1      41.444  35.647  41.209  0.00  0.00    +0.000 C 
ATOM      2  H   UNL     1      41.420  35.653  42.334  0.00  0.00    +0.000 HD
ATOM      3  H   UNL     1      41.147  36.676  40.912  0.00  0.00    +0.000 HD
ENDROOT
BRANCH   1   5
ATOM      4  C   UNL     1      40.295  33.534  41.579  0.00  0.00    +0.000 A 
ATOM      5  C   UNL     1      40.315  34.734  40.846  0.00  0.00    +0.000 A 
ATOM      6  C   UNL     1      39.344  34.947  39.929  0.00  0.00    +0.000 A 
ATOM      7  N   UNL     1      38.438  33.994  39.792  0.00  0.00    +0.000 NA
ATOM      8  C   UNL     1      38.388  32.856  40.464  0.00  0.00    +0.000 A 
ATOM      9  N   UNL     1      39.363  32.577  41.425  0.00  0.00    +0.000 NA
ATOM     10  H   UNL     1      41.032  33.282  42.331  0.00  0.00    +0.000 HD
ATOM     11  H   UNL     1      39.398  35.880  39.389  0.00  0.00    +0.000 HD
BRANCH   8  13
ATOM     12  C   UNL     1      37.157  30.998  41.476  0.00  0.00    +0.000 C 
ATOM     13  C   UNL     1      37.339  31.814  40.269  0.00  0.00    +0.000 C 
ATOM     14  O   UNL     1      37.627  31.176  39.096  0.00  0.00    +0.000 OA
ATOM     15  C   UNL     1      37.395  29.832  39.042  0.00  0.00    +0.000 C 
ATOM     16  C   UNL     1      38.330  29.249  40.111  0.00  0.00    +0.000 C 
ATOM     17  C   UNL     1      37.621  29.573  41.407  0.00  0.00    +0.000 C 
BRANCH  12  18
ATOM     18  O   UNL     1      37.758  31.554  42.628  0.00  0.00    +0.000 OA
ATOM     19  H   UNL     1      38.589  31.099  42.861  0.00  0.00    +0.000 HD
ENDBRANCH  12  18
BRANCH  16  20
ATOM     20  O   UNL     1      38.396  27.893  39.898  0.00  0.00    +0.000 OA
ATOM     21  H   UNL     1      38.353  27.710  38.916  0.00  0.00    +0.000 HD
ENDBRANCH  16  20
BRANCH  17  22
ATOM     22  O   UNL     1      38.493  29.223  42.440  0.00  0.00    +0.000 OA
ATOM     23  H   UNL     1      38.158  28.470  42.987  0.00  0.00    +0.000 HD
ENDBRANCH  17  22
ENDBRANCH   8  13
ENDBRANCH   1   5
BRANCH   1  24
ATOM     24  O   UNL     1      42.621  35.329  40.612  0.00  0.00    +0.000 OA
BRANCH  24  25
ATOM     25  C   UNL     1      43.878  35.226  41.193  0.00  0.00    +0.000 C 
ATOM     26  C   UNL     1      43.962  35.580  42.472  0.00  0.00    +0.000 C 
BRANCH  26  27
ATOM     27  C   UNL     1      45.221  35.550  43.318  0.00  0.00    +0.000 C 
ATOM     28  H   UNL     1      46.061  35.184  42.694  0.00  0.00    +0.000 HD
ATOM     29  H   UNL     1      45.466  36.549  43.719  0.00  0.00    +0.000 HD
BRANCH  27  30
ATOM     30  O   UNL     1      45.001  34.654  44.346  0.00  0.00    +0.000 OA
BRANCH  30  32
ATOM     31  O   UNL     1      45.703  32.499  42.951  0.00  0.00    +0.000 OA
ATOM     32  P   UNL     1      45.999  33.303  44.197  0.00  0.00    +0.000 P 
BRANCH  32  33
ATOM     33  O   UNL     1      47.631  33.788  44.097  0.00  0.00    +0.000 OA
ATOM     34  H   UNL     1      47.677  34.589  44.710  0.00  0.00    +0.000 HD
ENDBRANCH  32  33
BRANCH  32  35
ATOM     35  O   UNL     1      45.860  32.325  45.564  0.00  0.00    +0.000 OA
BRANCH  35  36
ATOM     36  C   UNL     1      46.201  32.990  46.725  0.00  0.00    +0.000 C 
ATOM     37  C   UNL     1      47.056  32.289  47.736  0.00  0.00    +0.000 C 
ATOM     38  C   UNL     1      45.566  32.464  47.988  0.00  0.00    +0.000 C 
ATOM     39  H   UNL     1      46.281  34.089  46.633  0.00  0.00    +0.000 HD
ATOM     40  H   UNL     1      47.421  31.287  47.421  0.00  0.00    +0.000 HD
ATOM     41  H   UNL     1      47.712  32.949  48.336  0.00  0.00    +0.000 HD
ATOM     42  H   UNL     1      45.238  33.174  48.772  0.00  0.00    +0.000 HD
ATOM     43  H   UNL     1      45.001  31.510  47.950  0.00  0.00    +0.000 HD
ENDBRANCH  35  36
ENDBRANCH  32  35
ENDBRANCH  30  32
ENDBRANCH  27  30
ENDBRANCH  26  27
ENDBRANCH  24  25
ENDBRANCH   1  24
TORSDOF 13
