
 OpenBabel03252503133D

 37 40  0  0  1  0  0  0  0  0999 V2000
   46.3820   34.1880   40.6540 C   0  0  0  0  0  0  0  0  0  0  0  0
   45.0500   33.9180   40.4280 C   0  0  0  0  0  0  0  0  0  0  0  0
   44.9850   33.4420   39.1710 N   0  0  0  0  0  0  0  0  0  0  0  0
   46.2520   33.4230   38.6450 C   0  0  0  0  0  0  0  0  0  0  0  0
   47.1140   33.8860   39.5660 N   0  0  0  0  0  0  0  0  0  0  0  0
   44.2380   34.0660   41.1310 H   0  0  0  0  0  0  0  0  0  0  0  0
   44.1560   33.1320   38.6500 H   0  0  0  0  0  0  0  0  0  0  0  0
   47.4570   31.6990   37.3390 C   0  0  1  0  0  3  0  0  0  0  0  0
   46.7390   32.9930   37.3050 C   0  0  1  0  0  3  0  0  0  0  0  0
   45.7080   33.1010   36.4070 O   0  0  0  0  0  0  0  0  0  0  0  0
   45.3030   31.9450   35.7860 C   0  0  0  0  0  2  0  0  0  0  0  0
   45.1640   30.8250   36.7800 C   0  0  2  0  0  3  0  0  0  0  0  0
   46.5750   30.4820   37.2260 C   0  0  1  0  0  3  0  0  0  0  0  0
   48.5010   31.6810   36.3870 O   0  0  0  0  0  0  0  0  0  0  0  0
   48.6660   32.5700   36.0010 H   0  0  0  0  0  0  0  0  0  0  0  0
   44.6640   29.7140   36.0660 O   0  0  0  0  0  0  0  0  0  0  0  0
   45.1360   28.8760   36.3660 H   0  0  0  0  0  0  0  0  0  0  0  0
   47.1080   29.6780   36.2190 O   0  0  0  0  0  0  0  0  0  0  0  0
   47.5790   28.8900   36.5390 H   0  0  0  0  0  0  0  0  0  0  0  0
   46.9760   34.7410   41.9200 C   0  0  0  0  0  0  0  0  0  0  0  0
   48.2000   35.0420   42.0440 O   0  0  0  0  0  0  0  0  0  0  0  0
   45.5430   36.1920   43.2640 C   0  0  0  0  0  0  0  0  0  0  0  0
   46.1560   34.9510   43.0600 C   0  0  0  0  0  0  0  0  0  0  0  0
   45.8950   33.9890   44.0370 C   0  0  0  0  0  0  0  0  0  0  0  0
   45.1120   34.2440   45.0930 N   0  0  0  0  0  0  0  0  0  0  0  0
   44.5390   35.4720   45.2430 C   0  0  0  0  0  0  0  0  0  0  0  0
   44.7570   36.4320   44.3350 N   0  0  0  0  0  0  0  0  0  0  0  0
   45.7050   36.9910   42.5390 H   0  0  0  0  0  0  0  0  0  0  0  0
   43.9110   35.6440   46.1100 H   0  0  0  0  0  0  0  0  0  0  0  0
   46.4760   32.7190   43.9050 C   0  0  0  0  0  0  0  0  0  0  0  0
   47.6990   32.1940   44.2180 C   0  0  0  0  0  0  0  0  0  0  0  0
   48.0080   30.9230   43.9790 C   0  0  0  0  0  0  0  0  0  0  0  0
   47.0480   30.1440   43.4030 C   0  0  0  0  0  0  0  0  0  0  0  0
   45.6380   31.3250   43.2030 S   0  0  0  0  0  0  0  0  0  0  0  0
   48.4100   32.9080   44.6830 H   0  0  0  0  0  0  0  0  0  0  0  0
   48.9510   30.4390   44.1990 H   0  0  0  0  0  0  0  0  0  0  0  0
   47.0190   29.1110   43.1040 H   0  0  0  0  0  0  0  0  0  0  0  0
  1 20  1  0  0  0  0
  2  1  2  0  0  0  0
  2  6  1  0  0  0  0
  3  2  1  0  0  0  0
  4  3  1  0  0  0  0
  4  5  2  0  0  0  0
  5  1  1  0  0  0  0
  7  3  1  0  0  0  0
  8 14  1  6  0  0  0
  9  8  1  0  0  0  0
  9  4  1  1  0  0  0
 10  9  1  0  0  0  0
 11 10  1  0  0  0  0
 11 12  1  0  0  0  0
 12 16  1  6  0  0  0
 12 13  1  0  0  0  0
 13 18  1  6  0  0  0
 13  8  1  0  0  0  0
 15 14  1  0  0  0  0
 16 17  1  0  0  0  0
 18 19  1  0  0  0  0
 20 21  2  0  0  0  0
 20 23  1  0  0  0  0
 22 27  1  0  0  0  0
 23 22  2  0  0  0  0
 23 24  1  0  0  0  0
 24 25  2  0  0  0  0
 25 26  1  0  0  0  0
 26 29  1  0  0  0  0
 27 26  2  0  0  0  0
 28 22  1  0  0  0  0
 30 24  1  0  0  0  0
 30 31  2  0  0  0  0
 31 35  1  0  0  0  0
 32 36  1  0  0  0  0
 32 31  1  0  0  0  0
 33 32  2  0  0  0  0
 34 33  1  0  0  0  0
 34 30  1  0  0  0  0
 37 33  1  0  0  0  0
M  END
>  <minimizedAffinity>
-5.05031872

>  <minimizedRMSD>
1.32919884

$$$$
