
 OpenBabel03252508173D

 50 54  0  0  1  0  0  0  0  0999 V2000
   47.2280   31.6900   48.2400 C   0  0  1  0  0  0  0  0  0  0  0  0
   46.6980   30.8240   49.3320 C   0  0  0  0  0  0  0  0  0  0  0  0
   48.1160   31.1760   49.3010 C   0  0  1  0  0  0  0  0  0  0  0  0
   46.7170   32.6960   48.2940 H   0  0  0  0  0  0  0  0  0  0  0  0
   46.4350   29.7680   49.0840 H   0  0  0  0  0  0  0  0  0  0  0  0
   46.0760   31.2110   50.1540 H   0  0  0  0  0  0  0  0  0  0  0  0
   48.4490   31.9400   50.0340 H   0  0  0  0  0  0  0  0  0  0  0  0
   49.1640   30.1820   48.9140 C   0  0  2  0  0  0  0  0  0  0  0  0
   49.8540   29.5160   50.1310 C   0  0  0  0  0  0  0  0  0  0  0  0
   50.6040   30.4450   49.2760 C   0  0  2  0  0  0  0  0  0  0  0  0
   48.9280   29.4200   48.1590 H   0  0  0  0  0  0  0  0  0  0  0  0
   49.6050   29.8970   51.1400 H   0  0  0  0  0  0  0  0  0  0  0  0
   50.1060   28.4630   50.1130 H   0  0  0  0  0  0  0  0  0  0  0  0
   51.3220   29.9640   48.5480 H   0  0  0  0  0  0  0  0  0  0  0  0
   52.6060   31.6640   49.8540 C   0  0  2  0  0  3  0  0  0  0  0  0
   51.0740   31.7590   49.7680 C   0  0  2  0  0  3  0  0  0  0  0  0
   50.6810   32.0830   51.0650 O   0  0  0  0  0  0  0  0  0  0  0  0
   51.5210   32.9370   51.7270 C   0  0  0  0  0  2  0  0  0  0  0  0
   52.2770   33.8690   50.8050 C   0  0  1  0  0  3  0  0  0  0  0  0
   53.1370   33.0750   49.8410 C   0  0  1  0  0  3  0  0  0  0  0  0
   53.1230   30.9580   48.7680 O   0  0  0  0  0  0  0  0  0  0  0  0
   53.4260   30.0430   49.0110 H   0  0  0  0  0  0  0  0  0  0  0  0
   51.4350   34.7570   50.1560 O   0  0  0  0  0  0  0  0  0  0  0  0
   51.8790   35.6350   50.0420 H   0  0  0  0  0  0  0  0  0  0  0  0
   54.4860   33.0910   50.1810 O   0  0  0  0  0  0  0  0  0  0  0  0
   54.9690   32.8210   49.3410 H   0  0  0  0  0  0  0  0  0  0  0  0
   47.2350   31.0760   46.8860 C   0  0  0  0  0  0  0  0  0  0  0  0
   48.1290   30.5800   46.5450 H   0  0  0  0  0  0  0  0  0  0  0  0
   46.3800   30.3460   46.8090 H   0  0  0  0  0  0  0  0  0  0  0  0
   46.1310   33.0300   46.1600 C   0  0  0  0  0  3  0  0  0  0  0  0
   46.9430   32.1170   45.8280 C   0  0  0  0  0  3  0  0  0  0  0  0
   44.5560   35.8730   44.4190 C   0  0  0  0  0  0  0  0  0  0  0  0
   45.1870   35.8670   43.1790 C   0  0  0  0  0  0  0  0  0  0  0  0
   46.1200   34.8980   42.9810 C   0  0  0  0  0  0  0  0  0  0  0  0
   46.4010   33.9960   43.9640 N   0  0  0  0  0  0  0  0  0  0  0  0
   45.7660   34.0340   45.1570 C   0  0  0  0  0  0  0  0  0  0  0  0
   44.8600   34.9750   45.3510 N   0  0  0  0  0  0  0  0  0  0  0  0
   43.8070   36.6170   44.6380 H   0  0  0  0  0  0  0  0  0  0  0  0
   44.9610   36.5800   42.4120 H   0  0  0  0  0  0  0  0  0  0  0  0
   46.8590   34.7670   41.7330 C   0  0  0  0  0  0  0  0  0  0  0  0
   48.0580   35.3580   41.4690 C   0  0  0  0  0  0  0  0  0  0  0  0
   48.7450   35.2210   40.2780 C   0  0  0  0  0  0  0  0  0  0  0  0
   48.2150   34.4460   39.2710 C   0  0  0  0  0  0  0  0  0  0  0  0
   47.0110   33.8250   39.4760 C   0  0  0  0  0  0  0  0  0  0  0  0
   46.3670   33.9960   40.6860 C   0  0  0  0  0  0  0  0  0  0  0  0
   48.5120   35.9820   42.2420 H   0  0  0  0  0  0  0  0  0  0  0  0
   49.6920   35.7190   40.1340 H   0  0  0  0  0  0  0  0  0  0  0  0
   48.7270   34.3230   38.3340 H   0  0  0  0  0  0  0  0  0  0  0  0
   46.5620   33.2070   38.7070 H   0  0  0  0  0  0  0  0  0  0  0  0
   45.4120   33.4840   40.8070 H   0  0  0  0  0  0  0  0  0  0  0  0
  1  4  1  1  0  0  0
  1  3  1  0  0  0  0
  1  2  1  0  0  0  0
  2  6  1  0  0  0  0
  3  2  1  0  0  0  0
  3  7  1  1  0  0  0
  5  2  1  0  0  0  0
  8 11  1  6  0  0  0
  8 10  1  0  0  0  0
  8  3  1  0  0  0  0
  8  9  1  0  0  0  0
  9 12  1  0  0  0  0
 10 14  1  6  0  0  0
 10 16  1  0  0  0  0
 10  9  1  0  0  0  0
 13  9  1  0  0  0  0
 15 21  1  6  0  0  0
 16 15  1  0  0  0  0
 16 17  1  1  0  0  0
 17 18  1  0  0  0  0
 19 23  1  6  0  0  0
 19 18  1  0  0  0  0
 20 15  1  0  0  0  0
 20 25  1  1  0  0  0
 20 19  1  0  0  0  0
 21 22  1  0  0  0  0
 24 23  1  0  0  0  0
 26 25  1  0  0  0  0
 27  1  1  0  0  0  0
 28 27  1  0  0  0  0
 29 27  1  0  0  0  0
 31 30  2  0  0  0  0
 31 27  1  0  0  0  0
 32 38  1  0  0  0  0
 32 37  1  0  0  0  0
 33 32  2  0  0  0  0
 34 33  1  0  0  0  0
 34 35  2  0  0  0  0
 35 36  1  0  0  0  0
 36 37  2  0  0  0  0
 36 30  1  0  0  0  0
 39 33  1  0  0  0  0
 40 34  1  0  0  0  0
 41 40  1  0  0  0  0
 41 46  1  0  0  0  0
 42 41  2  0  0  0  0
 43 44  2  0  0  0  0
 43 42  1  0  0  0  0
 44 45  1  0  0  0  0
 45 50  1  0  0  0  0
 45 40  2  0  0  0  0
 47 42  1  0  0  0  0
 48 43  1  0  0  0  0
 49 44  1  0  0  0  0
M  END
>  <minimizedAffinity>
-7.23354435

>  <minimizedRMSD>
1.61072826

$$$$
