REMARK  Name = 
REMARK  9 active torsions:
REMARK  status: ('A' for Active; 'I' for Inactive)
REMARK    1  A    between atoms: C_1  and  C_7
REMARK    2  A    between atoms: C_2  and  C_15
REMARK    3  A    between atoms: C_5  and  C_9
REMARK    4  A    between atoms: C_15  and  C_16
REMARK    5  A    between atoms: C_18  and  C_19
REMARK    6  A    between atoms: C_21  and  C_43
REMARK    7  A    between atoms: O_41  and  C_42
REMARK    8  A    between atoms: C_46  and  O_47
REMARK    9  A    between atoms: C_48  and  O_49
REMARK                            x       y       z     vdW  Elec       q    Type
REMARK                         _______ _______ _______ _____ _____    ______ ____
ROOT
ATOM      1  C   UNL     1      45.895  31.498  48.255  0.00  0.00    +0.000 C 
ATOM      2  C   UNL     1      45.712  30.523  49.368  0.00  0.00    +0.000 C 
ATOM      3  C   UNL     1      46.922  31.340  49.304  0.00  0.00    +0.000 C 
ATOM      4  H   UNL     1      45.070  32.268  48.308  0.00  0.00    +0.000 HD
ATOM      5  H   UNL     1      45.824  29.437  49.138  0.00  0.00    +0.000 HD
ATOM      6  H   UNL     1      45.007  30.687  50.198  0.00  0.00    +0.000 HD
ATOM      7  H   UNL     1      46.983  32.185  50.021  0.00  0.00    +0.000 HD
ENDROOT
BRANCH   3   8
ATOM      8  C   UNL     1      48.241  30.760  48.907  0.00  0.00    +0.000 C 
ATOM      9  C   UNL     1      49.170  30.472  50.114  0.00  0.00    +0.000 C 
ATOM     10  C   UNL     1      49.503  31.544  49.166  0.00  0.00    +0.000 C 
ATOM     11  H   UNL     1      48.267  29.912  48.209  0.00  0.00    +0.000 HD
ATOM     12  H   UNL     1      48.839  30.811  51.114  0.00  0.00    +0.000 HD
ATOM     13  H   UNL     1      49.783  29.580  50.136  0.00  0.00    +0.000 HD
ATOM     14  H   UNL     1      50.318  31.300  48.422  0.00  0.00    +0.000 HD
BRANCH  10  16
ATOM     15  C   UNL     1      50.785  33.583  49.006  0.00  0.00    +0.000 C 
ATOM     16  C   UNL     1      49.487  32.971  49.558  0.00  0.00    +0.000 C 
ATOM     17  O   UNL     1      49.556  33.211  50.929  0.00  0.00    +0.000 OA
ATOM     18  C   UNL     1      50.110  34.413  51.277  0.00  0.00    +0.000 C 
ATOM     19  C   UNL     1      49.920  35.488  50.230  0.00  0.00    +0.000 C 
ATOM     20  C   UNL     1      50.569  35.073  48.924  0.00  0.00    +0.000 C 
BRANCH  15  21
ATOM     21  O   UNL     1      51.072  33.081  47.736  0.00  0.00    +0.000 OA
ATOM     22  H   UNL     1      51.823  32.429  47.740  0.00  0.00    +0.000 HD
ENDBRANCH  15  21
BRANCH  19  23
ATOM     23  O   UNL     1      48.587  35.833  50.073  0.00  0.00    +0.000 OA
ATOM     24  H   UNL     1      48.501  36.800  49.879  0.00  0.00    +0.000 HD
ENDBRANCH  19  23
BRANCH  20  25
ATOM     25  O   UNL     1      51.774  35.728  48.688  0.00  0.00    +0.000 OA
ATOM     26  H   UNL     1      51.938  35.621  47.700  0.00  0.00    +0.000 HD
ENDBRANCH  20  25
ENDBRANCH  10  16
ENDBRANCH   3   8
BRANCH   1  27
ATOM     27  C   UNL     1      46.092  30.900  46.909  0.00  0.00    +0.000 C 
ATOM     28  H   UNL     1      47.033  30.426  46.683  0.00  0.00    +0.000 HD
ATOM     29  H   UNL     1      45.270  30.153  46.715  0.00  0.00    +0.000 HD
BRANCH  27  31
ATOM     30  C   UNL     1      45.762  33.136  46.234  0.00  0.00    +0.000 C 
ATOM     31  C   UNL     1      45.918  31.946  45.830  0.00  0.00    +0.000 C 
BRANCH  30  36
ATOM     32  C   UNL     1      44.528  36.139  44.487  0.00  0.00    +0.000 A 
ATOM     33  C   UNL     1      45.205  36.092  43.272  0.00  0.00    +0.000 A 
ATOM     34  C   UNL     1      46.051  35.044  43.092  0.00  0.00    +0.000 A 
ATOM     35  N   UNL     1      46.208  34.105  44.069  0.00  0.00    +0.000 NA
ATOM     36  C   UNL     1      45.532  34.184  45.237  0.00  0.00    +0.000 A 
ATOM     37  N   UNL     1      44.709  35.203  45.413  0.00  0.00    +0.000 NA
ATOM     38  H   UNL     1      43.842  36.946  44.690  0.00  0.00    +0.000 HD
ATOM     39  H   UNL     1      45.077  36.835  42.510  0.00  0.00    +0.000 HD
BRANCH  34  40
ATOM     40  C   UNL     1      46.824  34.863  41.872  0.00  0.00    +0.000 A 
ATOM     41  C   UNL     1      48.047  35.415  41.632  0.00  0.00    +0.000 A 
ATOM     42  C   UNL     1      48.766  35.231  40.467  0.00  0.00    +0.000 A 
ATOM     43  C   UNL     1      48.246  34.447  39.462  0.00  0.00    +0.000 A 
ATOM     44  C   UNL     1      47.020  33.864  39.643  0.00  0.00    +0.000 A 
ATOM     45  C   UNL     1      46.344  34.081  40.828  0.00  0.00    +0.000 A 
ATOM     46  H   UNL     1      48.494  36.044  42.405  0.00  0.00    +0.000 HD
ATOM     47  H   UNL     1      49.731  35.699  40.341  0.00  0.00    +0.000 HD
ATOM     48  H   UNL     1      48.783  34.287  38.544  0.00  0.00    +0.000 HD
ATOM     49  H   UNL     1      46.578  33.240  38.874  0.00  0.00    +0.000 HD
ATOM     50  H   UNL     1      45.372  33.598  40.930  0.00  0.00    +0.000 HD
ENDBRANCH  34  40
ENDBRANCH  30  36
ENDBRANCH  27  31
ENDBRANCH   1  27
TORSDOF 9
