
 OpenBabel03252507083D

 27 28  0  0  1  0  0  0  0  0999 V2000
   44.8820   35.1520   45.0390 C   0  0  0  0  0  0  0  0  0  0  0  0
   45.4350   35.5110   43.7940 C   0  0  0  0  0  0  0  0  0  0  0  0
   46.3460   34.6380   43.2110 C   0  0  0  0  0  0  0  0  0  0  0  0
   46.6700   33.4750   43.8600 N   0  0  0  0  0  0  0  0  0  0  0  0
   46.1230   33.1690   45.0430 C   0  0  0  0  0  0  0  0  0  0  0  0
   45.2320   33.9960   45.6410 N   0  0  0  0  0  0  0  0  0  0  0  0
   44.1800   35.8490   45.4630 H   0  0  0  0  0  0  0  0  0  0  0  0
   45.1700   36.4200   43.3060 H   0  0  0  0  0  0  0  0  0  0  0  0
   46.5430   32.1820   47.2110 C   0  0  1  0  0  3  0  0  0  0  0  0
   46.4890   31.9090   45.7250 C   0  0  1  0  0  3  0  0  0  0  0  0
   45.5980   30.8760   45.4970 O   0  0  0  0  0  0  0  0  0  0  0  0
   46.1590   29.7220   46.0450 C   0  0  0  0  0  2  0  0  0  0  0  0
   46.1970   29.8080   47.5550 C   0  0  2  0  0  3  0  0  0  0  0  0
   47.1000   30.9690   47.9270 C   0  0  1  0  0  3  0  0  0  0  0  0
   47.3030   33.3230   47.4910 O   0  0  0  0  0  0  0  0  0  0  0  0
   48.0960   33.3720   46.9020 H   0  0  0  0  0  0  0  0  0  0  0  0
   46.6750   28.6210   48.0690 O   0  0  0  0  0  0  0  0  0  0  0  0
   47.5330   28.3840   47.6700 H   0  0  0  0  0  0  0  0  0  0  0  0
   48.3840   30.6590   47.5440 O   0  0  0  0  0  0  0  0  0  0  0  0
   48.8140   31.2780   46.9260 H   0  0  0  0  0  0  0  0  0  0  0  0
   46.8780   35.0190   41.9760 O   0  0  0  0  0  0  0  0  0  0  0  0
   48.7090   33.3680   41.0010 O   0  0  0  0  0  0  0  0  0  0  0  0
   48.5450   34.7200   41.6680 P   0  0  0  0  0  0  0  0  0  0  0  0
   49.1340   35.9670   40.7130 O   0  0  0  0  0  0  0  0  0  0  0  0
   49.2850   36.7480   41.3030 H   0  0  0  0  0  0  0  0  0  0  0  0
   49.3420   34.6650   43.1630 O   0  0  0  0  0  0  0  0  0  0  0  0
   49.8390   35.5230   43.3270 H   0  0  0  0  0  0  0  0  0  0  0  0
  1  7  1  0  0  0  0
  1  6  1  0  0  0  0
  2  1  2  0  0  0  0
  3  2  1  0  0  0  0
  3  4  2  0  0  0  0
  4  5  1  0  0  0  0
  5  6  2  0  0  0  0
  8  2  1  0  0  0  0
  9 15  1  6  0  0  0
  9 14  1  0  0  0  0
 10  5  1  6  0  0  0
 10  9  1  0  0  0  0
 11 10  1  0  0  0  0
 11 12  1  0  0  0  0
 12 13  1  0  0  0  0
 13 14  1  0  0  0  0
 13 17  1  1  0  0  0
 14 19  1  6  0  0  0
 16 15  1  0  0  0  0
 18 17  1  0  0  0  0
 20 19  1  0  0  0  0
 21  3  1  0  0  0  0
 22 23  2  0  0  0  0
 23 21  1  0  0  0  0
 23 26  1  0  0  0  0
 24 25  1  0  0  0  0
 24 23  1  0  0  0  0
 26 27  1  0  0  0  0
M  END
>  <minimizedAffinity>
-6.03533792

>  <minimizedRMSD>
1.31269717

$$$$
