
 OpenBabel03242517323D

 50 53  0  0  1  0  0  0  0  0999 V2000
   45.8170   29.9170   46.9360 C   0  0  0  0  0  0  0  0  0  0  0  0
   45.7700   30.0600   45.8350 H   0  0  0  0  0  0  0  0  0  0  0  0
   46.7640   29.5030   47.3060 H   0  0  0  0  0  0  0  0  0  0  0  0
   44.9930   34.5680   44.8890 C   0  0  0  0  0  0  0  0  0  0  0  0
   45.9450   34.5610   43.8320 C   0  0  0  0  0  0  0  0  0  0  0  0
   47.0750   33.7620   43.9640 C   0  0  0  0  0  0  0  0  0  0  0  0
   47.1960   33.0350   45.1020 N   0  0  0  0  0  0  0  0  0  0  0  0
   46.3100   33.0380   46.0910 C   0  0  0  0  0  0  0  0  0  0  0  0
   45.2360   33.8080   45.9470 N   0  0  0  0  0  0  0  0  0  0  0  0
   46.5230   32.2560   47.2210 N   0  0  0  0  0  0  0  0  0  0  0  0
   47.7140   32.4330   48.0220 C   0  0  0  0  0  0  0  0  0  0  0  0
   48.0020   31.2830   48.9360 C   0  0  0  0  0  0  0  0  0  0  0  0
   46.8770   30.5800   49.4550 N   0  0  0  0  0  0  0  0  0  0  0  0
   45.6200   31.1840   49.0830 C   0  0  0  0  0  0  0  0  0  0  0  0
   45.5160   31.2410   47.5960 C   0  0  2  0  0  0  0  0  0  0  0  0
   44.1110   35.1960   44.7810 H   0  0  0  0  0  0  0  0  0  0  0  0
   45.8160   35.1550   42.9360 H   0  0  0  0  0  0  0  0  0  0  0  0
   47.8370   33.7100   43.1960 H   0  0  0  0  0  0  0  0  0  0  0  0
   47.6470   33.3520   48.6460 H   0  0  0  0  0  0  0  0  0  0  0  0
   48.5630   32.5540   47.3050 H   0  0  0  0  0  0  0  0  0  0  0  0
   48.6760   31.6670   49.7520 H   0  0  0  0  0  0  0  0  0  0  0  0
   48.6220   30.5540   48.3720 H   0  0  0  0  0  0  0  0  0  0  0  0
   46.9520   30.5140   50.4810 H   0  0  0  0  0  0  0  0  0  0  0  0
   44.8100   30.7060   49.6220 H   0  0  0  0  0  0  0  0  0  0  0  0
   45.6320   32.2480   49.4570 H   0  0  0  0  0  0  0  0  0  0  0  0
   44.5050   31.5730   47.2980 H   0  0  0  0  0  0  0  0  0  0  0  0
   44.6990   28.9910   47.3510 C   0  0  0  0  0  3  0  0  0  0  0  0
   44.6420   27.7520   46.8600 C   0  0  0  0  0  3  0  0  0  0  0  0
   43.5920   26.7590   47.1920 C   0  0  0  0  0  0  0  0  0  0  0  0
   43.0350   27.1380   48.0690 H   0  0  0  0  0  0  0  0  0  0  0  0
   44.0190   25.7620   47.4340 H   0  0  0  0  0  0  0  0  0  0  0  0
   42.6130   26.6770   46.0330 C   0  0  2  0  0  0  0  0  0  0  0  0
   43.0690   25.9910   44.7840 C   0  0  0  0  0  0  0  0  0  0  0  0
   42.8390   27.4830   44.8250 C   0  0  1  0  0  0  0  0  0  0  0  0
   41.5270   26.5730   46.3180 H   0  0  0  0  0  0  0  0  0  0  0  0
   44.1060   25.6050   44.8070 H   0  0  0  0  0  0  0  0  0  0  0  0
   42.3570   25.3110   44.3050 H   0  0  0  0  0  0  0  0  0  0  0  0
   43.7740   28.0740   44.7900 H   0  0  0  0  0  0  0  0  0  0  0  0
   40.9370   29.0800   44.8900 C   0  0  1  0  0  3  0  0  0  0  0  0
   41.7290   28.1020   44.0470 C   0  0  2  0  0  3  0  0  0  0  0  0
   40.8000   27.1960   43.5560 O   0  0  0  0  0  0  0  0  0  0  0  0
   40.1370   27.8360   42.5220 C   0  0  0  0  0  2  0  0  0  0  0  0
   39.5030   29.1360   42.8680 C   0  0  1  0  0  3  0  0  0  0  0  0
   40.2190   29.9620   43.8940 C   0  0  2  0  0  3  0  0  0  0  0  0
   40.0120   28.3310   45.6050 O   0  0  0  0  0  0  0  0  0  0  0  0
   39.3880   27.9470   44.9360 H   0  0  0  0  0  0  0  0  0  0  0  0
   39.4740   29.9180   41.6990 O   0  0  0  0  0  0  0  0  0  0  0  0
   38.5780   30.0010   41.3090 H   0  0  0  0  0  0  0  0  0  0  0  0
   41.1820   30.7940   43.3350 O   0  0  0  0  0  0  0  0  0  0  0  0
   42.0800   30.6850   43.7340 H   0  0  0  0  0  0  0  0  0  0  0  0
  1  3  1  0  0  0  0
  1 27  1  0  0  0  0
  1 15  1  0  0  0  0
  2  1  1  0  0  0  0
  4  9  1  0  0  0  0
  5  6  1  0  0  0  0
  5  4  2  0  0  0  0
  6  7  2  0  0  0  0
  7  8  1  0  0  0  0
  8 10  1  0  0  0  0
  9  8  2  0  0  0  0
 10 15  1  0  0  0  0
 10 11  1  0  0  0  0
 11 19  1  0  0  0  0
 11 12  1  0  0  0  0
 12 13  1  0  0  0  0
 12 21  1  0  0  0  0
 13 23  1  0  0  0  0
 14 13  1  0  0  0  0
 14 25  1  0  0  0  0
 14 24  1  0  0  0  0
 15 26  1  6  0  0  0
 15 14  1  0  0  0  0
 16  4  1  0  0  0  0
 17  5  1  0  0  0  0
 18  6  1  0  0  0  0
 20 11  1  0  0  0  0
 22 12  1  0  0  0  0
 28 29  1  0  0  0  0
 28 27  2  0  0  0  0
 29 31  1  0  0  0  0
 29 30  1  0  0  0  0
 32 35  1  1  0  0  0
 32 29  1  0  0  0  0
 33 36  1  0  0  0  0
 33 34  1  0  0  0  0
 33 32  1  0  0  0  0
 34 38  1  1  0  0  0
 34 32  1  0  0  0  0
 37 33  1  0  0  0  0
 39 45  1  1  0  0  0
 40 41  1  1  0  0  0
 40 34  1  0  0  0  0
 40 39  1  0  0  0  0
 42 43  1  0  0  0  0
 42 41  1  0  0  0  0
 43 47  1  6  0  0  0
 43 44  1  0  0  0  0
 44 49  1  6  0  0  0
 44 39  1  0  0  0  0
 46 45  1  0  0  0  0
 48 47  1  0  0  0  0
 49 50  1  0  0  0  0
M  END
>  <minimizedAffinity>
-6.33693743

>  <minimizedRMSD>
2.23681998

$$$$
