REMARK  Name = 
REMARK  6 active torsions:
REMARK  status: ('A' for Active; 'I' for Inactive)
REMARK    1  A    between atoms: C_2  and  N_7
REMARK    2  A    between atoms: C_5  and  C_14
REMARK    3  A    between atoms: C_20  and  C_39
REMARK    4  A    between atoms: O_37  and  C_38
REMARK    5  A    between atoms: C_42  and  O_43
REMARK    6  A    between atoms: C_44  and  O_45
REMARK                            x       y       z     vdW  Elec       q    Type
REMARK                         _______ _______ _______ _____ _____    ______ ____
ROOT
ATOM      1  C   UNL     1      46.344  31.037  44.436  0.00  0.00    +0.000 A 
ATOM      2  C   UNL     1      45.857  32.293  44.633  0.00  0.00    +0.000 A 
ATOM      3  C   UNL     1      46.192  32.937  45.806  0.00  0.00    +0.000 A 
ATOM      4  C   UNL     1      46.992  32.326  46.743  0.00  0.00    +0.000 A 
ATOM      5  C   UNL     1      47.481  31.043  46.524  0.00  0.00    +0.000 A 
ATOM      6  C   UNL     1      47.153  30.379  45.347  0.00  0.00    +0.000 A 
ATOM      7  O   UNL     1      48.252  30.684  47.627  0.00  0.00    +0.000 OA
ATOM      8  C   UNL     1      47.980  31.623  48.660  0.00  0.00    +0.000 C 
ATOM      9  O   UNL     1      47.475  32.749  47.995  0.00  0.00    +0.000 OA
ATOM     10  H   UNL     1      46.135  30.451  43.545  0.00  0.00    +0.000 HD
ATOM     11  H   UNL     1      45.829  33.935  46.008  0.00  0.00    +0.000 HD
ATOM     12  H   UNL     1      47.543  29.400  45.214  0.00  0.00    +0.000 HD
ATOM     13  H   UNL     1      47.207  31.244  49.368  0.00  0.00    +0.000 HD
ENDROOT
BRANCH   2  18
ATOM     14  C   UNL     1      44.147  34.864  42.612  0.00  0.00    +0.000 A 
ATOM     15  C   UNL     1      43.399  34.104  41.733  0.00  0.00    +0.000 A 
ATOM     16  C   UNL     1      43.490  32.718  41.844  0.00  0.00    +0.000 A 
ATOM     17  N   UNL     1      44.287  32.150  42.785  0.00  0.00    +0.000 NA
ATOM     18  C   UNL     1      45.008  32.932  43.632  0.00  0.00    +0.000 A 
ATOM     19  N   UNL     1      44.931  34.279  43.538  0.00  0.00    +0.000 NA
ATOM     20  H   UNL     1      44.186  35.943  42.655  0.00  0.00    +0.000 HD
ATOM     21  H   UNL     1      42.904  32.149  41.155  0.00  0.00    +0.000 HD
BRANCH  15  22
ATOM     22  N   UNL     1      42.603  34.794  40.794  0.00  0.00    +0.000 N 
ATOM     23  C   UNL     1      42.851  34.562  39.398  0.00  0.00    +0.000 C 
ATOM     24  C   UNL     1      42.033  35.397  38.486  0.00  0.00    +0.000 C 
ATOM     25  N   UNL     1      40.652  35.448  38.847  0.00  0.00    +0.000 NA
ATOM     26  C   UNL     1      40.320  35.405  40.214  0.00  0.00    +0.000 C 
ATOM     27  C   UNL     1      41.549  35.726  41.066  0.00  0.00    +0.000 C 
ATOM     28  H   UNL     1      42.755  33.461  39.204  0.00  0.00    +0.000 HD
ATOM     29  H   UNL     1      43.933  34.800  39.215  0.00  0.00    +0.000 HD
ATOM     30  H   UNL     1      42.424  36.415  38.419  0.00  0.00    +0.000 HD
ATOM     31  H   UNL     1      42.119  34.962  37.459  0.00  0.00    +0.000 HD
ATOM     32  H   UNL     1      40.220  36.291  38.400  0.00  0.00    +0.000 HD
ATOM     33  H   UNL     1      40.021  34.373  40.495  0.00  0.00    +0.000 HD
ATOM     34  H   UNL     1      39.477  36.048  40.515  0.00  0.00    +0.000 HD
ATOM     35  H   UNL     1      41.233  35.762  42.125  0.00  0.00    +0.000 HD
ATOM     36  H   UNL     1      41.895  36.742  40.780  0.00  0.00    +0.000 HD
ENDBRANCH  15  22
ENDBRANCH   2  18
BRANCH   8  38
ATOM     37  C   UNL     1      49.155  31.641  50.826  0.00  0.00    +0.000 C 
ATOM     38  C   UNL     1      49.291  31.878  49.347  0.00  0.00    +0.000 C 
ATOM     39  O   UNL     1      50.268  31.124  48.740  0.00  0.00    +0.000 OA
ATOM     40  C   UNL     1      51.155  30.513  49.592  0.00  0.00    +0.000 C 
ATOM     41  C   UNL     1      51.588  31.346  50.757  0.00  0.00    +0.000 C 
ATOM     42  C   UNL     1      50.484  32.091  51.442  0.00  0.00    +0.000 C 
BRANCH  37  43
ATOM     43  O   UNL     1      48.836  30.345  51.166  0.00  0.00    +0.000 OA
ATOM     44  H   UNL     1      47.917  30.236  51.511  0.00  0.00    +0.000 HD
ENDBRANCH  37  43
BRANCH  41  45
ATOM     45  O   UNL     1      52.627  32.197  50.379  0.00  0.00    +0.000 OA
ATOM     46  H   UNL     1      52.328  32.920  49.801  0.00  0.00    +0.000 HD
ENDBRANCH  41  45
BRANCH  42  47
ATOM     47  O   UNL     1      50.440  31.913  52.813  0.00  0.00    +0.000 OA
ATOM     48  H   UNL     1      50.420  32.797  53.293  0.00  0.00    +0.000 HD
ENDBRANCH  42  47
ENDBRANCH   8  38
TORSDOF 6
