
 OpenBabel03252501193D

 27 28  0  0  1  0  0  0  0  0999 V2000
   37.9050   27.1380   40.6460 C   0  0  0  0  0  0  0  0  0  0  0  0
   38.4960   27.7330   39.9020 H   0  0  0  0  0  0  0  0  0  0  0  0
   37.1800   26.4640   40.1490 H   0  0  0  0  0  0  0  0  0  0  0  0
   40.0750   27.0420   41.9260 C   0  0  0  0  0  0  0  0  0  0  0  0
   38.8580   26.4660   41.5230 C   0  0  0  0  0  0  0  0  0  0  0  0
   38.6100   25.1890   42.0410 C   0  0  0  0  0  0  0  0  0  0  0  0
   39.5330   24.6120   42.8750 N   0  0  0  0  0  0  0  0  0  0  0  0
   40.6780   25.2150   43.2230 C   0  0  0  0  0  0  0  0  0  0  0  0
   40.9510   26.4460   42.7420 N   0  0  0  0  0  0  0  0  0  0  0  0
   40.3860   28.0250   41.6140 H   0  0  0  0  0  0  0  0  0  0  0  0
   41.2550   24.5810   43.8860 H   0  0  0  0  0  0  0  0  0  0  0  0
   37.3620   24.5460   41.6360 C   0  0  0  0  0  0  0  0  0  0  0  0
   36.9820   24.9970   40.3870 F   0  0  0  0  0  0  0  0  0  0  0  0
   36.3900   25.0390   42.5280 F   0  0  0  0  0  0  0  0  0  0  0  0
   37.4080   23.2120   41.6150 F   0  0  0  0  0  0  0  0  0  0  0  0
   37.7460   29.1410   42.1890 C   0  0  1  0  0  3  0  0  0  0  0  0
   37.0240   28.1060   41.4070 C   0  0  1  0  0  3  0  0  0  0  0  0
   36.0120   28.6290   40.5660 O   0  0  0  0  0  0  0  0  0  0  0  0
   36.4810   29.6410   39.7380 C   0  0  0  0  0  2  0  0  0  0  0  0
   36.6790   30.8340   40.6860 C   0  0  2  0  0  3  0  0  0  0  0  0
   37.9150   30.4620   41.4790 C   0  0  2  0  0  3  0  0  0  0  0  0
   37.0600   29.4600   43.3850 O   0  0  0  0  0  0  0  0  0  0  0  0
   36.2210   28.9330   43.3790 H   0  0  0  0  0  0  0  0  0  0  0  0
   35.5560   30.8080   41.5450 O   0  0  0  0  0  0  0  0  0  0  0  0
   35.2790   31.6890   41.8390 H   0  0  0  0  0  0  0  0  0  0  0  0
   38.9860   30.4740   40.5830 O   0  0  0  0  0  0  0  0  0  0  0  0
   38.9050   31.3610   40.1130 H   0  0  0  0  0  0  0  0  0  0  0  0
  1  5  1  0  0  0  0
  2  1  1  0  0  0  0
  3  1  1  0  0  0  0
  4  9  1  0  0  0  0
  5  4  2  0  0  0  0
  5  6  1  0  0  0  0
  6  7  2  0  0  0  0
  7  8  1  0  0  0  0
  8 11  1  0  0  0  0
  9  8  2  0  0  0  0
 10  4  1  0  0  0  0
 12  6  1  0  0  0  0
 12 14  1  0  0  0  0
 13 12  1  0  0  0  0
 15 12  1  0  0  0  0
 16 22  1  1  0  0  0
 17  1  1  6  0  0  0
 17 16  1  0  0  0  0
 18 17  1  0  0  0  0
 19 18  1  0  0  0  0
 19 20  1  0  0  0  0
 20 21  1  0  0  0  0
 20 24  1  1  0  0  0
 21 26  1  6  0  0  0
 21 16  1  0  0  0  0
 23 22  1  0  0  0  0
 24 25  1  0  0  0  0
 27 26  1  0  0  0  0
M  END
>  <minimizedAffinity>
-5.70564651

$$$$

 OpenBabel03252501193D

 27 28  0  0  1  0  0  0  0  0999 V2000
   38.7840   29.3950   41.6060 C   0  0  0  0  0  0  0  0  0  0  0  0
   37.8530   29.6740   42.1650 H   0  0  0  0  0  0  0  0  0  0  0  0
   39.6870   29.8480   42.0600 H   0  0  0  0  0  0  0  0  0  0  0  0
   39.8000   27.2330   40.7960 C   0  0  0  0  0  0  0  0  0  0  0  0
   38.8170   27.9390   41.5120 C   0  0  0  0  0  0  0  0  0  0  0  0
   37.8640   27.1370   42.1520 C   0  0  0  0  0  0  0  0  0  0  0  0
   37.9530   25.7730   42.0440 N   0  0  0  0  0  0  0  0  0  0  0  0
   38.9170   25.1580   41.3450 C   0  0  0  0  0  0  0  0  0  0  0  0
   39.8520   25.8990   40.7130 N   0  0  0  0  0  0  0  0  0  0  0  0
   40.6000   27.7230   40.2680 H   0  0  0  0  0  0  0  0  0  0  0  0
   38.7950   24.0830   41.3930 H   0  0  0  0  0  0  0  0  0  0  0  0
   36.8150   27.8300   42.8960 C   0  0  0  0  0  0  0  0  0  0  0  0
   36.1140   26.9290   43.6740 F   0  0  0  0  0  0  0  0  0  0  0  0
   35.9050   28.2750   41.9180 F   0  0  0  0  0  0  0  0  0  0  0  0
   37.2540   28.8200   43.6770 F   0  0  0  0  0  0  0  0  0  0  0  0
   37.3680   30.0320   39.6050 C   0  0  1  0  0  3  0  0  0  0  0  0
   38.7090   30.0460   40.2410 C   0  0  1  0  0  3  0  0  0  0  0  0
   39.3170   31.3240   40.2630 O   0  0  0  0  0  0  0  0  0  0  0  0
   38.4920   32.2950   40.8190 C   0  0  0  0  0  2  0  0  0  0  0  0
   37.4200   32.5310   39.7440 C   0  0  2  0  0  3  0  0  0  0  0  0
   36.5570   31.2880   39.8170 C   0  0  2  0  0  3  0  0  0  0  0  0
   37.4620   29.8980   38.1990 O   0  0  0  0  0  0  0  0  0  0  0  0
   38.4280   29.8950   37.9800 H   0  0  0  0  0  0  0  0  0  0  0  0
   38.1260   32.5290   38.5180 O   0  0  0  0  0  0  0  0  0  0  0  0
   37.7350   33.1130   37.8510 H   0  0  0  0  0  0  0  0  0  0  0  0
   35.9070   31.3230   41.0530 O   0  0  0  0  0  0  0  0  0  0  0  0
   35.5100   32.2470   41.0970 H   0  0  0  0  0  0  0  0  0  0  0  0
  1  3  1  0  0  0  0
  1  2  1  0  0  0  0
  4  5  1  0  0  0  0
  5  1  1  0  0  0  0
  5  6  2  0  0  0  0
  6 12  1  0  0  0  0
  7  6  1  0  0  0  0
  8 11  1  0  0  0  0
  8  7  2  0  0  0  0
  9  4  2  0  0  0  0
  9  8  1  0  0  0  0
 10  4  1  0  0  0  0
 12 13  1  0  0  0  0
 12 15  1  0  0  0  0
 14 12  1  0  0  0  0
 16 22  1  6  0  0  0
 16 21  1  0  0  0  0
 16 17  1  0  0  0  0
 17 18  1  0  0  0  0
 17  1  1  1  0  0  0
 18 19  1  0  0  0  0
 20 24  1  6  0  0  0
 20 21  1  0  0  0  0
 20 19  1  0  0  0  0
 21 26  1  1  0  0  0
 23 22  1  0  0  0  0
 25 24  1  0  0  0  0
 26 27  1  0  0  0  0
M  END
>  <minimizedAffinity>
-5.52022696

$$$$

 OpenBabel03252501193D

 27 28  0  0  1  0  0  0  0  0999 V2000
   37.6550   30.5710   41.0330 C   0  0  0  0  0  0  0  0  0  0  0  0
   36.6900   31.0170   41.3870 H   0  0  0  0  0  0  0  0  0  0  0  0
   38.4920   30.8070   41.7190 H   0  0  0  0  0  0  0  0  0  0  0  0
   36.7050   28.6330   39.7290 C   0  0  0  0  0  0  0  0  0  0  0  0
   37.4260   29.1450   40.8220 C   0  0  0  0  0  0  0  0  0  0  0  0
   37.9300   28.1790   41.7010 C   0  0  0  0  0  0  0  0  0  0  0  0
   37.6990   26.8520   41.4440 N   0  0  0  0  0  0  0  0  0  0  0  0
   37.0030   26.4260   40.3810 C   0  0  0  0  0  0  0  0  0  0  0  0
   36.5000   27.3290   39.5130 N   0  0  0  0  0  0  0  0  0  0  0  0
   36.2740   29.2620   38.9690 H   0  0  0  0  0  0  0  0  0  0  0  0
   36.9420   25.3440   40.3750 H   0  0  0  0  0  0  0  0  0  0  0  0
   38.6740   28.6680   42.8590 C   0  0  0  0  0  0  0  0  0  0  0  0
   39.1610   27.6030   43.5920 F   0  0  0  0  0  0  0  0  0  0  0  0
   37.7100   29.2840   43.6800 F   0  0  0  0  0  0  0  0  0  0  0  0
   39.6890   29.4820   42.5600 F   0  0  0  0  0  0  0  0  0  0  0  0
   37.6110   32.6940   39.6520 C   0  0  1  0  0  3  0  0  0  0  0  0
   38.0390   31.2760   39.7490 C   0  0  1  0  0  3  0  0  0  0  0  0
   39.4090   31.0720   39.4570 O   0  0  0  0  0  0  0  0  0  0  0  0
   40.2400   31.8950   40.2070 C   0  0  0  0  0  2  0  0  0  0  0  0
   40.0420   33.2860   39.5860 C   0  0  2  0  0  3  0  0  0  0  0  0
   38.6620   33.6980   40.0570 C   0  0  2  0  0  3  0  0  0  0  0  0
   37.2740   33.0440   38.3220 O   0  0  0  0  0  0  0  0  0  0  0  0
   37.4580   32.2460   37.7650 H   0  0  0  0  0  0  0  0  0  0  0  0
   40.0030   33.0610   38.1900 O   0  0  0  0  0  0  0  0  0  0  0  0
   40.3630   33.7980   37.6740 H   0  0  0  0  0  0  0  0  0  0  0  0
   38.7480   33.8790   41.4400 O   0  0  0  0  0  0  0  0  0  0  0  0
   39.5500   34.4760   41.5610 H   0  0  0  0  0  0  0  0  0  0  0  0
  1  2  1  0  0  0  0
  1  3  1  0  0  0  0
  4  5  1  0  0  0  0
  5  1  1  0  0  0  0
  5  6  2  0  0  0  0
  6 12  1  0  0  0  0
  7  6  1  0  0  0  0
  8  7  2  0  0  0  0
  9  4  2  0  0  0  0
  9  8  1  0  0  0  0
 10  4  1  0  0  0  0
 11  8  1  0  0  0  0
 12 13  1  0  0  0  0
 12 14  1  0  0  0  0
 15 12  1  0  0  0  0
 16 22  1  6  0  0  0
 16 17  1  0  0  0  0
 16 21  1  0  0  0  0
 17  1  1  1  0  0  0
 18 17  1  0  0  0  0
 18 19  1  0  0  0  0
 20 24  1  6  0  0  0
 20 21  1  0  0  0  0
 20 19  1  0  0  0  0
 21 26  1  1  0  0  0
 23 22  1  0  0  0  0
 25 24  1  0  0  0  0
 26 27  1  0  0  0  0
M  END
>  <minimizedAffinity>
-5.44186592

$$$$

 OpenBabel03252501193D

 27 28  0  0  1  0  0  0  0  0999 V2000
   37.9650   27.3190   40.4650 C   0  0  0  0  0  0  0  0  0  0  0  0
   38.9170   27.2540   41.0530 H   0  0  0  0  0  0  0  0  0  0  0  0
   38.1150   27.8340   39.4970 H   0  0  0  0  0  0  0  0  0  0  0  0
   36.4430   25.6000   39.4210 C   0  0  0  0  0  0  0  0  0  0  0  0
   37.4260   25.9670   40.3570 C   0  0  0  0  0  0  0  0  0  0  0  0
   37.8720   24.9270   41.1820 C   0  0  0  0  0  0  0  0  0  0  0  0
   37.3430   23.6720   41.0240 N   0  0  0  0  0  0  0  0  0  0  0  0
   36.4060   23.3850   40.1110 C   0  0  0  0  0  0  0  0  0  0  0  0
   35.9500   24.3630   39.2990 N   0  0  0  0  0  0  0  0  0  0  0  0
   36.0210   26.2970   38.7160 H   0  0  0  0  0  0  0  0  0  0  0  0
   36.1320   22.3380   40.1620 H   0  0  0  0  0  0  0  0  0  0  0  0
   38.8840   25.2670   42.1790 C   0  0  0  0  0  0  0  0  0  0  0  0
   39.9830   25.8330   41.5620 F   0  0  0  0  0  0  0  0  0  0  0  0
   39.3280   24.0320   42.6860 F   0  0  0  0  0  0  0  0  0  0  0  0
   38.4590   26.0920   43.1380 F   0  0  0  0  0  0  0  0  0  0  0  0
   37.6860   29.1970   42.1410 C   0  0  1  0  0  3  0  0  0  0  0  0
   37.0280   28.2410   41.2170 C   0  0  1  0  0  3  0  0  0  0  0  0
   36.1050   28.8460   40.3300 O   0  0  0  0  0  0  0  0  0  0  0  0
   36.6610   29.9120   39.6320 C   0  0  0  0  0  2  0  0  0  0  0  0
   36.7830   31.0220   40.6860 C   0  0  2  0  0  3  0  0  0  0  0  0
   37.9340   30.5670   41.5580 C   0  0  2  0  0  3  0  0  0  0  0  0
   36.8940   29.4350   43.2910 O   0  0  0  0  0  0  0  0  0  0  0  0
   36.0540   28.9250   43.1650 H   0  0  0  0  0  0  0  0  0  0  0  0
   35.5840   30.9500   41.4330 O   0  0  0  0  0  0  0  0  0  0  0  0
   35.2900   31.8110   41.7690 H   0  0  0  0  0  0  0  0  0  0  0  0
   39.0850   30.6290   40.7680 O   0  0  0  0  0  0  0  0  0  0  0  0
   39.0580   31.5520   40.3640 H   0  0  0  0  0  0  0  0  0  0  0  0
  1  2  1  0  0  0  0
  3  1  1  0  0  0  0
  4  5  1  0  0  0  0
  5  1  1  0  0  0  0
  5  6  2  0  0  0  0
  6 12  1  0  0  0  0
  7  6  1  0  0  0  0
  8 11  1  0  0  0  0
  8  7  2  0  0  0  0
  9  4  2  0  0  0  0
  9  8  1  0  0  0  0
 10  4  1  0  0  0  0
 12 14  1  0  0  0  0
 12 15  1  0  0  0  0
 13 12  1  0  0  0  0
 16 22  1  1  0  0  0
 17  1  1  6  0  0  0
 17 16  1  0  0  0  0
 18 17  1  0  0  0  0
 19 18  1  0  0  0  0
 19 20  1  0  0  0  0
 20 24  1  1  0  0  0
 20 21  1  0  0  0  0
 21 26  1  6  0  0  0
 21 16  1  0  0  0  0
 23 22  1  0  0  0  0
 24 25  1  0  0  0  0
 27 26  1  0  0  0  0
M  END
>  <minimizedAffinity>
-5.41132879

$$$$

 OpenBabel03252501193D

 27 28  0  0  1  0  0  0  0  0999 V2000
   38.4100   29.2000   40.5970 C   0  0  0  0  0  0  0  0  0  0  0  0
   39.0830   29.2040   39.7000 H   0  0  0  0  0  0  0  0  0  0  0  0
   37.3970   28.8280   40.3480 H   0  0  0  0  0  0  0  0  0  0  0  0
   40.4380   28.6590   41.9940 C   0  0  0  0  0  0  0  0  0  0  0  0
   39.0900   28.4540   41.6500 C   0  0  0  0  0  0  0  0  0  0  0  0
   38.4300   27.4800   42.4090 C   0  0  0  0  0  0  0  0  0  0  0  0
   39.1140   26.8230   43.3990 N   0  0  0  0  0  0  0  0  0  0  0  0
   40.4020   27.0650   43.6790 C   0  0  0  0  0  0  0  0  0  0  0  0
   41.0710   27.9950   42.9670 N   0  0  0  0  0  0  0  0  0  0  0  0
   41.0610   29.3870   41.5010 H   0  0  0  0  0  0  0  0  0  0  0  0
   40.7390   26.4340   44.4930 H   0  0  0  0  0  0  0  0  0  0  0  0
   37.0300   27.2250   42.0760 C   0  0  0  0  0  0  0  0  0  0  0  0
   36.5310   26.2160   42.8760 F   0  0  0  0  0  0  0  0  0  0  0  0
   37.0560   26.6960   40.7710 F   0  0  0  0  0  0  0  0  0  0  0  0
   36.2330   28.2900   42.1820 F   0  0  0  0  0  0  0  0  0  0  0  0
   39.1950   31.6070   40.5220 C   0  0  1  0  0  3  0  0  0  0  0  0
   38.1700   30.6420   40.9920 C   0  0  1  0  0  3  0  0  0  0  0  0
   36.8420   31.0280   40.6920 O   0  0  0  0  0  0  0  0  0  0  0  0
   36.6670   31.3250   39.3450 C   0  0  0  0  0  2  0  0  0  0  0  0
   37.3810   32.6730   39.1660 C   0  0  2  0  0  3  0  0  0  0  0  0
   38.8510   32.3130   39.2330 C   0  0  2  0  0  3  0  0  0  0  0  0
   39.3950   32.6490   41.4600 O   0  0  0  0  0  0  0  0  0  0  0  0
   38.7490   32.4950   42.1950 H   0  0  0  0  0  0  0  0  0  0  0  0
   37.0380   33.4230   40.3150 O   0  0  0  0  0  0  0  0  0  0  0  0
   36.9820   34.3760   40.1470 H   0  0  0  0  0  0  0  0  0  0  0  0
   39.1300   31.5520   38.0960 O   0  0  0  0  0  0  0  0  0  0  0  0
   38.7510   32.0940   37.3370 H   0  0  0  0  0  0  0  0  0  0  0  0
  1  5  1  0  0  0  0
  2  1  1  0  0  0  0
  3  1  1  0  0  0  0
  4  9  1  0  0  0  0
  5  4  2  0  0  0  0
  5  6  1  0  0  0  0
  6  7  2  0  0  0  0
  7  8  1  0  0  0  0
  8 11  1  0  0  0  0
  9  8  2  0  0  0  0
 10  4  1  0  0  0  0
 12 15  1  0  0  0  0
 12  6  1  0  0  0  0
 12 13  1  0  0  0  0
 14 12  1  0  0  0  0
 16 17  1  0  0  0  0
 16 22  1  1  0  0  0
 17  1  1  6  0  0  0
 18 17  1  0  0  0  0
 19 18  1  0  0  0  0
 20 21  1  0  0  0  0
 20 19  1  0  0  0  0
 20 24  1  1  0  0  0
 21 26  1  6  0  0  0
 21 16  1  0  0  0  0
 22 23  1  0  0  0  0
 25 24  1  0  0  0  0
 27 26  1  0  0  0  0
M  END
>  <minimizedAffinity>
-5.38859844

$$$$

 OpenBabel03252501193D

 27 28  0  0  1  0  0  0  0  0999 V2000
   38.7110   30.0810   40.4330 C   0  0  0  0  0  0  0  0  0  0  0  0
   37.6540   30.2610   40.1040 H   0  0  0  0  0  0  0  0  0  0  0  0
   39.1950   29.2830   39.8380 H   0  0  0  0  0  0  0  0  0  0  0  0
   40.7630   31.5170   40.7260 C   0  0  0  0  0  0  0  0  0  0  0  0
   39.4020   31.3660   40.4060 C   0  0  0  0  0  0  0  0  0  0  0  0
   38.7470   32.5480   40.0390 C   0  0  0  0  0  0  0  0  0  0  0  0
   39.4510   33.7240   40.0140 N   0  0  0  0  0  0  0  0  0  0  0  0
   40.7500   33.8030   40.3300 C   0  0  0  0  0  0  0  0  0  0  0  0
   41.4140   32.6850   40.6910 N   0  0  0  0  0  0  0  0  0  0  0  0
   41.3900   30.6900   41.0120 H   0  0  0  0  0  0  0  0  0  0  0  0
   41.1010   34.8250   40.2440 H   0  0  0  0  0  0  0  0  0  0  0  0
   37.3270   32.4380   39.7120 C   0  0  0  0  0  0  0  0  0  0  0  0
   37.1630   31.6750   38.5730 F   0  0  0  0  0  0  0  0  0  0  0  0
   36.9320   33.7410   39.3550 F   0  0  0  0  0  0  0  0  0  0  0  0
   36.5750   31.9220   40.6870 F   0  0  0  0  0  0  0  0  0  0  0  0
   37.3130   29.0720   42.2900 C   0  0  1  0  0  3  0  0  0  0  0  0
   38.6590   29.4980   41.8310 C   0  0  1  0  0  3  0  0  0  0  0  0
   39.6590   28.5110   41.9980 O   0  0  0  0  0  0  0  0  0  0  0  0
   39.3020   27.2930   41.4310 C   0  0  0  0  0  2  0  0  0  0  0  0
   38.2270   26.7430   42.3800 C   0  0  2  0  0  3  0  0  0  0  0  0
   37.0150   27.6050   42.0910 C   0  0  2  0  0  3  0  0  0  0  0  0
   37.1480   29.2860   43.6800 O   0  0  0  0  0  0  0  0  0  0  0  0
   38.0120   29.6330   44.0160 H   0  0  0  0  0  0  0  0  0  0  0  0
   38.7010   27.0380   43.6800 O   0  0  0  0  0  0  0  0  0  0  0  0
   38.4360   26.3820   44.3420 H   0  0  0  0  0  0  0  0  0  0  0  0
   36.6060   27.2980   40.7910 O   0  0  0  0  0  0  0  0  0  0  0  0
   36.5550   26.2920   40.7800 H   0  0  0  0  0  0  0  0  0  0  0  0
  2  1  1  0  0  0  0
  3  1  1  0  0  0  0
  4 10  1  0  0  0  0
  5  1  1  0  0  0  0
  5  4  2  0  0  0  0
  6  5  1  0  0  0  0
  7  6  2  0  0  0  0
  7  8  1  0  0  0  0
  8  9  2  0  0  0  0
  9  4  1  0  0  0  0
 11  8  1  0  0  0  0
 12  6  1  0  0  0  0
 12 15  1  0  0  0  0
 13 12  1  0  0  0  0
 14 12  1  0  0  0  0
 16 22  1  1  0  0  0
 17  1  1  6  0  0  0
 17 18  1  0  0  0  0
 17 16  1  0  0  0  0
 19 18  1  0  0  0  0
 19 20  1  0  0  0  0
 20 24  1  1  0  0  0
 21 26  1  6  0  0  0
 21 16  1  0  0  0  0
 21 20  1  0  0  0  0
 22 23  1  0  0  0  0
 24 25  1  0  0  0  0
 27 26  1  0  0  0  0
M  END
>  <minimizedAffinity>
-5.35516882

$$$$

 OpenBabel03252501193D

 27 28  0  0  1  0  0  0  0  0999 V2000
   39.5560   30.9070   42.2990 C   0  0  0  0  0  0  0  0  0  0  0  0
   39.3100   31.6390   43.1120 H   0  0  0  0  0  0  0  0  0  0  0  0
   40.6270   30.9470   42.0220 H   0  0  0  0  0  0  0  0  0  0  0  0
   37.7390   29.3080   43.0060 C   0  0  0  0  0  0  0  0  0  0  0  0
   39.0890   29.5960   42.7380 C   0  0  0  0  0  0  0  0  0  0  0  0
   39.9670   28.5180   42.9060 C   0  0  0  0  0  0  0  0  0  0  0  0
   39.4710   27.3030   43.3020 N   0  0  0  0  0  0  0  0  0  0  0  0
   38.1690   27.0910   43.5430 C   0  0  0  0  0  0  0  0  0  0  0  0
   37.2930   28.1070   43.3930 N   0  0  0  0  0  0  0  0  0  0  0  0
   36.9550   30.0390   42.9040 H   0  0  0  0  0  0  0  0  0  0  0  0
   38.0010   26.0640   43.8450 H   0  0  0  0  0  0  0  0  0  0  0  0
   41.3820   28.7780   42.6510 C   0  0  0  0  0  0  0  0  0  0  0  0
   41.6110   28.8520   41.2900 F   0  0  0  0  0  0  0  0  0  0  0  0
   42.0510   27.6180   43.0850 F   0  0  0  0  0  0  0  0  0  0  0  0
   41.8530   29.8880   43.2250 F   0  0  0  0  0  0  0  0  0  0  0  0
   38.5200   32.8140   40.9930 C   0  0  1  0  0  3  0  0  0  0  0  0
   38.8470   31.3670   41.0430 C   0  0  1  0  0  3  0  0  0  0  0  0
   39.5150   30.8930   39.8890 O   0  0  0  0  0  0  0  0  0  0  0  0
   40.6410   31.6470   39.5810 C   0  0  0  0  0  2  0  0  0  0  0  0
   40.0670   32.9620   39.0310 C   0  0  2  0  0  3  0  0  0  0  0  0
   39.5310   33.6630   40.2620 C   0  0  2  0  0  3  0  0  0  0  0  0
   37.2990   33.0470   40.3150 O   0  0  0  0  0  0  0  0  0  0  0  0
   36.9820   32.1650   39.9930 H   0  0  0  0  0  0  0  0  0  0  0  0
   38.9810   32.5720   38.2140 O   0  0  0  0  0  0  0  0  0  0  0  0
   38.8380   33.1640   37.4600 H   0  0  0  0  0  0  0  0  0  0  0  0
   40.6380   33.9990   41.0460 O   0  0  0  0  0  0  0  0  0  0  0  0
   41.2640   34.4590   40.4040 H   0  0  0  0  0  0  0  0  0  0  0  0
  1  5  1  0  0  0  0
  1  2  1  0  0  0  0
  3  1  1  0  0  0  0
  4  9  1  0  0  0  0
  5  6  1  0  0  0  0
  5  4  2  0  0  0  0
  6  7  2  0  0  0  0
  7  8  1  0  0  0  0
  8 11  1  0  0  0  0
  9  8  2  0  0  0  0
 10  4  1  0  0  0  0
 12  6  1  0  0  0  0
 12 14  1  0  0  0  0
 12 15  1  0  0  0  0
 13 12  1  0  0  0  0
 16 22  1  6  0  0  0
 16 17  1  0  0  0  0
 17  1  1  1  0  0  0
 18 17  1  0  0  0  0
 19 18  1  0  0  0  0
 20 24  1  6  0  0  0
 20 19  1  0  0  0  0
 20 21  1  0  0  0  0
 21 16  1  0  0  0  0
 21 26  1  1  0  0  0
 23 22  1  0  0  0  0
 25 24  1  0  0  0  0
 27 26  1  0  0  0  0
M  END
>  <minimizedAffinity>
-5.20143652

$$$$

 OpenBabel03252501193D

 27 28  0  0  1  0  0  0  0  0999 V2000
   37.5700   29.7910   39.9320 C   0  0  0  0  0  0  0  0  0  0  0  0
   36.8020   29.7780   39.1150 H   0  0  0  0  0  0  0  0  0  0  0  0
   37.1900   30.2870   40.8450 H   0  0  0  0  0  0  0  0  0  0  0  0
   38.8930   27.7570   39.2460 C   0  0  0  0  0  0  0  0  0  0  0  0
   38.0210   28.4170   40.1290 C   0  0  0  0  0  0  0  0  0  0  0  0
   37.6190   27.6610   41.2370 C   0  0  0  0  0  0  0  0  0  0  0  0
   38.0870   26.3800   41.3810 N   0  0  0  0  0  0  0  0  0  0  0  0
   38.9200   25.8060   40.5020 C   0  0  0  0  0  0  0  0  0  0  0  0
   39.3280   26.5040   39.4210 N   0  0  0  0  0  0  0  0  0  0  0  0
   39.2910   28.2240   38.3610 H   0  0  0  0  0  0  0  0  0  0  0  0
   39.1600   24.7950   40.8100 H   0  0  0  0  0  0  0  0  0  0  0  0
   36.7000   28.3040   42.1730 C   0  0  0  0  0  0  0  0  0  0  0  0
   36.3390   27.4150   43.1660 F   0  0  0  0  0  0  0  0  0  0  0  0
   35.5270   28.5400   41.4310 F   0  0  0  0  0  0  0  0  0  0  0  0
   37.1780   29.4130   42.7420 F   0  0  0  0  0  0  0  0  0  0  0  0
   38.2780   31.9170   38.7500 C   0  0  1  0  0  3  0  0  0  0  0  0
   38.6980   30.6950   39.4800 C   0  0  1  0  0  3  0  0  0  0  0  0
   39.5940   30.9460   40.5460 O   0  0  0  0  0  0  0  0  0  0  0  0
   39.1160   31.9110   41.4250 C   0  0  0  0  0  2  0  0  0  0  0  0
   39.2590   33.2260   40.6440 C   0  0  2  0  0  3  0  0  0  0  0  0
   38.1560   33.1520   39.6080 C   0  0  2  0  0  3  0  0  0  0  0  0
   39.2130   32.2680   37.7460 O   0  0  0  0  0  0  0  0  0  0  0  0
   39.9580   31.6190   37.8150 H   0  0  0  0  0  0  0  0  0  0  0  0
   40.5100   33.1290   39.9910 O   0  0  0  0  0  0  0  0  0  0  0  0
   40.9520   33.9850   39.8810 H   0  0  0  0  0  0  0  0  0  0  0  0
   36.9470   33.2230   40.3040 O   0  0  0  0  0  0  0  0  0  0  0  0
   37.0550   34.0220   40.9070 H   0  0  0  0  0  0  0  0  0  0  0  0
  1  5  1  0  0  0  0
  1  3  1  0  0  0  0
  2  1  1  0  0  0  0
  4  9  2  0  0  0  0
  4  5  1  0  0  0  0
  5  6  2  0  0  0  0
  6  7  1  0  0  0  0
  6 12  1  0  0  0  0
  8 11  1  0  0  0  0
  8  7  2  0  0  0  0
  9  8  1  0  0  0  0
 10  4  1  0  0  0  0
 12 15  1  0  0  0  0
 12 13  1  0  0  0  0
 14 12  1  0  0  0  0
 16 22  1  6  0  0  0
 16 17  1  0  0  0  0
 16 21  1  0  0  0  0
 17  1  1  1  0  0  0
 17 18  1  0  0  0  0
 18 19  1  0  0  0  0
 20 24  1  6  0  0  0
 20 19  1  0  0  0  0
 21 26  1  1  0  0  0
 21 20  1  0  0  0  0
 22 23  1  0  0  0  0
 25 24  1  0  0  0  0
 26 27  1  0  0  0  0
M  END
>  <minimizedAffinity>
-5.17747593

$$$$

 OpenBabel03252501193D

 27 28  0  0  1  0  0  0  0  0999 V2000
   36.4170   29.3170   38.2980 C   0  0  0  0  0  0  0  0  0  0  0  0
   36.5270   28.4230   38.9650 H   0  0  0  0  0  0  0  0  0  0  0  0
   37.3650   29.5620   37.7810 H   0  0  0  0  0  0  0  0  0  0  0  0
   34.0010   28.7370   37.8710 C   0  0  0  0  0  0  0  0  0  0  0  0
   35.2880   29.0630   37.4090 C   0  0  0  0  0  0  0  0  0  0  0  0
   35.4120   29.1440   36.0170 C   0  0  0  0  0  0  0  0  0  0  0  0
   34.3130   28.9130   35.2300 N   0  0  0  0  0  0  0  0  0  0  0  0
   33.1090   28.6060   35.7330 C   0  0  0  0  0  0  0  0  0  0  0  0
   32.9520   28.5170   37.0700 N   0  0  0  0  0  0  0  0  0  0  0  0
   33.7600   28.6540   38.9180 H   0  0  0  0  0  0  0  0  0  0  0  0
   32.3890   28.4640   34.9350 H   0  0  0  0  0  0  0  0  0  0  0  0
   36.7370   29.4670   35.4930 C   0  0  0  0  0  0  0  0  0  0  0  0
   37.0330   30.7930   35.7420 F   0  0  0  0  0  0  0  0  0  0  0  0
   36.6130   29.3620   34.0940 F   0  0  0  0  0  0  0  0  0  0  0  0
   37.7230   28.7090   35.9790 F   0  0  0  0  0  0  0  0  0  0  0  0
   36.4600   30.3110   40.6280 C   0  0  1  0  0  3  0  0  0  0  0  0
   36.1760   30.5200   39.1860 C   0  0  1  0  0  3  0  0  0  0  0  0
   36.7930   31.6730   38.6430 O   0  0  0  0  0  0  0  0  0  0  0  0
   38.1600   31.7100   38.8920 C   0  0  0  0  0  2  0  0  0  0  0  0
   38.2550   32.0390   40.3900 C   0  0  2  0  0  3  0  0  0  0  0  0
   37.8340   30.7520   41.0690 C   0  0  2  0  0  3  0  0  0  0  0  0
   35.5670   31.0470   41.4430 O   0  0  0  0  0  0  0  0  0  0  0  0
   34.9900   31.5690   40.8310 H   0  0  0  0  0  0  0  0  0  0  0  0
   37.2620   33.0220   40.6110 O   0  0  0  0  0  0  0  0  0  0  0  0
   37.4980   33.6530   41.3090 H   0  0  0  0  0  0  0  0  0  0  0  0
   38.8300   29.8110   40.7960 O   0  0  0  0  0  0  0  0  0  0  0  0
   39.6870   30.2810   41.0360 H   0  0  0  0  0  0  0  0  0  0  0  0
  1  2  1  0  0  0  0
  3  1  1  0  0  0  0
  4 10  1  0  0  0  0
  5  4  1  0  0  0  0
  5  1  1  0  0  0  0
  6  5  2  0  0  0  0
  7  8  2  0  0  0  0
  7  6  1  0  0  0  0
  8  9  1  0  0  0  0
  9  4  2  0  0  0  0
 11  8  1  0  0  0  0
 12 13  1  0  0  0  0
 12 15  1  0  0  0  0
 12  6  1  0  0  0  0
 14 12  1  0  0  0  0
 16 21  1  0  0  0  0
 16 22  1  1  0  0  0
 17  1  1  6  0  0  0
 17 16  1  0  0  0  0
 18 19  1  0  0  0  0
 18 17  1  0  0  0  0
 19 20  1  0  0  0  0
 20 24  1  6  0  0  0
 20 21  1  0  0  0  0
 21 26  1  6  0  0  0
 23 22  1  0  0  0  0
 24 25  1  0  0  0  0
 26 27  1  0  0  0  0
M  END
>  <minimizedAffinity>
-5.13879299

$$$$
