
 OpenBabel03252506193D

 26 27  0  0  1  0  0  0  0  0999 V2000
   44.6820   35.6560   43.6110 C   0  0  0  0  0  0  0  0  0  0  0  0
   43.8870   35.5440   42.4300 C   0  0  0  0  0  0  0  0  0  0  0  0
   43.7520   34.2560   41.8840 C   0  0  0  0  0  0  0  0  0  0  0  0
   44.3730   33.2010   42.4940 N   0  0  0  0  0  0  0  0  0  0  0  0
   45.1230   33.3650   43.6240 C   0  0  0  0  0  0  0  0  0  0  0  0
   45.2600   34.5970   44.1590 N   0  0  0  0  0  0  0  0  0  0  0  0
   43.4440   36.4340   42.0320 H   0  0  0  0  0  0  0  0  0  0  0  0
   43.1600   34.1530   40.9990 H   0  0  0  0  0  0  0  0  0  0  0  0
   47.1890   32.0330   43.7320 C   0  0  2  0  0  3  0  0  0  0  0  0
   45.7790   32.2100   44.2570 C   0  0  1  0  0  3  0  0  0  0  0  0
   45.8910   32.3290   45.6430 O   0  0  0  0  0  0  0  0  0  0  0  0
   46.1970   31.0650   46.1430 C   0  0  0  0  0  2  0  0  0  0  0  0
   47.5050   30.5210   45.6310 C   0  0  2  0  0  3  0  0  0  0  0  0
   47.6180   30.6250   44.1250 C   0  0  2  0  0  3  0  0  0  0  0  0
   48.0940   32.9120   44.3190 O   0  0  0  0  0  0  0  0  0  0  0  0
   48.0140   33.8420   43.9910 H   0  0  0  0  0  0  0  0  0  0  0  0
   47.5310   29.1520   45.9370 O   0  0  0  0  0  0  0  0  0  0  0  0
   47.8420   29.0930   46.8780 H   0  0  0  0  0  0  0  0  0  0  0  0
   48.9550   30.4750   43.7490 O   0  0  0  0  0  0  0  0  0  0  0  0
   49.0230   30.0410   42.8570 H   0  0  0  0  0  0  0  0  0  0  0  0
   44.8290   36.9820   44.1910 C   0  0  0  0  0  3  0  0  0  0  0  0
   45.2810   37.9650   43.4440 C   0  0  0  0  0  3  0  0  0  0  0  0
   45.4620   39.3470   43.9280 C   0  0  0  0  0  0  0  0  0  0  0  0
   44.4760   39.8720   43.7930 H   0  0  0  0  0  0  0  0  0  0  0  0
   46.1710   39.9020   43.3100 H   0  0  0  0  0  0  0  0  0  0  0  0
   45.6680   39.3970   45.0070 H   0  0  0  0  0  0  0  0  0  0  0  0
  1  6  1  0  0  0  0
  1 21  1  0  0  0  0
  2  1  2  0  0  0  0
  3  2  1  0  0  0  0
  3  4  2  0  0  0  0
  4  5  1  0  0  0  0
  5  6  2  0  0  0  0
  7  2  1  0  0  0  0
  8  3  1  0  0  0  0
  9 14  1  0  0  0  0
  9 10  1  0  0  0  0
  9 15  1  1  0  0  0
 10  5  1  6  0  0  0
 10 11  1  0  0  0  0
 11 12  1  0  0  0  0
 13 17  1  6  0  0  0
 13 12  1  0  0  0  0
 14 19  1  1  0  0  0
 14 13  1  0  0  0  0
 16 15  1  0  0  0  0
 17 18  1  0  0  0  0
 20 19  1  0  0  0  0
 22 23  1  0  0  0  0
 22 21  2  0  0  0  0
 23 26  1  0  0  0  0
 24 23  1  0  0  0  0
 25 23  1  0  0  0  0
M  END
>  <minimizedAffinity>
-3.67308283

>  <minimizedRMSD>
0.222899556

$$$$
