
 OpenBabel03242513083D

 44 48  0  0  1  0  0  0  0  0999 V2000
   45.9280   33.1450   41.6190 C   0  0  0  0  0  0  0  0  0  0  0  0
   47.0960   33.8520   41.3010 C   0  0  0  0  0  0  0  0  0  0  0  0
   48.0760   33.9420   42.2640 C   0  0  0  0  0  0  0  0  0  0  0  0
   47.8410   33.3360   43.4650 N   0  0  0  0  0  0  0  0  0  0  0  0
   46.7210   32.6630   43.7630 C   0  0  0  0  0  0  0  0  0  0  0  0
   45.7520   32.5660   42.8280 N   0  0  0  0  0  0  0  0  0  0  0  0
   45.1440   33.0570   40.8870 H   0  0  0  0  0  0  0  0  0  0  0  0
   46.8750   30.7470   45.2770 C   0  0  0  0  0  0  0  0  0  0  0  0
   46.5670   32.0560   45.0680 C   0  0  0  0  0  0  0  0  0  0  0  0
   46.0900   32.8810   46.0940 C   0  0  0  0  0  0  0  0  0  0  0  0
   45.9130   32.3800   47.3750 C   0  0  0  0  0  0  0  0  0  0  0  0
   45.4840   32.8730   48.5740 N   0  0  0  0  0  0  0  0  0  0  0  0
   45.5460   31.8390   49.4770 C   0  0  0  0  0  0  0  0  0  0  0  0
   46.0020   30.7510   48.8280 N   0  0  0  0  0  0  0  0  0  0  0  0
   46.2350   31.0550   47.5400 C   0  0  0  0  0  0  0  0  0  0  0  0
   46.7050   30.2200   46.5560 C   0  0  0  0  0  0  0  0  0  0  0  0
   47.2410   30.0940   44.5140 H   0  0  0  0  0  0  0  0  0  0  0  0
   45.8440   33.9210   45.9330 H   0  0  0  0  0  0  0  0  0  0  0  0
   45.1980   33.8780   48.6150 H   0  0  0  0  0  0  0  0  0  0  0  0
   45.2210   32.1410   50.4640 H   0  0  0  0  0  0  0  0  0  0  0  0
   46.9400   29.1870   46.7540 H   0  0  0  0  0  0  0  0  0  0  0  0
   49.3270   34.6760   41.9760 C   0  0  0  0  0  0  0  0  0  0  0  0
   49.0660   35.7870   41.1450 F   0  0  0  0  0  0  0  0  0  0  0  0
   49.8600   35.1890   43.1360 F   0  0  0  0  0  0  0  0  0  0  0  0
   50.1870   33.8290   41.3580 F   0  0  0  0  0  0  0  0  0  0  0  0
   47.2160   34.4110   40.0740 O   0  0  0  0  0  0  0  0  0  0  0  0
   47.2010   33.6840   38.9270 C   0  0  0  0  0  0  0  0  0  0  0  0
   48.4860   33.8160   38.3990 C   0  0  0  0  0  0  0  0  0  0  0  0
   48.4580   32.8420   36.8530 S   0  0  0  0  0  0  0  0  0  0  0  0
   46.6610   32.3820   37.1510 C   0  0  0  0  0  0  0  0  0  0  0  0
   46.5150   32.9280   38.1120 N   0  0  0  0  0  0  0  0  0  0  0  0
   49.5960   34.3620   38.6360 H   0  0  0  0  0  0  0  0  0  0  0  0
   45.7940   32.1540   34.8910 C   0  0  1  0  0  0  0  0  0  0  0  0
   45.8140   31.5210   36.2620 C   0  0  2  0  0  0  0  0  0  0  0  0
   44.5120   31.4880   36.7520 O   0  0  0  0  0  0  0  0  0  0  0  0
   43.7730   30.5810   36.0040 C   0  0  0  0  0  0  0  0  0  0  0  0
   44.4730   30.1060   34.7720 C   0  0  2  0  0  0  0  0  0  0  0  0
   45.1130   31.1790   33.9540 C   0  0  2  0  0  0  0  0  0  0  0  0
   45.0510   33.3290   34.9940 O   0  0  0  0  0  0  0  0  0  0  0  0
   44.4070   33.3060   35.7450 H   0  0  0  0  0  0  0  0  0  0  0  0
   43.4730   29.5290   33.9550 O   0  0  0  0  0  0  0  0  0  0  0  0
   43.7890   29.4580   33.0000 H   0  0  0  0  0  0  0  0  0  0  0  0
   46.1350   30.6120   33.1640 O   0  0  0  0  0  0  0  0  0  0  0  0
   46.7640   31.3410   32.8880 H   0  0  0  0  0  0  0  0  0  0  0  0
  1  6  1  0  0  0  0
  2  1  2  0  0  0  0
  2  3  1  0  0  0  0
  3  4  2  0  0  0  0
  4  5  1  0  0  0  0
  5  9  1  0  0  0  0
  6  5  2  0  0  0  0
  7  1  1  0  0  0  0
  8 16  1  0  0  0  0
  9  8  2  0  0  0  0
  9 10  1  0  0  0  0
 10 11  2  0  0  0  0
 11 15  1  0  0  0  0
 11 12  1  0  0  0  0
 12 19  1  0  0  0  0
 12 13  1  0  0  0  0
 13 20  1  0  0  0  0
 14 13  2  0  0  0  0
 15 14  1  0  0  0  0
 16 21  1  0  0  0  0
 16 15  2  0  0  0  0
 17  8  1  0  0  0  0
 18 10  1  0  0  0  0
 22  3  1  0  0  0  0
 22 24  1  0  0  0  0
 23 22  1  0  0  0  0
 25 22  1  0  0  0  0
 26  2  1  0  0  0  0
 27 26  1  0  0  0  0
 28 32  1  0  0  0  0
 28 27  2  0  0  0  0
 29 30  1  0  0  0  0
 29 28  1  0  0  0  0
 30 31  2  0  0  0  0
 31 27  1  0  0  0  0
 33 39  1  1  0  0  0
 33 34  1  0  0  0  0
 34 35  1  0  0  0  0
 34 30  1  1  0  0  0
 36 35  1  0  0  0  0
 37 41  1  6  0  0  0
 37 36  1  0  0  0  0
 38 43  1  6  0  0  0
 38 37  1  0  0  0  0
 38 33  1  0  0  0  0
 39 40  1  0  0  0  0
 42 41  1  0  0  0  0
 44 43  1  0  0  0  0
M  END
>  <minimizedAffinity>
-7.40429688

>  <minimizedRMSD>
0.857391536

$$$$
