
 OpenBabel03242520233D

 47 50  0  0  1  0  0  0  0  0999 V2000
   37.2010   29.8510   41.6330 C   0  0  0  0  0  0  0  0  0  0  0  0
   36.1860   29.2350   41.1890 O   0  0  0  0  0  0  0  0  0  0  0  0
   37.8390   29.5720   42.8660 N   0  0  0  0  0  0  0  0  0  0  0  0
   38.5950   30.1600   43.2600 H   0  0  0  0  0  0  0  0  0  0  0  0
   37.7860   30.9480   40.8290 C   0  0  0  0  0  0  0  0  0  0  0  0
   36.9920   32.0230   40.4820 C   0  0  0  0  0  0  0  0  0  0  0  0
   37.3960   33.1190   39.7350 C   0  0  0  0  0  0  0  0  0  0  0  0
   38.7300   33.0840   39.3220 C   0  0  0  0  0  0  0  0  0  0  0  0
   39.4940   32.0010   39.6830 C   0  0  0  0  0  0  0  0  0  0  0  0
   39.0580   30.9560   40.4110 N   0  0  0  0  0  0  0  0  0  0  0  0
   35.9630   32.0110   40.8230 H   0  0  0  0  0  0  0  0  0  0  0  0
   36.6830   33.9000   39.5270 H   0  0  0  0  0  0  0  0  0  0  0  0
   39.0720   33.9190   38.7430 H   0  0  0  0  0  0  0  0  0  0  0  0
   40.8930   33.0180   38.0160 C   0  0  1  0  0  3  0  0  0  0  0  0
   40.8940   32.0810   39.1840 C   0  0  1  0  0  3  0  0  0  0  0  0
   41.8160   32.2940   40.1560 O   0  0  0  0  0  0  0  0  0  0  0  0
   42.5630   33.4050   40.1900 C   0  0  0  0  0  2  0  0  0  0  0  0
   42.7070   34.2360   38.9730 C   0  0  1  0  0  3  0  0  0  0  0  0
   42.3380   33.4080   37.7590 C   0  0  2  0  0  3  0  0  0  0  0  0
   40.3400   32.4390   36.8890 O   0  0  0  0  0  0  0  0  0  0  0  0
   39.7100   33.0440   36.4380 H   0  0  0  0  0  0  0  0  0  0  0  0
   41.8000   35.3070   39.0000 O   0  0  0  0  0  0  0  0  0  0  0  0
   41.3020   35.3470   39.8560 H   0  0  0  0  0  0  0  0  0  0  0  0
   42.4380   34.1080   36.5800 O   0  0  0  0  0  0  0  0  0  0  0  0
   43.4070   34.1150   36.3390 H   0  0  0  0  0  0  0  0  0  0  0  0
   37.3940   28.4000   43.5890 C   0  0  0  0  0  0  0  0  0  0  0  0
   36.4950   27.9510   43.1690 H   0  0  0  0  0  0  0  0  0  0  0  0
   37.1680   28.6910   44.6370 H   0  0  0  0  0  0  0  0  0  0  0  0
   38.4840   27.3360   43.6980 C   0  0  0  0  0  0  0  0  0  0  0  0
   39.4600   27.7430   43.9700 H   0  0  0  0  0  0  0  0  0  0  0  0
   38.1140   26.5960   44.4520 H   0  0  0  0  0  0  0  0  0  0  0  0
   38.0030   24.7370   40.9850 C   0  0  0  0  0  0  0  0  0  0  0  0
   37.8880   25.4140   42.2290 C   0  0  0  0  0  0  0  0  0  0  0  0
   38.5830   26.5910   42.4200 C   0  0  0  0  0  0  0  0  0  0  0  0
   39.3550   27.0280   41.3650 N   0  0  0  0  0  0  0  0  0  0  0  0
   39.4280   26.3350   40.1930 C   0  0  0  0  0  0  0  0  0  0  0  0
   38.7560   25.2020   40.0100 N   0  0  0  0  0  0  0  0  0  0  0  0
   37.2680   25.0100   43.0020 H   0  0  0  0  0  0  0  0  0  0  0  0
   40.0570   26.7620   39.4350 H   0  0  0  0  0  0  0  0  0  0  0  0
   37.2520   23.4570   40.7950 C   0  0  0  0  0  0  0  0  0  0  0  0
   35.8860   23.7100   40.0400 C   0  0  0  0  0  0  0  0  0  0  0  0
   36.9640   22.8420   39.5630 C   0  0  0  0  0  0  0  0  0  0  0  0
   37.1020   22.9290   41.7690 H   0  0  0  0  0  0  0  0  0  0  0  0
   35.7730   24.6740   39.5390 H   0  0  0  0  0  0  0  0  0  0  0  0
   34.9920   23.3320   40.5500 H   0  0  0  0  0  0  0  0  0  0  0  0
   37.5310   23.1600   38.6460 H   0  0  0  0  0  0  0  0  0  0  0  0
   36.7700   21.7500   39.5300 H   0  0  0  0  0  0  0  0  0  0  0  0
  1  3  1  0  0  0  0
  2  1  2  0  0  0  0
  3  4  1  0  0  0  0
  3 26  1  0  0  0  0
  5  1  1  0  0  0  0
  6 11  1  0  0  0  0
  6  5  1  0  0  0  0
  7  6  2  0  0  0  0
  8  9  2  0  0  0  0
  8  7  1  0  0  0  0
  9 10  1  0  0  0  0
 10  5  2  0  0  0  0
 12  7  1  0  0  0  0
 13  8  1  0  0  0  0
 14 20  1  6  0  0  0
 14 15  1  0  0  0  0
 15  9  1  1  0  0  0
 15 16  1  0  0  0  0
 16 17  1  0  0  0  0
 18 22  1  1  0  0  0
 18 17  1  0  0  0  0
 19 24  1  6  0  0  0
 19 14  1  0  0  0  0
 19 18  1  0  0  0  0
 21 20  1  0  0  0  0
 22 23  1  0  0  0  0
 25 24  1  0  0  0  0
 26 29  1  0  0  0  0
 26 28  1  0  0  0  0
 27 26  1  0  0  0  0
 29 30  1  0  0  0  0
 29 31  1  0  0  0  0
 32 33  1  0  0  0  0
 33 34  2  0  0  0  0
 33 38  1  0  0  0  0
 34 29  1  0  0  0  0
 35 34  1  0  0  0  0
 36 35  2  0  0  0  0
 37 36  1  0  0  0  0
 37 32  2  0  0  0  0
 39 36  1  0  0  0  0
 40 32  1  0  0  0  0
 40 43  1  0  0  0  0
 41 45  1  0  0  0  0
 41 40  1  0  0  0  0
 42 41  1  0  0  0  0
 42 40  1  0  0  0  0
 44 41  1  0  0  0  0
 46 42  1  0  0  0  0
 47 42  1  0  0  0  0
M  END
>  <minimizedAffinity>
-7.2843051

$$$$

 OpenBabel03242520233D

 47 50  0  0  1  0  0  0  0  0999 V2000
   37.7420   32.7410   39.7340 C   0  0  0  0  0  0  0  0  0  0  0  0
   36.9490   32.9160   38.7610 O   0  0  0  0  0  0  0  0  0  0  0  0
   37.4410   31.9930   40.8980 N   0  0  0  0  0  0  0  0  0  0  0  0
   38.0610   31.9580   41.7260 H   0  0  0  0  0  0  0  0  0  0  0  0
   39.0910   33.3500   39.6810 C   0  0  0  0  0  0  0  0  0  0  0  0
   39.2640   34.6380   40.1480 C   0  0  0  0  0  0  0  0  0  0  0  0
   40.4610   35.3390   40.1620 C   0  0  0  0  0  0  0  0  0  0  0  0
   41.5540   34.6370   39.6500 C   0  0  0  0  0  0  0  0  0  0  0  0
   41.3500   33.3580   39.1930 C   0  0  0  0  0  0  0  0  0  0  0  0
   40.1670   32.7160   39.1990 N   0  0  0  0  0  0  0  0  0  0  0  0
   38.3900   35.1470   40.5370 H   0  0  0  0  0  0  0  0  0  0  0  0
   40.4720   36.3440   40.5530 H   0  0  0  0  0  0  0  0  0  0  0  0
   42.4940   35.1530   39.6480 H   0  0  0  0  0  0  0  0  0  0  0  0
   43.2620   33.7180   37.7840 C   0  0  1  0  0  3  0  0  0  0  0  0
   42.5880   32.7180   38.6730 C   0  0  1  0  0  3  0  0  0  0  0  0
   43.3450   32.1210   39.6280 O   0  0  0  0  0  0  0  0  0  0  0  0
   44.5840   32.5410   39.9130 C   0  0  0  0  0  2  0  0  0  0  0  0
   45.3190   33.3850   38.9440 C   0  0  1  0  0  3  0  0  0  0  0  0
   44.6860   33.2360   37.5750 C   0  0  2  0  0  3  0  0  0  0  0  0
   42.6120   33.8500   36.5710 O   0  0  0  0  0  0  0  0  0  0  0  0
   42.5010   34.7920   36.3150 H   0  0  0  0  0  0  0  0  0  0  0  0
   45.1950   34.7420   39.2810 O   0  0  0  0  0  0  0  0  0  0  0  0
   44.7150   34.8660   40.1390 H   0  0  0  0  0  0  0  0  0  0  0  0
   45.3070   33.9950   36.6110 O   0  0  0  0  0  0  0  0  0  0  0  0
   46.1250   33.4900   36.3400 H   0  0  0  0  0  0  0  0  0  0  0  0
   36.1990   31.2500   40.9000 C   0  0  0  0  0  0  0  0  0  0  0  0
   35.3920   31.7590   40.3750 H   0  0  0  0  0  0  0  0  0  0  0  0
   35.8750   31.0980   41.9520 H   0  0  0  0  0  0  0  0  0  0  0  0
   36.3620   29.8430   40.3290 C   0  0  0  0  0  0  0  0  0  0  0  0
   35.4240   29.4080   39.9790 H   0  0  0  0  0  0  0  0  0  0  0  0
   37.1140   29.9330   39.5060 H   0  0  0  0  0  0  0  0  0  0  0  0
   37.8200   26.8180   42.0820 C   0  0  0  0  0  0  0  0  0  0  0  0
   37.2130   27.6260   41.0830 C   0  0  0  0  0  0  0  0  0  0  0  0
   36.9840   28.9610   41.3450 C   0  0  0  0  0  0  0  0  0  0  0  0
   37.3680   29.4190   42.5880 N   0  0  0  0  0  0  0  0  0  0  0  0
   37.9470   28.5950   43.5090 C   0  0  0  0  0  0  0  0  0  0  0  0
   38.1680   27.3090   43.2530 N   0  0  0  0  0  0  0  0  0  0  0  0
   36.9410   27.1960   40.1410 H   0  0  0  0  0  0  0  0  0  0  0  0
   38.2090   29.0510   44.4440 H   0  0  0  0  0  0  0  0  0  0  0  0
   38.0530   25.3710   41.7860 C   0  0  0  0  0  0  0  0  0  0  0  0
   36.7520   24.5180   42.0660 C   0  0  0  0  0  0  0  0  0  0  0  0
   37.4280   24.6220   40.7730 C   0  0  0  0  0  0  0  0  0  0  0  0
   38.9390   24.9810   42.3470 H   0  0  0  0  0  0  0  0  0  0  0  0
   35.8170   25.0720   42.1780 H   0  0  0  0  0  0  0  0  0  0  0  0
   36.8850   23.6690   42.7480 H   0  0  0  0  0  0  0  0  0  0  0  0
   36.8970   25.1610   39.9410 H   0  0  0  0  0  0  0  0  0  0  0  0
   37.9270   23.7130   40.3780 H   0  0  0  0  0  0  0  0  0  0  0  0
  1  3  1  0  0  0  0
  2  1  2  0  0  0  0
  3 26  1  0  0  0  0
  3  4  1  0  0  0  0
  5  1  1  0  0  0  0
  5  6  1  0  0  0  0
  6  7  2  0  0  0  0
  6 11  1  0  0  0  0
  7 12  1  0  0  0  0
  8  7  1  0  0  0  0
  9 10  1  0  0  0  0
  9  8  2  0  0  0  0
 10  5  2  0  0  0  0
 13  8  1  0  0  0  0
 14 20  1  6  0  0  0
 14 15  1  0  0  0  0
 15  9  1  1  0  0  0
 15 16  1  0  0  0  0
 16 17  1  0  0  0  0
 18 22  1  1  0  0  0
 18 17  1  0  0  0  0
 19 24  1  6  0  0  0
 19 14  1  0  0  0  0
 19 18  1  0  0  0  0
 21 20  1  0  0  0  0
 22 23  1  0  0  0  0
 25 24  1  0  0  0  0
 26 28  1  0  0  0  0
 27 26  1  0  0  0  0
 29 26  1  0  0  0  0
 29 34  1  0  0  0  0
 30 29  1  0  0  0  0
 31 29  1  0  0  0  0
 32 37  1  0  0  0  0
 33 34  1  0  0  0  0
 33 32  2  0  0  0  0
 34 35  2  0  0  0  0
 35 36  1  0  0  0  0
 36 39  1  0  0  0  0
 37 36  2  0  0  0  0
 38 33  1  0  0  0  0
 40 41  1  0  0  0  0
 40 32  1  0  0  0  0
 40 43  1  0  0  0  0
 41 44  1  0  0  0  0
 41 45  1  0  0  0  0
 42 40  1  0  0  0  0
 42 41  1  0  0  0  0
 46 42  1  0  0  0  0
 47 42  1  0  0  0  0
M  END
>  <minimizedAffinity>
-7.15256405

$$$$

 OpenBabel03242520233D

 47 50  0  0  1  0  0  0  0  0999 V2000
   36.5970   28.0050   40.4930 C   0  0  0  0  0  0  0  0  0  0  0  0
   36.6580   26.7750   40.1930 O   0  0  0  0  0  0  0  0  0  0  0  0
   36.3130   28.5080   41.7860 N   0  0  0  0  0  0  0  0  0  0  0  0
   36.1580   29.5130   41.9820 H   0  0  0  0  0  0  0  0  0  0  0  0
   36.8360   29.0150   39.4380 C   0  0  0  0  0  0  0  0  0  0  0  0
   36.3350   28.7920   38.1700 C   0  0  0  0  0  0  0  0  0  0  0  0
   36.4790   29.6430   37.0830 C   0  0  0  0  0  0  0  0  0  0  0  0
   37.2000   30.8100   37.3460 C   0  0  0  0  0  0  0  0  0  0  0  0
   37.6850   31.0020   38.6170 C   0  0  0  0  0  0  0  0  0  0  0  0
   37.5210   30.1470   39.6430 N   0  0  0  0  0  0  0  0  0  0  0  0
   35.7820   27.8750   38.0090 H   0  0  0  0  0  0  0  0  0  0  0  0
   36.0420   29.3600   36.1390 H   0  0  0  0  0  0  0  0  0  0  0  0
   37.3260   31.4870   36.5250 H   0  0  0  0  0  0  0  0  0  0  0  0
   38.0480   32.8610   40.0950 C   0  0  1  0  0  3  0  0  0  0  0  0
   38.4330   32.2790   38.7690 C   0  0  1  0  0  3  0  0  0  0  0  0
   39.7570   32.1800   38.4910 O   0  0  0  0  0  0  0  0  0  0  0  0
   40.6930   32.3950   39.4250 C   0  0  0  0  0  2  0  0  0  0  0  0
   40.3480   33.1350   40.6600 C   0  0  1  0  0  3  0  0  0  0  0  0
   39.0780   33.9260   40.4280 C   0  0  2  0  0  3  0  0  0  0  0  0
   36.7780   33.4060   40.0700 O   0  0  0  0  0  0  0  0  0  0  0  0
   36.2510   33.1450   40.8580 H   0  0  0  0  0  0  0  0  0  0  0  0
   40.0620   32.2410   41.7040 O   0  0  0  0  0  0  0  0  0  0  0  0
   40.2240   31.3000   41.4380 H   0  0  0  0  0  0  0  0  0  0  0  0
   38.6810   34.6410   41.5330 O   0  0  0  0  0  0  0  0  0  0  0  0
   39.2450   35.4640   41.5520 H   0  0  0  0  0  0  0  0  0  0  0  0
   36.2440   27.5480   42.8670 C   0  0  0  0  0  0  0  0  0  0  0  0
   36.5100   26.5370   42.5620 H   0  0  0  0  0  0  0  0  0  0  0  0
   35.2030   27.5210   43.2550 H   0  0  0  0  0  0  0  0  0  0  0  0
   37.1030   27.9560   44.0620 C   0  0  0  0  0  0  0  0  0  0  0  0
   36.8020   28.9070   44.5060 H   0  0  0  0  0  0  0  0  0  0  0  0
   37.0310   27.1110   44.7920 H   0  0  0  0  0  0  0  0  0  0  0  0
   40.7490   27.0750   43.5360 C   0  0  0  0  0  0  0  0  0  0  0  0
   39.3940   26.9830   43.9540 C   0  0  0  0  0  0  0  0  0  0  0  0
   38.5270   28.0140   43.6550 C   0  0  0  0  0  0  0  0  0  0  0  0
   39.0570   29.0810   42.9590 N   0  0  0  0  0  0  0  0  0  0  0  0
   40.3670   29.1140   42.5840 C   0  0  0  0  0  0  0  0  0  0  0  0
   41.2010   28.1180   42.8720 N   0  0  0  0  0  0  0  0  0  0  0  0
   39.0580   26.1210   44.4920 H   0  0  0  0  0  0  0  0  0  0  0  0
   40.6780   29.9890   42.0460 H   0  0  0  0  0  0  0  0  0  0  0  0
   41.6790   25.9540   43.8760 C   0  0  0  0  0  0  0  0  0  0  0  0
   41.8660   24.9800   42.6440 C   0  0  0  0  0  0  0  0  0  0  0  0
   42.9420   25.7240   43.3010 C   0  0  0  0  0  0  0  0  0  0  0  0
   41.3400   25.4100   44.7930 H   0  0  0  0  0  0  0  0  0  0  0  0
   41.5350   25.3510   41.6710 H   0  0  0  0  0  0  0  0  0  0  0  0
   41.6560   23.9230   42.8460 H   0  0  0  0  0  0  0  0  0  0  0  0
   43.4410   26.5500   42.7240 H   0  0  0  0  0  0  0  0  0  0  0  0
   43.7010   25.1420   43.8630 H   0  0  0  0  0  0  0  0  0  0  0  0
  1  3  1  0  0  0  0
  2  1  2  0  0  0  0
  3  4  1  0  0  0  0
  3 26  1  0  0  0  0
  5 10  1  0  0  0  0
  5  1  1  0  0  0  0
  6  5  2  0  0  0  0
  7  8  2  0  0  0  0
  7  6  1  0  0  0  0
  8  9  1  0  0  0  0
  9 10  2  0  0  0  0
 11  6  1  0  0  0  0
 12  7  1  0  0  0  0
 13  8  1  0  0  0  0
 14 20  1  6  0  0  0
 14 19  1  0  0  0  0
 15  9  1  1  0  0  0
 15 14  1  0  0  0  0
 16 15  1  0  0  0  0
 16 17  1  0  0  0  0
 17 18  1  0  0  0  0
 18 22  1  1  0  0  0
 19 18  1  0  0  0  0
 19 24  1  1  0  0  0
 20 21  1  0  0  0  0
 23 22  1  0  0  0  0
 24 25  1  0  0  0  0
 26 28  1  0  0  0  0
 26 29  1  0  0  0  0
 27 26  1  0  0  0  0
 29 30  1  0  0  0  0
 29 31  1  0  0  0  0
 32 40  1  0  0  0  0
 32 33  1  0  0  0  0
 33 38  1  0  0  0  0
 34 33  2  0  0  0  0
 34 29  1  0  0  0  0
 35 34  1  0  0  0  0
 36 37  1  0  0  0  0
 36 35  2  0  0  0  0
 37 32  2  0  0  0  0
 39 36  1  0  0  0  0
 40 43  1  0  0  0  0
 41 45  1  0  0  0  0
 41 42  1  0  0  0  0
 41 40  1  0  0  0  0
 42 47  1  0  0  0  0
 42 40  1  0  0  0  0
 44 41  1  0  0  0  0
 46 42  1  0  0  0  0
M  END
>  <minimizedAffinity>
-7.1414547

$$$$

 OpenBabel03242520233D

 47 50  0  0  1  0  0  0  0  0999 V2000
   36.8610   30.8940   39.2570 C   0  0  0  0  0  0  0  0  0  0  0  0
   36.5370   30.5810   38.0720 O   0  0  0  0  0  0  0  0  0  0  0  0
   36.3130   30.3110   40.4250 N   0  0  0  0  0  0  0  0  0  0  0  0
   36.5100   30.6600   41.3800 H   0  0  0  0  0  0  0  0  0  0  0  0
   37.8840   31.9420   39.4700 C   0  0  0  0  0  0  0  0  0  0  0  0
   37.4790   33.2150   39.8200 C   0  0  0  0  0  0  0  0  0  0  0  0
   38.3170   34.2970   40.0500 C   0  0  0  0  0  0  0  0  0  0  0  0
   39.6780   34.0220   39.9010 C   0  0  0  0  0  0  0  0  0  0  0  0
   40.0500   32.7460   39.5530 C   0  0  0  0  0  0  0  0  0  0  0  0
   39.1990   31.7250   39.3380 N   0  0  0  0  0  0  0  0  0  0  0  0
   36.4140   33.3860   39.9250 H   0  0  0  0  0  0  0  0  0  0  0  0
   37.8810   35.2450   40.3180 H   0  0  0  0  0  0  0  0  0  0  0  0
   40.3510   34.8380   40.0740 H   0  0  0  0  0  0  0  0  0  0  0  0
   42.0450   33.7980   38.7260 C   0  0  1  0  0  3  0  0  0  0  0  0
   41.5230   32.5810   39.4260 C   0  0  1  0  0  3  0  0  0  0  0  0
   42.1390   32.2080   40.5760 O   0  0  0  0  0  0  0  0  0  0  0  0
   43.0380   32.9940   41.1830 C   0  0  0  0  0  2  0  0  0  0  0  0
   43.6890   34.0900   40.4290 C   0  0  1  0  0  3  0  0  0  0  0  0
   43.5470   33.8250   38.9440 C   0  0  2  0  0  3  0  0  0  0  0  0
   41.7510   33.7830   37.3750 O   0  0  0  0  0  0  0  0  0  0  0  0
   41.4100   34.6510   37.0650 H   0  0  0  0  0  0  0  0  0  0  0  0
   43.0340   35.3080   40.6680 O   0  0  0  0  0  0  0  0  0  0  0  0
   42.3220   35.2150   41.3510 H   0  0  0  0  0  0  0  0  0  0  0  0
   44.1220   34.8020   38.1670 O   0  0  0  0  0  0  0  0  0  0  0  0
   45.1020   34.6110   38.1550 H   0  0  0  0  0  0  0  0  0  0  0  0
   35.4390   29.1710   40.2460 C   0  0  0  0  0  0  0  0  0  0  0  0
   34.8110   29.2460   39.3590 H   0  0  0  0  0  0  0  0  0  0  0  0
   34.7690   29.0920   41.1290 H   0  0  0  0  0  0  0  0  0  0  0  0
   36.2060   27.8510   40.2100 C   0  0  0  0  0  0  0  0  0  0  0  0
   35.5650   26.9840   40.0400 H   0  0  0  0  0  0  0  0  0  0  0  0
   36.9760   27.9670   39.4070 H   0  0  0  0  0  0  0  0  0  0  0  0
   38.8050   26.7710   42.7460 C   0  0  0  0  0  0  0  0  0  0  0  0
   38.1010   26.9000   41.5180 C   0  0  0  0  0  0  0  0  0  0  0  0
   36.9650   27.6810   41.4720 C   0  0  0  0  0  0  0  0  0  0  0  0
   36.5900   28.2900   42.6510 N   0  0  0  0  0  0  0  0  0  0  0  0
   37.3050   28.1300   43.8010 C   0  0  0  0  0  0  0  0  0  0  0  0
   38.4000   27.3780   43.8420 N   0  0  0  0  0  0  0  0  0  0  0  0
   38.4560   26.3940   40.6430 H   0  0  0  0  0  0  0  0  0  0  0  0
   36.9280   28.6480   44.6620 H   0  0  0  0  0  0  0  0  0  0  0  0
   40.0300   25.9130   42.7820 C   0  0  0  0  0  0  0  0  0  0  0  0
   39.6510   24.3960   43.0120 C   0  0  0  0  0  0  0  0  0  0  0  0
   40.3690   24.9170   41.8480 C   0  0  0  0  0  0  0  0  0  0  0  0
   40.7600   26.2840   43.5430 H   0  0  0  0  0  0  0  0  0  0  0  0
   38.6040   24.1230   42.8610 H   0  0  0  0  0  0  0  0  0  0  0  0
   40.1510   23.9110   43.8590 H   0  0  0  0  0  0  0  0  0  0  0  0
   39.8470   24.8970   40.8530 H   0  0  0  0  0  0  0  0  0  0  0  0
   41.4320   24.6240   41.7250 H   0  0  0  0  0  0  0  0  0  0  0  0
  1  5  1  0  0  0  0
  1  3  1  0  0  0  0
  2  1  2  0  0  0  0
  3  4  1  0  0  0  0
  5  6  1  0  0  0  0
  6 11  1  0  0  0  0
  6  7  2  0  0  0  0
  7 12  1  0  0  0  0
  8  7  1  0  0  0  0
  8 13  1  0  0  0  0
  9  8  2  0  0  0  0
 10  5  2  0  0  0  0
 10  9  1  0  0  0  0
 14 20  1  6  0  0  0
 14 19  1  0  0  0  0
 14 15  1  0  0  0  0
 15  9  1  1  0  0  0
 15 16  1  0  0  0  0
 16 17  1  0  0  0  0
 18 22  1  6  0  0  0
 18 17  1  0  0  0  0
 19 24  1  6  0  0  0
 19 18  1  0  0  0  0
 21 20  1  0  0  0  0
 22 23  1  0  0  0  0
 25 24  1  0  0  0  0
 26  3  1  0  0  0  0
 26 28  1  0  0  0  0
 27 26  1  0  0  0  0
 29 26  1  0  0  0  0
 29 34  1  0  0  0  0
 30 29  1  0  0  0  0
 31 29  1  0  0  0  0
 32 40  1  0  0  0  0
 32 37  1  0  0  0  0
 33 32  2  0  0  0  0
 34 33  1  0  0  0  0
 34 35  2  0  0  0  0
 35 36  1  0  0  0  0
 36 37  2  0  0  0  0
 36 39  1  0  0  0  0
 38 33  1  0  0  0  0
 40 41  1  0  0  0  0
 40 43  1  0  0  0  0
 41 45  1  0  0  0  0
 42 40  1  0  0  0  0
 42 41  1  0  0  0  0
 44 41  1  0  0  0  0
 46 42  1  0  0  0  0
 47 42  1  0  0  0  0
M  END
>  <minimizedAffinity>
-6.84597683

$$$$

 OpenBabel03242520233D

 47 50  0  0  1  0  0  0  0  0999 V2000
   37.0830   30.6220   37.4840 C   0  0  0  0  0  0  0  0  0  0  0  0
   37.0240   30.7270   36.2220 O   0  0  0  0  0  0  0  0  0  0  0  0
   36.3780   29.6610   38.2490 N   0  0  0  0  0  0  0  0  0  0  0  0
   36.3540   29.6660   39.2840 H   0  0  0  0  0  0  0  0  0  0  0  0
   37.9420   31.5570   38.2440 C   0  0  0  0  0  0  0  0  0  0  0  0
   37.3490   32.5500   39.0000 C   0  0  0  0  0  0  0  0  0  0  0  0
   38.0200   33.4960   39.7610 C   0  0  0  0  0  0  0  0  0  0  0  0
   39.4120   33.3940   39.7250 C   0  0  0  0  0  0  0  0  0  0  0  0
   39.9720   32.3960   38.9640 C   0  0  0  0  0  0  0  0  0  0  0  0
   39.2800   31.4980   38.2400 N   0  0  0  0  0  0  0  0  0  0  0  0
   36.2660   32.5940   39.0000 H   0  0  0  0  0  0  0  0  0  0  0  0
   37.4460   34.2250   40.3110 H   0  0  0  0  0  0  0  0  0  0  0  0
   39.9580   34.1120   40.3050 H   0  0  0  0  0  0  0  0  0  0  0  0
   41.9410   32.0910   37.6220 C   0  0  1  0  0  3  0  0  0  0  0  0
   41.4590   32.3930   39.0080 C   0  0  1  0  0  3  0  0  0  0  0  0
   41.9960   33.4680   39.6370 O   0  0  0  0  0  0  0  0  0  0  0  0
   42.7690   34.3510   38.9910 C   0  0  0  0  0  2  0  0  0  0  0  0
   43.3950   33.9800   37.7010 C   0  0  1  0  0  3  0  0  0  0  0  0
   43.4100   32.4700   37.5720 C   0  0  2  0  0  3  0  0  0  0  0  0
   41.7730   30.7580   37.2960 O   0  0  0  0  0  0  0  0  0  0  0  0
   41.3910   30.6450   36.3970 H   0  0  0  0  0  0  0  0  0  0  0  0
   42.6230   34.4510   36.6270 O   0  0  0  0  0  0  0  0  0  0  0  0
   41.8620   35.0060   36.9360 H   0  0  0  0  0  0  0  0  0  0  0  0
   43.9720   32.0380   36.3940 O   0  0  0  0  0  0  0  0  0  0  0  0
   44.9610   32.0840   36.5200 H   0  0  0  0  0  0  0  0  0  0  0  0
   35.6670   28.6310   37.5210 C   0  0  0  0  0  0  0  0  0  0  0  0
   36.0830   28.4380   36.5330 H   0  0  0  0  0  0  0  0  0  0  0  0
   34.6120   28.9510   37.3880 H   0  0  0  0  0  0  0  0  0  0  0  0
   35.5890   27.3190   38.2980 C   0  0  0  0  0  0  0  0  0  0  0  0
   34.6630   27.2080   38.8660 H   0  0  0  0  0  0  0  0  0  0  0  0
   35.7150   26.5060   37.5400 H   0  0  0  0  0  0  0  0  0  0  0  0
   37.7330   26.9800   41.4030 C   0  0  0  0  0  0  0  0  0  0  0  0
   36.5870   27.0950   40.5700 C   0  0  0  0  0  0  0  0  0  0  0  0
   36.7560   27.2070   39.2050 C   0  0  0  0  0  0  0  0  0  0  0  0
   38.0560   27.2000   38.7440 N   0  0  0  0  0  0  0  0  0  0  0  0
   39.1180   27.0880   39.5920 C   0  0  0  0  0  0  0  0  0  0  0  0
   38.9530   26.9790   40.9060 N   0  0  0  0  0  0  0  0  0  0  0  0
   35.6090   27.0930   41.0050 H   0  0  0  0  0  0  0  0  0  0  0  0
   40.0880   27.0930   39.1300 H   0  0  0  0  0  0  0  0  0  0  0  0
   37.5340   26.8690   42.8810 C   0  0  0  0  0  0  0  0  0  0  0  0
   37.5470   28.2950   43.5630 C   0  0  0  0  0  0  0  0  0  0  0  0
   36.4290   27.3520   43.6060 C   0  0  0  0  0  0  0  0  0  0  0  0
   38.2850   26.1780   43.3390 H   0  0  0  0  0  0  0  0  0  0  0  0
   37.4380   29.1570   42.9000 H   0  0  0  0  0  0  0  0  0  0  0  0
   38.2640   28.4150   44.3850 H   0  0  0  0  0  0  0  0  0  0  0  0
   35.4880   27.6230   43.0540 H   0  0  0  0  0  0  0  0  0  0  0  0
   36.1770   26.8960   44.5850 H   0  0  0  0  0  0  0  0  0  0  0  0
  1  5  1  0  0  0  0
  1  3  1  0  0  0  0
  2  1  2  0  0  0  0
  3  4  1  0  0  0  0
  5  6  1  0  0  0  0
  6  7  2  0  0  0  0
  7 12  1  0  0  0  0
  8  7  1  0  0  0  0
  8 13  1  0  0  0  0
  9  8  2  0  0  0  0
 10  5  2  0  0  0  0
 10  9  1  0  0  0  0
 11  6  1  0  0  0  0
 14 20  1  1  0  0  0
 14 15  1  0  0  0  0
 15  9  1  6  0  0  0
 15 16  1  0  0  0  0
 17 16  1  0  0  0  0
 18 22  1  6  0  0  0
 18 17  1  0  0  0  0
 19 24  1  6  0  0  0
 19 14  1  0  0  0  0
 19 18  1  0  0  0  0
 21 20  1  0  0  0  0
 22 23  1  0  0  0  0
 24 25  1  0  0  0  0
 26  3  1  0  0  0  0
 26 29  1  0  0  0  0
 27 26  1  0  0  0  0
 28 26  1  0  0  0  0
 29 30  1  0  0  0  0
 29 34  1  0  0  0  0
 31 29  1  0  0  0  0
 32 40  1  0  0  0  0
 33 38  1  0  0  0  0
 33 32  2  0  0  0  0
 34 33  1  0  0  0  0
 35 34  2  0  0  0  0
 35 36  1  0  0  0  0
 36 37  2  0  0  0  0
 37 32  1  0  0  0  0
 39 36  1  0  0  0  0
 40 43  1  0  0  0  0
 40 41  1  0  0  0  0
 40 42  1  0  0  0  0
 41 42  1  0  0  0  0
 41 45  1  0  0  0  0
 42 47  1  0  0  0  0
 44 41  1  0  0  0  0
 46 42  1  0  0  0  0
M  END
>  <minimizedAffinity>
-6.67755651

$$$$

 OpenBabel03242520233D

 47 50  0  0  1  0  0  0  0  0999 V2000
   37.3600   27.9250   42.6970 C   0  0  0  0  0  0  0  0  0  0  0  0
   36.4300   27.3630   43.3490 O   0  0  0  0  0  0  0  0  0  0  0  0
   38.7370   27.8360   43.0130 N   0  0  0  0  0  0  0  0  0  0  0  0
   39.4670   28.3930   42.5340 H   0  0  0  0  0  0  0  0  0  0  0  0
   37.0150   28.7420   41.5110 C   0  0  0  0  0  0  0  0  0  0  0  0
   35.8280   28.4950   40.8490 C   0  0  0  0  0  0  0  0  0  0  0  0
   35.3710   29.1730   39.7280 C   0  0  0  0  0  0  0  0  0  0  0  0
   36.2210   30.1820   39.2700 C   0  0  0  0  0  0  0  0  0  0  0  0
   37.3940   30.4030   39.9500 C   0  0  0  0  0  0  0  0  0  0  0  0
   37.7980   29.7180   41.0360 N   0  0  0  0  0  0  0  0  0  0  0  0
   35.1980   27.7040   41.2380 H   0  0  0  0  0  0  0  0  0  0  0  0
   34.4240   28.8890   39.2980 H   0  0  0  0  0  0  0  0  0  0  0  0
   35.8940   30.7240   38.4050 H   0  0  0  0  0  0  0  0  0  0  0  0
   38.1300   32.6620   40.3100 C   0  0  1  0  0  3  0  0  0  0  0  0
   38.2100   31.5010   39.3660 C   0  0  1  0  0  3  0  0  0  0  0  0
   39.4430   31.1150   38.9530 O   0  0  0  0  0  0  0  0  0  0  0  0
   40.5600   31.6000   39.5120 C   0  0  0  0  0  2  0  0  0  0  0  0
   40.5070   32.8540   40.2980 C   0  0  1  0  0  3  0  0  0  0  0  0
   39.2500   33.6160   39.9350 C   0  0  2  0  0  3  0  0  0  0  0  0
   36.9060   33.3000   40.2420 O   0  0  0  0  0  0  0  0  0  0  0  0
   36.5420   33.4920   41.1350 H   0  0  0  0  0  0  0  0  0  0  0  0
   40.4050   32.5700   41.6690 O   0  0  0  0  0  0  0  0  0  0  0  0
   40.4690   31.5980   41.8500 H   0  0  0  0  0  0  0  0  0  0  0  0
   39.1190   34.7970   40.6270 O   0  0  0  0  0  0  0  0  0  0  0  0
   39.7080   35.4590   40.1680 H   0  0  0  0  0  0  0  0  0  0  0  0
   39.1150   26.9100   44.0600 C   0  0  0  0  0  0  0  0  0  0  0  0
   38.2860   26.3000   44.4140 H   0  0  0  0  0  0  0  0  0  0  0  0
   39.5040   27.4890   44.9250 H   0  0  0  0  0  0  0  0  0  0  0  0
   40.2680   25.9990   43.6420 C   0  0  0  0  0  0  0  0  0  0  0  0
   41.2370   26.5000   43.6450 H   0  0  0  0  0  0  0  0  0  0  0  0
   40.2420   25.1310   44.3470 H   0  0  0  0  0  0  0  0  0  0  0  0
   38.7690   23.9770   40.8110 C   0  0  0  0  0  0  0  0  0  0  0  0
   39.0060   24.4870   42.1160 C   0  0  0  0  0  0  0  0  0  0  0  0
   39.9930   25.4330   42.2990 C   0  0  0  0  0  0  0  0  0  0  0  0
   40.6920   25.8190   41.1750 N   0  0  0  0  0  0  0  0  0  0  0  0
   40.4210   25.2940   39.9460 C   0  0  0  0  0  0  0  0  0  0  0  0
   39.4670   24.3840   39.7710 N   0  0  0  0  0  0  0  0  0  0  0  0
   38.4200   24.1360   42.9410 H   0  0  0  0  0  0  0  0  0  0  0  0
   41.0220   25.6630   39.1360 H   0  0  0  0  0  0  0  0  0  0  0  0
   37.7010   22.9450   40.6290 C   0  0  0  0  0  0  0  0  0  0  0  0
   36.3250   23.6180   40.2370 C   0  0  0  0  0  0  0  0  0  0  0  0
   37.0460   22.6370   39.4240 C   0  0  0  0  0  0  0  0  0  0  0  0
   37.6090   22.2960   41.5350 H   0  0  0  0  0  0  0  0  0  0  0  0
   36.3640   24.6570   39.9040 H   0  0  0  0  0  0  0  0  0  0  0  0
   35.4760   23.3560   40.8800 H   0  0  0  0  0  0  0  0  0  0  0  0
   37.4920   22.9840   38.4520 H   0  0  0  0  0  0  0  0  0  0  0  0
   36.5840   21.6370   39.2930 H   0  0  0  0  0  0  0  0  0  0  0  0
  1  3  1  0  0  0  0
  1  2  2  0  0  0  0
  3 26  1  0  0  0  0
  4  3  1  0  0  0  0
  5  1  1  0  0  0  0
  6 11  1  0  0  0  0
  6  5  2  0  0  0  0
  7  6  1  0  0  0  0
  8  7  2  0  0  0  0
  8  9  1  0  0  0  0
  9 10  2  0  0  0  0
 10  5  1  0  0  0  0
 12  7  1  0  0  0  0
 13  8  1  0  0  0  0
 14 20  1  6  0  0  0
 15  9  1  1  0  0  0
 15 14  1  0  0  0  0
 16 15  1  0  0  0  0
 16 17  1  0  0  0  0
 17 18  1  0  0  0  0
 18 22  1  1  0  0  0
 19 18  1  0  0  0  0
 19 14  1  0  0  0  0
 19 24  1  1  0  0  0
 20 21  1  0  0  0  0
 22 23  1  0  0  0  0
 25 24  1  0  0  0  0
 26 27  1  0  0  0  0
 26 28  1  0  0  0  0
 29 30  1  0  0  0  0
 29 26  1  0  0  0  0
 29 31  1  0  0  0  0
 32 33  1  0  0  0  0
 33 34  2  0  0  0  0
 33 38  1  0  0  0  0
 34 29  1  0  0  0  0
 35 34  1  0  0  0  0
 36 35  2  0  0  0  0
 37 36  1  0  0  0  0
 37 32  2  0  0  0  0
 39 36  1  0  0  0  0
 40 32  1  0  0  0  0
 40 43  1  0  0  0  0
 41 40  1  0  0  0  0
 41 45  1  0  0  0  0
 42 41  1  0  0  0  0
 42 40  1  0  0  0  0
 44 41  1  0  0  0  0
 46 42  1  0  0  0  0
 47 42  1  0  0  0  0
M  END
>  <minimizedAffinity>
-6.59592724

$$$$

 OpenBabel03242520233D

 47 50  0  0  1  0  0  0  0  0999 V2000
   38.3490   31.8640   40.8850 C   0  0  0  0  0  0  0  0  0  0  0  0
   38.9240   30.8290   41.3340 O   0  0  0  0  0  0  0  0  0  0  0  0
   36.9610   31.9690   40.6240 N   0  0  0  0  0  0  0  0  0  0  0  0
   36.5320   32.7850   40.1530 H   0  0  0  0  0  0  0  0  0  0  0  0
   39.1580   33.0710   40.6030 C   0  0  0  0  0  0  0  0  0  0  0  0
   38.5140   34.2640   40.3390 C   0  0  0  0  0  0  0  0  0  0  0  0
   39.1350   35.4730   40.0570 C   0  0  0  0  0  0  0  0  0  0  0  0
   40.5300   35.4250   40.0510 C   0  0  0  0  0  0  0  0  0  0  0  0
   41.1410   34.2240   40.3170 C   0  0  0  0  0  0  0  0  0  0  0  0
   40.4970   33.0730   40.5860 N   0  0  0  0  0  0  0  0  0  0  0  0
   37.4310   34.2580   40.3540 H   0  0  0  0  0  0  0  0  0  0  0  0
   38.5230   36.3400   39.8670 H   0  0  0  0  0  0  0  0  0  0  0  0
   41.0380   36.3450   39.8370 H   0  0  0  0  0  0  0  0  0  0  0  0
   43.1470   33.2820   41.2460 C   0  0  1  0  0  3  0  0  0  0  0  0
   42.6270   34.3030   40.2810 C   0  0  1  0  0  3  0  0  0  0  0  0
   43.1500   34.3040   39.0300 O   0  0  0  0  0  0  0  0  0  0  0  0
   43.9450   33.3180   38.5950 C   0  0  0  0  0  2  0  0  0  0  0  0
   44.6050   32.4180   39.5690 C   0  0  1  0  0  3  0  0  0  0  0  0
   44.6180   33.0830   40.9300 C   0  0  2  0  0  3  0  0  0  0  0  0
   42.9830   33.6820   42.5590 O   0  0  0  0  0  0  0  0  0  0  0  0
   42.6260   32.9580   43.1210 H   0  0  0  0  0  0  0  0  0  0  0  0
   43.8660   31.2350   39.7230 O   0  0  0  0  0  0  0  0  0  0  0  0
   43.0990   31.1950   39.0980 H   0  0  0  0  0  0  0  0  0  0  0  0
   45.2110   32.3090   41.8990 O   0  0  0  0  0  0  0  0  0  0  0  0
   46.1960   32.4200   41.7840 H   0  0  0  0  0  0  0  0  0  0  0  0
   36.1250   30.8670   41.0490 C   0  0  0  0  0  0  0  0  0  0  0  0
   35.2360   31.1860   41.5920 H   0  0  0  0  0  0  0  0  0  0  0  0
   36.7150   30.2100   41.7230 H   0  0  0  0  0  0  0  0  0  0  0  0
   35.7090   29.9700   39.8850 C   0  0  0  0  0  0  0  0  0  0  0  0
   34.6360   29.9910   39.6860 H   0  0  0  0  0  0  0  0  0  0  0  0
   36.3050   30.3170   39.0040 H   0  0  0  0  0  0  0  0  0  0  0  0
   37.0750   26.8710   41.5820 C   0  0  0  0  0  0  0  0  0  0  0  0
   36.6730   28.2180   41.3710 C   0  0  0  0  0  0  0  0  0  0  0  0
   36.1500   28.5790   40.1460 C   0  0  0  0  0  0  0  0  0  0  0  0
   36.0570   27.5810   39.1980 N   0  0  0  0  0  0  0  0  0  0  0  0
   36.4590   26.3040   39.4580 C   0  0  0  0  0  0  0  0  0  0  0  0
   36.9620   25.9580   40.6400 N   0  0  0  0  0  0  0  0  0  0  0  0
   36.7780   28.9360   42.1570 H   0  0  0  0  0  0  0  0  0  0  0  0
   36.3430   25.6040   38.6530 H   0  0  0  0  0  0  0  0  0  0  0  0
   37.6490   26.4970   42.9120 C   0  0  0  0  0  0  0  0  0  0  0  0
   39.1650   26.0710   42.7740 C   0  0  0  0  0  0  0  0  0  0  0  0
   38.6730   27.1800   43.5920 C   0  0  0  0  0  0  0  0  0  0  0  0
   37.0340   25.7060   43.4090 H   0  0  0  0  0  0  0  0  0  0  0  0
   39.6650   26.3340   41.8390 H   0  0  0  0  0  0  0  0  0  0  0  0
   39.4140   25.0850   43.1850 H   0  0  0  0  0  0  0  0  0  0  0  0
   38.9380   28.2260   43.2770 H   0  0  0  0  0  0  0  0  0  0  0  0
   38.7560   27.0830   44.6940 H   0  0  0  0  0  0  0  0  0  0  0  0
  1  2  2  0  0  0  0
  3  1  1  0  0  0  0
  3 26  1  0  0  0  0
  4  3  1  0  0  0  0
  5  1  1  0  0  0  0
  6 11  1  0  0  0  0
  6  5  2  0  0  0  0
  7  6  1  0  0  0  0
  8  7  2  0  0  0  0
  8  9  1  0  0  0  0
  9 10  2  0  0  0  0
 10  5  1  0  0  0  0
 12  7  1  0  0  0  0
 13  8  1  0  0  0  0
 14 20  1  1  0  0  0
 15  9  1  6  0  0  0
 15 14  1  0  0  0  0
 16 15  1  0  0  0  0
 17 16  1  0  0  0  0
 17 18  1  0  0  0  0
 18 22  1  1  0  0  0
 18 19  1  0  0  0  0
 19 14  1  0  0  0  0
 19 24  1  1  0  0  0
 20 21  1  0  0  0  0
 23 22  1  0  0  0  0
 25 24  1  0  0  0  0
 26 27  1  0  0  0  0
 26 28  1  0  0  0  0
 29 34  1  0  0  0  0
 29 26  1  0  0  0  0
 30 29  1  0  0  0  0
 31 29  1  0  0  0  0
 32 40  1  0  0  0  0
 33 32  1  0  0  0  0
 33 38  1  0  0  0  0
 34 33  2  0  0  0  0
 35 36  2  0  0  0  0
 35 34  1  0  0  0  0
 36 37  1  0  0  0  0
 37 32  2  0  0  0  0
 39 36  1  0  0  0  0
 40 43  1  0  0  0  0
 40 42  1  0  0  0  0
 41 40  1  0  0  0  0
 41 45  1  0  0  0  0
 41 42  1  0  0  0  0
 42 47  1  0  0  0  0
 44 41  1  0  0  0  0
 46 42  1  0  0  0  0
M  END
>  <minimizedAffinity>
-6.59041739

$$$$

 OpenBabel03242520233D

 47 50  0  0  1  0  0  0  0  0999 V2000
   38.6980   29.9610   42.2090 C   0  0  0  0  0  0  0  0  0  0  0  0
   39.7600   29.2800   42.3330 O   0  0  0  0  0  0  0  0  0  0  0  0
   37.4440   29.6100   42.7660 N   0  0  0  0  0  0  0  0  0  0  0  0
   36.5670   30.1200   42.5590 H   0  0  0  0  0  0  0  0  0  0  0  0
   38.7370   31.2200   41.4330 C   0  0  0  0  0  0  0  0  0  0  0  0
   37.6010   31.6300   40.7620 C   0  0  0  0  0  0  0  0  0  0  0  0
   37.4850   32.7810   39.9960 C   0  0  0  0  0  0  0  0  0  0  0  0
   38.6450   33.5570   39.9290 C   0  0  0  0  0  0  0  0  0  0  0  0
   39.7580   33.1220   40.6070 C   0  0  0  0  0  0  0  0  0  0  0  0
   39.8240   31.9950   41.3400 N   0  0  0  0  0  0  0  0  0  0  0  0
   36.7230   31.0000   40.8400 H   0  0  0  0  0  0  0  0  0  0  0  0
   36.5430   32.9960   39.5180 H   0  0  0  0  0  0  0  0  0  0  0  0
   38.5850   34.4530   39.3450 H   0  0  0  0  0  0  0  0  0  0  0  0
   42.1390   33.2690   40.8920 C   0  0  1  0  0  3  0  0  0  0  0  0
   40.9250   34.0330   40.4580 C   0  0  1  0  0  3  0  0  0  0  0  0
   40.9820   34.6680   39.2610 O   0  0  0  0  0  0  0  0  0  0  0  0
   41.9870   34.4650   38.4000 C   0  0  0  0  0  2  0  0  0  0  0  0
   43.2590   33.8730   38.8760 C   0  0  1  0  0  3  0  0  0  0  0  0
   43.3480   34.0300   40.3790 C   0  0  2  0  0  3  0  0  0  0  0  0
   42.1990   33.1330   42.2670 O   0  0  0  0  0  0  0  0  0  0  0  0
   42.4280   32.2150   42.5350 H   0  0  0  0  0  0  0  0  0  0  0  0
   43.2800   32.4910   38.6290 O   0  0  0  0  0  0  0  0  0  0  0  0
   42.4840   32.1960   38.1170 H   0  0  0  0  0  0  0  0  0  0  0  0
   44.5020   33.4990   40.9070 O   0  0  0  0  0  0  0  0  0  0  0  0
   45.2200   34.1740   40.7470 H   0  0  0  0  0  0  0  0  0  0  0  0
   37.4160   28.4770   43.6680 C   0  0  0  0  0  0  0  0  0  0  0  0
   37.0780   28.7350   44.6710 H   0  0  0  0  0  0  0  0  0  0  0  0
   38.4430   28.0630   43.7530 H   0  0  0  0  0  0  0  0  0  0  0  0
   36.5670   27.3270   43.1300 C   0  0  0  0  0  0  0  0  0  0  0  0
   35.8940   26.9020   43.8770 H   0  0  0  0  0  0  0  0  0  0  0  0
   36.0110   27.7420   42.2530 H   0  0  0  0  0  0  0  0  0  0  0  0
   39.5610   25.0990   42.4810 C   0  0  0  0  0  0  0  0  0  0  0  0
   38.7510   26.1310   43.0250 C   0  0  0  0  0  0  0  0  0  0  0  0
   37.4510   26.2700   42.5830 C   0  0  0  0  0  0  0  0  0  0  0  0
   37.0300   25.3750   41.6220 N   0  0  0  0  0  0  0  0  0  0  0  0
   37.8530   24.4030   41.1350 C   0  0  0  0  0  0  0  0  0  0  0  0
   39.1050   24.2710   41.5640 N   0  0  0  0  0  0  0  0  0  0  0  0
   39.1510   26.7890   43.7690 H   0  0  0  0  0  0  0  0  0  0  0  0
   37.4270   23.7580   40.3900 H   0  0  0  0  0  0  0  0  0  0  0  0
   40.9710   24.9670   42.9630 C   0  0  0  0  0  0  0  0  0  0  0  0
   41.9590   25.8060   42.0590 C   0  0  0  0  0  0  0  0  0  0  0  0
   41.7630   26.0000   43.4960 C   0  0  0  0  0  0  0  0  0  0  0  0
   41.2750   23.8930   43.0340 H   0  0  0  0  0  0  0  0  0  0  0  0
   41.5080   26.5480   41.3960 H   0  0  0  0  0  0  0  0  0  0  0  0
   42.8020   25.2430   41.6380 H   0  0  0  0  0  0  0  0  0  0  0  0
   41.2680   26.9500   43.8370 H   0  0  0  0  0  0  0  0  0  0  0  0
   42.6070   25.7490   44.1700 H   0  0  0  0  0  0  0  0  0  0  0  0
  1  2  2  0  0  0  0
  1  3  1  0  0  0  0
  3 26  1  0  0  0  0
  4  3  1  0  0  0  0
  5  1  1  0  0  0  0
  6 11  1  0  0  0  0
  6  5  2  0  0  0  0
  7  6  1  0  0  0  0
  8  7  2  0  0  0  0
  8  9  1  0  0  0  0
  9 10  2  0  0  0  0
 10  5  1  0  0  0  0
 12  7  1  0  0  0  0
 13  8  1  0  0  0  0
 14 20  1  1  0  0  0
 15  9  1  6  0  0  0
 15 14  1  0  0  0  0
 16 15  1  0  0  0  0
 17 18  1  0  0  0  0
 17 16  1  0  0  0  0
 18 22  1  1  0  0  0
 18 19  1  0  0  0  0
 19 14  1  0  0  0  0
 19 24  1  1  0  0  0
 20 21  1  0  0  0  0
 23 22  1  0  0  0  0
 25 24  1  0  0  0  0
 26 28  1  0  0  0  0
 26 27  1  0  0  0  0
 29 26  1  0  0  0  0
 29 30  1  0  0  0  0
 31 29  1  0  0  0  0
 32 40  1  0  0  0  0
 32 33  1  0  0  0  0
 33 38  1  0  0  0  0
 34 33  2  0  0  0  0
 34 29  1  0  0  0  0
 35 34  1  0  0  0  0
 36 37  1  0  0  0  0
 36 35  2  0  0  0  0
 37 32  2  0  0  0  0
 39 36  1  0  0  0  0
 40 43  1  0  0  0  0
 40 42  1  0  0  0  0
 41 40  1  0  0  0  0
 41 42  1  0  0  0  0
 42 46  1  0  0  0  0
 42 47  1  0  0  0  0
 44 41  1  0  0  0  0
 45 41  1  0  0  0  0
M  END
>  <minimizedAffinity>
-6.46392298

$$$$

 OpenBabel03242520233D

 47 50  0  0  1  0  0  0  0  0999 V2000
   38.1570   31.3350   40.4010 C   0  0  0  0  0  0  0  0  0  0  0  0
   36.9760   31.6190   40.0410 O   0  0  0  0  0  0  0  0  0  0  0  0
   38.4900   30.5310   41.5180 N   0  0  0  0  0  0  0  0  0  0  0  0
   39.4600   30.4040   41.8580 H   0  0  0  0  0  0  0  0  0  0  0  0
   39.2960   31.8650   39.6170 C   0  0  0  0  0  0  0  0  0  0  0  0
   39.3220   31.6630   38.2510 C   0  0  0  0  0  0  0  0  0  0  0  0
   40.3180   32.0980   37.3880 C   0  0  0  0  0  0  0  0  0  0  0  0
   41.3600   32.7940   38.0040 C   0  0  0  0  0  0  0  0  0  0  0  0
   41.3050   32.9790   39.3650 C   0  0  0  0  0  0  0  0  0  0  0  0
   40.3160   32.5380   40.1640 N   0  0  0  0  0  0  0  0  0  0  0  0
   38.4940   31.1190   37.8140 H   0  0  0  0  0  0  0  0  0  0  0  0
   40.2280   31.8790   36.3370 H   0  0  0  0  0  0  0  0  0  0  0  0
   42.1450   33.1430   37.3620 H   0  0  0  0  0  0  0  0  0  0  0  0
   42.0510   34.3230   41.2110 C   0  0  1  0  0  3  0  0  0  0  0  0
   42.4710   33.7330   39.9000 C   0  0  1  0  0  3  0  0  0  0  0  0
   43.6370   33.0410   39.8710 O   0  0  0  0  0  0  0  0  0  0  0  0
   44.2930   32.7130   40.9920 C   0  0  0  0  0  2  0  0  0  0  0  0
   44.0000   33.4300   42.2540 C   0  0  1  0  0  3  0  0  0  0  0  0
   43.3180   34.7430   41.9340 C   0  0  2  0  0  3  0  0  0  0  0  0
   41.2060   35.4040   41.0440 O   0  0  0  0  0  0  0  0  0  0  0  0
   40.4330   35.3630   41.6500 H   0  0  0  0  0  0  0  0  0  0  0  0
   43.0880   32.7000   43.0330 O   0  0  0  0  0  0  0  0  0  0  0  0
   42.8820   31.8190   42.6300 H   0  0  0  0  0  0  0  0  0  0  0  0
   43.0040   35.4730   43.0560 O   0  0  0  0  0  0  0  0  0  0  0  0
   43.8460   35.9270   43.3410 H   0  0  0  0  0  0  0  0  0  0  0  0
   37.4000   29.8630   42.1980 C   0  0  0  0  0  0  0  0  0  0  0  0
   36.7410   29.3190   41.5220 H   0  0  0  0  0  0  0  0  0  0  0  0
   36.7890   30.6240   42.7270 H   0  0  0  0  0  0  0  0  0  0  0  0
   37.8910   28.9160   43.2920 C   0  0  0  0  0  0  0  0  0  0  0  0
   38.6210   29.3730   43.9620 H   0  0  0  0  0  0  0  0  0  0  0  0
   36.9740   28.5790   43.8370 H   0  0  0  0  0  0  0  0  0  0  0  0
   38.3010   25.3940   41.9600 C   0  0  0  0  0  0  0  0  0  0  0  0
   37.7180   26.5390   42.5670 C   0  0  0  0  0  0  0  0  0  0  0  0
   38.4630   27.6960   42.6750 C   0  0  0  0  0  0  0  0  0  0  0  0
   39.7470   27.6490   42.1740 N   0  0  0  0  0  0  0  0  0  0  0  0
   40.2540   26.5200   41.6020 C   0  0  0  0  0  0  0  0  0  0  0  0
   39.5340   25.4070   41.4980 N   0  0  0  0  0  0  0  0  0  0  0  0
   36.7130   26.4960   42.9330 H   0  0  0  0  0  0  0  0  0  0  0  0
   41.2640   26.5900   41.2440 H   0  0  0  0  0  0  0  0  0  0  0  0
   37.4850   24.1440   41.8590 C   0  0  0  0  0  0  0  0  0  0  0  0
   36.5700   24.1690   40.5700 C   0  0  0  0  0  0  0  0  0  0  0  0
   37.5940   23.1640   40.8560 C   0  0  0  0  0  0  0  0  0  0  0  0
   36.8930   23.9720   42.7920 H   0  0  0  0  0  0  0  0  0  0  0  0
   36.8110   24.9160   39.8110 H   0  0  0  0  0  0  0  0  0  0  0  0
   35.5000   24.0050   40.7520 H   0  0  0  0  0  0  0  0  0  0  0  0
   38.5100   23.1450   40.2050 H   0  0  0  0  0  0  0  0  0  0  0  0
   37.2560   22.1280   41.0650 H   0  0  0  0  0  0  0  0  0  0  0  0
  1  3  1  0  0  0  0
  2  1  2  0  0  0  0
  3  4  1  0  0  0  0
  3 26  1  0  0  0  0
  5 10  1  0  0  0  0
  5  1  1  0  0  0  0
  6  5  2  0  0  0  0
  7  8  2  0  0  0  0
  7  6  1  0  0  0  0
  8  9  1  0  0  0  0
  9 10  2  0  0  0  0
 11  6  1  0  0  0  0
 12  7  1  0  0  0  0
 13  8  1  0  0  0  0
 14 20  1  6  0  0  0
 14 19  1  0  0  0  0
 15  9  1  1  0  0  0
 15 14  1  0  0  0  0
 16 15  1  0  0  0  0
 16 17  1  0  0  0  0
 17 18  1  0  0  0  0
 18 22  1  1  0  0  0
 19 18  1  0  0  0  0
 19 24  1  1  0  0  0
 20 21  1  0  0  0  0
 23 22  1  0  0  0  0
 24 25  1  0  0  0  0
 26 28  1  0  0  0  0
 26 29  1  0  0  0  0
 27 26  1  0  0  0  0
 29 31  1  0  0  0  0
 29 30  1  0  0  0  0
 32 33  1  0  0  0  0
 33 34  2  0  0  0  0
 33 38  1  0  0  0  0
 34 29  1  0  0  0  0
 35 34  1  0  0  0  0
 36 35  2  0  0  0  0
 37 36  1  0  0  0  0
 37 32  2  0  0  0  0
 39 36  1  0  0  0  0
 40 32  1  0  0  0  0
 40 43  1  0  0  0  0
 41 45  1  0  0  0  0
 41 42  1  0  0  0  0
 41 40  1  0  0  0  0
 42 47  1  0  0  0  0
 42 40  1  0  0  0  0
 44 41  1  0  0  0  0
 46 42  1  0  0  0  0
M  END
>  <minimizedAffinity>
-6.39040756

$$$$
