
     RDKit          3D

 34 35  0  0  0  0  0  0  0  0999 V2000
   44.6943   35.5180   43.6081 C   0  0  0  0  0  0  0  0  0  0  0  0
   43.9340   35.4466   42.4011 C   0  0  0  0  0  0  0  0  0  0  0  0
   43.7823   34.1718   41.8293 C   0  0  0  0  0  0  0  0  0  0  0  0
   44.3547   33.0913   42.4403 N   0  0  0  0  0  0  0  0  0  0  0  0
   45.0726   33.2158   43.5948 C   0  0  0  0  0  0  0  0  0  0  0  0
   45.2261   34.4354   44.1550 N   0  0  0  0  0  0  0  0  0  0  0  0
   44.8576   36.8303   44.2145 C   0  0  0  0  0  0  0  0  0  0  0  0
   45.2347   37.8434   43.4656 C   0  0  0  0  0  0  0  0  0  0  0  0
   45.4247   39.2135   43.9773 C   0  0  0  0  0  0  0  0  0  0  0  0
   43.5272   36.3554   42.0040 H   0  0  0  0  0  0  0  0  0  0  0  0
   43.2150   34.0992   40.9236 H   0  0  0  0  0  0  0  0  0  0  0  0
   44.6742   36.9986   45.2831 H   0  0  0  0  0  0  0  0  0  0  0  0
   45.4118   37.6503   42.4034 H   0  0  0  0  0  0  0  0  0  0  0  0
   44.4215   39.7221   43.9293 H   0  0  0  0  0  0  0  0  0  0  0  0
   46.0769   39.8010   43.3260 H   0  0  0  0  0  0  0  0  0  0  0  0
   45.7079   39.2383   45.0394 H   0  0  0  0  0  0  0  0  0  0  0  0
   46.7609   30.9505   42.3544 O   0  0  0  0  0  0  0  0  0  0  0  0
   45.7139   30.8628   43.2674 C   0  0  2  0  0  0  0  0  0  0  0  0
   45.6770   32.0331   44.2288 C   0  0  1  0  0  0  0  0  0  0  0  0
   46.9936   32.2393   44.6429 O   0  0  0  0  0  0  0  0  0  0  0  0
   47.3209   31.2001   45.5111 C   0  0  0  0  0  0  0  0  0  0  0  0
   47.2610   29.8407   44.8656 C   0  0  1  0  0  0  0  0  0  0  0  0
   47.2852   28.8910   45.8981 O   0  0  0  0  0  0  0  0  0  0  0  0
   45.9643   29.6213   44.1132 C   0  0  2  0  0  0  0  0  0  0  0  0
   46.1124   28.5422   43.2395 O   0  0  0  0  0  0  0  0  0  0  0  0
   46.6114   31.6218   41.6428 H   0  0  0  0  0  0  0  0  0  0  0  0
   44.7754   30.8346   42.7158 H   0  0  0  0  0  0  0  0  0  0  0  0
   45.0756   31.7221   45.0975 H   0  0  0  0  0  0  0  0  0  0  0  0
   48.3850   31.3371   45.8449 H   0  0  0  0  0  0  0  0  0  0  0  0
   46.6158   31.2738   46.3641 H   0  0  0  0  0  0  0  0  0  0  0  0
   48.0754   29.7304   44.1469 H   0  0  0  0  0  0  0  0  0  0  0  0
   48.2429   28.7699   46.1287 H   0  0  0  0  0  0  0  0  0  0  0  0
   45.1009   29.4309   44.8042 H   0  0  0  0  0  0  0  0  0  0  0  0
   45.2523   28.0586   43.1279 H   0  0  0  0  0  0  0  0  0  0  0  0
  1  6  2  0
  1  7  1  0
  2  1  1  0
  3  2  2  0
  3  4  1  0
  4  5  2  0
  5  6  1  0
  8  9  1  0
  8  7  2  0
  2 10  1  0
  3 11  1  0
  7 12  1  0
  8 13  1  0
  9 14  1  0
  9 15  1  0
  9 16  1  0
 17 18  1  0
 18 19  1  0
 19 20  1  0
 20 21  1  0
 21 22  1  0
 22 23  1  0
 22 24  1  0
 24 25  1  0
 24 18  1  0
 17 26  1  0
 18 27  1  6
 19 28  1  1
 21 29  1  0
 21 30  1  0
 22 31  1  6
 23 32  1  0
 24 33  1  1
 25 34  1  0
  5 19  1  0
M  ISO  5  10  14  11  14  14   8  15   8  16   8
M  END
>  <DihAtoms>  (1) 
3,4,18,17

>  <DihDeg>  (1) 
105.57629265415233

$$$$
