
 OpenBabel03252506223D

 38 40  0  0  1  0  0  0  0  0999 V2000
   45.1280   35.7940   42.8950 C   0  0  0  0  0  0  0  0  0  0  0  0
   44.1670   35.5530   41.9110 C   0  0  0  0  0  0  0  0  0  0  0  0
   44.4500   34.5600   40.9580 C   0  0  0  0  0  0  0  0  0  0  0  0
   45.6290   33.8940   41.0390 N   0  0  0  0  0  0  0  0  0  0  0  0
   46.5250   34.1630   42.0070 C   0  0  0  0  0  0  0  0  0  0  0  0
   46.2880   35.1080   42.9390 N   0  0  0  0  0  0  0  0  0  0  0  0
   43.2380   36.1160   41.8910 H   0  0  0  0  0  0  0  0  0  0  0  0
   43.7210   34.3520   40.1830 H   0  0  0  0  0  0  0  0  0  0  0  0
   49.0220   35.7380   41.3200 Cl  0  0  0  0  0  0  0  0  0  0  0  0
   48.9650   34.0540   41.7070 C   0  0  0  0  0  0  0  0  0  0  0  0
   47.7860   33.3830   42.0150 C   0  0  0  0  0  0  0  0  0  0  0  0
   47.7220   32.0550   42.3220 C   0  0  0  0  0  0  0  0  0  0  0  0
   48.8900   31.3480   42.3260 C   0  0  0  0  0  0  0  0  0  0  0  0
   50.1160   31.9010   42.0400 C   0  0  0  0  0  0  0  0  0  0  0  0
   50.0970   33.2560   41.7360 C   0  0  0  0  0  0  0  0  0  0  0  0
   46.7770   31.5550   42.5610 H   0  0  0  0  0  0  0  0  0  0  0  0
   48.8560   30.2930   42.5690 H   0  0  0  0  0  0  0  0  0  0  0  0
   51.0680   31.3690   42.0330 H   0  0  0  0  0  0  0  0  0  0  0  0
   51.0510   33.7190   41.5060 H   0  0  0  0  0  0  0  0  0  0  0  0
   44.8610   36.8290   43.9100 C   0  0  0  0  0  3  0  0  0  0  0  0
   45.4490   37.9970   43.7730 C   0  0  0  0  0  3  0  0  0  0  0  0
   45.1950   39.0560   44.7850 C   0  0  0  0  0  0  0  0  0  0  0  0
   46.1470   39.2660   45.3550 H   0  0  0  0  0  0  0  0  0  0  0  0
   44.3880   38.7940   45.4740 H   0  0  0  0  0  0  0  0  0  0  0  0
   44.9040   40.2930   44.0600 N   0  0  0  0  0  0  0  0  0  0  0  0
   45.6580   40.5040   43.3740 H   0  0  0  0  0  0  0  0  0  0  0  0
   43.9900   42.4960   44.6420 C   0  0  2  0  0  3  0  0  0  0  0  0
   44.8900   41.3390   45.0650 C   0  0  1  0  0  3  0  0  0  0  0  0
   44.4370   40.8920   46.2900 O   0  0  0  0  0  0  0  0  0  0  0  0
   44.7520   41.8500   47.2400 C   0  0  0  0  0  2  0  0  0  0  0  0
   44.0090   43.1540   46.9970 C   0  0  1  0  0  3  0  0  0  0  0  0
   44.3010   43.6400   45.5950 C   0  0  1  0  0  3  0  0  0  0  0  0
   42.6470   42.2020   44.7360 O   0  0  0  0  0  0  0  0  0  0  0  0
   42.2560   41.7770   43.9340 H   0  0  0  0  0  0  0  0  0  0  0  0
   42.6560   42.9240   47.1130 O   0  0  0  0  0  0  0  0  0  0  0  0
   42.4070   41.9710   47.0580 H   0  0  0  0  0  0  0  0  0  0  0  0
   45.6850   43.8860   45.4660 O   0  0  0  0  0  0  0  0  0  0  0  0
   46.0880   44.2010   46.3150 H   0  0  0  0  0  0  0  0  0  0  0  0
  1  6  1  0  0  0  0
  1 20  1  0  0  0  0
  2  1  2  0  0  0  0
  3  4  2  0  0  0  0
  3  2  1  0  0  0  0
  4  5  1  0  0  0  0
  5 11  1  0  0  0  0
  5  6  2  0  0  0  0
  7  2  1  0  0  0  0
  8  3  1  0  0  0  0
  9 10  1  0  0  0  0
 10 15  2  0  0  0  0
 10 11  1  0  0  0  0
 11 12  2  0  0  0  0
 12 13  1  0  0  0  0
 12 16  1  0  0  0  0
 13 17  1  0  0  0  0
 14 13  2  0  0  0  0
 15 14  1  0  0  0  0
 18 14  1  0  0  0  0
 19 15  1  0  0  0  0
 21 20  2  0  0  0  0
 21 22  1  0  0  0  0
 22 23  1  0  0  0  0
 22 24  1  0  0  0  0
 25 22  1  0  0  0  0
 26 25  1  0  0  0  0
 27 33  1  1  0  0  0
 27 28  1  0  0  0  0
 27 32  1  0  0  0  0
 28 25  1  6  0  0  0
 28 29  1  0  0  0  0
 29 30  1  0  0  0  0
 31 35  1  6  0  0  0
 31 30  1  0  0  0  0
 32 37  1  1  0  0  0
 32 31  1  0  0  0  0
 34 33  1  0  0  0  0
 36 35  1  0  0  0  0
 37 38  1  0  0  0  0
M  END
>  <minimizedAffinity>
-2.08451176

>  <minimizedRMSD>
0.425907373

$$$$
