
 OpenBabel03242518433D

 22 23  0  0  1  0  0  0  0  0999 V2000
   45.0200   32.7490   47.5120 C   0  0  1  0  0  0  0  0  0  0  0  0
   46.3110   32.7610   46.7220 C   0  0  1  0  0  0  0  0  0  0  0  0
   46.8590   31.5280   46.5490 O   0  0  0  0  0  0  0  0  0  0  0  0
   46.0500   30.4380   46.7130 C   0  0  0  0  0  0  0  0  0  0  0  0
   45.2420   30.3920   47.9610 C   0  0  2  0  0  0  0  0  0  0  0  0
   45.2430   31.7520   48.6350 C   0  0  1  0  0  0  0  0  0  0  0  0
   44.9270   35.0800   44.2140 C   0  0  0  0  0  0  0  0  0  0  0  0
   45.8950   35.0200   43.1710 C   0  0  0  0  0  0  0  0  0  0  0  0
   47.0000   34.1810   43.3610 C   0  0  0  0  0  0  0  0  0  0  0  0
   47.0880   33.4730   44.5240 N   0  0  0  0  0  0  0  0  0  0  0  0
   46.1460   33.5620   45.4810 C   0  0  0  0  0  0  0  0  0  0  0  0
   45.0700   34.3600   45.3340 N   0  0  0  0  0  0  0  0  0  0  0  0
   45.7960   35.5860   42.2750 H   0  0  0  0  0  0  0  0  0  0  0  0
   47.7730   34.0720   42.6360 H   0  0  0  0  0  0  0  0  0  0  0  0
   43.8590   35.9020   44.0120 O   0  0  0  0  0  0  0  0  0  0  0  0
   43.6880   36.7660   44.5060 H   0  0  0  0  0  0  0  0  0  0  0  0
   44.6940   33.9900   48.0110 O   0  0  0  0  0  0  0  0  0  0  0  0
   43.8650   34.3030   47.5710 H   0  0  0  0  0  0  0  0  0  0  0  0
   45.6540   29.4120   48.8640 O   0  0  0  0  0  0  0  0  0  0  0  0
   44.9830   29.4430   49.5970 H   0  0  0  0  0  0  0  0  0  0  0  0
   46.5300   31.9890   49.1420 O   0  0  0  0  0  0  0  0  0  0  0  0
   46.8630   31.1570   49.5600 H   0  0  0  0  0  0  0  0  0  0  0  0
  1 17  1  1  0  0  0
  1  6  1  0  0  0  0
  2 11  1  6  0  0  0
  2  1  1  0  0  0  0
  3  4  1  0  0  0  0
  3  2  1  0  0  0  0
  4  5  1  0  0  0  0
  5  6  1  0  0  0  0
  5 19  1  1  0  0  0
  6 21  1  6  0  0  0
  7 12  1  0  0  0  0
  8  9  1  0  0  0  0
  8  7  2  0  0  0  0
  9 10  2  0  0  0  0
 10 11  1  0  0  0  0
 12 11  2  0  0  0  0
 13  8  1  0  0  0  0
 14  9  1  0  0  0  0
 15  7  1  0  0  0  0
 15 16  1  0  0  0  0
 18 17  1  0  0  0  0
 19 20  1  0  0  0  0
 21 22  1  0  0  0  0
M  END
>  <minimizedAffinity>
-6.21727324

>  <minimizedRMSD>
1.38566148

$$$$
