
 OpenBabel03252504333D

 43 45  0  0  1  0  0  0  0  0999 V2000
   40.9480   35.1540   41.5850 C   0  0  0  0  0  0  0  0  0  0  0  0
   41.1620   34.8590   42.6500 H   0  0  0  0  0  0  0  0  0  0  0  0
   40.2550   36.0190   41.6620 H   0  0  0  0  0  0  0  0  0  0  0  0
   40.6310   32.7430   41.4910 C   0  0  0  0  0  0  0  0  0  0  0  0
   40.1590   33.9950   41.0590 C   0  0  0  0  0  0  0  0  0  0  0  0
   39.0730   34.0340   40.2540 C   0  0  0  0  0  0  0  0  0  0  0  0
   38.5320   32.8720   39.9310 N   0  0  0  0  0  0  0  0  0  0  0  0
   38.9480   31.6780   40.3190 C   0  0  0  0  0  0  0  0  0  0  0  0
   40.0650   31.5710   41.1510 N   0  0  0  0  0  0  0  0  0  0  0  0
   41.4920   32.6190   42.1350 H   0  0  0  0  0  0  0  0  0  0  0  0
   38.7460   35.0160   39.9470 H   0  0  0  0  0  0  0  0  0  0  0  0
   37.1980   30.0460   40.8310 C   0  0  1  0  0  3  0  0  0  0  0  0
   38.2970   30.3960   39.9230 C   0  0  2  0  0  3  0  0  0  0  0  0
   39.2970   29.4840   39.7380 O   0  0  0  0  0  0  0  0  0  0  0  0
   39.0500   28.1980   40.1260 C   0  0  0  0  0  2  0  0  0  0  0  0
   38.8160   28.3050   41.6400 C   0  0  1  0  0  3  0  0  0  0  0  0
   37.4160   28.8680   41.7350 C   0  0  1  0  0  3  0  0  0  0  0  0
   36.7930   31.1130   41.6650 O   0  0  0  0  0  0  0  0  0  0  0  0
   37.1230   31.0090   42.5760 H   0  0  0  0  0  0  0  0  0  0  0  0
   38.8840   27.0320   42.1530 O   0  0  0  0  0  0  0  0  0  0  0  0
   39.5680   26.5080   41.6460 H   0  0  0  0  0  0  0  0  0  0  0  0
   37.1880   29.1530   43.0820 O   0  0  0  0  0  0  0  0  0  0  0  0
   36.4850   28.5840   43.4830 H   0  0  0  0  0  0  0  0  0  0  0  0
   42.0080   35.4940   40.8070 O   0  0  0  0  0  0  0  0  0  0  0  0
   43.3580   35.4420   41.1270 C   0  0  0  0  0  3  0  0  0  0  0  0
   43.6570   35.5190   42.4200 C   0  0  0  0  0  3  0  0  0  0  0  0
   45.0550   35.4810   43.0100 C   0  0  0  0  0  0  0  0  0  0  0  0
   45.7300   34.9740   42.2920 H   0  0  0  0  0  0  0  0  0  0  0  0
   45.4350   36.4960   43.2220 H   0  0  0  0  0  0  0  0  0  0  0  0
   44.9880   34.7340   44.1700 O   0  0  0  0  0  0  0  0  0  0  0  0
   45.7240   32.5640   42.8170 O   0  0  0  0  0  0  0  0  0  0  0  0
   45.9750   33.3710   44.0710 P   0  0  1  0  0  0  0  0  0  0  0  0
   47.6160   33.8360   44.0390 O   0  0  0  0  0  0  0  0  0  0  0  0
   47.6450   34.6400   44.6500 H   0  0  0  0  0  0  0  0  0  0  0  0
   45.7660   32.4020   45.4360 O   0  0  0  0  0  0  0  0  0  0  0  0
   46.1050   33.0560   46.6030 C   0  0  0  0  0  0  0  0  0  0  0  0
   47.0380   32.3840   47.5640 C   0  0  0  0  0  0  0  0  0  0  0  0
   45.5500   32.4560   47.8710 C   0  0  0  0  0  0  0  0  0  0  0  0
   46.1120   34.1600   46.5410 H   0  0  0  0  0  0  0  0  0  0  0  0
   47.4540   31.4170   47.2080 H   0  0  0  0  0  0  0  0  0  0  0  0
   47.6720   33.0690   48.1610 H   0  0  0  0  0  0  0  0  0  0  0  0
   45.2050   33.1220   48.6860 H   0  0  0  0  0  0  0  0  0  0  0  0
   45.0450   31.4690   47.8240 H   0  0  0  0  0  0  0  0  0  0  0  0
  1  3  1  0  0  0  0
  1  2  1  0  0  0  0
  4 10  1  0  0  0  0
  5  4  2  0  0  0  0
  5  1  1  0  0  0  0
  6  5  1  0  0  0  0
  7  6  2  0  0  0  0
  7  8  1  0  0  0  0
  8  9  2  0  0  0  0
  9  4  1  0  0  0  0
 11  6  1  0  0  0  0
 12 18  1  1  0  0  0
 12 17  1  0  0  0  0
 13  8  1  1  0  0  0
 13 12  1  0  0  0  0
 14 13  1  0  0  0  0
 14 15  1  0  0  0  0
 15 16  1  0  0  0  0
 16 17  1  0  0  0  0
 16 20  1  1  0  0  0
 17 22  1  1  0  0  0
 18 19  1  0  0  0  0
 21 20  1  0  0  0  0
 22 23  1  0  0  0  0
 24 25  1  0  0  0  0
 24  1  1  0  0  0  0
 25 26  2  0  0  0  0
 26 27  1  0  0  0  0
 27 29  1  0  0  0  0
 27 30  1  0  0  0  0
 28 27  1  0  0  0  0
 32 31  2  6  0  0  0
 32 30  1  0  0  0  0
 32 35  1  0  0  0  0
 33 32  1  0  0  0  0
 33 34  1  0  0  0  0
 35 36  1  0  0  0  0
 36 37  1  0  0  0  0
 36 38  1  0  0  0  0
 37 38  1  0  0  0  0
 37 41  1  0  0  0  0
 38 42  1  0  0  0  0
 39 36  1  0  0  0  0
 40 37  1  0  0  0  0
 43 38  1  0  0  0  0
M  END
>  <minimizedAffinity>
-5.87702084

>  <minimizedRMSD>
1.07310939

$$$$
