
 OpenBabel03242523253D

 46 49  0  0  1  0  0  0  0  0999 V2000
   36.6810   27.7600   40.2780 C   0  0  0  0  0  0  0  0  0  0  0  0
   36.3540   28.8590   39.6050 C   0  0  0  0  0  0  0  0  0  0  0  0
   36.5160   28.7750   38.2560 C   0  0  0  0  0  0  0  0  0  0  0  0
   36.9980   27.5770   37.7050 N   0  0  0  0  0  0  0  0  0  0  0  0
   37.3040   26.5240   38.4300 C   0  0  0  0  0  0  0  0  0  0  0  0
   37.1540   26.5720   39.7930 N   0  0  0  0  0  0  0  0  0  0  0  0
   36.3660   29.4590   37.4420 H   0  0  0  0  0  0  0  0  0  0  0  0
   37.6790   25.6190   37.9180 H   0  0  0  0  0  0  0  0  0  0  0  0
   35.9720   30.1210   40.1380 C   0  0  1  0  0  0  0  0  0  0  0  0
   36.3230   30.7020   41.3120 C   0  0  0  0  0  0  0  0  0  0  0  0
   36.9630   31.3040   40.1000 C   0  0  1  0  0  0  0  0  0  0  0  0
   34.9140   30.3890   39.8240 H   0  0  0  0  0  0  0  0  0  0  0  0
   35.7330   31.4700   41.8980 H   0  0  0  0  0  0  0  0  0  0  0  0
   36.9820   30.1750   42.0390 H   0  0  0  0  0  0  0  0  0  0  0  0
   36.4910   32.2420   39.6760 H   0  0  0  0  0  0  0  0  0  0  0  0
   38.8990   32.2740   39.0510 C   0  0  1  0  0  3  0  0  0  0  0  0
   38.4190   31.1710   40.0290 C   0  0  1  0  0  3  0  0  0  0  0  0
   39.0040   31.6160   41.2490 O   0  0  0  0  0  0  0  0  0  0  0  0
   40.3190   31.9780   41.1120 C   0  0  0  0  0  2  0  0  0  0  0  0
   40.3490   33.4190   40.6190 C   0  0  2  0  0  3  0  0  0  0  0  0
   39.0650   33.5760   39.7980 C   0  0  2  0  0  3  0  0  0  0  0  0
   40.0930   31.9170   38.4680 O   0  0  0  0  0  0  0  0  0  0  0  0
   39.9280   31.6420   37.5230 H   0  0  0  0  0  0  0  0  0  0  0  0
   41.4860   33.6780   39.8800 O   0  0  0  0  0  0  0  0  0  0  0  0
   41.9450   32.8600   39.5590 H   0  0  0  0  0  0  0  0  0  0  0  0
   38.0520   33.7540   40.7280 O   0  0  0  0  0  0  0  0  0  0  0  0
   37.6090   34.6240   40.7050 H   0  0  0  0  0  0  0  0  0  0  0  0
   36.5460   27.5490   41.7340 C   0  0  0  0  0  0  0  0  0  0  0  0
   36.0630   27.7490   42.8140 O   0  0  0  0  0  0  0  0  0  0  0  0
   39.2930   28.4670   42.8030 Cl  0  0  0  0  0  0  0  0  0  0  0  0
   38.8540   26.7760   42.6480 C   0  0  0  0  0  0  0  0  0  0  0  0
   37.5500   26.5170   42.1530 C   0  0  0  0  0  0  0  0  0  0  0  0
   37.3230   25.1630   42.0870 C   0  0  0  0  0  0  0  0  0  0  0  0
   38.1030   24.1360   42.3970 C   0  0  0  0  0  0  0  0  0  0  0  0
   39.3550   24.4590   42.8700 C   0  0  0  0  0  0  0  0  0  0  0  0
   39.7400   25.7630   43.0000 C   0  0  0  0  0  0  0  0  0  0  0  0
   36.3180   24.8210   41.7440 H   0  0  0  0  0  0  0  0  0  0  0  0
   37.8350   23.0830   42.3080 H   0  0  0  0  0  0  0  0  0  0  0  0
   40.0360   23.6320   43.1390 H   0  0  0  0  0  0  0  0  0  0  0  0
   41.0020   25.9540   43.4840 O   0  0  0  0  0  0  0  0  0  0  0  0
   42.2800   25.2110   41.3190 O   0  0  0  0  0  0  0  0  0  0  0  0
   42.4990   25.7100   42.7280 P   0  0  0  0  0  0  0  0  0  0  0  0
   43.3740   27.1670   42.7340 O   0  0  0  0  0  0  0  0  0  0  0  0
   43.8770   27.2850   43.5700 H   0  0  0  0  0  0  0  0  0  0  0  0
   43.4570   24.6080   43.5820 O   0  0  0  0  0  0  0  0  0  0  0  0
   42.9820   24.2120   44.3360 H   0  0  0  0  0  0  0  0  0  0  0  0
  1 28  1  0  0  0  0
  2  9  1  0  0  0  0
  2  1  2  0  0  0  0
  3  2  1  0  0  0  0
  4  3  2  0  0  0  0
  4  5  1  0  0  0  0
  5  6  2  0  0  0  0
  6  1  1  0  0  0  0
  7  3  1  0  0  0  0
  8  5  1  0  0  0  0
  9 12  1  6  0  0  0
  9 10  1  0  0  0  0
 10 13  1  0  0  0  0
 10 14  1  0  0  0  0
 11 15  1  6  0  0  0
 11  9  1  0  0  0  0
 11 10  1  0  0  0  0
 16 22  1  1  0  0  0
 16 21  1  0  0  0  0
 16 17  1  0  0  0  0
 17 11  1  0  0  0  0
 17 18  1  1  0  0  0
 19 18  1  0  0  0  0
 20 24  1  6  0  0  0
 20 19  1  0  0  0  0
 21 20  1  0  0  0  0
 21 26  1  1  0  0  0
 23 22  1  0  0  0  0
 25 24  1  0  0  0  0
 27 26  1  0  0  0  0
 28 32  1  0  0  0  0
 28 29  2  0  0  0  0
 31 30  1  0  0  0  0
 31 36  1  0  0  0  0
 32 31  2  0  0  0  0
 33 32  1  0  0  0  0
 33 34  2  0  0  0  0
 34 35  1  0  0  0  0
 35 36  2  0  0  0  0
 35 39  1  0  0  0  0
 36 40  1  0  0  0  0
 37 33  1  0  0  0  0
 38 34  1  0  0  0  0
 41 42  2  0  0  0  0
 42 43  1  0  0  0  0
 42 40  1  0  0  0  0
 42 45  1  0  0  0  0
 43 44  1  0  0  0  0
 45 46  1  0  0  0  0
M  END
>  <minimizedAffinity>
-7.04425573

$$$$

 OpenBabel03242523253D

 46 49  0  0  1  0  0  0  0  0999 V2000
   37.6600   30.0900   41.6640 C   0  0  0  0  0  0  0  0  0  0  0  0
   36.9810   28.9730   41.9080 C   0  0  0  0  0  0  0  0  0  0  0  0
   35.8380   28.8260   41.1840 C   0  0  0  0  0  0  0  0  0  0  0  0
   35.4820   29.8310   40.2700 N   0  0  0  0  0  0  0  0  0  0  0  0
   36.2010   30.9140   40.0770 C   0  0  0  0  0  0  0  0  0  0  0  0
   37.3590   31.0970   40.7890 N   0  0  0  0  0  0  0  0  0  0  0  0
   35.0720   28.0760   41.1430 H   0  0  0  0  0  0  0  0  0  0  0  0
   35.8490   31.6590   39.3380 H   0  0  0  0  0  0  0  0  0  0  0  0
   37.2530   27.9940   42.9030 C   0  0  1  0  0  0  0  0  0  0  0  0
   36.5630   26.8700   43.2170 C   0  0  0  0  0  0  0  0  0  0  0  0
   37.8530   26.6310   42.4960 C   0  0  1  0  0  0  0  0  0  0  0  0
   37.7440   28.4660   43.8130 H   0  0  0  0  0  0  0  0  0  0  0  0
   36.5380   26.3400   44.2170 H   0  0  0  0  0  0  0  0  0  0  0  0
   35.6180   26.6100   42.6880 H   0  0  0  0  0  0  0  0  0  0  0  0
   38.7550   26.3580   43.1250 H   0  0  0  0  0  0  0  0  0  0  0  0
   39.0820   25.3270   40.8910 C   0  0  1  0  0  3  0  0  0  0  0  0
   37.7270   26.0260   41.1700 C   0  0  1  0  0  3  0  0  0  0  0  0
   36.8500   24.9050   41.2320 O   0  0  0  0  0  0  0  0  0  0  0  0
   37.0410   24.0180   40.2040 C   0  0  0  0  0  2  0  0  0  0  0  0
   38.1840   23.0940   40.6020 C   0  0  2  0  0  3  0  0  0  0  0  0
   39.0770   23.9480   41.5080 C   0  0  2  0  0  3  0  0  0  0  0  0
   39.3060   25.2290   39.5370 O   0  0  0  0  0  0  0  0  0  0  0  0
   39.9970   25.8980   39.2690 H   0  0  0  0  0  0  0  0  0  0  0  0
   38.8570   22.6150   39.4950 O   0  0  0  0  0  0  0  0  0  0  0  0
   38.6860   23.1380   38.6700 H   0  0  0  0  0  0  0  0  0  0  0  0
   38.4490   23.9540   42.7450 O   0  0  0  0  0  0  0  0  0  0  0  0
   38.9410   23.5190   43.4680 H   0  0  0  0  0  0  0  0  0  0  0  0
   38.9580   30.4760   42.2540 C   0  0  0  0  0  0  0  0  0  0  0  0
   39.6670   30.8840   43.1330 O   0  0  0  0  0  0  0  0  0  0  0  0
   40.1290   32.9110   40.7590 Cl  0  0  0  0  0  0  0  0  0  0  0  0
   40.6500   31.2660   40.4440 C   0  0  0  0  0  0  0  0  0  0  0  0
   40.0250   30.2580   41.2230 C   0  0  0  0  0  0  0  0  0  0  0  0
   40.5220   29.0200   40.8910 C   0  0  0  0  0  0  0  0  0  0  0  0
   41.4390   28.6620   40.0020 C   0  0  0  0  0  0  0  0  0  0  0  0
   42.0040   29.6910   39.2800 C   0  0  0  0  0  0  0  0  0  0  0  0
   41.6220   30.9850   39.4900 C   0  0  0  0  0  0  0  0  0  0  0  0
   40.1380   28.1390   41.4560 H   0  0  0  0  0  0  0  0  0  0  0  0
   41.7710   27.6430   39.8050 H   0  0  0  0  0  0  0  0  0  0  0  0
   42.7710   29.4340   38.5290 H   0  0  0  0  0  0  0  0  0  0  0  0
   42.2570   31.9130   38.7160 O   0  0  0  0  0  0  0  0  0  0  0  0
   42.6860   31.3470   36.1930 O   0  0  0  0  0  0  0  0  0  0  0  0
   41.9910   32.3380   37.0970 P   0  0  0  0  0  0  0  0  0  0  0  0
   40.3190   32.3750   36.7950 O   0  0  0  0  0  0  0  0  0  0  0  0
   39.9270   33.2460   37.0310 H   0  0  0  0  0  0  0  0  0  0  0  0
   42.5430   33.9010   36.7630 O   0  0  0  0  0  0  0  0  0  0  0  0
   43.0050   34.3000   37.5230 H   0  0  0  0  0  0  0  0  0  0  0  0
  1  2  1  0  0  0  0
  1 28  1  0  0  0  0
  2  9  1  0  0  0  0
  3  2  2  0  0  0  0
  4  3  1  0  0  0  0
  5  4  2  0  0  0  0
  5  6  1  0  0  0  0
  6  1  2  0  0  0  0
  7  3  1  0  0  0  0
  8  5  1  0  0  0  0
  9 10  1  0  0  0  0
  9 12  1  1  0  0  0
 10 13  1  0  0  0  0
 11  9  1  0  0  0  0
 11 15  1  1  0  0  0
 11 10  1  0  0  0  0
 14 10  1  0  0  0  0
 16 22  1  6  0  0  0
 16 17  1  0  0  0  0
 16 21  1  0  0  0  0
 17 18  1  1  0  0  0
 17 11  1  0  0  0  0
 19 20  1  0  0  0  0
 19 18  1  0  0  0  0
 20 24  1  6  0  0  0
 20 21  1  0  0  0  0
 21 26  1  1  0  0  0
 23 22  1  0  0  0  0
 25 24  1  0  0  0  0
 26 27  1  0  0  0  0
 28 29  2  0  0  0  0
 31 30  1  0  0  0  0
 31 32  1  0  0  0  0
 32 28  1  0  0  0  0
 33 32  2  0  0  0  0
 33 37  1  0  0  0  0
 34 33  1  0  0  0  0
 35 36  1  0  0  0  0
 35 34  2  0  0  0  0
 36 31  2  0  0  0  0
 38 34  1  0  0  0  0
 39 35  1  0  0  0  0
 40 36  1  0  0  0  0
 41 42  2  0  0  0  0
 42 40  1  0  0  0  0
 43 44  1  0  0  0  0
 43 42  1  0  0  0  0
 45 42  1  0  0  0  0
 45 46  1  0  0  0  0
M  END
>  <minimizedAffinity>
-6.82264471

$$$$

 OpenBabel03242523253D

 46 49  0  0  1  0  0  0  0  0999 V2000
   38.7320   27.3760   42.7040 C   0  0  0  0  0  0  0  0  0  0  0  0
   39.4900   28.4660   42.6280 C   0  0  0  0  0  0  0  0  0  0  0  0
   40.8280   28.2290   42.5560 C   0  0  0  0  0  0  0  0  0  0  0  0
   41.2830   26.9010   42.5680 N   0  0  0  0  0  0  0  0  0  0  0  0
   40.4770   25.8660   42.6460 C   0  0  0  0  0  0  0  0  0  0  0  0
   39.1210   26.0650   42.7200 N   0  0  0  0  0  0  0  0  0  0  0  0
   41.6950   28.8590   42.5000 H   0  0  0  0  0  0  0  0  0  0  0  0
   40.9160   24.8510   42.6510 H   0  0  0  0  0  0  0  0  0  0  0  0
   39.0710   29.8210   42.7270 C   0  0  1  0  0  0  0  0  0  0  0  0
   39.8110   30.9560   42.6840 C   0  0  0  0  0  0  0  0  0  0  0  0
   38.9930   30.6950   41.4570 C   0  0  1  0  0  0  0  0  0  0  0  0
   38.1730   29.9180   43.4160 H   0  0  0  0  0  0  0  0  0  0  0  0
   39.5570   31.9560   43.1500 H   0  0  0  0  0  0  0  0  0  0  0  0
   40.9190   30.9160   42.5850 H   0  0  0  0  0  0  0  0  0  0  0  0
   38.0000   31.2350   41.3720 H   0  0  0  0  0  0  0  0  0  0  0  0
   38.8380   30.9010   39.0650 C   0  0  1  0  0  3  0  0  0  0  0  0
   39.7570   30.4590   40.2320 C   0  0  1  0  0  3  0  0  0  0  0  0
   40.8080   31.4160   40.1280 O   0  0  0  0  0  0  0  0  0  0  0  0
   41.2530   31.5830   38.8420 C   0  0  0  0  0  2  0  0  0  0  0  0
   40.3290   32.5850   38.1630 C   0  0  2  0  0  3  0  0  0  0  0  0
   38.9730   32.3900   38.8490 C   0  0  2  0  0  3  0  0  0  0  0  0
   39.1690   30.2320   37.9090 O   0  0  0  0  0  0  0  0  0  0  0  0
   38.4790   29.5340   37.7250 H   0  0  0  0  0  0  0  0  0  0  0  0
   40.2680   32.3750   36.7990 O   0  0  0  0  0  0  0  0  0  0  0  0
   40.5910   31.4800   36.5220 H   0  0  0  0  0  0  0  0  0  0  0  0
   39.0700   33.0660   40.0560 O   0  0  0  0  0  0  0  0  0  0  0  0
   38.4760   33.8340   40.1560 H   0  0  0  0  0  0  0  0  0  0  0  0
   37.2550   27.3330   42.7280 C   0  0  0  0  0  0  0  0  0  0  0  0
   36.1890   27.1140   43.2350 O   0  0  0  0  0  0  0  0  0  0  0  0
   37.7870   25.6530   40.1920 Cl  0  0  0  0  0  0  0  0  0  0  0  0
   36.9250   27.1810   40.1540 C   0  0  0  0  0  0  0  0  0  0  0  0
   36.7500   27.8250   41.4060 C   0  0  0  0  0  0  0  0  0  0  0  0
   36.0560   29.0010   41.2450 C   0  0  0  0  0  0  0  0  0  0  0  0
   35.5640   29.5780   40.1570 C   0  0  0  0  0  0  0  0  0  0  0  0
   35.7700   28.8980   38.9770 C   0  0  0  0  0  0  0  0  0  0  0  0
   36.4420   27.7100   38.9610 C   0  0  0  0  0  0  0  0  0  0  0  0
   35.8200   29.5930   42.1610 H   0  0  0  0  0  0  0  0  0  0  0  0
   35.0240   30.5240   40.1270 H   0  0  0  0  0  0  0  0  0  0  0  0
   35.3770   29.3460   38.0470 H   0  0  0  0  0  0  0  0  0  0  0  0
   36.5780   27.1320   37.7320 O   0  0  0  0  0  0  0  0  0  0  0  0
   39.1620   27.1950   37.2980 O   0  0  0  0  0  0  0  0  0  0  0  0
   37.8270   27.2850   36.5960 P   0  0  0  0  0  0  0  0  0  0  0  0
   37.6680   26.0670   35.4220 O   0  0  0  0  0  0  0  0  0  0  0  0
   37.0550   26.3350   34.7020 H   0  0  0  0  0  0  0  0  0  0  0  0
   37.7230   28.7430   35.7470 O   0  0  0  0  0  0  0  0  0  0  0  0
   37.0140   29.3190   36.0870 H   0  0  0  0  0  0  0  0  0  0  0  0
  1  6  1  0  0  0  0
  1 28  1  0  0  0  0
  2  1  2  0  0  0  0
  2  9  1  0  0  0  0
  3  4  2  0  0  0  0
  3  2  1  0  0  0  0
  4  5  1  0  0  0  0
  5  8  1  0  0  0  0
  5  6  2  0  0  0  0
  7  3  1  0  0  0  0
  9 12  1  1  0  0  0
 10  9  1  0  0  0  0
 10 13  1  0  0  0  0
 11 15  1  6  0  0  0
 11 10  1  0  0  0  0
 11  9  1  0  0  0  0
 14 10  1  0  0  0  0
 16 22  1  6  0  0  0
 16 17  1  0  0  0  0
 17 18  1  1  0  0  0
 17 11  1  0  0  0  0
 19 18  1  0  0  0  0
 20 24  1  6  0  0  0
 20 19  1  0  0  0  0
 20 21  1  0  0  0  0
 21 16  1  0  0  0  0
 21 26  1  1  0  0  0
 23 22  1  0  0  0  0
 25 24  1  0  0  0  0
 26 27  1  0  0  0  0
 28 29  2  0  0  0  0
 31 30  1  0  0  0  0
 31 32  1  0  0  0  0
 32 28  1  0  0  0  0
 33 32  2  0  0  0  0
 33 37  1  0  0  0  0
 34 33  1  0  0  0  0
 35 34  2  0  0  0  0
 36 35  1  0  0  0  0
 36 31  2  0  0  0  0
 38 34  1  0  0  0  0
 39 35  1  0  0  0  0
 40 36  1  0  0  0  0
 42 41  2  0  0  0  0
 42 40  1  0  0  0  0
 43 42  1  0  0  0  0
 44 43  1  0  0  0  0
 45 46  1  0  0  0  0
 45 42  1  0  0  0  0
M  END
>  <minimizedAffinity>
-6.62943649

$$$$

 OpenBabel03242523253D

 46 49  0  0  1  0  0  0  0  0999 V2000
   37.1820   28.6970   41.4380 C   0  0  0  0  0  0  0  0  0  0  0  0
   37.4630   27.8630   40.4410 C   0  0  0  0  0  0  0  0  0  0  0  0
   37.5600   26.5530   40.8000 C   0  0  0  0  0  0  0  0  0  0  0  0
   37.3640   26.2030   42.1450 N   0  0  0  0  0  0  0  0  0  0  0  0
   37.0900   27.0820   43.0840 C   0  0  0  0  0  0  0  0  0  0  0  0
   36.9840   28.4110   42.7590 N   0  0  0  0  0  0  0  0  0  0  0  0
   37.7800   25.6480   40.2670 H   0  0  0  0  0  0  0  0  0  0  0  0
   36.9510   26.7240   44.1210 H   0  0  0  0  0  0  0  0  0  0  0  0
   37.7770   28.1950   39.0950 C   0  0  1  0  0  0  0  0  0  0  0  0
   37.7470   27.4160   37.9860 C   0  0  0  0  0  0  0  0  0  0  0  0
   36.6410   28.4220   38.0740 C   0  0  1  0  0  0  0  0  0  0  0  0
   38.6030   28.9740   39.0520 H   0  0  0  0  0  0  0  0  0  0  0  0
   38.3570   27.5480   37.0410 H   0  0  0  0  0  0  0  0  0  0  0  0
   37.4740   26.3390   38.0480 H   0  0  0  0  0  0  0  0  0  0  0  0
   36.7730   29.3880   37.4980 H   0  0  0  0  0  0  0  0  0  0  0  0
   34.3310   28.9710   37.6910 C   0  0  1  0  0  3  0  0  0  0  0  0
   35.2930   27.8630   38.1870 C   0  0  1  0  0  3  0  0  0  0  0  0
   35.1000   26.8660   37.1870 O   0  0  0  0  0  0  0  0  0  0  0  0
   33.7770   26.6420   36.9050 C   0  0  0  0  0  2  0  0  0  0  0  0
   33.3410   27.6890   35.8880 C   0  0  2  0  0  3  0  0  0  0  0  0
   34.2190   28.9090   36.1860 C   0  0  2  0  0  3  0  0  0  0  0  0
   33.0850   28.8190   38.2560 O   0  0  0  0  0  0  0  0  0  0  0  0
   32.9580   29.5130   38.9620 H   0  0  0  0  0  0  0  0  0  0  0  0
   31.9920   27.9670   35.9940 O   0  0  0  0  0  0  0  0  0  0  0  0
   31.5930   27.6730   36.8530 H   0  0  0  0  0  0  0  0  0  0  0  0
   35.4460   28.6320   35.6010 O   0  0  0  0  0  0  0  0  0  0  0  0
   35.7030   29.2190   34.8660 H   0  0  0  0  0  0  0  0  0  0  0  0
   36.9570   30.1530   41.3270 C   0  0  0  0  0  0  0  0  0  0  0  0
   36.2750   31.1400   41.2760 O   0  0  0  0  0  0  0  0  0  0  0  0
   37.5610   31.8750   38.8360 Cl  0  0  0  0  0  0  0  0  0  0  0  0
   38.7250   31.6340   40.1260 C   0  0  0  0  0  0  0  0  0  0  0  0
   38.2910   30.8260   41.2090 C   0  0  0  0  0  0  0  0  0  0  0  0
   39.2840   30.7210   42.1550 C   0  0  0  0  0  0  0  0  0  0  0  0
   40.5070   31.2310   42.1910 C   0  0  0  0  0  0  0  0  0  0  0  0
   40.8630   32.0040   41.1070 C   0  0  0  0  0  0  0  0  0  0  0  0
   39.9900   32.2120   40.0790 C   0  0  0  0  0  0  0  0  0  0  0  0
   39.0600   30.1380   43.0790 H   0  0  0  0  0  0  0  0  0  0  0  0
   41.2330   31.0890   42.9910 H   0  0  0  0  0  0  0  0  0  0  0  0
   41.8750   32.4470   41.0980 H   0  0  0  0  0  0  0  0  0  0  0  0
   40.4570   32.9990   39.0660 O   0  0  0  0  0  0  0  0  0  0  0  0
   41.9190   31.3050   37.6990 O   0  0  0  0  0  0  0  0  0  0  0  0
   41.0870   32.5570   37.5550 P   0  0  0  0  0  0  0  0  0  0  0  0
   39.8060   32.3210   36.4620 O   0  0  0  0  0  0  0  0  0  0  0  0
   39.5290   33.1640   36.0390 H   0  0  0  0  0  0  0  0  0  0  0  0
   42.0260   33.7940   36.8850 O   0  0  0  0  0  0  0  0  0  0  0  0
   42.1370   34.5460   37.4960 H   0  0  0  0  0  0  0  0  0  0  0  0
  1  6  1  0  0  0  0
  2  3  1  0  0  0  0
  2  1  2  0  0  0  0
  3  4  2  0  0  0  0
  4  5  1  0  0  0  0
  5  8  1  0  0  0  0
  6  5  2  0  0  0  0
  7  3  1  0  0  0  0
  9 12  1  6  0  0  0
  9  2  1  0  0  0  0
 10 14  1  0  0  0  0
 10 11  1  0  0  0  0
 10  9  1  0  0  0  0
 11 15  1  6  0  0  0
 11 17  1  0  0  0  0
 11  9  1  0  0  0  0
 13 10  1  0  0  0  0
 16 17  1  0  0  0  0
 16 22  1  1  0  0  0
 17 18  1  6  0  0  0
 19 18  1  0  0  0  0
 20 24  1  1  0  0  0
 20 21  1  0  0  0  0
 20 19  1  0  0  0  0
 21 26  1  6  0  0  0
 21 16  1  0  0  0  0
 22 23  1  0  0  0  0
 24 25  1  0  0  0  0
 27 26  1  0  0  0  0
 28  1  1  0  0  0  0
 29 28  2  0  0  0  0
 30 31  1  0  0  0  0
 31 32  1  0  0  0  0
 32 28  1  0  0  0  0
 32 33  2  0  0  0  0
 33 34  1  0  0  0  0
 33 37  1  0  0  0  0
 34 38  1  0  0  0  0
 35 34  2  0  0  0  0
 36 31  2  0  0  0  0
 36 35  1  0  0  0  0
 39 35  1  0  0  0  0
 40 36  1  0  0  0  0
 42 41  2  0  0  0  0
 42 40  1  0  0  0  0
 43 42  1  0  0  0  0
 44 43  1  0  0  0  0
 45 46  1  0  0  0  0
 45 42  1  0  0  0  0
M  END
>  <minimizedAffinity>
-6.61211967

$$$$

 OpenBabel03242523253D

 46 49  0  0  1  0  0  0  0  0999 V2000
   38.9170   25.3080   42.1900 C   0  0  0  0  0  0  0  0  0  0  0  0
   38.6130   26.4140   42.8630 C   0  0  0  0  0  0  0  0  0  0  0  0
   39.6130   26.9010   43.6460 C   0  0  0  0  0  0  0  0  0  0  0  0
   40.8410   26.2210   43.6800 N   0  0  0  0  0  0  0  0  0  0  0  0
   41.0750   25.1280   42.9880 C   0  0  0  0  0  0  0  0  0  0  0  0
   40.0900   24.6070   42.1870 N   0  0  0  0  0  0  0  0  0  0  0  0
   39.6990   27.7400   44.3100 H   0  0  0  0  0  0  0  0  0  0  0  0
   42.0700   24.6510   43.0700 H   0  0  0  0  0  0  0  0  0  0  0  0
   37.3500   27.0620   42.9390 C   0  0  1  0  0  0  0  0  0  0  0  0
   37.0180   28.2360   43.5310 C   0  0  0  0  0  0  0  0  0  0  0  0
   37.0540   28.2780   42.0350 C   0  0  1  0  0  0  0  0  0  0  0  0
   36.5070   26.3020   42.9880 H   0  0  0  0  0  0  0  0  0  0  0  0
   36.0030   28.5360   43.9340 H   0  0  0  0  0  0  0  0  0  0  0  0
   37.7770   28.8340   44.0850 H   0  0  0  0  0  0  0  0  0  0  0  0
   36.0660   28.1740   41.4900 H   0  0  0  0  0  0  0  0  0  0  0  0
   37.5090   29.6170   40.0890 C   0  0  1  0  0  3  0  0  0  0  0  0
   38.0720   29.1560   41.4570 C   0  0  1  0  0  3  0  0  0  0  0  0
   38.1050   30.3900   42.1680 O   0  0  0  0  0  0  0  0  0  0  0  0
   38.6500   31.4140   41.4380 C   0  0  0  0  0  2  0  0  0  0  0  0
   37.5450   31.9930   40.5650 C   0  0  2  0  0  3  0  0  0  0  0  0
   36.6080   30.8130   40.2900 C   0  0  2  0  0  3  0  0  0  0  0  0
   38.5330   29.9460   39.2300 O   0  0  0  0  0  0  0  0  0  0  0  0
   38.6340   29.2230   38.5490 H   0  0  0  0  0  0  0  0  0  0  0  0
   38.0530   32.5490   39.4060 O   0  0  0  0  0  0  0  0  0  0  0  0
   38.9740   32.2500   39.1950 H   0  0  0  0  0  0  0  0  0  0  0  0
   35.8400   30.6770   41.4360 O   0  0  0  0  0  0  0  0  0  0  0  0
   34.8850   30.8480   41.3250 H   0  0  0  0  0  0  0  0  0  0  0  0
   38.0510   24.6030   41.2220 C   0  0  0  0  0  0  0  0  0  0  0  0
   37.1410   23.8850   40.9100 O   0  0  0  0  0  0  0  0  0  0  0  0
   36.2290   26.2300   39.3340 Cl  0  0  0  0  0  0  0  0  0  0  0  0
   37.8120   25.6480   38.8530 C   0  0  0  0  0  0  0  0  0  0  0  0
   38.5330   24.9270   39.8400 C   0  0  0  0  0  0  0  0  0  0  0  0
   39.7560   24.5350   39.3480 C   0  0  0  0  0  0  0  0  0  0  0  0
   40.3150   24.7220   38.1600 C   0  0  0  0  0  0  0  0  0  0  0  0
   39.5590   25.4300   37.2510 C   0  0  0  0  0  0  0  0  0  0  0  0
   38.3190   25.8940   37.5810 C   0  0  0  0  0  0  0  0  0  0  0  0
   40.4400   23.9850   40.0370 H   0  0  0  0  0  0  0  0  0  0  0  0
   41.2990   24.3680   37.8570 H   0  0  0  0  0  0  0  0  0  0  0  0
   39.9890   25.6060   36.2480 H   0  0  0  0  0  0  0  0  0  0  0  0
   37.6720   26.5840   36.5970 O   0  0  0  0  0  0  0  0  0  0  0  0
   36.6460   28.9500   37.0720 O   0  0  0  0  0  0  0  0  0  0  0  0
   37.6940   28.2420   36.2440 P   0  0  0  0  0  0  0  0  0  0  0  0
   39.2450   28.8620   36.5570 O   0  0  0  0  0  0  0  0  0  0  0  0
   39.8450   28.7450   35.7870 H   0  0  0  0  0  0  0  0  0  0  0  0
   37.4180   28.5340   34.6010 O   0  0  0  0  0  0  0  0  0  0  0  0
   37.2060   27.7180   34.1120 H   0  0  0  0  0  0  0  0  0  0  0  0
  1  2  1  0  0  0  0
  2  9  1  0  0  0  0
  2  3  2  0  0  0  0
  3  4  1  0  0  0  0
  3  7  1  0  0  0  0
  5  8  1  0  0  0  0
  5  4  2  0  0  0  0
  6  1  2  0  0  0  0
  6  5  1  0  0  0  0
  9 12  1  1  0  0  0
  9 10  1  0  0  0  0
 10 13  1  0  0  0  0
 10 14  1  0  0  0  0
 11 15  1  6  0  0  0
 11  9  1  0  0  0  0
 11 10  1  0  0  0  0
 16 22  1  6  0  0  0
 16 21  1  0  0  0  0
 16 17  1  0  0  0  0
 17 11  1  0  0  0  0
 17 18  1  1  0  0  0
 19 18  1  0  0  0  0
 20 24  1  6  0  0  0
 20 19  1  0  0  0  0
 21 20  1  0  0  0  0
 21 26  1  1  0  0  0
 23 22  1  0  0  0  0
 25 24  1  0  0  0  0
 27 26  1  0  0  0  0
 28  1  1  0  0  0  0
 29 28  2  0  0  0  0
 31 30  1  0  0  0  0
 31 32  1  0  0  0  0
 32 28  1  0  0  0  0
 33 32  2  0  0  0  0
 33 37  1  0  0  0  0
 34 33  1  0  0  0  0
 35 36  1  0  0  0  0
 35 34  2  0  0  0  0
 36 31  2  0  0  0  0
 38 34  1  0  0  0  0
 39 35  1  0  0  0  0
 40 36  1  0  0  0  0
 42 43  1  0  0  0  0
 42 40  1  0  0  0  0
 42 41  2  0  0  0  0
 44 43  1  0  0  0  0
 45 42  1  0  0  0  0
 46 45  1  0  0  0  0
M  END
>  <minimizedAffinity>
-6.53368998

$$$$

 OpenBabel03242523253D

 46 49  0  0  1  0  0  0  0  0999 V2000
   37.3960   26.3180   41.3190 C   0  0  0  0  0  0  0  0  0  0  0  0
   38.3610   25.4090   41.4180 C   0  0  0  0  0  0  0  0  0  0  0  0
   38.6290   24.7290   40.2700 C   0  0  0  0  0  0  0  0  0  0  0  0
   37.8900   25.0310   39.1150 N   0  0  0  0  0  0  0  0  0  0  0  0
   36.9450   25.9450   39.0860 C   0  0  0  0  0  0  0  0  0  0  0  0
   36.6470   26.6500   40.2240 N   0  0  0  0  0  0  0  0  0  0  0  0
   39.3140   23.9440   40.0100 H   0  0  0  0  0  0  0  0  0  0  0  0
   36.4080   26.1220   38.1350 H   0  0  0  0  0  0  0  0  0  0  0  0
   39.0490   25.0000   42.5940 C   0  0  1  0  0  0  0  0  0  0  0  0
   40.0890   24.1410   42.7280 C   0  0  0  0  0  0  0  0  0  0  0  0
   40.4420   25.5850   42.9110 C   0  0  1  0  0  0  0  0  0  0  0  0
   38.3440   24.9660   43.4840 H   0  0  0  0  0  0  0  0  0  0  0  0
   40.3550   23.5270   43.6420 H   0  0  0  0  0  0  0  0  0  0  0  0
   40.5140   23.6110   41.8460 H   0  0  0  0  0  0  0  0  0  0  0  0
   40.5100   25.9700   43.9740 H   0  0  0  0  0  0  0  0  0  0  0  0
   42.3940   26.9760   42.7110 C   0  0  1  0  0  3  0  0  0  0  0  0
   41.3630   26.1360   41.9160 C   0  0  1  0  0  3  0  0  0  0  0  0
   42.1940   25.0990   41.4030 O   0  0  0  0  0  0  0  0  0  0  0  0
   43.3610   25.5690   40.8580 C   0  0  0  0  0  2  0  0  0  0  0  0
   44.3580   25.7500   41.9940 C   0  0  2  0  0  3  0  0  0  0  0  0
   43.4970   26.0770   43.2180 C   0  0  2  0  0  3  0  0  0  0  0  0
   42.9290   27.9640   41.9160 O   0  0  0  0  0  0  0  0  0  0  0  0
   42.5360   28.8440   42.1770 H   0  0  0  0  0  0  0  0  0  0  0  0
   45.2750   26.7440   41.7100 O   0  0  0  0  0  0  0  0  0  0  0  0
   44.9900   27.3490   40.9780 H   0  0  0  0  0  0  0  0  0  0  0  0
   42.9940   24.8590   43.6510 O   0  0  0  0  0  0  0  0  0  0  0  0
   43.2970   24.5690   44.5320 H   0  0  0  0  0  0  0  0  0  0  0  0
   36.9440   27.2390   42.3810 C   0  0  0  0  0  0  0  0  0  0  0  0
   36.3020   27.5390   43.3500 O   0  0  0  0  0  0  0  0  0  0  0  0
   35.4790   29.5470   40.9450 Cl  0  0  0  0  0  0  0  0  0  0  0  0
   37.1200   29.6960   41.5470 C   0  0  0  0  0  0  0  0  0  0  0  0
   37.6480   28.5490   42.1960 C   0  0  0  0  0  0  0  0  0  0  0  0
   38.9300   28.7940   42.6290 C   0  0  0  0  0  0  0  0  0  0  0  0
   39.6900   29.8760   42.5280 C   0  0  0  0  0  0  0  0  0  0  0  0
   39.1150   30.9510   41.8860 C   0  0  0  0  0  0  0  0  0  0  0  0
   37.8430   30.8750   41.3970 C   0  0  0  0  0  0  0  0  0  0  0  0
   39.4520   27.9810   43.1880 H   0  0  0  0  0  0  0  0  0  0  0  0
   40.7080   29.9770   42.9040 H   0  0  0  0  0  0  0  0  0  0  0  0
   39.7150   31.8720   41.7800 H   0  0  0  0  0  0  0  0  0  0  0  0
   37.3830   32.0060   40.7860 O   0  0  0  0  0  0  0  0  0  0  0  0
   37.0160   31.5270   38.2350 O   0  0  0  0  0  0  0  0  0  0  0  0
   37.6000   32.5400   39.1920 P   0  0  0  0  0  0  0  0  0  0  0  0
   36.8620   34.0590   39.0040 O   0  0  0  0  0  0  0  0  0  0  0  0
   37.4620   34.7900   39.2720 H   0  0  0  0  0  0  0  0  0  0  0  0
   39.2340   32.7880   38.8340 O   0  0  0  0  0  0  0  0  0  0  0  0
   39.8180   32.5120   39.5640 H   0  0  0  0  0  0  0  0  0  0  0  0
  1  2  1  0  0  0  0
  1 28  1  0  0  0  0
  2  9  1  0  0  0  0
  3  2  2  0  0  0  0
  4  3  1  0  0  0  0
  5  4  2  0  0  0  0
  5  6  1  0  0  0  0
  6  1  2  0  0  0  0
  7  3  1  0  0  0  0
  8  5  1  0  0  0  0
  9 10  1  0  0  0  0
  9 11  1  0  0  0  0
  9 12  1  1  0  0  0
 10 11  1  0  0  0  0
 10 13  1  0  0  0  0
 11 15  1  1  0  0  0
 14 10  1  0  0  0  0
 16 22  1  6  0  0  0
 16 21  1  0  0  0  0
 17 18  1  1  0  0  0
 17 16  1  0  0  0  0
 17 11  1  0  0  0  0
 19 18  1  0  0  0  0
 19 20  1  0  0  0  0
 20 24  1  6  0  0  0
 20 21  1  0  0  0  0
 21 26  1  6  0  0  0
 22 23  1  0  0  0  0
 25 24  1  0  0  0  0
 26 27  1  0  0  0  0
 28 29  2  0  0  0  0
 30 31  1  0  0  0  0
 31 32  1  0  0  0  0
 32 28  1  0  0  0  0
 32 33  2  0  0  0  0
 33 37  1  0  0  0  0
 34 33  1  0  0  0  0
 34 38  1  0  0  0  0
 35 34  2  0  0  0  0
 36 31  2  0  0  0  0
 36 35  1  0  0  0  0
 39 35  1  0  0  0  0
 40 36  1  0  0  0  0
 41 42  2  0  0  0  0
 42 40  1  0  0  0  0
 43 42  1  0  0  0  0
 43 44  1  0  0  0  0
 45 42  1  0  0  0  0
 45 46  1  0  0  0  0
M  END
>  <minimizedAffinity>
-6.50639915

$$$$

 OpenBabel03242523253D

 46 49  0  0  1  0  0  0  0  0999 V2000
   39.0500   27.5000   42.9550 C   0  0  0  0  0  0  0  0  0  0  0  0
   39.7260   28.6380   42.8300 C   0  0  0  0  0  0  0  0  0  0  0  0
   41.0800   28.4990   42.7930 C   0  0  0  0  0  0  0  0  0  0  0  0
   41.6320   27.2110   42.8890 N   0  0  0  0  0  0  0  0  0  0  0  0
   40.9020   26.1240   43.0120 C   0  0  0  0  0  0  0  0  0  0  0  0
   39.5350   26.2260   43.0520 N   0  0  0  0  0  0  0  0  0  0  0  0
   41.8990   29.1880   42.7170 H   0  0  0  0  0  0  0  0  0  0  0  0
   41.4150   25.1470   43.0820 H   0  0  0  0  0  0  0  0  0  0  0  0
   39.2070   29.9610   42.8440 C   0  0  1  0  0  0  0  0  0  0  0  0
   39.8570   31.1430   42.7110 C   0  0  0  0  0  0  0  0  0  0  0  0
   39.0450   30.7380   41.5200 C   0  0  1  0  0  0  0  0  0  0  0  0
   38.3130   30.0380   43.5420 H   0  0  0  0  0  0  0  0  0  0  0  0
   39.5340   32.1510   43.1130 H   0  0  0  0  0  0  0  0  0  0  0  0
   40.9640   31.1800   42.5950 H   0  0  0  0  0  0  0  0  0  0  0  0
   38.0130   31.1940   41.4170 H   0  0  0  0  0  0  0  0  0  0  0  0
   38.8770   30.8640   39.1240 C   0  0  1  0  0  3  0  0  0  0  0  0
   39.8090   30.4760   40.3000 C   0  0  1  0  0  3  0  0  0  0  0  0
   40.8420   31.4470   40.1600 O   0  0  0  0  0  0  0  0  0  0  0  0
   41.2790   31.5810   38.8680 C   0  0  0  0  0  2  0  0  0  0  0  0
   40.3330   32.5450   38.1610 C   0  0  2  0  0  3  0  0  0  0  0  0
   38.9840   32.3470   38.8590 C   0  0  2  0  0  3  0  0  0  0  0  0
   39.2150   30.1640   37.9880 O   0  0  0  0  0  0  0  0  0  0  0  0
   38.5370   29.4480   37.8290 H   0  0  0  0  0  0  0  0  0  0  0  0
   40.2710   32.2900   36.8050 O   0  0  0  0  0  0  0  0  0  0  0  0
   40.6090   31.3920   36.5550 H   0  0  0  0  0  0  0  0  0  0  0  0
   39.0730   33.0630   40.0440 O   0  0  0  0  0  0  0  0  0  0  0  0
   38.4660   33.8230   40.1220 H   0  0  0  0  0  0  0  0  0  0  0  0
   37.5800   27.3480   42.9560 C   0  0  0  0  0  0  0  0  0  0  0  0
   36.4870   27.4190   43.4480 O   0  0  0  0  0  0  0  0  0  0  0  0
   36.1890   29.2170   40.9310 Cl  0  0  0  0  0  0  0  0  0  0  0  0
   36.5040   27.5250   40.5960 C   0  0  0  0  0  0  0  0  0  0  0  0
   37.1640   26.8020   41.6240 C   0  0  0  0  0  0  0  0  0  0  0  0
   37.3620   25.4970   41.2390 C   0  0  0  0  0  0  0  0  0  0  0  0
   37.0410   24.8630   40.1200 C   0  0  0  0  0  0  0  0  0  0  0  0
   36.4020   25.6240   39.1660 C   0  0  0  0  0  0  0  0  0  0  0  0
   36.1310   26.9430   39.3880 C   0  0  0  0  0  0  0  0  0  0  0  0
   37.9030   24.8250   41.9460 H   0  0  0  0  0  0  0  0  0  0  0  0
   37.2380   23.8130   39.9040 H   0  0  0  0  0  0  0  0  0  0  0  0
   36.1170   25.1330   38.2180 H   0  0  0  0  0  0  0  0  0  0  0  0
   35.5000   27.5910   38.3660 O   0  0  0  0  0  0  0  0  0  0  0  0
   36.1630   29.9280   37.3800 O   0  0  0  0  0  0  0  0  0  0  0  0
   36.1550   28.4510   37.0600 P   0  0  0  0  0  0  0  0  0  0  0  0
   37.7260   27.8820   36.7470 O   0  0  0  0  0  0  0  0  0  0  0  0
   37.7160   27.0970   36.1540 H   0  0  0  0  0  0  0  0  0  0  0  0
   35.2860   28.1790   35.6350 O   0  0  0  0  0  0  0  0  0  0  0  0
   34.4910   27.6360   35.7850 H   0  0  0  0  0  0  0  0  0  0  0  0
  1 28  1  0  0  0  0
  1  6  1  0  0  0  0
  2  9  1  0  0  0  0
  2  1  2  0  0  0  0
  3  2  1  0  0  0  0
  3  4  2  0  0  0  0
  4  5  1  0  0  0  0
  5  6  2  0  0  0  0
  5  8  1  0  0  0  0
  7  3  1  0  0  0  0
  9 12  1  1  0  0  0
 10  9  1  0  0  0  0
 10 13  1  0  0  0  0
 11 15  1  6  0  0  0
 11 10  1  0  0  0  0
 11  9  1  0  0  0  0
 14 10  1  0  0  0  0
 16 22  1  6  0  0  0
 16 17  1  0  0  0  0
 17 18  1  1  0  0  0
 17 11  1  0  0  0  0
 19 18  1  0  0  0  0
 20 24  1  6  0  0  0
 20 21  1  0  0  0  0
 20 19  1  0  0  0  0
 21 16  1  0  0  0  0
 21 26  1  1  0  0  0
 23 22  1  0  0  0  0
 25 24  1  0  0  0  0
 26 27  1  0  0  0  0
 28 29  2  0  0  0  0
 31 30  1  0  0  0  0
 31 32  1  0  0  0  0
 32 28  1  0  0  0  0
 33 32  2  0  0  0  0
 33 37  1  0  0  0  0
 34 33  1  0  0  0  0
 35 36  1  0  0  0  0
 35 34  2  0  0  0  0
 36 31  2  0  0  0  0
 38 34  1  0  0  0  0
 39 35  1  0  0  0  0
 40 36  1  0  0  0  0
 42 41  2  0  0  0  0
 42 40  1  0  0  0  0
 43 42  1  0  0  0  0
 44 43  1  0  0  0  0
 45 46  1  0  0  0  0
 45 42  1  0  0  0  0
M  END
>  <minimizedAffinity>
-6.32139587

$$$$

 OpenBabel03242523253D

 46 49  0  0  1  0  0  0  0  0999 V2000
   38.9950   27.4550   42.9120 C   0  0  0  0  0  0  0  0  0  0  0  0
   39.6750   28.5930   42.8130 C   0  0  0  0  0  0  0  0  0  0  0  0
   41.0290   28.4520   42.7990 C   0  0  0  0  0  0  0  0  0  0  0  0
   41.5770   27.1630   42.8880 N   0  0  0  0  0  0  0  0  0  0  0  0
   40.8440   26.0760   42.9860 C   0  0  0  0  0  0  0  0  0  0  0  0
   39.4760   26.1790   43.0030 N   0  0  0  0  0  0  0  0  0  0  0  0
   41.8500   29.1410   42.7450 H   0  0  0  0  0  0  0  0  0  0  0  0
   41.3540   25.0970   43.0530 H   0  0  0  0  0  0  0  0  0  0  0  0
   39.1570   29.9170   42.8340 C   0  0  1  0  0  0  0  0  0  0  0  0
   39.8020   31.0970   42.6610 C   0  0  0  0  0  0  0  0  0  0  0  0
   38.9420   30.6800   41.5090 C   0  0  1  0  0  0  0  0  0  0  0  0
   38.2920   30.0020   43.5660 H   0  0  0  0  0  0  0  0  0  0  0  0
   39.4950   32.1090   43.0660 H   0  0  0  0  0  0  0  0  0  0  0  0
   40.9030   31.1320   42.5000 H   0  0  0  0  0  0  0  0  0  0  0  0
   37.9070   31.1360   41.4430 H   0  0  0  0  0  0  0  0  0  0  0  0
   38.7120   30.8630   39.1210 C   0  0  1  0  0  3  0  0  0  0  0  0
   39.6560   30.4040   40.2610 C   0  0  1  0  0  3  0  0  0  0  0  0
   40.7330   31.3230   40.1100 O   0  0  0  0  0  0  0  0  0  0  0  0
   41.1390   31.4610   38.8070 C   0  0  0  0  0  2  0  0  0  0  0  0
   40.2250   32.4860   38.1480 C   0  0  2  0  0  3  0  0  0  0  0  0
   38.8880   32.3430   38.8820 C   0  0  2  0  0  3  0  0  0  0  0  0
   38.9800   30.1700   37.9630 O   0  0  0  0  0  0  0  0  0  0  0  0
   38.2610   29.4940   37.8110 H   0  0  0  0  0  0  0  0  0  0  0  0
   40.1110   32.2620   36.7900 O   0  0  0  0  0  0  0  0  0  0  0  0
   40.3940   31.3540   36.5120 H   0  0  0  0  0  0  0  0  0  0  0  0
   39.0490   33.0300   40.0770 O   0  0  0  0  0  0  0  0  0  0  0  0
   38.4840   33.8180   40.1870 H   0  0  0  0  0  0  0  0  0  0  0  0
   37.5250   27.3050   42.8850 C   0  0  0  0  0  0  0  0  0  0  0  0
   36.4300   27.3070   43.3770 O   0  0  0  0  0  0  0  0  0  0  0  0
   36.9990   24.3470   42.1720 Cl  0  0  0  0  0  0  0  0  0  0  0  0
   36.8530   25.6450   41.0000 C   0  0  0  0  0  0  0  0  0  0  0  0
   37.1150   26.9520   41.4880 C   0  0  0  0  0  0  0  0  0  0  0  0
   36.9590   27.8770   40.4830 C   0  0  0  0  0  0  0  0  0  0  0  0
   36.6240   27.7270   39.2080 C   0  0  0  0  0  0  0  0  0  0  0  0
   36.3850   26.4320   38.8030 C   0  0  0  0  0  0  0  0  0  0  0  0
   36.4940   25.3920   39.6800 C   0  0  0  0  0  0  0  0  0  0  0  0
   37.1040   28.9520   40.7410 H   0  0  0  0  0  0  0  0  0  0  0  0
   36.5270   28.5290   38.4770 H   0  0  0  0  0  0  0  0  0  0  0  0
   36.1040   26.2640   37.7480 H   0  0  0  0  0  0  0  0  0  0  0  0
   36.2270   24.1580   39.1600 O   0  0  0  0  0  0  0  0  0  0  0  0
   36.7570   22.2670   37.4240 O   0  0  0  0  0  0  0  0  0  0  0  0
   37.2950   22.9380   38.6670 P   0  0  0  0  0  0  0  0  0  0  0  0
   38.8280   23.6160   38.3840 O   0  0  0  0  0  0  0  0  0  0  0  0
   39.3580   23.6710   39.2100 H   0  0  0  0  0  0  0  0  0  0  0  0
   37.5310   21.7870   39.8820 O   0  0  0  0  0  0  0  0  0  0  0  0
   36.9600   21.9440   40.6560 H   0  0  0  0  0  0  0  0  0  0  0  0
  1  6  1  0  0  0  0
  2  9  1  0  0  0  0
  2  1  2  0  0  0  0
  3  2  1  0  0  0  0
  3  4  2  0  0  0  0
  4  5  1  0  0  0  0
  5  6  2  0  0  0  0
  5  8  1  0  0  0  0
  7  3  1  0  0  0  0
  9 12  1  1  0  0  0
 10  9  1  0  0  0  0
 10 13  1  0  0  0  0
 11 15  1  6  0  0  0
 11 10  1  0  0  0  0
 11  9  1  0  0  0  0
 14 10  1  0  0  0  0
 16 22  1  6  0  0  0
 16 17  1  0  0  0  0
 17 18  1  1  0  0  0
 17 11  1  0  0  0  0
 19 18  1  0  0  0  0
 20 24  1  6  0  0  0
 20 19  1  0  0  0  0
 20 21  1  0  0  0  0
 21 16  1  0  0  0  0
 21 26  1  1  0  0  0
 23 22  1  0  0  0  0
 25 24  1  0  0  0  0
 26 27  1  0  0  0  0
 28  1  1  0  0  0  0
 28 29  2  0  0  0  0
 31 32  1  0  0  0  0
 31 30  1  0  0  0  0
 32 28  1  0  0  0  0
 33 37  1  0  0  0  0
 33 32  2  0  0  0  0
 34 33  1  0  0  0  0
 35 34  2  0  0  0  0
 35 36  1  0  0  0  0
 36 31  2  0  0  0  0
 38 34  1  0  0  0  0
 39 35  1  0  0  0  0
 40 36  1  0  0  0  0
 41 42  2  0  0  0  0
 42 40  1  0  0  0  0
 42 45  1  0  0  0  0
 43 42  1  0  0  0  0
 43 44  1  0  0  0  0
 45 46  1  0  0  0  0
M  END
>  <minimizedAffinity>
-6.31063032

$$$$

 OpenBabel03242523253D

 46 49  0  0  1  0  0  0  0  0999 V2000
   36.2410   27.2960   37.8200 C   0  0  0  0  0  0  0  0  0  0  0  0
   36.8920   26.4950   38.6590 C   0  0  0  0  0  0  0  0  0  0  0  0
   37.8810   25.7520   38.0910 C   0  0  0  0  0  0  0  0  0  0  0  0
   38.1230   25.8850   36.7150 N   0  0  0  0  0  0  0  0  0  0  0  0
   37.4390   26.6980   35.9400 C   0  0  0  0  0  0  0  0  0  0  0  0
   36.4350   27.4630   36.4780 N   0  0  0  0  0  0  0  0  0  0  0  0
   38.5700   25.0180   38.4630 H   0  0  0  0  0  0  0  0  0  0  0  0
   37.6920   26.7430   34.8650 H   0  0  0  0  0  0  0  0  0  0  0  0
   36.5990   26.2530   40.0290 C   0  0  1  0  0  0  0  0  0  0  0  0
   37.1980   25.4050   40.9010 C   0  0  0  0  0  0  0  0  0  0  0  0
   37.5050   26.8530   41.1260 C   0  0  1  0  0  0  0  0  0  0  0  0
   35.4870   26.3640   40.2310 H   0  0  0  0  0  0  0  0  0  0  0  0
   36.7360   24.9290   41.8190 H   0  0  0  0  0  0  0  0  0  0  0  0
   38.0330   24.7430   40.5770 H   0  0  0  0  0  0  0  0  0  0  0  0
   36.9080   27.3910   41.9250 H   0  0  0  0  0  0  0  0  0  0  0  0
   39.0910   28.5660   41.7080 C   0  0  1  0  0  3  0  0  0  0  0  0
   38.9050   27.2340   40.9370 C   0  0  1  0  0  3  0  0  0  0  0  0
   39.7470   26.3640   41.6880 O   0  0  0  0  0  0  0  0  0  0  0  0
   40.9750   26.9110   41.9590 C   0  0  0  0  0  2  0  0  0  0  0  0
   40.8270   27.7770   43.2040 C   0  0  2  0  0  3  0  0  0  0  0  0
   39.3780   28.2740   43.1620 C   0  0  2  0  0  3  0  0  0  0  0  0
   40.1240   29.2970   41.1680 O   0  0  0  0  0  0  0  0  0  0  0  0
   39.7480   30.0590   40.6440 H   0  0  0  0  0  0  0  0  0  0  0  0
   41.7430   28.8110   43.2130 O   0  0  0  0  0  0  0  0  0  0  0  0
   42.1430   28.9930   42.3240 H   0  0  0  0  0  0  0  0  0  0  0  0
   38.6120   27.2140   43.6230 O   0  0  0  0  0  0  0  0  0  0  0  0
   38.1410   27.3700   44.4640 H   0  0  0  0  0  0  0  0  0  0  0  0
   35.1730   28.2540   38.1720 C   0  0  0  0  0  0  0  0  0  0  0  0
   34.0400   28.6510   38.1890 O   0  0  0  0  0  0  0  0  0  0  0  0
   36.9330   30.2970   36.6670 Cl  0  0  0  0  0  0  0  0  0  0  0  0
   36.6330   30.3940   38.3930 C   0  0  0  0  0  0  0  0  0  0  0  0
   35.7920   29.3870   38.9330 C   0  0  0  0  0  0  0  0  0  0  0  0
   35.6270   29.5770   40.2850 C   0  0  0  0  0  0  0  0  0  0  0  0
   36.1140   30.5050   41.0980 C   0  0  0  0  0  0  0  0  0  0  0  0
   36.9230   31.4500   40.5070 C   0  0  0  0  0  0  0  0  0  0  0  0
   37.1880   31.4070   39.1690 C   0  0  0  0  0  0  0  0  0  0  0  0
   34.9570   28.8710   40.8300 H   0  0  0  0  0  0  0  0  0  0  0  0
   35.9280   30.5740   42.1690 H   0  0  0  0  0  0  0  0  0  0  0  0
   37.3500   32.2400   41.1510 H   0  0  0  0  0  0  0  0  0  0  0  0
   37.9990   32.4010   38.7010 O   0  0  0  0  0  0  0  0  0  0  0  0
   40.3000   31.2070   39.0920 O   0  0  0  0  0  0  0  0  0  0  0  0
   39.6630   32.3780   38.3810 P   0  0  0  0  0  0  0  0  0  0  0  0
   39.9090   32.2850   36.7010 O   0  0  0  0  0  0  0  0  0  0  0  0
   39.8960   33.1740   36.2830 H   0  0  0  0  0  0  0  0  0  0  0  0
   40.4110   33.8160   38.8640 O   0  0  0  0  0  0  0  0  0  0  0  0
   39.7970   34.4140   39.3290 H   0  0  0  0  0  0  0  0  0  0  0  0
  1 28  1  0  0  0  0
  1  2  1  0  0  0  0
  2  9  1  0  0  0  0
  3  7  1  0  0  0  0
  3  2  2  0  0  0  0
  4  3  1  0  0  0  0
  5  6  1  0  0  0  0
  5  4  2  0  0  0  0
  6  1  2  0  0  0  0
  8  5  1  0  0  0  0
  9 12  1  1  0  0  0
  9 10  1  0  0  0  0
  9 11  1  0  0  0  0
 10 11  1  0  0  0  0
 10 13  1  0  0  0  0
 11 15  1  1  0  0  0
 14 10  1  0  0  0  0
 16 22  1  6  0  0  0
 16 21  1  0  0  0  0
 17 11  1  0  0  0  0
 17 18  1  1  0  0  0
 17 16  1  0  0  0  0
 18 19  1  0  0  0  0
 19 20  1  0  0  0  0
 20 24  1  6  0  0  0
 21 20  1  0  0  0  0
 21 26  1  6  0  0  0
 23 22  1  0  0  0  0
 25 24  1  0  0  0  0
 26 27  1  0  0  0  0
 28 29  2  0  0  0  0
 28 32  1  0  0  0  0
 30 31  1  0  0  0  0
 31 32  2  0  0  0  0
 31 36  1  0  0  0  0
 32 33  1  0  0  0  0
 33 37  1  0  0  0  0
 33 34  2  0  0  0  0
 34 38  1  0  0  0  0
 35 34  1  0  0  0  0
 35 39  1  0  0  0  0
 36 35  2  0  0  0  0
 40 36  1  0  0  0  0
 42 40  1  0  0  0  0
 42 45  1  0  0  0  0
 42 41  2  0  0  0  0
 43 42  1  0  0  0  0
 44 43  1  0  0  0  0
 45 46  1  0  0  0  0
M  END
>  <minimizedAffinity>
-6.28981733

$$$$
