
 OpenBabel03252502143D

 40 43  0  0  1  0  0  0  0  0999 V2000
   36.7520   29.4180   39.6140 C   0  0  0  0  0  0  0  0  0  0  0  0
   35.8590   30.0260   40.5000 C   0  0  0  0  0  0  0  0  0  0  0  0
   36.2500   31.3040   40.8300 C   0  0  0  0  0  0  0  0  0  0  0  0
   37.3560   31.9770   40.3940 C   0  0  0  0  0  0  0  0  0  0  0  0
   38.1770   31.2830   39.5170 C   0  0  0  0  0  0  0  0  0  0  0  0
   37.8360   30.0320   39.1660 N   0  0  0  0  0  0  0  0  0  0  0  0
   34.9750   29.5570   40.8790 H   0  0  0  0  0  0  0  0  0  0  0  0
   35.5850   31.8570   41.5340 H   0  0  0  0  0  0  0  0  0  0  0  0
   37.5650   32.9870   40.7210 H   0  0  0  0  0  0  0  0  0  0  0  0
   37.1040   24.3480   40.4580 Cl  0  0  0  0  0  0  0  0  0  0  0  0
   36.5960   25.7510   39.5560 C   0  0  0  0  0  0  0  0  0  0  0  0
   36.8960   27.0120   39.9760 C   0  0  0  0  0  0  0  0  0  0  0  0
   36.4420   28.0370   39.1820 C   0  0  0  0  0  0  0  0  0  0  0  0
   35.7380   27.8570   38.0460 C   0  0  0  0  0  0  0  0  0  0  0  0
   35.4390   26.5760   37.6270 C   0  0  0  0  0  0  0  0  0  0  0  0
   35.8770   25.5310   38.3960 C   0  0  0  0  0  0  0  0  0  0  0  0
   35.3740   28.6600   37.4100 H   0  0  0  0  0  0  0  0  0  0  0  0
   34.8750   26.3580   36.7200 H   0  0  0  0  0  0  0  0  0  0  0  0
   35.6470   24.5240   38.0740 H   0  0  0  0  0  0  0  0  0  0  0  0
   37.8270   27.4560   43.6170 C   0  0  0  0  0  0  0  0  0  0  0  0
   37.0720   27.2920   42.4560 C   0  0  0  0  0  0  0  0  0  0  0  0
   37.6530   27.1820   41.2000 C   0  0  0  0  0  0  0  0  0  0  0  0
   39.0080   27.2470   41.1880 N   0  0  0  0  0  0  0  0  0  0  0  0
   39.7400   27.4050   42.3010 C   0  0  0  0  0  0  0  0  0  0  0  0
   39.1620   27.5080   43.5080 N   0  0  0  0  0  0  0  0  0  0  0  0
   37.3630   27.5370   44.5740 H   0  0  0  0  0  0  0  0  0  0  0  0
   35.9950   27.2480   42.5380 H   0  0  0  0  0  0  0  0  0  0  0  0
   40.8100   27.4370   42.1160 H   0  0  0  0  0  0  0  0  0  0  0  0
   39.8340   31.4000   37.6580 C   0  0  2  0  0  3  0  0  0  0  0  0
   39.4070   31.9700   39.0030 C   0  0  2  0  0  3  0  0  0  0  0  0
   40.4690   31.8520   39.9270 O   0  0  0  0  0  0  0  0  0  0  0  0
   41.3960   32.8300   39.5000 C   0  0  0  0  0  2  0  0  0  0  0  0
   41.9530   32.4750   38.1470 C   0  0  1  0  0  3  0  0  0  0  0  0
   41.3300   31.1680   37.6840 C   0  0  2  0  0  3  0  0  0  0  0  0
   39.5170   32.2410   36.6150 O   0  0  0  0  0  0  0  0  0  0  0  0
   38.5940   32.1950   36.2940 H   0  0  0  0  0  0  0  0  0  0  0  0
   41.6140   33.4260   37.1800 O   0  0  0  0  0  0  0  0  0  0  0  0
   42.2210   33.3480   36.4030 H   0  0  0  0  0  0  0  0  0  0  0  0
   41.8110   30.8420   36.4340 O   0  0  0  0  0  0  0  0  0  0  0  0
   41.2740   30.1710   35.9640 H   0  0  0  0  0  0  0  0  0  0  0  0
  1  2  1  0  0  0  0
  2  3  2  0  0  0  0
  2  7  1  0  0  0  0
  3  8  1  0  0  0  0
  4  9  1  0  0  0  0
  4  3  1  0  0  0  0
  5  4  2  0  0  0  0
  6  5  1  0  0  0  0
  6  1  2  0  0  0  0
 11 12  1  0  0  0  0
 11 10  1  0  0  0  0
 12 22  1  0  0  0  0
 13  1  1  0  0  0  0
 13 12  2  0  0  0  0
 14 13  1  0  0  0  0
 15 14  2  0  0  0  0
 15 16  1  0  0  0  0
 16 11  2  0  0  0  0
 17 14  1  0  0  0  0
 18 15  1  0  0  0  0
 19 16  1  0  0  0  0
 20 26  1  0  0  0  0
 21 27  1  0  0  0  0
 21 20  2  0  0  0  0
 22 21  1  0  0  0  0
 23 22  2  0  0  0  0
 23 24  1  0  0  0  0
 24 25  2  0  0  0  0
 25 20  1  0  0  0  0
 28 24  1  0  0  0  0
 29 35  1  6  0  0  0
 29 34  1  0  0  0  0
 29 30  1  0  0  0  0
 30  5  1  1  0  0  0
 30 31  1  0  0  0  0
 32 31  1  0  0  0  0
 33 37  1  6  0  0  0
 33 32  1  0  0  0  0
 34 39  1  6  0  0  0
 34 33  1  0  0  0  0
 36 35  1  0  0  0  0
 38 37  1  0  0  0  0
 40 39  1  0  0  0  0
M  END
>  <minimizedAffinity>
-7.24872255

$$$$

 OpenBabel03252502143D

 40 43  0  0  1  0  0  0  0  0999 V2000
   37.6900   30.2660   40.9330 C   0  0  0  0  0  0  0  0  0  0  0  0
   36.5140   31.0190   40.9640 C   0  0  0  0  0  0  0  0  0  0  0  0
   36.6490   32.2130   40.2920 C   0  0  0  0  0  0  0  0  0  0  0  0
   37.7560   32.6870   39.6460 C   0  0  0  0  0  0  0  0  0  0  0  0
   38.8710   31.8610   39.6760 C   0  0  0  0  0  0  0  0  0  0  0  0
   38.7860   30.6850   40.3200 N   0  0  0  0  0  0  0  0  0  0  0  0
   35.6140   30.7080   41.4500 H   0  0  0  0  0  0  0  0  0  0  0  0
   35.7500   32.8730   40.2710 H   0  0  0  0  0  0  0  0  0  0  0  0
   37.7490   33.6470   39.1470 H   0  0  0  0  0  0  0  0  0  0  0  0
   36.8880   25.1810   40.7240 Cl  0  0  0  0  0  0  0  0  0  0  0  0
   37.3130   26.6650   41.5360 C   0  0  0  0  0  0  0  0  0  0  0  0
   37.3210   27.8570   40.8760 C   0  0  0  0  0  0  0  0  0  0  0  0
   37.6730   28.9570   41.6220 C   0  0  0  0  0  0  0  0  0  0  0  0
   37.9970   28.9090   42.9300 C   0  0  0  0  0  0  0  0  0  0  0  0
   37.9860   27.6970   43.5900 C   0  0  0  0  0  0  0  0  0  0  0  0
   37.6410   26.5810   42.8760 C   0  0  0  0  0  0  0  0  0  0  0  0
   38.2770   29.7710   43.5290 H   0  0  0  0  0  0  0  0  0  0  0  0
   38.2380   27.5860   44.6440 H   0  0  0  0  0  0  0  0  0  0  0  0
   37.6300   25.6270   43.3860 H   0  0  0  0  0  0  0  0  0  0  0  0
   35.3590   28.0810   37.6490 C   0  0  0  0  0  0  0  0  0  0  0  0
   35.6710   28.0580   39.0080 C   0  0  0  0  0  0  0  0  0  0  0  0
   36.9680   27.8860   39.4720 C   0  0  0  0  0  0  0  0  0  0  0  0
   37.9070   27.7410   38.5050 N   0  0  0  0  0  0  0  0  0  0  0  0
   37.6150   27.7610   37.1950 C   0  0  0  0  0  0  0  0  0  0  0  0
   36.3550   27.9300   36.7630 N   0  0  0  0  0  0  0  0  0  0  0  0
   34.3570   28.2150   37.3100 H   0  0  0  0  0  0  0  0  0  0  0  0
   34.8720   28.1800   39.7260 H   0  0  0  0  0  0  0  0  0  0  0  0
   38.4820   27.6310   36.5540 H   0  0  0  0  0  0  0  0  0  0  0  0
   40.3070   31.6100   37.6540 C   0  0  2  0  0  3  0  0  0  0  0  0
   40.1170   32.3260   38.9840 C   0  0  2  0  0  3  0  0  0  0  0  0
   41.2510   32.1200   39.8010 O   0  0  0  0  0  0  0  0  0  0  0  0
   42.2480   32.9220   39.2000 C   0  0  0  0  0  2  0  0  0  0  0  0
   42.5950   32.3990   37.8320 C   0  0  1  0  0  3  0  0  0  0  0  0
   41.7510   31.1670   37.5460 C   0  0  2  0  0  3  0  0  0  0  0  0
   39.9920   32.4150   36.5820 O   0  0  0  0  0  0  0  0  0  0  0  0
   39.0410   32.4810   36.3630 H   0  0  0  0  0  0  0  0  0  0  0  0
   42.2810   33.3200   36.8290 O   0  0  0  0  0  0  0  0  0  0  0  0
   42.7800   33.1030   36.0020 H   0  0  0  0  0  0  0  0  0  0  0  0
   42.0380   30.6910   36.2850 O   0  0  0  0  0  0  0  0  0  0  0  0
   41.3660   30.0730   35.9300 H   0  0  0  0  0  0  0  0  0  0  0  0
  1  2  1  0  0  0  0
  1 13  1  0  0  0  0
  2  7  1  0  0  0  0
  3  2  2  0  0  0  0
  4  5  2  0  0  0  0
  4  3  1  0  0  0  0
  5  6  1  0  0  0  0
  6  1  2  0  0  0  0
  8  3  1  0  0  0  0
  9  4  1  0  0  0  0
 10 11  1  0  0  0  0
 11 16  1  0  0  0  0
 12 11  2  0  0  0  0
 12 13  1  0  0  0  0
 13 14  2  0  0  0  0
 14 17  1  0  0  0  0
 14 15  1  0  0  0  0
 15 18  1  0  0  0  0
 16 19  1  0  0  0  0
 16 15  2  0  0  0  0
 20 21  1  0  0  0  0
 21 22  2  0  0  0  0
 21 27  1  0  0  0  0
 22 12  1  0  0  0  0
 23 22  1  0  0  0  0
 24 23  2  0  0  0  0
 25 24  1  0  0  0  0
 25 20  2  0  0  0  0
 26 20  1  0  0  0  0
 28 24  1  0  0  0  0
 29 35  1  6  0  0  0
 29 30  1  0  0  0  0
 30  5  1  1  0  0  0
 30 31  1  0  0  0  0
 32 31  1  0  0  0  0
 33 37  1  6  0  0  0
 33 32  1  0  0  0  0
 34 39  1  6  0  0  0
 34 29  1  0  0  0  0
 34 33  1  0  0  0  0
 36 35  1  0  0  0  0
 38 37  1  0  0  0  0
 40 39  1  0  0  0  0
M  END
>  <minimizedAffinity>
-7.22204828

$$$$

 OpenBabel03252502143D

 40 43  0  0  1  0  0  0  0  0999 V2000
   37.1060   29.2170   40.3220 C   0  0  0  0  0  0  0  0  0  0  0  0
   36.0360   29.8810   40.9260 C   0  0  0  0  0  0  0  0  0  0  0  0
   36.1870   31.2490   40.8820 C   0  0  0  0  0  0  0  0  0  0  0  0
   37.2210   31.9570   40.3370 C   0  0  0  0  0  0  0  0  0  0  0  0
   38.2330   31.2010   39.7620 C   0  0  0  0  0  0  0  0  0  0  0  0
   38.1280   29.8610   39.7810 N   0  0  0  0  0  0  0  0  0  0  0  0
   35.1970   29.3890   41.3710 H   0  0  0  0  0  0  0  0  0  0  0  0
   35.3710   31.8510   41.3450 H   0  0  0  0  0  0  0  0  0  0  0  0
   37.2350   33.0390   40.3590 H   0  0  0  0  0  0  0  0  0  0  0  0
   35.7700   24.8720   37.8950 Cl  0  0  0  0  0  0  0  0  0  0  0  0
   36.4610   25.7760   39.2170 C   0  0  0  0  0  0  0  0  0  0  0  0
   36.4900   27.1380   39.2070 C   0  0  0  0  0  0  0  0  0  0  0  0
   37.0600   27.7380   40.3040 C   0  0  0  0  0  0  0  0  0  0  0  0
   37.5730   27.0620   41.3520 C   0  0  0  0  0  0  0  0  0  0  0  0
   37.5400   25.6820   41.3540 C   0  0  0  0  0  0  0  0  0  0  0  0
   36.9790   25.0530   40.2750 C   0  0  0  0  0  0  0  0  0  0  0  0
   38.0260   27.5250   42.2250 H   0  0  0  0  0  0  0  0  0  0  0  0
   37.9360   25.0740   42.1670 H   0  0  0  0  0  0  0  0  0  0  0  0
   36.9480   23.9710   40.2690 H   0  0  0  0  0  0  0  0  0  0  0  0
   34.0960   28.9210   36.8820 C   0  0  0  0  0  0  0  0  0  0  0  0
   34.6060   28.2430   37.9900 C   0  0  0  0  0  0  0  0  0  0  0  0
   35.9330   27.8440   38.0710 C   0  0  0  0  0  0  0  0  0  0  0  0
   36.6940   28.1640   36.9960 N   0  0  0  0  0  0  0  0  0  0  0  0
   36.2110   28.8150   35.9280 C   0  0  0  0  0  0  0  0  0  0  0  0
   34.9240   29.1950   35.8640 N   0  0  0  0  0  0  0  0  0  0  0  0
   33.0730   29.2210   36.8370 H   0  0  0  0  0  0  0  0  0  0  0  0
   33.9420   28.0200   38.8130 H   0  0  0  0  0  0  0  0  0  0  0  0
   36.9520   28.9930   35.1540 H   0  0  0  0  0  0  0  0  0  0  0  0
   39.7520   31.3300   37.7900 C   0  0  2  0  0  3  0  0  0  0  0  0
   39.3930   31.9220   39.1460 C   0  0  2  0  0  3  0  0  0  0  0  0
   40.5200   31.8750   39.9970 O   0  0  0  0  0  0  0  0  0  0  0  0
   41.3730   32.8780   39.4800 C   0  0  0  0  0  2  0  0  0  0  0  0
   41.8510   32.5060   38.1010 C   0  0  1  0  0  3  0  0  0  0  0  0
   41.2550   31.1610   37.7180 C   0  0  2  0  0  3  0  0  0  0  0  0
   39.3290   32.1250   36.7490 O   0  0  0  0  0  0  0  0  0  0  0  0
   38.3880   32.0320   36.4940 H   0  0  0  0  0  0  0  0  0  0  0  0
   41.4060   33.4120   37.1350 O   0  0  0  0  0  0  0  0  0  0  0  0
   41.9620   33.3360   36.3200 H   0  0  0  0  0  0  0  0  0  0  0  0
   41.6620   30.8180   36.4470 O   0  0  0  0  0  0  0  0  0  0  0  0
   41.1240   30.1110   36.0340 H   0  0  0  0  0  0  0  0  0  0  0  0
  1  2  1  0  0  0  0
  2  7  1  0  0  0  0
  3  2  2  0  0  0  0
  3  8  1  0  0  0  0
  4  9  1  0  0  0  0
  4  3  1  0  0  0  0
  5  6  1  0  0  0  0
  5  4  2  0  0  0  0
  6  1  2  0  0  0  0
 10 11  1  0  0  0  0
 11 16  1  0  0  0  0
 12 11  2  0  0  0  0
 12 13  1  0  0  0  0
 13  1  1  0  0  0  0
 13 14  2  0  0  0  0
 14 15  1  0  0  0  0
 14 17  1  0  0  0  0
 15 18  1  0  0  0  0
 16 15  2  0  0  0  0
 19 16  1  0  0  0  0
 20 21  1  0  0  0  0
 21 22  2  0  0  0  0
 21 27  1  0  0  0  0
 22 12  1  0  0  0  0
 23 22  1  0  0  0  0
 24 23  2  0  0  0  0
 25 24  1  0  0  0  0
 25 20  2  0  0  0  0
 26 20  1  0  0  0  0
 28 24  1  0  0  0  0
 29 35  1  6  0  0  0
 29 30  1  0  0  0  0
 30  5  1  1  0  0  0
 30 31  1  0  0  0  0
 32 31  1  0  0  0  0
 33 37  1  6  0  0  0
 33 32  1  0  0  0  0
 34 39  1  6  0  0  0
 34 29  1  0  0  0  0
 34 33  1  0  0  0  0
 36 35  1  0  0  0  0
 38 37  1  0  0  0  0
 40 39  1  0  0  0  0
M  END
>  <minimizedAffinity>
-6.75847387

$$$$

 OpenBabel03252502143D

 40 43  0  0  1  0  0  0  0  0999 V2000
   36.9240   28.2860   40.8830 C   0  0  0  0  0  0  0  0  0  0  0  0
   35.6510   28.8380   40.7220 C   0  0  0  0  0  0  0  0  0  0  0  0
   35.6870   30.2140   40.6880 C   0  0  0  0  0  0  0  0  0  0  0  0
   36.7830   31.0230   40.7910 C   0  0  0  0  0  0  0  0  0  0  0  0
   37.9990   30.3740   40.9480 C   0  0  0  0  0  0  0  0  0  0  0  0
   38.0140   29.0310   40.9870 N   0  0  0  0  0  0  0  0  0  0  0  0
   34.7530   28.2630   40.6350 H   0  0  0  0  0  0  0  0  0  0  0  0
   34.7060   30.7300   40.5600 H   0  0  0  0  0  0  0  0  0  0  0  0
   36.6930   32.1010   40.7500 H   0  0  0  0  0  0  0  0  0  0  0  0
   37.5020   23.8120   38.3940 Cl  0  0  0  0  0  0  0  0  0  0  0  0
   37.2790   24.7900   39.8200 C   0  0  0  0  0  0  0  0  0  0  0  0
   37.1950   26.1480   39.7440 C   0  0  0  0  0  0  0  0  0  0  0  0
   37.0190   26.8100   40.9350 C   0  0  0  0  0  0  0  0  0  0  0  0
   36.9290   26.1970   42.1330 C   0  0  0  0  0  0  0  0  0  0  0  0
   37.0160   24.8210   42.2010 C   0  0  0  0  0  0  0  0  0  0  0  0
   37.1910   24.1310   41.0310 C   0  0  0  0  0  0  0  0  0  0  0  0
   36.7910   26.7100   43.0810 H   0  0  0  0  0  0  0  0  0  0  0  0
   36.9520   24.2620   43.1340 H   0  0  0  0  0  0  0  0  0  0  0  0
   37.2590   23.0520   41.0770 H   0  0  0  0  0  0  0  0  0  0  0  0
   36.3240   27.6490   36.3810 C   0  0  0  0  0  0  0  0  0  0  0  0
   36.2000   27.0340   37.6270 C   0  0  0  0  0  0  0  0  0  0  0  0
   37.2930   26.7860   38.4460 C   0  0  0  0  0  0  0  0  0  0  0  0
   38.4870   27.1870   37.9450 N   0  0  0  0  0  0  0  0  0  0  0  0
   38.6150   27.7790   36.7480 C   0  0  0  0  0  0  0  0  0  0  0  0
   37.5470   28.0120   35.9680 N   0  0  0  0  0  0  0  0  0  0  0  0
   35.4740   27.8330   35.7650 H   0  0  0  0  0  0  0  0  0  0  0  0
   35.2170   26.7400   37.9650 H   0  0  0  0  0  0  0  0  0  0  0  0
   39.6390   28.0360   36.4970 H   0  0  0  0  0  0  0  0  0  0  0  0
   39.0530   32.5650   40.4020 C   0  0  2  0  0  3  0  0  0  0  0  0
   39.2380   31.2080   41.0660 C   0  0  2  0  0  3  0  0  0  0  0  0
   40.3460   30.5460   40.4900 O   0  0  0  0  0  0  0  0  0  0  0  0
   41.4610   31.2510   40.9980 C   0  0  0  0  0  2  0  0  0  0  0  0
   41.4760   32.6630   40.4740 C   0  0  1  0  0  3  0  0  0  0  0  0
   40.2770   32.8640   39.5620 C   0  0  2  0  0  3  0  0  0  0  0  0
   38.8710   33.5720   41.3230 O   0  0  0  0  0  0  0  0  0  0  0  0
   37.9640   33.6690   41.6770 H   0  0  0  0  0  0  0  0  0  0  0  0
   41.3380   33.6000   41.5020 O   0  0  0  0  0  0  0  0  0  0  0  0
   41.6510   34.4870   41.1940 H   0  0  0  0  0  0  0  0  0  0  0  0
   40.2620   34.1610   39.0940 O   0  0  0  0  0  0  0  0  0  0  0  0
   39.4000   34.4390   38.7220 H   0  0  0  0  0  0  0  0  0  0  0  0
  1 13  1  0  0  0  0
  1  6  1  0  0  0  0
  2  1  2  0  0  0  0
  3  2  1  0  0  0  0
  3  4  2  0  0  0  0
  4  5  1  0  0  0  0
  5  6  2  0  0  0  0
  7  2  1  0  0  0  0
  8  3  1  0  0  0  0
  9  4  1  0  0  0  0
 10 11  1  0  0  0  0
 11 16  1  0  0  0  0
 12 11  2  0  0  0  0
 12 13  1  0  0  0  0
 13 14  2  0  0  0  0
 14 15  1  0  0  0  0
 14 17  1  0  0  0  0
 15 18  1  0  0  0  0
 16 19  1  0  0  0  0
 16 15  2  0  0  0  0
 20 21  1  0  0  0  0
 21 27  1  0  0  0  0
 21 22  2  0  0  0  0
 22 12  1  0  0  0  0
 23 22  1  0  0  0  0
 24 23  2  0  0  0  0
 25 20  2  0  0  0  0
 25 24  1  0  0  0  0
 26 20  1  0  0  0  0
 28 24  1  0  0  0  0
 29 30  1  0  0  0  0
 29 35  1  1  0  0  0
 30  5  1  6  0  0  0
 31 32  1  0  0  0  0
 31 30  1  0  0  0  0
 33 32  1  0  0  0  0
 33 37  1  1  0  0  0
 34 39  1  1  0  0  0
 34 29  1  0  0  0  0
 34 33  1  0  0  0  0
 35 36  1  0  0  0  0
 38 37  1  0  0  0  0
 40 39  1  0  0  0  0
M  END
>  <minimizedAffinity>
-6.73918915

$$$$

 OpenBabel03252502143D

 40 43  0  0  1  0  0  0  0  0999 V2000
   38.1790   28.2760   41.6870 C   0  0  0  0  0  0  0  0  0  0  0  0
   36.8300   28.5420   41.9370 C   0  0  0  0  0  0  0  0  0  0  0  0
   36.4690   29.8050   41.5250 C   0  0  0  0  0  0  0  0  0  0  0  0
   37.2620   30.7490   40.9360 C   0  0  0  0  0  0  0  0  0  0  0  0
   38.5860   30.3840   40.7320 C   0  0  0  0  0  0  0  0  0  0  0  0
   38.9840   29.1600   41.1190 N   0  0  0  0  0  0  0  0  0  0  0  0
   36.1550   27.8500   42.3930 H   0  0  0  0  0  0  0  0  0  0  0  0
   35.4040   30.0940   41.6900 H   0  0  0  0  0  0  0  0  0  0  0  0
   36.8690   31.7170   40.6510 H   0  0  0  0  0  0  0  0  0  0  0  0
   38.8730   23.2970   40.5590 Cl  0  0  0  0  0  0  0  0  0  0  0  0
   39.0070   24.7010   41.5840 C   0  0  0  0  0  0  0  0  0  0  0  0
   38.5270   25.9150   41.1920 C   0  0  0  0  0  0  0  0  0  0  0  0
   38.6900   26.9460   42.0850 C   0  0  0  0  0  0  0  0  0  0  0  0
   39.2820   26.8140   43.2900 C   0  0  0  0  0  0  0  0  0  0  0  0
   39.7650   25.5810   43.6800 C   0  0  0  0  0  0  0  0  0  0  0  0
   39.6190   24.5320   42.8110 C   0  0  0  0  0  0  0  0  0  0  0  0
   39.4160   27.6220   44.0040 H   0  0  0  0  0  0  0  0  0  0  0  0
   40.2540   25.4040   44.6370 H   0  0  0  0  0  0  0  0  0  0  0  0
   39.9950   23.5620   43.1100 H   0  0  0  0  0  0  0  0  0  0  0  0
   37.9310   26.5190   37.5040 C   0  0  0  0  0  0  0  0  0  0  0  0
   38.5670   26.4130   38.7410 C   0  0  0  0  0  0  0  0  0  0  0  0
   37.8940   26.0330   39.8940 C   0  0  0  0  0  0  0  0  0  0  0  0
   36.5730   25.7740   39.7270 N   0  0  0  0  0  0  0  0  0  0  0  0
   35.9550   25.8740   38.5410 C   0  0  0  0  0  0  0  0  0  0  0  0
   36.6210   26.2420   37.4350 N   0  0  0  0  0  0  0  0  0  0  0  0
   38.4640   26.8120   36.6290 H   0  0  0  0  0  0  0  0  0  0  0  0
   39.6230   26.6350   38.8030 H   0  0  0  0  0  0  0  0  0  0  0  0
   34.8970   25.6320   38.5800 H   0  0  0  0  0  0  0  0  0  0  0  0
   38.9590   31.8420   38.7460 C   0  0  2  0  0  3  0  0  0  0  0  0
   39.5050   31.3770   40.0890 C   0  0  2  0  0  3  0  0  0  0  0  0
   40.7940   30.8260   39.9120 O   0  0  0  0  0  0  0  0  0  0  0  0
   41.6100   31.9540   39.6630 C   0  0  0  0  0  2  0  0  0  0  0  0
   41.2300   32.6030   38.3590 C   0  0  1  0  0  3  0  0  0  0  0  0
   40.0850   31.8230   37.7330 C   0  0  2  0  0  3  0  0  0  0  0  0
   38.4240   33.1090   38.8140 O   0  0  0  0  0  0  0  0  0  0  0  0
   37.5100   33.1690   39.1590 H   0  0  0  0  0  0  0  0  0  0  0  0
   40.7520   33.9030   38.5450 O   0  0  0  0  0  0  0  0  0  0  0  0
   40.8000   34.4060   37.6950 H   0  0  0  0  0  0  0  0  0  0  0  0
   39.7080   32.4200   36.5500 O   0  0  0  0  0  0  0  0  0  0  0  0
   38.8260   32.1410   36.2260 H   0  0  0  0  0  0  0  0  0  0  0  0
  1  2  1  0  0  0  0
  1 13  1  0  0  0  0
  2  7  1  0  0  0  0
  3  8  1  0  0  0  0
  3  2  2  0  0  0  0
  4  3  1  0  0  0  0
  5  4  2  0  0  0  0
  5  6  1  0  0  0  0
  6  1  2  0  0  0  0
  9  4  1  0  0  0  0
 10 11  1  0  0  0  0
 11 16  1  0  0  0  0
 12 11  2  0  0  0  0
 12 13  1  0  0  0  0
 13 14  2  0  0  0  0
 14 15  1  0  0  0  0
 14 17  1  0  0  0  0
 15 18  1  0  0  0  0
 16 19  1  0  0  0  0
 16 15  2  0  0  0  0
 20 21  1  0  0  0  0
 21 27  1  0  0  0  0
 21 22  2  0  0  0  0
 22 12  1  0  0  0  0
 23 22  1  0  0  0  0
 24 28  1  0  0  0  0
 24 23  2  0  0  0  0
 25 20  2  0  0  0  0
 25 24  1  0  0  0  0
 26 20  1  0  0  0  0
 29 35  1  1  0  0  0
 29 30  1  0  0  0  0
 30  5  1  6  0  0  0
 31 30  1  0  0  0  0
 32 31  1  0  0  0  0
 33 37  1  1  0  0  0
 33 32  1  0  0  0  0
 34 39  1  6  0  0  0
 34 33  1  0  0  0  0
 34 29  1  0  0  0  0
 35 36  1  0  0  0  0
 38 37  1  0  0  0  0
 40 39  1  0  0  0  0
M  END
>  <minimizedAffinity>
-6.69188547

$$$$

 OpenBabel03252502143D

 40 43  0  0  1  0  0  0  0  0999 V2000
   37.6190   27.2150   41.3000 C   0  0  0  0  0  0  0  0  0  0  0  0
   37.3180   26.8580   42.6170 C   0  0  0  0  0  0  0  0  0  0  0  0
   37.3830   27.9370   43.4700 C   0  0  0  0  0  0  0  0  0  0  0  0
   37.6940   29.2300   43.1590 C   0  0  0  0  0  0  0  0  0  0  0  0
   37.9770   29.4770   41.8220 C   0  0  0  0  0  0  0  0  0  0  0  0
   37.9260   28.4540   40.9520 N   0  0  0  0  0  0  0  0  0  0  0  0
   37.0660   25.8670   42.9290 H   0  0  0  0  0  0  0  0  0  0  0  0
   37.1540   27.7330   44.5430 H   0  0  0  0  0  0  0  0  0  0  0  0
   37.7140   30.0030   43.9160 H   0  0  0  0  0  0  0  0  0  0  0  0
   40.0530   23.4250   38.7980 Cl  0  0  0  0  0  0  0  0  0  0  0  0
   38.6730   24.4310   39.1520 C   0  0  0  0  0  0  0  0  0  0  0  0
   38.7340   25.4140   40.0940 C   0  0  0  0  0  0  0  0  0  0  0  0
   37.5830   26.1400   40.2840 C   0  0  0  0  0  0  0  0  0  0  0  0
   36.4370   25.9300   39.6050 C   0  0  0  0  0  0  0  0  0  0  0  0
   36.3840   24.9310   38.6530 C   0  0  0  0  0  0  0  0  0  0  0  0
   37.5140   24.1880   38.4390 C   0  0  0  0  0  0  0  0  0  0  0  0
   35.5210   26.4970   39.7470 H   0  0  0  0  0  0  0  0  0  0  0  0
   35.4920   24.7070   38.0680 H   0  0  0  0  0  0  0  0  0  0  0  0
   37.4810   23.4040   37.6940 H   0  0  0  0  0  0  0  0  0  0  0  0
   41.5060   25.1860   42.6590 C   0  0  0  0  0  0  0  0  0  0  0  0
   40.3030   24.9650   41.9890 C   0  0  0  0  0  0  0  0  0  0  0  0
   39.9750   25.6230   40.8110 C   0  0  0  0  0  0  0  0  0  0  0  0
   40.9110   26.4950   40.3630 N   0  0  0  0  0  0  0  0  0  0  0  0
   42.0700   26.7140   41.0020 C   0  0  0  0  0  0  0  0  0  0  0  0
   42.3730   26.0690   42.1400 N   0  0  0  0  0  0  0  0  0  0  0  0
   41.7420   24.6710   43.5620 H   0  0  0  0  0  0  0  0  0  0  0  0
   39.6020   24.2540   42.4020 H   0  0  0  0  0  0  0  0  0  0  0  0
   42.7070   27.4430   40.5110 H   0  0  0  0  0  0  0  0  0  0  0  0
   37.4440   31.3550   40.2730 C   0  0  2  0  0  3  0  0  0  0  0  0
   38.3250   30.8780   41.4190 C   0  0  2  0  0  3  0  0  0  0  0  0
   39.6840   30.9670   41.0410 O   0  0  0  0  0  0  0  0  0  0  0  0
   39.9460   32.3570   41.0570 C   0  0  0  0  0  2  0  0  0  0  0  0
   39.1490   33.0570   39.9900 C   0  0  1  0  0  3  0  0  0  0  0  0
   38.3190   32.0290   39.2380 C   0  0  2  0  0  3  0  0  0  0  0  0
   36.4740   32.2350   40.6980 O   0  0  0  0  0  0  0  0  0  0  0  0
   35.6730   31.8320   41.0910 H   0  0  0  0  0  0  0  0  0  0  0  0
   38.2350   33.9640   40.5340 O   0  0  0  0  0  0  0  0  0  0  0  0
   37.9530   34.6150   39.8440 H   0  0  0  0  0  0  0  0  0  0  0  0
   37.5630   32.6590   38.2730 O   0  0  0  0  0  0  0  0  0  0  0  0
   36.8230   32.1160   37.9300 H   0  0  0  0  0  0  0  0  0  0  0  0
  1  2  1  0  0  0  0
  2  7  1  0  0  0  0
  2  3  2  0  0  0  0
  3  8  1  0  0  0  0
  4  3  1  0  0  0  0
  4  9  1  0  0  0  0
  5  4  2  0  0  0  0
  6  1  2  0  0  0  0
  6  5  1  0  0  0  0
 10 11  1  0  0  0  0
 11 12  1  0  0  0  0
 12 13  2  0  0  0  0
 12 22  1  0  0  0  0
 13  1  1  0  0  0  0
 14 17  1  0  0  0  0
 14 13  1  0  0  0  0
 15 14  2  0  0  0  0
 16 15  1  0  0  0  0
 16 11  2  0  0  0  0
 18 15  1  0  0  0  0
 19 16  1  0  0  0  0
 20 26  1  0  0  0  0
 21 27  1  0  0  0  0
 21 20  2  0  0  0  0
 22 21  1  0  0  0  0
 23 22  2  0  0  0  0
 23 24  1  0  0  0  0
 24 25  2  0  0  0  0
 25 20  1  0  0  0  0
 28 24  1  0  0  0  0
 29 35  1  1  0  0  0
 29 30  1  0  0  0  0
 30  5  1  6  0  0  0
 31 32  1  0  0  0  0
 31 30  1  0  0  0  0
 33 37  1  1  0  0  0
 33 32  1  0  0  0  0
 34 39  1  6  0  0  0
 34 33  1  0  0  0  0
 34 29  1  0  0  0  0
 35 36  1  0  0  0  0
 38 37  1  0  0  0  0
 40 39  1  0  0  0  0
M  END
>  <minimizedAffinity>
-6.65555668

$$$$

 OpenBabel03252502143D

 40 43  0  0  1  0  0  0  0  0999 V2000
   37.6050   26.8340   41.3860 C   0  0  0  0  0  0  0  0  0  0  0  0
   36.8620   27.0620   42.5470 C   0  0  0  0  0  0  0  0  0  0  0  0
   37.6700   27.2890   43.6380 C   0  0  0  0  0  0  0  0  0  0  0  0
   39.0350   27.3090   43.6770 C   0  0  0  0  0  0  0  0  0  0  0  0
   39.6760   27.0700   42.4690 C   0  0  0  0  0  0  0  0  0  0  0  0
   38.9290   26.8420   41.3760 N   0  0  0  0  0  0  0  0  0  0  0  0
   35.7940   27.0620   42.5860 H   0  0  0  0  0  0  0  0  0  0  0  0
   37.1490   27.4820   44.6060 H   0  0  0  0  0  0  0  0  0  0  0  0
   39.5700   27.5000   44.5980 H   0  0  0  0  0  0  0  0  0  0  0  0
   35.2350   28.6810   37.2010 Cl  0  0  0  0  0  0  0  0  0  0  0  0
   35.7800   27.4000   38.2520 C   0  0  0  0  0  0  0  0  0  0  0  0
   36.4740   27.6670   39.3940 C   0  0  0  0  0  0  0  0  0  0  0  0
   36.8500   26.5750   40.1400 C   0  0  0  0  0  0  0  0  0  0  0  0
   36.5710   25.2990   39.8040 C   0  0  0  0  0  0  0  0  0  0  0  0
   35.8670   25.0390   38.6460 C   0  0  0  0  0  0  0  0  0  0  0  0
   35.4780   26.1040   37.8790 C   0  0  0  0  0  0  0  0  0  0  0  0
   36.8630   24.4300   40.3860 H   0  0  0  0  0  0  0  0  0  0  0  0
   35.6080   24.0340   38.3150 H   0  0  0  0  0  0  0  0  0  0  0  0
   34.9250   25.9080   36.9690 H   0  0  0  0  0  0  0  0  0  0  0  0
   36.2350   31.1560   40.8380 C   0  0  0  0  0  0  0  0  0  0  0  0
   35.9330   29.8300   40.5250 C   0  0  0  0  0  0  0  0  0  0  0  0
   36.7620   29.0450   39.7360 C   0  0  0  0  0  0  0  0  0  0  0  0
   37.8850   29.6620   39.2930 N   0  0  0  0  0  0  0  0  0  0  0  0
   38.1810   30.9370   39.5890 C   0  0  0  0  0  0  0  0  0  0  0  0
   37.3700   31.6830   40.3550 N   0  0  0  0  0  0  0  0  0  0  0  0
   35.5870   31.7450   41.4470 H   0  0  0  0  0  0  0  0  0  0  0  0
   35.0210   29.4010   40.9130 H   0  0  0  0  0  0  0  0  0  0  0  0
   39.1170   31.2780   39.1550 H   0  0  0  0  0  0  0  0  0  0  0  0
   41.7350   25.6720   42.5950 C   0  0  2  0  0  3  0  0  0  0  0  0
   41.1750   27.0790   42.4480 C   0  0  2  0  0  3  0  0  0  0  0  0
   41.6850   27.9030   43.4770 O   0  0  0  0  0  0  0  0  0  0  0  0
   43.0340   28.1080   43.1040 C   0  0  0  0  0  2  0  0  0  0  0  0
   43.8000   26.8130   43.1610 C   0  0  1  0  0  3  0  0  0  0  0  0
   42.8620   25.7030   43.6070 C   0  0  2  0  0  3  0  0  0  0  0  0
   42.2050   25.1730   41.4010 O   0  0  0  0  0  0  0  0  0  0  0  0
   41.5300   24.7970   40.8000 H   0  0  0  0  0  0  0  0  0  0  0  0
   44.2730   26.4340   41.9020 O   0  0  0  0  0  0  0  0  0  0  0  0
   45.0070   25.7780   42.0000 H   0  0  0  0  0  0  0  0  0  0  0  0
   43.5430   24.5050   43.6390 O   0  0  0  0  0  0  0  0  0  0  0  0
   42.9610   23.7170   43.6590 H   0  0  0  0  0  0  0  0  0  0  0  0
  1  2  1  0  0  0  0
  2  7  1  0  0  0  0
  2  3  2  0  0  0  0
  3  4  1  0  0  0  0
  3  8  1  0  0  0  0
  4  9  1  0  0  0  0
  5  4  2  0  0  0  0
  6  1  2  0  0  0  0
  6  5  1  0  0  0  0
 10 11  1  0  0  0  0
 11 12  1  0  0  0  0
 12 22  1  0  0  0  0
 12 13  2  0  0  0  0
 13  1  1  0  0  0  0
 14 13  1  0  0  0  0
 14 17  1  0  0  0  0
 15 14  2  0  0  0  0
 16 11  2  0  0  0  0
 16 15  1  0  0  0  0
 18 15  1  0  0  0  0
 19 16  1  0  0  0  0
 20 26  1  0  0  0  0
 21 20  1  0  0  0  0
 21 27  1  0  0  0  0
 22 21  2  0  0  0  0
 23 24  2  0  0  0  0
 23 22  1  0  0  0  0
 24 25  1  0  0  0  0
 25 20  2  0  0  0  0
 28 24  1  0  0  0  0
 29 35  1  6  0  0  0
 29 34  1  0  0  0  0
 30  5  1  1  0  0  0
 30 29  1  0  0  0  0
 30 31  1  0  0  0  0
 32 33  1  0  0  0  0
 32 31  1  0  0  0  0
 33 37  1  6  0  0  0
 33 34  1  0  0  0  0
 34 39  1  6  0  0  0
 36 35  1  0  0  0  0
 37 38  1  0  0  0  0
 39 40  1  0  0  0  0
M  END
>  <minimizedAffinity>
-6.59851122

$$$$

 OpenBabel03252502143D

 40 43  0  0  1  0  0  0  0  0999 V2000
   35.7830   28.3860   40.1150 C   0  0  0  0  0  0  0  0  0  0  0  0
   34.6470   29.1920   40.0140 C   0  0  0  0  0  0  0  0  0  0  0  0
   33.9800   28.9950   38.8260 C   0  0  0  0  0  0  0  0  0  0  0  0
   34.3140   28.1410   37.8130 C   0  0  0  0  0  0  0  0  0  0  0  0
   35.4610   27.3860   38.0140 C   0  0  0  0  0  0  0  0  0  0  0  0
   36.1450   27.5440   39.1600 N   0  0  0  0  0  0  0  0  0  0  0  0
   34.3280   29.8800   40.7680 H   0  0  0  0  0  0  0  0  0  0  0  0
   33.0580   29.6040   38.6700 H   0  0  0  0  0  0  0  0  0  0  0  0
   33.7120   28.0670   36.9170 H   0  0  0  0  0  0  0  0  0  0  0  0
   39.5460   30.7550   42.7190 Cl  0  0  0  0  0  0  0  0  0  0  0  0
   38.2820   29.5680   42.5310 C   0  0  0  0  0  0  0  0  0  0  0  0
   37.5560   29.4800   41.3810 C   0  0  0  0  0  0  0  0  0  0  0  0
   36.5880   28.5050   41.3520 C   0  0  0  0  0  0  0  0  0  0  0  0
   36.3350   27.6620   42.3730 C   0  0  0  0  0  0  0  0  0  0  0  0
   37.0750   27.7580   43.5340 C   0  0  0  0  0  0  0  0  0  0  0  0
   38.0480   28.7200   43.5970 C   0  0  0  0  0  0  0  0  0  0  0  0
   35.5720   26.8880   42.3600 H   0  0  0  0  0  0  0  0  0  0  0  0
   36.9230   27.1100   44.3970 H   0  0  0  0  0  0  0  0  0  0  0  0
   38.6330   28.8010   44.5030 H   0  0  0  0  0  0  0  0  0  0  0  0
   37.5450   32.5020   39.1030 C   0  0  0  0  0  0  0  0  0  0  0  0
   37.2470   31.6410   40.1590 C   0  0  0  0  0  0  0  0  0  0  0  0
   37.8460   30.3960   40.2960 C   0  0  0  0  0  0  0  0  0  0  0  0
   38.7410   30.0810   39.3280 N   0  0  0  0  0  0  0  0  0  0  0  0
   39.0330   30.9040   38.3090 C   0  0  0  0  0  0  0  0  0  0  0  0
   38.4450   32.1050   38.1910 N   0  0  0  0  0  0  0  0  0  0  0  0
   37.0760   33.4550   39.0140 H   0  0  0  0  0  0  0  0  0  0  0  0
   36.5230   31.9550   40.8970 H   0  0  0  0  0  0  0  0  0  0  0  0
   39.7700   30.5000   37.6210 H   0  0  0  0  0  0  0  0  0  0  0  0
   36.1160   27.1540   35.6210 C   0  0  2  0  0  3  0  0  0  0  0  0
   35.8780   26.4300   36.9380 C   0  0  2  0  0  3  0  0  0  0  0  0
   34.9030   25.4230   36.7570 O   0  0  0  0  0  0  0  0  0  0  0  0
   35.5820   24.4270   36.0190 C   0  0  0  0  0  2  0  0  0  0  0  0
   35.9420   24.9370   34.6490 C   0  0  1  0  0  3  0  0  0  0  0  0
   35.4500   26.3690   34.5100 C   0  0  2  0  0  3  0  0  0  0  0  0
   37.4570   27.2950   35.3420 O   0  0  0  0  0  0  0  0  0  0  0  0
   37.9090   28.0410   35.7850 H   0  0  0  0  0  0  0  0  0  0  0  0
   37.3260   24.9880   34.4600 O   0  0  0  0  0  0  0  0  0  0  0  0
   37.5340   25.0240   33.4940 H   0  0  0  0  0  0  0  0  0  0  0  0
   35.7950   26.8600   33.2690 O   0  0  0  0  0  0  0  0  0  0  0  0
   35.7480   27.8360   33.2010 H   0  0  0  0  0  0  0  0  0  0  0  0
  1 13  1  0  0  0  0
  2  1  1  0  0  0  0
  2  7  1  0  0  0  0
  3  2  2  0  0  0  0
  4  5  2  0  0  0  0
  4  3  1  0  0  0  0
  5  6  1  0  0  0  0
  6  1  2  0  0  0  0
  8  3  1  0  0  0  0
  9  4  1  0  0  0  0
 11 10  1  0  0  0  0
 11 16  1  0  0  0  0
 12 11  2  0  0  0  0
 13 12  1  0  0  0  0
 13 14  2  0  0  0  0
 14 15  1  0  0  0  0
 15 16  2  0  0  0  0
 15 18  1  0  0  0  0
 16 19  1  0  0  0  0
 17 14  1  0  0  0  0
 20 21  1  0  0  0  0
 21 22  2  0  0  0  0
 21 27  1  0  0  0  0
 22 12  1  0  0  0  0
 23 22  1  0  0  0  0
 24 23  2  0  0  0  0
 25 24  1  0  0  0  0
 25 20  2  0  0  0  0
 26 20  1  0  0  0  0
 28 24  1  0  0  0  0
 29 35  1  6  0  0  0
 29 30  1  0  0  0  0
 30  5  1  1  0  0  0
 31 30  1  0  0  0  0
 32 31  1  0  0  0  0
 33 37  1  1  0  0  0
 33 32  1  0  0  0  0
 34 39  1  6  0  0  0
 34 33  1  0  0  0  0
 34 29  1  0  0  0  0
 35 36  1  0  0  0  0
 38 37  1  0  0  0  0
 40 39  1  0  0  0  0
M  END
>  <minimizedAffinity>
-6.5785718

$$$$

 OpenBabel03252502143D

 40 43  0  0  1  0  0  0  0  0999 V2000
   39.3640   28.5430   41.6030 C   0  0  0  0  0  0  0  0  0  0  0  0
   39.0520   29.0960   42.8480 C   0  0  0  0  0  0  0  0  0  0  0  0
   39.3530   30.4380   42.9040 C   0  0  0  0  0  0  0  0  0  0  0  0
   39.8890   31.2160   41.9170 C   0  0  0  0  0  0  0  0  0  0  0  0
   40.1610   30.5690   40.7200 C   0  0  0  0  0  0  0  0  0  0  0  0
   39.8850   29.2580   40.6180 N   0  0  0  0  0  0  0  0  0  0  0  0
   38.6310   28.5450   43.6620 H   0  0  0  0  0  0  0  0  0  0  0  0
   39.1310   30.9540   43.8690 H   0  0  0  0  0  0  0  0  0  0  0  0
   40.0840   32.2690   42.0740 H   0  0  0  0  0  0  0  0  0  0  0  0
   36.3330   24.8470   39.6800 Cl  0  0  0  0  0  0  0  0  0  0  0  0
   37.7260   25.4300   40.5520 C   0  0  0  0  0  0  0  0  0  0  0  0
   37.9570   26.7640   40.7090 C   0  0  0  0  0  0  0  0  0  0  0  0
   39.0870   27.1010   41.4160 C   0  0  0  0  0  0  0  0  0  0  0  0
   39.9450   26.2040   41.9410 C   0  0  0  0  0  0  0  0  0  0  0  0
   39.7030   24.8540   41.7770 C   0  0  0  0  0  0  0  0  0  0  0  0
   38.5850   24.4840   41.0770 C   0  0  0  0  0  0  0  0  0  0  0  0
   40.8400   26.4590   42.5010 H   0  0  0  0  0  0  0  0  0  0  0  0
   40.3540   24.0760   42.1740 H   0  0  0  0  0  0  0  0  0  0  0  0
   38.3890   23.4280   40.9450 H   0  0  0  0  0  0  0  0  0  0  0  0
   35.0660   29.1630   40.2600 C   0  0  0  0  0  0  0  0  0  0  0  0
   35.9520   28.2530   40.8370 C   0  0  0  0  0  0  0  0  0  0  0  0
   37.0220   27.7110   40.1380 C   0  0  0  0  0  0  0  0  0  0  0  0
   37.1400   28.1330   38.8550 N   0  0  0  0  0  0  0  0  0  0  0  0
   36.2920   29.0080   38.2930 C   0  0  0  0  0  0  0  0  0  0  0  0
   35.2620   29.5230   38.9830 N   0  0  0  0  0  0  0  0  0  0  0  0
   34.2490   29.5700   40.8120 H   0  0  0  0  0  0  0  0  0  0  0  0
   35.7980   27.9600   41.8650 H   0  0  0  0  0  0  0  0  0  0  0  0
   36.5280   29.2400   37.2590 H   0  0  0  0  0  0  0  0  0  0  0  0
   39.6630   31.9430   38.7020 C   0  0  2  0  0  3  0  0  0  0  0  0
   40.7500   31.3700   39.5990 C   0  0  2  0  0  3  0  0  0  0  0  0
   41.6330   30.5800   38.8290 O   0  0  0  0  0  0  0  0  0  0  0  0
   42.3690   31.5290   38.0820 C   0  0  0  0  0  2  0  0  0  0  0  0
   41.4710   32.2510   37.1140 C   0  0  1  0  0  3  0  0  0  0  0  0
   40.0560   31.7140   37.2570 C   0  0  2  0  0  3  0  0  0  0  0  0
   39.4700   33.2890   38.9170 O   0  0  0  0  0  0  0  0  0  0  0  0
   38.9050   33.5230   39.6810 H   0  0  0  0  0  0  0  0  0  0  0  0
   41.3930   33.6170   37.3960 O   0  0  0  0  0  0  0  0  0  0  0  0
   41.0670   34.1080   36.6020 H   0  0  0  0  0  0  0  0  0  0  0  0
   39.2150   32.3830   36.3940 O   0  0  0  0  0  0  0  0  0  0  0  0
   38.2650   32.2830   36.6080 H   0  0  0  0  0  0  0  0  0  0  0  0
  1  2  1  0  0  0  0
  2  3  2  0  0  0  0
  2  7  1  0  0  0  0
  3  8  1  0  0  0  0
  4  9  1  0  0  0  0
  4  3  1  0  0  0  0
  5  4  2  0  0  0  0
  6  5  1  0  0  0  0
  6  1  2  0  0  0  0
 10 11  1  0  0  0  0
 11 12  2  0  0  0  0
 11 16  1  0  0  0  0
 12 13  1  0  0  0  0
 13  1  1  0  0  0  0
 13 14  2  0  0  0  0
 14 17  1  0  0  0  0
 15 14  1  0  0  0  0
 15 18  1  0  0  0  0
 16 15  2  0  0  0  0
 19 16  1  0  0  0  0
 20 26  1  0  0  0  0
 20 21  1  0  0  0  0
 21 27  1  0  0  0  0
 22 12  1  0  0  0  0
 22 21  2  0  0  0  0
 23 22  1  0  0  0  0
 24 23  2  0  0  0  0
 24 25  1  0  0  0  0
 25 20  2  0  0  0  0
 28 24  1  0  0  0  0
 29 35  1  6  0  0  0
 29 30  1  0  0  0  0
 30  5  1  1  0  0  0
 31 30  1  0  0  0  0
 32 31  1  0  0  0  0
 33 34  1  0  0  0  0
 33 37  1  1  0  0  0
 33 32  1  0  0  0  0
 34 39  1  6  0  0  0
 34 29  1  0  0  0  0
 35 36  1  0  0  0  0
 38 37  1  0  0  0  0
 39 40  1  0  0  0  0
M  END
>  <minimizedAffinity>
-6.56201649

$$$$
