
 OpenBabel03242511353D

 38 40  0  0  1  0  0  0  0  0999 V2000
   38.9530   28.8230   42.6340 C   0  0  0  0  0  0  0  0  0  0  0  0
   40.3040   28.5730   42.9190 C   0  0  0  0  0  0  0  0  0  0  0  0
   41.2720   29.5090   42.5550 C   0  0  0  0  0  0  0  0  0  0  0  0
   40.8400   30.6320   41.9320 N   0  0  0  0  0  0  0  0  0  0  0  0
   39.5400   30.8450   41.6720 C   0  0  0  0  0  0  0  0  0  0  0  0
   38.6250   29.9510   42.0210 N   0  0  0  0  0  0  0  0  0  0  0  0
   40.6730   27.6700   43.4230 H   0  0  0  0  0  0  0  0  0  0  0  0
   42.3250   29.3470   42.7590 H   0  0  0  0  0  0  0  0  0  0  0  0
   37.9670   31.9550   40.1260 C   0  0  2  0  0  3  0  0  0  0  0  0
   39.1710   32.1280   40.9750 C   0  0  2  0  0  3  0  0  0  0  0  0
   40.3000   32.6140   40.3970 O   0  0  0  0  0  0  0  0  0  0  0  0
   40.1690   33.1590   39.1390 C   0  0  0  0  0  2  0  0  0  0  0  0
   39.6320   32.0410   38.2430 C   0  0  1  0  0  3  0  0  0  0  0  0
   38.2090   31.8070   38.6590 C   0  0  2  0  0  3  0  0  0  0  0  0
   37.0120   32.9490   40.3790 O   0  0  0  0  0  0  0  0  0  0  0  0
   36.3020   32.6430   40.9940 H   0  0  0  0  0  0  0  0  0  0  0  0
   39.7210   32.4390   36.9190 O   0  0  0  0  0  0  0  0  0  0  0  0
   39.8530   31.6640   36.3160 H   0  0  0  0  0  0  0  0  0  0  0  0
   37.4230   32.7390   37.9780 O   0  0  0  0  0  0  0  0  0  0  0  0
   37.1040   33.4780   38.5270 H   0  0  0  0  0  0  0  0  0  0  0  0
   38.0020   27.7950   43.0480 C   0  0  0  0  0  3  0  0  0  0  0  0
   37.6940   26.8290   42.2110 C   0  0  0  0  0  3  0  0  0  0  0  0
   36.7430   25.7540   42.5550 C   0  0  0  0  0  0  0  0  0  0  0  0
   36.7090   25.6470   43.6640 H   0  0  0  0  0  0  0  0  0  0  0  0
   35.7150   25.9590   42.2220 H   0  0  0  0  0  0  0  0  0  0  0  0
   38.7080   23.5840   40.4220 C   0  0  1  0  0  0  0  0  0  0  0  0
   38.7110   24.4010   41.7230 C   0  0  0  0  0  0  0  0  0  0  0  0
   37.2590   24.3990   42.0420 C   0  0  2  0  0  0  0  0  0  0  0  0
   36.5520   23.9600   40.9550 O   0  0  0  0  0  0  0  0  0  0  0  0
   37.3660   23.9830   39.8430 C   0  0  0  0  0  0  0  0  0  0  0  0
   38.7170   22.5020   40.6470 H   0  0  0  0  0  0  0  0  0  0  0  0
   39.0960   25.4050   41.4700 H   0  0  0  0  0  0  0  0  0  0  0  0
   39.3410   23.8780   42.4660 H   0  0  0  0  0  0  0  0  0  0  0  0
   37.1100   23.6900   42.8920 H   0  0  0  0  0  0  0  0  0  0  0  0
   37.0350   23.1520   39.1730 H   0  0  0  0  0  0  0  0  0  0  0  0
   37.3930   24.9400   39.3230 H   0  0  0  0  0  0  0  0  0  0  0  0
   39.7760   23.9610   39.6220 O   0  0  0  0  0  0  0  0  0  0  0  0
   39.3780   24.2240   38.7390 H   0  0  0  0  0  0  0  0  0  0  0  0
  1  2  1  0  0  0  0
  1 21  1  0  0  0  0
  2  7  1  0  0  0  0
  3  8  1  0  0  0  0
  3  2  2  0  0  0  0
  4  3  1  0  0  0  0
  5  4  2  0  0  0  0
  5  6  1  0  0  0  0
  6  1  2  0  0  0  0
  9 15  1  6  0  0  0
  9 10  1  0  0  0  0
 10  5  1  6  0  0  0
 11 10  1  0  0  0  0
 12 11  1  0  0  0  0
 13 17  1  6  0  0  0
 13 14  1  0  0  0  0
 13 12  1  0  0  0  0
 14 19  1  6  0  0  0
 14  9  1  0  0  0  0
 15 16  1  0  0  0  0
 18 17  1  0  0  0  0
 19 20  1  0  0  0  0
 22 23  1  0  0  0  0
 22 21  2  0  0  0  0
 23 24  1  0  0  0  0
 25 23  1  0  0  0  0
 26 31  1  1  0  0  0
 26 27  1  0  0  0  0
 27 28  1  0  0  0  0
 27 33  1  0  0  0  0
 28 23  1  0  0  0  0
 28 34  1  1  0  0  0
 29 28  1  0  0  0  0
 30 26  1  0  0  0  0
 30 29  1  0  0  0  0
 32 27  1  0  0  0  0
 35 30  1  0  0  0  0
 36 30  1  0  0  0  0
 37 26  1  0  0  0  0
 38 37  1  0  0  0  0
M  END
>  <minimizedAffinity>
-6.34176445

$$$$

 OpenBabel03242511353D

 38 40  0  0  1  0  0  0  0  0999 V2000
   37.2890   27.9840   38.5120 C   0  0  0  0  0  0  0  0  0  0  0  0
   36.3560   27.6060   37.5340 C   0  0  0  0  0  0  0  0  0  0  0  0
   35.8910   28.5520   36.6190 C   0  0  0  0  0  0  0  0  0  0  0  0
   36.3800   29.8110   36.7330 N   0  0  0  0  0  0  0  0  0  0  0  0
   37.2720   30.1440   37.6790 C   0  0  0  0  0  0  0  0  0  0  0  0
   37.7100   29.2400   38.5450 N   0  0  0  0  0  0  0  0  0  0  0  0
   35.9490   26.5920   37.4260 H   0  0  0  0  0  0  0  0  0  0  0  0
   35.1700   28.2940   35.8520 H   0  0  0  0  0  0  0  0  0  0  0  0
   39.2260   31.6470   37.8170 C   0  0  2  0  0  3  0  0  0  0  0  0
   37.7490   31.5720   37.7150 C   0  0  2  0  0  3  0  0  0  0  0  0
   37.0060   32.2230   38.6480 O   0  0  0  0  0  0  0  0  0  0  0  0
   37.6710   33.1190   39.4560 C   0  0  0  0  0  2  0  0  0  0  0  0
   38.7440   32.3140   40.1940 C   0  0  1  0  0  3  0  0  0  0  0  0
   39.7800   31.9480   39.1720 C   0  0  2  0  0  3  0  0  0  0  0  0
   39.7660   32.5070   36.8520 O   0  0  0  0  0  0  0  0  0  0  0  0
   40.1070   32.0220   36.0620 H   0  0  0  0  0  0  0  0  0  0  0  0
   39.2750   33.0920   41.2100 O   0  0  0  0  0  0  0  0  0  0  0  0
   39.5800   32.5350   41.9700 H   0  0  0  0  0  0  0  0  0  0  0  0
   40.6550   33.0310   39.0680 O   0  0  0  0  0  0  0  0  0  0  0  0
   40.5420   33.5680   38.2630 H   0  0  0  0  0  0  0  0  0  0  0  0
   37.7250   26.9360   39.4300 C   0  0  0  0  0  3  0  0  0  0  0  0
   36.8690   26.4420   40.2970 C   0  0  0  0  0  3  0  0  0  0  0  0
   37.2330   25.3820   41.2570 C   0  0  0  0  0  0  0  0  0  0  0  0
   36.3780   24.6740   41.3490 H   0  0  0  0  0  0  0  0  0  0  0  0
   38.1050   24.7900   40.9420 H   0  0  0  0  0  0  0  0  0  0  0  0
   37.5500   28.0580   43.6770 C   0  0  1  0  0  0  0  0  0  0  0  0
   36.5580   27.1620   42.9200 C   0  0  0  0  0  0  0  0  0  0  0  0
   37.4120   25.9730   42.6650 C   0  0  2  0  0  0  0  0  0  0  0  0
   38.7200   26.2850   42.9270 O   0  0  0  0  0  0  0  0  0  0  0  0
   38.8520   27.6550   43.0160 C   0  0  0  0  0  0  0  0  0  0  0  0
   37.5700   27.7900   44.7490 H   0  0  0  0  0  0  0  0  0  0  0  0
   36.2800   27.7000   41.9970 H   0  0  0  0  0  0  0  0  0  0  0  0
   35.6890   26.9650   43.5760 H   0  0  0  0  0  0  0  0  0  0  0  0
   37.0760   25.1700   43.3640 H   0  0  0  0  0  0  0  0  0  0  0  0
   39.6720   27.8610   43.7480 H   0  0  0  0  0  0  0  0  0  0  0  0
   39.0200   28.1550   42.0630 H   0  0  0  0  0  0  0  0  0  0  0  0
   37.2320   29.3930   43.4760 O   0  0  0  0  0  0  0  0  0  0  0  0
   38.0650   29.8210   43.1130 H   0  0  0  0  0  0  0  0  0  0  0  0
  1  6  1  0  0  0  0
  1 21  1  0  0  0  0
  2  1  2  0  0  0  0
  3  4  2  0  0  0  0
  3  2  1  0  0  0  0
  4  5  1  0  0  0  0
  5  6  2  0  0  0  0
  7  2  1  0  0  0  0
  8  3  1  0  0  0  0
  9 15  1  6  0  0  0
  9 14  1  0  0  0  0
 10  5  1  1  0  0  0
 10  9  1  0  0  0  0
 10 11  1  0  0  0  0
 11 12  1  0  0  0  0
 12 13  1  0  0  0  0
 13 17  1  1  0  0  0
 14 19  1  6  0  0  0
 14 13  1  0  0  0  0
 16 15  1  0  0  0  0
 17 18  1  0  0  0  0
 20 19  1  0  0  0  0
 21 22  2  0  0  0  0
 22 23  1  0  0  0  0
 23 24  1  0  0  0  0
 23 28  1  0  0  0  0
 25 23  1  0  0  0  0
 26 31  1  1  0  0  0
 27 33  1  0  0  0  0
 27 26  1  0  0  0  0
 28 27  1  0  0  0  0
 28 29  1  0  0  0  0
 28 34  1  1  0  0  0
 29 30  1  0  0  0  0
 30 26  1  0  0  0  0
 30 35  1  0  0  0  0
 32 27  1  0  0  0  0
 36 30  1  0  0  0  0
 37 26  1  0  0  0  0
 38 37  1  0  0  0  0
M  END
>  <minimizedAffinity>
-6.3353405

$$$$

 OpenBabel03242511353D

 38 40  0  0  1  0  0  0  0  0999 V2000
   38.1770   31.9870   38.9470 C   0  0  0  0  0  0  0  0  0  0  0  0
   37.5150   32.9170   39.7630 C   0  0  0  0  0  0  0  0  0  0  0  0
   38.2040   34.0340   40.2370 C   0  0  0  0  0  0  0  0  0  0  0  0
   39.5030   34.1580   39.8710 N   0  0  0  0  0  0  0  0  0  0  0  0
   40.1100   33.2520   39.0890 C   0  0  0  0  0  0  0  0  0  0  0  0
   39.4500   32.1920   38.6420 N   0  0  0  0  0  0  0  0  0  0  0  0
   36.4640   32.8340   40.0700 H   0  0  0  0  0  0  0  0  0  0  0  0
   37.7240   34.7720   40.8700 H   0  0  0  0  0  0  0  0  0  0  0  0
   41.8480   33.1050   37.3410 C   0  0  2  0  0  3  0  0  0  0  0  0
   41.5570   33.4870   38.7440 C   0  0  2  0  0  3  0  0  0  0  0  0
   42.3040   32.9280   39.7310 O   0  0  0  0  0  0  0  0  0  0  0  0
   43.4440   32.2580   39.3430 C   0  0  0  0  0  2  0  0  0  0  0  0
   42.9830   31.1330   38.4130 C   0  0  1  0  0  3  0  0  0  0  0  0
   42.5280   31.7900   37.1420 C   0  0  2  0  0  3  0  0  0  0  0  0
   42.5220   34.1270   36.6590 O   0  0  0  0  0  0  0  0  0  0  0  0
   41.9150   34.6770   36.1070 H   0  0  0  0  0  0  0  0  0  0  0  0
   44.0400   30.2650   38.1930 O   0  0  0  0  0  0  0  0  0  0  0  0
   43.7210   29.3410   38.0320 H   0  0  0  0  0  0  0  0  0  0  0  0
   43.6630   31.9860   36.3530 O   0  0  0  0  0  0  0  0  0  0  0  0
   43.9760   32.9070   36.3160 H   0  0  0  0  0  0  0  0  0  0  0  0
   37.3860   30.8470   38.4940 C   0  0  0  0  0  3  0  0  0  0  0  0
   37.3760   29.7450   39.2100 C   0  0  0  0  0  3  0  0  0  0  0  0
   36.6020   28.5500   38.8180 C   0  0  0  0  0  0  0  0  0  0  0  0
   35.6660   28.8800   38.3120 H   0  0  0  0  0  0  0  0  0  0  0  0
   37.1350   27.8990   38.1110 H   0  0  0  0  0  0  0  0  0  0  0  0
   36.4830   27.8040   42.3610 C   0  0  1  0  0  0  0  0  0  0  0  0
   35.8820   28.6650   41.2400 C   0  0  0  0  0  0  0  0  0  0  0  0
   36.1290   27.7860   40.0670 C   0  0  2  0  0  0  0  0  0  0  0  0
   36.9990   26.7890   40.4170 O   0  0  0  0  0  0  0  0  0  0  0  0
   37.6050   27.1120   41.6130 C   0  0  0  0  0  0  0  0  0  0  0  0
   35.7450   27.0590   42.7110 H   0  0  0  0  0  0  0  0  0  0  0  0
   36.4660   29.6020   41.2080 H   0  0  0  0  0  0  0  0  0  0  0  0
   34.8120   28.8370   41.4620 H   0  0  0  0  0  0  0  0  0  0  0  0
   35.1480   27.3370   39.7790 H   0  0  0  0  0  0  0  0  0  0  0  0
   37.8160   26.1530   42.1470 H   0  0  0  0  0  0  0  0  0  0  0  0
   38.4970   27.7310   41.5150 H   0  0  0  0  0  0  0  0  0  0  0  0
   36.9380   28.6140   43.3900 O   0  0  0  0  0  0  0  0  0  0  0  0
   37.9040   28.3740   43.5210 H   0  0  0  0  0  0  0  0  0  0  0  0
  1  2  1  0  0  0  0
  2  7  1  0  0  0  0
  2  3  2  0  0  0  0
  3  8  1  0  0  0  0
  4  3  1  0  0  0  0
  5  4  2  0  0  0  0
  6  1  2  0  0  0  0
  6  5  1  0  0  0  0
  9 15  1  1  0  0  0
  9 10  1  0  0  0  0
 10  5  1  1  0  0  0
 10 11  1  0  0  0  0
 12 11  1  0  0  0  0
 13 17  1  6  0  0  0
 13 12  1  0  0  0  0
 14 19  1  6  0  0  0
 14  9  1  0  0  0  0
 14 13  1  0  0  0  0
 16 15  1  0  0  0  0
 18 17  1  0  0  0  0
 20 19  1  0  0  0  0
 21  1  1  0  0  0  0
 21 22  2  0  0  0  0
 23 22  1  0  0  0  0
 23 28  1  0  0  0  0
 24 23  1  0  0  0  0
 25 23  1  0  0  0  0
 26 31  1  1  0  0  0
 26 37  1  0  0  0  0
 27 33  1  0  0  0  0
 27 26  1  0  0  0  0
 28 34  1  6  0  0  0
 28 29  1  0  0  0  0
 28 27  1  0  0  0  0
 29 30  1  0  0  0  0
 30 35  1  0  0  0  0
 30 26  1  0  0  0  0
 32 27  1  0  0  0  0
 36 30  1  0  0  0  0
 37 38  1  0  0  0  0
M  END
>  <minimizedAffinity>
-6.11273432

$$$$

 OpenBabel03242511353D

 38 40  0  0  1  0  0  0  0  0999 V2000
   36.8830   29.1430   41.0670 C   0  0  0  0  0  0  0  0  0  0  0  0
   36.9480   28.6940   42.3950 C   0  0  0  0  0  0  0  0  0  0  0  0
   38.0710   28.9890   43.1700 C   0  0  0  0  0  0  0  0  0  0  0  0
   39.0550   29.7090   42.5780 N   0  0  0  0  0  0  0  0  0  0  0  0
   38.9650   30.1250   41.3050 C   0  0  0  0  0  0  0  0  0  0  0  0
   37.8950   29.8420   40.5750 N   0  0  0  0  0  0  0  0  0  0  0  0
   36.1620   28.1110   42.8910 H   0  0  0  0  0  0  0  0  0  0  0  0
   38.1550   28.6580   44.1980 H   0  0  0  0  0  0  0  0  0  0  0  0
   39.7680   32.3530   40.6070 C   0  0  2  0  0  3  0  0  0  0  0  0
   40.1170   30.9190   40.7480 C   0  0  2  0  0  3  0  0  0  0  0  0
   40.5710   30.2570   39.6520 O   0  0  0  0  0  0  0  0  0  0  0  0
   40.9270   31.0260   38.5660 C   0  0  0  0  0  2  0  0  0  0  0  0
   39.6690   31.7950   38.1570 C   0  0  1  0  0  3  0  0  0  0  0  0
   39.4270   32.8180   39.2290 C   0  0  2  0  0  3  0  0  0  0  0  0
   40.7410   33.1790   41.1880 O   0  0  0  0  0  0  0  0  0  0  0  0
   40.4900   33.4760   42.0960 H   0  0  0  0  0  0  0  0  0  0  0  0
   39.8800   32.3860   36.9210 O   0  0  0  0  0  0  0  0  0  0  0  0
   39.0350   32.4700   36.4110 H   0  0  0  0  0  0  0  0  0  0  0  0
   40.2140   33.9290   38.9210 O   0  0  0  0  0  0  0  0  0  0  0  0
   41.0070   34.0300   39.4790 H   0  0  0  0  0  0  0  0  0  0  0  0
   35.6750   28.7930   40.3250 C   0  0  0  0  0  3  0  0  0  0  0  0
   35.5700   29.1460   39.0630 C   0  0  0  0  0  3  0  0  0  0  0  0
   34.3820   28.8290   38.2460 C   0  0  0  0  0  0  0  0  0  0  0  0
   33.7210   28.1450   38.8260 H   0  0  0  0  0  0  0  0  0  0  0  0
   33.7810   29.7140   37.9900 H   0  0  0  0  0  0  0  0  0  0  0  0
   36.3880   28.1000   35.3200 C   0  0  1  0  0  0  0  0  0  0  0  0
   36.2600   27.8910   36.8360 C   0  0  0  0  0  0  0  0  0  0  0  0
   34.7880   28.0240   37.0000 C   0  0  2  0  0  0  0  0  0  0  0  0
   34.2450   28.5440   35.8560 O   0  0  0  0  0  0  0  0  0  0  0  0
   35.2500   29.0710   35.0730 C   0  0  0  0  0  0  0  0  0  0  0  0
   36.2000   27.1530   34.7830 H   0  0  0  0  0  0  0  0  0  0  0  0
   36.8240   28.7080   37.3210 H   0  0  0  0  0  0  0  0  0  0  0  0
   36.6570   26.8900   37.0880 H   0  0  0  0  0  0  0  0  0  0  0  0
   34.3820   26.9990   37.1700 H   0  0  0  0  0  0  0  0  0  0  0  0
   34.9370   28.9500   34.0060 H   0  0  0  0  0  0  0  0  0  0  0  0
   35.5110   30.1030   35.3070 H   0  0  0  0  0  0  0  0  0  0  0  0
   37.6300   28.6360   35.0180 O   0  0  0  0  0  0  0  0  0  0  0  0
   37.4480   29.4780   34.5020 H   0  0  0  0  0  0  0  0  0  0  0  0
  1  2  1  0  0  0  0
  2  7  1  0  0  0  0
  2  3  2  0  0  0  0
  3  8  1  0  0  0  0
  4  3  1  0  0  0  0
  5  4  2  0  0  0  0
  6  1  2  0  0  0  0
  6  5  1  0  0  0  0
  9 10  1  0  0  0  0
  9 15  1  6  0  0  0
 10  5  1  6  0  0  0
 11 10  1  0  0  0  0
 12 11  1  0  0  0  0
 13 17  1  6  0  0  0
 13 12  1  0  0  0  0
 13 14  1  0  0  0  0
 14 19  1  6  0  0  0
 14  9  1  0  0  0  0
 15 16  1  0  0  0  0
 18 17  1  0  0  0  0
 19 20  1  0  0  0  0
 21  1  1  0  0  0  0
 22 21  2  0  0  0  0
 23 24  1  0  0  0  0
 23 22  1  0  0  0  0
 25 23  1  0  0  0  0
 26 31  1  6  0  0  0
 26 27  1  0  0  0  0
 27 28  1  0  0  0  0
 27 33  1  0  0  0  0
 27 32  1  0  0  0  0
 28 34  1  1  0  0  0
 28 23  1  0  0  0  0
 29 28  1  0  0  0  0
 30 36  1  0  0  0  0
 30 26  1  0  0  0  0
 30 29  1  0  0  0  0
 35 30  1  0  0  0  0
 37 26  1  0  0  0  0
 38 37  1  0  0  0  0
M  END
>  <minimizedAffinity>
-5.98801422

$$$$

 OpenBabel03242511353D

 38 40  0  0  1  0  0  0  0  0999 V2000
   37.4590   27.9970   42.0580 C   0  0  0  0  0  0  0  0  0  0  0  0
   38.3930   28.6680   42.8630 C   0  0  0  0  0  0  0  0  0  0  0  0
   38.7370   29.9880   42.5700 C   0  0  0  0  0  0  0  0  0  0  0  0
   38.1330   30.5580   41.4990 N   0  0  0  0  0  0  0  0  0  0  0  0
   37.2430   29.8920   40.7470 C   0  0  0  0  0  0  0  0  0  0  0  0
   36.9210   28.6380   41.0310 N   0  0  0  0  0  0  0  0  0  0  0  0
   38.8920   28.2230   43.7340 H   0  0  0  0  0  0  0  0  0  0  0  0
   39.4550   30.5360   43.1700 H   0  0  0  0  0  0  0  0  0  0  0  0
   36.7960   29.8600   38.3190 C   0  0  2  0  0  3  0  0  0  0  0  0
   36.6320   30.6220   39.5800 C   0  0  2  0  0  3  0  0  0  0  0  0
   37.0860   31.9020   39.6210 O   0  0  0  0  0  0  0  0  0  0  0  0
   37.4200   32.4810   38.4160 C   0  0  0  0  0  2  0  0  0  0  0  0
   38.5280   31.6130   37.8160 C   0  0  1  0  0  3  0  0  0  0  0  0
   37.8820   30.3220   37.4030 C   0  0  2  0  0  3  0  0  0  0  0  0
   35.5800   29.7340   37.6320 O   0  0  0  0  0  0  0  0  0  0  0  0
   35.1430   28.8630   37.7950 H   0  0  0  0  0  0  0  0  0  0  0  0
   39.0890   32.2760   36.7370 O   0  0  0  0  0  0  0  0  0  0  0  0
   40.0430   32.0340   36.6210 H   0  0  0  0  0  0  0  0  0  0  0  0
   37.3420   30.5230   36.1310 O   0  0  0  0  0  0  0  0  0  0  0  0
   36.3720   30.6190   36.1130 H   0  0  0  0  0  0  0  0  0  0  0  0
   37.1550   26.6200   42.4320 C   0  0  0  0  0  3  0  0  0  0  0  0
   37.1760   25.6830   41.5100 C   0  0  0  0  0  3  0  0  0  0  0  0
   36.8800   24.2670   41.8090 C   0  0  0  0  0  0  0  0  0  0  0  0
   37.0460   24.0890   42.8960 H   0  0  0  0  0  0  0  0  0  0  0  0
   35.8380   23.9860   41.5950 H   0  0  0  0  0  0  0  0  0  0  0  0
   39.1250   23.3060   39.1340 C   0  0  1  0  0  0  0  0  0  0  0  0
   39.0060   24.0840   40.4530 C   0  0  0  0  0  0  0  0  0  0  0  0
   37.8870   23.3480   41.0970 C   0  0  2  0  0  0  0  0  0  0  0  0
   37.2790   22.5410   40.1740 O   0  0  0  0  0  0  0  0  0  0  0  0
   37.6790   22.9150   38.9080 C   0  0  0  0  0  0  0  0  0  0  0  0
   39.7450   22.4020   39.2750 H   0  0  0  0  0  0  0  0  0  0  0  0
   38.7450   25.1240   40.1890 H   0  0  0  0  0  0  0  0  0  0  0  0
   39.9690   24.0110   40.9930 H   0  0  0  0  0  0  0  0  0  0  0  0
   38.3290   22.7190   41.9060 H   0  0  0  0  0  0  0  0  0  0  0  0
   37.6800   21.9930   38.2760 H   0  0  0  0  0  0  0  0  0  0  0  0
   37.0840   23.7130   38.4640 H   0  0  0  0  0  0  0  0  0  0  0  0
   39.6230   24.1330   38.1390 O   0  0  0  0  0  0  0  0  0  0  0  0
   38.9530   24.0970   37.3910 H   0  0  0  0  0  0  0  0  0  0  0  0
  1 21  1  0  0  0  0
  1  2  1  0  0  0  0
  2  7  1  0  0  0  0
  3  2  2  0  0  0  0
  3  8  1  0  0  0  0
  4  3  1  0  0  0  0
  5  6  1  0  0  0  0
  5  4  2  0  0  0  0
  6  1  2  0  0  0  0
  9 15  1  6  0  0  0
  9 10  1  0  0  0  0
 10 11  1  0  0  0  0
 10  5  1  1  0  0  0
 12 11  1  0  0  0  0
 13 17  1  6  0  0  0
 13 12  1  0  0  0  0
 14 19  1  6  0  0  0
 14 13  1  0  0  0  0
 14  9  1  0  0  0  0
 15 16  1  0  0  0  0
 18 17  1  0  0  0  0
 20 19  1  0  0  0  0
 22 23  1  0  0  0  0
 22 21  2  0  0  0  0
 23 24  1  0  0  0  0
 25 23  1  0  0  0  0
 26 31  1  1  0  0  0
 26 27  1  0  0  0  0
 27 33  1  0  0  0  0
 27 28  1  0  0  0  0
 28 23  1  0  0  0  0
 28 34  1  1  0  0  0
 29 28  1  0  0  0  0
 30 26  1  0  0  0  0
 30 29  1  0  0  0  0
 32 27  1  0  0  0  0
 35 30  1  0  0  0  0
 36 30  1  0  0  0  0
 37 26  1  0  0  0  0
 38 37  1  0  0  0  0
M  END
>  <minimizedAffinity>
-5.86351871

$$$$

 OpenBabel03242511353D

 38 40  0  0  1  0  0  0  0  0999 V2000
   36.5110   28.6830   39.3370 C   0  0  0  0  0  0  0  0  0  0  0  0
   36.1890   28.0200   38.1430 C   0  0  0  0  0  0  0  0  0  0  0  0
   36.3760   28.6670   36.9210 C   0  0  0  0  0  0  0  0  0  0  0  0
   36.8700   29.9280   36.9610 N   0  0  0  0  0  0  0  0  0  0  0  0
   37.1690   30.5370   38.1190 C   0  0  0  0  0  0  0  0  0  0  0  0
   36.9890   29.9170   39.2770 N   0  0  0  0  0  0  0  0  0  0  0  0
   35.7880   26.9990   38.0910 H   0  0  0  0  0  0  0  0  0  0  0  0
   36.1370   28.1850   35.9800 H   0  0  0  0  0  0  0  0  0  0  0  0
   39.1740   31.9680   38.2980 C   0  0  2  0  0  3  0  0  0  0  0  0
   37.7130   31.9400   38.0480 C   0  0  2  0  0  3  0  0  0  0  0  0
   36.9140   32.7220   38.8200 O   0  0  0  0  0  0  0  0  0  0  0  0
   37.5390   33.6780   39.5910 C   0  0  0  0  0  2  0  0  0  0  0  0
   38.4900   32.9210   40.5220 C   0  0  1  0  0  3  0  0  0  0  0  0
   39.6040   32.4000   39.6620 C   0  0  2  0  0  3  0  0  0  0  0  0
   39.8520   32.6900   37.3060 O   0  0  0  0  0  0  0  0  0  0  0  0
   40.2460   32.1040   36.6140 H   0  0  0  0  0  0  0  0  0  0  0  0
   38.9560   33.7890   41.4960 O   0  0  0  0  0  0  0  0  0  0  0  0
   39.1530   33.3110   42.3410 H   0  0  0  0  0  0  0  0  0  0  0  0
   40.5390   33.4290   39.5330 O   0  0  0  0  0  0  0  0  0  0  0  0
   40.5350   33.8730   38.6660 H   0  0  0  0  0  0  0  0  0  0  0  0
   36.2860   27.9380   40.5720 C   0  0  0  0  0  3  0  0  0  0  0  0
   37.2990   27.3380   41.1560 C   0  0  0  0  0  3  0  0  0  0  0  0
   37.1530   26.5650   42.4060 C   0  0  0  0  0  0  0  0  0  0  0  0
   37.6250   27.1370   43.2370 H   0  0  0  0  0  0  0  0  0  0  0  0
   36.1040   26.3940   42.6910 H   0  0  0  0  0  0  0  0  0  0  0  0
   38.8320   23.8490   40.6970 C   0  0  1  0  0  0  0  0  0  0  0  0
   38.9980   25.2670   41.2640 C   0  0  0  0  0  0  0  0  0  0  0  0
   37.9530   25.2550   42.3210 C   0  0  2  0  0  0  0  0  0  0  0  0
   37.1380   24.1680   42.1470 O   0  0  0  0  0  0  0  0  0  0  0  0
   37.3440   23.6420   40.8890 C   0  0  0  0  0  0  0  0  0  0  0  0
   39.3980   23.1220   41.3060 H   0  0  0  0  0  0  0  0  0  0  0  0
   38.7730   25.9690   40.4430 H   0  0  0  0  0  0  0  0  0  0  0  0
   40.0300   25.3750   41.6470 H   0  0  0  0  0  0  0  0  0  0  0  0
   38.4780   25.1700   43.3030 H   0  0  0  0  0  0  0  0  0  0  0  0
   37.1690   22.5400   40.9590 H   0  0  0  0  0  0  0  0  0  0  0  0
   36.7440   24.1010   40.1040 H   0  0  0  0  0  0  0  0  0  0  0  0
   39.2140   23.8240   39.3640 O   0  0  0  0  0  0  0  0  0  0  0  0
   38.4260   23.4590   38.8600 H   0  0  0  0  0  0  0  0  0  0  0  0
  1 21  1  0  0  0  0
  2  1  2  0  0  0  0
  3  4  2  0  0  0  0
  3  2  1  0  0  0  0
  4  5  1  0  0  0  0
  5  6  2  0  0  0  0
  6  1  1  0  0  0  0
  7  2  1  0  0  0  0
  8  3  1  0  0  0  0
  9 15  1  6  0  0  0
  9 14  1  0  0  0  0
 10  5  1  1  0  0  0
 10  9  1  0  0  0  0
 10 11  1  0  0  0  0
 11 12  1  0  0  0  0
 12 13  1  0  0  0  0
 13 17  1  1  0  0  0
 14 19  1  6  0  0  0
 14 13  1  0  0  0  0
 16 15  1  0  0  0  0
 17 18  1  0  0  0  0
 20 19  1  0  0  0  0
 21 22  2  0  0  0  0
 22 23  1  0  0  0  0
 23 25  1  0  0  0  0
 23 24  1  0  0  0  0
 26 30  1  0  0  0  0
 26 27  1  0  0  0  0
 26 31  1  1  0  0  0
 27 33  1  0  0  0  0
 27 28  1  0  0  0  0
 28 23  1  0  0  0  0
 28 34  1  1  0  0  0
 29 28  1  0  0  0  0
 30 35  1  0  0  0  0
 30 29  1  0  0  0  0
 32 27  1  0  0  0  0
 36 30  1  0  0  0  0
 37 26  1  0  0  0  0
 38 37  1  0  0  0  0
M  END
>  <minimizedAffinity>
-5.8347888

$$$$

 OpenBabel03242511353D

 38 40  0  0  1  0  0  0  0  0999 V2000
   34.4440   28.8020   36.9040 C   0  0  0  0  0  0  0  0  0  0  0  0
   35.2380   28.5830   35.7670 C   0  0  0  0  0  0  0  0  0  0  0  0
   36.6070   28.8500   35.8170 C   0  0  0  0  0  0  0  0  0  0  0  0
   37.1000   29.3160   36.9910 N   0  0  0  0  0  0  0  0  0  0  0  0
   36.3170   29.5150   38.0620 C   0  0  0  0  0  0  0  0  0  0  0  0
   35.0170   29.2590   38.0070 N   0  0  0  0  0  0  0  0  0  0  0  0
   34.8560   28.2060   34.8090 H   0  0  0  0  0  0  0  0  0  0  0  0
   37.2490   28.6930   34.9580 H   0  0  0  0  0  0  0  0  0  0  0  0
   36.3810   31.3300   39.7350 C   0  0  2  0  0  3  0  0  0  0  0  0
   36.9700   30.0360   39.3150 C   0  0  2  0  0  3  0  0  0  0  0  0
   38.3140   29.9720   39.1270 O   0  0  0  0  0  0  0  0  0  0  0  0
   39.0580   31.0330   39.5950 C   0  0  0  0  0  2  0  0  0  0  0  0
   38.5430   32.2730   38.8610 C   0  0  1  0  0  3  0  0  0  0  0  0
   37.1730   32.5540   39.4070 C   0  0  2  0  0  3  0  0  0  0  0  0
   36.0190   31.3150   41.0890 O   0  0  0  0  0  0  0  0  0  0  0  0
   35.0560   31.1330   41.2200 H   0  0  0  0  0  0  0  0  0  0  0  0
   39.4130   33.3270   39.0880 O   0  0  0  0  0  0  0  0  0  0  0  0
   39.4240   33.9570   38.3230 H   0  0  0  0  0  0  0  0  0  0  0  0
   37.3420   33.3050   40.5710 O   0  0  0  0  0  0  0  0  0  0  0  0
   37.1970   32.8100   41.3980 H   0  0  0  0  0  0  0  0  0  0  0  0
   33.0230   28.4980   36.7680 C   0  0  0  0  0  3  0  0  0  0  0  0
   32.1690   29.4800   36.5820 C   0  0  0  0  0  3  0  0  0  0  0  0
   30.7180   29.2540   36.4360 C   0  0  0  0  0  0  0  0  0  0  0  0
   30.5550   28.2380   36.0080 H   0  0  0  0  0  0  0  0  0  0  0  0
   30.1740   29.2900   37.3910 H   0  0  0  0  0  0  0  0  0  0  0  0
   30.6950   32.2120   34.3460 C   0  0  1  0  0  0  0  0  0  0  0  0
   31.1350   30.7430   34.4350 C   0  0  0  0  0  0  0  0  0  0  0  0
   30.1280   30.2210   35.3950 C   0  0  2  0  0  0  0  0  0  0  0  0
   29.4710   31.2680   35.9850 O   0  0  0  0  0  0  0  0  0  0  0  0
   30.1690   32.4340   35.7490 C   0  0  0  0  0  0  0  0  0  0  0  0
   29.8760   32.3240   33.6120 H   0  0  0  0  0  0  0  0  0  0  0  0
   32.1620   30.7410   34.8430 H   0  0  0  0  0  0  0  0  0  0  0  0
   31.0760   30.2950   33.4260 H   0  0  0  0  0  0  0  0  0  0  0  0
   29.4000   29.6100   34.8090 H   0  0  0  0  0  0  0  0  0  0  0  0
   29.4210   33.2620   35.6960 H   0  0  0  0  0  0  0  0  0  0  0  0
   30.9570   32.6420   36.4730 H   0  0  0  0  0  0  0  0  0  0  0  0
   31.7830   33.0160   34.0430 O   0  0  0  0  0  0  0  0  0  0  0  0
   31.8230   33.7080   34.7690 H   0  0  0  0  0  0  0  0  0  0  0  0
  1  6  1  0  0  0  0
  2  3  1  0  0  0  0
  2  1  2  0  0  0  0
  3  4  2  0  0  0  0
  4  5  1  0  0  0  0
  6  5  2  0  0  0  0
  7  2  1  0  0  0  0
  8  3  1  0  0  0  0
  9 15  1  1  0  0  0
 10  5  1  6  0  0  0
 10  9  1  0  0  0  0
 11 10  1  0  0  0  0
 11 12  1  0  0  0  0
 13 17  1  1  0  0  0
 13 14  1  0  0  0  0
 13 12  1  0  0  0  0
 14  9  1  0  0  0  0
 14 19  1  1  0  0  0
 15 16  1  0  0  0  0
 18 17  1  0  0  0  0
 19 20  1  0  0  0  0
 21  1  1  0  0  0  0
 22 21  2  0  0  0  0
 23 22  1  0  0  0  0
 23 25  1  0  0  0  0
 24 23  1  0  0  0  0
 26 31  1  6  0  0  0
 26 27  1  0  0  0  0
 26 30  1  0  0  0  0
 27 32  1  0  0  0  0
 27 28  1  0  0  0  0
 28 34  1  6  0  0  0
 28 29  1  0  0  0  0
 28 23  1  0  0  0  0
 30 29  1  0  0  0  0
 30 36  1  0  0  0  0
 33 27  1  0  0  0  0
 35 30  1  0  0  0  0
 37 26  1  0  0  0  0
 37 38  1  0  0  0  0
M  END
>  <minimizedAffinity>
-5.74596024

$$$$

 OpenBabel03242511353D

 38 40  0  0  1  0  0  0  0  0999 V2000
   37.1630   28.3490   41.7180 C   0  0  0  0  0  0  0  0  0  0  0  0
   35.9470   28.6810   41.1010 C   0  0  0  0  0  0  0  0  0  0  0  0
   35.7560   29.9700   40.6010 C   0  0  0  0  0  0  0  0  0  0  0  0
   36.7810   30.8450   40.7450 N   0  0  0  0  0  0  0  0  0  0  0  0
   37.9330   30.4980   41.3400 C   0  0  0  0  0  0  0  0  0  0  0  0
   38.1090   29.2720   41.8120 N   0  0  0  0  0  0  0  0  0  0  0  0
   35.1060   27.9870   40.9750 H   0  0  0  0  0  0  0  0  0  0  0  0
   34.8290   30.2620   40.1200 H   0  0  0  0  0  0  0  0  0  0  0  0
   38.6610   32.7570   40.6580 C   0  0  2  0  0  3  0  0  0  0  0  0
   39.0060   31.5500   41.4460 C   0  0  2  0  0  3  0  0  0  0  0  0
   40.1950   30.9390   41.2010 O   0  0  0  0  0  0  0  0  0  0  0  0
   41.1030   31.6360   40.4330 C   0  0  0  0  0  2  0  0  0  0  0  0
   40.4220   31.8870   39.0860 C   0  0  1  0  0  3  0  0  0  0  0  0
   39.3430   32.9010   39.3360 C   0  0  2  0  0  3  0  0  0  0  0  0
   38.7950   33.9250   41.4210 O   0  0  0  0  0  0  0  0  0  0  0  0
   37.9320   34.2380   41.7870 H   0  0  0  0  0  0  0  0  0  0  0  0
   41.3630   32.3500   38.1810 O   0  0  0  0  0  0  0  0  0  0  0  0
   41.1350   32.0830   37.2550 H   0  0  0  0  0  0  0  0  0  0  0  0
   39.9430   34.1600   39.2750 O   0  0  0  0  0  0  0  0  0  0  0  0
   40.0740   34.5890   40.1400 H   0  0  0  0  0  0  0  0  0  0  0  0
   37.2840   26.9810   42.2130 C   0  0  0  0  0  3  0  0  0  0  0  0
   36.9600   25.9800   41.4260 C   0  0  0  0  0  3  0  0  0  0  0  0
   37.0540   24.5700   41.8530 C   0  0  0  0  0  0  0  0  0  0  0  0
   37.3310   24.5410   42.9320 H   0  0  0  0  0  0  0  0  0  0  0  0
   36.1080   24.0200   41.7500 H   0  0  0  0  0  0  0  0  0  0  0  0
   38.8430   23.3250   38.9590 C   0  0  1  0  0  0  0  0  0  0  0  0
   38.6200   24.5440   39.8670 C   0  0  0  0  0  0  0  0  0  0  0  0
   38.2140   23.8680   41.1270 C   0  0  2  0  0  0  0  0  0  0  0  0
   37.9360   22.5520   40.8710 O   0  0  0  0  0  0  0  0  0  0  0  0
   37.8030   22.3700   39.5110 C   0  0  0  0  0  0  0  0  0  0  0  0
   39.8560   22.9120   39.1130 H   0  0  0  0  0  0  0  0  0  0  0  0
   37.8060   25.1370   39.4140 H   0  0  0  0  0  0  0  0  0  0  0  0
   39.5690   25.1080   39.9390 H   0  0  0  0  0  0  0  0  0  0  0  0
   39.0800   23.9330   41.8290 H   0  0  0  0  0  0  0  0  0  0  0  0
   38.1510   21.3340   39.2790 H   0  0  0  0  0  0  0  0  0  0  0  0
   36.8020   22.5610   39.1260 H   0  0  0  0  0  0  0  0  0  0  0  0
   38.6120   23.6700   37.6370 O   0  0  0  0  0  0  0  0  0  0  0  0
   37.9190   23.0260   37.3020 H   0  0  0  0  0  0  0  0  0  0  0  0
  1  6  1  0  0  0  0
  1 21  1  0  0  0  0
  2  1  2  0  0  0  0
  3  4  2  0  0  0  0
  3  2  1  0  0  0  0
  4  5  1  0  0  0  0
  5  6  2  0  0  0  0
  7  2  1  0  0  0  0
  8  3  1  0  0  0  0
  9 15  1  1  0  0  0
  9 10  1  0  0  0  0
 10  5  1  6  0  0  0
 11 10  1  0  0  0  0
 12 11  1  0  0  0  0
 13 17  1  6  0  0  0
 13 14  1  0  0  0  0
 13 12  1  0  0  0  0
 14 19  1  1  0  0  0
 14  9  1  0  0  0  0
 15 16  1  0  0  0  0
 18 17  1  0  0  0  0
 19 20  1  0  0  0  0
 22 23  1  0  0  0  0
 22 21  2  0  0  0  0
 23 24  1  0  0  0  0
 25 23  1  0  0  0  0
 26 31  1  1  0  0  0
 26 30  1  0  0  0  0
 26 27  1  0  0  0  0
 27 33  1  0  0  0  0
 27 28  1  0  0  0  0
 28 34  1  1  0  0  0
 28 23  1  0  0  0  0
 29 28  1  0  0  0  0
 30 29  1  0  0  0  0
 32 27  1  0  0  0  0
 35 30  1  0  0  0  0
 36 30  1  0  0  0  0
 37 26  1  0  0  0  0
 38 37  1  0  0  0  0
M  END
>  <minimizedAffinity>
-5.73776102

$$$$

 OpenBabel03242511353D

 38 40  0  0  1  0  0  0  0  0999 V2000
   40.7790   28.5360   38.4860 C   0  0  0  0  0  0  0  0  0  0  0  0
   41.9360   28.5850   37.6930 C   0  0  0  0  0  0  0  0  0  0  0  0
   42.2770   29.7710   37.0410 C   0  0  0  0  0  0  0  0  0  0  0  0
   41.4500   30.8300   37.2170 N   0  0  0  0  0  0  0  0  0  0  0  0
   40.3500   30.7530   37.9820 C   0  0  0  0  0  0  0  0  0  0  0  0
   40.0310   29.6240   38.5990 N   0  0  0  0  0  0  0  0  0  0  0  0
   42.6170   27.7380   37.5390 H   0  0  0  0  0  0  0  0  0  0  0  0
   43.1630   29.8440   36.4210 H   0  0  0  0  0  0  0  0  0  0  0  0
   39.7520   32.6900   39.3920 C   0  0  2  0  0  3  0  0  0  0  0  0
   39.5020   31.9920   38.1080 C   0  0  2  0  0  3  0  0  0  0  0  0
   38.2250   31.6390   37.8060 O   0  0  0  0  0  0  0  0  0  0  0  0
   37.2280   32.1900   38.5820 C   0  0  0  0  0  2  0  0  0  0  0  0
   37.5080   31.7420   40.0180 C   0  0  1  0  0  3  0  0  0  0  0  0
   38.7340   32.4830   40.4660 C   0  0  2  0  0  3  0  0  0  0  0  0
   40.0020   34.0550   39.1940 O   0  0  0  0  0  0  0  0  0  0  0  0
   40.9680   34.2650   39.1930 H   0  0  0  0  0  0  0  0  0  0  0  0
   36.4100   32.0400   40.8080 O   0  0  0  0  0  0  0  0  0  0  0  0
   36.3170   31.3960   41.5560 H   0  0  0  0  0  0  0  0  0  0  0  0
   38.3120   33.7310   40.9310 O   0  0  0  0  0  0  0  0  0  0  0  0
   38.4990   34.4720   40.3270 H   0  0  0  0  0  0  0  0  0  0  0  0
   40.4920   27.2590   39.1330 C   0  0  0  0  0  3  0  0  0  0  0  0
   39.4870   27.1760   39.9770 C   0  0  0  0  0  3  0  0  0  0  0  0
   39.1350   25.9220   40.6710 C   0  0  0  0  0  0  0  0  0  0  0  0
   38.8080   25.1730   39.9130 H   0  0  0  0  0  0  0  0  0  0  0  0
   39.9770   25.4760   41.2190 H   0  0  0  0  0  0  0  0  0  0  0  0
   36.7000   27.8950   42.4870 C   0  0  1  0  0  0  0  0  0  0  0  0
   37.0390   27.2600   41.1300 C   0  0  0  0  0  0  0  0  0  0  0  0
   37.9060   26.1360   41.5710 C   0  0  2  0  0  0  0  0  0  0  0  0
   38.2570   26.3160   42.8820 O   0  0  0  0  0  0  0  0  0  0  0  0
   37.9750   27.6130   43.2550 C   0  0  0  0  0  0  0  0  0  0  0  0
   35.8500   27.3690   42.9570 H   0  0  0  0  0  0  0  0  0  0  0  0
   37.5840   28.0220   40.5460 H   0  0  0  0  0  0  0  0  0  0  0  0
   36.0970   26.9440   40.6440 H   0  0  0  0  0  0  0  0  0  0  0  0
   37.3060   25.2000   41.4730 H   0  0  0  0  0  0  0  0  0  0  0  0
   37.7100   27.5950   44.3410 H   0  0  0  0  0  0  0  0  0  0  0  0
   38.7700   28.3270   43.0410 H   0  0  0  0  0  0  0  0  0  0  0  0
   36.4540   29.2500   42.3280 O   0  0  0  0  0  0  0  0  0  0  0  0
   37.0830   29.7190   42.9540 H   0  0  0  0  0  0  0  0  0  0  0  0
  1  6  1  0  0  0  0
  1 21  1  0  0  0  0
  2  1  2  0  0  0  0
  3  4  2  0  0  0  0
  3  2  1  0  0  0  0
  4  5  1  0  0  0  0
  5  6  2  0  0  0  0
  7  2  1  0  0  0  0
  8  3  1  0  0  0  0
  9 15  1  6  0  0  0
  9 14  1  0  0  0  0
 10  5  1  1  0  0  0
 10  9  1  0  0  0  0
 11 10  1  0  0  0  0
 11 12  1  0  0  0  0
 12 13  1  0  0  0  0
 13 14  1  0  0  0  0
 13 17  1  1  0  0  0
 14 19  1  6  0  0  0
 16 15  1  0  0  0  0
 17 18  1  0  0  0  0
 20 19  1  0  0  0  0
 21 22  2  0  0  0  0
 22 23  1  0  0  0  0
 23 25  1  0  0  0  0
 23 28  1  0  0  0  0
 24 23  1  0  0  0  0
 26 31  1  1  0  0  0
 26 30  1  0  0  0  0
 27 28  1  0  0  0  0
 27 26  1  0  0  0  0
 28 34  1  6  0  0  0
 28 29  1  0  0  0  0
 29 30  1  0  0  0  0
 30 35  1  0  0  0  0
 32 27  1  0  0  0  0
 33 27  1  0  0  0  0
 36 30  1  0  0  0  0
 37 26  1  0  0  0  0
 37 38  1  0  0  0  0
M  END
>  <minimizedAffinity>
-5.66593552

$$$$
