
 OpenBabel03242518263D

 48 52  0  0  1  0  0  0  0  0999 V2000
   46.6360   30.6870   44.6060 C   0  0  0  0  0  0  0  0  0  0  0  0
   46.1380   31.9310   44.8470 C   0  0  0  0  0  0  0  0  0  0  0  0
   46.4470   32.5260   46.0530 C   0  0  0  0  0  0  0  0  0  0  0  0
   47.2330   31.8790   46.9780 C   0  0  0  0  0  0  0  0  0  0  0  0
   47.7330   30.6090   46.7130 C   0  0  0  0  0  0  0  0  0  0  0  0
   47.4310   29.9950   45.5030 C   0  0  0  0  0  0  0  0  0  0  0  0
   48.4850   30.2060   47.8150 O   0  0  0  0  0  0  0  0  0  0  0  0
   48.1880   31.0990   48.8820 C   0  0  2  0  0  0  0  0  0  0  0  0
   47.6900   32.2500   48.2560 O   0  0  0  0  0  0  0  0  0  0  0  0
   46.4470   30.1390   43.6870 H   0  0  0  0  0  0  0  0  0  0  0  0
   46.0750   33.5130   46.2900 H   0  0  0  0  0  0  0  0  0  0  0  0
   47.8290   29.0240   45.3360 H   0  0  0  0  0  0  0  0  0  0  0  0
   47.4040   30.6860   49.5580 H   0  0  0  0  0  0  0  0  0  0  0  0
   44.4970   34.5790   42.8690 C   0  0  0  0  0  0  0  0  0  0  0  0
   43.7240   33.8540   41.9820 C   0  0  0  0  0  0  0  0  0  0  0  0
   43.7760   32.4640   42.0730 C   0  0  0  0  0  0  0  0  0  0  0  0
   44.5590   31.8600   43.0030 N   0  0  0  0  0  0  0  0  0  0  0  0
   45.3050   32.6090   43.8580 C   0  0  0  0  0  0  0  0  0  0  0  0
   45.2660   33.9590   43.7840 N   0  0  0  0  0  0  0  0  0  0  0  0
   44.5670   35.6560   42.9270 H   0  0  0  0  0  0  0  0  0  0  0  0
   43.1720   31.9220   41.3780 H   0  0  0  0  0  0  0  0  0  0  0  0
   42.9460   34.5790   41.0550 N   0  0  0  0  0  0  0  0  0  0  0  0
   43.1150   34.2920   39.6580 C   0  0  0  0  0  0  0  0  0  0  0  0
   42.3270   35.1650   38.7550 C   0  0  0  0  0  0  0  0  0  0  0  0
   40.9710   35.3350   39.1700 N   0  0  0  0  0  0  0  0  0  0  0  0
   40.6950   35.3540   40.5500 C   0  0  0  0  0  0  0  0  0  0  0  0
   41.9800   35.5990   41.3420 C   0  0  0  0  0  0  0  0  0  0  0  0
   42.9250   33.1970   39.5010 H   0  0  0  0  0  0  0  0  0  0  0  0
   44.2040   34.4380   39.4250 H   0  0  0  0  0  0  0  0  0  0  0  0
   42.7930   36.1460   38.6420 H   0  0  0  0  0  0  0  0  0  0  0  0
   42.3350   34.6970   37.7390 H   0  0  0  0  0  0  0  0  0  0  0  0
   40.5880   36.1970   38.7160 H   0  0  0  0  0  0  0  0  0  0  0  0
   40.3280   34.3570   40.8730 H   0  0  0  0  0  0  0  0  0  0  0  0
   39.9180   36.0700   40.8650 H   0  0  0  0  0  0  0  0  0  0  0  0
   41.7130   35.6880   42.4110 H   0  0  0  0  0  0  0  0  0  0  0  0
   42.3920   36.5760   41.0120 H   0  0  0  0  0  0  0  0  0  0  0  0
   49.6670   30.3000   50.6840 C   0  0  2  0  0  3  0  0  0  0  0  0
   49.4840   31.3300   49.6040 C   0  0  1  0  0  3  0  0  0  0  0  0
   50.5070   31.3740   48.6850 O   0  0  0  0  0  0  0  0  0  0  0  0
   51.6530   30.7100   49.0460 C   0  0  0  0  0  2  0  0  0  0  0  0
   52.0450   30.8610   50.4830 C   0  0  2  0  0  3  0  0  0  0  0  0
   50.9170   30.7270   51.4590 C   0  0  2  0  0  3  0  0  0  0  0  0
   49.7580   29.0050   50.2240 O   0  0  0  0  0  0  0  0  0  0  0  0
   48.9700   28.4480   50.4360 H   0  0  0  0  0  0  0  0  0  0  0  0
   52.7470   32.0520   50.6660 O   0  0  0  0  0  0  0  0  0  0  0  0
   52.1780   32.8380   50.5980 H   0  0  0  0  0  0  0  0  0  0  0  0
   51.1540   29.8300   52.4850 O   0  0  0  0  0  0  0  0  0  0  0  0
   50.9860   30.2530   53.3820 H   0  0  0  0  0  0  0  0  0  0  0  0
  1  2  2  0  0  0  0
  1  6  1  0  0  0  0
  2  3  1  0  0  0  0
  3 11  1  0  0  0  0
  3  4  2  0  0  0  0
  4  9  1  0  0  0  0
  5  4  1  0  0  0  0
  5  7  1  0  0  0  0
  6  5  2  0  0  0  0
  7  8  1  0  0  0  0
  8 13  1  1  0  0  0
  8 38  1  0  0  0  0
  9  8  1  0  0  0  0
 10  1  1  0  0  0  0
 12  6  1  0  0  0  0
 14 20  1  0  0  0  0
 14 19  1  0  0  0  0
 15 16  1  0  0  0  0
 15 14  2  0  0  0  0
 16 17  2  0  0  0  0
 17 18  1  0  0  0  0
 18  2  1  0  0  0  0
 19 18  2  0  0  0  0
 21 16  1  0  0  0  0
 22 27  1  0  0  0  0
 22 15  1  0  0  0  0
 23 22  1  0  0  0  0
 24 25  1  0  0  0  0
 24 23  1  0  0  0  0
 25 26  1  0  0  0  0
 26 34  1  0  0  0  0
 26 33  1  0  0  0  0
 26 27  1  0  0  0  0
 27 35  1  0  0  0  0
 28 23  1  0  0  0  0
 29 23  1  0  0  0  0
 30 24  1  0  0  0  0
 31 24  1  0  0  0  0
 32 25  1  0  0  0  0
 36 27  1  0  0  0  0
 37 43  1  6  0  0  0
 37 42  1  0  0  0  0
 38 39  1  6  0  0  0
 38 37  1  0  0  0  0
 39 40  1  0  0  0  0
 40 41  1  0  0  0  0
 41 45  1  6  0  0  0
 41 42  1  0  0  0  0
 42 47  1  1  0  0  0
 43 44  1  0  0  0  0
 46 45  1  0  0  0  0
 47 48  1  0  0  0  0
M  END
>  <minimizedAffinity>
-6.29382801

>  <minimizedRMSD>
0.659826994

$$$$
