
 OpenBabel03252504213D

 22 23  0  0  1  0  0  0  0  0999 V2000
   46.8770   31.9930   46.9330 C   0  0  2  0  0  3  0  0  0  0  0  0
   45.8710   31.8490   45.8380 C   0  0  2  0  0  3  0  0  0  0  0  0
   45.5440   30.5220   45.7150 O   0  0  0  0  0  0  0  0  0  0  0  0
   44.9230   29.9420   46.7820 C   0  0  0  0  0  2  0  0  0  0  0  0
   45.2900   30.4560   48.1300 C   0  0  2  0  0  3  0  0  0  0  0  0
   46.5160   31.2830   48.1910 C   0  0  2  0  0  3  0  0  0  0  0  0
   46.2740   33.3960   42.5060 C   0  0  0  0  0  0  0  0  0  0  0  0
   47.5940   33.0970   42.1690 C   0  0  0  0  0  0  0  0  0  0  0  0
   48.3560   32.3490   43.1050 C   0  0  0  0  0  0  0  0  0  0  0  0
   47.7450   31.9840   44.2530 N   0  0  0  0  0  0  0  0  0  0  0  0
   46.4650   32.2940   44.5440 C   0  0  0  0  0  0  0  0  0  0  0  0
   45.7210   33.0030   43.6690 N   0  0  0  0  0  0  0  0  0  0  0  0
   48.0610   33.4000   41.2430 H   0  0  0  0  0  0  0  0  0  0  0  0
   49.3750   32.1060   42.8690 H   0  0  0  0  0  0  0  0  0  0  0  0
   45.3810   34.3490   41.2560 S   0  0  0  0  0  0  0  0  0  0  0  0
   44.1200   33.7530   41.1110 H   0  0  0  0  0  0  0  0  0  0  0  0
   47.0290   33.3580   47.2050 O   0  0  0  0  0  0  0  0  0  0  0  0
   46.1580   33.8140   47.0770 H   0  0  0  0  0  0  0  0  0  0  0  0
   45.4450   29.3730   49.0050 O   0  0  0  0  0  0  0  0  0  0  0  0
   46.1220   28.7650   48.5960 H   0  0  0  0  0  0  0  0  0  0  0  0
   46.3420   32.1790   49.2700 O   0  0  0  0  0  0  0  0  0  0  0  0
   46.2960   33.1090   48.9930 H   0  0  0  0  0  0  0  0  0  0  0  0
  1 17  1  1  0  0  0
  1  6  1  0  0  0  0
  2 11  1  6  0  0  0
  2  1  1  0  0  0  0
  3  2  1  0  0  0  0
  3  4  1  0  0  0  0
  4  5  1  0  0  0  0
  5  6  1  0  0  0  0
  5 19  1  1  0  0  0
  6 21  1  1  0  0  0
  7 12  1  0  0  0  0
  8  7  2  0  0  0  0
  8  9  1  0  0  0  0
  9 10  2  0  0  0  0
 10 11  1  0  0  0  0
 12 11  2  0  0  0  0
 13  8  1  0  0  0  0
 14  9  1  0  0  0  0
 15  7  1  0  0  0  0
 16 15  1  0  0  0  0
 18 17  1  0  0  0  0
 20 19  1  0  0  0  0
 22 21  1  0  0  0  0
M  END
>  <minimizedAffinity>
-4.41727018

>  <minimizedRMSD>
2.45460796

$$$$
