
 OpenBabel03252504053D

 22 23  0  0  1  0  0  0  0  0999 V2000
   46.7400   34.6540   42.0980 C   0  0  2  0  0  3  0  0  0  0  0  0
   47.2980   34.2700   43.4370 C   0  0  1  0  0  3  0  0  0  0  0  0
   46.3380   34.0350   44.4080 O   0  0  0  0  0  0  0  0  0  0  0  0
   45.4890   35.1090   44.5620 C   0  0  0  0  0  2  0  0  0  0  0  0
   44.6160   35.2420   43.3540 C   0  0  2  0  0  3  0  0  0  0  0  0
   45.2880   34.9340   42.0520 C   0  0  2  0  0  3  0  0  0  0  0  0
   50.2770   31.9270   43.3720 C   0  0  0  0  0  0  0  0  0  0  0  0
   49.5450   33.1210   43.4440 C   0  0  0  0  0  0  0  0  0  0  0  0
   48.1530   33.0380   43.3690 C   0  0  0  0  0  0  0  0  0  0  0  0
   47.5740   31.8240   43.2320 N   0  0  0  0  0  0  0  0  0  0  0  0
   48.3050   30.6860   43.1650 C   0  0  0  0  0  0  0  0  0  0  0  0
   49.6460   30.7540   43.2360 N   0  0  0  0  0  0  0  0  0  0  0  0
   51.3540   32.0110   43.4310 H   0  0  0  0  0  0  0  0  0  0  0  0
   47.7960   29.7260   43.0550 H   0  0  0  0  0  0  0  0  0  0  0  0
   50.1260   34.3780   43.5830 O   0  0  0  0  0  0  0  0  0  0  0  0
   50.5770   34.8740   42.8370 H   0  0  0  0  0  0  0  0  0  0  0  0
   47.0460   33.6030   41.2190 O   0  0  0  0  0  0  0  0  0  0  0  0
   47.1730   33.9460   40.3110 H   0  0  0  0  0  0  0  0  0  0  0  0
   44.0300   36.5230   43.3640 O   0  0  0  0  0  0  0  0  0  0  0  0
   43.4020   36.5190   44.1360 H   0  0  0  0  0  0  0  0  0  0  0  0
   44.6230   33.8580   41.4200 O   0  0  0  0  0  0  0  0  0  0  0  0
   43.7990   34.1860   40.9820 H   0  0  0  0  0  0  0  0  0  0  0  0
  1 17  1  6  0  0  0
  1  2  1  0  0  0  0
  2  9  1  6  0  0  0
  2  3  1  0  0  0  0
  3  4  1  0  0  0  0
  5 19  1  6  0  0  0
  5  4  1  0  0  0  0
  6 21  1  1  0  0  0
  6  1  1  0  0  0  0
  6  5  1  0  0  0  0
  7 13  1  0  0  0  0
  7  8  1  0  0  0  0
  8 15  1  0  0  0  0
  9  8  2  0  0  0  0
 10  9  1  0  0  0  0
 11 10  2  0  0  0  0
 11 12  1  0  0  0  0
 12  7  2  0  0  0  0
 14 11  1  0  0  0  0
 16 15  1  0  0  0  0
 18 17  1  0  0  0  0
 19 20  1  0  0  0  0
 22 21  1  0  0  0  0
M  END
>  <minimizedAffinity>
-1.5219264

>  <minimizedRMSD>
4.7969985

$$$$
