REMARK  Name = 
REMARK  7 active torsions:
REMARK  status: ('A' for Active; 'I' for Inactive)
REMARK    1  A    between atoms: C_1  and  C_11
REMARK    2  A    between atoms: C_6  and  N_19
REMARK    3  A    between atoms: C_9  and  C_13
REMARK    4  A    between atoms: C_17  and  C_37
REMARK    5  A    between atoms: O_35  and  C_36
REMARK    6  A    between atoms: C_40  and  O_41
REMARK    7  A    between atoms: C_42  and  O_43
REMARK                            x       y       z     vdW  Elec       q    Type
REMARK                         _______ _______ _______ _____ _____    ______ ____
ROOT
ATOM      1  C   UNL     1      44.573  35.566  44.609  0.00  0.00    +0.000 A 
ATOM      2  C   UNL     1      45.227  35.571  43.356  0.00  0.00    +0.000 A 
ATOM      3  C   UNL     1      46.315  34.659  43.185  0.00  0.00    +0.000 A 
ATOM      4  N   UNL     1      46.662  33.852  44.204  0.00  0.00    +0.000 NA
ATOM      5  C   UNL     1      46.012  33.879  45.382  0.00  0.00    +0.000 A 
ATOM      6  N   UNL     1      44.963  34.736  45.594  0.00  0.00    +0.000 NA
ATOM      7  H   UNL     1      43.741  36.232  44.806  0.00  0.00    +0.000 HD
ATOM      8  H   UNL     1      44.901  36.245  42.574  0.00  0.00    +0.000 HD
ENDROOT
BRANCH   5   9
ATOM      9  C   UNL     1      46.447  32.964  46.471  0.00  0.00    +0.000 C 
ATOM     10  C   UNL     1      46.967  31.735  45.779  0.00  0.00    +0.000 C 
ATOM     11  C   UNL     1      46.097  30.550  45.805  0.00  0.00    +0.000 C 
ATOM     12  C   UNL     1      45.807  30.290  47.278  0.00  0.00    +0.000 C 
ATOM     13  C   UNL     1      45.022  31.366  47.880  0.00  0.00    +0.000 C 
ATOM     14  C   UNL     1      45.390  32.735  47.430  0.00  0.00    +0.000 C 
ATOM     15  H   UNL     1      47.290  33.491  46.969  0.00  0.00    +0.000 HD
ATOM     16  H   UNL     1      47.270  31.940  44.719  0.00  0.00    +0.000 HD
ATOM     17  H   UNL     1      47.924  31.451  46.278  0.00  0.00    +0.000 HD
ATOM     18  H   UNL     1      46.652  29.693  45.410  0.00  0.00    +0.000 HD
ATOM     19  H   UNL     1      45.158  30.737  45.253  0.00  0.00    +0.000 HD
ATOM     20  H   UNL     1      46.768  30.205  47.816  0.00  0.00    +0.000 HD
ATOM     21  H   UNL     1      45.172  29.403  47.298  0.00  0.00    +0.000 HD
ATOM     22  H   UNL     1      44.231  31.352  48.583  0.00  0.00    +0.000 HD
BRANCH  14  23
ATOM     23  N   UNL     1      44.693  33.874  47.943  0.00  0.00    +0.000 N 
ATOM     24  H   UNL     1      45.312  34.378  48.609  0.00  0.00    +0.000 HD
ATOM     25  H   UNL     1      43.718  34.100  47.647  0.00  0.00    +0.000 HD
ENDBRANCH  14  23
ENDBRANCH   5   9
BRANCH   3  26
ATOM     26  C   UNL     1      47.001  34.644  41.904  0.00  0.00    +0.000 A 
ATOM     27  C   UNL     1      48.124  35.398  41.768  0.00  0.00    +0.000 A 
ATOM     28  C   UNL     1      48.751  35.356  40.511  0.00  0.00    +0.000 A 
ATOM     29  C   UNL     1      48.174  34.561  39.544  0.00  0.00    +0.000 A 
ATOM     30  C   UNL     1      47.039  33.802  39.689  0.00  0.00    +0.000 A 
ATOM     31  N   UNL     1      46.488  33.892  40.930  0.00  0.00    +0.000 NA
ATOM     32  H   UNL     1      48.521  35.999  42.575  0.00  0.00    +0.000 HD
ATOM     33  H   UNL     1      49.649  35.930  40.330  0.00  0.00    +0.000 HD
ATOM     34  H   UNL     1      48.699  34.567  38.596  0.00  0.00    +0.000 HD
BRANCH  30  36
ATOM     35  C   UNL     1      44.990  32.815  38.697  0.00  0.00    +0.000 C 
ATOM     36  C   UNL     1      46.468  32.964  38.601  0.00  0.00    +0.000 C 
ATOM     37  O   UNL     1      47.212  31.847  38.429  0.00  0.00    +0.000 OA
ATOM     38  C   UNL     1      46.678  30.634  38.722  0.00  0.00    +0.000 C 
ATOM     39  C   UNL     1      45.234  30.440  38.327  0.00  0.00    +0.000 C 
ATOM     40  C   UNL     1      44.478  31.497  39.143  0.00  0.00    +0.000 C 
BRANCH  35  41
ATOM     41  O   UNL     1      44.312  33.146  37.509  0.00  0.00    +0.000 OA
ATOM     42  H   UNL     1      43.422  32.705  37.518  0.00  0.00    +0.000 HD
ENDBRANCH  35  41
BRANCH  39  43
ATOM     43  O   UNL     1      45.013  30.609  36.971  0.00  0.00    +0.000 OA
ATOM     44  H   UNL     1      45.820  30.802  36.441  0.00  0.00    +0.000 HD
ENDBRANCH  39  43
BRANCH  40  45
ATOM     45  O   UNL     1      44.691  31.215  40.472  0.00  0.00    +0.000 OA
ATOM     46  H   UNL     1      43.892  31.518  40.979  0.00  0.00    +0.000 HD
ENDBRANCH  40  45
ENDBRANCH  30  36
ENDBRANCH   3  26
TORSDOF 7
