
     RDKit          3D

 52 55  0  0  0  0  0  0  0  0999 V2000
   46.4465   32.9642   46.4711 C   0  0  2  0  0  0  0  0  0  0  0  0
   46.9665   31.7349   45.7787 C   0  0  0  0  0  0  0  0  0  0  0  0
   46.0966   30.5504   45.8053 C   0  0  0  0  0  0  0  0  0  0  0  0
   45.8068   30.2903   47.2780 C   0  0  0  0  0  0  0  0  0  0  0  0
   45.0215   31.3656   47.8797 C   0  0  0  0  0  0  0  0  0  0  0  0
   45.3896   32.7353   47.4297 C   0  0  0  0  0  0  0  0  0  0  0  0
   44.5733   35.5655   44.6094 C   0  0  0  0  0  0  0  0  0  0  0  0
   45.2267   35.5713   43.3563 C   0  0  0  0  0  0  0  0  0  0  0  0
   46.3146   34.6592   43.1855 C   0  0  0  0  0  0  0  0  0  0  0  0
   46.6618   33.8519   44.2042 N   0  0  0  0  0  0  0  0  0  0  0  0
   46.0119   33.8791   45.3818 C   0  0  0  0  0  0  0  0  0  0  0  0
   44.9628   34.7358   45.5936 N   0  0  0  0  0  0  0  0  0  0  0  0
   47.0014   34.6439   41.9041 C   0  0  0  0  0  0  0  0  0  0  0  0
   48.1236   35.3975   41.7681 C   0  0  0  0  0  0  0  0  0  0  0  0
   48.7513   35.3559   40.5114 C   0  0  0  0  0  0  0  0  0  0  0  0
   48.1743   34.5614   39.5440 C   0  0  0  0  0  0  0  0  0  0  0  0
   47.0394   33.8016   39.6887 C   0  0  0  0  0  0  0  0  0  0  0  0
   46.4880   33.8921   40.9298 N   0  0  0  0  0  0  0  0  0  0  0  0
   44.6934   33.8740   47.9426 N   0  0  0  0  0  0  0  0  0  0  0  0
   47.2900   33.4911   46.9687 H   0  0  0  0  0  0  0  0  0  0  0  0
   47.2703   31.9401   44.7189 H   0  0  0  0  0  0  0  0  0  0  0  0
   47.9242   31.4510   46.2778 H   0  0  0  0  0  0  0  0  0  0  0  0
   46.6521   29.6930   45.4104 H   0  0  0  0  0  0  0  0  0  0  0  0
   45.1579   30.7367   45.2531 H   0  0  0  0  0  0  0  0  0  0  0  0
   46.7676   30.2049   47.8157 H   0  0  0  0  0  0  0  0  0  0  0  0
   45.1720   29.4029   47.2984 H   0  0  0  0  0  0  0  0  0  0  0  0
   44.2309   31.3517   48.5829 H   0  0  0  0  0  0  0  0  0  0  0  0
   43.7408   36.2317   44.8062 H   0  0  0  0  0  0  0  0  0  0  0  0
   44.9009   36.2455   42.5741 H   0  0  0  0  0  0  0  0  0  0  0  0
   48.5207   35.9995   42.5751 H   0  0  0  0  0  0  0  0  0  0  0  0
   49.6488   35.9300   40.3297 H   0  0  0  0  0  0  0  0  0  0  0  0
   48.6987   34.5669   38.5959 H   0  0  0  0  0  0  0  0  0  0  0  0
   45.3115   34.3784   48.6094 H   0  0  0  0  0  0  0  0  0  0  0  0
   43.7178   34.1000   47.6470 H   0  0  0  0  0  0  0  0  0  0  0  0
   44.5593   33.4097   37.1753 O   0  0  0  0  0  0  0  0  0  0  0  0
   44.9908   33.0978   38.4783 C   0  0  2  0  0  0  0  0  0  0  0  0
   46.4682   32.9638   38.6014 C   0  0  2  0  0  0  0  0  0  0  0  0
   46.9938   31.7182   38.6427 O   0  0  0  0  0  0  0  0  0  0  0  0
   46.1974   30.6642   38.9516 C   0  0  0  0  0  0  0  0  0  0  0  0
   44.8112   30.6923   38.3546 C   0  0  2  0  0  0  0  0  0  0  0  0
   44.8149   30.7438   36.9716 O   0  0  0  0  0  0  0  0  0  0  0  0
   44.1740   31.9547   38.9507 C   0  0  1  0  0  0  0  0  0  0  0  0
   44.1437   31.7911   40.3153 O   0  0  0  0  0  0  0  0  0  0  0  0
   43.6072   33.1418   37.0836 H   0  0  0  0  0  0  0  0  0  0  0  0
   44.6816   33.9999   39.0827 H   0  0  0  0  0  0  0  0  0  0  0  0
   46.8786   33.4386   37.6582 H   0  0  0  0  0  0  0  0  0  0  0  0
   46.7510   29.7419   38.6054 H   0  0  0  0  0  0  0  0  0  0  0  0
   46.0349   30.4718   40.0404 H   0  0  0  0  0  0  0  0  0  0  0  0
   44.2825   29.7847   38.6797 H   0  0  0  0  0  0  0  0  0  0  0  0
   45.7083   30.7250   36.5588 H   0  0  0  0  0  0  0  0  0  0  0  0
   43.1507   32.0661   38.5745 H   0  0  0  0  0  0  0  0  0  0  0  0
   43.3589   32.2901   40.6644 H   0  0  0  0  0  0  0  0  0  0  0  0
  1  6  1  0
  2  3  1  0
  2  1  1  0
  3  4  1  0
  4  5  1  0
  6  5  2  0
  6 19  1  0
  7 12  2  0
  8  7  1  0
  9  8  2  0
  9 10  1  0
 10 11  2  0
 11 12  1  0
 11  1  1  0
 13  9  1  0
 14 13  2  0
 15 14  1  0
 16 17  1  0
 16 15  2  0
 17 18  2  0
 18 13  1  0
  1 20  1  1
  2 21  1  0
  2 22  1  0
  3 23  1  0
  3 24  1  0
  4 25  1  0
  4 26  1  0
  5 27  1  0
  7 28  1  0
  8 29  1  0
 14 30  1  0
 15 31  1  0
 16 32  1  0
 19 33  1  0
 19 34  1  0
 35 36  1  0
 36 37  1  0
 37 38  1  0
 38 39  1  0
 39 40  1  0
 40 41  1  0
 40 42  1  0
 42 43  1  0
 42 36  1  0
 35 44  1  0
 36 45  1  1
 37 46  1  6
 39 47  1  0
 39 48  1  0
 40 49  1  6
 41 50  1  0
 42 51  1  6
 43 52  1  0
 17 37  1  0
M  ISO  8  20  13  21  13  22  13  23  13  24  13  25  13  26  13  27  13
M  ISO  5  28  14  29  14  30  14  31  14  32  14
M  END
>  <DihAtoms>  (1) 
15,16,36,35

>  <DihDeg>  (1) 
89.67134165186212

$$$$
