
 OpenBabel03242514513D

 47 50  0  0  1  0  0  0  0  0999 V2000
   38.1450   30.2220   37.9870 C   0  0  0  0  0  0  0  0  0  0  0  0
   38.5510   30.2770   36.9940 H   0  0  0  0  0  0  0  0  0  0  0  0
   38.8030   29.4620   38.5150 H   0  0  0  0  0  0  0  0  0  0  0  0
   40.5820   31.1150   39.2300 F   0  0  0  0  0  0  0  0  0  0  0  0
   39.4900   31.8680   39.2860 C   0  0  0  0  0  0  0  0  0  0  0  0
   38.2890   31.5000   38.7040 C   0  0  0  0  0  0  0  0  0  0  0  0
   37.2060   32.3420   38.7960 C   0  0  0  0  0  0  0  0  0  0  0  0
   37.3700   33.5350   39.4730 C   0  0  0  0  0  0  0  0  0  0  0  0
   38.5260   33.9500   40.0630 C   0  0  0  0  0  0  0  0  0  0  0  0
   39.6270   33.0880   39.9690 C   0  0  0  0  0  0  0  0  0  0  0  0
   36.2700   32.0470   38.3390 H   0  0  0  0  0  0  0  0  0  0  0  0
   36.4840   34.1620   39.5150 H   0  0  0  0  0  0  0  0  0  0  0  0
   38.5670   34.9010   40.5760 H   0  0  0  0  0  0  0  0  0  0  0  0
   41.6630   32.3420   41.1870 C   0  0  1  0  0  3  0  0  0  0  0  0
   40.9190   33.4640   40.5860 C   0  0  1  0  0  3  0  0  0  0  0  0
   41.7240   34.1590   39.6990 O   0  0  0  0  0  0  0  0  0  0  0  0
   42.8070   33.4260   39.2800 C   0  0  0  0  0  2  0  0  0  0  0  0
   43.7990   33.3070   40.4400 C   0  0  1  0  0  3  0  0  0  0  0  0
   43.0260   32.8190   41.6440 C   0  0  1  0  0  3  0  0  0  0  0  0
   40.9860   32.0090   42.3900 O   0  0  0  0  0  0  0  0  0  0  0  0
   41.0730   32.8290   42.9420 H   0  0  0  0  0  0  0  0  0  0  0  0
   44.8310   32.4190   40.1240 O   0  0  0  0  0  0  0  0  0  0  0  0
   45.6820   32.9130   40.2490 H   0  0  0  0  0  0  0  0  0  0  0  0
   42.9220   33.8820   42.5370 O   0  0  0  0  0  0  0  0  0  0  0  0
   43.4080   34.6820   42.2600 H   0  0  0  0  0  0  0  0  0  0  0  0
   36.7880   29.6310   38.1180 C   0  0  0  0  0  0  0  0  0  0  0  0
   36.4610   29.0520   39.3340 C   0  0  0  0  0  0  0  0  0  0  0  0
   35.1650   28.5120   39.4490 C   0  0  0  0  0  0  0  0  0  0  0  0
   34.3180   28.5810   38.3920 N   0  0  0  0  0  0  0  0  0  0  0  0
   34.6900   29.1550   37.2380 C   0  0  0  0  0  0  0  0  0  0  0  0
   35.9010   29.6650   37.1150 N   0  0  0  0  0  0  0  0  0  0  0  0
   34.8820   28.0590   40.3710 H   0  0  0  0  0  0  0  0  0  0  0  0
   33.9940   29.1960   36.4130 H   0  0  0  0  0  0  0  0  0  0  0  0
   37.0910   29.9970   41.5550 C   0  0  2  0  0  0  0  0  0  0  0  0
   37.4100   28.9230   40.4750 C   0  0  1  0  0  0  0  0  0  0  0  0
   37.4740   27.7210   41.0620 O   0  0  0  0  0  0  0  0  0  0  0  0
   36.9550   27.7730   42.3300 C   0  0  0  0  0  0  0  0  0  0  0  0
   37.3420   29.1360   42.8180 C   0  0  1  0  0  0  0  0  0  0  0  0
   37.8000   30.8060   41.6440 H   0  0  0  0  0  0  0  0  0  0  0  0
   38.3920   29.2730   40.3580 H   0  0  0  0  0  0  0  0  0  0  0  0
   37.4500   26.9520   42.9120 H   0  0  0  0  0  0  0  0  0  0  0  0
   35.8730   27.6160   42.4150 H   0  0  0  0  0  0  0  0  0  0  0  0
   36.7060   29.4900   43.6330 H   0  0  0  0  0  0  0  0  0  0  0  0
   35.8420   30.4660   41.5420 O   0  0  0  0  0  0  0  0  0  0  0  0
   35.7850   31.3590   41.0920 H   0  0  0  0  0  0  0  0  0  0  0  0
   38.6850   29.0900   43.1300 O   0  0  0  0  0  0  0  0  0  0  0  0
   38.9290   29.8130   43.7910 H   0  0  0  0  0  0  0  0  0  0  0  0
  1 26  1  0  0  0  0
  1  3  1  0  0  0  0
  1  6  1  0  0  0  0
  2  1  1  0  0  0  0
  4  5  1  0  0  0  0
  5 10  1  0  0  0  0
  6  7  1  0  0  0  0
  6  5  2  0  0  0  0
  7  8  2  0  0  0  0
  8 12  1  0  0  0  0
  8  9  1  0  0  0  0
  9 13  1  0  0  0  0
 10  9  2  0  0  0  0
 11  7  1  0  0  0  0
 14 19  1  0  0  0  0
 14 20  1  1  0  0  0
 15 10  1  6  0  0  0
 15 14  1  0  0  0  0
 16 15  1  0  0  0  0
 17 16  1  0  0  0  0
 17 18  1  0  0  0  0
 18 22  1  6  0  0  0
 18 19  1  0  0  0  0
 19 24  1  1  0  0  0
 20 21  1  0  0  0  0
 22 23  1  0  0  0  0
 25 24  1  0  0  0  0
 26 27  1  0  0  0  0
 27 28  2  0  0  0  0
 27 35  1  0  0  0  0
 28 32  1  0  0  0  0
 29 28  1  0  0  0  0
 30 29  2  0  0  0  0
 31 30  1  0  0  0  0
 31 26  2  0  0  0  0
 33 30  1  0  0  0  0
 34 39  1  6  0  0  0
 34 38  1  0  0  0  0
 35 40  1  6  0  0  0
 35 36  1  0  0  0  0
 35 34  1  0  0  0  0
 36 37  1  0  0  0  0
 37 42  1  0  0  0  0
 37 38  1  0  0  0  0
 37 41  1  0  0  0  0
 38 46  1  0  0  0  0
 38 43  1  1  0  0  0
 44 34  1  0  0  0  0
 45 44  1  0  0  0  0
 46 47  1  0  0  0  0
M  END
>  <minimizedAffinity>
-7.2530365

$$$$

 OpenBabel03242514513D

 47 50  0  0  1  0  0  0  0  0999 V2000
   37.5230   27.7560   42.1610 C   0  0  0  0  0  0  0  0  0  0  0  0
   36.7030   27.9770   42.8190 H   0  0  0  0  0  0  0  0  0  0  0  0
   37.0250   27.4760   41.1800 H   0  0  0  0  0  0  0  0  0  0  0  0
   38.2250   28.7120   39.5390 F   0  0  0  0  0  0  0  0  0  0  0  0
   38.6590   29.3500   40.6190 C   0  0  0  0  0  0  0  0  0  0  0  0
   38.3530   28.9460   41.9080 C   0  0  0  0  0  0  0  0  0  0  0  0
   38.8300   29.6690   42.9760 C   0  0  0  0  0  0  0  0  0  0  0  0
   39.6050   30.7820   42.7090 C   0  0  0  0  0  0  0  0  0  0  0  0
   39.9370   31.2260   41.4640 C   0  0  0  0  0  0  0  0  0  0  0  0
   39.4480   30.4860   40.3780 C   0  0  0  0  0  0  0  0  0  0  0  0
   38.5870   29.3470   43.9800 H   0  0  0  0  0  0  0  0  0  0  0  0
   39.9550   31.3160   43.5860 H   0  0  0  0  0  0  0  0  0  0  0  0
   40.5500   32.1080   41.3450 H   0  0  0  0  0  0  0  0  0  0  0  0
   40.1670   32.3130   38.8500 C   0  0  1  0  0  3  0  0  0  0  0  0
   39.7660   30.9010   38.9940 C   0  0  1  0  0  3  0  0  0  0  0  0
   40.7110   30.0690   38.4170 O   0  0  0  0  0  0  0  0  0  0  0  0
   41.9290   30.6820   38.2550 C   0  0  0  0  0  2  0  0  0  0  0  0
   41.8160   31.7120   37.1270 C   0  0  1  0  0  3  0  0  0  0  0  0
   40.6130   32.5770   37.4270 C   0  0  1  0  0  3  0  0  0  0  0  0
   38.9830   33.0830   38.9960 O   0  0  0  0  0  0  0  0  0  0  0  0
   38.4210   32.7950   38.2310 H   0  0  0  0  0  0  0  0  0  0  0  0
   42.9740   32.4890   37.0460 O   0  0  0  0  0  0  0  0  0  0  0  0
   43.3070   32.4100   36.1150 H   0  0  0  0  0  0  0  0  0  0  0  0
   39.6180   32.2460   36.5110 O   0  0  0  0  0  0  0  0  0  0  0  0
   39.8990   31.6010   35.8350 H   0  0  0  0  0  0  0  0  0  0  0  0
   38.3240   26.5460   42.4820 C   0  0  0  0  0  0  0  0  0  0  0  0
   38.0320   25.3860   41.7830 C   0  0  0  0  0  0  0  0  0  0  0  0
   38.8130   24.2530   42.0850 C   0  0  0  0  0  0  0  0  0  0  0  0
   39.7880   24.3460   43.0230 N   0  0  0  0  0  0  0  0  0  0  0  0
   40.0270   25.4980   43.6680 C   0  0  0  0  0  0  0  0  0  0  0  0
   39.3040   26.5680   43.3950 N   0  0  0  0  0  0  0  0  0  0  0  0
   38.6140   23.3440   41.5650 H   0  0  0  0  0  0  0  0  0  0  0  0
   40.8110   25.5420   44.4090 H   0  0  0  0  0  0  0  0  0  0  0  0
   37.4490   25.5750   39.3650 C   0  0  2  0  0  0  0  0  0  0  0  0
   36.9230   25.2670   40.7960 C   0  0  1  0  0  0  0  0  0  0  0  0
   36.2680   24.0990   40.7770 O   0  0  0  0  0  0  0  0  0  0  0  0
   36.5200   23.4200   39.6140 C   0  0  0  0  0  0  0  0  0  0  0  0
   36.6420   24.5060   38.5870 C   0  0  1  0  0  0  0  0  0  0  0  0
   37.1290   26.5100   38.9330 H   0  0  0  0  0  0  0  0  0  0  0  0
   36.2090   26.0340   40.7440 H   0  0  0  0  0  0  0  0  0  0  0  0
   35.6360   22.7550   39.4320 H   0  0  0  0  0  0  0  0  0  0  0  0
   37.4090   22.7770   39.6140 H   0  0  0  0  0  0  0  0  0  0  0  0
   37.2070   24.1930   37.7050 H   0  0  0  0  0  0  0  0  0  0  0  0
   38.7600   25.4000   39.1890 O   0  0  0  0  0  0  0  0  0  0  0  0
   39.2580   26.2690   39.2160 H   0  0  0  0  0  0  0  0  0  0  0  0
   35.3650   24.9490   38.3120 O   0  0  0  0  0  0  0  0  0  0  0  0
   35.3220   25.3880   37.4030 H   0  0  0  0  0  0  0  0  0  0  0  0
  1 26  1  0  0  0  0
  1  2  1  0  0  0  0
  3  1  1  0  0  0  0
  4  5  1  0  0  0  0
  5  6  1  0  0  0  0
  6  1  1  0  0  0  0
  6  7  2  0  0  0  0
  7 11  1  0  0  0  0
  8  7  1  0  0  0  0
  8 12  1  0  0  0  0
  9  8  2  0  0  0  0
 10  5  2  0  0  0  0
 10  9  1  0  0  0  0
 13  9  1  0  0  0  0
 14 15  1  0  0  0  0
 14 20  1  6  0  0  0
 15 10  1  1  0  0  0
 16 15  1  0  0  0  0
 17 16  1  0  0  0  0
 18 22  1  1  0  0  0
 18 19  1  0  0  0  0
 18 17  1  0  0  0  0
 19 24  1  6  0  0  0
 19 14  1  0  0  0  0
 21 20  1  0  0  0  0
 23 22  1  0  0  0  0
 25 24  1  0  0  0  0
 26 31  1  0  0  0  0
 27 28  1  0  0  0  0
 27 26  2  0  0  0  0
 28 29  2  0  0  0  0
 29 30  1  0  0  0  0
 30 33  1  0  0  0  0
 31 30  2  0  0  0  0
 32 28  1  0  0  0  0
 34 39  1  6  0  0  0
 34 35  1  0  0  0  0
 35 40  1  1  0  0  0
 35 27  1  0  0  0  0
 36 35  1  0  0  0  0
 37 36  1  0  0  0  0
 38 43  1  6  0  0  0
 38 34  1  0  0  0  0
 38 37  1  0  0  0  0
 41 37  1  0  0  0  0
 42 37  1  0  0  0  0
 44 45  1  0  0  0  0
 44 34  1  0  0  0  0
 46 38  1  0  0  0  0
 47 46  1  0  0  0  0
M  END
>  <minimizedAffinity>
-6.72271395

$$$$

 OpenBabel03242514513D

 47 50  0  0  1  0  0  0  0  0999 V2000
   36.8790   28.8110   41.0600 C   0  0  0  0  0  0  0  0  0  0  0  0
   37.4640   28.5030   41.9060 H   0  0  0  0  0  0  0  0  0  0  0  0
   35.8440   28.9970   41.4890 H   0  0  0  0  0  0  0  0  0  0  0  0
   39.5270   29.2260   40.0080 F   0  0  0  0  0  0  0  0  0  0  0  0
   38.6490   30.2220   40.0170 C   0  0  0  0  0  0  0  0  0  0  0  0
   37.3590   30.0870   40.5030 C   0  0  0  0  0  0  0  0  0  0  0  0
   36.5050   31.1640   40.4650 C   0  0  0  0  0  0  0  0  0  0  0  0
   36.9810   32.3490   39.9350 C   0  0  0  0  0  0  0  0  0  0  0  0
   38.2370   32.5390   39.4430 C   0  0  0  0  0  0  0  0  0  0  0  0
   39.1050   31.4390   39.4840 C   0  0  0  0  0  0  0  0  0  0  0  0
   35.4980   31.0510   40.8470 H   0  0  0  0  0  0  0  0  0  0  0  0
   36.2660   33.1650   39.9290 H   0  0  0  0  0  0  0  0  0  0  0  0
   38.5280   33.5020   39.0470 H   0  0  0  0  0  0  0  0  0  0  0  0
   40.6000   31.5820   37.5020 C   0  0  1  0  0  3  0  0  0  0  0  0
   40.4880   31.5640   38.9710 C   0  0  1  0  0  3  0  0  0  0  0  0
   41.1380   32.6560   39.5210 O   0  0  0  0  0  0  0  0  0  0  0  0
   41.3350   33.6670   38.6120 C   0  0  0  0  0  2  0  0  0  0  0  0
   42.4200   33.2330   37.6210 C   0  0  1  0  0  3  0  0  0  0  0  0
   42.0330   31.8680   37.1010 C   0  0  1  0  0  3  0  0  0  0  0  0
   40.3720   30.2510   37.0640 O   0  0  0  0  0  0  0  0  0  0  0  0
   41.1190   29.7400   37.4710 H   0  0  0  0  0  0  0  0  0  0  0  0
   42.5290   34.1480   36.5710 O   0  0  0  0  0  0  0  0  0  0  0  0
   43.4770   34.4390   36.5420 H   0  0  0  0  0  0  0  0  0  0  0  0
   42.9120   30.9410   37.6560 O   0  0  0  0  0  0  0  0  0  0  0  0
   43.6220   31.3410   38.1930 H   0  0  0  0  0  0  0  0  0  0  0  0
   36.6240   27.7820   40.0180 C   0  0  0  0  0  0  0  0  0  0  0  0
   37.3350   26.5960   40.1070 C   0  0  0  0  0  0  0  0  0  0  0  0
   37.0680   25.6240   39.1230 C   0  0  0  0  0  0  0  0  0  0  0  0
   36.1520   25.8870   38.1580 N   0  0  0  0  0  0  0  0  0  0  0  0
   35.4930   27.0540   38.1220 C   0  0  0  0  0  0  0  0  0  0  0  0
   35.7320   27.9750   39.0370 N   0  0  0  0  0  0  0  0  0  0  0  0
   37.5980   24.7010   39.1630 H   0  0  0  0  0  0  0  0  0  0  0  0
   34.7690   27.2350   37.3420 H   0  0  0  0  0  0  0  0  0  0  0  0
   37.7800   25.5110   42.3090 C   0  0  2  0  0  0  0  0  0  0  0  0
   38.3830   26.3310   41.1320 C   0  0  1  0  0  0  0  0  0  0  0  0
   39.4940   25.7200   40.7000 O   0  0  0  0  0  0  0  0  0  0  0  0
   39.5790   24.4500   41.2100 C   0  0  0  0  0  0  0  0  0  0  0  0
   38.9850   24.5770   42.5810 C   0  0  1  0  0  0  0  0  0  0  0  0
   37.6460   26.0430   43.2370 H   0  0  0  0  0  0  0  0  0  0  0  0
   38.6750   27.1100   41.7690 H   0  0  0  0  0  0  0  0  0  0  0  0
   40.6680   24.1880   41.2370 H   0  0  0  0  0  0  0  0  0  0  0  0
   39.0750   23.6650   40.6330 H   0  0  0  0  0  0  0  0  0  0  0  0
   38.6250   23.6230   42.9760 H   0  0  0  0  0  0  0  0  0  0  0  0
   36.6890   24.8020   42.0110 O   0  0  0  0  0  0  0  0  0  0  0  0
   35.8530   25.2610   42.3190 H   0  0  0  0  0  0  0  0  0  0  0  0
   39.9270   25.1970   43.3750 O   0  0  0  0  0  0  0  0  0  0  0  0
   39.7710   24.9880   44.3510 H   0  0  0  0  0  0  0  0  0  0  0  0
  1  3  1  0  0  0  0
  1  2  1  0  0  0  0
  4  5  1  0  0  0  0
  5  6  1  0  0  0  0
  6  1  1  0  0  0  0
  7  6  2  0  0  0  0
  7 11  1  0  0  0  0
  8  7  1  0  0  0  0
  9 10  1  0  0  0  0
  9  8  2  0  0  0  0
 10  5  2  0  0  0  0
 12  8  1  0  0  0  0
 13  9  1  0  0  0  0
 14 20  1  1  0  0  0
 14 15  1  0  0  0  0
 15 10  1  6  0  0  0
 15 16  1  0  0  0  0
 17 16  1  0  0  0  0
 18 22  1  6  0  0  0
 18 17  1  0  0  0  0
 19 14  1  0  0  0  0
 19 18  1  0  0  0  0
 19 24  1  1  0  0  0
 20 21  1  0  0  0  0
 23 22  1  0  0  0  0
 24 25  1  0  0  0  0
 26 27  1  0  0  0  0
 26  1  1  0  0  0  0
 27 35  1  0  0  0  0
 28 32  1  0  0  0  0
 28 27  2  0  0  0  0
 29 28  1  0  0  0  0
 30 29  2  0  0  0  0
 30 31  1  0  0  0  0
 31 26  2  0  0  0  0
 33 30  1  0  0  0  0
 34 38  1  0  0  0  0
 34 39  1  1  0  0  0
 35 40  1  1  0  0  0
 35 34  1  0  0  0  0
 36 35  1  0  0  0  0
 36 37  1  0  0  0  0
 37 41  1  0  0  0  0
 37 38  1  0  0  0  0
 38 43  1  1  0  0  0
 38 46  1  0  0  0  0
 42 37  1  0  0  0  0
 44 34  1  0  0  0  0
 44 45  1  0  0  0  0
 46 47  1  0  0  0  0
M  END
>  <minimizedAffinity>
-6.67685938

$$$$

 OpenBabel03242514513D

 47 50  0  0  1  0  0  0  0  0999 V2000
   37.1020   31.6400   38.5670 C   0  0  0  0  0  0  0  0  0  0  0  0
   36.2740   32.2730   38.3100 H   0  0  0  0  0  0  0  0  0  0  0  0
   37.3900   31.1460   37.5860 H   0  0  0  0  0  0  0  0  0  0  0  0
   39.8020   31.1990   37.6740 F   0  0  0  0  0  0  0  0  0  0  0  0
   39.5400   32.1550   38.5560 C   0  0  0  0  0  0  0  0  0  0  0  0
   38.2630   32.4230   39.0220 C   0  0  0  0  0  0  0  0  0  0  0  0
   38.0720   33.4410   39.9260 C   0  0  0  0  0  0  0  0  0  0  0  0
   39.1790   34.1610   40.3340 C   0  0  0  0  0  0  0  0  0  0  0  0
   40.4560   33.9430   39.9100 C   0  0  0  0  0  0  0  0  0  0  0  0
   40.6470   32.9040   38.9880 C   0  0  0  0  0  0  0  0  0  0  0  0
   37.0710   33.6440   40.2860 H   0  0  0  0  0  0  0  0  0  0  0  0
   38.9720   34.9520   41.0470 H   0  0  0  0  0  0  0  0  0  0  0  0
   41.2660   34.5540   40.2820 H   0  0  0  0  0  0  0  0  0  0  0  0
   42.7540   33.7730   37.9930 C   0  0  1  0  0  3  0  0  0  0  0  0
   42.0040   32.6020   38.4800 C   0  0  1  0  0  3  0  0  0  0  0  0
   42.7520   31.9010   39.4110 O   0  0  0  0  0  0  0  0  0  0  0  0
   43.7610   32.6560   39.9560 C   0  0  0  0  0  2  0  0  0  0  0  0
   44.8500   32.8580   38.8980 C   0  0  1  0  0  3  0  0  0  0  0  0
   44.1710   33.3670   37.6460 C   0  0  1  0  0  3  0  0  0  0  0  0
   42.1760   34.1300   36.7450 O   0  0  0  0  0  0  0  0  0  0  0  0
   42.3460   33.3370   36.1730 H   0  0  0  0  0  0  0  0  0  0  0  0
   45.8120   33.7700   39.3410 O   0  0  0  0  0  0  0  0  0  0  0  0
   46.6900   33.3130   39.2780 H   0  0  0  0  0  0  0  0  0  0  0  0
   44.1910   32.3370   36.7090 O   0  0  0  0  0  0  0  0  0  0  0  0
   44.6820   31.5450   37.0000 H   0  0  0  0  0  0  0  0  0  0  0  0
   36.8040   30.4790   39.4460 C   0  0  0  0  0  0  0  0  0  0  0  0
   36.5270   29.2690   38.8300 C   0  0  0  0  0  0  0  0  0  0  0  0
   36.2640   28.1750   39.6770 C   0  0  0  0  0  0  0  0  0  0  0  0
   36.2930   28.3500   41.0210 N   0  0  0  0  0  0  0  0  0  0  0  0
   36.5680   29.5460   41.5620 C   0  0  0  0  0  0  0  0  0  0  0  0
   36.8160   30.5810   40.7810 N   0  0  0  0  0  0  0  0  0  0  0  0
   36.0470   27.2290   39.2340 H   0  0  0  0  0  0  0  0  0  0  0  0
   36.5850   29.6550   42.6360 H   0  0  0  0  0  0  0  0  0  0  0  0
   37.8440   28.7730   36.7700 C   0  0  2  0  0  0  0  0  0  0  0  0
   36.4370   29.0900   37.3540 C   0  0  1  0  0  0  0  0  0  0  0  0
   35.5680   28.1680   36.9200 O   0  0  0  0  0  0  0  0  0  0  0  0
   36.2280   27.1020   36.3670 C   0  0  0  0  0  0  0  0  0  0  0  0
   37.4240   27.7240   35.7110 C   0  0  1  0  0  0  0  0  0  0  0  0
   38.3060   29.5580   36.1930 H   0  0  0  0  0  0  0  0  0  0  0  0
   36.3310   29.9390   36.7470 H   0  0  0  0  0  0  0  0  0  0  0  0
   35.5250   26.6380   35.6260 H   0  0  0  0  0  0  0  0  0  0  0  0
   36.5280   26.3080   37.0610 H   0  0  0  0  0  0  0  0  0  0  0  0
   38.2400   27.0140   35.5570 H   0  0  0  0  0  0  0  0  0  0  0  0
   38.7160   28.2500   37.6350 O   0  0  0  0  0  0  0  0  0  0  0  0
   39.3600   28.9380   37.9740 H   0  0  0  0  0  0  0  0  0  0  0  0
   36.9810   28.3340   34.5550 O   0  0  0  0  0  0  0  0  0  0  0  0
   37.7350   28.4420   33.8910 H   0  0  0  0  0  0  0  0  0  0  0  0
  1  6  1  0  0  0  0
  1 26  1  0  0  0  0
  2  1  1  0  0  0  0
  3  1  1  0  0  0  0
  4  5  1  0  0  0  0
  5 10  2  0  0  0  0
  5  6  1  0  0  0  0
  6  7  2  0  0  0  0
  7 11  1  0  0  0  0
  7  8  1  0  0  0  0
  8 12  1  0  0  0  0
  9 13  1  0  0  0  0
  9  8  2  0  0  0  0
 10  9  1  0  0  0  0
 14 20  1  6  0  0  0
 14 15  1  0  0  0  0
 15 10  1  1  0  0  0
 15 16  1  0  0  0  0
 16 17  1  0  0  0  0
 18 22  1  1  0  0  0
 18 17  1  0  0  0  0
 19 24  1  6  0  0  0
 19 14  1  0  0  0  0
 19 18  1  0  0  0  0
 21 20  1  0  0  0  0
 23 22  1  0  0  0  0
 24 25  1  0  0  0  0
 26 31  1  0  0  0  0
 27 26  2  0  0  0  0
 27 28  1  0  0  0  0
 28 29  2  0  0  0  0
 29 30  1  0  0  0  0
 30 33  1  0  0  0  0
 31 30  2  0  0  0  0
 32 28  1  0  0  0  0
 34 39  1  6  0  0  0
 34 35  1  0  0  0  0
 34 44  1  0  0  0  0
 35 40  1  6  0  0  0
 35 27  1  0  0  0  0
 36 35  1  0  0  0  0
 37 36  1  0  0  0  0
 37 42  1  0  0  0  0
 38 43  1  6  0  0  0
 38 37  1  0  0  0  0
 38 34  1  0  0  0  0
 41 37  1  0  0  0  0
 44 45  1  0  0  0  0
 46 38  1  0  0  0  0
 47 46  1  0  0  0  0
M  END
>  <minimizedAffinity>
-6.67043018

$$$$

 OpenBabel03242514513D

 47 50  0  0  1  0  0  0  0  0999 V2000
   39.1230   31.5600   37.7390 C   0  0  0  0  0  0  0  0  0  0  0  0
   39.8460   31.0660   37.1180 H   0  0  0  0  0  0  0  0  0  0  0  0
   38.5840   32.2660   37.0320 H   0  0  0  0  0  0  0  0  0  0  0  0
   39.6150   29.6990   39.8790 F   0  0  0  0  0  0  0  0  0  0  0  0
   38.4250   29.7410   39.2930 C   0  0  0  0  0  0  0  0  0  0  0  0
   38.1220   30.6160   38.2630 C   0  0  0  0  0  0  0  0  0  0  0  0
   36.8600   30.6070   37.7170 C   0  0  0  0  0  0  0  0  0  0  0  0
   35.9390   29.7130   38.2300 C   0  0  0  0  0  0  0  0  0  0  0  0
   36.1810   28.8310   39.2410 C   0  0  0  0  0  0  0  0  0  0  0  0
   37.4680   28.8430   39.7940 C   0  0  0  0  0  0  0  0  0  0  0  0
   36.6300   31.2940   36.9120 H   0  0  0  0  0  0  0  0  0  0  0  0
   34.9600   29.7480   37.7630 H   0  0  0  0  0  0  0  0  0  0  0  0
   35.4020   28.1640   39.5810 H   0  0  0  0  0  0  0  0  0  0  0  0
   36.7410   27.7120   41.8870 C   0  0  1  0  0  3  0  0  0  0  0  0
   37.8120   27.9150   40.8940 C   0  0  1  0  0  3  0  0  0  0  0  0
   38.2620   26.6970   40.4110 O   0  0  0  0  0  0  0  0  0  0  0  0
   37.3630   25.6800   40.6200 C   0  0  0  0  0  2  0  0  0  0  0  0
   37.3450   25.3380   42.1130 C   0  0  1  0  0  3  0  0  0  0  0  0
   37.1500   26.6330   42.8680 C   0  0  1  0  0  3  0  0  0  0  0  0
   36.6880   28.8970   42.6690 O   0  0  0  0  0  0  0  0  0  0  0  0
   37.5780   28.9270   43.1080 H   0  0  0  0  0  0  0  0  0  0  0  0
   36.3170   24.4380   42.4050 O   0  0  0  0  0  0  0  0  0  0  0  0
   36.7370   23.6600   42.8560 H   0  0  0  0  0  0  0  0  0  0  0  0
   38.3550   26.9430   43.4930 O   0  0  0  0  0  0  0  0  0  0  0  0
   39.0430   26.2580   43.3890 H   0  0  0  0  0  0  0  0  0  0  0  0
   39.6560   32.4780   38.7790 C   0  0  0  0  0  0  0  0  0  0  0  0
   41.0270   32.4790   38.9850 C   0  0  0  0  0  0  0  0  0  0  0  0
   41.5180   33.3670   39.9620 C   0  0  0  0  0  0  0  0  0  0  0  0
   40.6500   34.1610   40.6380 N   0  0  0  0  0  0  0  0  0  0  0  0
   39.3320   34.1180   40.3950 C   0  0  0  0  0  0  0  0  0  0  0  0
   38.8560   33.2900   39.4830 N   0  0  0  0  0  0  0  0  0  0  0  0
   42.5680   33.3920   40.1450 H   0  0  0  0  0  0  0  0  0  0  0  0
   38.6660   34.7620   40.9490 H   0  0  0  0  0  0  0  0  0  0  0  0
   42.4030   32.1880   36.9250 C   0  0  2  0  0  0  0  0  0  0  0  0
   41.9730   31.5660   38.2850 C   0  0  1  0  0  0  0  0  0  0  0  0
   43.0690   31.2100   38.9670 O   0  0  0  0  0  0  0  0  0  0  0  0
   44.1900   31.7640   38.4060 C   0  0  0  0  0  0  0  0  0  0  0  0
   43.8910   31.7620   36.9370 C   0  0  1  0  0  0  0  0  0  0  0  0
   42.0020   31.7170   36.0410 H   0  0  0  0  0  0  0  0  0  0  0  0
   41.5940   30.7060   37.8200 H   0  0  0  0  0  0  0  0  0  0  0  0
   45.0470   31.0920   38.6710 H   0  0  0  0  0  0  0  0  0  0  0  0
   44.4560   32.7710   38.7520 H   0  0  0  0  0  0  0  0  0  0  0  0
   44.4850   32.4940   36.3830 H   0  0  0  0  0  0  0  0  0  0  0  0
   42.2900   33.5150   36.8430 O   0  0  0  0  0  0  0  0  0  0  0  0
   41.4640   33.7870   36.3460 H   0  0  0  0  0  0  0  0  0  0  0  0
   44.0410   30.4640   36.4950 O   0  0  0  0  0  0  0  0  0  0  0  0
   44.2250   30.4380   35.5020 H   0  0  0  0  0  0  0  0  0  0  0  0
  1  6  1  0  0  0  0
  1 26  1  0  0  0  0
  2  1  1  0  0  0  0
  3  1  1  0  0  0  0
  5 10  1  0  0  0  0
  5  4  1  0  0  0  0
  6  5  2  0  0  0  0
  7  8  2  0  0  0  0
  7  6  1  0  0  0  0
  8  9  1  0  0  0  0
  9 13  1  0  0  0  0
  9 10  2  0  0  0  0
 11  7  1  0  0  0  0
 12  8  1  0  0  0  0
 14 20  1  1  0  0  0
 14 19  1  0  0  0  0
 15 10  1  6  0  0  0
 15 14  1  0  0  0  0
 16 17  1  0  0  0  0
 16 15  1  0  0  0  0
 17 18  1  0  0  0  0
 18 22  1  6  0  0  0
 18 19  1  0  0  0  0
 19 24  1  6  0  0  0
 20 21  1  0  0  0  0
 22 23  1  0  0  0  0
 25 24  1  0  0  0  0
 26 27  2  0  0  0  0
 26 31  1  0  0  0  0
 27 28  1  0  0  0  0
 28 32  1  0  0  0  0
 28 29  2  0  0  0  0
 30 29  1  0  0  0  0
 30 33  1  0  0  0  0
 31 30  2  0  0  0  0
 34 39  1  6  0  0  0
 34 38  1  0  0  0  0
 34 35  1  0  0  0  0
 35 40  1  6  0  0  0
 35 36  1  0  0  0  0
 35 27  1  0  0  0  0
 37 41  1  0  0  0  0
 37 42  1  0  0  0  0
 37 36  1  0  0  0  0
 38 43  1  6  0  0  0
 38 37  1  0  0  0  0
 44 34  1  0  0  0  0
 45 44  1  0  0  0  0
 46 38  1  0  0  0  0
 47 46  1  0  0  0  0
M  END
>  <minimizedAffinity>
-6.58906078

$$$$

 OpenBabel03242514513D

 47 50  0  0  1  0  0  0  0  0999 V2000
   40.3000   29.4850   42.6730 C   0  0  0  0  0  0  0  0  0  0  0  0
   40.0490   30.4150   43.1470 H   0  0  0  0  0  0  0  0  0  0  0  0
   41.0500   29.0060   43.3790 H   0  0  0  0  0  0  0  0  0  0  0  0
   40.2510   27.0310   41.1690 F   0  0  0  0  0  0  0  0  0  0  0  0
   39.1780   27.4200   41.8460 C   0  0  0  0  0  0  0  0  0  0  0  0
   39.1370   28.5850   42.5940 C   0  0  0  0  0  0  0  0  0  0  0  0
   37.9900   28.9110   43.2780 C   0  0  0  0  0  0  0  0  0  0  0  0
   36.9150   28.0480   43.1880 C   0  0  0  0  0  0  0  0  0  0  0  0
   36.8980   26.8900   42.4690 C   0  0  0  0  0  0  0  0  0  0  0  0
   38.0690   26.5610   41.7730 C   0  0  0  0  0  0  0  0  0  0  0  0
   37.9660   29.8240   43.8610 H   0  0  0  0  0  0  0  0  0  0  0  0
   36.0360   28.3520   43.7470 H   0  0  0  0  0  0  0  0  0  0  0  0
   36.0110   26.2720   42.4520 H   0  0  0  0  0  0  0  0  0  0  0  0
   37.4920   24.1480   41.5920 C   0  0  1  0  0  3  0  0  0  0  0  0
   38.1300   25.3210   40.9670 C   0  0  1  0  0  3  0  0  0  0  0  0
   37.6350   25.5190   39.6890 O   0  0  0  0  0  0  0  0  0  0  0  0
   36.4290   24.8930   39.4860 C   0  0  0  0  0  2  0  0  0  0  0  0
   36.6660   23.3820   39.4050 C   0  0  1  0  0  3  0  0  0  0  0  0
   37.4810   22.9900   40.6160 C   0  0  1  0  0  3  0  0  0  0  0  0
   38.3600   23.7240   42.6320 O   0  0  0  0  0  0  0  0  0  0  0  0
   39.1890   23.4630   42.1520 H   0  0  0  0  0  0  0  0  0  0  0  0
   35.4530   22.6890   39.3820 O   0  0  0  0  0  0  0  0  0  0  0  0
   35.4650   22.1190   38.5700 H   0  0  0  0  0  0  0  0  0  0  0  0
   38.7670   22.6820   40.1770 O   0  0  0  0  0  0  0  0  0  0  0  0
   38.8710   22.7070   39.2060 H   0  0  0  0  0  0  0  0  0  0  0  0
   41.0570   29.5710   41.3970 C   0  0  0  0  0  0  0  0  0  0  0  0
   40.4700   30.2700   40.3550 C   0  0  0  0  0  0  0  0  0  0  0  0
   41.2080   30.3570   39.1580 C   0  0  0  0  0  0  0  0  0  0  0  0
   42.4270   29.7680   39.0820 N   0  0  0  0  0  0  0  0  0  0  0  0
   42.9460   29.1030   40.1250 C   0  0  0  0  0  0  0  0  0  0  0  0
   42.2660   29.0130   41.2540 N   0  0  0  0  0  0  0  0  0  0  0  0
   40.7840   30.8880   38.3370 H   0  0  0  0  0  0  0  0  0  0  0  0
   43.9190   28.6450   40.0360 H   0  0  0  0  0  0  0  0  0  0  0  0
   39.1680   32.2620   41.1030 C   0  0  2  0  0  0  0  0  0  0  0  0
   39.1060   30.8660   40.4180 C   0  0  1  0  0  0  0  0  0  0  0  0
   38.4540   30.9810   39.2540 O   0  0  0  0  0  0  0  0  0  0  0  0
   38.3190   32.2990   38.9020 C   0  0  0  0  0  0  0  0  0  0  0  0
   38.1380   33.0020   40.2140 C   0  0  1  0  0  0  0  0  0  0  0  0
   38.7500   32.3230   42.0950 H   0  0  0  0  0  0  0  0  0  0  0  0
   38.4280   30.5020   41.1300 H   0  0  0  0  0  0  0  0  0  0  0  0
   37.4080   32.3650   38.2510 H   0  0  0  0  0  0  0  0  0  0  0  0
   39.1500   32.7330   38.3330 H   0  0  0  0  0  0  0  0  0  0  0  0
   38.3940   34.0630   40.1640 H   0  0  0  0  0  0  0  0  0  0  0  0
   40.3560   32.8690   41.0560 O   0  0  0  0  0  0  0  0  0  0  0  0
   40.8560   32.7750   41.9190 H   0  0  0  0  0  0  0  0  0  0  0  0
   36.8480   32.7520   40.6340 O   0  0  0  0  0  0  0  0  0  0  0  0
   36.5340   33.4610   41.2810 H   0  0  0  0  0  0  0  0  0  0  0  0
  1  2  1  0  0  0  0
  1  3  1  0  0  0  0
  4  5  1  0  0  0  0
  5  6  1  0  0  0  0
  6  1  1  0  0  0  0
  6  7  2  0  0  0  0
  7 11  1  0  0  0  0
  8  7  1  0  0  0  0
  8 12  1  0  0  0  0
  9  8  2  0  0  0  0
 10  5  2  0  0  0  0
 10  9  1  0  0  0  0
 13  9  1  0  0  0  0
 14 20  1  1  0  0  0
 15 14  1  0  0  0  0
 15 10  1  1  0  0  0
 16 15  1  0  0  0  0
 17 16  1  0  0  0  0
 18 22  1  1  0  0  0
 18 17  1  0  0  0  0
 18 19  1  0  0  0  0
 19 24  1  6  0  0  0
 19 14  1  0  0  0  0
 21 20  1  0  0  0  0
 23 22  1  0  0  0  0
 25 24  1  0  0  0  0
 26  1  1  0  0  0  0
 27 35  1  0  0  0  0
 27 26  2  0  0  0  0
 28 27  1  0  0  0  0
 29 28  2  0  0  0  0
 29 30  1  0  0  0  0
 30 31  2  0  0  0  0
 31 26  1  0  0  0  0
 32 28  1  0  0  0  0
 33 30  1  0  0  0  0
 34 39  1  1  0  0  0
 35 34  1  0  0  0  0
 35 40  1  1  0  0  0
 36 35  1  0  0  0  0
 37 36  1  0  0  0  0
 37 38  1  0  0  0  0
 38 43  1  6  0  0  0
 38 46  1  0  0  0  0
 38 34  1  0  0  0  0
 41 37  1  0  0  0  0
 42 37  1  0  0  0  0
 44 34  1  0  0  0  0
 44 45  1  0  0  0  0
 46 47  1  0  0  0  0
M  END
>  <minimizedAffinity>
-6.58870125

$$$$

 OpenBabel03242514513D

 47 50  0  0  1  0  0  0  0  0999 V2000
   41.0700   28.7390   41.2120 C   0  0  0  0  0  0  0  0  0  0  0  0
   41.6260   27.8450   41.0000 H   0  0  0  0  0  0  0  0  0  0  0  0
   40.8790   29.1980   40.1910 H   0  0  0  0  0  0  0  0  0  0  0  0
   38.5680   28.9300   39.8010 F   0  0  0  0  0  0  0  0  0  0  0  0
   38.5890   28.5520   41.0730 C   0  0  0  0  0  0  0  0  0  0  0  0
   39.7580   28.4340   41.8070 C   0  0  0  0  0  0  0  0  0  0  0  0
   39.6960   28.0220   43.1170 C   0  0  0  0  0  0  0  0  0  0  0  0
   38.4520   27.7410   43.6490 C   0  0  0  0  0  0  0  0  0  0  0  0
   37.2710   27.8380   42.9760 C   0  0  0  0  0  0  0  0  0  0  0  0
   37.3380   28.2580   41.6410 C   0  0  0  0  0  0  0  0  0  0  0  0
   40.6140   27.9330   43.6850 H   0  0  0  0  0  0  0  0  0  0  0  0
   38.4610   27.4200   44.6860 H   0  0  0  0  0  0  0  0  0  0  0  0
   36.3400   27.5990   43.4710 H   0  0  0  0  0  0  0  0  0  0  0  0
   35.9310   29.6990   40.1820 C   0  0  1  0  0  3  0  0  0  0  0  0
   36.1000   28.3920   40.8410 C   0  0  1  0  0  3  0  0  0  0  0  0
   35.9740   27.3650   39.9210 O   0  0  0  0  0  0  0  0  0  0  0  0
   36.1560   27.7880   38.6270 C   0  0  0  0  0  2  0  0  0  0  0  0
   34.9410   28.6200   38.2060 C   0  0  1  0  0  3  0  0  0  0  0  0
   34.7170   29.6640   39.2760 C   0  0  1  0  0  3  0  0  0  0  0  0
   35.5800   30.6230   41.2020 O   0  0  0  0  0  0  0  0  0  0  0  0
   34.7120   30.2800   41.5390 H   0  0  0  0  0  0  0  0  0  0  0  0
   35.1580   29.2250   36.9650 O   0  0  0  0  0  0  0  0  0  0  0  0
   34.4080   28.9500   36.3770 H   0  0  0  0  0  0  0  0  0  0  0  0
   33.5680   29.3080   39.9770 O   0  0  0  0  0  0  0  0  0  0  0  0
   33.1070   28.5280   39.6140 H   0  0  0  0  0  0  0  0  0  0  0  0
   41.7950   29.8190   41.9290 C   0  0  0  0  0  0  0  0  0  0  0  0
   41.6790   31.1060   41.4270 C   0  0  0  0  0  0  0  0  0  0  0  0
   42.3590   32.1210   42.1290 C   0  0  0  0  0  0  0  0  0  0  0  0
   43.0770   31.8020   43.2340 N   0  0  0  0  0  0  0  0  0  0  0  0
   43.1540   30.5370   43.6740 C   0  0  0  0  0  0  0  0  0  0  0  0
   42.5220   29.5750   43.0270 N   0  0  0  0  0  0  0  0  0  0  0  0
   42.2900   33.1220   41.7680 H   0  0  0  0  0  0  0  0  0  0  0  0
   43.7330   30.3140   44.5570 H   0  0  0  0  0  0  0  0  0  0  0  0
   39.5530   32.0590   40.5360 C   0  0  2  0  0  0  0  0  0  0  0  0
   40.9390   31.4480   40.1810 C   0  0  1  0  0  0  0  0  0  0  0  0
   41.5670   32.2620   39.3220 O   0  0  0  0  0  0  0  0  0  0  0  0
   40.9430   33.4810   39.2670 C   0  0  0  0  0  0  0  0  0  0  0  0
   39.4910   33.1470   39.4360 C   0  0  1  0  0  0  0  0  0  0  0  0
   38.6950   31.4360   40.3380 H   0  0  0  0  0  0  0  0  0  0  0  0
   40.5020   30.6740   39.6250 H   0  0  0  0  0  0  0  0  0  0  0  0
   41.1690   33.9110   38.2560 H   0  0  0  0  0  0  0  0  0  0  0  0
   41.2660   34.2220   40.0080 H   0  0  0  0  0  0  0  0  0  0  0  0
   38.9010   33.9940   39.7940 H   0  0  0  0  0  0  0  0  0  0  0  0
   39.4650   32.6070   41.7500 O   0  0  0  0  0  0  0  0  0  0  0  0
   39.0090   31.9970   42.4010 H   0  0  0  0  0  0  0  0  0  0  0  0
   39.0540   32.6200   38.2390 O   0  0  0  0  0  0  0  0  0  0  0  0
   38.0530   32.7180   38.1440 H   0  0  0  0  0  0  0  0  0  0  0  0
  1  6  1  0  0  0  0
  1 26  1  0  0  0  0
  2  1  1  0  0  0  0
  3  1  1  0  0  0  0
  4  5  1  0  0  0  0
  5 10  2  0  0  0  0
  5  6  1  0  0  0  0
  6  7  2  0  0  0  0
  7  8  1  0  0  0  0
  7 11  1  0  0  0  0
  8 12  1  0  0  0  0
  9 13  1  0  0  0  0
  9  8  2  0  0  0  0
 10  9  1  0  0  0  0
 14 15  1  0  0  0  0
 14 20  1  1  0  0  0
 15 10  1  6  0  0  0
 16 15  1  0  0  0  0
 17 16  1  0  0  0  0
 18 22  1  6  0  0  0
 18 17  1  0  0  0  0
 18 19  1  0  0  0  0
 19 24  1  1  0  0  0
 19 14  1  0  0  0  0
 20 21  1  0  0  0  0
 23 22  1  0  0  0  0
 25 24  1  0  0  0  0
 26 31  1  0  0  0  0
 27 26  2  0  0  0  0
 27 28  1  0  0  0  0
 28 29  2  0  0  0  0
 29 30  1  0  0  0  0
 30 33  1  0  0  0  0
 31 30  2  0  0  0  0
 32 28  1  0  0  0  0
 34 39  1  6  0  0  0
 34 44  1  0  0  0  0
 35 40  1  6  0  0  0
 35 34  1  0  0  0  0
 35 27  1  0  0  0  0
 36 35  1  0  0  0  0
 37 36  1  0  0  0  0
 37 38  1  0  0  0  0
 37 42  1  0  0  0  0
 38 43  1  1  0  0  0
 38 34  1  0  0  0  0
 41 37  1  0  0  0  0
 44 45  1  0  0  0  0
 46 38  1  0  0  0  0
 47 46  1  0  0  0  0
M  END
>  <minimizedAffinity>
-6.53079224

$$$$

 OpenBabel03242514513D

 47 50  0  0  1  0  0  0  0  0999 V2000
   38.1210   30.8430   37.5380 C   0  0  0  0  0  0  0  0  0  0  0  0
   39.0230   30.3610   37.2130 H   0  0  0  0  0  0  0  0  0  0  0  0
   37.7180   31.3420   36.6000 H   0  0  0  0  0  0  0  0  0  0  0  0
   38.3970   29.1770   39.8690 F   0  0  0  0  0  0  0  0  0  0  0  0
   37.3100   29.0910   39.1120 C   0  0  0  0  0  0  0  0  0  0  0  0
   37.1120   29.8670   37.9830 C   0  0  0  0  0  0  0  0  0  0  0  0
   35.9510   29.7270   37.2590 C   0  0  0  0  0  0  0  0  0  0  0  0
   35.0210   28.8050   37.7000 C   0  0  0  0  0  0  0  0  0  0  0  0
   35.1610   28.0160   38.8030 C   0  0  0  0  0  0  0  0  0  0  0  0
   36.3460   28.1610   39.5370 C   0  0  0  0  0  0  0  0  0  0  0  0
   35.8040   30.3370   36.3770 H   0  0  0  0  0  0  0  0  0  0  0  0
   34.1240   28.7350   37.0940 H   0  0  0  0  0  0  0  0  0  0  0  0
   34.3820   27.3180   39.0770 H   0  0  0  0  0  0  0  0  0  0  0  0
   37.8540   26.6050   40.7580 C   0  0  1  0  0  3  0  0  0  0  0  0
   36.5760   27.3390   40.7460 C   0  0  1  0  0  3  0  0  0  0  0  0
   36.4350   28.0860   41.9040 O   0  0  0  0  0  0  0  0  0  0  0  0
   37.6320   28.3050   42.5410 C   0  0  0  0  0  2  0  0  0  0  0  0
   38.1000   26.9910   43.1750 C   0  0  1  0  0  3  0  0  0  0  0  0
   38.0450   25.9300   42.1000 C   0  0  1  0  0  3  0  0  0  0  0  0
   37.7090   25.5300   39.8410 O   0  0  0  0  0  0  0  0  0  0  0  0
   36.9820   24.9830   40.2360 H   0  0  0  0  0  0  0  0  0  0  0  0
   39.3980   27.1160   43.6770 O   0  0  0  0  0  0  0  0  0  0  0  0
   39.3610   26.8560   44.6340 H   0  0  0  0  0  0  0  0  0  0  0  0
   36.9820   25.0820   42.4000 O   0  0  0  0  0  0  0  0  0  0  0  0
   36.5410   25.2840   43.2470 H   0  0  0  0  0  0  0  0  0  0  0  0
   38.2770   31.9850   38.4760 C   0  0  0  0  0  0  0  0  0  0  0  0
   39.5480   32.2320   38.9720 C   0  0  0  0  0  0  0  0  0  0  0  0
   39.6830   33.3280   39.8470 C   0  0  0  0  0  0  0  0  0  0  0  0
   38.5920   34.0730   40.1550 N   0  0  0  0  0  0  0  0  0  0  0  0
   37.3860   33.7870   39.6430 C   0  0  0  0  0  0  0  0  0  0  0  0
   37.2430   32.7630   38.8230 N   0  0  0  0  0  0  0  0  0  0  0  0
   40.6470   33.5440   40.2460 H   0  0  0  0  0  0  0  0  0  0  0  0
   36.5360   34.3980   39.9070 H   0  0  0  0  0  0  0  0  0  0  0  0
   41.3670   31.7960   37.3220 C   0  0  2  0  0  0  0  0  0  0  0  0
   40.7340   31.3790   38.6810 C   0  0  1  0  0  0  0  0  0  0  0  0
   41.6910   31.3520   39.6170 O   0  0  0  0  0  0  0  0  0  0  0  0
   42.8260   31.9740   39.1670 C   0  0  0  0  0  0  0  0  0  0  0  0
   42.8590   31.6420   37.7050 C   0  0  1  0  0  0  0  0  0  0  0  0
   41.2330   31.1050   36.5040 H   0  0  0  0  0  0  0  0  0  0  0  0
   40.5800   30.3940   38.3540 H   0  0  0  0  0  0  0  0  0  0  0  0
   43.6840   31.5210   39.7290 H   0  0  0  0  0  0  0  0  0  0  0  0
   42.8780   33.0580   39.3260 H   0  0  0  0  0  0  0  0  0  0  0  0
   43.4600   32.3460   37.1240 H   0  0  0  0  0  0  0  0  0  0  0  0
   41.1050   33.0440   36.9300 O   0  0  0  0  0  0  0  0  0  0  0  0
   40.3800   33.0720   36.2390 H   0  0  0  0  0  0  0  0  0  0  0  0
   43.2680   30.3290   37.5970 O   0  0  0  0  0  0  0  0  0  0  0  0
   43.6660   30.1470   36.6860 H   0  0  0  0  0  0  0  0  0  0  0  0
  1  6  1  0  0  0  0
  1 26  1  0  0  0  0
  2  1  1  0  0  0  0
  3  1  1  0  0  0  0
  5 10  1  0  0  0  0
  5  4  1  0  0  0  0
  6  5  2  0  0  0  0
  7  8  2  0  0  0  0
  7  6  1  0  0  0  0
  8  9  1  0  0  0  0
  9 13  1  0  0  0  0
  9 10  2  0  0  0  0
 11  7  1  0  0  0  0
 12  8  1  0  0  0  0
 14 20  1  6  0  0  0
 14 19  1  0  0  0  0
 15 10  1  6  0  0  0
 15 14  1  0  0  0  0
 15 16  1  0  0  0  0
 16 17  1  0  0  0  0
 17 18  1  0  0  0  0
 18 22  1  6  0  0  0
 19 24  1  1  0  0  0
 19 18  1  0  0  0  0
 20 21  1  0  0  0  0
 22 23  1  0  0  0  0
 24 25  1  0  0  0  0
 26 31  2  0  0  0  0
 26 27  1  0  0  0  0
 27 28  2  0  0  0  0
 28 29  1  0  0  0  0
 28 32  1  0  0  0  0
 30 33  1  0  0  0  0
 30 29  2  0  0  0  0
 31 30  1  0  0  0  0
 34 39  1  6  0  0  0
 34 38  1  0  0  0  0
 34 35  1  0  0  0  0
 35 40  1  6  0  0  0
 35 27  1  0  0  0  0
 35 36  1  0  0  0  0
 37 42  1  0  0  0  0
 37 36  1  0  0  0  0
 37 41  1  0  0  0  0
 38 43  1  6  0  0  0
 38 37  1  0  0  0  0
 44 34  1  0  0  0  0
 45 44  1  0  0  0  0
 46 38  1  0  0  0  0
 47 46  1  0  0  0  0
M  END
>  <minimizedAffinity>
-6.50582361

$$$$

 OpenBabel03242514513D

 47 50  0  0  1  0  0  0  0  0999 V2000
   35.8340   27.9800   40.2540 C   0  0  0  0  0  0  0  0  0  0  0  0
   35.2840   27.3170   40.8950 H   0  0  0  0  0  0  0  0  0  0  0  0
   35.0680   28.7530   39.9290 H   0  0  0  0  0  0  0  0  0  0  0  0
   37.3930   30.1380   39.1600 F   0  0  0  0  0  0  0  0  0  0  0  0
   37.6090   29.7230   40.4020 C   0  0  0  0  0  0  0  0  0  0  0  0
   36.8910   28.6940   40.9900 C   0  0  0  0  0  0  0  0  0  0  0  0
   37.1670   28.3310   42.2870 C   0  0  0  0  0  0  0  0  0  0  0  0
   38.1620   29.0190   42.9540 C   0  0  0  0  0  0  0  0  0  0  0  0
   38.9000   30.0380   42.4280 C   0  0  0  0  0  0  0  0  0  0  0  0
   38.6160   30.4050   41.1050 C   0  0  0  0  0  0  0  0  0  0  0  0
   36.6010   27.5260   42.7400 H   0  0  0  0  0  0  0  0  0  0  0  0
   38.3390   28.6930   43.9740 H   0  0  0  0  0  0  0  0  0  0  0  0
   39.6630   30.5220   43.0210 H   0  0  0  0  0  0  0  0  0  0  0  0
   39.2280   32.8150   41.1080 C   0  0  1  0  0  3  0  0  0  0  0  0
   39.3740   31.5000   40.4600 C   0  0  1  0  0  3  0  0  0  0  0  0
   40.7130   31.1760   40.3150 O   0  0  0  0  0  0  0  0  0  0  0  0
   41.5260   31.8980   41.1540 C   0  0  0  0  0  2  0  0  0  0  0  0
   41.5870   33.3450   40.6550 C   0  0  1  0  0  3  0  0  0  0  0  0
   40.1640   33.8140   40.4580 C   0  0  1  0  0  3  0  0  0  0  0  0
   37.9290   33.2850   40.7790 O   0  0  0  0  0  0  0  0  0  0  0  0
   37.9580   33.3780   39.7910 H   0  0  0  0  0  0  0  0  0  0  0  0
   42.2520   34.1610   41.5740 O   0  0  0  0  0  0  0  0  0  0  0  0
   42.9920   34.6030   41.0820 H   0  0  0  0  0  0  0  0  0  0  0  0
   39.9360   33.9070   39.0870 O   0  0  0  0  0  0  0  0  0  0  0  0
   40.7260   33.7300   38.5410 H   0  0  0  0  0  0  0  0  0  0  0  0
   36.3040   27.4180   38.9620 C   0  0  0  0  0  0  0  0  0  0  0  0
   37.1160   26.2960   39.0130 C   0  0  0  0  0  0  0  0  0  0  0  0
   37.5390   25.7650   37.7790 C   0  0  0  0  0  0  0  0  0  0  0  0
   37.1420   26.3590   36.6270 N   0  0  0  0  0  0  0  0  0  0  0  0
   36.3540   27.4440   36.6380 C   0  0  0  0  0  0  0  0  0  0  0  0
   35.9500   27.9540   37.7870 N   0  0  0  0  0  0  0  0  0  0  0  0
   38.1650   24.9020   37.7840 H   0  0  0  0  0  0  0  0  0  0  0  0
   36.0540   27.8960   35.7040 H   0  0  0  0  0  0  0  0  0  0  0  0
   36.6580   24.5130   40.6960 C   0  0  2  0  0  0  0  0  0  0  0  0
   37.6010   25.6780   40.2800 C   0  0  1  0  0  0  0  0  0  0  0  0
   38.8650   25.2370   40.2790 O   0  0  0  0  0  0  0  0  0  0  0  0
   38.9000   23.8680   40.3470 C   0  0  0  0  0  0  0  0  0  0  0  0
   37.7300   23.5240   41.2180 C   0  0  1  0  0  0  0  0  0  0  0  0
   36.0290   24.6950   41.5540 H   0  0  0  0  0  0  0  0  0  0  0  0
   37.4400   26.1860   41.1830 H   0  0  0  0  0  0  0  0  0  0  0  0
   39.8800   23.5960   40.8180 H   0  0  0  0  0  0  0  0  0  0  0  0
   38.8490   23.3370   39.3890 H   0  0  0  0  0  0  0  0  0  0  0  0
   37.3810   22.4980   41.0720 H   0  0  0  0  0  0  0  0  0  0  0  0
   35.9520   23.9670   39.7040 O   0  0  0  0  0  0  0  0  0  0  0  0
   35.0090   24.3040   39.6900 H   0  0  0  0  0  0  0  0  0  0  0  0
   38.0890   23.8190   42.5160 O   0  0  0  0  0  0  0  0  0  0  0  0
   37.5360   23.2890   43.1740 H   0  0  0  0  0  0  0  0  0  0  0  0
  1  2  1  0  0  0  0
  1  6  1  0  0  0  0
  3  1  1  0  0  0  0
  4  5  1  0  0  0  0
  5  6  2  0  0  0  0
  5 10  1  0  0  0  0
  6  7  1  0  0  0  0
  7 11  1  0  0  0  0
  7  8  2  0  0  0  0
  8 12  1  0  0  0  0
  9  8  1  0  0  0  0
  9 13  1  0  0  0  0
 10  9  2  0  0  0  0
 14 20  1  6  0  0  0
 15 10  1  1  0  0  0
 15 14  1  0  0  0  0
 16 15  1  0  0  0  0
 16 17  1  0  0  0  0
 18 17  1  0  0  0  0
 18 22  1  1  0  0  0
 19 24  1  6  0  0  0
 19 18  1  0  0  0  0
 19 14  1  0  0  0  0
 21 20  1  0  0  0  0
 23 22  1  0  0  0  0
 25 24  1  0  0  0  0
 26 27  1  0  0  0  0
 26  1  1  0  0  0  0
 27 35  1  0  0  0  0
 28 32  1  0  0  0  0
 28 27  2  0  0  0  0
 29 30  2  0  0  0  0
 29 28  1  0  0  0  0
 30 31  1  0  0  0  0
 31 26  2  0  0  0  0
 33 30  1  0  0  0  0
 34 38  1  0  0  0  0
 34 39  1  1  0  0  0
 35 34  1  0  0  0  0
 35 40  1  1  0  0  0
 36 35  1  0  0  0  0
 36 37  1  0  0  0  0
 37 41  1  0  0  0  0
 37 38  1  0  0  0  0
 38 43  1  6  0  0  0
 38 46  1  0  0  0  0
 42 37  1  0  0  0  0
 44 34  1  0  0  0  0
 45 44  1  0  0  0  0
 46 47  1  0  0  0  0
M  END
>  <minimizedAffinity>
-6.47192144

$$$$
