REMARK  Name = 
REMARK  6 active torsions:
REMARK  status: ('A' for Active; 'I' for Inactive)
REMARK    1  A    between atoms: C_1  and  C_9
REMARK    2  A    between atoms: C_6  and  C_14
REMARK    3  A    between atoms: C_8  and  C_27
REMARK    4  A    between atoms: O_25  and  C_26
REMARK    5  A    between atoms: C_30  and  O_31
REMARK    6  A    between atoms: C_32  and  O_33
REMARK                            x       y       z     vdW  Elec       q    Type
REMARK                         _______ _______ _______ _____ _____    ______ ____
ROOT
ATOM      1  C   UNL     1      44.421  36.219  44.791  0.00  0.00    +0.000 A 
ATOM      2  C   UNL     1      45.077  36.132  43.536  0.00  0.00    +0.000 A 
ATOM      3  C   UNL     1      45.883  35.035  43.320  0.00  0.00    +0.000 A 
ATOM      4  N   UNL     1      46.006  34.109  44.311  0.00  0.00    +0.000 NA
ATOM      5  C   UNL     1      45.360  34.235  45.496  0.00  0.00    +0.000 A 
ATOM      6  N   UNL     1      44.572  35.285  45.731  0.00  0.00    +0.000 NA
ATOM      7  N   UNL     1      45.526  33.266  46.527  0.00  0.00    +0.000 N 
ATOM      8  H   UNL     1      43.770  37.050  45.033  0.00  0.00    +0.000 HD
ATOM      9  H   UNL     1      44.780  32.935  47.174  0.00  0.00    +0.000 HD
ATOM     10  H   UNL     1      46.480  32.824  46.673  0.00  0.00    +0.000 HD
ENDROOT
BRANCH   3  11
ATOM     11  C   UNL     1      46.593  34.809  42.101  0.00  0.00    +0.000 A 
ATOM     12  C   UNL     1      47.921  35.217  42.041  0.00  0.00    +0.000 A 
ATOM     13  C   UNL     1      48.714  35.031  40.905  0.00  0.00    +0.000 A 
ATOM     14  C   UNL     1      48.179  34.427  39.801  0.00  0.00    +0.000 A 
ATOM     15  C   UNL     1      46.865  34.021  39.856  0.00  0.00    +0.000 A 
ATOM     16  C   UNL     1      46.074  34.205  40.984  0.00  0.00    +0.000 A 
ATOM     17  H   UNL     1      48.372  35.698  42.897  0.00  0.00    +0.000 HD
ATOM     18  H   UNL     1      49.741  35.379  40.942  0.00  0.00    +0.000 HD
ATOM     19  H   UNL     1      48.785  34.279  38.917  0.00  0.00    +0.000 HD
ATOM     20  H   UNL     1      46.407  33.536  38.993  0.00  0.00    +0.000 HD
BRANCH  16  21
ATOM     21  C   UNL     1      44.673  33.756  41.025  0.00  0.00    +0.000 C 
ATOM     22  F   UNL     1      44.464  32.904  39.943  0.00  0.00    +0.000 F 
ATOM     23  F   UNL     1      43.831  34.847  40.938  0.00  0.00    +0.000 F 
ATOM     24  F   UNL     1      44.332  33.096  42.177  0.00  0.00    +0.000 F 
ENDBRANCH  16  21
ENDBRANCH   3  11
BRANCH   2  26
ATOM     25  C   UNL     1      46.222  37.864  42.274  0.00  0.00    +0.000 C 
ATOM     26  C   UNL     1      44.867  37.266  42.599  0.00  0.00    +0.000 C 
ATOM     27  O   UNL     1      44.003  38.138  43.216  0.00  0.00    +0.000 OA
ATOM     28  C   UNL     1      43.927  39.397  42.678  0.00  0.00    +0.000 C 
ATOM     29  C   UNL     1      45.304  40.040  42.904  0.00  0.00    +0.000 C 
ATOM     30  C   UNL     1      46.217  39.311  41.944  0.00  0.00    +0.000 C 
BRANCH  25  31
ATOM     31  O   UNL     1      46.877  37.080  41.356  0.00  0.00    +0.000 OA
ATOM     32  H   UNL     1      47.631  36.542  41.732  0.00  0.00    +0.000 HD
ENDBRANCH  25  31
BRANCH  29  33
ATOM     33  O   UNL     1      45.273  41.407  42.687  0.00  0.00    +0.000 OA
ATOM     34  H   UNL     1      44.421  41.728  43.123  0.00  0.00    +0.000 HD
ENDBRANCH  29  33
BRANCH  30  35
ATOM     35  O   UNL     1      47.531  39.782  42.117  0.00  0.00    +0.000 OA
ATOM     36  H   UNL     1      48.019  39.221  42.776  0.00  0.00    +0.000 HD
ENDBRANCH  30  35
ENDBRANCH   2  26
TORSDOF 6
