
 OpenBabel03252506303D

 50 54  0  0  1  0  0  0  0  0999 V2000
   38.1370   31.9380   39.3760 C   0  0  0  0  0  0  0  0  0  0  0  0
   37.6310   31.5960   38.0980 C   0  0  0  0  0  0  0  0  0  0  0  0
   36.7510   30.5850   38.2400 C   0  0  0  0  0  0  0  0  0  0  0  0
   36.7070   30.3030   39.5530 N   0  0  0  0  0  0  0  0  0  0  0  0
   37.5310   31.1050   40.2350 N   0  0  0  0  0  0  0  0  0  0  0  0
   37.9270   32.0910   37.1810 H   0  0  0  0  0  0  0  0  0  0  0  0
   36.2270   30.1440   37.4050 H   0  0  0  0  0  0  0  0  0  0  0  0
   39.5350   35.1990   40.2170 C   0  0  0  0  0  0  0  0  0  0  0  0
   40.9160   35.0150   40.0650 C   0  0  0  0  0  0  0  0  0  0  0  0
   41.3330   33.7450   39.6680 C   0  0  0  0  0  0  0  0  0  0  0  0
   40.4130   32.7920   39.4590 N   0  0  0  0  0  0  0  0  0  0  0  0
   39.1040   32.9810   39.6080 C   0  0  0  0  0  0  0  0  0  0  0  0
   38.6710   34.1970   39.9900 N   0  0  0  0  0  0  0  0  0  0  0  0
   39.2110   36.1750   40.5220 H   0  0  0  0  0  0  0  0  0  0  0  0
   41.5850   35.8360   40.2550 H   0  0  0  0  0  0  0  0  0  0  0  0
   43.2140   33.7880   38.0470 C   0  0  2  0  0  3  0  0  0  0  0  0
   42.7950   33.5210   39.4990 C   0  0  1  0  0  3  0  0  0  0  0  0
   43.5290   34.4570   40.2510 O   0  0  0  0  0  0  0  0  0  0  0  0
   44.8530   34.0960   40.2310 C   0  0  0  0  0  2  0  0  0  0  0  0
   45.4780   34.1220   38.8460 C   0  0  1  0  0  3  0  0  0  0  0  0
   44.6250   33.3200   37.8780 C   0  0  2  0  0  3  0  0  0  0  0  0
   43.1260   35.1630   37.7990 O   0  0  0  0  0  0  0  0  0  0  0  0
   42.7410   35.6210   38.5970 H   0  0  0  0  0  0  0  0  0  0  0  0
   45.6120   35.4250   38.3630 O   0  0  0  0  0  0  0  0  0  0  0  0
   45.5070   35.3650   37.3720 H   0  0  0  0  0  0  0  0  0  0  0  0
   45.0020   33.6100   36.5670 O   0  0  0  0  0  0  0  0  0  0  0  0
   45.4600   32.8510   36.1370 H   0  0  0  0  0  0  0  0  0  0  0  0
   35.8840   29.2720   40.1570 C   0  0  0  0  0  0  0  0  0  0  0  0
   36.1250   28.2910   39.6690 H   0  0  0  0  0  0  0  0  0  0  0  0
   34.8270   29.4870   40.0140 H   0  0  0  0  0  0  0  0  0  0  0  0
   36.2250   29.1230   41.6010 C   0  0  0  0  0  0  0  0  0  0  0  0
   35.2830   29.1580   42.1870 H   0  0  0  0  0  0  0  0  0  0  0  0
   36.7970   30.0490   41.8880 H   0  0  0  0  0  0  0  0  0  0  0  0
   36.8240   26.6330   41.7380 C   0  0  0  0  0  0  0  0  0  0  0  0
   37.0460   27.9790   41.9640 C   0  0  0  0  0  0  0  0  0  0  0  0
   38.2250   28.2990   42.6390 C   0  0  0  0  0  0  0  0  0  0  0  0
   39.1120   27.3430   43.0550 C   0  0  0  0  0  0  0  0  0  0  0  0
   40.2920   27.3520   43.7050 N   0  0  0  0  0  0  0  0  0  0  0  0
   40.7710   26.1270   43.8750 C   0  0  0  0  0  0  0  0  0  0  0  0
   39.8810   25.2090   43.3130 C   0  0  0  0  0  0  0  0  0  0  0  0
   38.8810   26.0150   42.8240 C   0  0  0  0  0  0  0  0  0  0  0  0
   37.7140   25.6790   42.1550 C   0  0  0  0  0  0  0  0  0  0  0  0
   35.8980   26.4280   41.2110 H   0  0  0  0  0  0  0  0  0  0  0  0
   38.5130   29.3240   42.8780 H   0  0  0  0  0  0  0  0  0  0  0  0
   40.7790   28.2340   44.0420 H   0  0  0  0  0  0  0  0  0  0  0  0
   41.7120   25.8860   44.3740 H   0  0  0  0  0  0  0  0  0  0  0  0
   40.0000   24.1430   43.2950 H   0  0  0  0  0  0  0  0  0  0  0  0
   37.4250   24.2750   41.8870 C   0  0  0  0  0  0  0  0  0  0  0  0
   36.4960   23.9490   41.0880 O   0  0  0  0  0  0  0  0  0  0  0  0
   38.0020   23.4840   42.3680 H   0  0  0  0  0  0  0  0  0  0  0  0
  1 12  1  0  0  0  0
  1  5  2  0  0  0  0
  2  3  2  0  0  0  0
  2  1  1  0  0  0  0
  3  4  1  0  0  0  0
  4 28  1  0  0  0  0
  4  5  1  0  0  0  0
  6  2  1  0  0  0  0
  7  3  1  0  0  0  0
  8 14  1  0  0  0  0
  9  8  1  0  0  0  0
  9 15  1  0  0  0  0
 10  9  2  0  0  0  0
 11 12  2  0  0  0  0
 11 10  1  0  0  0  0
 12 13  1  0  0  0  0
 13  8  2  0  0  0  0
 16 22  1  1  0  0  0
 16 17  1  0  0  0  0
 17 10  1  6  0  0  0
 17 18  1  0  0  0  0
 19 18  1  0  0  0  0
 20 24  1  6  0  0  0
 20 19  1  0  0  0  0
 21 26  1  6  0  0  0
 21 16  1  0  0  0  0
 21 20  1  0  0  0  0
 22 23  1  0  0  0  0
 25 24  1  0  0  0  0
 27 26  1  0  0  0  0
 28 31  1  0  0  0  0
 29 28  1  0  0  0  0
 30 28  1  0  0  0  0
 31 33  1  0  0  0  0
 31 35  1  0  0  0  0
 31 32  1  0  0  0  0
 34 35  2  0  0  0  0
 34 42  1  0  0  0  0
 35 36  1  0  0  0  0
 36 44  1  0  0  0  0
 36 37  2  0  0  0  0
 37 38  1  0  0  0  0
 38 39  1  0  0  0  0
 38 45  1  0  0  0  0
 39 46  1  0  0  0  0
 40 39  2  0  0  0  0
 41 37  1  0  0  0  0
 41 40  1  0  0  0  0
 42 41  2  0  0  0  0
 43 34  1  0  0  0  0
 47 40  1  0  0  0  0
 48 42  1  0  0  0  0
 48 50  1  0  0  0  0
 49 48  2  0  0  0  0
M  END
>  <minimizedAffinity>
-8.1149826

$$$$

 OpenBabel03252506303D

 50 54  0  0  1  0  0  0  0  0999 V2000
   38.0680   31.8810   39.0290 C   0  0  0  0  0  0  0  0  0  0  0  0
   37.9180   31.4110   37.7020 C   0  0  0  0  0  0  0  0  0  0  0  0
   36.9420   30.4810   37.6820 C   0  0  0  0  0  0  0  0  0  0  0  0
   36.4980   30.3720   38.9450 N   0  0  0  0  0  0  0  0  0  0  0  0
   37.1650   31.2030   39.7520 N   0  0  0  0  0  0  0  0  0  0  0  0
   38.5100   31.7660   36.8670 H   0  0  0  0  0  0  0  0  0  0  0  0
   36.6390   29.9710   36.7800 H   0  0  0  0  0  0  0  0  0  0  0  0
   39.4280   34.9980   40.3440 C   0  0  0  0  0  0  0  0  0  0  0  0
   40.8130   34.8390   40.2040 C   0  0  0  0  0  0  0  0  0  0  0  0
   41.2470   33.6360   39.6470 C   0  0  0  0  0  0  0  0  0  0  0  0
   40.3370   32.7200   39.2860 N   0  0  0  0  0  0  0  0  0  0  0  0
   39.0240   32.8850   39.4260 C   0  0  0  0  0  0  0  0  0  0  0  0
   38.5750   34.0350   39.9610 N   0  0  0  0  0  0  0  0  0  0  0  0
   39.0910   35.9220   40.7720 H   0  0  0  0  0  0  0  0  0  0  0  0
   41.4730   35.6280   40.5210 H   0  0  0  0  0  0  0  0  0  0  0  0
   43.1360   33.7230   38.0380 C   0  0  2  0  0  3  0  0  0  0  0  0
   42.7130   33.4400   39.4850 C   0  0  1  0  0  3  0  0  0  0  0  0
   43.4250   34.3860   40.2470 O   0  0  0  0  0  0  0  0  0  0  0  0
   44.7560   34.0500   40.2340 C   0  0  0  0  0  2  0  0  0  0  0  0
   45.3880   34.0940   38.8530 C   0  0  1  0  0  3  0  0  0  0  0  0
   44.5560   33.2810   37.8750 C   0  0  2  0  0  3  0  0  0  0  0  0
   43.0240   35.0970   37.7960 O   0  0  0  0  0  0  0  0  0  0  0  0
   42.6260   35.5440   38.5940 H   0  0  0  0  0  0  0  0  0  0  0  0
   45.5010   35.4020   38.3760 O   0  0  0  0  0  0  0  0  0  0  0  0
   45.4030   35.3460   37.3850 H   0  0  0  0  0  0  0  0  0  0  0  0
   44.9360   33.5850   36.5680 O   0  0  0  0  0  0  0  0  0  0  0  0
   45.4110   32.8370   36.1380 H   0  0  0  0  0  0  0  0  0  0  0  0
   35.4420   29.4790   39.3830 C   0  0  0  0  0  0  0  0  0  0  0  0
   34.6300   29.4790   38.6090 H   0  0  0  0  0  0  0  0  0  0  0  0
   35.0230   29.8100   40.3310 H   0  0  0  0  0  0  0  0  0  0  0  0
   35.9520   28.0810   39.4630 C   0  0  0  0  0  0  0  0  0  0  0  0
   36.5230   27.8630   38.5370 H   0  0  0  0  0  0  0  0  0  0  0  0
   35.0490   27.4110   39.4300 H   0  0  0  0  0  0  0  0  0  0  0  0
   36.6250   28.2520   41.9330 C   0  0  0  0  0  0  0  0  0  0  0  0
   36.7060   27.7280   40.6560 C   0  0  0  0  0  0  0  0  0  0  0  0
   37.6450   26.7110   40.4720 C   0  0  0  0  0  0  0  0  0  0  0  0
   38.4400   26.2560   41.4890 C   0  0  0  0  0  0  0  0  0  0  0  0
   39.4020   25.3200   41.6060 N   0  0  0  0  0  0  0  0  0  0  0  0
   39.8830   25.2580   42.8400 C   0  0  0  0  0  0  0  0  0  0  0  0
   39.2240   26.2000   43.6330 C   0  0  0  0  0  0  0  0  0  0  0  0
   38.3480   26.7830   42.7490 C   0  0  0  0  0  0  0  0  0  0  0  0
   37.4210   27.7930   42.9490 C   0  0  0  0  0  0  0  0  0  0  0  0
   35.8830   29.0370   42.0330 H   0  0  0  0  0  0  0  0  0  0  0  0
   37.8060   26.2180   39.5120 H   0  0  0  0  0  0  0  0  0  0  0  0
   39.7340   24.7060   40.8050 H   0  0  0  0  0  0  0  0  0  0  0  0
   40.6680   24.5750   43.1730 H   0  0  0  0  0  0  0  0  0  0  0  0
   39.3980   26.3820   44.6760 H   0  0  0  0  0  0  0  0  0  0  0  0
   37.2880   28.3870   44.2750 C   0  0  0  0  0  0  0  0  0  0  0  0
   36.4620   27.9150   45.1130 O   0  0  0  0  0  0  0  0  0  0  0  0
   37.8960   29.2440   44.5670 H   0  0  0  0  0  0  0  0  0  0  0  0
  1 12  1  0  0  0  0
  1  5  2  0  0  0  0
  2  1  1  0  0  0  0
  3  2  2  0  0  0  0
  3  4  1  0  0  0  0
  4 28  1  0  0  0  0
  4  5  1  0  0  0  0
  6  2  1  0  0  0  0
  7  3  1  0  0  0  0
  8 14  1  0  0  0  0
  9  8  1  0  0  0  0
  9 15  1  0  0  0  0
 10  9  2  0  0  0  0
 11 12  2  0  0  0  0
 11 10  1  0  0  0  0
 12 13  1  0  0  0  0
 13  8  2  0  0  0  0
 16 22  1  1  0  0  0
 16 17  1  0  0  0  0
 17 10  1  6  0  0  0
 17 18  1  0  0  0  0
 19 18  1  0  0  0  0
 20 24  1  6  0  0  0
 20 19  1  0  0  0  0
 21 26  1  6  0  0  0
 21 16  1  0  0  0  0
 21 20  1  0  0  0  0
 22 23  1  0  0  0  0
 25 24  1  0  0  0  0
 27 26  1  0  0  0  0
 28 31  1  0  0  0  0
 28 30  1  0  0  0  0
 29 28  1  0  0  0  0
 31 35  1  0  0  0  0
 32 31  1  0  0  0  0
 33 31  1  0  0  0  0
 34 43  1  0  0  0  0
 34 42  1  0  0  0  0
 35 34  2  0  0  0  0
 36 35  1  0  0  0  0
 36 37  2  0  0  0  0
 37 38  1  0  0  0  0
 37 41  1  0  0  0  0
 38 39  1  0  0  0  0
 39 46  1  0  0  0  0
 39 40  2  0  0  0  0
 40 47  1  0  0  0  0
 41 42  2  0  0  0  0
 41 40  1  0  0  0  0
 42 48  1  0  0  0  0
 44 36  1  0  0  0  0
 45 38  1  0  0  0  0
 48 50  1  0  0  0  0
 48 49  2  0  0  0  0
M  END
>  <minimizedAffinity>
-8.0977087

$$$$

 OpenBabel03252506303D

 50 54  0  0  1  0  0  0  0  0999 V2000
   38.2890   32.4880   39.8020 C   0  0  0  0  0  0  0  0  0  0  0  0
   37.8630   32.0770   38.5150 C   0  0  0  0  0  0  0  0  0  0  0  0
   36.8660   31.1800   38.6570 C   0  0  0  0  0  0  0  0  0  0  0  0
   36.6740   31.0360   39.9790 N   0  0  0  0  0  0  0  0  0  0  0  0
   37.5180   31.8120   40.6660 N   0  0  0  0  0  0  0  0  0  0  0  0
   38.2940   32.4450   37.5920 H   0  0  0  0  0  0  0  0  0  0  0  0
   36.3730   30.7160   37.8160 H   0  0  0  0  0  0  0  0  0  0  0  0
   39.9690   35.5880   40.7340 C   0  0  0  0  0  0  0  0  0  0  0  0
   41.3230   35.3120   40.4990 C   0  0  0  0  0  0  0  0  0  0  0  0
   41.6230   34.0380   40.0160 C   0  0  0  0  0  0  0  0  0  0  0  0
   40.6240   33.1690   39.8080 N   0  0  0  0  0  0  0  0  0  0  0  0
   39.3420   33.4440   40.0350 C   0  0  0  0  0  0  0  0  0  0  0  0
   39.0210   34.6650   40.5020 N   0  0  0  0  0  0  0  0  0  0  0  0
   39.7350   36.5660   41.1050 H   0  0  0  0  0  0  0  0  0  0  0  0
   42.0610   36.0700   40.6950 H   0  0  0  0  0  0  0  0  0  0  0  0
   43.3820   33.8900   38.2700 C   0  0  2  0  0  3  0  0  0  0  0  0
   43.0530   33.7180   39.7580 C   0  0  1  0  0  3  0  0  0  0  0  0
   43.8920   34.6420   40.4090 O   0  0  0  0  0  0  0  0  0  0  0  0
   45.1890   34.2010   40.3170 C   0  0  0  0  0  2  0  0  0  0  0  0
   45.7120   34.1230   38.8930 C   0  0  1  0  0  3  0  0  0  0  0  0
   44.7480   33.3300   38.0280 C   0  0  2  0  0  3  0  0  0  0  0  0
   43.3550   35.2550   37.9580 O   0  0  0  0  0  0  0  0  0  0  0  0
   43.0560   35.7730   38.7560 H   0  0  0  0  0  0  0  0  0  0  0  0
   45.8860   35.3910   38.3350 O   0  0  0  0  0  0  0  0  0  0  0  0
   45.7070   35.2910   37.3580 H   0  0  0  0  0  0  0  0  0  0  0  0
   45.0450   33.5340   36.6810 O   0  0  0  0  0  0  0  0  0  0  0  0
   45.4280   32.7290   36.2610 H   0  0  0  0  0  0  0  0  0  0  0  0
   35.6900   30.1610   40.5870 C   0  0  0  0  0  0  0  0  0  0  0  0
   34.6670   30.5570   40.3550 H   0  0  0  0  0  0  0  0  0  0  0  0
   35.8170   30.1250   41.6670 H   0  0  0  0  0  0  0  0  0  0  0  0
   35.7660   28.8010   39.9790 C   0  0  0  0  0  0  0  0  0  0  0  0
   36.0940   28.9080   38.9250 H   0  0  0  0  0  0  0  0  0  0  0  0
   34.7100   28.4160   39.9320 H   0  0  0  0  0  0  0  0  0  0  0  0
   37.2780   27.9400   41.8630 C   0  0  0  0  0  0  0  0  0  0  0  0
   36.5550   27.8090   40.6920 C   0  0  0  0  0  0  0  0  0  0  0  0
   36.5790   26.5470   40.0980 C   0  0  0  0  0  0  0  0  0  0  0  0
   37.2730   25.4970   40.6370 C   0  0  0  0  0  0  0  0  0  0  0  0
   37.4720   24.2080   40.2990 N   0  0  0  0  0  0  0  0  0  0  0  0
   38.2480   23.5830   41.1740 C   0  0  0  0  0  0  0  0  0  0  0  0
   38.6130   24.4800   42.1800 C   0  0  0  0  0  0  0  0  0  0  0  0
   37.9840   25.6410   41.7970 C   0  0  0  0  0  0  0  0  0  0  0  0
   37.9720   26.8880   42.4000 C   0  0  0  0  0  0  0  0  0  0  0  0
   37.2330   28.9360   42.2920 H   0  0  0  0  0  0  0  0  0  0  0  0
   36.0500   26.3160   39.1720 H   0  0  0  0  0  0  0  0  0  0  0  0
   37.0580   23.7490   39.4350 H   0  0  0  0  0  0  0  0  0  0  0  0
   38.5470   22.5340   41.1090 H   0  0  0  0  0  0  0  0  0  0  0  0
   39.2360   24.2620   43.0260 H   0  0  0  0  0  0  0  0  0  0  0  0
   38.7150   27.0880   43.6390 C   0  0  0  0  0  0  0  0  0  0  0  0
   39.9180   27.4870   43.6120 O   0  0  0  0  0  0  0  0  0  0  0  0
   38.2490   26.8990   44.6070 H   0  0  0  0  0  0  0  0  0  0  0  0
  1 12  1  0  0  0  0
  1  5  2  0  0  0  0
  2  3  2  0  0  0  0
  2  1  1  0  0  0  0
  3  4  1  0  0  0  0
  4 28  1  0  0  0  0
  4  5  1  0  0  0  0
  6  2  1  0  0  0  0
  7  3  1  0  0  0  0
  8 14  1  0  0  0  0
  9 15  1  0  0  0  0
  9  8  2  0  0  0  0
 10  9  1  0  0  0  0
 11 10  2  0  0  0  0
 11 12  1  0  0  0  0
 12 13  2  0  0  0  0
 13  8  1  0  0  0  0
 16 22  1  1  0  0  0
 16 17  1  0  0  0  0
 17 10  1  6  0  0  0
 17 18  1  0  0  0  0
 19 18  1  0  0  0  0
 20 24  1  6  0  0  0
 20 19  1  0  0  0  0
 21 26  1  6  0  0  0
 21 16  1  0  0  0  0
 21 20  1  0  0  0  0
 22 23  1  0  0  0  0
 25 24  1  0  0  0  0
 27 26  1  0  0  0  0
 28 30  1  0  0  0  0
 29 28  1  0  0  0  0
 31 28  1  0  0  0  0
 31 35  1  0  0  0  0
 32 31  1  0  0  0  0
 33 31  1  0  0  0  0
 34 43  1  0  0  0  0
 34 42  1  0  0  0  0
 35 34  2  0  0  0  0
 36 37  2  0  0  0  0
 36 35  1  0  0  0  0
 37 41  1  0  0  0  0
 38 37  1  0  0  0  0
 38 39  1  0  0  0  0
 39 40  2  0  0  0  0
 40 47  1  0  0  0  0
 41 40  1  0  0  0  0
 41 42  2  0  0  0  0
 42 48  1  0  0  0  0
 44 36  1  0  0  0  0
 45 38  1  0  0  0  0
 46 39  1  0  0  0  0
 48 50  1  0  0  0  0
 49 48  2  0  0  0  0
M  END
>  <minimizedAffinity>
-7.96321869

$$$$

 OpenBabel03252506303D

 50 54  0  0  1  0  0  0  0  0999 V2000
   38.0800   32.3220   39.7300 C   0  0  0  0  0  0  0  0  0  0  0  0
   37.5940   31.9030   38.4670 C   0  0  0  0  0  0  0  0  0  0  0  0
   36.6490   30.9620   38.6590 C   0  0  0  0  0  0  0  0  0  0  0  0
   36.5450   30.7960   39.9890 N   0  0  0  0  0  0  0  0  0  0  0  0
   37.3950   31.6040   40.6310 N   0  0  0  0  0  0  0  0  0  0  0  0
   37.9500   32.2990   37.5230 H   0  0  0  0  0  0  0  0  0  0  0  0
   36.1250   30.4840   37.8450 H   0  0  0  0  0  0  0  0  0  0  0  0
   39.6580   35.5260   40.4650 C   0  0  0  0  0  0  0  0  0  0  0  0
   41.0230   35.2740   40.2680 C   0  0  0  0  0  0  0  0  0  0  0  0
   41.3650   33.9790   39.8780 C   0  0  0  0  0  0  0  0  0  0  0  0
   40.3940   33.0690   39.7180 N   0  0  0  0  0  0  0  0  0  0  0  0
   39.1020   33.3220   39.9090 C   0  0  0  0  0  0  0  0  0  0  0  0
   38.7400   34.5620   40.2860 N   0  0  0  0  0  0  0  0  0  0  0  0
   39.3910   36.5200   40.7640 H   0  0  0  0  0  0  0  0  0  0  0  0
   41.7360   36.0650   40.4190 H   0  0  0  0  0  0  0  0  0  0  0  0
   43.1790   33.8780   38.1850 C   0  0  2  0  0  3  0  0  0  0  0  0
   42.8080   33.6840   39.6610 C   0  0  1  0  0  3  0  0  0  0  0  0
   43.6110   34.6140   40.3480 O   0  0  0  0  0  0  0  0  0  0  0  0
   44.9170   34.1930   40.2910 C   0  0  0  0  0  2  0  0  0  0  0  0
   45.4860   34.1390   38.8830 C   0  0  1  0  0  3  0  0  0  0  0  0
   44.5610   33.3400   37.9810 C   0  0  2  0  0  3  0  0  0  0  0  0
   43.1410   35.2450   37.8870 O   0  0  0  0  0  0  0  0  0  0  0  0
   42.8090   35.7490   38.6810 H   0  0  0  0  0  0  0  0  0  0  0  0
   45.6570   35.4150   38.3440 O   0  0  0  0  0  0  0  0  0  0  0  0
   45.5090   35.3240   37.3610 H   0  0  0  0  0  0  0  0  0  0  0  0
   44.8970   33.5640   36.6450 O   0  0  0  0  0  0  0  0  0  0  0  0
   45.3040   32.7700   36.2290 H   0  0  0  0  0  0  0  0  0  0  0  0
   35.6400   29.8720   40.6450 C   0  0  0  0  0  0  0  0  0  0  0  0
   35.0670   29.3130   39.8600 H   0  0  0  0  0  0  0  0  0  0  0  0
   34.9370   30.4050   41.2820 H   0  0  0  0  0  0  0  0  0  0  0  0
   36.4140   28.8540   41.4120 C   0  0  0  0  0  0  0  0  0  0  0  0
   35.9820   28.7820   42.4310 H   0  0  0  0  0  0  0  0  0  0  0  0
   37.4470   29.2760   41.5470 H   0  0  0  0  0  0  0  0  0  0  0  0
   36.2780   27.1470   39.5020 C   0  0  0  0  0  0  0  0  0  0  0  0
   36.5610   27.5440   40.7950 C   0  0  0  0  0  0  0  0  0  0  0  0
   37.0610   26.5550   41.6430 C   0  0  0  0  0  0  0  0  0  0  0  0
   37.2620   25.2670   41.2250 C   0  0  0  0  0  0  0  0  0  0  0  0
   37.7170   24.1350   41.7990 N   0  0  0  0  0  0  0  0  0  0  0  0
   37.7200   23.1180   40.9470 C   0  0  0  0  0  0  0  0  0  0  0  0
   37.2440   23.5580   39.7100 C   0  0  0  0  0  0  0  0  0  0  0  0
   36.9780   24.8870   39.9420 C   0  0  0  0  0  0  0  0  0  0  0  0
   36.4800   25.8570   39.0870 C   0  0  0  0  0  0  0  0  0  0  0  0
   35.8920   27.9460   38.8770 H   0  0  0  0  0  0  0  0  0  0  0  0
   37.3220   26.7410   42.6860 H   0  0  0  0  0  0  0  0  0  0  0  0
   38.0330   24.0670   42.8100 H   0  0  0  0  0  0  0  0  0  0  0  0
   38.0470   22.1030   41.1860 H   0  0  0  0  0  0  0  0  0  0  0  0
   37.1330   22.9600   38.8270 H   0  0  0  0  0  0  0  0  0  0  0  0
   36.1630   25.4990   37.7090 C   0  0  0  0  0  0  0  0  0  0  0  0
   36.8140   26.0010   36.7450 O   0  0  0  0  0  0  0  0  0  0  0  0
   35.3610   24.7930   37.4860 H   0  0  0  0  0  0  0  0  0  0  0  0
  1 12  1  0  0  0  0
  1  5  2  0  0  0  0
  2  3  2  0  0  0  0
  2  1  1  0  0  0  0
  3  4  1  0  0  0  0
  4  5  1  0  0  0  0
  4 28  1  0  0  0  0
  6  2  1  0  0  0  0
  7  3  1  0  0  0  0
  8 14  1  0  0  0  0
  9 15  1  0  0  0  0
  9  8  2  0  0  0  0
 10  9  1  0  0  0  0
 11 10  2  0  0  0  0
 11 12  1  0  0  0  0
 12 13  2  0  0  0  0
 13  8  1  0  0  0  0
 16 22  1  1  0  0  0
 16 17  1  0  0  0  0
 17 10  1  6  0  0  0
 17 18  1  0  0  0  0
 19 18  1  0  0  0  0
 20 24  1  6  0  0  0
 20 19  1  0  0  0  0
 21 26  1  6  0  0  0
 21 16  1  0  0  0  0
 21 20  1  0  0  0  0
 22 23  1  0  0  0  0
 25 24  1  0  0  0  0
 27 26  1  0  0  0  0
 28 30  1  0  0  0  0
 28 31  1  0  0  0  0
 29 28  1  0  0  0  0
 31 33  1  0  0  0  0
 31 32  1  0  0  0  0
 34 35  1  0  0  0  0
 35 31  1  0  0  0  0
 35 36  2  0  0  0  0
 36 44  1  0  0  0  0
 37 36  1  0  0  0  0
 37 38  1  0  0  0  0
 38 45  1  0  0  0  0
 39 46  1  0  0  0  0
 39 38  1  0  0  0  0
 40 41  1  0  0  0  0
 40 39  2  0  0  0  0
 41 37  2  0  0  0  0
 42 34  2  0  0  0  0
 42 41  1  0  0  0  0
 43 34  1  0  0  0  0
 47 40  1  0  0  0  0
 48 42  1  0  0  0  0
 49 48  2  0  0  0  0
 50 48  1  0  0  0  0
M  END
>  <minimizedAffinity>
-7.71332359

$$$$

 OpenBabel03252506303D

 50 54  0  0  1  0  0  0  0  0999 V2000
   37.1480   29.8280   38.9570 C   0  0  0  0  0  0  0  0  0  0  0  0
   35.7780   29.6640   38.6340 C   0  0  0  0  0  0  0  0  0  0  0  0
   35.5400   28.3550   38.4220 C   0  0  0  0  0  0  0  0  0  0  0  0
   36.7110   27.7220   38.6050 N   0  0  0  0  0  0  0  0  0  0  0  0
   37.6730   28.5950   38.9240 N   0  0  0  0  0  0  0  0  0  0  0  0
   35.0710   30.4830   38.5770 H   0  0  0  0  0  0  0  0  0  0  0  0
   34.5650   27.9730   38.1600 H   0  0  0  0  0  0  0  0  0  0  0  0
   37.5150   33.3140   39.9640 C   0  0  0  0  0  0  0  0  0  0  0  0
   38.8880   33.5560   39.8200 C   0  0  0  0  0  0  0  0  0  0  0  0
   39.6630   32.4880   39.3700 C   0  0  0  0  0  0  0  0  0  0  0  0
   39.0660   31.3160   39.1070 N   0  0  0  0  0  0  0  0  0  0  0  0
   37.7610   31.1000   39.2480 C   0  0  0  0  0  0  0  0  0  0  0  0
   36.9870   32.1120   39.6810 N   0  0  0  0  0  0  0  0  0  0  0  0
   36.9150   34.1340   40.3100 H   0  0  0  0  0  0  0  0  0  0  0  0
   39.2820   34.5290   40.0550 H   0  0  0  0  0  0  0  0  0  0  0  0
   41.5950   32.2250   37.8330 C   0  0  2  0  0  3  0  0  0  0  0  0
   41.1240   32.7160   39.2080 C   0  0  1  0  0  3  0  0  0  0  0  0
   41.4110   34.0950   39.2010 O   0  0  0  0  0  0  0  0  0  0  0  0
   42.7720   34.2610   39.2530 C   0  0  0  0  0  2  0  0  0  0  0  0
   43.5080   33.6960   38.0500 C   0  0  1  0  0  3  0  0  0  0  0  0
   43.0900   32.2540   37.8170 C   0  0  2  0  0  3  0  0  0  0  0  0
   41.0820   33.0780   36.8490 O   0  0  0  0  0  0  0  0  0  0  0  0
   40.4760   33.7490   37.2730 H   0  0  0  0  0  0  0  0  0  0  0  0
   43.2550   34.4360   36.8930 O   0  0  0  0  0  0  0  0  0  0  0  0
   43.2900   33.7880   36.1360 H   0  0  0  0  0  0  0  0  0  0  0  0
   43.4980   31.8460   36.5470 O   0  0  0  0  0  0  0  0  0  0  0  0
   44.2300   31.1880   36.5870 H   0  0  0  0  0  0  0  0  0  0  0  0
   36.9150   26.2920   38.4760 C   0  0  0  0  0  0  0  0  0  0  0  0
   38.0070   26.1000   38.3070 H   0  0  0  0  0  0  0  0  0  0  0  0
   36.3540   25.8950   37.6330 H   0  0  0  0  0  0  0  0  0  0  0  0
   36.5560   25.6050   39.7490 C   0  0  0  0  0  0  0  0  0  0  0  0
   36.6100   24.5090   39.5820 H   0  0  0  0  0  0  0  0  0  0  0  0
   35.4700   25.8310   39.9360 H   0  0  0  0  0  0  0  0  0  0  0  0
   36.9500   26.9300   41.9100 C   0  0  0  0  0  0  0  0  0  0  0  0
   37.2900   26.0070   40.9390 C   0  0  0  0  0  0  0  0  0  0  0  0
   38.5140   25.3590   41.1140 C   0  0  0  0  0  0  0  0  0  0  0  0
   39.3330   25.6170   42.1810 C   0  0  0  0  0  0  0  0  0  0  0  0
   40.5300   25.1630   42.5990 N   0  0  0  0  0  0  0  0  0  0  0  0
   40.9120   25.7450   43.7280 C   0  0  0  0  0  0  0  0  0  0  0  0
   39.9290   26.6560   44.1250 C   0  0  0  0  0  0  0  0  0  0  0  0
   38.9830   26.5330   43.1350 C   0  0  0  0  0  0  0  0  0  0  0  0
   37.7710   27.1860   42.9760 C   0  0  0  0  0  0  0  0  0  0  0  0
   35.9920   27.4090   41.7370 H   0  0  0  0  0  0  0  0  0  0  0  0
   38.8960   24.6110   40.4170 H   0  0  0  0  0  0  0  0  0  0  0  0
   41.1000   24.4280   42.0850 H   0  0  0  0  0  0  0  0  0  0  0  0
   41.8450   25.5370   44.2560 H   0  0  0  0  0  0  0  0  0  0  0  0
   39.9570   27.2740   45.0000 H   0  0  0  0  0  0  0  0  0  0  0  0
   37.3560   28.1710   43.9690 C   0  0  0  0  0  0  0  0  0  0  0  0
   36.5710   27.8490   44.9100 O   0  0  0  0  0  0  0  0  0  0  0  0
   37.7150   29.2000   43.9170 H   0  0  0  0  0  0  0  0  0  0  0  0
  1 12  1  0  0  0  0
  2  1  1  0  0  0  0
  3  4  1  0  0  0  0
  3  2  2  0  0  0  0
  4  5  1  0  0  0  0
  5  1  2  0  0  0  0
  6  2  1  0  0  0  0
  7  3  1  0  0  0  0
  8 14  1  0  0  0  0
  9  8  1  0  0  0  0
  9 15  1  0  0  0  0
 10  9  2  0  0  0  0
 11 12  2  0  0  0  0
 11 10  1  0  0  0  0
 12 13  1  0  0  0  0
 13  8  2  0  0  0  0
 16 22  1  6  0  0  0
 16 17  1  0  0  0  0
 17 10  1  6  0  0  0
 18 17  1  0  0  0  0
 18 19  1  0  0  0  0
 20 24  1  6  0  0  0
 20 19  1  0  0  0  0
 21 26  1  6  0  0  0
 21 16  1  0  0  0  0
 21 20  1  0  0  0  0
 22 23  1  0  0  0  0
 25 24  1  0  0  0  0
 26 27  1  0  0  0  0
 28  4  1  0  0  0  0
 28 31  1  0  0  0  0
 29 28  1  0  0  0  0
 30 28  1  0  0  0  0
 31 33  1  0  0  0  0
 31 35  1  0  0  0  0
 32 31  1  0  0  0  0
 34 42  1  0  0  0  0
 35 36  1  0  0  0  0
 35 34  2  0  0  0  0
 36 37  2  0  0  0  0
 37 38  1  0  0  0  0
 37 41  1  0  0  0  0
 38 39  1  0  0  0  0
 39 40  2  0  0  0  0
 39 46  1  0  0  0  0
 40 47  1  0  0  0  0
 41 40  1  0  0  0  0
 42 41  2  0  0  0  0
 42 48  1  0  0  0  0
 43 34  1  0  0  0  0
 44 36  1  0  0  0  0
 45 38  1  0  0  0  0
 48 49  2  0  0  0  0
 50 48  1  0  0  0  0
M  END
>  <minimizedAffinity>
-7.6350522

$$$$

 OpenBabel03252506303D

 50 54  0  0  1  0  0  0  0  0999 V2000
   37.7160   31.6450   38.6280 C   0  0  0  0  0  0  0  0  0  0  0  0
   37.6780   31.2770   37.2610 C   0  0  0  0  0  0  0  0  0  0  0  0
   36.7240   30.3400   37.0930 C   0  0  0  0  0  0  0  0  0  0  0  0
   36.1850   30.1280   38.3060 N   0  0  0  0  0  0  0  0  0  0  0  0
   36.7720   30.9020   39.2240 N   0  0  0  0  0  0  0  0  0  0  0  0
   38.3260   31.7030   36.5050 H   0  0  0  0  0  0  0  0  0  0  0  0
   36.5010   29.8970   36.1340 H   0  0  0  0  0  0  0  0  0  0  0  0
   38.9110   34.6590   40.2970 C   0  0  0  0  0  0  0  0  0  0  0  0
   40.3060   34.5370   40.2370 C   0  0  0  0  0  0  0  0  0  0  0  0
   40.8040   33.3960   39.6100 C   0  0  0  0  0  0  0  0  0  0  0  0
   39.9420   32.4990   39.1100 N   0  0  0  0  0  0  0  0  0  0  0  0
   38.6190   32.6270   39.1740 C   0  0  0  0  0  0  0  0  0  0  0  0
   38.1080   33.7180   39.7740 N   0  0  0  0  0  0  0  0  0  0  0  0
   38.5250   35.5360   40.7790 H   0  0  0  0  0  0  0  0  0  0  0  0
   40.9240   35.3070   40.6650 H   0  0  0  0  0  0  0  0  0  0  0  0
   42.7580   33.3620   38.0780 C   0  0  2  0  0  3  0  0  0  0  0  0
   42.2820   33.2410   39.5310 C   0  0  1  0  0  3  0  0  0  0  0  0
   42.9260   34.3010   40.1980 O   0  0  0  0  0  0  0  0  0  0  0  0
   44.2670   34.0200   40.2790 C   0  0  0  0  0  2  0  0  0  0  0  0
   44.9580   33.9210   38.9290 C   0  0  1  0  0  3  0  0  0  0  0  0
   44.1990   32.9620   38.0270 C   0  0  2  0  0  3  0  0  0  0  0  0
   42.6080   34.6910   37.6640 O   0  0  0  0  0  0  0  0  0  0  0  0
   42.1600   35.2160   38.3850 H   0  0  0  0  0  0  0  0  0  0  0  0
   45.0460   35.1650   38.3000 O   0  0  0  0  0  0  0  0  0  0  0  0
   44.9930   34.9840   37.3200 H   0  0  0  0  0  0  0  0  0  0  0  0
   44.6250   33.1200   36.7080 O   0  0  0  0  0  0  0  0  0  0  0  0
   45.1450   32.3450   36.3930 H   0  0  0  0  0  0  0  0  0  0  0  0
   35.1150   29.1910   38.5900 C   0  0  0  0  0  0  0  0  0  0  0  0
   34.3940   29.1990   37.7300 H   0  0  0  0  0  0  0  0  0  0  0  0
   34.5840   29.4720   39.4970 H   0  0  0  0  0  0  0  0  0  0  0  0
   35.6560   27.8040   38.6770 C   0  0  0  0  0  0  0  0  0  0  0  0
   36.2090   27.5860   37.7400 H   0  0  0  0  0  0  0  0  0  0  0  0
   34.7660   27.1160   38.6730 H   0  0  0  0  0  0  0  0  0  0  0  0
   37.5050   26.6060   39.9900 C   0  0  0  0  0  0  0  0  0  0  0  0
   36.4440   27.4820   39.8560 C   0  0  0  0  0  0  0  0  0  0  0  0
   36.0640   28.1630   41.0140 C   0  0  0  0  0  0  0  0  0  0  0  0
   36.6990   27.9790   42.2130 C   0  0  0  0  0  0  0  0  0  0  0  0
   36.5590   28.4790   43.4560 N   0  0  0  0  0  0  0  0  0  0  0  0
   37.4470   27.9670   44.2970 C   0  0  0  0  0  0  0  0  0  0  0  0
   38.2560   27.0600   43.6080 C   0  0  0  0  0  0  0  0  0  0  0  0
   37.7490   27.1090   42.3310 C   0  0  0  0  0  0  0  0  0  0  0  0
   38.1390   26.4250   41.1910 C   0  0  0  0  0  0  0  0  0  0  0  0
   37.7690   26.0990   39.0680 H   0  0  0  0  0  0  0  0  0  0  0  0
   35.2420   28.8800   41.0390 H   0  0  0  0  0  0  0  0  0  0  0  0
   35.8240   29.1960   43.7290 H   0  0  0  0  0  0  0  0  0  0  0  0
   37.5260   28.2220   45.3560 H   0  0  0  0  0  0  0  0  0  0  0  0
   39.0630   26.4900   44.0240 H   0  0  0  0  0  0  0  0  0  0  0  0
   39.2530   25.4870   41.2690 C   0  0  0  0  0  0  0  0  0  0  0  0
   39.0420   24.2400   41.3630 O   0  0  0  0  0  0  0  0  0  0  0  0
   40.2840   25.8420   41.2460 H   0  0  0  0  0  0  0  0  0  0  0  0
  1 12  1  0  0  0  0
  1  5  2  0  0  0  0
  2  1  1  0  0  0  0
  3  2  2  0  0  0  0
  3  4  1  0  0  0  0
  4 28  1  0  0  0  0
  4  5  1  0  0  0  0
  6  2  1  0  0  0  0
  7  3  1  0  0  0  0
  8 14  1  0  0  0  0
  9  8  1  0  0  0  0
  9 15  1  0  0  0  0
 10  9  2  0  0  0  0
 11 12  2  0  0  0  0
 11 10  1  0  0  0  0
 12 13  1  0  0  0  0
 13  8  2  0  0  0  0
 16 22  1  1  0  0  0
 16 17  1  0  0  0  0
 17 10  1  6  0  0  0
 17 18  1  0  0  0  0
 18 19  1  0  0  0  0
 20 24  1  6  0  0  0
 20 19  1  0  0  0  0
 21 26  1  6  0  0  0
 21 16  1  0  0  0  0
 21 20  1  0  0  0  0
 22 23  1  0  0  0  0
 25 24  1  0  0  0  0
 27 26  1  0  0  0  0
 28 31  1  0  0  0  0
 28 30  1  0  0  0  0
 29 28  1  0  0  0  0
 31 35  1  0  0  0  0
 32 31  1  0  0  0  0
 33 31  1  0  0  0  0
 34 42  1  0  0  0  0
 35 34  2  0  0  0  0
 35 36  1  0  0  0  0
 36 44  1  0  0  0  0
 36 37  2  0  0  0  0
 37 41  1  0  0  0  0
 37 38  1  0  0  0  0
 38 45  1  0  0  0  0
 38 39  1  0  0  0  0
 39 46  1  0  0  0  0
 40 47  1  0  0  0  0
 40 39  2  0  0  0  0
 41 40  1  0  0  0  0
 42 48  1  0  0  0  0
 42 41  2  0  0  0  0
 43 34  1  0  0  0  0
 48 49  2  0  0  0  0
 50 48  1  0  0  0  0
M  END
>  <minimizedAffinity>
-7.52929163

$$$$

 OpenBabel03252506303D

 50 54  0  0  1  0  0  0  0  0999 V2000
   38.2660   32.3710   40.0010 C   0  0  0  0  0  0  0  0  0  0  0  0
   37.7790   31.8410   38.7810 C   0  0  0  0  0  0  0  0  0  0  0  0
   37.0040   30.7730   39.0540 C   0  0  0  0  0  0  0  0  0  0  0  0
   37.0030   30.6380   40.3910 N   0  0  0  0  0  0  0  0  0  0  0  0
   37.7540   31.5870   40.9600 N   0  0  0  0  0  0  0  0  0  0  0  0
   38.0150   32.2550   37.8080 H   0  0  0  0  0  0  0  0  0  0  0  0
   36.5150   30.1930   38.2860 H   0  0  0  0  0  0  0  0  0  0  0  0
   39.3430   35.8480   40.2200 C   0  0  0  0  0  0  0  0  0  0  0  0
   40.7410   35.7570   40.2700 C   0  0  0  0  0  0  0  0  0  0  0  0
   41.2820   34.4730   40.2250 C   0  0  0  0  0  0  0  0  0  0  0  0
   40.4560   33.4200   40.1390 N   0  0  0  0  0  0  0  0  0  0  0  0
   39.1300   33.5210   40.0930 C   0  0  0  0  0  0  0  0  0  0  0  0
   38.5780   34.7480   40.1340 N   0  0  0  0  0  0  0  0  0  0  0  0
   38.9240   36.8340   40.2530 H   0  0  0  0  0  0  0  0  0  0  0  0
   41.3280   36.6560   40.3390 H   0  0  0  0  0  0  0  0  0  0  0  0
   43.2720   34.5690   41.7070 C   0  0  2  0  0  3  0  0  0  0  0  0
   42.7640   34.3470   40.2770 C   0  0  1  0  0  3  0  0  0  0  0  0
   43.1590   33.0320   39.9670 O   0  0  0  0  0  0  0  0  0  0  0  0
   44.5240   33.0040   39.8270 C   0  0  0  0  0  2  0  0  0  0  0  0
   45.2810   33.3580   41.0960 C   0  0  1  0  0  3  0  0  0  0  0  0
   44.7640   34.6710   41.6580 C   0  0  2  0  0  3  0  0  0  0  0  0
   42.8860   33.4800   42.4970 O   0  0  0  0  0  0  0  0  0  0  0  0
   42.3130   32.8650   41.9590 H   0  0  0  0  0  0  0  0  0  0  0  0
   45.1540   32.3650   42.0690 O   0  0  0  0  0  0  0  0  0  0  0  0
   45.1810   32.8340   42.9500 H   0  0  0  0  0  0  0  0  0  0  0  0
   45.2100   34.8290   42.9710 O   0  0  0  0  0  0  0  0  0  0  0  0
   45.8840   35.5440   43.0480 H   0  0  0  0  0  0  0  0  0  0  0  0
   36.2920   29.6090   41.1240 C   0  0  0  0  0  0  0  0  0  0  0  0
   36.2350   28.6880   40.4860 H   0  0  0  0  0  0  0  0  0  0  0  0
   35.2810   29.9320   41.3660 H   0  0  0  0  0  0  0  0  0  0  0  0
   37.0550   29.2290   42.3480 C   0  0  0  0  0  0  0  0  0  0  0  0
   36.4070   29.4030   43.2320 H   0  0  0  0  0  0  0  0  0  0  0  0
   37.8980   29.9680   42.4380 H   0  0  0  0  0  0  0  0  0  0  0  0
   38.7720   27.4470   43.0240 C   0  0  0  0  0  0  0  0  0  0  0  0
   37.6440   27.8990   42.3640 C   0  0  0  0  0  0  0  0  0  0  0  0
   36.9640   26.9510   41.5990 C   0  0  0  0  0  0  0  0  0  0  0  0
   37.3820   25.6510   41.5030 C   0  0  0  0  0  0  0  0  0  0  0  0
   36.9420   24.5500   40.8620 N   0  0  0  0  0  0  0  0  0  0  0  0
   37.7200   23.5010   41.0950 C   0  0  0  0  0  0  0  0  0  0  0  0
   38.7590   23.8850   41.9460 C   0  0  0  0  0  0  0  0  0  0  0  0
   38.4990   25.2170   42.1630 C   0  0  0  0  0  0  0  0  0  0  0  0
   39.1870   26.1450   42.9270 C   0  0  0  0  0  0  0  0  0  0  0  0
   39.2700   28.2140   43.6080 H   0  0  0  0  0  0  0  0  0  0  0  0
   36.0620   27.1830   41.0300 H   0  0  0  0  0  0  0  0  0  0  0  0
   36.0790   24.5260   40.2450 H   0  0  0  0  0  0  0  0  0  0  0  0
   37.5620   22.5010   40.6850 H   0  0  0  0  0  0  0  0  0  0  0  0
   39.5440   23.2510   42.3110 H   0  0  0  0  0  0  0  0  0  0  0  0
   40.3850   25.7290   43.6480 C   0  0  0  0  0  0  0  0  0  0  0  0
   41.0690   26.5700   44.3040 O   0  0  0  0  0  0  0  0  0  0  0  0
   40.7100   24.6880   43.6350 H   0  0  0  0  0  0  0  0  0  0  0  0
  1 12  1  0  0  0  0
  1  5  2  0  0  0  0
  2  3  2  0  0  0  0
  2  1  1  0  0  0  0
  3  4  1  0  0  0  0
  4  5  1  0  0  0  0
  4 28  1  0  0  0  0
  6  2  1  0  0  0  0
  7  3  1  0  0  0  0
  8 14  1  0  0  0  0
  8  9  1  0  0  0  0
  9 15  1  0  0  0  0
 10  9  2  0  0  0  0
 11 10  1  0  0  0  0
 12 13  1  0  0  0  0
 12 11  2  0  0  0  0
 13  8  2  0  0  0  0
 16 22  1  1  0  0  0
 17 10  1  1  0  0  0
 17 16  1  0  0  0  0
 18 17  1  0  0  0  0
 19 18  1  0  0  0  0
 19 20  1  0  0  0  0
 20 21  1  0  0  0  0
 20 24  1  1  0  0  0
 21 16  1  0  0  0  0
 21 26  1  1  0  0  0
 23 22  1  0  0  0  0
 24 25  1  0  0  0  0
 26 27  1  0  0  0  0
 28 30  1  0  0  0  0
 28 31  1  0  0  0  0
 29 28  1  0  0  0  0
 31 35  1  0  0  0  0
 31 33  1  0  0  0  0
 31 32  1  0  0  0  0
 34 43  1  0  0  0  0
 35 34  2  0  0  0  0
 36 35  1  0  0  0  0
 37 36  2  0  0  0  0
 37 41  1  0  0  0  0
 38 39  1  0  0  0  0
 38 37  1  0  0  0  0
 39 40  2  0  0  0  0
 40 41  1  0  0  0  0
 40 47  1  0  0  0  0
 41 42  2  0  0  0  0
 42 34  1  0  0  0  0
 42 48  1  0  0  0  0
 44 36  1  0  0  0  0
 45 38  1  0  0  0  0
 46 39  1  0  0  0  0
 48 49  2  0  0  0  0
 50 48  1  0  0  0  0
M  END
>  <minimizedAffinity>
-7.2755928

$$$$

 OpenBabel03252506303D

 50 54  0  0  1  0  0  0  0  0999 V2000
   38.1780   32.4650   39.7700 C   0  0  0  0  0  0  0  0  0  0  0  0
   37.7200   31.9840   38.5190 C   0  0  0  0  0  0  0  0  0  0  0  0
   36.8590   30.9700   38.7370 C   0  0  0  0  0  0  0  0  0  0  0  0
   36.7780   30.8220   40.0700 N   0  0  0  0  0  0  0  0  0  0  0  0
   37.5620   31.7100   40.6910 N   0  0  0  0  0  0  0  0  0  0  0  0
   38.0350   32.3900   37.5660 H   0  0  0  0  0  0  0  0  0  0  0  0
   36.3710   30.4350   37.9360 H   0  0  0  0  0  0  0  0  0  0  0  0
   39.4770   35.8470   40.1840 C   0  0  0  0  0  0  0  0  0  0  0  0
   40.8660   35.6650   40.2190 C   0  0  0  0  0  0  0  0  0  0  0  0
   41.3230   34.3540   40.0950 C   0  0  0  0  0  0  0  0  0  0  0  0
   40.4310   33.3630   39.9540 N   0  0  0  0  0  0  0  0  0  0  0  0
   39.1140   33.5510   39.9230 C   0  0  0  0  0  0  0  0  0  0  0  0
   38.6420   34.8060   40.0400 N   0  0  0  0  0  0  0  0  0  0  0  0
   39.1220   36.8550   40.2790 H   0  0  0  0  0  0  0  0  0  0  0  0
   41.5100   36.5190   40.3360 H   0  0  0  0  0  0  0  0  0  0  0  0
   43.3790   34.5980   41.4670 C   0  0  2  0  0  3  0  0  0  0  0  0
   42.7940   34.1300   40.1280 C   0  0  1  0  0  3  0  0  0  0  0  0
   43.0870   32.7540   40.0830 O   0  0  0  0  0  0  0  0  0  0  0  0
   44.4400   32.5970   39.9110 C   0  0  0  0  0  2  0  0  0  0  0  0
   45.2730   33.1430   41.0590 C   0  0  1  0  0  3  0  0  0  0  0  0
   44.8700   34.5770   41.3550 C   0  0  2  0  0  3  0  0  0  0  0  0
   42.9550   33.7230   42.4740 O   0  0  0  0  0  0  0  0  0  0  0  0
   42.3190   33.0570   42.0900 H   0  0  0  0  0  0  0  0  0  0  0  0
   45.1220   32.3790   42.2180 O   0  0  0  0  0  0  0  0  0  0  0  0
   45.2190   33.0120   42.9830 H   0  0  0  0  0  0  0  0  0  0  0  0
   45.3830   34.9630   42.5940 O   0  0  0  0  0  0  0  0  0  0  0  0
   46.1060   35.6260   42.5040 H   0  0  0  0  0  0  0  0  0  0  0  0
   35.9590   29.8380   40.7510 C   0  0  0  0  0  0  0  0  0  0  0  0
   36.0030   28.8760   40.1770 H   0  0  0  0  0  0  0  0  0  0  0  0
   34.9230   30.1670   40.8060 H   0  0  0  0  0  0  0  0  0  0  0  0
   36.5180   29.5510   42.1030 C   0  0  0  0  0  0  0  0  0  0  0  0
   35.7000   29.6490   42.8470 H   0  0  0  0  0  0  0  0  0  0  0  0
   37.2380   30.3840   42.3310 H   0  0  0  0  0  0  0  0  0  0  0  0
   36.9150   27.0340   41.8090 C   0  0  0  0  0  0  0  0  0  0  0  0
   37.2420   28.2990   42.2590 C   0  0  0  0  0  0  0  0  0  0  0  0
   38.4400   28.4040   42.9680 C   0  0  0  0  0  0  0  0  0  0  0  0
   39.2460   27.3240   43.2060 C   0  0  0  0  0  0  0  0  0  0  0  0
   40.4200   27.1280   43.8390 N   0  0  0  0  0  0  0  0  0  0  0  0
   40.7990   25.8570   43.7930 C   0  0  0  0  0  0  0  0  0  0  0  0
   39.8400   25.1230   43.0900 C   0  0  0  0  0  0  0  0  0  0  0  0
   38.9100   26.0770   42.7540 C   0  0  0  0  0  0  0  0  0  0  0  0
   37.7240   25.9550   42.0490 C   0  0  0  0  0  0  0  0  0  0  0  0
   35.9780   26.9970   41.2630 H   0  0  0  0  0  0  0  0  0  0  0  0
   38.8090   29.3470   43.3760 H   0  0  0  0  0  0  0  0  0  0  0  0
   40.9740   27.8980   44.3170 H   0  0  0  0  0  0  0  0  0  0  0  0
   41.7150   25.4610   44.2350 H   0  0  0  0  0  0  0  0  0  0  0  0
   39.8740   24.0690   42.8900 H   0  0  0  0  0  0  0  0  0  0  0  0
   37.3240   24.6450   41.5470 C   0  0  0  0  0  0  0  0  0  0  0  0
   37.2700   24.4200   40.3010 O   0  0  0  0  0  0  0  0  0  0  0  0
   37.0670   23.8390   42.2350 H   0  0  0  0  0  0  0  0  0  0  0  0
  1 12  1  0  0  0  0
  1  5  2  0  0  0  0
  2  3  2  0  0  0  0
  2  1  1  0  0  0  0
  3  4  1  0  0  0  0
  4  5  1  0  0  0  0
  4 28  1  0  0  0  0
  6  2  1  0  0  0  0
  7  3  1  0  0  0  0
  8  9  1  0  0  0  0
  8 14  1  0  0  0  0
  9 15  1  0  0  0  0
 10  9  2  0  0  0  0
 11 10  1  0  0  0  0
 12 11  2  0  0  0  0
 12 13  1  0  0  0  0
 13  8  2  0  0  0  0
 16 22  1  1  0  0  0
 17 10  1  1  0  0  0
 17 16  1  0  0  0  0
 18 17  1  0  0  0  0
 19 18  1  0  0  0  0
 19 20  1  0  0  0  0
 20 21  1  0  0  0  0
 20 24  1  1  0  0  0
 21 16  1  0  0  0  0
 21 26  1  1  0  0  0
 23 22  1  0  0  0  0
 24 25  1  0  0  0  0
 27 26  1  0  0  0  0
 28 30  1  0  0  0  0
 28 31  1  0  0  0  0
 29 28  1  0  0  0  0
 31 35  1  0  0  0  0
 31 33  1  0  0  0  0
 31 32  1  0  0  0  0
 34 42  2  0  0  0  0
 34 35  1  0  0  0  0
 35 36  2  0  0  0  0
 36 37  1  0  0  0  0
 36 44  1  0  0  0  0
 37 38  1  0  0  0  0
 38 45  1  0  0  0  0
 39 38  1  0  0  0  0
 39 46  1  0  0  0  0
 40 39  2  0  0  0  0
 41 40  1  0  0  0  0
 41 37  2  0  0  0  0
 42 41  1  0  0  0  0
 43 34  1  0  0  0  0
 47 40  1  0  0  0  0
 48 42  1  0  0  0  0
 48 50  1  0  0  0  0
 49 48  2  0  0  0  0
M  END
>  <minimizedAffinity>
-7.21859312

$$$$

 OpenBabel03252506303D

 50 54  0  0  1  0  0  0  0  0999 V2000
   38.4860   31.9680   40.2180 C   0  0  0  0  0  0  0  0  0  0  0  0
   37.1100   32.1580   39.9410 C   0  0  0  0  0  0  0  0  0  0  0  0
   36.4910   30.9620   39.9960 C   0  0  0  0  0  0  0  0  0  0  0  0
   37.4390   30.0580   40.2960 N   0  0  0  0  0  0  0  0  0  0  0  0
   38.6300   30.6520   40.4290 N   0  0  0  0  0  0  0  0  0  0  0  0
   36.6670   33.1220   39.7250 H   0  0  0  0  0  0  0  0  0  0  0  0
   35.4320   30.8430   39.8200 H   0  0  0  0  0  0  0  0  0  0  0  0
   39.9160   35.3050   40.5690 C   0  0  0  0  0  0  0  0  0  0  0  0
   41.2790   35.1080   40.3110 C   0  0  0  0  0  0  0  0  0  0  0  0
   41.6730   33.8030   40.0170 C   0  0  0  0  0  0  0  0  0  0  0  0
   40.7490   32.8320   39.9980 N   0  0  0  0  0  0  0  0  0  0  0  0
   39.4580   33.0330   40.2450 C   0  0  0  0  0  0  0  0  0  0  0  0
   39.0460   34.2820   40.5330 N   0  0  0  0  0  0  0  0  0  0  0  0
   39.6090   36.3070   40.7960 H   0  0  0  0  0  0  0  0  0  0  0  0
   41.9520   35.9460   40.3490 H   0  0  0  0  0  0  0  0  0  0  0  0
   43.4290   33.8370   38.2610 C   0  0  2  0  0  3  0  0  0  0  0  0
   43.1160   33.5650   39.7380 C   0  0  1  0  0  3  0  0  0  0  0  0
   43.9130   34.4890   40.4390 O   0  0  0  0  0  0  0  0  0  0  0  0
   45.2290   34.1150   40.3190 C   0  0  0  0  0  2  0  0  0  0  0  0
   45.7490   34.1430   38.8920 C   0  0  1  0  0  3  0  0  0  0  0  0
   44.8180   33.3560   37.9850 C   0  0  2  0  0  3  0  0  0  0  0  0
   43.3370   35.2150   38.0270 O   0  0  0  0  0  0  0  0  0  0  0  0
   43.0180   35.6720   38.8550 H   0  0  0  0  0  0  0  0  0  0  0  0
   45.8610   35.4470   38.4070 O   0  0  0  0  0  0  0  0  0  0  0  0
   45.6820   35.3950   37.4260 H   0  0  0  0  0  0  0  0  0  0  0  0
   45.1000   33.6500   36.6510 O   0  0  0  0  0  0  0  0  0  0  0  0
   45.5170   32.8890   36.1850 H   0  0  0  0  0  0  0  0  0  0  0  0
   37.2130   28.6350   40.4550 C   0  0  0  0  0  0  0  0  0  0  0  0
   37.8730   28.0850   39.7330 H   0  0  0  0  0  0  0  0  0  0  0  0
   36.1760   28.3810   40.2460 H   0  0  0  0  0  0  0  0  0  0  0  0
   37.6230   28.1980   41.8200 C   0  0  0  0  0  0  0  0  0  0  0  0
   36.8320   27.5350   42.2270 H   0  0  0  0  0  0  0  0  0  0  0  0
   37.6090   29.1200   42.4650 H   0  0  0  0  0  0  0  0  0  0  0  0
   39.7740   27.0920   40.9680 C   0  0  0  0  0  0  0  0  0  0  0  0
   38.9440   27.6040   41.9480 C   0  0  0  0  0  0  0  0  0  0  0  0
   39.4340   27.5470   43.2530 C   0  0  0  0  0  0  0  0  0  0  0  0
   40.6600   27.0180   43.5530 C   0  0  0  0  0  0  0  0  0  0  0  0
   41.3730   26.8350   44.6820 N   0  0  0  0  0  0  0  0  0  0  0  0
   42.5440   26.2610   44.4380 C   0  0  0  0  0  0  0  0  0  0  0  0
   42.6600   26.0300   43.0650 C   0  0  0  0  0  0  0  0  0  0  0  0
   41.4720   26.5160   42.5730 C   0  0  0  0  0  0  0  0  0  0  0  0
   41.0020   26.5640   41.2710 C   0  0  0  0  0  0  0  0  0  0  0  0
   39.3570   27.1560   39.9680 H   0  0  0  0  0  0  0  0  0  0  0  0
   38.8740   27.9160   44.1140 H   0  0  0  0  0  0  0  0  0  0  0  0
   41.0370   27.1160   45.6490 H   0  0  0  0  0  0  0  0  0  0  0  0
   43.2900   26.0150   45.1960 H   0  0  0  0  0  0  0  0  0  0  0  0
   43.4970   25.5790   42.5690 H   0  0  0  0  0  0  0  0  0  0  0  0
   41.8320   26.0400   40.1920 C   0  0  0  0  0  0  0  0  0  0  0  0
   41.6960   24.8440   39.7950 O   0  0  0  0  0  0  0  0  0  0  0  0
   42.5830   26.6670   39.7100 H   0  0  0  0  0  0  0  0  0  0  0  0
  1 12  1  0  0  0  0
  1  5  2  0  0  0  0
  2  3  2  0  0  0  0
  2  1  1  0  0  0  0
  3  4  1  0  0  0  0
  4  5  1  0  0  0  0
  4 28  1  0  0  0  0
  6  2  1  0  0  0  0
  7  3  1  0  0  0  0
  8 14  1  0  0  0  0
  9 15  1  0  0  0  0
  9  8  2  0  0  0  0
 10  9  1  0  0  0  0
 11 10  2  0  0  0  0
 11 12  1  0  0  0  0
 12 13  2  0  0  0  0
 13  8  1  0  0  0  0
 16 22  1  1  0  0  0
 16 17  1  0  0  0  0
 17 10  1  6  0  0  0
 17 18  1  0  0  0  0
 19 18  1  0  0  0  0
 20 24  1  6  0  0  0
 20 19  1  0  0  0  0
 21 26  1  6  0  0  0
 21 16  1  0  0  0  0
 21 20  1  0  0  0  0
 22 23  1  0  0  0  0
 25 24  1  0  0  0  0
 27 26  1  0  0  0  0
 28 31  1  0  0  0  0
 29 28  1  0  0  0  0
 30 28  1  0  0  0  0
 31 35  1  0  0  0  0
 31 32  1  0  0  0  0
 31 33  1  0  0  0  0
 34 42  2  0  0  0  0
 34 35  1  0  0  0  0
 35 36  2  0  0  0  0
 36 37  1  0  0  0  0
 36 44  1  0  0  0  0
 37 38  1  0  0  0  0
 38 45  1  0  0  0  0
 39 38  1  0  0  0  0
 39 46  1  0  0  0  0
 40 39  2  0  0  0  0
 41 40  1  0  0  0  0
 41 37  2  0  0  0  0
 42 41  1  0  0  0  0
 43 34  1  0  0  0  0
 47 40  1  0  0  0  0
 48 42  1  0  0  0  0
 49 48  2  0  0  0  0
 50 48  1  0  0  0  0
M  END
>  <minimizedAffinity>
-7.20112181

$$$$
