
     RDKit          3D

 30 31  0  0  0  0  0  0  0  0999 V2000
   44.3829   35.7790   44.4335 C   0  0  0  0  0  0  0  0  0  0  0  0
   44.6644   35.0699   43.2768 C   0  0  0  0  0  0  0  0  0  0  0  0
   45.2884   33.8346   43.3925 C   0  0  0  0  0  0  0  0  0  0  0  0
   45.5922   33.3804   44.6245 N   0  0  0  0  0  0  0  0  0  0  0  0
   45.3078   34.0908   45.7449 C   0  0  0  0  0  0  0  0  0  0  0  0
   44.6992   35.3001   45.6676 N   0  0  0  0  0  0  0  0  0  0  0  0
   44.2642   35.7112   41.9971 C   0  0  0  0  0  0  0  0  0  0  0  0
   43.8972   36.7463   44.3890 H   0  0  0  0  0  0  0  0  0  0  0  0
   45.4956   33.3043   42.4726 H   0  0  0  0  0  0  0  0  0  0  0  0
   43.2092   35.4279   41.8083 H   0  0  0  0  0  0  0  0  0  0  0  0
   44.9305   35.2707   41.2102 H   0  0  0  0  0  0  0  0  0  0  0  0
   44.4350   36.7831   42.0780 H   0  0  0  0  0  0  0  0  0  0  0  0
   46.4150   31.3339   46.6152 O   0  0  0  0  0  0  0  0  0  0  0  0
   45.3500   32.0502   47.1890 C   0  0  2  0  0  0  0  0  0  0  0  0
   45.6619   33.5459   47.0556 C   0  0  1  0  0  0  0  0  0  0  0  0
   47.0303   33.6206   47.3395 O   0  0  0  0  0  0  0  0  0  0  0  0
   47.1409   33.5774   48.7161 C   0  0  0  0  0  0  0  0  0  0  0  0
   46.5463   32.3677   49.3674 C   0  0  2  0  0  0  0  0  0  0  0  0
   47.5163   31.3703   49.4304 O   0  0  0  0  0  0  0  0  0  0  0  0
   45.3307   31.8120   48.6985 C   0  0  1  0  0  0  0  0  0  0  0  0
   44.2135   32.4955   49.1857 O   0  0  0  0  0  0  0  0  0  0  0  0
   46.0834   30.7522   45.8848 H   0  0  0  0  0  0  0  0  0  0  0  0
   44.3805   31.7714   46.7808 H   0  0  0  0  0  0  0  0  0  0  0  0
   45.1211   34.0762   47.8660 H   0  0  0  0  0  0  0  0  0  0  0  0
   48.2233   33.6106   49.0007 H   0  0  0  0  0  0  0  0  0  0  0  0
   46.7018   34.5352   49.0867 H   0  0  0  0  0  0  0  0  0  0  0  0
   46.2361   32.6722   50.4070 H   0  0  0  0  0  0  0  0  0  0  0  0
   48.2512   31.6799   50.0164 H   0  0  0  0  0  0  0  0  0  0  0  0
   45.2594   30.7212   48.9085 H   0  0  0  0  0  0  0  0  0  0  0  0
   44.4356   33.0957   49.9235 H   0  0  0  0  0  0  0  0  0  0  0  0
  1  6  2  0
  2  3  2  0
  2  1  1  0
  3  4  1  0
  4  5  2  0
  6  5  1  0
  7  2  1  0
  1  8  1  0
  3  9  1  0
  7 10  1  0
  7 11  1  0
  7 12  1  0
 13 14  1  0
 14 15  1  0
 15 16  1  0
 16 17  1  0
 17 18  1  0
 18 19  1  0
 18 20  1  0
 20 21  1  0
 20 14  1  0
 13 22  1  0
 14 23  1  6
 15 24  1  1
 17 25  1  0
 17 26  1  0
 18 27  1  1
 19 28  1  0
 20 29  1  6
 21 30  1  0
  5 15  1  0
M  ISO  5   8  14   9  14  10   8  11   8  12   8
M  END
>  <DihAtoms>  (1) 
3,4,14,13

>  <DihDeg>  (1) 
107.50952945895756

$$$$
