
     RDKit          3D

 30 31  0  0  0  0  0  0  0  0999 V2000
   45.4392   35.0671   43.9943 C   0  0  0  0  0  0  0  0  0  0  0  0
   46.4958   34.3015   43.5022 C   0  0  0  0  0  0  0  0  0  0  0  0
   47.0207   33.2873   44.3325 C   0  0  0  0  0  0  0  0  0  0  0  0
   46.4558   33.1226   45.5690 N   0  0  0  0  0  0  0  0  0  0  0  0
   45.4313   33.8937   45.9974 C   0  0  0  0  0  0  0  0  0  0  0  0
   44.9235   34.8617   45.2163 N   0  0  0  0  0  0  0  0  0  0  0  0
   44.8988   36.1390   43.0923 C   0  0  0  0  0  0  0  0  0  0  0  0
   46.9345   34.4460   42.5139 H   0  0  0  0  0  0  0  0  0  0  0  0
   45.0252   33.7109   46.9953 H   0  0  0  0  0  0  0  0  0  0  0  0
   43.9148   35.7497   42.7139 H   0  0  0  0  0  0  0  0  0  0  0  0
   45.6013   36.3825   42.2993 H   0  0  0  0  0  0  0  0  0  0  0  0
   44.6205   37.0265   43.7146 H   0  0  0  0  0  0  0  0  0  0  0  0
   47.9396   31.1429   45.8606 O   0  0  0  0  0  0  0  0  0  0  0  0
   47.9280   31.0590   44.4816 C   0  0  1  0  0  0  0  0  0  0  0  0
   48.1455   32.4257   43.8878 C   0  0  1  0  0  0  0  0  0  0  0  0
   48.0748   32.3018   42.5180 O   0  0  0  0  0  0  0  0  0  0  0  0
   49.0425   31.5220   41.9467 C   0  0  0  0  0  0  0  0  0  0  0  0
   49.2567   30.1792   42.5405 C   0  0  1  0  0  0  0  0  0  0  0  0
   50.6068   29.8619   42.3819 O   0  0  0  0  0  0  0  0  0  0  0  0
   48.9535   30.0674   44.0022 C   0  0  2  0  0  0  0  0  0  0  0  0
   48.4577   28.7919   44.2712 O   0  0  0  0  0  0  0  0  0  0  0  0
   48.1403   30.2820   46.2830 H   0  0  0  0  0  0  0  0  0  0  0  0
   46.9296   30.7030   44.1517 H   0  0  0  0  0  0  0  0  0  0  0  0
   49.0938   32.8776   44.2545 H   0  0  0  0  0  0  0  0  0  0  0  0
   48.7174   31.3491   40.8790 H   0  0  0  0  0  0  0  0  0  0  0  0
   49.9877   32.1226   41.8406 H   0  0  0  0  0  0  0  0  0  0  0  0
   48.6945   29.3778   41.9800 H   0  0  0  0  0  0  0  0  0  0  0  0
   50.8476   29.0757   42.9378 H   0  0  0  0  0  0  0  0  0  0  0  0
   49.8529   30.1892   44.6429 H   0  0  0  0  0  0  0  0  0  0  0  0
   47.7912   28.7542   44.9764 H   0  0  0  0  0  0  0  0  0  0  0  0
  1  6  2  0
  2  1  1  0
  2  3  2  0
  3  4  1  0
  4  5  2  0
  6  5  1  0
  7  1  1  0
  2  8  1  0
  5  9  1  0
  7 10  1  0
  7 11  1  0
  7 12  1  0
 13 14  1  0
 14 15  1  0
 15 16  1  0
 16 17  1  0
 17 18  1  0
 18 19  1  0
 18 20  1  0
 20 21  1  0
 20 14  1  0
 13 22  1  0
 14 23  1  6
 15 24  1  6
 17 25  1  0
 17 26  1  0
 18 27  1  6
 19 28  1  0
 20 29  1  1
 21 30  1  0
  3 15  1  0
M  ISO  5   8  14   9  14  10   8  11   8  12   8
M  END
>  <DihAtoms>  (1) 
1,2,14,13

>  <DihDeg>  (1) 
-160.9074581986511

$$$$
