REMARK  Name = 
REMARK  9 active torsions:
REMARK  status: ('A' for Active; 'I' for Inactive)
REMARK    1  A    between atoms: P_2  and  O_3
REMARK    2  A    between atoms: P_2  and  O_4
REMARK    3  A    between atoms: P_2  and  O_14
REMARK    4  A    between atoms: O_4  and  C_6
REMARK    5  A    between atoms: O_14  and  C_15
REMARK    6  A    between atoms: C_20  and  C_36
REMARK    7  A    between atoms: O_34  and  C_35
REMARK    8  A    between atoms: C_39  and  O_40
REMARK    9  A    between atoms: C_41  and  O_42
REMARK                            x       y       z     vdW  Elec       q    Type
REMARK                         _______ _______ _______ _____ _____    ______ ____
ROOT
ATOM      1  C   UNL     1      46.535  35.123  42.080  0.00  0.00    +0.000 C 
ATOM      2  C   UNL     1      45.492  35.608  43.021  0.00  0.00    +0.000 C 
ATOM      3  C   UNL     1      44.183  35.738  42.316  0.00  0.00    +0.000 C 
ATOM      4  O   UNL     1      43.658  34.531  41.895  0.00  0.00    +0.000 OA
ATOM      5  C   UNL     1      44.648  33.579  41.749  0.00  0.00    +0.000 C 
ATOM      6  C   UNL     1      45.857  34.213  41.067  0.00  0.00    +0.000 C 
ATOM      7  H   UNL     1      46.872  35.974  41.439  0.00  0.00    +0.000 HD
ATOM      8  H   UNL     1      45.774  36.532  43.565  0.00  0.00    +0.000 HD
ATOM      9  H   UNL     1      45.346  34.842  43.833  0.00  0.00    +0.000 HD
ATOM     10  H   UNL     1      44.085  36.581  41.625  0.00  0.00    +0.000 HD
ATOM     11  H   UNL     1      43.460  36.042  43.157  0.00  0.00    +0.000 HD
ATOM     12  H   UNL     1      45.000  33.178  42.729  0.00  0.00    +0.000 HD
ATOM     13  H   UNL     1      44.254  32.756  41.128  0.00  0.00    +0.000 HD
ATOM     14  H   UNL     1      46.568  33.331  40.971  0.00  0.00    +0.000 HD
ENDROOT
BRANCH   6  16
ATOM     15  C   UNL     1      44.130  34.404  39.364  0.00  0.00    +0.000 C 
ATOM     16  C   UNL     1      45.581  34.754  39.727  0.00  0.00    +0.000 C 
ATOM     17  O   UNL     1      46.341  34.194  38.711  0.00  0.00    +0.000 OA
ATOM     18  C   UNL     1      46.253  34.938  37.544  0.00  0.00    +0.000 C 
ATOM     19  C   UNL     1      44.839  35.001  37.025  0.00  0.00    +0.000 C 
ATOM     20  C   UNL     1      43.869  34.276  37.910  0.00  0.00    +0.000 C 
BRANCH  15  21
ATOM     21  O   UNL     1      43.336  35.428  39.929  0.00  0.00    +0.000 OA
ATOM     22  H   UNL     1      42.381  35.206  39.877  0.00  0.00    +0.000 HD
ENDBRANCH  15  21
BRANCH  19  23
ATOM     23  O   UNL     1      44.775  34.524  35.720  0.00  0.00    +0.000 OA
ATOM     24  H   UNL     1      43.829  34.357  35.466  0.00  0.00    +0.000 HD
ENDBRANCH  19  23
BRANCH  20  25
ATOM     25  O   UNL     1      42.562  34.725  37.676  0.00  0.00    +0.000 OA
ATOM     26  H   UNL     1      42.429  35.672  37.875  0.00  0.00    +0.000 HD
ENDBRANCH  20  25
ENDBRANCH   6  16
BRANCH   1  27
ATOM     27  O   UNL     1      47.623  34.560  42.644  0.00  0.00    +0.000 OA
BRANCH  27  29
ATOM     28  O   UNL     1      50.220  34.901  42.710  0.00  0.00    +0.000 OA
ATOM     29  P   UNL     1      49.058  34.615  41.834  0.00  0.00    +0.000 P 
BRANCH  29  30
ATOM     30  O   UNL     1      48.980  35.887  40.727  0.00  0.00    +0.000 OA
ATOM     31  H   UNL     1      49.064  36.726  41.253  0.00  0.00    +0.000 HD
ENDBRANCH  29  30
BRANCH  29  32
ATOM     32  O   UNL     1      49.311  33.156  40.955  0.00  0.00    +0.000 OA
BRANCH  32  34
ATOM     33  C   UNL     1      49.530  31.439  42.559  0.00  0.00    +0.000 A 
ATOM     34  C   UNL     1      50.053  32.117  41.481  0.00  0.00    +0.000 A 
ATOM     35  C   UNL     1      51.314  31.720  40.969  0.00  0.00    +0.000 A 
ATOM     36  N   UNL     1      51.934  30.682  41.583  0.00  0.00    +0.000 NA
ATOM     37  C   UNL     1      51.401  30.058  42.613  0.00  0.00    +0.000 A 
ATOM     38  N   UNL     1      50.191  30.445  43.099  0.00  0.00    +0.000 NA
ATOM     39  C   UNL     1      47.091  31.040  42.837  0.00  0.00    +0.000 C 
ATOM     40  O   UNL     1      46.923  30.697  41.611  0.00  0.00    +0.000 OA
ATOM     41  N   UNL     1      48.386  31.438  43.399  0.00  0.00    +0.000 N 
ATOM     42  H   UNL     1      51.700  32.262  40.130  0.00  0.00    +0.000 HD
ATOM     43  H   UNL     1      51.845  29.219  43.151  0.00  0.00    +0.000 HD
ATOM     44  H   UNL     1      46.177  31.000  43.396  0.00  0.00    +0.000 HD
ATOM     45  H   UNL     1      48.321  31.691  44.390  0.00  0.00    +0.000 HD
ENDBRANCH  32  34
ENDBRANCH  29  32
ENDBRANCH  27  29
ENDBRANCH   1  27
TORSDOF 9
