
     RDKit          3D

 33 34  0  0  0  0  0  0  0  0999 V2000
   44.5818   35.9964   44.5129 C   0  0  0  0  0  0  0  0  0  0  0  0
   45.2218   35.9956   43.2584 C   0  0  0  0  0  0  0  0  0  0  0  0
   46.0939   34.9523   42.9731 C   0  0  0  0  0  0  0  0  0  0  0  0
   46.2976   33.9733   43.9115 N   0  0  0  0  0  0  0  0  0  0  0  0
   45.6714   34.0082   45.0926 C   0  0  0  0  0  0  0  0  0  0  0  0
   44.8138   35.0102   45.4058 N   0  0  0  0  0  0  0  0  0  0  0  0
   46.7151   34.9765   41.7211 O   0  0  0  0  0  0  0  0  0  0  0  0
   48.6539   33.3328   40.9679 O   0  0  0  0  0  0  0  0  0  0  0  0
   48.4066   34.6739   41.6316 P   0  0  0  0  0  0  0  0  0  0  0  0
   49.1220   35.9335   40.7869 O   0  0  0  0  0  0  0  0  0  0  0  0
   48.9973   34.5882   43.2191 O   0  0  0  0  0  0  0  0  0  0  0  0
   43.9131   36.8174   44.7030 H   0  0  0  0  0  0  0  0  0  0  0  0
   45.0500   36.7656   42.5429 H   0  0  0  0  0  0  0  0  0  0  0  0
   49.1955   36.7034   41.4062 H   0  0  0  0  0  0  0  0  0  0  0  0
   49.4705   35.4403   43.4629 H   0  0  0  0  0  0  0  0  0  0  0  0
   44.2052   31.7229   44.9038 O   0  0  0  0  0  0  0  0  0  0  0  0
   45.4797   31.6269   45.4738 C   0  0  1  0  0  0  0  0  0  0  0  0
   45.9072   32.9405   46.0891 C   0  0  1  0  0  0  0  0  0  0  0  0
   47.2265   32.8339   46.4872 O   0  0  0  0  0  0  0  0  0  0  0  0
   47.2642   31.9240   47.5441 C   0  0  0  0  0  0  0  0  0  0  0  0
   46.9440   30.5255   47.0595 C   0  0  1  0  0  0  0  0  0  0  0  0
   47.0732   29.6391   48.1077 O   0  0  0  0  0  0  0  0  0  0  0  0
   45.5238   30.5383   46.5253 C   0  0  1  0  0  0  0  0  0  0  0  0
   44.6677   30.7699   47.5768 O   0  0  0  0  0  0  0  0  0  0  0  0
   43.6080   32.2778   45.4640 H   0  0  0  0  0  0  0  0  0  0  0  0
   46.2263   31.3622   44.6998 H   0  0  0  0  0  0  0  0  0  0  0  0
   45.2811   33.1270   47.0106 H   0  0  0  0  0  0  0  0  0  0  0  0
   46.4304   32.2305   48.2384 H   0  0  0  0  0  0  0  0  0  0  0  0
   48.2091   31.9790   48.1187 H   0  0  0  0  0  0  0  0  0  0  0  0
   47.5994   30.2558   46.2211 H   0  0  0  0  0  0  0  0  0  0  0  0
   46.5399   29.9176   48.8750 H   0  0  0  0  0  0  0  0  0  0  0  0
   45.2949   29.5610   46.0200 H   0  0  0  0  0  0  0  0  0  0  0  0
   44.0854   31.5471   47.4994 H   0  0  0  0  0  0  0  0  0  0  0  0
  1  6  2  0
  2  1  1  0
  3  2  2  0
  3  4  1  0
  4  5  2  0
  5  6  1  0
  7  3  1  0
  8  9  2  0
  9  7  1  0
  9 11  1  0
 10  9  1  0
  1 12  1  0
  2 13  1  0
 10 14  1  0
 11 15  1  0
 16 17  1  0
 17 18  1  0
 18 19  1  0
 19 20  1  0
 20 21  1  0
 21 22  1  0
 21 23  1  0
 23 24  1  0
 23 17  1  0
 16 25  1  0
 17 26  1  6
 18 27  1  1
 20 28  1  0
 20 29  1  0
 21 30  1  6
 22 31  1  0
 23 32  1  6
 24 33  1  0
  5 18  1  0
M  ISO  4  12  14  13  14  14   3  15   3
M  END
>  <DihAtoms>  (1) 
3,4,17,16

>  <DihDeg>  (1) 
-75.6094460994553

$$$$
