
 OpenBabel03252504053D

 22 23  0  0  1  0  0  0  0  0999 V2000
   48.0970   34.9300   42.0460 C   0  0  2  0  0  0  0  0  0  0  0  0
   46.6010   34.8270   42.0040 C   0  0  1  0  0  0  0  0  0  0  0  0
   46.1260   33.7440   41.2810 O   0  0  0  0  0  0  0  0  0  0  0  0
   46.6180   33.7280   39.9960 C   0  0  0  0  0  0  0  0  0  0  0  0
   48.0790   33.4110   40.0160 C   0  0  2  0  0  0  0  0  0  0  0  0
   48.8410   34.0120   41.1550 C   0  0  2  0  0  0  0  0  0  0  0  0
   44.6170   35.5660   45.1490 C   0  0  0  0  0  0  0  0  0  0  0  0
   45.1440   35.7250   43.8580 C   0  0  0  0  0  0  0  0  0  0  0  0
   45.9950   34.7290   43.3740 C   0  0  0  0  0  0  0  0  0  0  0  0
   46.2730   33.6640   44.1590 N   0  0  0  0  0  0  0  0  0  0  0  0
   45.7500   33.5350   45.4010 C   0  0  0  0  0  0  0  0  0  0  0  0
   44.9300   34.4880   45.8780 N   0  0  0  0  0  0  0  0  0  0  0  0
   43.9610   36.3480   45.5070 H   0  0  0  0  0  0  0  0  0  0  0  0
   46.0010   32.6570   46.0010 H   0  0  0  0  0  0  0  0  0  0  0  0
   44.8680   36.8170   43.0390 O   0  0  0  0  0  0  0  0  0  0  0  0
   45.2780   37.7250   43.1570 H   0  0  0  0  0  0  0  0  0  0  0  0
   48.4790   34.7070   43.3780 O   0  0  0  0  0  0  0  0  0  0  0  0
   49.2900   35.2110   43.5890 H   0  0  0  0  0  0  0  0  0  0  0  0
   48.6280   33.7540   38.7630 O   0  0  0  0  0  0  0  0  0  0  0  0
   48.2340   33.1080   38.1180 H   0  0  0  0  0  0  0  0  0  0  0  0
   49.4280   32.9840   41.9270 O   0  0  0  0  0  0  0  0  0  0  0  0
   50.2470   32.6570   41.4780 H   0  0  0  0  0  0  0  0  0  0  0  0
  1 17  1  1  0  0  0
  2  1  1  0  0  0  0
  2  9  1  1  0  0  0
  3  2  1  0  0  0  0
  4  5  1  0  0  0  0
  4  3  1  0  0  0  0
  5 19  1  6  0  0  0
  5  6  1  0  0  0  0
  6 21  1  1  0  0  0
  6  1  1  0  0  0  0
  7 13  1  0  0  0  0
  7 12  1  0  0  0  0
  8  7  2  0  0  0  0
  9  8  1  0  0  0  0
  9 10  2  0  0  0  0
 10 11  1  0  0  0  0
 11 12  2  0  0  0  0
 11 14  1  0  0  0  0
 15 16  1  0  0  0  0
 15  8  1  0  0  0  0
 17 18  1  0  0  0  0
 20 19  1  0  0  0  0
 22 21  1  0  0  0  0
M  END
>  <minimizedAffinity>
-5.11633205

>  <minimizedRMSD>
0.780836761

$$$$
