
 OpenBabel03252503413D

 24 25  0  0  1  0  0  0  0  0999 V2000
   45.3290   34.8940   43.9430 C   0  0  0  0  0  0  0  0  0  0  0  0
   44.8480   35.8900   43.1070 C   0  0  0  0  0  0  0  0  0  0  0  0
   44.0450   35.5230   42.0350 C   0  0  0  0  0  0  0  0  0  0  0  0
   43.7690   34.2160   41.8550 N   0  0  0  0  0  0  0  0  0  0  0  0
   44.2510   33.2570   42.6860 C   0  0  0  0  0  0  0  0  0  0  0  0
   45.0370   33.5800   43.7420 N   0  0  0  0  0  0  0  0  0  0  0  0
   45.9580   35.1370   44.7910 H   0  0  0  0  0  0  0  0  0  0  0  0
   43.6840   36.3200   41.3990 H   0  0  0  0  0  0  0  0  0  0  0  0
   42.4910   31.6590   41.9110 C   0  0  2  0  0  3  0  0  0  0  0  0
   43.9170   31.8540   42.4400 C   0  0  1  0  0  3  0  0  0  0  0  0
   44.7140   31.2550   41.4570 O   0  0  0  0  0  0  0  0  0  0  0  0
   44.6620   29.8950   41.6960 C   0  0  0  0  0  2  0  0  0  0  0  0
   43.2910   29.2960   41.6810 C   0  0  1  0  0  3  0  0  0  0  0  0
   42.1980   30.1840   42.1820 C   0  0  1  0  0  3  0  0  0  0  0  0
   42.5100   31.8860   40.5240 O   0  0  0  0  0  0  0  0  0  0  0  0
   41.8830   32.6170   40.2870 H   0  0  0  0  0  0  0  0  0  0  0  0
   42.9870   28.9050   40.3790 O   0  0  0  0  0  0  0  0  0  0  0  0
   43.6150   28.1910   40.1080 H   0  0  0  0  0  0  0  0  0  0  0  0
   42.1270   30.0490   43.5710 O   0  0  0  0  0  0  0  0  0  0  0  0
   42.7090   29.3400   43.9070 H   0  0  0  0  0  0  0  0  0  0  0  0
   45.2440   37.2820   43.4440 C   0  0  0  0  0  0  0  0  0  0  0  0
   44.5040   37.6630   44.1760 H   0  0  0  0  0  0  0  0  0  0  0  0
   45.1760   37.8620   42.4860 H   0  0  0  0  0  0  0  0  0  0  0  0
   46.2710   37.2720   43.8050 H   0  0  0  0  0  0  0  0  0  0  0  0
  1  7  1  0  0  0  0
  2 21  1  0  0  0  0
  2  1  2  0  0  0  0
  3  2  1  0  0  0  0
  4  3  2  0  0  0  0
  4  5  1  0  0  0  0
  5  6  2  0  0  0  0
  6  1  1  0  0  0  0
  8  3  1  0  0  0  0
  9 15  1  6  0  0  0
  9 14  1  0  0  0  0
  9 10  1  0  0  0  0
 10  5  1  6  0  0  0
 11 12  1  0  0  0  0
 11 10  1  0  0  0  0
 13 17  1  6  0  0  0
 13 12  1  0  0  0  0
 13 14  1  0  0  0  0
 14 19  1  1  0  0  0
 16 15  1  0  0  0  0
 18 17  1  0  0  0  0
 19 20  1  0  0  0  0
 21 24  1  0  0  0  0
 21 22  1  0  0  0  0
 23 21  1  0  0  0  0
M  END
>  <minimizedAffinity>
-3.12715673

>  <minimizedRMSD>
5.97347593

$$$$
