
     RDKit          3D

 30 31  0  0  0  0  0  0  0  0999 V2000
   44.3829   35.7790   44.4335 C   0  0  0  0  0  0  0  0  0  0  0  0
   44.6644   35.0699   43.2768 C   0  0  0  0  0  0  0  0  0  0  0  0
   45.2884   33.8346   43.3925 C   0  0  0  0  0  0  0  0  0  0  0  0
   45.5922   33.3804   44.6245 N   0  0  0  0  0  0  0  0  0  0  0  0
   45.3078   34.0908   45.7449 C   0  0  0  0  0  0  0  0  0  0  0  0
   44.6992   35.3001   45.6676 N   0  0  0  0  0  0  0  0  0  0  0  0
   44.2642   35.7112   41.9971 C   0  0  0  0  0  0  0  0  0  0  0  0
   43.8972   36.7463   44.3890 H   0  0  0  0  0  0  0  0  0  0  0  0
   45.4956   33.3043   42.4726 H   0  0  0  0  0  0  0  0  0  0  0  0
   43.2092   35.4279   41.8083 H   0  0  0  0  0  0  0  0  0  0  0  0
   44.9305   35.2707   41.2102 H   0  0  0  0  0  0  0  0  0  0  0  0
   44.4350   36.7831   42.0780 H   0  0  0  0  0  0  0  0  0  0  0  0
   43.8648   34.1686   48.4827 O   0  0  0  0  0  0  0  0  0  0  0  0
   45.2184   34.4418   48.2188 C   0  0  2  0  0  0  0  0  0  0  0  0
   45.6619   33.5459   47.0556 C   0  0  1  0  0  0  0  0  0  0  0  0
   45.0469   32.3202   47.3347 O   0  0  0  0  0  0  0  0  0  0  0  0
   45.8311   31.7048   48.2914 C   0  0  0  0  0  0  0  0  0  0  0  0
   46.0246   32.4823   49.5560 C   0  0  2  0  0  0  0  0  0  0  0  0
   44.9973   32.1625   50.4403 O   0  0  0  0  0  0  0  0  0  0  0  0
   46.0723   33.9674   49.3943 C   0  0  1  0  0  0  0  0  0  0  0  0
   47.3870   34.3315   49.0917 O   0  0  0  0  0  0  0  0  0  0  0  0
   43.3243   34.9944   48.3939 H   0  0  0  0  0  0  0  0  0  0  0  0
   45.4147   35.4989   48.0511 H   0  0  0  0  0  0  0  0  0  0  0  0
   46.7579   33.3994   47.1424 H   0  0  0  0  0  0  0  0  0  0  0  0
   45.3702   30.7234   48.5712 H   0  0  0  0  0  0  0  0  0  0  0  0
   46.7919   31.4524   47.7808 H   0  0  0  0  0  0  0  0  0  0  0  0
   47.0176   32.1691   49.9867 H   0  0  0  0  0  0  0  0  0  0  0  0
   45.0708   31.2047   50.6780 H   0  0  0  0  0  0  0  0  0  0  0  0
   45.7254   34.4528   50.3340 H   0  0  0  0  0  0  0  0  0  0  0  0
   48.0075   33.5804   49.1600 H   0  0  0  0  0  0  0  0  0  0  0  0
  1  6  2  0
  2  3  2  0
  2  1  1  0
  3  4  1  0
  4  5  2  0
  6  5  1  0
  7  2  1  0
  1  8  1  0
  3  9  1  0
  7 10  1  0
  7 11  1  0
  7 12  1  0
 13 14  1  0
 14 15  1  0
 15 16  1  0
 16 17  1  0
 17 18  1  0
 18 19  1  0
 18 20  1  0
 20 21  1  0
 20 14  1  0
 13 22  1  0
 14 23  1  6
 15 24  1  6
 17 25  1  0
 17 26  1  0
 18 27  1  1
 19 28  1  0
 20 29  1  1
 21 30  1  0
  5 15  1  0
M  ISO  5   8  14   9  14  10   8  11   8  12   8
M  END
>  <DihAtoms>  (1) 
3,4,14,13

>  <DihDeg>  (1) 
107.50952945895756

$$$$
