
     RDKit          3D

 30 31  0  0  0  0  0  0  0  0999 V2000
   44.3869   35.7709   44.4362 C   0  0  0  0  0  0  0  0  0  0  0  0
   44.6696   35.0568   43.2578 C   0  0  0  0  0  0  0  0  0  0  0  0
   45.2929   33.8255   43.3936 C   0  0  0  0  0  0  0  0  0  0  0  0
   45.5902   33.3857   44.6330 N   0  0  0  0  0  0  0  0  0  0  0  0
   45.3074   34.0911   45.7392 C   0  0  0  0  0  0  0  0  0  0  0  0
   44.6944   35.3096   45.6662 N   0  0  0  0  0  0  0  0  0  0  0  0
   44.2576   35.7265   42.0109 C   0  0  0  0  0  0  0  0  0  0  0  0
   43.8983   36.7532   44.4668 H   0  0  0  0  0  0  0  0  0  0  0  0
   45.4913   33.3120   42.4632 H   0  0  0  0  0  0  0  0  0  0  0  0
   45.5700   33.6868   46.7080 H   0  0  0  0  0  0  0  0  0  0  0  0
   44.9845   35.3668   41.2299 H   0  0  0  0  0  0  0  0  0  0  0  0
   44.3288   36.8152   42.1129 H   0  0  0  0  0  0  0  0  0  0  0  0
   43.6703   34.4752   39.6346 O   0  0  0  0  0  0  0  0  0  0  0  0
   42.8332   34.1660   40.7263 C   0  0  1  0  0  0  0  0  0  0  0  0
   42.8441   35.3656   41.6062 C   0  0  2  0  0  0  0  0  0  0  0  0
   42.1041   36.4224   41.1993 O   0  0  0  0  0  0  0  0  0  0  0  0
   40.9300   36.1990   40.5888 C   0  0  0  0  0  0  0  0  0  0  0  0
   40.8004   35.0575   39.6548 C   0  0  2  0  0  0  0  0  0  0  0  0
   39.4453   34.7477   39.5232 O   0  0  0  0  0  0  0  0  0  0  0  0
   41.4838   33.8150   40.1808 C   0  0  1  0  0  0  0  0  0  0  0  0
   41.5387   32.9258   39.1235 O   0  0  0  0  0  0  0  0  0  0  0  0
   43.9217   33.6672   39.1364 H   0  0  0  0  0  0  0  0  0  0  0  0
   43.2782   33.2803   41.2233 H   0  0  0  0  0  0  0  0  0  0  0  0
   42.3479   35.0149   42.5623 H   0  0  0  0  0  0  0  0  0  0  0  0
   40.5903   37.1117   40.0312 H   0  0  0  0  0  0  0  0  0  0  0  0
   40.1443   36.0430   41.3854 H   0  0  0  0  0  0  0  0  0  0  0  0
   41.1518   35.3143   38.6337 H   0  0  0  0  0  0  0  0  0  0  0  0
   39.0004   35.2823   38.8374 H   0  0  0  0  0  0  0  0  0  0  0  0
   40.8437   33.4106   40.9976 H   0  0  0  0  0  0  0  0  0  0  0  0
   41.3018   33.3160   38.2686 H   0  0  0  0  0  0  0  0  0  0  0  0
  1  6  2  0
  2  3  2  0
  2  1  1  0
  3  4  1  0
  4  5  2  0
  6  5  1  0
  7  2  1  0
  1  8  1  0
  3  9  1  0
  5 10  1  0
  7 11  1  0
  7 12  1  0
 13 14  1  0
 14 15  1  0
 15 16  1  0
 16 17  1  0
 17 18  1  0
 18 19  1  0
 18 20  1  0
 20 21  1  0
 20 14  1  0
 13 22  1  0
 14 23  1  1
 15 24  1  1
 17 25  1  0
 17 26  1  0
 18 27  1  6
 19 28  1  0
 20 29  1  1
 21 30  1  0
  7 15  1  0
M  ISO  5   8  14   9  14  10  14  11   8  12   8
M  END
>  <DihAtoms>  (1) 
1,6,14,13

>  <DihDeg>  (1) 
-60.04773343459554

$$$$
