
 OpenBabel03242518263D

 48 52  0  0  1  0  0  0  0  0999 V2000
   46.7580   30.2830   45.2410 C   0  0  0  0  0  0  0  0  0  0  0  0
   46.4410   31.6010   45.3690 C   0  0  0  0  0  0  0  0  0  0  0  0
   46.8630   32.2580   46.5060 C   0  0  0  0  0  0  0  0  0  0  0  0
   47.5810   31.5990   47.4760 C   0  0  0  0  0  0  0  0  0  0  0  0
   47.8970   30.2530   47.3280 C   0  0  0  0  0  0  0  0  0  0  0  0
   47.4790   29.5750   46.1890 C   0  0  0  0  0  0  0  0  0  0  0  0
   48.6200   29.8560   48.4510 O   0  0  0  0  0  0  0  0  0  0  0  0
   48.4780   30.8770   49.4310 C   0  0  2  0  0  0  0  0  0  0  0  0
   48.1220   32.0220   48.7050 O   0  0  0  0  0  0  0  0  0  0  0  0
   46.4700   29.6820   44.3830 H   0  0  0  0  0  0  0  0  0  0  0  0
   46.6350   33.3040   46.6530 H   0  0  0  0  0  0  0  0  0  0  0  0
   47.7370   28.5470   46.1100 H   0  0  0  0  0  0  0  0  0  0  0  0
   47.6660   30.6410   50.1570 H   0  0  0  0  0  0  0  0  0  0  0  0
   44.9050   34.2720   43.3390 C   0  0  0  0  0  0  0  0  0  0  0  0
   44.2320   33.5580   42.3660 C   0  0  0  0  0  0  0  0  0  0  0  0
   44.3120   32.1680   42.4180 C   0  0  0  0  0  0  0  0  0  0  0  0
   45.0290   31.5520   43.3930 N   0  0  0  0  0  0  0  0  0  0  0  0
   45.6780   32.2900   44.3330 C   0  0  0  0  0  0  0  0  0  0  0  0
   45.6090   33.6400   44.2970 N   0  0  0  0  0  0  0  0  0  0  0  0
   44.9410   35.3480   43.4360 H   0  0  0  0  0  0  0  0  0  0  0  0
   43.7850   31.6350   41.6560 H   0  0  0  0  0  0  0  0  0  0  0  0
   43.5160   34.2950   41.3990 N   0  0  0  0  0  0  0  0  0  0  0  0
   43.3070   33.6950   40.1100 C   0  0  0  0  0  0  0  0  0  0  0  0
   42.6290   34.5760   39.1290 C   0  0  0  0  0  0  0  0  0  0  0  0
   41.4910   35.2530   39.6650 N   0  0  0  0  0  0  0  0  0  0  0  0
   41.5210   35.6370   41.0190 C   0  0  0  0  0  0  0  0  0  0  0  0
   42.9580   35.6070   41.5430 C   0  0  0  0  0  0  0  0  0  0  0  0
   42.7880   32.7120   40.2630 H   0  0  0  0  0  0  0  0  0  0  0  0
   44.3200   33.4330   39.7040 H   0  0  0  0  0  0  0  0  0  0  0  0
   43.3190   35.3110   38.7100 H   0  0  0  0  0  0  0  0  0  0  0  0
   42.2960   33.9380   38.2730 H   0  0  0  0  0  0  0  0  0  0  0  0
   41.2820   36.0840   39.0620 H   0  0  0  0  0  0  0  0  0  0  0  0
   40.9630   34.8970   41.6300 H   0  0  0  0  0  0  0  0  0  0  0  0
   41.0600   36.6120   41.2430 H   0  0  0  0  0  0  0  0  0  0  0  0
   42.9520   35.9900   42.5810 H   0  0  0  0  0  0  0  0  0  0  0  0
   43.5520   36.3130   40.9240 H   0  0  0  0  0  0  0  0  0  0  0  0
   50.0420   29.8180   51.0140 C   0  0  2  0  0  3  0  0  0  0  0  0
   49.8150   30.9950   50.1060 C   0  0  1  0  0  3  0  0  0  0  0  0
   50.7870   31.1640   49.1450 O   0  0  0  0  0  0  0  0  0  0  0  0
   51.9410   30.4470   49.3430 C   0  0  0  0  0  2  0  0  0  0  0  0
   52.4140   30.3880   50.7610 C   0  0  2  0  0  3  0  0  0  0  0  0
   51.3400   30.1220   51.7700 C   0  0  2  0  0  3  0  0  0  0  0  0
   50.0900   28.6030   50.3680 O   0  0  0  0  0  0  0  0  0  0  0  0
   49.3080   28.0250   50.5430 H   0  0  0  0  0  0  0  0  0  0  0  0
   53.1420   31.5360   51.0720 O   0  0  0  0  0  0  0  0  0  0  0  0
   52.5800   32.3270   51.1510 H   0  0  0  0  0  0  0  0  0  0  0  0
   51.6200   29.0860   52.6420 O   0  0  0  0  0  0  0  0  0  0  0  0
   51.5060   29.3760   53.5990 H   0  0  0  0  0  0  0  0  0  0  0  0
  1  2  2  0  0  0  0
  1  6  1  0  0  0  0
  2  3  1  0  0  0  0
  3 11  1  0  0  0  0
  3  4  2  0  0  0  0
  4  9  1  0  0  0  0
  5  4  1  0  0  0  0
  5  7  1  0  0  0  0
  6  5  2  0  0  0  0
  7  8  1  0  0  0  0
  8 38  1  0  0  0  0
  8 13  1  1  0  0  0
  9  8  1  0  0  0  0
 10  1  1  0  0  0  0
 12  6  1  0  0  0  0
 14 20  1  0  0  0  0
 14 19  1  0  0  0  0
 15 16  1  0  0  0  0
 15 14  2  0  0  0  0
 16 17  2  0  0  0  0
 17 18  1  0  0  0  0
 18  2  1  0  0  0  0
 19 18  2  0  0  0  0
 21 16  1  0  0  0  0
 22 27  1  0  0  0  0
 22 15  1  0  0  0  0
 23 28  1  0  0  0  0
 23 22  1  0  0  0  0
 24 25  1  0  0  0  0
 24 23  1  0  0  0  0
 25 26  1  0  0  0  0
 26 34  1  0  0  0  0
 26 27  1  0  0  0  0
 26 33  1  0  0  0  0
 27 35  1  0  0  0  0
 29 23  1  0  0  0  0
 30 24  1  0  0  0  0
 31 24  1  0  0  0  0
 32 25  1  0  0  0  0
 36 27  1  0  0  0  0
 37 43  1  6  0  0  0
 37 42  1  0  0  0  0
 38 39  1  6  0  0  0
 38 37  1  0  0  0  0
 39 40  1  0  0  0  0
 40 41  1  0  0  0  0
 41 45  1  1  0  0  0
 41 42  1  0  0  0  0
 42 47  1  6  0  0  0
 43 44  1  0  0  0  0
 45 46  1  0  0  0  0
 47 48  1  0  0  0  0
M  END
>  <minimizedAffinity>
-6.35550117

>  <minimizedRMSD>
2.38755989

$$$$
