
     RDKit          3D

 36 37  0  0  0  0  0  0  0  0999 V2000
   44.5283   35.8185   44.7157 C   0  0  0  0  0  0  0  0  0  0  0  0
   45.1943   35.7705   43.4657 C   0  0  0  0  0  0  0  0  0  0  0  0
   46.1225   34.7467   43.2915 C   0  0  0  0  0  0  0  0  0  0  0  0
   46.3400   33.8573   44.3152 N   0  0  0  0  0  0  0  0  0  0  0  0
   45.6715   33.9532   45.4916 C   0  0  0  0  0  0  0  0  0  0  0  0
   44.7716   34.9272   45.6910 N   0  0  0  0  0  0  0  0  0  0  0  0
   46.7994   34.7064   42.0073 C   0  0  0  0  0  0  0  0  0  0  0  0
   47.5945   33.5593   41.9243 F   0  0  0  0  0  0  0  0  0  0  0  0
   47.6913   35.7666   42.0007 F   0  0  0  0  0  0  0  0  0  0  0  0
   45.9473   34.7098   40.9403 F   0  0  0  0  0  0  0  0  0  0  0  0
   46.0944   32.8691   46.4246 C   0  0  0  0  0  0  0  0  0  0  0  0
   45.2829   32.8362   47.6690 C   0  0  0  0  0  0  0  0  0  0  0  0
   43.7921   36.5796   44.9372 H   0  0  0  0  0  0  0  0  0  0  0  0
   44.9634   36.5053   42.7222 H   0  0  0  0  0  0  0  0  0  0  0  0
   45.9125   31.9003   45.8749 H   0  0  0  0  0  0  0  0  0  0  0  0
   47.1784   32.9429   46.5571 H   0  0  0  0  0  0  0  0  0  0  0  0
   45.1897   33.8156   48.1702 H   0  0  0  0  0  0  0  0  0  0  0  0
   44.2317   32.5802   47.3593 H   0  0  0  0  0  0  0  0  0  0  0  0
   45.2735   30.1527   46.8227 O   0  0  0  0  0  0  0  0  0  0  0  0
   45.2845   30.3801   48.1755 C   0  0  2  0  0  0  0  0  0  0  0  0
   45.7087   31.7517   48.5983 C   0  0  1  0  0  0  0  0  0  0  0  0
   47.0898   31.7652   48.7764 O   0  0  0  0  0  0  0  0  0  0  0  0
   47.7777   31.1016   47.7891 C   0  0  0  0  0  0  0  0  0  0  0  0
   47.6171   29.6228   48.0307 C   0  0  2  0  0  0  0  0  0  0  0  0
   47.6744   28.8780   46.8544 O   0  0  0  0  0  0  0  0  0  0  0  0
   46.2992   29.3893   48.7574 C   0  0  2  0  0  0  0  0  0  0  0  0
   45.8748   28.0777   48.5477 O   0  0  0  0  0  0  0  0  0  0  0  0
   45.2259   30.9255   46.2402 H   0  0  0  0  0  0  0  0  0  0  0  0
   44.3109   30.1192   48.6833 H   0  0  0  0  0  0  0  0  0  0  0  0
   45.2690   31.9544   49.6072 H   0  0  0  0  0  0  0  0  0  0  0  0
   48.8595   31.4019   47.9031 H   0  0  0  0  0  0  0  0  0  0  0  0
   47.5264   31.4115   46.7543 H   0  0  0  0  0  0  0  0  0  0  0  0
   48.4423   29.3080   48.7027 H   0  0  0  0  0  0  0  0  0  0  0  0
   48.0449   29.4347   46.1067 H   0  0  0  0  0  0  0  0  0  0  0  0
   46.3850   29.5587   49.8461 H   0  0  0  0  0  0  0  0  0  0  0  0
   45.4972   27.6559   49.3606 H   0  0  0  0  0  0  0  0  0  0  0  0
  1  6  2  0
  2  1  1  0
  3  2  2  0
  3  4  1  0
  4  5  2  0
  5  6  1  0
  5 11  1  0
  7  3  1  0
  8  7  1  0
  9  7  1  0
 10  7  1  0
 11 12  1  0
  1 13  1  0
  2 14  1  0
 11 15  1  0
 11 16  1  0
 12 17  1  0
 12 18  1  0
 19 20  1  0
 20 21  1  0
 21 22  1  0
 22 23  1  0
 23 24  1  0
 24 25  1  0
 24 26  1  0
 26 27  1  0
 26 20  1  0
 19 28  1  0
 20 29  1  1
 21 30  1  1
 23 31  1  0
 23 32  1  0
 24 33  1  1
 25 34  1  0
 26 35  1  1
 27 36  1  0
 12 21  1  0
M  ISO  6  13  14  14  14  15   8  16   8  17   8  18   8
M  END
>  <DihAtoms>  (1) 
10,11,20,19

>  <DihDeg>  (1) 
59.99788218949464

$$$$
