
     RDKit          3D

 30 31  0  0  0  0  0  0  0  0999 V2000
   44.3869   35.7709   44.4362 C   0  0  0  0  0  0  0  0  0  0  0  0
   44.6696   35.0568   43.2578 C   0  0  0  0  0  0  0  0  0  0  0  0
   45.2929   33.8255   43.3936 C   0  0  0  0  0  0  0  0  0  0  0  0
   45.5902   33.3857   44.6330 N   0  0  0  0  0  0  0  0  0  0  0  0
   45.3074   34.0911   45.7392 C   0  0  0  0  0  0  0  0  0  0  0  0
   44.6944   35.3096   45.6662 N   0  0  0  0  0  0  0  0  0  0  0  0
   44.2576   35.7265   42.0109 C   0  0  0  0  0  0  0  0  0  0  0  0
   43.8983   36.7532   44.4668 H   0  0  0  0  0  0  0  0  0  0  0  0
   45.4913   33.3120   42.4632 H   0  0  0  0  0  0  0  0  0  0  0  0
   45.5700   33.6868   46.7080 H   0  0  0  0  0  0  0  0  0  0  0  0
   44.9845   35.3668   41.2299 H   0  0  0  0  0  0  0  0  0  0  0  0
   44.3288   36.8152   42.1129 H   0  0  0  0  0  0  0  0  0  0  0  0
   43.0713   36.7097   39.7342 O   0  0  0  0  0  0  0  0  0  0  0  0
   42.6866   35.4114   40.1275 C   0  0  1  0  0  0  0  0  0  0  0  0
   42.8441   35.3656   41.6062 C   0  0  2  0  0  0  0  0  0  0  0  0
   41.8897   35.9864   42.3368 O   0  0  0  0  0  0  0  0  0  0  0  0
   40.6156   35.9401   41.9179 C   0  0  0  0  0  0  0  0  0  0  0  0
   40.3221   36.0179   40.4687 C   0  0  2  0  0  0  0  0  0  0  0  0
   39.0476   35.4919   40.2485 O   0  0  0  0  0  0  0  0  0  0  0  0
   41.2853   35.1870   39.6505 C   0  0  1  0  0  0  0  0  0  0  0  0
   41.0934   35.5573   38.3322 O   0  0  0  0  0  0  0  0  0  0  0  0
   43.2387   36.7558   38.7677 H   0  0  0  0  0  0  0  0  0  0  0  0
   43.3742   34.7099   39.6130 H   0  0  0  0  0  0  0  0  0  0  0  0
   42.7386   34.2676   41.8642 H   0  0  0  0  0  0  0  0  0  0  0  0
   40.0033   36.7390   42.4139 H   0  0  0  0  0  0  0  0  0  0  0  0
   40.1629   34.9696   42.2777 H   0  0  0  0  0  0  0  0  0  0  0  0
   40.2819   37.0672   40.1088 H   0  0  0  0  0  0  0  0  0  0  0  0
   38.3399   36.1545   40.3667 H   0  0  0  0  0  0  0  0  0  0  0  0
   41.0055   34.1196   39.8005 H   0  0  0  0  0  0  0  0  0  0  0  0
   40.5415   36.3462   38.2215 H   0  0  0  0  0  0  0  0  0  0  0  0
  1  6  2  0
  2  3  2  0
  2  1  1  0
  3  4  1  0
  4  5  2  0
  6  5  1  0
  7  2  1  0
  1  8  1  0
  3  9  1  0
  5 10  1  0
  7 11  1  0
  7 12  1  0
 13 14  1  0
 14 15  1  0
 15 16  1  0
 16 17  1  0
 17 18  1  0
 18 19  1  0
 18 20  1  0
 20 21  1  0
 20 14  1  0
 13 22  1  0
 14 23  1  6
 15 24  1  1
 17 25  1  0
 17 26  1  0
 18 27  1  6
 19 28  1  0
 20 29  1  6
 21 30  1  0
  7 15  1  0
M  ISO  5   8  14   9  14  10  14  11   8  12   8
M  END
>  <DihAtoms>  (1) 
1,6,14,13

>  <DihDeg>  (1) 
-60.04773343459554

$$$$
