
 OpenBabel03252504033D

 39 42  0  0  1  0  0  0  0  0999 V2000
   37.5050   28.3140   41.9140 C   0  0  0  0  0  0  0  0  0  0  0  0
   37.8250   29.5890   41.4810 C   0  0  0  0  0  0  0  0  0  0  0  0
   37.5710   29.8900   40.1460 C   0  0  0  0  0  0  0  0  0  0  0  0
   37.0350   28.9380   39.3630 N   0  0  0  0  0  0  0  0  0  0  0  0
   36.7330   27.7090   39.8100 C   0  0  0  0  0  0  0  0  0  0  0  0
   36.9730   27.4010   41.1000 N   0  0  0  0  0  0  0  0  0  0  0  0
   38.2510   30.3510   42.0940 H   0  0  0  0  0  0  0  0  0  0  0  0
   35.3490   27.0590   37.9040 C   0  0  0  0  0  0  0  0  0  0  0  0
   36.1500   26.6750   38.9530 C   0  0  0  0  0  0  0  0  0  0  0  0
   36.3920   25.3280   39.1800 C   0  0  0  0  0  0  0  0  0  0  0  0
   35.8080   24.4040   38.3310 C   0  0  0  0  0  0  0  0  0  0  0  0
   35.8590   23.0520   38.3030 N   0  0  0  0  0  0  0  0  0  0  0  0
   35.1170   22.5950   37.2730 C   0  0  0  0  0  0  0  0  0  0  0  0
   34.5670   23.6750   36.6130 C   0  0  0  0  0  0  0  0  0  0  0  0
   34.9980   24.7940   37.2710 C   0  0  0  0  0  0  0  0  0  0  0  0
   34.7690   26.1230   37.0590 C   0  0  0  0  0  0  0  0  0  0  0  0
   35.1710   28.1140   37.7420 H   0  0  0  0  0  0  0  0  0  0  0  0
   37.0220   25.0200   40.0050 H   0  0  0  0  0  0  0  0  0  0  0  0
   36.4140   22.5050   39.0070 H   0  0  0  0  0  0  0  0  0  0  0  0
   35.0490   21.5190   37.1050 H   0  0  0  0  0  0  0  0  0  0  0  0
   33.9310   23.5670   35.7500 H   0  0  0  0  0  0  0  0  0  0  0  0
   34.1390   26.4380   36.2370 H   0  0  0  0  0  0  0  0  0  0  0  0
   37.7460   32.3500   40.5500 C   0  0  1  0  0  3  0  0  0  0  0  0
   37.8800   31.2350   39.5770 C   0  0  1  0  0  3  0  0  0  0  0  0
   39.0610   31.2050   38.8490 O   0  0  0  0  0  0  0  0  0  0  0  0
   40.1860   31.4130   39.6290 C   0  0  0  0  0  2  0  0  0  0  0  0
   40.1550   32.8910   40.0300 C   0  0  2  0  0  3  0  0  0  0  0  0
   38.9940   33.0130   40.9860 C   0  0  1  0  0  3  0  0  0  0  0  0
   36.8480   33.3520   40.1190 O   0  0  0  0  0  0  0  0  0  0  0  0
   37.0250   33.6300   39.1840 H   0  0  0  0  0  0  0  0  0  0  0  0
   39.9610   33.5850   38.8390 O   0  0  0  0  0  0  0  0  0  0  0  0
   40.6760   33.2940   38.2320 H   0  0  0  0  0  0  0  0  0  0  0  0
   38.7710   34.3720   41.2330 O   0  0  0  0  0  0  0  0  0  0  0  0
   38.2870   34.8110   40.4910 H   0  0  0  0  0  0  0  0  0  0  0  0
   37.7860   28.0540   43.3030 C   0  0  0  0  0  0  0  0  0  0  0  0
   38.5700   27.1920   43.7660 O   0  0  0  0  0  0  0  0  0  0  0  0
   36.9940   28.9710   44.0540 N   0  0  0  0  0  0  0  0  0  0  0  0
   36.0930   28.6470   44.4600 H   0  0  0  0  0  0  0  0  0  0  0  0
   37.3620   29.9390   44.1650 H   0  0  0  0  0  0  0  0  0  0  0  0
  1 35  1  0  0  0  0
  2  1  1  0  0  0  0
  2  7  1  0  0  0  0
  3  2  2  0  0  0  0
  4  5  2  0  0  0  0
  4  3  1  0  0  0  0
  5  6  1  0  0  0  0
  6  1  2  0  0  0  0
  8  9  1  0  0  0  0
  9 10  2  0  0  0  0
  9  5  1  0  0  0  0
 10 18  1  0  0  0  0
 11 10  1  0  0  0  0
 12 11  1  0  0  0  0
 12 19  1  0  0  0  0
 13 12  1  0  0  0  0
 14 15  1  0  0  0  0
 14 13  2  0  0  0  0
 15 11  2  0  0  0  0
 16 15  1  0  0  0  0
 16  8  2  0  0  0  0
 17  8  1  0  0  0  0
 20 13  1  0  0  0  0
 21 14  1  0  0  0  0
 22 16  1  0  0  0  0
 23 29  1  6  0  0  0
 23 28  1  0  0  0  0
 24  3  1  1  0  0  0
 24 23  1  0  0  0  0
 25 24  1  0  0  0  0
 25 26  1  0  0  0  0
 26 27  1  0  0  0  0
 27 31  1  6  0  0  0
 27 28  1  0  0  0  0
 28 33  1  6  0  0  0
 30 29  1  0  0  0  0
 32 31  1  0  0  0  0
 34 33  1  0  0  0  0
 35 36  2  0  0  0  0
 35 37  1  0  0  0  0
 37 39  1  0  0  0  0
 37 38  1  0  0  0  0
M  END
>  <minimizedAffinity>
-6.98682594

$$$$

 OpenBabel03252504033D

 39 42  0  0  1  0  0  0  0  0999 V2000
   37.4640   29.0020   41.8170 C   0  0  0  0  0  0  0  0  0  0  0  0
   38.0330   30.2400   41.5710 C   0  0  0  0  0  0  0  0  0  0  0  0
   37.7480   30.8400   40.3480 C   0  0  0  0  0  0  0  0  0  0  0  0
   36.9470   30.1920   39.4850 N   0  0  0  0  0  0  0  0  0  0  0  0
   36.4080   28.9910   39.7500 C   0  0  0  0  0  0  0  0  0  0  0  0
   36.6730   28.3960   40.9290 N   0  0  0  0  0  0  0  0  0  0  0  0
   38.6700   30.7620   42.2490 H   0  0  0  0  0  0  0  0  0  0  0  0
   35.8770   27.0170   38.4100 C   0  0  0  0  0  0  0  0  0  0  0  0
   35.5350   28.2880   38.8070 C   0  0  0  0  0  0  0  0  0  0  0  0
   34.3810   28.8790   38.3140 C   0  0  0  0  0  0  0  0  0  0  0  0
   33.6030   28.1580   37.4260 C   0  0  0  0  0  0  0  0  0  0  0  0
   32.4480   28.4630   36.7900 N   0  0  0  0  0  0  0  0  0  0  0  0
   32.0700   27.4240   36.0170 C   0  0  0  0  0  0  0  0  0  0  0  0
   33.0020   26.4150   36.1510 C   0  0  0  0  0  0  0  0  0  0  0  0
   33.9490   26.8730   37.0240 C   0  0  0  0  0  0  0  0  0  0  0  0
   35.0880   26.3040   37.5190 C   0  0  0  0  0  0  0  0  0  0  0  0
   36.7800   26.5720   38.8050 H   0  0  0  0  0  0  0  0  0  0  0  0
   34.1070   29.8800   38.6240 H   0  0  0  0  0  0  0  0  0  0  0  0
   31.9710   29.3890   36.9250 H   0  0  0  0  0  0  0  0  0  0  0  0
   31.1530   27.5040   35.4320 H   0  0  0  0  0  0  0  0  0  0  0  0
   32.9210   25.4750   35.6300 H   0  0  0  0  0  0  0  0  0  0  0  0
   35.3680   25.3030   37.2120 H   0  0  0  0  0  0  0  0  0  0  0  0
   39.1980   32.7620   41.0190 C   0  0  1  0  0  3  0  0  0  0  0  0
   38.3100   32.1730   39.9830 C   0  0  1  0  0  3  0  0  0  0  0  0
   38.8140   32.1600   38.6900 O   0  0  0  0  0  0  0  0  0  0  0  0
   40.1270   31.7260   38.6230 C   0  0  0  0  0  2  0  0  0  0  0  0
   40.9760   32.8470   39.2300 C   0  0  2  0  0  3  0  0  0  0  0  0
   40.6400   32.8370   40.7020 C   0  0  1  0  0  3  0  0  0  0  0  0
   38.7770   34.0410   41.4430 O   0  0  0  0  0  0  0  0  0  0  0  0
   38.5750   34.6370   40.6770 H   0  0  0  0  0  0  0  0  0  0  0  0
   40.5620   34.0070   38.5800 O   0  0  0  0  0  0  0  0  0  0  0  0
   40.6610   33.8320   37.6190 H   0  0  0  0  0  0  0  0  0  0  0  0
   41.2160   33.9690   41.2900 O   0  0  0  0  0  0  0  0  0  0  0  0
   40.6920   34.7890   41.1120 H   0  0  0  0  0  0  0  0  0  0  0  0
   37.7900   28.4250   43.0970 C   0  0  0  0  0  0  0  0  0  0  0  0
   38.6370   27.5310   43.3290 O   0  0  0  0  0  0  0  0  0  0  0  0
   36.9530   29.0710   44.0550 N   0  0  0  0  0  0  0  0  0  0  0  0
   36.0840   28.5950   44.3690 H   0  0  0  0  0  0  0  0  0  0  0  0
   37.2590   30.0050   44.4010 H   0  0  0  0  0  0  0  0  0  0  0  0
  1 35  1  0  0  0  0
  2  1  1  0  0  0  0
  2  7  1  0  0  0  0
  3  2  2  0  0  0  0
  4  5  2  0  0  0  0
  4  3  1  0  0  0  0
  5  6  1  0  0  0  0
  6  1  2  0  0  0  0
  8 17  1  0  0  0  0
  8  9  1  0  0  0  0
  9  5  1  0  0  0  0
 10 18  1  0  0  0  0
 10  9  2  0  0  0  0
 11 10  1  0  0  0  0
 12 19  1  0  0  0  0
 12 11  1  0  0  0  0
 13 14  2  0  0  0  0
 13 12  1  0  0  0  0
 14 15  1  0  0  0  0
 15 11  2  0  0  0  0
 15 16  1  0  0  0  0
 16  8  2  0  0  0  0
 20 13  1  0  0  0  0
 21 14  1  0  0  0  0
 22 16  1  0  0  0  0
 23 29  1  6  0  0  0
 24  3  1  1  0  0  0
 24 23  1  0  0  0  0
 25 24  1  0  0  0  0
 26 25  1  0  0  0  0
 26 27  1  0  0  0  0
 27 31  1  6  0  0  0
 27 28  1  0  0  0  0
 28 23  1  0  0  0  0
 28 33  1  6  0  0  0
 30 29  1  0  0  0  0
 32 31  1  0  0  0  0
 34 33  1  0  0  0  0
 35 36  2  0  0  0  0
 35 37  1  0  0  0  0
 37 38  1  0  0  0  0
 37 39  1  0  0  0  0
M  END
>  <minimizedAffinity>
-6.96679163

$$$$

 OpenBabel03252504033D

 39 42  0  0  1  0  0  0  0  0999 V2000
   39.3450   31.9760   40.0090 C   0  0  0  0  0  0  0  0  0  0  0  0
   40.4560   32.3090   39.2530 C   0  0  0  0  0  0  0  0  0  0  0  0
   40.4440   31.9450   37.9100 C   0  0  0  0  0  0  0  0  0  0  0  0
   39.3670   31.2990   37.4290 N   0  0  0  0  0  0  0  0  0  0  0  0
   38.3020   30.9890   38.1860 C   0  0  0  0  0  0  0  0  0  0  0  0
   38.2980   31.3330   39.4880 N   0  0  0  0  0  0  0  0  0  0  0  0
   41.3140   32.8200   39.6260 H   0  0  0  0  0  0  0  0  0  0  0  0
   36.1610   29.8630   38.5330 C   0  0  0  0  0  0  0  0  0  0  0  0
   37.1320   30.2850   37.6570 C   0  0  0  0  0  0  0  0  0  0  0  0
   36.9910   30.0400   36.2990 C   0  0  0  0  0  0  0  0  0  0  0  0
   35.8600   29.3690   35.8670 C   0  0  0  0  0  0  0  0  0  0  0  0
   35.4540   28.9940   34.6320 N   0  0  0  0  0  0  0  0  0  0  0  0
   34.2670   28.3580   34.7220 C   0  0  0  0  0  0  0  0  0  0  0  0
   33.8900   28.3160   36.0480 C   0  0  0  0  0  0  0  0  0  0  0  0
   34.8780   28.9430   36.7550 C   0  0  0  0  0  0  0  0  0  0  0  0
   35.0310   29.1920   38.0890 C   0  0  0  0  0  0  0  0  0  0  0  0
   36.2880   30.0640   39.5890 H   0  0  0  0  0  0  0  0  0  0  0  0
   37.7530   30.3690   35.6030 H   0  0  0  0  0  0  0  0  0  0  0  0
   36.0260   29.2010   33.7760 H   0  0  0  0  0  0  0  0  0  0  0  0
   33.7940   27.9870   33.8110 H   0  0  0  0  0  0  0  0  0  0  0  0
   32.9720   27.8560   36.3780 H   0  0  0  0  0  0  0  0  0  0  0  0
   34.2730   28.8640   38.7890 H   0  0  0  0  0  0  0  0  0  0  0  0
   42.4590   33.3600   37.4880 C   0  0  1  0  0  3  0  0  0  0  0  0
   41.5900   32.2560   37.0070 C   0  0  1  0  0  3  0  0  0  0  0  0
   42.2450   31.0950   36.6210 O   0  0  0  0  0  0  0  0  0  0  0  0
   43.2200   30.6960   37.5190 C   0  0  0  0  0  2  0  0  0  0  0  0
   44.3630   31.7070   37.3800 C   0  0  2  0  0  3  0  0  0  0  0  0
   43.8170   32.9950   37.9480 C   0  0  1  0  0  3  0  0  0  0  0  0
   42.5840   34.4110   36.5530 O   0  0  0  0  0  0  0  0  0  0  0  0
   42.7980   34.0740   35.6450 H   0  0  0  0  0  0  0  0  0  0  0  0
   44.6200   31.7760   36.0130 O   0  0  0  0  0  0  0  0  0  0  0  0
   44.7910   30.8540   35.7200 H   0  0  0  0  0  0  0  0  0  0  0  0
   44.7260   34.0190   37.6640 O   0  0  0  0  0  0  0  0  0  0  0  0
   44.6580   34.3300   36.7270 H   0  0  0  0  0  0  0  0  0  0  0  0
   39.4070   32.3750   41.3930 C   0  0  0  0  0  0  0  0  0  0  0  0
   39.7740   31.6740   42.3650 O   0  0  0  0  0  0  0  0  0  0  0  0
   38.9660   33.7310   41.4410 N   0  0  0  0  0  0  0  0  0  0  0  0
   37.9830   33.9330   41.7120 H   0  0  0  0  0  0  0  0  0  0  0  0
   39.6630   34.4670   41.2010 H   0  0  0  0  0  0  0  0  0  0  0  0
  1 35  1  0  0  0  0
  2  7  1  0  0  0  0
  2  1  2  0  0  0  0
  3  2  1  0  0  0  0
  4  3  2  0  0  0  0
  4  5  1  0  0  0  0
  5  6  2  0  0  0  0
  6  1  1  0  0  0  0
  8 17  1  0  0  0  0
  9  5  1  0  0  0  0
  9  8  2  0  0  0  0
 10  9  1  0  0  0  0
 11 10  2  0  0  0  0
 11 15  1  0  0  0  0
 12 13  1  0  0  0  0
 12 11  1  0  0  0  0
 13 14  2  0  0  0  0
 14 21  1  0  0  0  0
 14 15  1  0  0  0  0
 15 16  2  0  0  0  0
 16  8  1  0  0  0  0
 16 22  1  0  0  0  0
 18 10  1  0  0  0  0
 19 12  1  0  0  0  0
 20 13  1  0  0  0  0
 23 29  1  6  0  0  0
 23 28  1  0  0  0  0
 24 23  1  0  0  0  0
 24  3  1  1  0  0  0
 25 24  1  0  0  0  0
 25 26  1  0  0  0  0
 27 31  1  6  0  0  0
 27 26  1  0  0  0  0
 27 28  1  0  0  0  0
 28 33  1  6  0  0  0
 30 29  1  0  0  0  0
 32 31  1  0  0  0  0
 34 33  1  0  0  0  0
 35 37  1  0  0  0  0
 35 36  2  0  0  0  0
 37 38  1  0  0  0  0
 39 37  1  0  0  0  0
M  END
>  <minimizedAffinity>
-6.94109297

$$$$

 OpenBabel03252504033D

 39 42  0  0  1  0  0  0  0  0999 V2000
   39.3410   31.2280   38.6820 C   0  0  0  0  0  0  0  0  0  0  0  0
   39.5040   30.7410   39.9670 C   0  0  0  0  0  0  0  0  0  0  0  0
   38.5490   29.8430   40.4330 C   0  0  0  0  0  0  0  0  0  0  0  0
   37.5340   29.5030   39.6190 N   0  0  0  0  0  0  0  0  0  0  0  0
   37.4010   29.9910   38.3750 C   0  0  0  0  0  0  0  0  0  0  0  0
   38.3170   30.8610   37.9090 N   0  0  0  0  0  0  0  0  0  0  0  0
   40.3050   31.0040   40.6200 H   0  0  0  0  0  0  0  0  0  0  0  0
   36.4800   29.6860   36.1320 C   0  0  0  0  0  0  0  0  0  0  0  0
   36.2940   29.6180   37.4920 C   0  0  0  0  0  0  0  0  0  0  0  0
   35.0740   29.2000   38.0020 C   0  0  0  0  0  0  0  0  0  0  0  0
   34.0710   28.8620   37.1100 C   0  0  0  0  0  0  0  0  0  0  0  0
   32.8030   28.4310   37.3050 N   0  0  0  0  0  0  0  0  0  0  0  0
   32.2060   28.2320   36.1110 C   0  0  0  0  0  0  0  0  0  0  0  0
   33.1070   28.5430   35.1120 C   0  0  0  0  0  0  0  0  0  0  0  0
   34.2600   28.9330   35.7350 C   0  0  0  0  0  0  0  0  0  0  0  0
   35.4670   29.3450   35.2470 C   0  0  0  0  0  0  0  0  0  0  0  0
   37.4390   30.0140   35.7520 H   0  0  0  0  0  0  0  0  0  0  0  0
   34.9210   29.1440   39.0730 H   0  0  0  0  0  0  0  0  0  0  0  0
   32.4080   28.2920   38.2680 H   0  0  0  0  0  0  0  0  0  0  0  0
   31.1740   27.8810   36.0860 H   0  0  0  0  0  0  0  0  0  0  0  0
   32.8640   28.4640   34.0650 H   0  0  0  0  0  0  0  0  0  0  0  0
   35.6260   29.4040   34.1770 H   0  0  0  0  0  0  0  0  0  0  0  0
   37.3270   28.7880   42.3410 C   0  0  1  0  0  3  0  0  0  0  0  0
   38.6300   29.2580   41.8040 C   0  0  1  0  0  3  0  0  0  0  0  0
   39.6830   28.3580   41.8960 O   0  0  0  0  0  0  0  0  0  0  0  0
   39.3380   27.0760   41.5030 C   0  0  0  0  0  2  0  0  0  0  0  0
   38.4210   26.5290   42.6010 C   0  0  2  0  0  3  0  0  0  0  0  0
   37.1460   27.3260   42.4780 C   0  0  1  0  0  3  0  0  0  0  0  0
   36.9920   29.3860   43.5750 O   0  0  0  0  0  0  0  0  0  0  0  0
   37.7460   29.3550   44.2180 H   0  0  0  0  0  0  0  0  0  0  0  0
   39.1020   26.7630   43.7920 O   0  0  0  0  0  0  0  0  0  0  0  0
   39.9850   26.3470   43.6890 H   0  0  0  0  0  0  0  0  0  0  0  0
   36.3360   27.0310   43.5800 O   0  0  0  0  0  0  0  0  0  0  0  0
   36.6290   27.5070   44.3960 H   0  0  0  0  0  0  0  0  0  0  0  0
   40.3570   32.1530   38.2470 C   0  0  0  0  0  0  0  0  0  0  0  0
   41.2680   32.6570   38.9450 O   0  0  0  0  0  0  0  0  0  0  0  0
   40.1220   32.3870   36.8600 N   0  0  0  0  0  0  0  0  0  0  0  0
   39.6070   33.2440   36.5720 H   0  0  0  0  0  0  0  0  0  0  0  0
   40.4850   31.6790   36.1890 H   0  0  0  0  0  0  0  0  0  0  0  0
  1  2  1  0  0  0  0
  2  3  2  0  0  0  0
  2  7  1  0  0  0  0
  4  3  1  0  0  0  0
  5  4  2  0  0  0  0
  6  5  1  0  0  0  0
  6  1  2  0  0  0  0
  8  9  1  0  0  0  0
  9 10  2  0  0  0  0
  9  5  1  0  0  0  0
 10 18  1  0  0  0  0
 11 12  1  0  0  0  0
 11 10  1  0  0  0  0
 12 19  1  0  0  0  0
 13 12  1  0  0  0  0
 14 15  1  0  0  0  0
 14 13  2  0  0  0  0
 15 11  2  0  0  0  0
 16 15  1  0  0  0  0
 16  8  2  0  0  0  0
 17  8  1  0  0  0  0
 20 13  1  0  0  0  0
 21 14  1  0  0  0  0
 22 16  1  0  0  0  0
 23 28  1  0  0  0  0
 23 29  1  1  0  0  0
 24  3  1  6  0  0  0
 24 25  1  0  0  0  0
 24 23  1  0  0  0  0
 26 25  1  0  0  0  0
 26 27  1  0  0  0  0
 27 31  1  1  0  0  0
 28 27  1  0  0  0  0
 28 33  1  1  0  0  0
 29 30  1  0  0  0  0
 32 31  1  0  0  0  0
 33 34  1  0  0  0  0
 35  1  1  0  0  0  0
 35 36  2  0  0  0  0
 37 35  1  0  0  0  0
 38 37  1  0  0  0  0
 39 37  1  0  0  0  0
M  END
>  <minimizedAffinity>
-6.8977046

$$$$

 OpenBabel03252504033D

 39 42  0  0  1  0  0  0  0  0999 V2000
   36.4820   29.1790   36.3450 C   0  0  0  0  0  0  0  0  0  0  0  0
   36.8860   30.4800   36.5940 C   0  0  0  0  0  0  0  0  0  0  0  0
   37.4020   30.7560   37.8560 C   0  0  0  0  0  0  0  0  0  0  0  0
   37.4790   29.7560   38.7510 N   0  0  0  0  0  0  0  0  0  0  0  0
   37.0790   28.5020   38.4830 C   0  0  0  0  0  0  0  0  0  0  0  0
   36.5770   28.2190   37.2660 N   0  0  0  0  0  0  0  0  0  0  0  0
   36.8290   31.2790   35.8900 H   0  0  0  0  0  0  0  0  0  0  0  0
   36.9200   27.6980   40.7850 C   0  0  0  0  0  0  0  0  0  0  0  0
   37.1650   27.4170   39.4620 C   0  0  0  0  0  0  0  0  0  0  0  0
   37.4840   26.1230   39.0780 C   0  0  0  0  0  0  0  0  0  0  0  0
   37.5460   25.1450   40.0560 C   0  0  0  0  0  0  0  0  0  0  0  0
   37.8280   23.8230   39.9880 N   0  0  0  0  0  0  0  0  0  0  0  0
   37.7640   23.2850   41.2230 C   0  0  0  0  0  0  0  0  0  0  0  0
   37.4340   24.2800   42.1200 C   0  0  0  0  0  0  0  0  0  0  0  0
   37.3000   25.4300   41.3940 C   0  0  0  0  0  0  0  0  0  0  0  0
   36.9860   26.7090   41.7560 C   0  0  0  0  0  0  0  0  0  0  0  0
   36.6730   28.7130   41.0660 H   0  0  0  0  0  0  0  0  0  0  0  0
   37.6770   25.8950   38.0370 H   0  0  0  0  0  0  0  0  0  0  0  0
   38.0520   23.3520   39.0760 H   0  0  0  0  0  0  0  0  0  0  0  0
   37.9650   22.2200   41.3490 H   0  0  0  0  0  0  0  0  0  0  0  0
   37.3220   24.0980   43.1770 H   0  0  0  0  0  0  0  0  0  0  0  0
   36.7930   26.9430   42.7960 H   0  0  0  0  0  0  0  0  0  0  0  0
   37.6810   32.4580   39.6640 C   0  0  1  0  0  3  0  0  0  0  0  0
   37.8660   32.1240   38.2280 C   0  0  1  0  0  3  0  0  0  0  0  0
   39.1260   32.3780   37.7040 O   0  0  0  0  0  0  0  0  0  0  0  0
   40.1530   31.9420   38.5230 C   0  0  0  0  0  2  0  0  0  0  0  0
   40.1670   32.8890   39.7270 C   0  0  2  0  0  3  0  0  0  0  0  0
   38.9030   32.5700   40.4890 C   0  0  1  0  0  3  0  0  0  0  0  0
   36.9120   33.6250   39.8630 O   0  0  0  0  0  0  0  0  0  0  0  0
   37.2240   34.3760   39.2950 H   0  0  0  0  0  0  0  0  0  0  0  0
   40.1700   34.1690   39.1800 O   0  0  0  0  0  0  0  0  0  0  0  0
   40.9370   34.2030   38.5680 H   0  0  0  0  0  0  0  0  0  0  0  0
   38.7380   33.5380   41.4860 O   0  0  0  0  0  0  0  0  0  0  0  0
   38.3820   34.3870   41.1270 H   0  0  0  0  0  0  0  0  0  0  0  0
   35.9560   28.9470   35.0230 C   0  0  0  0  0  0  0  0  0  0  0  0
   34.7630   28.7140   34.7150 O   0  0  0  0  0  0  0  0  0  0  0  0
   37.0630   29.0310   34.1280 N   0  0  0  0  0  0  0  0  0  0  0  0
   37.5180   28.1540   33.8040 H   0  0  0  0  0  0  0  0  0  0  0  0
   37.3680   29.9830   33.8350 H   0  0  0  0  0  0  0  0  0  0  0  0
  1  2  2  0  0  0  0
  1  6  1  0  0  0  0
  2  3  1  0  0  0  0
  3  4  2  0  0  0  0
  5  4  1  0  0  0  0
  5  9  1  0  0  0  0
  6  5  2  0  0  0  0
  7  2  1  0  0  0  0
  8 17  1  0  0  0  0
  8 16  1  0  0  0  0
  9  8  2  0  0  0  0
 10  9  1  0  0  0  0
 10 11  2  0  0  0  0
 11 15  1  0  0  0  0
 12 11  1  0  0  0  0
 12 13  1  0  0  0  0
 13 20  1  0  0  0  0
 13 14  2  0  0  0  0
 14 21  1  0  0  0  0
 15 16  2  0  0  0  0
 15 14  1  0  0  0  0
 16 22  1  0  0  0  0
 18 10  1  0  0  0  0
 19 12  1  0  0  0  0
 23 29  1  6  0  0  0
 23 28  1  0  0  0  0
 24  3  1  1  0  0  0
 24 23  1  0  0  0  0
 25 24  1  0  0  0  0
 25 26  1  0  0  0  0
 26 27  1  0  0  0  0
 27 31  1  6  0  0  0
 27 28  1  0  0  0  0
 28 33  1  1  0  0  0
 30 29  1  0  0  0  0
 32 31  1  0  0  0  0
 34 33  1  0  0  0  0
 35  1  1  0  0  0  0
 36 35  2  0  0  0  0
 37 35  1  0  0  0  0
 38 37  1  0  0  0  0
 39 37  1  0  0  0  0
M  END
>  <minimizedAffinity>
-6.87912941

$$$$

 OpenBabel03252504033D

 39 42  0  0  1  0  0  0  0  0999 V2000
   37.4240   31.9050   40.0270 C   0  0  0  0  0  0  0  0  0  0  0  0
   37.7230   31.1760   41.1660 C   0  0  0  0  0  0  0  0  0  0  0  0
   37.2900   29.8550   41.2080 C   0  0  0  0  0  0  0  0  0  0  0  0
   36.6150   29.3660   40.1530 N   0  0  0  0  0  0  0  0  0  0  0  0
   36.3380   30.0960   39.0610 C   0  0  0  0  0  0  0  0  0  0  0  0
   36.7500   31.3770   39.0040 N   0  0  0  0  0  0  0  0  0  0  0  0
   38.2580   31.5560   42.0070 H   0  0  0  0  0  0  0  0  0  0  0  0
   36.1560   29.6660   36.6620 C   0  0  0  0  0  0  0  0  0  0  0  0
   35.6020   29.5590   37.9150 C   0  0  0  0  0  0  0  0  0  0  0  0
   34.3660   28.9490   38.0730 C   0  0  0  0  0  0  0  0  0  0  0  0
   33.7250   28.4630   36.9470 C   0  0  0  0  0  0  0  0  0  0  0  0
   32.5370   27.8340   36.7900 N   0  0  0  0  0  0  0  0  0  0  0  0
   32.3440   27.5530   35.4850 C   0  0  0  0  0  0  0  0  0  0  0  0
   33.4340   28.0100   34.7710 C   0  0  0  0  0  0  0  0  0  0  0  0
   34.2860   28.5730   35.6800 C   0  0  0  0  0  0  0  0  0  0  0  0
   35.5040   29.1750   35.5400 C   0  0  0  0  0  0  0  0  0  0  0  0
   37.1210   30.1450   36.5570 H   0  0  0  0  0  0  0  0  0  0  0  0
   33.9240   28.8610   39.0580 H   0  0  0  0  0  0  0  0  0  0  0  0
   31.9090   27.6270   37.6070 H   0  0  0  0  0  0  0  0  0  0  0  0
   31.4290   27.0420   35.1810 H   0  0  0  0  0  0  0  0  0  0  0  0
   33.5160   27.9020   33.7020 H   0  0  0  0  0  0  0  0  0  0  0  0
   35.9500   29.2670   34.5570 H   0  0  0  0  0  0  0  0  0  0  0  0
   36.7710   27.7230   42.4040 C   0  0  1  0  0  3  0  0  0  0  0  0
   37.5600   28.9820   42.3880 C   0  0  1  0  0  3  0  0  0  0  0  0
   38.9240   28.8440   42.5990 O   0  0  0  0  0  0  0  0  0  0  0  0
   39.4870   27.8140   41.8650 C   0  0  0  0  0  2  0  0  0  0  0  0
   38.9830   26.5150   42.5020 C   0  0  2  0  0  3  0  0  0  0  0  0
   37.5110   26.4640   42.1750 C   0  0  1  0  0  3  0  0  0  0  0  0
   36.0030   27.5700   43.5800 O   0  0  0  0  0  0  0  0  0  0  0  0
   36.5390   27.7390   44.3960 H   0  0  0  0  0  0  0  0  0  0  0  0
   39.2390   26.6580   43.8630 O   0  0  0  0  0  0  0  0  0  0  0  0
   40.1960   26.8610   43.9430 H   0  0  0  0  0  0  0  0  0  0  0  0
   36.9370   25.4150   42.9010 O   0  0  0  0  0  0  0  0  0  0  0  0
   36.7820   25.6570   43.8470 H   0  0  0  0  0  0  0  0  0  0  0  0
   37.8950   33.2670   40.0340 C   0  0  0  0  0  0  0  0  0  0  0  0
   38.9030   33.7140   40.6290 O   0  0  0  0  0  0  0  0  0  0  0  0
   36.9840   34.0120   39.2280 N   0  0  0  0  0  0  0  0  0  0  0  0
   36.2310   34.5600   39.6910 H   0  0  0  0  0  0  0  0  0  0  0  0
   37.1200   33.9740   38.1960 H   0  0  0  0  0  0  0  0  0  0  0  0
  1 35  1  0  0  0  0
  1  2  1  0  0  0  0
  2  3  2  0  0  0  0
  2  7  1  0  0  0  0
  4  3  1  0  0  0  0
  5  4  2  0  0  0  0
  6  5  1  0  0  0  0
  6  1  2  0  0  0  0
  8  9  1  0  0  0  0
  9 10  2  0  0  0  0
  9  5  1  0  0  0  0
 10 18  1  0  0  0  0
 11 10  1  0  0  0  0
 12 11  1  0  0  0  0
 12 19  1  0  0  0  0
 13 12  1  0  0  0  0
 14 13  2  0  0  0  0
 14 15  1  0  0  0  0
 15 11  2  0  0  0  0
 16 15  1  0  0  0  0
 16  8  2  0  0  0  0
 17  8  1  0  0  0  0
 20 13  1  0  0  0  0
 21 14  1  0  0  0  0
 22 16  1  0  0  0  0
 23 29  1  1  0  0  0
 24  3  1  6  0  0  0
 24 23  1  0  0  0  0
 24 25  1  0  0  0  0
 26 27  1  0  0  0  0
 26 25  1  0  0  0  0
 27 31  1  1  0  0  0
 28 23  1  0  0  0  0
 28 27  1  0  0  0  0
 28 33  1  1  0  0  0
 29 30  1  0  0  0  0
 31 32  1  0  0  0  0
 33 34  1  0  0  0  0
 35 36  2  0  0  0  0
 37 38  1  0  0  0  0
 37 35  1  0  0  0  0
 39 37  1  0  0  0  0
M  END
>  <minimizedAffinity>
-6.81577158

$$$$

 OpenBabel03252504033D

 39 42  0  0  1  0  0  0  0  0999 V2000
   39.8040   27.7230   42.6720 C   0  0  0  0  0  0  0  0  0  0  0  0
   39.5760   29.0840   42.5580 C   0  0  0  0  0  0  0  0  0  0  0  0
   38.5370   29.4880   41.7250 C   0  0  0  0  0  0  0  0  0  0  0  0
   37.8230   28.5460   41.0860 N   0  0  0  0  0  0  0  0  0  0  0  0
   38.0660   27.2320   41.2150 C   0  0  0  0  0  0  0  0  0  0  0  0
   39.0680   26.8240   42.0180 N   0  0  0  0  0  0  0  0  0  0  0  0
   40.1380   29.8390   43.0610 H   0  0  0  0  0  0  0  0  0  0  0  0
   37.2280   24.9420   41.0450 C   0  0  0  0  0  0  0  0  0  0  0  0
   37.2840   26.2090   40.5160 C   0  0  0  0  0  0  0  0  0  0  0  0
   36.6060   26.4970   39.3410 C   0  0  0  0  0  0  0  0  0  0  0  0
   35.8870   25.4830   38.7330 C   0  0  0  0  0  0  0  0  0  0  0  0
   35.1420   25.4620   37.6040 N   0  0  0  0  0  0  0  0  0  0  0  0
   34.6320   24.2270   37.4220 C   0  0  0  0  0  0  0  0  0  0  0  0
   35.0550   23.4200   38.4590 C   0  0  0  0  0  0  0  0  0  0  0  0
   35.8320   24.2020   39.2690 C   0  0  0  0  0  0  0  0  0  0  0  0
   36.5040   23.9330   40.4270 C   0  0  0  0  0  0  0  0  0  0  0  0
   37.7630   24.7360   41.9630 H   0  0  0  0  0  0  0  0  0  0  0  0
   36.6460   27.4940   38.9190 H   0  0  0  0  0  0  0  0  0  0  0  0
   35.0210   26.3170   37.0050 H   0  0  0  0  0  0  0  0  0  0  0  0
   34.0020   24.0350   36.5530 H   0  0  0  0  0  0  0  0  0  0  0  0
   34.7770   22.3820   38.5390 H   0  0  0  0  0  0  0  0  0  0  0  0
   36.4680   22.9380   40.8530 H   0  0  0  0  0  0  0  0  0  0  0  0
   39.2090   31.6800   40.7300 C   0  0  1  0  0  3  0  0  0  0  0  0
   38.2080   30.9310   41.5320 C   0  0  1  0  0  3  0  0  0  0  0  0
   36.8840   31.0880   41.1470 O   0  0  0  0  0  0  0  0  0  0  0  0
   36.7000   30.9900   39.7780 C   0  0  0  0  0  2  0  0  0  0  0  0
   37.3070   32.2610   39.1770 C   0  0  2  0  0  3  0  0  0  0  0  0
   38.7960   32.1160   39.3790 C   0  0  1  0  0  3  0  0  0  0  0  0
   39.7320   32.8020   41.4100 O   0  0  0  0  0  0  0  0  0  0  0  0
   39.0160   33.3570   41.8110 H   0  0  0  0  0  0  0  0  0  0  0  0
   36.7530   33.3070   39.9090 O   0  0  0  0  0  0  0  0  0  0  0  0
   35.7800   33.1980   39.8500 H   0  0  0  0  0  0  0  0  0  0  0  0
   39.4030   33.3320   39.0460 O   0  0  0  0  0  0  0  0  0  0  0  0
   39.3080   34.0050   39.7640 H   0  0  0  0  0  0  0  0  0  0  0  0
   40.8890   27.3580   43.5470 C   0  0  0  0  0  0  0  0  0  0  0  0
   41.9080   28.0400   43.8120 O   0  0  0  0  0  0  0  0  0  0  0  0
   40.5790   26.0620   44.0550 N   0  0  0  0  0  0  0  0  0  0  0  0
   41.0170   25.2290   43.6130 H   0  0  0  0  0  0  0  0  0  0  0  0
   39.9190   26.0110   44.8580 H   0  0  0  0  0  0  0  0  0  0  0  0
  1 35  1  0  0  0  0
  2  1  1  0  0  0  0
  2  7  1  0  0  0  0
  3  2  2  0  0  0  0
  4  5  2  0  0  0  0
  4  3  1  0  0  0  0
  5  6  1  0  0  0  0
  6  1  2  0  0  0  0
  8 17  1  0  0  0  0
  9  8  1  0  0  0  0
  9  5  1  0  0  0  0
 10  9  2  0  0  0  0
 11 15  2  0  0  0  0
 11 10  1  0  0  0  0
 12 11  1  0  0  0  0
 13 12  1  0  0  0  0
 13 14  2  0  0  0  0
 14 21  1  0  0  0  0
 14 15  1  0  0  0  0
 15 16  1  0  0  0  0
 16 22  1  0  0  0  0
 16  8  2  0  0  0  0
 18 10  1  0  0  0  0
 19 12  1  0  0  0  0
 20 13  1  0  0  0  0
 23 29  1  1  0  0  0
 23 24  1  0  0  0  0
 24  3  1  6  0  0  0
 25 24  1  0  0  0  0
 26 25  1  0  0  0  0
 27 28  1  0  0  0  0
 27 26  1  0  0  0  0
 27 31  1  1  0  0  0
 28 33  1  1  0  0  0
 28 23  1  0  0  0  0
 29 30  1  0  0  0  0
 32 31  1  0  0  0  0
 33 34  1  0  0  0  0
 35 36  2  0  0  0  0
 35 37  1  0  0  0  0
 37 39  1  0  0  0  0
 38 37  1  0  0  0  0
M  END
>  <minimizedAffinity>
-6.7821064

$$$$

 OpenBabel03252504033D

 39 42  0  0  1  0  0  0  0  0999 V2000
   36.9240   28.8350   36.8800 C   0  0  0  0  0  0  0  0  0  0  0  0
   37.1720   30.1900   37.0210 C   0  0  0  0  0  0  0  0  0  0  0  0
   37.7720   30.6060   38.2060 C   0  0  0  0  0  0  0  0  0  0  0  0
   38.0720   29.6820   39.1340 N   0  0  0  0  0  0  0  0  0  0  0  0
   37.8190   28.3730   38.9700 C   0  0  0  0  0  0  0  0  0  0  0  0
   37.2390   27.9530   37.8290 N   0  0  0  0  0  0  0  0  0  0  0  0
   36.9380   30.9310   36.2910 H   0  0  0  0  0  0  0  0  0  0  0  0
   37.5000   26.1580   39.9520 C   0  0  0  0  0  0  0  0  0  0  0  0
   38.1480   27.3690   39.9850 C   0  0  0  0  0  0  0  0  0  0  0  0
   39.0930   27.6200   40.9680 C   0  0  0  0  0  0  0  0  0  0  0  0
   39.3550   26.6270   41.8960 C   0  0  0  0  0  0  0  0  0  0  0  0
   40.2040   26.5810   42.9480 N   0  0  0  0  0  0  0  0  0  0  0  0
   40.1000   25.3830   43.5600 C   0  0  0  0  0  0  0  0  0  0  0  0
   39.1570   24.6290   42.8910 C   0  0  0  0  0  0  0  0  0  0  0  0
   38.6980   25.4020   41.8610 C   0  0  0  0  0  0  0  0  0  0  0  0
   37.7700   25.1690   40.8870 C   0  0  0  0  0  0  0  0  0  0  0  0
   36.7650   25.9800   39.1770 H   0  0  0  0  0  0  0  0  0  0  0  0
   39.6070   28.5730   40.9990 H   0  0  0  0  0  0  0  0  0  0  0  0
   40.8250   27.3920   43.1930 H   0  0  0  0  0  0  0  0  0  0  0  0
   40.7200   25.1770   44.4340 H   0  0  0  0  0  0  0  0  0  0  0  0
   38.8940   23.6270   43.1920 H   0  0  0  0  0  0  0  0  0  0  0  0
   37.2520   24.2190   40.8510 H   0  0  0  0  0  0  0  0  0  0  0  0
   37.8400   32.4790   39.8600 C   0  0  1  0  0  3  0  0  0  0  0  0
   38.0830   32.0440   38.4600 C   0  0  1  0  0  3  0  0  0  0  0  0
   39.3180   32.3840   37.9260 O   0  0  0  0  0  0  0  0  0  0  0  0
   40.3720   32.1310   38.7880 C   0  0  0  0  0  2  0  0  0  0  0  0
   40.2650   33.1740   39.9050 C   0  0  2  0  0  3  0  0  0  0  0  0
   39.0290   32.7910   40.6820 C   0  0  1  0  0  3  0  0  0  0  0  0
   36.9490   33.5700   39.9500 O   0  0  0  0  0  0  0  0  0  0  0  0
   37.1900   34.2980   39.3210 H   0  0  0  0  0  0  0  0  0  0  0  0
   40.1440   34.3950   39.2480 O   0  0  0  0  0  0  0  0  0  0  0  0
   40.9130   34.4580   38.6410 H   0  0  0  0  0  0  0  0  0  0  0  0
   38.7460   33.8170   41.5890 O   0  0  0  0  0  0  0  0  0  0  0  0
   38.3090   34.5900   41.1540 H   0  0  0  0  0  0  0  0  0  0  0  0
   36.3030   28.4570   35.6360 C   0  0  0  0  0  0  0  0  0  0  0  0
   35.1590   27.9680   35.4800 O   0  0  0  0  0  0  0  0  0  0  0  0
   37.2490   28.7460   34.6080 N   0  0  0  0  0  0  0  0  0  0  0  0
   37.8380   27.9760   34.2330 H   0  0  0  0  0  0  0  0  0  0  0  0
   37.3060   29.7310   34.2760 H   0  0  0  0  0  0  0  0  0  0  0  0
  1  2  2  0  0  0  0
  1  6  1  0  0  0  0
  2  3  1  0  0  0  0
  3  4  2  0  0  0  0
  5  4  1  0  0  0  0
  5  9  1  0  0  0  0
  6  5  2  0  0  0  0
  7  2  1  0  0  0  0
  8  9  2  0  0  0  0
  8 16  1  0  0  0  0
  9 10  1  0  0  0  0
 10 18  1  0  0  0  0
 10 11  2  0  0  0  0
 11 12  1  0  0  0  0
 12 19  1  0  0  0  0
 12 13  1  0  0  0  0
 13 20  1  0  0  0  0
 14 21  1  0  0  0  0
 14 13  2  0  0  0  0
 15 11  1  0  0  0  0
 15 14  1  0  0  0  0
 16 15  2  0  0  0  0
 17  8  1  0  0  0  0
 22 16  1  0  0  0  0
 23 29  1  6  0  0  0
 23 28  1  0  0  0  0
 24  3  1  1  0  0  0
 24 23  1  0  0  0  0
 25 24  1  0  0  0  0
 25 26  1  0  0  0  0
 26 27  1  0  0  0  0
 27 31  1  6  0  0  0
 27 28  1  0  0  0  0
 28 33  1  1  0  0  0
 30 29  1  0  0  0  0
 32 31  1  0  0  0  0
 34 33  1  0  0  0  0
 35  1  1  0  0  0  0
 36 35  2  0  0  0  0
 37 35  1  0  0  0  0
 38 37  1  0  0  0  0
 39 37  1  0  0  0  0
M  END
>  <minimizedAffinity>
-6.78165674

$$$$

 OpenBabel03252504033D

 39 42  0  0  1  0  0  0  0  0999 V2000
   37.3880   28.4510   41.9410 C   0  0  0  0  0  0  0  0  0  0  0  0
   38.1800   29.5050   42.3630 C   0  0  0  0  0  0  0  0  0  0  0  0
   38.4270   30.5220   41.4470 C   0  0  0  0  0  0  0  0  0  0  0  0
   37.8880   30.4260   40.2190 N   0  0  0  0  0  0  0  0  0  0  0  0
   37.1220   29.3920   39.8360 C   0  0  0  0  0  0  0  0  0  0  0  0
   36.8740   28.3980   40.7110 N   0  0  0  0  0  0  0  0  0  0  0  0
   38.6120   29.5890   43.3350 H   0  0  0  0  0  0  0  0  0  0  0  0
   35.1730   29.1900   38.3760 C   0  0  0  0  0  0  0  0  0  0  0  0
   36.5380   29.2920   38.4970 C   0  0  0  0  0  0  0  0  0  0  0  0
   37.3330   29.2990   37.3610 C   0  0  0  0  0  0  0  0  0  0  0  0
   36.7150   29.2010   36.1270 C   0  0  0  0  0  0  0  0  0  0  0  0
   37.2160   29.1820   34.8700 N   0  0  0  0  0  0  0  0  0  0  0  0
   36.2050   29.0710   33.9830 C   0  0  0  0  0  0  0  0  0  0  0  0
   35.0140   29.0160   34.6790 C   0  0  0  0  0  0  0  0  0  0  0  0
   35.3340   29.0980   36.0060 C   0  0  0  0  0  0  0  0  0  0  0  0
   34.5640   29.0920   37.1340 C   0  0  0  0  0  0  0  0  0  0  0  0
   34.5680   29.1860   39.2740 H   0  0  0  0  0  0  0  0  0  0  0  0
   38.4100   29.3800   37.4500 H   0  0  0  0  0  0  0  0  0  0  0  0
   38.2480   29.2480   34.6850 H   0  0  0  0  0  0  0  0  0  0  0  0
   36.4340   29.0410   32.9170 H   0  0  0  0  0  0  0  0  0  0  0  0
   34.0580   28.9270   34.1890 H   0  0  0  0  0  0  0  0  0  0  0  0
   33.4870   29.0110   37.0510 H   0  0  0  0  0  0  0  0  0  0  0  0
   40.7300   31.4570   41.7050 C   0  0  1  0  0  3  0  0  0  0  0  0
   39.2680   31.7030   41.8000 C   0  0  1  0  0  3  0  0  0  0  0  0
   38.8050   32.8480   41.1670 O   0  0  0  0  0  0  0  0  0  0  0  0
   39.3240   33.0130   39.8940 C   0  0  0  0  0  2  0  0  0  0  0  0
   40.7970   33.3890   40.0830 C   0  0  2  0  0  3  0  0  0  0  0  0
   41.4550   32.1370   40.6100 C   0  0  1  0  0  3  0  0  0  0  0  0
   41.4140   31.7220   42.9120 O   0  0  0  0  0  0  0  0  0  0  0  0
   41.1610   32.6010   43.2940 H   0  0  0  0  0  0  0  0  0  0  0  0
   40.7880   34.4340   41.0040 O   0  0  0  0  0  0  0  0  0  0  0  0
   40.1890   35.1180   40.6360 H   0  0  0  0  0  0  0  0  0  0  0  0
   42.7570   32.4610   41.0070 O   0  0  0  0  0  0  0  0  0  0  0  0
   42.7770   32.9160   41.8850 H   0  0  0  0  0  0  0  0  0  0  0  0
   37.1630   27.4240   42.9270 C   0  0  0  0  0  0  0  0  0  0  0  0
   37.4280   26.2040   42.8210 O   0  0  0  0  0  0  0  0  0  0  0  0
   36.5740   28.0700   44.0550 N   0  0  0  0  0  0  0  0  0  0  0  0
   35.5420   28.0310   44.1770 H   0  0  0  0  0  0  0  0  0  0  0  0
   37.2170   28.5580   44.7140 H   0  0  0  0  0  0  0  0  0  0  0  0
  1  2  1  0  0  0  0
  1 35  1  0  0  0  0
  2  7  1  0  0  0  0
  3  2  2  0  0  0  0
  4  3  1  0  0  0  0
  5  4  2  0  0  0  0
  5  6  1  0  0  0  0
  6  1  2  0  0  0  0
  8  9  1  0  0  0  0
  8 17  1  0  0  0  0
  9  5  1  0  0  0  0
 10 18  1  0  0  0  0
 10  9  2  0  0  0  0
 11 10  1  0  0  0  0
 12 11  1  0  0  0  0
 13 14  2  0  0  0  0
 13 12  1  0  0  0  0
 14 15  1  0  0  0  0
 15 11  2  0  0  0  0
 15 16  1  0  0  0  0
 16  8  2  0  0  0  0
 19 12  1  0  0  0  0
 20 13  1  0  0  0  0
 21 14  1  0  0  0  0
 22 16  1  0  0  0  0
 23 24  1  0  0  0  0
 23 29  1  1  0  0  0
 24  3  1  6  0  0  0
 25 24  1  0  0  0  0
 26 27  1  0  0  0  0
 26 25  1  0  0  0  0
 27 28  1  0  0  0  0
 27 31  1  1  0  0  0
 28 33  1  1  0  0  0
 28 23  1  0  0  0  0
 29 30  1  0  0  0  0
 32 31  1  0  0  0  0
 33 34  1  0  0  0  0
 35 37  1  0  0  0  0
 36 35  2  0  0  0  0
 37 38  1  0  0  0  0
 37 39  1  0  0  0  0
M  END
>  <minimizedAffinity>
-6.76355314

$$$$
