
     RDKit          3D

 30 31  0  0  0  0  0  0  0  0999 V2000
   45.4392   35.0671   43.9943 C   0  0  0  0  0  0  0  0  0  0  0  0
   46.4958   34.3015   43.5022 C   0  0  0  0  0  0  0  0  0  0  0  0
   47.0207   33.2873   44.3325 C   0  0  0  0  0  0  0  0  0  0  0  0
   46.4558   33.1226   45.5690 N   0  0  0  0  0  0  0  0  0  0  0  0
   45.4313   33.8937   45.9974 C   0  0  0  0  0  0  0  0  0  0  0  0
   44.9235   34.8617   45.2163 N   0  0  0  0  0  0  0  0  0  0  0  0
   44.8988   36.1390   43.0923 C   0  0  0  0  0  0  0  0  0  0  0  0
   46.9345   34.4460   42.5139 H   0  0  0  0  0  0  0  0  0  0  0  0
   45.0252   33.7109   46.9953 H   0  0  0  0  0  0  0  0  0  0  0  0
   43.9148   35.7497   42.7139 H   0  0  0  0  0  0  0  0  0  0  0  0
   45.6013   36.3825   42.2993 H   0  0  0  0  0  0  0  0  0  0  0  0
   44.6205   37.0265   43.7146 H   0  0  0  0  0  0  0  0  0  0  0  0
   48.3422   31.5574   46.0758 O   0  0  0  0  0  0  0  0  0  0  0  0
   48.1421   31.1962   44.7574 C   0  0  1  0  0  0  0  0  0  0  0  0
   48.1455   32.4257   43.8878 C   0  0  1  0  0  0  0  0  0  0  0  0
   47.8922   32.0235   42.5952 O   0  0  0  0  0  0  0  0  0  0  0  0
   48.8366   31.2065   42.0371 C   0  0  0  0  0  0  0  0  0  0  0  0
   49.2564   30.0274   42.8339 C   0  0  1  0  0  0  0  0  0  0  0  0
   50.5937   29.7696   42.5274 O   0  0  0  0  0  0  0  0  0  0  0  0
   49.1761   30.1943   44.3194 C   0  0  2  0  0  0  0  0  0  0  0  0
   48.8438   28.9710   44.9009 O   0  0  0  0  0  0  0  0  0  0  0  0
   48.6798   30.8139   46.6171 H   0  0  0  0  0  0  0  0  0  0  0  0
   47.1442   30.7192   44.6630 H   0  0  0  0  0  0  0  0  0  0  0  0
   49.0905   33.0007   44.0075 H   0  0  0  0  0  0  0  0  0  0  0  0
   48.3801   30.8015   41.0867 H   0  0  0  0  0  0  0  0  0  0  0  0
   49.6974   31.8312   41.6708 H   0  0  0  0  0  0  0  0  0  0  0  0
   48.6967   29.0957   42.5320 H   0  0  0  0  0  0  0  0  0  0  0  0
   50.9828   29.1285   43.1775 H   0  0  0  0  0  0  0  0  0  0  0  0
   50.1425   30.4990   44.7751 H   0  0  0  0  0  0  0  0  0  0  0  0
   48.2909   29.0349   45.6966 H   0  0  0  0  0  0  0  0  0  0  0  0
  1  6  2  0
  2  1  1  0
  2  3  2  0
  3  4  1  0
  4  5  2  0
  6  5  1  0
  7  1  1  0
  2  8  1  0
  5  9  1  0
  7 10  1  0
  7 11  1  0
  7 12  1  0
 13 14  1  0
 14 15  1  0
 15 16  1  0
 16 17  1  0
 17 18  1  0
 18 19  1  0
 18 20  1  0
 20 21  1  0
 20 14  1  0
 13 22  1  0
 14 23  1  1
 15 24  1  6
 17 25  1  0
 17 26  1  0
 18 27  1  6
 19 28  1  0
 20 29  1  1
 21 30  1  0
  3 15  1  0
M  ISO  5   8  14   9  14  10   8  11   8  12   8
M  END
>  <DihAtoms>  (1) 
1,2,14,13

>  <DihDeg>  (1) 
-160.9074581986511

$$$$
