
 OpenBabel03252508193D

 50 54  0  0  1  0  0  0  0  0999 V2000
   36.6200   28.1080   42.3230 C   0  0  1  0  0  0  0  0  0  0  0  0
   37.1520   27.7930   43.6800 C   0  0  0  0  0  0  0  0  0  0  0  0
   37.8040   28.8100   42.8570 C   0  0  1  0  0  0  0  0  0  0  0  0
   35.5670   28.5030   42.4280 H   0  0  0  0  0  0  0  0  0  0  0  0
   37.6980   26.8310   43.8190 H   0  0  0  0  0  0  0  0  0  0  0  0
   36.6490   28.1070   44.6080 H   0  0  0  0  0  0  0  0  0  0  0  0
   37.6230   29.8660   43.1460 H   0  0  0  0  0  0  0  0  0  0  0  0
   39.1210   28.5590   42.1970 C   0  0  2  0  0  0  0  0  0  0  0  0
   40.2340   29.5310   42.6650 C   0  0  0  0  0  0  0  0  0  0  0  0
   39.7100   29.6150   41.2950 C   0  0  2  0  0  0  0  0  0  0  0  0
   39.5160   27.5350   42.1570 H   0  0  0  0  0  0  0  0  0  0  0  0
   39.9460   30.3650   43.3330 H   0  0  0  0  0  0  0  0  0  0  0  0
   41.2450   29.1760   42.8200 H   0  0  0  0  0  0  0  0  0  0  0  0
   40.3710   29.1710   40.4930 H   0  0  0  0  0  0  0  0  0  0  0  0
   39.3950   31.0510   39.3810 C   0  0  2  0  0  3  0  0  0  0  0  0
   38.9330   30.7820   40.8220 C   0  0  2  0  0  3  0  0  0  0  0  0
   39.1910   31.9770   41.4890 O   0  0  0  0  0  0  0  0  0  0  0  0
   38.9680   33.1100   40.7540 C   0  0  0  0  0  2  0  0  0  0  0  0
   37.9030   32.9360   39.6930 C   0  0  1  0  0  3  0  0  0  0  0  0
   38.3070   31.8530   38.7120 C   0  0  1  0  0  3  0  0  0  0  0  0
   39.5890   29.8570   38.6880 O   0  0  0  0  0  0  0  0  0  0  0  0
   40.5500   29.6380   38.5580 H   0  0  0  0  0  0  0  0  0  0  0  0
   36.6510   32.7120   40.2440 O   0  0  0  0  0  0  0  0  0  0  0  0
   35.9490   33.1400   39.6910 H   0  0  0  0  0  0  0  0  0  0  0  0
   38.7540   32.3640   37.4970 O   0  0  0  0  0  0  0  0  0  0  0  0
   38.6890   31.5950   36.8520 H   0  0  0  0  0  0  0  0  0  0  0  0
   36.7740   27.0300   41.3120 C   0  0  0  0  0  0  0  0  0  0  0  0
   37.7480   26.5970   41.1580 H   0  0  0  0  0  0  0  0  0  0  0  0
   36.0550   26.1960   41.5520 H   0  0  0  0  0  0  0  0  0  0  0  0
   37.2160   27.4170   39.0270 C   0  0  0  0  0  3  0  0  0  0  0  0
   36.3480   27.5170   39.9440 C   0  0  0  0  0  3  0  0  0  0  0  0
   37.4090   28.4930   35.5060 C   0  0  0  0  0  0  0  0  0  0  0  0
   36.1050   28.8900   35.2300 C   0  0  0  0  0  0  0  0  0  0  0  0
   35.2120   28.7800   36.2480 C   0  0  0  0  0  0  0  0  0  0  0  0
   35.6030   28.3000   37.4640 N   0  0  0  0  0  0  0  0  0  0  0  0
   36.8810   27.9240   37.6940 C   0  0  0  0  0  0  0  0  0  0  0  0
   37.7500   28.0310   36.7050 N   0  0  0  0  0  0  0  0  0  0  0  0
   38.1650   28.5560   34.7390 H   0  0  0  0  0  0  0  0  0  0  0  0
   35.8050   29.2650   34.2710 H   0  0  0  0  0  0  0  0  0  0  0  0
   33.8130   29.1590   36.1070 C   0  0  0  0  0  0  0  0  0  0  0  0
   33.2190   29.5350   34.9400 C   0  0  0  0  0  0  0  0  0  0  0  0
   31.8890   29.8910   34.8260 C   0  0  0  0  0  0  0  0  0  0  0  0
   31.0820   29.8780   35.9410 C   0  0  0  0  0  0  0  0  0  0  0  0
   31.6210   29.5090   37.1450 C   0  0  0  0  0  0  0  0  0  0  0  0
   32.9570   29.1620   37.2020 C   0  0  0  0  0  0  0  0  0  0  0  0
   33.8260   29.5590   34.0320 H   0  0  0  0  0  0  0  0  0  0  0  0
   31.4810   30.1800   33.8690 H   0  0  0  0  0  0  0  0  0  0  0  0
   30.0440   30.1520   35.8820 H   0  0  0  0  0  0  0  0  0  0  0  0
   31.0170   29.4870   38.0450 H   0  0  0  0  0  0  0  0  0  0  0  0
   33.3440   28.8750   38.1800 H   0  0  0  0  0  0  0  0  0  0  0  0
  1  4  1  6  0  0  0
  1  3  1  0  0  0  0
  1  2  1  0  0  0  0
  2  5  1  0  0  0  0
  2  6  1  0  0  0  0
  3  7  1  1  0  0  0
  3  2  1  0  0  0  0
  8 11  1  6  0  0  0
  8  9  1  0  0  0  0
  8  3  1  0  0  0  0
  9 13  1  0  0  0  0
  9 12  1  0  0  0  0
 10 14  1  6  0  0  0
 10  8  1  0  0  0  0
 10  9  1  0  0  0  0
 15 21  1  6  0  0  0
 15 16  1  0  0  0  0
 16 10  1  0  0  0  0
 16 17  1  1  0  0  0
 18 17  1  0  0  0  0
 19 23  1  1  0  0  0
 19 18  1  0  0  0  0
 20 25  1  6  0  0  0
 20 15  1  0  0  0  0
 20 19  1  0  0  0  0
 22 21  1  0  0  0  0
 24 23  1  0  0  0  0
 26 25  1  0  0  0  0
 27 29  1  0  0  0  0
 27  1  1  0  0  0  0
 28 27  1  0  0  0  0
 30 31  2  0  0  0  0
 31 27  1  0  0  0  0
 32 37  1  0  0  0  0
 33 32  2  0  0  0  0
 33 34  1  0  0  0  0
 34 35  2  0  0  0  0
 35 36  1  0  0  0  0
 36 30  1  0  0  0  0
 37 36  2  0  0  0  0
 38 32  1  0  0  0  0
 39 33  1  0  0  0  0
 40 34  1  0  0  0  0
 40 45  1  0  0  0  0
 41 40  2  0  0  0  0
 42 41  1  0  0  0  0
 42 43  2  0  0  0  0
 43 44  1  0  0  0  0
 44 45  2  0  0  0  0
 44 49  1  0  0  0  0
 45 50  1  0  0  0  0
 46 41  1  0  0  0  0
 47 42  1  0  0  0  0
 48 43  1  0  0  0  0
M  END
>  <minimizedAffinity>
-6.56013298

$$$$

 OpenBabel03252508193D

 50 54  0  0  1  0  0  0  0  0999 V2000
   36.7380   29.3820   40.2510 C   0  0  1  0  0  0  0  0  0  0  0  0
   37.1720   30.4400   41.2080 C   0  0  0  0  0  0  0  0  0  0  0  0
   37.4940   29.0390   41.4720 C   0  0  1  0  0  0  0  0  0  0  0  0
   37.2310   29.5720   39.2520 H   0  0  0  0  0  0  0  0  0  0  0  0
   36.3960   30.9100   41.8570 H   0  0  0  0  0  0  0  0  0  0  0  0
   37.9950   31.1400   40.9940 H   0  0  0  0  0  0  0  0  0  0  0  0
   38.5460   28.7340   41.2940 H   0  0  0  0  0  0  0  0  0  0  0  0
   36.7880   28.2580   42.5330 C   0  0  2  0  0  0  0  0  0  0  0  0
   37.7270   27.7870   43.6730 C   0  0  0  0  0  0  0  0  0  0  0  0
   37.1430   26.8080   42.7460 C   0  0  2  0  0  0  0  0  0  0  0  0
   35.8560   28.6530   42.9610 H   0  0  0  0  0  0  0  0  0  0  0  0
   38.8130   27.9620   43.5530 H   0  0  0  0  0  0  0  0  0  0  0  0
   37.3930   27.8010   44.7020 H   0  0  0  0  0  0  0  0  0  0  0  0
   36.2740   26.2100   43.1530 H   0  0  0  0  0  0  0  0  0  0  0  0
   37.7000   24.5570   42.0740 C   0  0  2  0  0  3  0  0  0  0  0  0
   37.9720   26.0430   41.7870 C   0  0  2  0  0  3  0  0  0  0  0  0
   39.3480   26.1740   41.9560 O   0  0  0  0  0  0  0  0  0  0  0  0
   40.0880   25.1060   41.5250 C   0  0  0  0  0  2  0  0  0  0  0  0
   39.4340   24.3410   40.3950 C   0  0  1  0  0  3  0  0  0  0  0  0
   38.0930   23.7900   40.8370 C   0  0  1  0  0  3  0  0  0  0  0  0
   36.3500   24.3420   42.3500 O   0  0  0  0  0  0  0  0  0  0  0  0
   36.1750   24.1740   43.3140 H   0  0  0  0  0  0  0  0  0  0  0  0
   39.3420   25.0990   39.2380 O   0  0  0  0  0  0  0  0  0  0  0  0
   39.4660   24.5270   38.4390 H   0  0  0  0  0  0  0  0  0  0  0  0
   38.1290   22.4250   41.1000 O   0  0  0  0  0  0  0  0  0  0  0  0
   37.1680   22.1290   41.0710 H   0  0  0  0  0  0  0  0  0  0  0  0
   35.2720   29.1490   40.1790 C   0  0  0  0  0  0  0  0  0  0  0  0
   34.8420   28.3570   40.7700 H   0  0  0  0  0  0  0  0  0  0  0  0
   34.7350   30.1060   40.4360 H   0  0  0  0  0  0  0  0  0  0  0  0
   33.6080   28.9220   38.5230 C   0  0  0  0  0  3  0  0  0  0  0  0
   34.8500   28.8440   38.7590 C   0  0  0  0  0  3  0  0  0  0  0  0
   32.9000   27.1450   35.3720 C   0  0  0  0  0  0  0  0  0  0  0  0
   32.1680   28.0790   34.6450 C   0  0  0  0  0  0  0  0  0  0  0  0
   31.9450   29.2750   35.2510 C   0  0  0  0  0  0  0  0  0  0  0  0
   32.4250   29.5160   36.5050 N   0  0  0  0  0  0  0  0  0  0  0  0
   33.1330   28.5830   37.1800 C   0  0  0  0  0  0  0  0  0  0  0  0
   33.3500   27.4200   36.5910 N   0  0  0  0  0  0  0  0  0  0  0  0
   33.1110   26.1770   34.9450 H   0  0  0  0  0  0  0  0  0  0  0  0
   31.7930   27.8810   33.6610 H   0  0  0  0  0  0  0  0  0  0  0  0
   31.1970   30.3480   34.6130 C   0  0  0  0  0  0  0  0  0  0  0  0
   30.6600   30.2900   33.3610 C   0  0  0  0  0  0  0  0  0  0  0  0
   29.9520   31.3190   32.7720 C   0  0  0  0  0  0  0  0  0  0  0  0
   29.7580   32.4950   33.4620 C   0  0  0  0  0  0  0  0  0  0  0  0
   30.2730   32.6150   34.7250 C   0  0  0  0  0  0  0  0  0  0  0  0
   30.9720   31.5540   35.2670 C   0  0  0  0  0  0  0  0  0  0  0  0
   30.7920   29.3740   32.7810 H   0  0  0  0  0  0  0  0  0  0  0  0
   29.5530   31.2070   31.7750 H   0  0  0  0  0  0  0  0  0  0  0  0
   29.2120   33.3130   33.0280 H   0  0  0  0  0  0  0  0  0  0  0  0
   30.1410   33.5250   35.2990 H   0  0  0  0  0  0  0  0  0  0  0  0
   31.3650   31.6920   36.2740 H   0  0  0  0  0  0  0  0  0  0  0  0
  1  4  1  6  0  0  0
  1  2  1  0  0  0  0
  1  3  1  0  0  0  0
  2  3  1  0  0  0  0
  2  5  1  0  0  0  0
  3  7  1  6  0  0  0
  3  8  1  0  0  0  0
  6  2  1  0  0  0  0
  8 10  1  0  0  0  0
  8 11  1  1  0  0  0
  8  9  1  0  0  0  0
  9 13  1  0  0  0  0
 10 14  1  1  0  0  0
 10  9  1  0  0  0  0
 12  9  1  0  0  0  0
 15 21  1  6  0  0  0
 16 17  1  1  0  0  0
 16 15  1  0  0  0  0
 16 10  1  0  0  0  0
 18 17  1  0  0  0  0
 19 23  1  6  0  0  0
 19 20  1  0  0  0  0
 19 18  1  0  0  0  0
 20 25  1  1  0  0  0
 20 15  1  0  0  0  0
 21 22  1  0  0  0  0
 24 23  1  0  0  0  0
 26 25  1  0  0  0  0
 27  1  1  0  0  0  0
 27 29  1  0  0  0  0
 27 28  1  0  0  0  0
 30 31  2  0  0  0  0
 31 27  1  0  0  0  0
 32 37  1  0  0  0  0
 33 34  1  0  0  0  0
 33 32  2  0  0  0  0
 34 35  2  0  0  0  0
 35 36  1  0  0  0  0
 36 30  1  0  0  0  0
 37 36  2  0  0  0  0
 38 32  1  0  0  0  0
 39 33  1  0  0  0  0
 40 34  1  0  0  0  0
 40 45  1  0  0  0  0
 41 40  2  0  0  0  0
 42 41  1  0  0  0  0
 42 43  2  0  0  0  0
 43 44  1  0  0  0  0
 44 45  2  0  0  0  0
 44 49  1  0  0  0  0
 45 50  1  0  0  0  0
 46 41  1  0  0  0  0
 47 42  1  0  0  0  0
 48 43  1  0  0  0  0
M  END
>  <minimizedAffinity>
-6.51163006

$$$$

 OpenBabel03252508193D

 50 54  0  0  1  0  0  0  0  0999 V2000
   36.6610   26.0120   37.9420 C   0  0  1  0  0  0  0  0  0  0  0  0
   35.7490   26.0520   36.7630 C   0  0  0  0  0  0  0  0  0  0  0  0
   35.9890   27.2650   37.5420 C   0  0  1  0  0  0  0  0  0  0  0  0
   37.6960   25.7250   37.5910 H   0  0  0  0  0  0  0  0  0  0  0  0
   34.7430   25.5800   36.8610 H   0  0  0  0  0  0  0  0  0  0  0  0
   36.1120   26.0100   35.7240 H   0  0  0  0  0  0  0  0  0  0  0  0
   36.6590   28.0200   37.0810 H   0  0  0  0  0  0  0  0  0  0  0  0
   34.9530   27.8250   38.4610 C   0  0  2  0  0  0  0  0  0  0  0  0
   34.2580   29.0910   37.8990 C   0  0  0  0  0  0  0  0  0  0  0  0
   35.1550   29.1960   39.0580 C   0  0  2  0  0  0  0  0  0  0  0  0
   34.2020   27.1530   38.8980 H   0  0  0  0  0  0  0  0  0  0  0  0
   34.6490   29.5210   36.9580 H   0  0  0  0  0  0  0  0  0  0  0  0
   33.1960   29.2450   38.0410 H   0  0  0  0  0  0  0  0  0  0  0  0
   34.6450   29.3050   40.0600 H   0  0  0  0  0  0  0  0  0  0  0  0
   36.3120   31.1380   39.9030 C   0  0  2  0  0  3  0  0  0  0  0  0
   36.4490   29.9120   38.9860 C   0  0  2  0  0  3  0  0  0  0  0  0
   36.7600   30.4530   37.7410 O   0  0  0  0  0  0  0  0  0  0  0  0
   37.5810   31.5480   37.7760 C   0  0  0  0  0  2  0  0  0  0  0  0
   38.5080   31.5640   38.9710 C   0  0  1  0  0  3  0  0  0  0  0  0
   37.7090   31.5800   40.2590 C   0  0  1  0  0  3  0  0  0  0  0  0
   35.6130   30.8150   41.0660 O   0  0  0  0  0  0  0  0  0  0  0  0
   34.6860   31.1760   41.0720 H   0  0  0  0  0  0  0  0  0  0  0  0
   39.4290   30.5290   38.9300 O   0  0  0  0  0  0  0  0  0  0  0  0
   40.2970   30.8230   39.3060 H   0  0  0  0  0  0  0  0  0  0  0  0
   37.6860   32.8320   40.8650 O   0  0  0  0  0  0  0  0  0  0  0  0
   37.4180   32.6540   41.8190 H   0  0  0  0  0  0  0  0  0  0  0  0
   36.1670   25.2280   39.1040 C   0  0  0  0  0  0  0  0  0  0  0  0
   35.1360   25.3310   39.4000 H   0  0  0  0  0  0  0  0  0  0  0  0
   36.3700   24.1340   38.9220 H   0  0  0  0  0  0  0  0  0  0  0  0
   38.2030   25.3250   40.2910 C   0  0  0  0  0  3  0  0  0  0  0  0
   36.9610   25.5610   40.3480 C   0  0  0  0  0  3  0  0  0  0  0  0
   40.0110   24.9240   43.4790 C   0  0  0  0  0  0  0  0  0  0  0  0
   40.5700   26.1830   43.6800 C   0  0  0  0  0  0  0  0  0  0  0  0
   40.3100   27.1180   42.7280 C   0  0  0  0  0  0  0  0  0  0  0  0
   39.5410   26.8080   41.6450 N   0  0  0  0  0  0  0  0  0  0  0  0
   39.0150   25.5740   41.4840 C   0  0  0  0  0  0  0  0  0  0  0  0
   39.2660   24.6640   42.4090 N   0  0  0  0  0  0  0  0  0  0  0  0
   40.1800   24.1390   44.1990 H   0  0  0  0  0  0  0  0  0  0  0  0
   41.1740   26.4170   44.5330 H   0  0  0  0  0  0  0  0  0  0  0  0
   40.8260   28.4770   42.8060 C   0  0  0  0  0  0  0  0  0  0  0  0
   42.1080   28.8100   43.1280 C   0  0  0  0  0  0  0  0  0  0  0  0
   42.5780   30.1070   43.1960 C   0  0  0  0  0  0  0  0  0  0  0  0
   41.7280   31.1550   42.9280 C   0  0  0  0  0  0  0  0  0  0  0  0
   40.4260   30.8860   42.5980 C   0  0  0  0  0  0  0  0  0  0  0  0
   40.0080   29.5700   42.5440 C   0  0  0  0  0  0  0  0  0  0  0  0
   42.8140   28.0060   43.3480 H   0  0  0  0  0  0  0  0  0  0  0  0
   43.6080   30.3010   43.4580 H   0  0  0  0  0  0  0  0  0  0  0  0
   42.0660   32.1750   42.9740 H   0  0  0  0  0  0  0  0  0  0  0  0
   39.7270   31.6850   42.3800 H   0  0  0  0  0  0  0  0  0  0  0  0
   38.9650   29.4010   42.2770 H   0  0  0  0  0  0  0  0  0  0  0  0
  1  4  1  6  0  0  0
  1 27  1  0  0  0  0
  2  5  1  0  0  0  0
  2  3  1  0  0  0  0
  2  1  1  0  0  0  0
  3  7  1  6  0  0  0
  3  1  1  0  0  0  0
  3  8  1  0  0  0  0
  6  2  1  0  0  0  0
  8 11  1  1  0  0  0
  8 10  1  0  0  0  0
  9 13  1  0  0  0  0
  9  8  1  0  0  0  0
  9 10  1  0  0  0  0
 10 14  1  1  0  0  0
 12  9  1  0  0  0  0
 15 20  1  0  0  0  0
 15 21  1  1  0  0  0
 16 17  1  6  0  0  0
 16 10  1  0  0  0  0
 16 15  1  0  0  0  0
 17 18  1  0  0  0  0
 18 19  1  0  0  0  0
 19 23  1  1  0  0  0
 19 20  1  0  0  0  0
 20 25  1  6  0  0  0
 21 22  1  0  0  0  0
 23 24  1  0  0  0  0
 25 26  1  0  0  0  0
 27 28  1  0  0  0  0
 27 31  1  0  0  0  0
 29 27  1  0  0  0  0
 30 31  2  0  0  0  0
 30 36  1  0  0  0  0
 32 33  1  0  0  0  0
 32 38  1  0  0  0  0
 33 39  1  0  0  0  0
 34 40  1  0  0  0  0
 34 33  2  0  0  0  0
 35 34  1  0  0  0  0
 36 35  2  0  0  0  0
 36 37  1  0  0  0  0
 37 32  2  0  0  0  0
 40 41  1  0  0  0  0
 41 42  2  0  0  0  0
 41 46  1  0  0  0  0
 42 47  1  0  0  0  0
 43 48  1  0  0  0  0
 43 42  1  0  0  0  0
 44 43  2  0  0  0  0
 45 44  1  0  0  0  0
 45 40  2  0  0  0  0
 49 44  1  0  0  0  0
 50 45  1  0  0  0  0
M  END
>  <minimizedAffinity>
-6.28473043

$$$$

 OpenBabel03252508193D

 50 54  0  0  1  0  0  0  0  0999 V2000
   37.5220   30.3670   37.4990 C   0  0  1  0  0  0  0  0  0  0  0  0
   37.6730   31.5340   36.5840 C   0  0  0  0  0  0  0  0  0  0  0  0
   38.0170   31.6650   37.9990 C   0  0  1  0  0  0  0  0  0  0  0  0
   38.2040   29.5390   37.1460 H   0  0  0  0  0  0  0  0  0  0  0  0
   36.7480   32.0550   36.2400 H   0  0  0  0  0  0  0  0  0  0  0  0
   38.4770   31.6080   35.8360 H   0  0  0  0  0  0  0  0  0  0  0  0
   39.1000   31.6830   38.2420 H   0  0  0  0  0  0  0  0  0  0  0  0
   37.1490   32.4220   38.9510 C   0  0  2  0  0  0  0  0  0  0  0  0
   37.9550   33.2480   39.9860 C   0  0  0  0  0  0  0  0  0  0  0  0
   37.1820   32.0760   40.4190 C   0  0  2  0  0  0  0  0  0  0  0  0
   36.3210   33.0280   38.5580 H   0  0  0  0  0  0  0  0  0  0  0  0
   39.0540   33.1230   40.0060 H   0  0  0  0  0  0  0  0  0  0  0  0
   37.6220   34.2360   40.2810 H   0  0  0  0  0  0  0  0  0  0  0  0
   36.2010   32.3020   40.9330 H   0  0  0  0  0  0  0  0  0  0  0  0
   36.7970   30.1540   41.8270 C   0  0  2  0  0  3  0  0  0  0  0  0
   37.8350   30.8520   40.9330 C   0  0  2  0  0  3  0  0  0  0  0  0
   38.9200   31.0680   41.7790 O   0  0  0  0  0  0  0  0  0  0  0  0
   39.1560   30.0690   42.6840 C   0  0  0  0  0  2  0  0  0  0  0  0
   38.7040   28.7070   42.2040 C   0  0  1  0  0  3  0  0  0  0  0  0
   37.2120   28.7080   41.9390 C   0  0  1  0  0  3  0  0  0  0  0  0
   35.5230   30.2340   41.2670 O   0  0  0  0  0  0  0  0  0  0  0  0
   34.9350   30.8850   41.7350 H   0  0  0  0  0  0  0  0  0  0  0  0
   39.4370   28.2700   41.1120 O   0  0  0  0  0  0  0  0  0  0  0  0
   39.5660   27.2880   41.1530 H   0  0  0  0  0  0  0  0  0  0  0  0
   36.4840   28.0680   42.9360 O   0  0  0  0  0  0  0  0  0  0  0  0
   35.5940   27.8590   42.5160 H   0  0  0  0  0  0  0  0  0  0  0  0
   36.1230   29.9400   37.7630 C   0  0  0  0  0  0  0  0  0  0  0  0
   35.5540   30.4590   38.5160 H   0  0  0  0  0  0  0  0  0  0  0  0
   35.5400   29.9760   36.7980 H   0  0  0  0  0  0  0  0  0  0  0  0
   37.1860   27.9740   38.5160 C   0  0  0  0  0  3  0  0  0  0  0  0
   36.0780   28.4860   38.1790 C   0  0  0  0  0  3  0  0  0  0  0  0
   38.2590   24.6510   39.7000 C   0  0  0  0  0  0  0  0  0  0  0  0
   37.1220   23.8720   39.5130 C   0  0  0  0  0  0  0  0  0  0  0  0
   36.0370   24.5030   38.9920 C   0  0  0  0  0  0  0  0  0  0  0  0
   36.0910   25.8290   38.6790 N   0  0  0  0  0  0  0  0  0  0  0  0
   37.2150   26.5540   38.8750 C   0  0  0  0  0  0  0  0  0  0  0  0
   38.2710   25.9420   39.3820 N   0  0  0  0  0  0  0  0  0  0  0  0
   39.1530   24.2090   40.1110 H   0  0  0  0  0  0  0  0  0  0  0  0
   37.0870   22.8300   39.7630 H   0  0  0  0  0  0  0  0  0  0  0  0
   34.7790   23.8150   38.7390 C   0  0  0  0  0  0  0  0  0  0  0  0
   34.2810   22.7940   39.4920 C   0  0  0  0  0  0  0  0  0  0  0  0
   33.0830   22.1540   39.2360 C   0  0  0  0  0  0  0  0  0  0  0  0
   32.3180   22.5460   38.1610 C   0  0  0  0  0  0  0  0  0  0  0  0
   32.7640   23.5670   37.3660 C   0  0  0  0  0  0  0  0  0  0  0  0
   33.9690   24.1730   37.6670 C   0  0  0  0  0  0  0  0  0  0  0  0
   34.8590   22.4540   40.3540 H   0  0  0  0  0  0  0  0  0  0  0  0
   32.7470   21.3500   39.8740 H   0  0  0  0  0  0  0  0  0  0  0  0
   31.3820   22.0650   37.9380 H   0  0  0  0  0  0  0  0  0  0  0  0
   32.1890   23.9030   36.5100 H   0  0  0  0  0  0  0  0  0  0  0  0
   34.2860   24.9810   37.0080 H   0  0  0  0  0  0  0  0  0  0  0  0
  1  4  1  6  0  0  0
  1 27  1  0  0  0  0
  1  3  1  0  0  0  0
  2  1  1  0  0  0  0
  2  3  1  0  0  0  0
  3  7  1  1  0  0  0
  3  8  1  0  0  0  0
  5  2  1  0  0  0  0
  6  2  1  0  0  0  0
  8 11  1  6  0  0  0
  8  9  1  0  0  0  0
  8 10  1  0  0  0  0
  9 12  1  0  0  0  0
  9 13  1  0  0  0  0
  9 10  1  0  0  0  0
 10 16  1  0  0  0  0
 10 14  1  1  0  0  0
 15 21  1  6  0  0  0
 15 20  1  0  0  0  0
 16 17  1  1  0  0  0
 16 15  1  0  0  0  0
 17 18  1  0  0  0  0
 19 23  1  6  0  0  0
 19 18  1  0  0  0  0
 20 19  1  0  0  0  0
 20 25  1  1  0  0  0
 21 22  1  0  0  0  0
 23 24  1  0  0  0  0
 26 25  1  0  0  0  0
 27 31  1  0  0  0  0
 27 28  1  0  0  0  0
 29 27  1  0  0  0  0
 30 36  1  0  0  0  0
 31 30  2  0  0  0  0
 32 38  1  0  0  0  0
 33 32  1  0  0  0  0
 33 39  1  0  0  0  0
 34 33  2  0  0  0  0
 35 36  2  0  0  0  0
 35 34  1  0  0  0  0
 36 37  1  0  0  0  0
 37 32  2  0  0  0  0
 40 34  1  0  0  0  0
 40 41  1  0  0  0  0
 41 46  1  0  0  0  0
 42 41  2  0  0  0  0
 42 47  1  0  0  0  0
 43 42  1  0  0  0  0
 44 45  1  0  0  0  0
 44 43  2  0  0  0  0
 45 40  2  0  0  0  0
 48 43  1  0  0  0  0
 49 44  1  0  0  0  0
 50 45  1  0  0  0  0
M  END
>  <minimizedAffinity>
-6.13720894

$$$$

 OpenBabel03252508193D

 50 54  0  0  1  0  0  0  0  0999 V2000
   37.8470   31.7490   38.6240 C   0  0  1  0  0  0  0  0  0  0  0  0
   37.3320   32.3690   39.8780 C   0  0  0  0  0  0  0  0  0  0  0  0
   38.7710   32.3090   39.6300 C   0  0  1  0  0  0  0  0  0  0  0  0
   37.4600   32.3400   37.7420 H   0  0  0  0  0  0  0  0  0  0  0  0
   36.9290   31.6950   40.6700 H   0  0  0  0  0  0  0  0  0  0  0  0
   36.8410   33.3540   39.9010 H   0  0  0  0  0  0  0  0  0  0  0  0
   39.2580   33.2600   39.3300 H   0  0  0  0  0  0  0  0  0  0  0  0
   39.6570   31.3590   40.3690 C   0  0  2  0  0  0  0  0  0  0  0  0
   40.5530   32.0550   41.4250 C   0  0  0  0  0  0  0  0  0  0  0  0
   41.1530   31.4710   40.2170 C   0  0  2  0  0  0  0  0  0  0  0  0
   39.2250   30.4430   40.7950 H   0  0  0  0  0  0  0  0  0  0  0  0
   40.5460   33.1600   41.4620 H   0  0  0  0  0  0  0  0  0  0  0  0
   40.7390   31.5870   42.3830 H   0  0  0  0  0  0  0  0  0  0  0  0
   41.6730   30.4780   40.3630 H   0  0  0  0  0  0  0  0  0  0  0  0
   43.0210   31.5270   38.6890 C   0  0  2  0  0  3  0  0  0  0  0  0
   41.7870   32.3060   39.1730 C   0  0  2  0  0  3  0  0  0  0  0  0
   42.3060   33.5200   39.6180 O   0  0  0  0  0  0  0  0  0  0  0  0
   43.3480   34.0100   38.8770 C   0  0  0  0  0  2  0  0  0  0  0  0
   43.3080   33.5770   37.4280 C   0  0  1  0  0  3  0  0  0  0  0  0
   43.3750   32.0660   37.3260 C   0  0  1  0  0  3  0  0  0  0  0  0
   42.7440   30.1640   38.5960 O   0  0  0  0  0  0  0  0  0  0  0  0
   43.1620   29.6340   39.3270 H   0  0  0  0  0  0  0  0  0  0  0  0
   42.2170   34.1060   36.7560 O   0  0  0  0  0  0  0  0  0  0  0  0
   42.4570   34.3150   35.8180 H   0  0  0  0  0  0  0  0  0  0  0  0
   44.6270   31.6060   36.9300 O   0  0  0  0  0  0  0  0  0  0  0  0
   44.4680   30.6680   36.6020 H   0  0  0  0  0  0  0  0  0  0  0  0
   37.6520   30.2800   38.5120 C   0  0  0  0  0  0  0  0  0  0  0  0
   38.3530   29.7050   37.9290 H   0  0  0  0  0  0  0  0  0  0  0  0
   37.6120   29.8350   39.5470 H   0  0  0  0  0  0  0  0  0  0  0  0
   36.0010   28.7370   37.8350 C   0  0  0  0  0  3  0  0  0  0  0  0
   36.3000   29.9660   37.9100 C   0  0  0  0  0  3  0  0  0  0  0  0
   33.3340   26.9030   36.0700 C   0  0  0  0  0  0  0  0  0  0  0  0
   32.2770   27.8070   36.0780 C   0  0  0  0  0  0  0  0  0  0  0  0
   32.5100   29.0040   36.6790 C   0  0  0  0  0  0  0  0  0  0  0  0
   33.7250   29.2730   37.2370 N   0  0  0  0  0  0  0  0  0  0  0  0
   34.7290   28.3690   37.2090 C   0  0  0  0  0  0  0  0  0  0  0  0
   34.5040   27.2050   36.6240 N   0  0  0  0  0  0  0  0  0  0  0  0
   33.2120   25.9360   35.6070 H   0  0  0  0  0  0  0  0  0  0  0  0
   31.3250   27.5870   35.6380 H   0  0  0  0  0  0  0  0  0  0  0  0
   31.4990   30.0480   36.7610 C   0  0  0  0  0  0  0  0  0  0  0  0
   30.7120   30.2900   37.8480 C   0  0  0  0  0  0  0  0  0  0  0  0
   29.7580   31.2870   37.9080 C   0  0  0  0  0  0  0  0  0  0  0  0
   29.5600   32.1070   36.8200 C   0  0  0  0  0  0  0  0  0  0  0  0
   30.3200   31.9140   35.6970 C   0  0  0  0  0  0  0  0  0  0  0  0
   31.2610   30.9020   35.6910 C   0  0  0  0  0  0  0  0  0  0  0  0
   30.8380   29.6610   38.7320 H   0  0  0  0  0  0  0  0  0  0  0  0
   29.1670   31.4250   38.8010 H   0  0  0  0  0  0  0  0  0  0  0  0
   28.8240   32.8910   36.8380 H   0  0  0  0  0  0  0  0  0  0  0  0
   30.1930   32.5400   34.8210 H   0  0  0  0  0  0  0  0  0  0  0  0
   31.8440   30.7840   34.7780 H   0  0  0  0  0  0  0  0  0  0  0  0
  1  4  1  6  0  0  0
  1  3  1  0  0  0  0
  1  2  1  0  0  0  0
  2  6  1  0  0  0  0
  2  5  1  0  0  0  0
  3  7  1  6  0  0  0
  3  2  1  0  0  0  0
  3  8  1  0  0  0  0
  8 11  1  1  0  0  0
  8  9  1  0  0  0  0
  9 12  1  0  0  0  0
  9 13  1  0  0  0  0
 10 14  1  1  0  0  0
 10  8  1  0  0  0  0
 10  9  1  0  0  0  0
 15 21  1  6  0  0  0
 15 16  1  0  0  0  0
 16 17  1  1  0  0  0
 16 10  1  0  0  0  0
 18 17  1  0  0  0  0
 19 23  1  1  0  0  0
 19 18  1  0  0  0  0
 20 25  1  1  0  0  0
 20 19  1  0  0  0  0
 20 15  1  0  0  0  0
 21 22  1  0  0  0  0
 24 23  1  0  0  0  0
 26 25  1  0  0  0  0
 27  1  1  0  0  0  0
 27 29  1  0  0  0  0
 28 27  1  0  0  0  0
 30 31  2  0  0  0  0
 31 27  1  0  0  0  0
 32 33  2  0  0  0  0
 32 37  1  0  0  0  0
 33 34  1  0  0  0  0
 34 40  1  0  0  0  0
 34 35  2  0  0  0  0
 36 35  1  0  0  0  0
 36 30  1  0  0  0  0
 37 36  2  0  0  0  0
 38 32  1  0  0  0  0
 39 33  1  0  0  0  0
 40 41  1  0  0  0  0
 41 42  2  0  0  0  0
 41 46  1  0  0  0  0
 42 47  1  0  0  0  0
 43 48  1  0  0  0  0
 43 42  1  0  0  0  0
 44 43  2  0  0  0  0
 45 44  1  0  0  0  0
 45 40  2  0  0  0  0
 49 44  1  0  0  0  0
 50 45  1  0  0  0  0
M  END
>  <minimizedAffinity>
-6.1286459

$$$$

 OpenBabel03252508193D

 50 54  0  0  1  0  0  0  0  0999 V2000
   37.9090   27.8580   41.9430 C   0  0  1  0  0  0  0  0  0  0  0  0
   36.9530   26.7140   41.9930 C   0  0  0  0  0  0  0  0  0  0  0  0
   36.8060   27.7450   40.9670 C   0  0  1  0  0  0  0  0  0  0  0  0
   38.9470   27.4550   41.7520 H   0  0  0  0  0  0  0  0  0  0  0  0
   36.1920   26.7020   42.8080 H   0  0  0  0  0  0  0  0  0  0  0  0
   37.2240   25.6940   41.6810 H   0  0  0  0  0  0  0  0  0  0  0  0
   37.1250   27.4670   39.9410 H   0  0  0  0  0  0  0  0  0  0  0  0
   35.7140   28.7630   41.0290 C   0  0  2  0  0  0  0  0  0  0  0  0
   34.9230   28.8920   39.7010 C   0  0  0  0  0  0  0  0  0  0  0  0
   35.7920   29.9880   40.1520 C   0  0  2  0  0  0  0  0  0  0  0  0
   35.0150   28.7510   41.8760 H   0  0  0  0  0  0  0  0  0  0  0  0
   35.2910   28.3280   38.8240 H   0  0  0  0  0  0  0  0  0  0  0  0
   33.8500   29.0340   39.7110 H   0  0  0  0  0  0  0  0  0  0  0  0
   35.2610   30.8750   40.6080 H   0  0  0  0  0  0  0  0  0  0  0  0
   37.1180   31.8970   39.5020 C   0  0  2  0  0  3  0  0  0  0  0  0
   37.0220   30.3650   39.4210 C   0  0  2  0  0  3  0  0  0  0  0  0
   37.0060   30.1000   38.0530 O   0  0  0  0  0  0  0  0  0  0  0  0
   37.8040   30.9140   37.2960 C   0  0  0  0  0  2  0  0  0  0  0  0
   39.0040   31.4440   38.0490 C   0  0  1  0  0  3  0  0  0  0  0  0
   38.5580   32.2640   39.2440 C   0  0  1  0  0  3  0  0  0  0  0  0
   36.7380   32.3540   40.7640 O   0  0  0  0  0  0  0  0  0  0  0  0
   35.8410   32.7850   40.7640 H   0  0  0  0  0  0  0  0  0  0  0  0
   39.8890   30.4360   38.3980 O   0  0  0  0  0  0  0  0  0  0  0  0
   40.8220   30.7630   38.3510 H   0  0  0  0  0  0  0  0  0  0  0  0
   38.6840   33.6340   39.0380 O   0  0  0  0  0  0  0  0  0  0  0  0
   38.6660   34.0380   39.9590 H   0  0  0  0  0  0  0  0  0  0  0  0
   37.8190   28.8140   43.0770 C   0  0  0  0  0  0  0  0  0  0  0  0
   36.9130   29.3840   43.2060 H   0  0  0  0  0  0  0  0  0  0  0  0
   38.0250   28.2630   44.0390 H   0  0  0  0  0  0  0  0  0  0  0  0
   39.9240   29.5300   42.2910 C   0  0  0  0  0  3  0  0  0  0  0  0
   38.9170   29.8500   42.9890 C   0  0  0  0  0  3  0  0  0  0  0  0
   42.8110   31.6610   43.1420 C   0  0  0  0  0  0  0  0  0  0  0  0
   43.1320   32.2500   41.9220 C   0  0  0  0  0  0  0  0  0  0  0  0
   42.3570   31.9040   40.8610 C   0  0  0  0  0  0  0  0  0  0  0  0
   41.3270   31.0230   41.0140 N   0  0  0  0  0  0  0  0  0  0  0  0
   41.0450   30.4710   42.2150 C   0  0  0  0  0  0  0  0  0  0  0  0
   41.7980   30.8060   43.2480 N   0  0  0  0  0  0  0  0  0  0  0  0
   43.3880   31.8950   44.0220 H   0  0  0  0  0  0  0  0  0  0  0  0
   43.9440   32.9410   41.8110 H   0  0  0  0  0  0  0  0  0  0  0  0
   42.5730   32.4420   39.5260 C   0  0  0  0  0  0  0  0  0  0  0  0
   42.1560   33.6680   39.1000 C   0  0  0  0  0  0  0  0  0  0  0  0
   42.3720   34.1610   37.8280 C   0  0  0  0  0  0  0  0  0  0  0  0
   43.0460   33.3940   36.9050 C   0  0  0  0  0  0  0  0  0  0  0  0
   43.4910   32.1520   37.2730 C   0  0  0  0  0  0  0  0  0  0  0  0
   43.2490   31.7080   38.5580 C   0  0  0  0  0  0  0  0  0  0  0  0
   41.6170   34.3070   39.8030 H   0  0  0  0  0  0  0  0  0  0  0  0
   42.0140   35.1420   37.5540 H   0  0  0  0  0  0  0  0  0  0  0  0
   43.2280   33.7520   35.9070 H   0  0  0  0  0  0  0  0  0  0  0  0
   44.0260   31.5190   36.5730 H   0  0  0  0  0  0  0  0  0  0  0  0
   43.6200   30.7140   38.8080 H   0  0  0  0  0  0  0  0  0  0  0  0
  1  4  1  6  0  0  0
  1  2  1  0  0  0  0
  1 27  1  0  0  0  0
  2  5  1  0  0  0  0
  3  7  1  6  0  0  0
  3  8  1  0  0  0  0
  3  1  1  0  0  0  0
  3  2  1  0  0  0  0
  6  2  1  0  0  0  0
  8 11  1  1  0  0  0
  9 13  1  0  0  0  0
  9 10  1  0  0  0  0
  9  8  1  0  0  0  0
 10 14  1  1  0  0  0
 10  8  1  0  0  0  0
 12  9  1  0  0  0  0
 15 21  1  1  0  0  0
 16 17  1  6  0  0  0
 16 15  1  0  0  0  0
 16 10  1  0  0  0  0
 18 19  1  0  0  0  0
 18 17  1  0  0  0  0
 19 23  1  1  0  0  0
 19 20  1  0  0  0  0
 20 25  1  6  0  0  0
 20 15  1  0  0  0  0
 21 22  1  0  0  0  0
 24 23  1  0  0  0  0
 25 26  1  0  0  0  0
 27 28  1  0  0  0  0
 27 29  1  0  0  0  0
 30 31  2  0  0  0  0
 31 27  1  0  0  0  0
 32 37  1  0  0  0  0
 32 38  1  0  0  0  0
 33 32  2  0  0  0  0
 34 35  2  0  0  0  0
 34 33  1  0  0  0  0
 35 36  1  0  0  0  0
 36 30  1  0  0  0  0
 36 37  2  0  0  0  0
 39 33  1  0  0  0  0
 40 34  1  0  0  0  0
 41 40  1  0  0  0  0
 41 46  1  0  0  0  0
 42 41  2  0  0  0  0
 43 44  2  0  0  0  0
 43 42  1  0  0  0  0
 44 45  1  0  0  0  0
 45 50  1  0  0  0  0
 45 40  2  0  0  0  0
 47 42  1  0  0  0  0
 48 43  1  0  0  0  0
 49 44  1  0  0  0  0
M  END
>  <minimizedAffinity>
-6.11111116

$$$$

 OpenBabel03252508193D

 50 54  0  0  1  0  0  0  0  0999 V2000
   35.2710   29.2510   38.1250 C   0  0  1  0  0  0  0  0  0  0  0  0
   34.3560   28.1120   37.8270 C   0  0  0  0  0  0  0  0  0  0  0  0
   35.4460   27.9420   38.7860 C   0  0  1  0  0  0  0  0  0  0  0  0
   34.6670   30.0940   38.5720 H   0  0  0  0  0  0  0  0  0  0  0  0
   34.4640   27.5950   36.8440 H   0  0  0  0  0  0  0  0  0  0  0  0
   33.3190   28.0660   38.1940 H   0  0  0  0  0  0  0  0  0  0  0  0
   35.1600   27.9250   39.8580 H   0  0  0  0  0  0  0  0  0  0  0  0
   36.6690   27.1500   38.4520 C   0  0  2  0  0  0  0  0  0  0  0  0
   36.8270   25.8750   39.3190 C   0  0  0  0  0  0  0  0  0  0  0  0
   37.7580   26.9990   39.4850 C   0  0  2  0  0  0  0  0  0  0  0  0
   36.8860   26.9140   37.4020 H   0  0  0  0  0  0  0  0  0  0  0  0
   36.1140   25.7240   40.1520 H   0  0  0  0  0  0  0  0  0  0  0  0
   37.1870   24.9530   38.8800 H   0  0  0  0  0  0  0  0  0  0  0  0
   38.7770   26.8600   39.0150 H   0  0  0  0  0  0  0  0  0  0  0  0
   39.1410   28.5580   40.7030 C   0  0  2  0  0  3  0  0  0  0  0  0
   37.7990   27.8080   40.7230 C   0  0  2  0  0  3  0  0  0  0  0  0
   37.8370   27.0780   41.9090 O   0  0  0  0  0  0  0  0  0  0  0  0
   38.4370   27.7150   42.9610 C   0  0  0  0  0  2  0  0  0  0  0  0
   38.3310   29.2220   42.8890 C   0  0  1  0  0  3  0  0  0  0  0  0
   39.0000   29.7390   41.6300 C   0  0  1  0  0  3  0  0  0  0  0  0
   39.4430   29.0050   39.4170 O   0  0  0  0  0  0  0  0  0  0  0  0
   40.1610   28.4730   38.9820 H   0  0  0  0  0  0  0  0  0  0  0  0
   37.0210   29.6590   43.0110 O   0  0  0  0  0  0  0  0  0  0  0  0
   36.9880   30.5160   43.5070 H   0  0  0  0  0  0  0  0  0  0  0  0
   40.2410   30.3170   41.8760 O   0  0  0  0  0  0  0  0  0  0  0  0
   40.4310   30.8800   41.0640 H   0  0  0  0  0  0  0  0  0  0  0  0
   36.1650   29.6590   37.0100 C   0  0  0  0  0  0  0  0  0  0  0  0
   36.7080   28.8990   36.4730 H   0  0  0  0  0  0  0  0  0  0  0  0
   35.5690   30.2560   36.2610 H   0  0  0  0  0  0  0  0  0  0  0  0
   36.9560   31.2410   38.5700 C   0  0  0  0  0  3  0  0  0  0  0  0
   37.2270   30.6180   37.5010 C   0  0  0  0  0  3  0  0  0  0  0  0
   38.5160   34.0960   40.3050 C   0  0  0  0  0  0  0  0  0  0  0  0
   39.8510   34.0000   39.9220 C   0  0  0  0  0  0  0  0  0  0  0  0
   40.1690   32.9740   39.0910 C   0  0  0  0  0  0  0  0  0  0  0  0
   39.2100   32.1000   38.6710 N   0  0  0  0  0  0  0  0  0  0  0  0
   37.9220   32.2250   39.0640 C   0  0  0  0  0  0  0  0  0  0  0  0
   37.6120   33.2240   39.8720 N   0  0  0  0  0  0  0  0  0  0  0  0
   38.2010   34.8900   40.9630 H   0  0  0  0  0  0  0  0  0  0  0  0
   40.5990   34.6910   40.2580 H   0  0  0  0  0  0  0  0  0  0  0  0
   41.5240   32.7500   38.6070 C   0  0  0  0  0  0  0  0  0  0  0  0
   42.6550   33.2240   39.2010 C   0  0  0  0  0  0  0  0  0  0  0  0
   43.9330   33.0000   38.7270 C   0  0  0  0  0  0  0  0  0  0  0  0
   44.1140   32.2560   37.5840 C   0  0  0  0  0  0  0  0  0  0  0  0
   43.0160   31.7510   36.9400 C   0  0  0  0  0  0  0  0  0  0  0  0
   41.7610   32.0050   37.4580 C   0  0  0  0  0  0  0  0  0  0  0  0
   42.5530   33.8200   40.1110 H   0  0  0  0  0  0  0  0  0  0  0  0
   44.7880   33.4070   39.2470 H   0  0  0  0  0  0  0  0  0  0  0  0
   45.0980   32.0660   37.1910 H   0  0  0  0  0  0  0  0  0  0  0  0
   43.1190   31.1590   36.0370 H   0  0  0  0  0  0  0  0  0  0  0  0
   40.9150   31.5840   36.9140 H   0  0  0  0  0  0  0  0  0  0  0  0
  1  4  1  1  0  0  0
  1  3  1  0  0  0  0
  2  1  1  0  0  0  0
  2  6  1  0  0  0  0
  2  3  1  0  0  0  0
  3  7  1  1  0  0  0
  5  2  1  0  0  0  0
  8 11  1  6  0  0  0
  8  3  1  0  0  0  0
  8  9  1  0  0  0  0
  8 10  1  0  0  0  0
  9 10  1  0  0  0  0
  9 12  1  0  0  0  0
 10 14  1  6  0  0  0
 10 16  1  0  0  0  0
 13  9  1  0  0  0  0
 15 21  1  6  0  0  0
 15 16  1  0  0  0  0
 15 20  1  0  0  0  0
 16 17  1  1  0  0  0
 17 18  1  0  0  0  0
 19 18  1  0  0  0  0
 19 23  1  6  0  0  0
 20 25  1  1  0  0  0
 20 19  1  0  0  0  0
 22 21  1  0  0  0  0
 23 24  1  0  0  0  0
 26 25  1  0  0  0  0
 27 31  1  0  0  0  0
 27  1  1  0  0  0  0
 28 27  1  0  0  0  0
 29 27  1  0  0  0  0
 30 36  1  0  0  0  0
 31 30  2  0  0  0  0
 32 38  1  0  0  0  0
 33 39  1  0  0  0  0
 33 32  1  0  0  0  0
 34 33  2  0  0  0  0
 35 36  2  0  0  0  0
 35 34  1  0  0  0  0
 36 37  1  0  0  0  0
 37 32  2  0  0  0  0
 40 34  1  0  0  0  0
 40 41  1  0  0  0  0
 41 46  1  0  0  0  0
 42 41  2  0  0  0  0
 42 47  1  0  0  0  0
 43 42  1  0  0  0  0
 44 45  1  0  0  0  0
 44 43  2  0  0  0  0
 45 40  2  0  0  0  0
 48 43  1  0  0  0  0
 49 44  1  0  0  0  0
 50 45  1  0  0  0  0
M  END
>  <minimizedAffinity>
-6.06929731

$$$$

 OpenBabel03252508193D

 50 54  0  0  1  0  0  0  0  0999 V2000
   39.8740   25.8760   42.7400 C   0  0  1  0  0  0  0  0  0  0  0  0
   39.7730   24.5060   43.3200 C   0  0  0  0  0  0  0  0  0  0  0  0
   39.0490   24.8360   42.0940 C   0  0  1  0  0  0  0  0  0  0  0  0
   40.9500   26.0730   42.4610 H   0  0  0  0  0  0  0  0  0  0  0  0
   39.1630   24.3720   44.2450 H   0  0  0  0  0  0  0  0  0  0  0  0
   40.5920   23.7720   43.2690 H   0  0  0  0  0  0  0  0  0  0  0  0
   39.4710   24.4320   41.1500 H   0  0  0  0  0  0  0  0  0  0  0  0
   37.5660   25.0270   42.0850 C   0  0  2  0  0  0  0  0  0  0  0  0
   36.8520   24.2110   40.9770 C   0  0  0  0  0  0  0  0  0  0  0  0
   36.9110   25.6760   40.8920 C   0  0  2  0  0  0  0  0  0  0  0  0
   37.0080   24.9410   43.0270 H   0  0  0  0  0  0  0  0  0  0  0  0
   37.4820   23.6690   40.2460 H   0  0  0  0  0  0  0  0  0  0  0  0
   35.9010   23.7330   41.1730 H   0  0  0  0  0  0  0  0  0  0  0  0
   35.9590   26.2190   41.1700 H   0  0  0  0  0  0  0  0  0  0  0  0
   36.6940   27.3010   39.1200 C   0  0  2  0  0  3  0  0  0  0  0  0
   37.6850   26.3710   39.8380 C   0  0  2  0  0  3  0  0  0  0  0  0
   38.1760   25.5510   38.8250 O   0  0  0  0  0  0  0  0  0  0  0  0
   38.3590   26.1710   37.6180 C   0  0  0  0  0  2  0  0  0  0  0  0
   38.6580   27.6490   37.7430 C   0  0  1  0  0  3  0  0  0  0  0  0
   37.5100   28.3640   38.4280 C   0  0  1  0  0  3  0  0  0  0  0  0
   35.8220   27.8980   40.0290 O   0  0  0  0  0  0  0  0  0  0  0  0
   34.9060   27.5130   39.9960 H   0  0  0  0  0  0  0  0  0  0  0  0
   39.8750   27.8840   38.3630 O   0  0  0  0  0  0  0  0  0  0  0  0
   40.3140   28.6810   37.9700 H   0  0  0  0  0  0  0  0  0  0  0  0
   36.7180   29.0880   37.5420 O   0  0  0  0  0  0  0  0  0  0  0  0
   36.2150   29.7410   38.1180 H   0  0  0  0  0  0  0  0  0  0  0  0
   39.2380   26.9560   43.5390 C   0  0  0  0  0  0  0  0  0  0  0  0
   38.2500   26.7950   43.9380 H   0  0  0  0  0  0  0  0  0  0  0  0
   39.9190   27.2280   44.3950 H   0  0  0  0  0  0  0  0  0  0  0  0
   37.9710   28.7480   42.6750 C   0  0  0  0  0  3  0  0  0  0  0  0
   39.1240   28.2250   42.7250 C   0  0  0  0  0  3  0  0  0  0  0  0
   36.4810   31.4760   40.6930 C   0  0  0  0  0  0  0  0  0  0  0  0
   37.5890   32.2320   40.3220 C   0  0  0  0  0  0  0  0  0  0  0  0
   38.7970   31.7870   40.7570 C   0  0  0  0  0  0  0  0  0  0  0  0
   38.8860   30.6570   41.5160 N   0  0  0  0  0  0  0  0  0  0  0  0
   37.7870   29.9470   41.8550 C   0  0  0  0  0  0  0  0  0  0  0  0
   36.6110   30.3790   41.4320 N   0  0  0  0  0  0  0  0  0  0  0  0
   35.4940   31.7770   40.3780 H   0  0  0  0  0  0  0  0  0  0  0  0
   37.5090   33.1200   39.7270 H   0  0  0  0  0  0  0  0  0  0  0  0
   40.0420   32.4740   40.4470 C   0  0  0  0  0  0  0  0  0  0  0  0
   41.2410   32.2290   41.0470 C   0  0  0  0  0  0  0  0  0  0  0  0
   42.4130   32.8910   40.7370 C   0  0  0  0  0  0  0  0  0  0  0  0
   42.4080   33.8680   39.7670 C   0  0  0  0  0  0  0  0  0  0  0  0
   41.2330   34.1610   39.1270 C   0  0  0  0  0  0  0  0  0  0  0  0
   40.0900   33.4670   39.4750 C   0  0  0  0  0  0  0  0  0  0  0  0
   41.2870   31.4610   41.8220 H   0  0  0  0  0  0  0  0  0  0  0  0
   43.3300   32.6480   41.2530 H   0  0  0  0  0  0  0  0  0  0  0  0
   43.3050   34.4010   39.5070 H   0  0  0  0  0  0  0  0  0  0  0  0
   41.1900   34.9240   38.3580 H   0  0  0  0  0  0  0  0  0  0  0  0
   39.1780   33.7320   38.9410 H   0  0  0  0  0  0  0  0  0  0  0  0
  1  4  1  6  0  0  0
  1  2  1  0  0  0  0
  1 27  1  0  0  0  0
  2  5  1  0  0  0  0
  3  7  1  6  0  0  0
  3  1  1  0  0  0  0
  3  2  1  0  0  0  0
  6  2  1  0  0  0  0
  8  3  1  0  0  0  0
  8 11  1  1  0  0  0
  9 13  1  0  0  0  0
  9  8  1  0  0  0  0
 10  9  1  0  0  0  0
 10 14  1  1  0  0  0
 10  8  1  0  0  0  0
 12  9  1  0  0  0  0
 15 16  1  0  0  0  0
 15 21  1  1  0  0  0
 16 17  1  6  0  0  0
 16 10  1  0  0  0  0
 18 19  1  0  0  0  0
 18 17  1  0  0  0  0
 19 23  1  1  0  0  0
 19 20  1  0  0  0  0
 20 25  1  6  0  0  0
 20 15  1  0  0  0  0
 22 21  1  0  0  0  0
 24 23  1  0  0  0  0
 25 26  1  0  0  0  0
 27 28  1  0  0  0  0
 27 29  1  0  0  0  0
 30 31  2  0  0  0  0
 31 27  1  0  0  0  0
 32 37  1  0  0  0  0
 33 32  2  0  0  0  0
 33 34  1  0  0  0  0
 34 35  2  0  0  0  0
 35 36  1  0  0  0  0
 36 30  1  0  0  0  0
 37 36  2  0  0  0  0
 38 32  1  0  0  0  0
 39 33  1  0  0  0  0
 40 34  1  0  0  0  0
 40 41  1  0  0  0  0
 41 46  1  0  0  0  0
 42 41  2  0  0  0  0
 42 47  1  0  0  0  0
 43 42  1  0  0  0  0
 44 45  1  0  0  0  0
 44 43  2  0  0  0  0
 45 40  2  0  0  0  0
 48 43  1  0  0  0  0
 49 44  1  0  0  0  0
 50 45  1  0  0  0  0
M  END
>  <minimizedAffinity>
-5.99515438

$$$$

 OpenBabel03252508193D

 50 54  0  0  1  0  0  0  0  0999 V2000
   37.5600   30.5240   37.2860 C   0  0  1  0  0  0  0  0  0  0  0  0
   37.6690   31.7210   36.4040 C   0  0  0  0  0  0  0  0  0  0  0  0
   37.9510   31.8380   37.8330 C   0  0  1  0  0  0  0  0  0  0  0  0
   38.3080   29.7500   36.9410 H   0  0  0  0  0  0  0  0  0  0  0  0
   36.7250   32.1890   36.0360 H   0  0  0  0  0  0  0  0  0  0  0  0
   38.4940   31.8650   35.6880 H   0  0  0  0  0  0  0  0  0  0  0  0
   39.0210   31.9200   38.1170 H   0  0  0  0  0  0  0  0  0  0  0  0
   37.0020   32.5150   38.7680 C   0  0  2  0  0  0  0  0  0  0  0  0
   37.6950   33.5280   39.7140 C   0  0  0  0  0  0  0  0  0  0  0  0
   37.1320   32.2820   40.2520 C   0  0  2  0  0  0  0  0  0  0  0  0
   36.0760   32.9520   38.3700 H   0  0  0  0  0  0  0  0  0  0  0  0
   38.8000   33.5800   39.6980 H   0  0  0  0  0  0  0  0  0  0  0  0
   37.2170   34.4690   39.9580 H   0  0  0  0  0  0  0  0  0  0  0  0
   36.1430   32.3860   40.7900 H   0  0  0  0  0  0  0  0  0  0  0  0
   37.1310   30.4890   41.8680 C   0  0  2  0  0  3  0  0  0  0  0  0
   37.9880   31.2150   40.8180 C   0  0  2  0  0  3  0  0  0  0  0  0
   39.0960   31.6610   41.5350 O   0  0  0  0  0  0  0  0  0  0  0  0
   39.5390   30.8030   42.5060 C   0  0  0  0  0  2  0  0  0  0  0  0
   39.2440   29.3510   42.2030 C   0  0  1  0  0  3  0  0  0  0  0  0
   37.7490   29.1300   42.0780 C   0  0  1  0  0  3  0  0  0  0  0  0
   35.8170   30.3420   41.4240 O   0  0  0  0  0  0  0  0  0  0  0  0
   35.1840   30.9580   41.8800 H   0  0  0  0  0  0  0  0  0  0  0  0
   39.9410   28.8980   41.0940 O   0  0  0  0  0  0  0  0  0  0  0  0
   40.2080   27.9510   41.2160 H   0  0  0  0  0  0  0  0  0  0  0  0
   37.1990   28.5110   43.1960 O   0  0  0  0  0  0  0  0  0  0  0  0
   36.3160   28.1440   42.8820 H   0  0  0  0  0  0  0  0  0  0  0  0
   36.1840   30.0010   37.4860 C   0  0  0  0  0  0  0  0  0  0  0  0
   35.4520   30.6330   37.9610 H   0  0  0  0  0  0  0  0  0  0  0  0
   35.7670   29.6720   36.4910 H   0  0  0  0  0  0  0  0  0  0  0  0
   37.3340   28.1730   38.4340 C   0  0  0  0  0  3  0  0  0  0  0  0
   36.2080   28.7420   38.3240 C   0  0  0  0  0  3  0  0  0  0  0  0
   36.5770   24.8540   39.8500 C   0  0  0  0  0  0  0  0  0  0  0  0
   37.6860   24.5970   40.6500 C   0  0  0  0  0  0  0  0  0  0  0  0
   38.6460   25.5590   40.6800 C   0  0  0  0  0  0  0  0  0  0  0  0
   38.5010   26.7040   39.9530 N   0  0  0  0  0  0  0  0  0  0  0  0
   37.4080   26.9190   39.1870 C   0  0  0  0  0  0  0  0  0  0  0  0
   36.4750   25.9830   39.1570 N   0  0  0  0  0  0  0  0  0  0  0  0
   35.7810   24.1290   39.7850 H   0  0  0  0  0  0  0  0  0  0  0  0
   37.7930   23.6940   41.2180 H   0  0  0  0  0  0  0  0  0  0  0  0
   39.8590   25.4300   41.4730 C   0  0  0  0  0  0  0  0  0  0  0  0
   41.1170   25.3060   40.9630 C   0  0  0  0  0  0  0  0  0  0  0  0
   42.2580   25.1850   41.7330 C   0  0  0  0  0  0  0  0  0  0  0  0
   42.1570   25.1850   43.1060 C   0  0  0  0  0  0  0  0  0  0  0  0
   40.9190   25.3070   43.6790 C   0  0  0  0  0  0  0  0  0  0  0  0
   39.8110   25.4250   42.8620 C   0  0  0  0  0  0  0  0  0  0  0  0
   41.2400   25.3010   39.8780 H   0  0  0  0  0  0  0  0  0  0  0  0
   43.2260   25.0890   41.2640 H   0  0  0  0  0  0  0  0  0  0  0  0
   43.0270   25.0910   43.7300 H   0  0  0  0  0  0  0  0  0  0  0  0
   40.7990   25.3110   44.7570 H   0  0  0  0  0  0  0  0  0  0  0  0
   38.8460   25.5200   43.3600 H   0  0  0  0  0  0  0  0  0  0  0  0
  1  4  1  6  0  0  0
  1 27  1  0  0  0  0
  1  3  1  0  0  0  0
  2  1  1  0  0  0  0
  2  3  1  0  0  0  0
  3  7  1  1  0  0  0
  3  8  1  0  0  0  0
  5  2  1  0  0  0  0
  6  2  1  0  0  0  0
  8 11  1  6  0  0  0
  8  9  1  0  0  0  0
  8 10  1  0  0  0  0
  9 13  1  0  0  0  0
  9 10  1  0  0  0  0
 10 14  1  1  0  0  0
 10 16  1  0  0  0  0
 12  9  1  0  0  0  0
 15 21  1  6  0  0  0
 15 20  1  0  0  0  0
 16 17  1  1  0  0  0
 16 15  1  0  0  0  0
 17 18  1  0  0  0  0
 19 23  1  6  0  0  0
 19 18  1  0  0  0  0
 20 19  1  0  0  0  0
 20 25  1  1  0  0  0
 21 22  1  0  0  0  0
 23 24  1  0  0  0  0
 26 25  1  0  0  0  0
 27 28  1  0  0  0  0
 27 31  1  0  0  0  0
 29 27  1  0  0  0  0
 30 36  1  0  0  0  0
 31 30  2  0  0  0  0
 32 33  1  0  0  0  0
 33 34  2  0  0  0  0
 33 39  1  0  0  0  0
 34 40  1  0  0  0  0
 35 34  1  0  0  0  0
 36 35  2  0  0  0  0
 37 36  1  0  0  0  0
 37 32  2  0  0  0  0
 38 32  1  0  0  0  0
 40 45  1  0  0  0  0
 41 40  2  0  0  0  0
 41 42  1  0  0  0  0
 42 43  2  0  0  0  0
 43 44  1  0  0  0  0
 43 48  1  0  0  0  0
 44 49  1  0  0  0  0
 45 50  1  0  0  0  0
 45 44  2  0  0  0  0
 46 41  1  0  0  0  0
 47 42  1  0  0  0  0
M  END
>  <minimizedAffinity>
-5.97170877

$$$$
