
 OpenBabel03242515233D

 24 25  0  0  1  0  0  0  0  0999 V2000
   43.8300   35.6800   41.4670 C   0  0  0  0  0  0  0  0  0  0  0  0
   44.5910   35.4480   40.6710 H   0  0  0  0  0  0  0  0  0  0  0  0
   43.7450   36.7640   41.5970 H   0  0  0  0  0  0  0  0  0  0  0  0
   44.3530   35.8710   43.8310 C   0  0  0  0  0  0  0  0  0  0  0  0
   44.3490   35.0460   42.6920 C   0  0  0  0  0  0  0  0  0  0  0  0
   44.8250   33.7510   42.8430 C   0  0  0  0  0  0  0  0  0  0  0  0
   45.2590   33.3610   44.0570 N   0  0  0  0  0  0  0  0  0  0  0  0
   45.2490   34.1720   45.1260 C   0  0  0  0  0  0  0  0  0  0  0  0
   44.7930   35.4570   45.0370 N   0  0  0  0  0  0  0  0  0  0  0  0
   44.0040   36.9120   43.8480 H   0  0  0  0  0  0  0  0  0  0  0  0
   44.8030   33.1530   41.9420 H   0  0  0  0  0  0  0  0  0  0  0  0
   45.6120   33.8030   46.0760 H   0  0  0  0  0  0  0  0  0  0  0  0
   42.5460   34.4770   39.7280 C   0  0  1  0  0  3  0  0  0  0  0  0
   42.4780   35.1290   41.0640 C   0  0  2  0  0  3  0  0  0  0  0  0
   41.4540   35.9880   41.2680 O   0  0  0  0  0  0  0  0  0  0  0  0
   40.2570   35.7140   40.7290 C   0  0  0  0  0  2  0  0  0  0  0  0
   40.1870   35.1000   39.3830 C   0  0  1  0  0  3  0  0  0  0  0  0
   41.2240   34.0150   39.2010 C   0  0  1  0  0  3  0  0  0  0  0  0
   43.0430   35.4550   38.8420 O   0  0  0  0  0  0  0  0  0  0  0  0
   43.3550   35.0530   38.0030 H   0  0  0  0  0  0  0  0  0  0  0  0
   38.9380   34.4930   39.2390 O   0  0  0  0  0  0  0  0  0  0  0  0
   38.2500   35.1130   38.9270 H   0  0  0  0  0  0  0  0  0  0  0  0
   41.2480   33.7230   37.8500 O   0  0  0  0  0  0  0  0  0  0  0  0
   40.7540   34.3540   37.3020 H   0  0  0  0  0  0  0  0  0  0  0  0
  1  3  1  0  0  0  0
  1  5  1  0  0  0  0
  2  1  1  0  0  0  0
  4 10  1  0  0  0  0
  4  9  1  0  0  0  0
  5  6  1  0  0  0  0
  5  4  2  0  0  0  0
  6  7  2  0  0  0  0
  7  8  1  0  0  0  0
  8 12  1  0  0  0  0
  9  8  2  0  0  0  0
 11  6  1  0  0  0  0
 13 19  1  6  0  0  0
 13 14  1  0  0  0  0
 14 15  1  0  0  0  0
 14  1  1  6  0  0  0
 16 15  1  0  0  0  0
 17 21  1  1  0  0  0
 17 16  1  0  0  0  0
 18 23  1  6  0  0  0
 18 17  1  0  0  0  0
 18 13  1  0  0  0  0
 20 19  1  0  0  0  0
 22 21  1  0  0  0  0
 24 23  1  0  0  0  0
M  END
>  <minimizedAffinity>
-5.21796179

>  <minimizedRMSD>
0.736170113

$$$$
