
 OpenBabel03252501523D

 48 51  0  0  1  0  0  0  0  0999 V2000
   36.2110   28.1810   39.2400 C   0  0  0  0  0  0  0  0  0  0  0  0
   37.1670   27.9030   38.7190 H   0  0  0  0  0  0  0  0  0  0  0  0
   35.6940   27.2840   39.6180 H   0  0  0  0  0  0  0  0  0  0  0  0
   36.5560   29.0370   40.3500 N   0  0  0  0  0  0  0  0  0  0  0  0
   36.3040   28.3810   41.5860 C   0  0  0  0  0  0  0  0  0  0  0  0
   37.3500   28.8250   42.5580 C   0  0  0  0  0  0  0  0  0  0  0  0
   38.5190   29.1670   41.6620 C   0  0  0  0  0  0  0  0  0  0  0  0
   37.9240   29.4400   40.2920 C   0  0  2  0  0  0  0  0  0  0  0  0
   35.2700   28.6600   41.9020 H   0  0  0  0  0  0  0  0  0  0  0  0
   36.4040   27.2740   41.4500 H   0  0  0  0  0  0  0  0  0  0  0  0
   36.9450   29.7170   43.0890 H   0  0  0  0  0  0  0  0  0  0  0  0
   37.6760   28.0380   43.2630 H   0  0  0  0  0  0  0  0  0  0  0  0
   39.2840   28.3920   41.6760 H   0  0  0  0  0  0  0  0  0  0  0  0
   38.9670   30.0940   42.1230 H   0  0  0  0  0  0  0  0  0  0  0  0
   38.4560   28.7930   39.5730 H   0  0  0  0  0  0  0  0  0  0  0  0
   38.4180   31.0450   38.5170 C   0  0  1  0  0  3  0  0  0  0  0  0
   38.1270   30.8940   39.9900 C   0  0  2  0  0  3  0  0  0  0  0  0
   39.1250   31.4660   40.7730 O   0  0  0  0  0  0  0  0  0  0  0  0
   39.0700   32.8450   40.5740 C   0  0  0  0  0  2  0  0  0  0  0  0
   39.2420   33.2360   39.1240 C   0  0  2  0  0  3  0  0  0  0  0  0
   39.5860   32.0140   38.3390 C   0  0  2  0  0  3  0  0  0  0  0  0
   38.7590   29.8720   37.8790 O   0  0  0  0  0  0  0  0  0  0  0  0
   39.5820   29.9280   37.3430 H   0  0  0  0  0  0  0  0  0  0  0  0
   40.3200   34.1460   39.0840 O   0  0  0  0  0  0  0  0  0  0  0  0
   41.1580   33.5830   39.1060 H   0  0  0  0  0  0  0  0  0  0  0  0
   39.7650   32.2700   36.9850 O   0  0  0  0  0  0  0  0  0  0  0  0
   39.1160   31.7730   36.4180 H   0  0  0  0  0  0  0  0  0  0  0  0
   34.1590   28.3070   37.9030 C   0  0  0  0  0  3  0  0  0  0  0  0
   35.3340   28.8650   38.2270 C   0  0  0  0  0  3  0  0  0  0  0  0
   31.9680   29.4450   37.2100 C   0  0  0  0  0  0  0  0  0  0  0  0
   33.2690   28.9540   36.9070 C   0  0  0  0  0  0  0  0  0  0  0  0
   33.7610   29.0780   35.5960 C   0  0  0  0  0  0  0  0  0  0  0  0
   32.9590   29.6670   34.6670 N   0  0  0  0  0  0  0  0  0  0  0  0
   31.7420   30.1170   34.9860 C   0  0  0  0  0  0  0  0  0  0  0  0
   31.2800   29.9970   36.2310 N   0  0  0  0  0  0  0  0  0  0  0  0
   31.6540   29.3190   38.2330 H   0  0  0  0  0  0  0  0  0  0  0  0
   34.7410   28.7070   35.3730 H   0  0  0  0  0  0  0  0  0  0  0  0
   31.2970   32.8410   34.9200 F   0  0  0  0  0  0  0  0  0  0  0  0
   30.7140   32.1070   33.9490 C   0  0  0  0  0  0  0  0  0  0  0  0
   30.9190   30.7420   33.9560 C   0  0  0  0  0  0  0  0  0  0  0  0
   30.3530   29.9090   32.9880 C   0  0  0  0  0  0  0  0  0  0  0  0
   29.5690   30.5110   32.0080 C   0  0  0  0  0  0  0  0  0  0  0  0
   29.3490   31.8940   31.9840 C   0  0  0  0  0  0  0  0  0  0  0  0
   29.9290   32.6840   32.9630 C   0  0  0  0  0  0  0  0  0  0  0  0
   30.5150   28.8400   32.9970 H   0  0  0  0  0  0  0  0  0  0  0  0
   29.1490   29.8270   31.2790 H   0  0  0  0  0  0  0  0  0  0  0  0
   28.7280   32.2930   31.1940 H   0  0  0  0  0  0  0  0  0  0  0  0
   29.7690   33.7580   32.9580 H   0  0  0  0  0  0  0  0  0  0  0  0
  1  3  1  0  0  0  0
  1  4  1  0  0  0  0
  2  1  1  0  0  0  0
  4  5  1  0  0  0  0
  5  9  1  0  0  0  0
  5  6  1  0  0  0  0
  6 11  1  0  0  0  0
  6 12  1  0  0  0  0
  7 13  1  0  0  0  0
  7 14  1  0  0  0  0
  7  6  1  0  0  0  0
  8 15  1  6  0  0  0
  8  4  1  0  0  0  0
  8  7  1  0  0  0  0
 10  5  1  0  0  0  0
 16 22  1  1  0  0  0
 16 17  1  0  0  0  0
 17  8  1  0  0  0  0
 17 18  1  1  0  0  0
 19 18  1  0  0  0  0
 20 24  1  1  0  0  0
 20 19  1  0  0  0  0
 21 26  1  6  0  0  0
 21 16  1  0  0  0  0
 21 20  1  0  0  0  0
 23 22  1  0  0  0  0
 24 25  1  0  0  0  0
 27 26  1  0  0  0  0
 28 29  2  0  0  0  0
 29  1  1  0  0  0  0
 30 36  1  0  0  0  0
 31 30  1  0  0  0  0
 31 28  1  0  0  0  0
 32 31  2  0  0  0  0
 33 34  2  0  0  0  0
 33 32  1  0  0  0  0
 34 35  1  0  0  0  0
 35 30  2  0  0  0  0
 37 32  1  0  0  0  0
 39 40  1  0  0  0  0
 39 38  1  0  0  0  0
 40 34  1  0  0  0  0
 41 45  1  0  0  0  0
 41 40  2  0  0  0  0
 42 41  1  0  0  0  0
 43 42  2  0  0  0  0
 43 44  1  0  0  0  0
 44 39  2  0  0  0  0
 46 42  1  0  0  0  0
 47 43  1  0  0  0  0
 48 44  1  0  0  0  0
M  END
>  <minimizedAffinity>
-6.73469114

$$$$

 OpenBabel03252501523D

 48 51  0  0  1  0  0  0  0  0999 V2000
   39.9460   31.0790   42.7650 C   0  0  0  0  0  0  0  0  0  0  0  0
   39.9650   30.9250   43.8770 H   0  0  0  0  0  0  0  0  0  0  0  0
   39.2150   31.8560   42.4870 H   0  0  0  0  0  0  0  0  0  0  0  0
   41.2670   31.5020   42.3640 N   0  0  0  0  0  0  0  0  0  0  0  0
   42.2560   30.9210   43.2040 C   0  0  0  0  0  0  0  0  0  0  0  0
   43.4650   30.6530   42.3660 C   0  0  0  0  0  0  0  0  0  0  0  0
   42.8810   30.4610   40.9850 C   0  0  0  0  0  0  0  0  0  0  0  0
   41.5330   31.1600   41.0040 C   0  0  2  0  0  0  0  0  0  0  0  0
   42.4510   31.6450   44.0320 H   0  0  0  0  0  0  0  0  0  0  0  0
   41.8840   29.9410   43.5990 H   0  0  0  0  0  0  0  0  0  0  0  0
   44.1140   31.5560   42.4320 H   0  0  0  0  0  0  0  0  0  0  0  0
   44.0100   29.7320   42.6400 H   0  0  0  0  0  0  0  0  0  0  0  0
   42.8410   29.4100   40.7010 H   0  0  0  0  0  0  0  0  0  0  0  0
   43.6140   30.9700   40.2950 H   0  0  0  0  0  0  0  0  0  0  0  0
   40.7820   30.4250   40.6680 H   0  0  0  0  0  0  0  0  0  0  0  0
   40.5440   32.1980   39.0260 C   0  0  1  0  0  3  0  0  0  0  0  0
   41.6180   32.3360   40.0770 C   0  0  2  0  0  3  0  0  0  0  0  0
   42.8800   32.4760   39.5090 O   0  0  0  0  0  0  0  0  0  0  0  0
   42.9080   33.7080   38.8590 C   0  0  0  0  0  2  0  0  0  0  0  0
   41.8330   33.8410   37.8040 C   0  0  2  0  0  3  0  0  0  0  0  0
   41.1450   32.5240   37.6590 C   0  0  2  0  0  3  0  0  0  0  0  0
   39.9870   30.9410   38.9380 O   0  0  0  0  0  0  0  0  0  0  0  0
   39.9610   30.5720   38.0260 H   0  0  0  0  0  0  0  0  0  0  0  0
   42.4950   34.1660   36.6010 O   0  0  0  0  0  0  0  0  0  0  0  0
   42.8490   33.2950   36.2350 H   0  0  0  0  0  0  0  0  0  0  0  0
   40.1330   32.5420   36.7070 O   0  0  0  0  0  0  0  0  0  0  0  0
   39.2430   32.3340   37.0990 H   0  0  0  0  0  0  0  0  0  0  0  0
   38.5750   29.0460   42.7250 C   0  0  0  0  0  3  0  0  0  0  0  0
   39.5370   29.7730   42.1400 C   0  0  0  0  0  3  0  0  0  0  0  0
   37.3830   26.7790   42.8390 C   0  0  0  0  0  0  0  0  0  0  0  0
   38.1480   27.7520   42.1370 C   0  0  0  0  0  0  0  0  0  0  0  0
   38.5340   27.4940   40.8110 C   0  0  0  0  0  0  0  0  0  0  0  0
   38.1530   26.3120   40.2540 N   0  0  0  0  0  0  0  0  0  0  0  0
   37.4340   25.4210   40.9410 C   0  0  0  0  0  0  0  0  0  0  0  0
   37.0710   25.6690   42.2000 N   0  0  0  0  0  0  0  0  0  0  0  0
   37.1210   27.0400   43.8510 H   0  0  0  0  0  0  0  0  0  0  0  0
   39.1100   28.2300   40.2860 H   0  0  0  0  0  0  0  0  0  0  0  0
   38.9390   23.1200   41.2030 F   0  0  0  0  0  0  0  0  0  0  0  0
   37.8220   23.0330   40.4500 C   0  0  0  0  0  0  0  0  0  0  0  0
   37.0490   24.1670   40.3020 C   0  0  0  0  0  0  0  0  0  0  0  0
   35.8780   24.1640   39.5410 C   0  0  0  0  0  0  0  0  0  0  0  0
   35.5160   22.9640   38.9330 C   0  0  0  0  0  0  0  0  0  0  0  0
   36.2860   21.8030   39.0720 C   0  0  0  0  0  0  0  0  0  0  0  0
   37.4410   21.8510   39.8350 C   0  0  0  0  0  0  0  0  0  0  0  0
   35.2750   25.0540   39.4260 H   0  0  0  0  0  0  0  0  0  0  0  0
   34.6000   23.0090   38.3520 H   0  0  0  0  0  0  0  0  0  0  0  0
   35.9450   20.9080   38.5710 H   0  0  0  0  0  0  0  0  0  0  0  0
   38.0490   20.9590   39.9530 H   0  0  0  0  0  0  0  0  0  0  0  0
  1  2  1  0  0  0  0
  3  1  1  0  0  0  0
  4  1  1  0  0  0  0
  4  5  1  0  0  0  0
  5 10  1  0  0  0  0
  5  9  1  0  0  0  0
  6 11  1  0  0  0  0
  6 12  1  0  0  0  0
  6  5  1  0  0  0  0
  7  8  1  0  0  0  0
  7  6  1  0  0  0  0
  8 15  1  6  0  0  0
  8  4  1  0  0  0  0
 13  7  1  0  0  0  0
 14  7  1  0  0  0  0
 16 22  1  6  0  0  0
 16 17  1  0  0  0  0
 17 18  1  6  0  0  0
 17  8  1  0  0  0  0
 19 18  1  0  0  0  0
 20 24  1  6  0  0  0
 20 19  1  0  0  0  0
 21 26  1  6  0  0  0
 21 20  1  0  0  0  0
 21 16  1  0  0  0  0
 23 22  1  0  0  0  0
 25 24  1  0  0  0  0
 26 27  1  0  0  0  0
 29 28  2  0  0  0  0
 29  1  1  0  0  0  0
 30 36  1  0  0  0  0
 31 28  1  0  0  0  0
 31 30  2  0  0  0  0
 32 31  1  0  0  0  0
 33 32  2  0  0  0  0
 33 34  1  0  0  0  0
 34 35  2  0  0  0  0
 35 30  1  0  0  0  0
 37 32  1  0  0  0  0
 39 38  1  0  0  0  0
 40 39  1  0  0  0  0
 40 34  1  0  0  0  0
 41 40  2  0  0  0  0
 42 43  2  0  0  0  0
 42 41  1  0  0  0  0
 43 44  1  0  0  0  0
 44 48  1  0  0  0  0
 44 39  2  0  0  0  0
 45 41  1  0  0  0  0
 46 42  1  0  0  0  0
 47 43  1  0  0  0  0
M  END
>  <minimizedAffinity>
-6.61548376

$$$$

 OpenBabel03252501523D

 48 51  0  0  1  0  0  0  0  0999 V2000
   36.1160   27.9290   39.9290 C   0  0  0  0  0  0  0  0  0  0  0  0
   37.0040   27.5840   39.3340 H   0  0  0  0  0  0  0  0  0  0  0  0
   35.5920   27.0750   40.3870 H   0  0  0  0  0  0  0  0  0  0  0  0
   36.6060   28.8020   40.9710 N   0  0  0  0  0  0  0  0  0  0  0  0
   36.5760   28.1440   42.2310 C   0  0  0  0  0  0  0  0  0  0  0  0
   37.7490   28.6260   43.0230 C   0  0  0  0  0  0  0  0  0  0  0  0
   38.7480   29.0020   41.9520 C   0  0  0  0  0  0  0  0  0  0  0  0
   37.9330   29.2490   40.6950 C   0  0  2  0  0  0  0  0  0  0  0  0
   35.5970   28.3900   42.7080 H   0  0  0  0  0  0  0  0  0  0  0  0
   36.6900   27.0400   42.0800 H   0  0  0  0  0  0  0  0  0  0  0  0
   37.4050   29.5070   43.6120 H   0  0  0  0  0  0  0  0  0  0  0  0
   38.2090   27.8540   43.6660 H   0  0  0  0  0  0  0  0  0  0  0  0
   39.5310   28.2520   41.8430 H   0  0  0  0  0  0  0  0  0  0  0  0
   39.2330   29.9450   42.3360 H   0  0  0  0  0  0  0  0  0  0  0  0
   38.3650   28.6160   39.9000 H   0  0  0  0  0  0  0  0  0  0  0  0
   38.1580   30.8560   38.8680 C   0  0  1  0  0  3  0  0  0  0  0  0
   38.0370   30.7080   40.3650 C   0  0  2  0  0  3  0  0  0  0  0  0
   39.0880   31.3300   41.0310 O   0  0  0  0  0  0  0  0  0  0  0  0
   38.9500   32.7030   40.8320 C   0  0  0  0  0  2  0  0  0  0  0  0
   38.9460   33.0870   39.3700 C   0  0  2  0  0  3  0  0  0  0  0  0
   39.2560   31.8730   38.5590 C   0  0  2  0  0  3  0  0  0  0  0  0
   38.4790   29.6930   38.2020 O   0  0  0  0  0  0  0  0  0  0  0  0
   39.2370   29.7790   37.5790 H   0  0  0  0  0  0  0  0  0  0  0  0
   39.9720   34.0420   39.2080 O   0  0  0  0  0  0  0  0  0  0  0  0
   40.8310   33.5170   39.1410 H   0  0  0  0  0  0  0  0  0  0  0  0
   39.2750   32.1240   37.1920 O   0  0  0  0  0  0  0  0  0  0  0  0
   38.5910   31.5930   36.7020 H   0  0  0  0  0  0  0  0  0  0  0  0
   34.9810   28.0960   37.7620 C   0  0  0  0  0  3  0  0  0  0  0  0
   35.1850   28.6260   38.9760 C   0  0  0  0  0  3  0  0  0  0  0  0
   34.4090   29.0150   35.4380 C   0  0  0  0  0  0  0  0  0  0  0  0
   34.0690   28.7570   36.7960 C   0  0  0  0  0  0  0  0  0  0  0  0
   32.8040   29.1430   37.2710 C   0  0  0  0  0  0  0  0  0  0  0  0
   31.9540   29.7520   36.4010 N   0  0  0  0  0  0  0  0  0  0  0  0
   32.3050   29.9790   35.1320 C   0  0  0  0  0  0  0  0  0  0  0  0
   33.5070   29.6120   34.6850 N   0  0  0  0  0  0  0  0  0  0  0  0
   35.3930   28.6940   35.1390 H   0  0  0  0  0  0  0  0  0  0  0  0
   32.5530   28.9460   38.2950 H   0  0  0  0  0  0  0  0  0  0  0  0
   30.7790   28.5610   33.3190 F   0  0  0  0  0  0  0  0  0  0  0  0
   30.6100   29.9000   33.3390 C   0  0  0  0  0  0  0  0  0  0  0  0
   31.3590   30.6350   34.2350 C   0  0  0  0  0  0  0  0  0  0  0  0
   31.2460   32.0250   34.3220 C   0  0  0  0  0  0  0  0  0  0  0  0
   30.3420   32.6450   33.4630 C   0  0  0  0  0  0  0  0  0  0  0  0
   29.5730   31.9170   32.5480 C   0  0  0  0  0  0  0  0  0  0  0  0
   29.7170   30.5410   32.4950 C   0  0  0  0  0  0  0  0  0  0  0  0
   31.8350   32.5980   35.0250 H   0  0  0  0  0  0  0  0  0  0  0  0
   30.2880   33.7240   33.5650 H   0  0  0  0  0  0  0  0  0  0  0  0
   28.8920   32.4650   31.9120 H   0  0  0  0  0  0  0  0  0  0  0  0
   29.1280   29.9610   31.7900 H   0  0  0  0  0  0  0  0  0  0  0  0
  1  3  1  0  0  0  0
  1  4  1  0  0  0  0
  2  1  1  0  0  0  0
  4  5  1  0  0  0  0
  5  9  1  0  0  0  0
  5  6  1  0  0  0  0
  6 11  1  0  0  0  0
  6 12  1  0  0  0  0
  7 14  1  0  0  0  0
  7  6  1  0  0  0  0
  8 15  1  6  0  0  0
  8  4  1  0  0  0  0
  8  7  1  0  0  0  0
 10  5  1  0  0  0  0
 13  7  1  0  0  0  0
 16 22  1  6  0  0  0
 16 17  1  0  0  0  0
 17  8  1  0  0  0  0
 17 18  1  1  0  0  0
 19 18  1  0  0  0  0
 20 24  1  1  0  0  0
 20 19  1  0  0  0  0
 21 26  1  6  0  0  0
 21 16  1  0  0  0  0
 21 20  1  0  0  0  0
 23 22  1  0  0  0  0
 25 24  1  0  0  0  0
 27 26  1  0  0  0  0
 28 29  2  0  0  0  0
 29  1  1  0  0  0  0
 30 31  1  0  0  0  0
 31 32  2  0  0  0  0
 31 28  1  0  0  0  0
 32 37  1  0  0  0  0
 33 32  1  0  0  0  0
 34 33  2  0  0  0  0
 35 34  1  0  0  0  0
 35 30  2  0  0  0  0
 36 30  1  0  0  0  0
 38 39  1  0  0  0  0
 39 40  1  0  0  0  0
 40 41  2  0  0  0  0
 40 34  1  0  0  0  0
 41 45  1  0  0  0  0
 42 46  1  0  0  0  0
 42 41  1  0  0  0  0
 43 42  2  0  0  0  0
 44 43  1  0  0  0  0
 44 39  2  0  0  0  0
 47 43  1  0  0  0  0
 48 44  1  0  0  0  0
M  END
>  <minimizedAffinity>
-6.55443048

$$$$

 OpenBabel03252501523D

 48 51  0  0  1  0  0  0  0  0999 V2000
   39.0340   31.6410   41.5180 C   0  0  0  0  0  0  0  0  0  0  0  0
   40.0500   31.6980   41.9960 H   0  0  0  0  0  0  0  0  0  0  0  0
   38.2470   31.9420   42.2280 H   0  0  0  0  0  0  0  0  0  0  0  0
   39.0330   32.5450   40.3920 N   0  0  0  0  0  0  0  0  0  0  0  0
   37.7300   33.0690   40.1720 C   0  0  0  0  0  0  0  0  0  0  0  0
   37.8820   34.4740   39.6840 C   0  0  0  0  0  0  0  0  0  0  0  0
   39.1990   34.9010   40.2900 C   0  0  0  0  0  0  0  0  0  0  0  0
   39.9550   33.6170   40.5850 C   0  0  2  0  0  0  0  0  0  0  0  0
   37.2280   32.4020   39.4310 H   0  0  0  0  0  0  0  0  0  0  0  0
   37.1690   33.0970   41.1400 H   0  0  0  0  0  0  0  0  0  0  0  0
   37.9200   34.4310   38.5710 H   0  0  0  0  0  0  0  0  0  0  0  0
   37.0980   35.1650   40.0430 H   0  0  0  0  0  0  0  0  0  0  0  0
   39.0590   35.5510   41.1540 H   0  0  0  0  0  0  0  0  0  0  0  0
   39.6970   35.5130   39.4840 H   0  0  0  0  0  0  0  0  0  0  0  0
   40.2470   33.6510   41.6490 H   0  0  0  0  0  0  0  0  0  0  0  0
   42.3560   33.1740   40.4910 C   0  0  1  0  0  3  0  0  0  0  0  0
   41.1490   33.5750   39.6790 C   0  0  2  0  0  3  0  0  0  0  0  0
   41.3540   34.7800   39.0130 O   0  0  0  0  0  0  0  0  0  0  0  0
   42.3320   34.5570   38.0450 C   0  0  0  0  0  2  0  0  0  0  0  0
   43.6300   34.0450   38.6280 C   0  0  2  0  0  3  0  0  0  0  0  0
   43.5280   34.0800   40.1180 C   0  0  2  0  0  3  0  0  0  0  0  0
   42.1850   33.2690   41.8550 O   0  0  0  0  0  0  0  0  0  0  0  0
   42.8970   33.7650   42.3190 H   0  0  0  0  0  0  0  0  0  0  0  0
   44.6370   34.9350   38.1990 O   0  0  0  0  0  0  0  0  0  0  0  0
   44.5880   35.7290   38.8200 H   0  0  0  0  0  0  0  0  0  0  0  0
   44.6780   33.6250   40.7510 O   0  0  0  0  0  0  0  0  0  0  0  0
   44.5060   32.8240   41.3160 H   0  0  0  0  0  0  0  0  0  0  0  0
   37.9130   29.4770   41.7860 C   0  0  0  0  0  3  0  0  0  0  0  0
   38.8130   30.2080   41.1150 C   0  0  0  0  0  3  0  0  0  0  0  0
   37.1350   27.0900   42.3110 C   0  0  0  0  0  0  0  0  0  0  0  0
   37.6690   28.0600   41.4160 C   0  0  0  0  0  0  0  0  0  0  0  0
   37.9930   27.6770   40.1040 C   0  0  0  0  0  0  0  0  0  0  0  0
   37.7790   26.3820   39.7460 N   0  0  0  0  0  0  0  0  0  0  0  0
   37.2750   25.4970   40.6100 C   0  0  0  0  0  0  0  0  0  0  0  0
   36.9700   25.8650   41.8560 N   0  0  0  0  0  0  0  0  0  0  0  0
   36.9090   27.4500   43.3010 H   0  0  0  0  0  0  0  0  0  0  0  0
   38.3950   28.4120   39.4340 H   0  0  0  0  0  0  0  0  0  0  0  0
   39.1060   23.4990   41.1360 F   0  0  0  0  0  0  0  0  0  0  0  0
   37.9950   23.1410   40.4580 C   0  0  0  0  0  0  0  0  0  0  0  0
   37.0620   24.1190   40.1800 C   0  0  0  0  0  0  0  0  0  0  0  0
   35.8850   23.8350   39.4830 C   0  0  0  0  0  0  0  0  0  0  0  0
   35.6880   22.5180   39.0760 C   0  0  0  0  0  0  0  0  0  0  0  0
   36.6230   21.5120   39.3480 C   0  0  0  0  0  0  0  0  0  0  0  0
   37.7770   21.8380   40.0410 C   0  0  0  0  0  0  0  0  0  0  0  0
   35.1560   24.6040   39.2670 H   0  0  0  0  0  0  0  0  0  0  0  0
   34.7620   22.3440   38.5380 H   0  0  0  0  0  0  0  0  0  0  0  0
   36.4040   20.5120   39.0000 H   0  0  0  0  0  0  0  0  0  0  0  0
   38.5120   21.0690   40.2600 H   0  0  0  0  0  0  0  0  0  0  0  0
  1  2  1  0  0  0  0
  1  3  1  0  0  0  0
  4  8  1  0  0  0  0
  4  1  1  0  0  0  0
  5  4  1  0  0  0  0
  5 10  1  0  0  0  0
  6 12  1  0  0  0  0
  6  5  1  0  0  0  0
  6  7  1  0  0  0  0
  7  8  1  0  0  0  0
  7 13  1  0  0  0  0
  8 15  1  1  0  0  0
  9  5  1  0  0  0  0
 11  6  1  0  0  0  0
 14  7  1  0  0  0  0
 16 22  1  1  0  0  0
 17 18  1  1  0  0  0
 17 16  1  0  0  0  0
 17  8  1  0  0  0  0
 19 20  1  0  0  0  0
 19 18  1  0  0  0  0
 20 24  1  1  0  0  0
 20 21  1  0  0  0  0
 21 16  1  0  0  0  0
 21 26  1  1  0  0  0
 22 23  1  0  0  0  0
 24 25  1  0  0  0  0
 26 27  1  0  0  0  0
 29  1  1  0  0  0  0
 29 28  2  0  0  0  0
 30 36  1  0  0  0  0
 31 28  1  0  0  0  0
 31 30  2  0  0  0  0
 32 31  1  0  0  0  0
 33 32  2  0  0  0  0
 33 34  1  0  0  0  0
 34 35  2  0  0  0  0
 35 30  1  0  0  0  0
 37 32  1  0  0  0  0
 39 38  1  0  0  0  0
 40 39  1  0  0  0  0
 40 34  1  0  0  0  0
 41 40  2  0  0  0  0
 42 43  2  0  0  0  0
 42 41  1  0  0  0  0
 43 44  1  0  0  0  0
 44 48  1  0  0  0  0
 44 39  2  0  0  0  0
 45 41  1  0  0  0  0
 46 42  1  0  0  0  0
 47 43  1  0  0  0  0
M  END
>  <minimizedAffinity>
-6.54475832

$$$$

 OpenBabel03252501523D

 48 51  0  0  1  0  0  0  0  0999 V2000
   36.8170   24.7390   38.0940 C   0  0  0  0  0  0  0  0  0  0  0  0
   37.8630   24.9490   37.7430 H   0  0  0  0  0  0  0  0  0  0  0  0
   36.4060   23.8460   37.5960 H   0  0  0  0  0  0  0  0  0  0  0  0
   36.8780   24.5050   39.5180 N   0  0  0  0  0  0  0  0  0  0  0  0
   37.2230   23.1520   39.7900 C   0  0  0  0  0  0  0  0  0  0  0  0
   38.0570   23.1360   41.0300 C   0  0  0  0  0  0  0  0  0  0  0  0
   38.7060   24.5020   41.0170 C   0  0  0  0  0  0  0  0  0  0  0  0
   37.8170   25.3750   40.1490 C   0  0  2  0  0  0  0  0  0  0  0  0
   36.2670   22.5850   39.9000 H   0  0  0  0  0  0  0  0  0  0  0  0
   37.8420   22.7470   38.9490 H   0  0  0  0  0  0  0  0  0  0  0  0
   37.3620   23.0040   41.8900 H   0  0  0  0  0  0  0  0  0  0  0  0
   38.8580   22.3750   41.0260 H   0  0  0  0  0  0  0  0  0  0  0  0
   39.7460   24.4560   40.6950 H   0  0  0  0  0  0  0  0  0  0  0  0
   38.7000   24.8290   42.0960 H   0  0  0  0  0  0  0  0  0  0  0  0
   38.4620   25.8250   39.3750 H   0  0  0  0  0  0  0  0  0  0  0  0
   37.5920   27.7790   40.5250 C   0  0  1  0  0  3  0  0  0  0  0  0
   37.1980   26.4140   41.0350 C   0  0  2  0  0  3  0  0  0  0  0  0
   37.5400   26.2460   42.3730 O   0  0  0  0  0  0  0  0  0  0  0  0
   36.7400   27.1100   43.1180 C   0  0  0  0  0  2  0  0  0  0  0  0
   36.8970   28.5570   42.7070 C   0  0  2  0  0  3  0  0  0  0  0  0
   38.0050   28.6500   41.7100 C   0  0  2  0  0  3  0  0  0  0  0  0
   38.6440   27.7740   39.6350 O   0  0  0  0  0  0  0  0  0  0  0  0
   39.3630   28.4090   39.8550 H   0  0  0  0  0  0  0  0  0  0  0  0
   37.2480   29.2650   43.8760 O   0  0  0  0  0  0  0  0  0  0  0  0
   38.2390   29.1180   44.0020 H   0  0  0  0  0  0  0  0  0  0  0  0
   38.2280   29.9480   41.2670 O   0  0  0  0  0  0  0  0  0  0  0  0
   38.0870   30.0420   40.2870 H   0  0  0  0  0  0  0  0  0  0  0  0
   34.7140   25.7430   37.3330 C   0  0  0  0  0  3  0  0  0  0  0  0
   35.9780   25.9340   37.7350 C   0  0  0  0  0  3  0  0  0  0  0  0
   32.7220   26.8060   36.1160 C   0  0  0  0  0  0  0  0  0  0  0  0
   33.8570   26.9000   36.9700 C   0  0  0  0  0  0  0  0  0  0  0  0
   34.2070   28.1490   37.5110 C   0  0  0  0  0  0  0  0  0  0  0  0
   33.4350   29.2220   37.1890 N   0  0  0  0  0  0  0  0  0  0  0  0
   32.3750   29.0990   36.3840 C   0  0  0  0  0  0  0  0  0  0  0  0
   32.0480   27.9110   35.8730 N   0  0  0  0  0  0  0  0  0  0  0  0
   32.5110   25.8200   35.7370 H   0  0  0  0  0  0  0  0  0  0  0  0
   35.0630   28.2140   38.1530 H   0  0  0  0  0  0  0  0  0  0  0  0
   30.7500   30.3140   38.2560 F   0  0  0  0  0  0  0  0  0  0  0  0
   30.7740   30.8640   37.0240 C   0  0  0  0  0  0  0  0  0  0  0  0
   31.5770   30.2780   36.0670 C   0  0  0  0  0  0  0  0  0  0  0  0
   31.6600   30.7840   34.7670 C   0  0  0  0  0  0  0  0  0  0  0  0
   30.8960   31.9090   34.4710 C   0  0  0  0  0  0  0  0  0  0  0  0
   30.0750   32.5180   35.4280 C   0  0  0  0  0  0  0  0  0  0  0  0
   30.0220   31.9840   36.7050 C   0  0  0  0  0  0  0  0  0  0  0  0
   32.2910   30.3220   34.0200 H   0  0  0  0  0  0  0  0  0  0  0  0
   30.9920   32.2660   33.4510 H   0  0  0  0  0  0  0  0  0  0  0  0
   29.5090   33.3880   35.1270 H   0  0  0  0  0  0  0  0  0  0  0  0
   29.3900   32.4440   37.4590 H   0  0  0  0  0  0  0  0  0  0  0  0
  1  4  1  0  0  0  0
  2  1  1  0  0  0  0
  3  1  1  0  0  0  0
  4  5  1  0  0  0  0
  4  8  1  0  0  0  0
  5  9  1  0  0  0  0
  5  6  1  0  0  0  0
  6 11  1  0  0  0  0
  7  6  1  0  0  0  0
  7 14  1  0  0  0  0
  8 15  1  6  0  0  0
  8  7  1  0  0  0  0
  8 17  1  0  0  0  0
 10  5  1  0  0  0  0
 12  6  1  0  0  0  0
 13  7  1  0  0  0  0
 16 22  1  6  0  0  0
 16 17  1  0  0  0  0
 16 21  1  0  0  0  0
 17 18  1  1  0  0  0
 18 19  1  0  0  0  0
 20 19  1  0  0  0  0
 20 24  1  1  0  0  0
 21 26  1  6  0  0  0
 21 20  1  0  0  0  0
 22 23  1  0  0  0  0
 24 25  1  0  0  0  0
 27 26  1  0  0  0  0
 28 29  2  0  0  0  0
 29  1  1  0  0  0  0
 30 31  1  0  0  0  0
 31 28  1  0  0  0  0
 31 32  2  0  0  0  0
 32 37  1  0  0  0  0
 33 32  1  0  0  0  0
 34 33  2  0  0  0  0
 35 30  2  0  0  0  0
 35 34  1  0  0  0  0
 36 30  1  0  0  0  0
 39 38  1  0  0  0  0
 40 34  1  0  0  0  0
 40 39  2  0  0  0  0
 41 40  1  0  0  0  0
 42 41  2  0  0  0  0
 42 43  1  0  0  0  0
 43 44  2  0  0  0  0
 44 39  1  0  0  0  0
 44 48  1  0  0  0  0
 45 41  1  0  0  0  0
 46 42  1  0  0  0  0
 47 43  1  0  0  0  0
M  END
>  <minimizedAffinity>
-6.37679529

$$$$

 OpenBabel03252501523D

 48 51  0  0  1  0  0  0  0  0999 V2000
   36.0730   30.3480   40.9050 C   0  0  0  0  0  0  0  0  0  0  0  0
   35.4330   31.1540   40.4540 H   0  0  0  0  0  0  0  0  0  0  0  0
   35.7100   30.0710   41.9080 H   0  0  0  0  0  0  0  0  0  0  0  0
   35.9980   29.1980   40.0350 N   0  0  0  0  0  0  0  0  0  0  0  0
   35.7840   29.6010   38.6880 C   0  0  0  0  0  0  0  0  0  0  0  0
   36.5120   28.6390   37.8050 C   0  0  0  0  0  0  0  0  0  0  0  0
   37.6400   28.1560   38.6890 C   0  0  0  0  0  0  0  0  0  0  0  0
   37.1830   28.4060   40.1160 C   0  0  2  0  0  0  0  0  0  0  0  0
   34.6810   29.6010   38.5160 H   0  0  0  0  0  0  0  0  0  0  0  0
   36.2220   30.6190   38.5280 H   0  0  0  0  0  0  0  0  0  0  0  0
   35.7960   27.8250   37.5470 H   0  0  0  0  0  0  0  0  0  0  0  0
   36.9560   29.0990   36.9030 H   0  0  0  0  0  0  0  0  0  0  0  0
   38.5890   28.6240   38.4310 H   0  0  0  0  0  0  0  0  0  0  0  0
   37.7300   27.0560   38.4580 H   0  0  0  0  0  0  0  0  0  0  0  0
   37.9740   28.9960   40.6100 H   0  0  0  0  0  0  0  0  0  0  0  0
   37.8630   27.0070   42.0000 C   0  0  1  0  0  3  0  0  0  0  0  0
   36.9900   27.0710   40.7710 C   0  0  2  0  0  3  0  0  0  0  0  0
   37.2410   26.0120   39.9050 O   0  0  0  0  0  0  0  0  0  0  0  0
   36.8150   24.8470   40.5400 C   0  0  0  0  0  2  0  0  0  0  0  0
   37.4990   24.6190   41.8690 C   0  0  2  0  0  3  0  0  0  0  0  0
   38.5660   25.6500   42.0370 C   0  0  2  0  0  3  0  0  0  0  0  0
   38.8420   27.9760   42.0570 O   0  0  0  0  0  0  0  0  0  0  0  0
   39.7440   27.6280   42.2420 H   0  0  0  0  0  0  0  0  0  0  0  0
   38.0840   23.3370   41.8010 O   0  0  0  0  0  0  0  0  0  0  0  0
   38.9490   23.4540   41.2940 H   0  0  0  0  0  0  0  0  0  0  0  0
   39.2560   25.5260   43.2370 O   0  0  0  0  0  0  0  0  0  0  0  0
   39.1630   26.3330   43.8110 H   0  0  0  0  0  0  0  0  0  0  0  0
   37.7340   32.1070   40.5000 C   0  0  0  0  0  3  0  0  0  0  0  0
   37.4670   30.9010   41.0210 C   0  0  0  0  0  3  0  0  0  0  0  0
   39.4700   33.9340   40.0290 C   0  0  0  0  0  0  0  0  0  0  0  0
   39.0990   32.6820   40.5960 C   0  0  0  0  0  0  0  0  0  0  0  0
   40.0620   31.9300   41.2890 C   0  0  0  0  0  0  0  0  0  0  0  0
   41.3200   32.4400   41.3860 N   0  0  0  0  0  0  0  0  0  0  0  0
   41.6350   33.6190   40.8430 C   0  0  0  0  0  0  0  0  0  0  0  0
   40.7170   34.3290   40.1850 N   0  0  0  0  0  0  0  0  0  0  0  0
   38.6840   34.4590   39.5120 H   0  0  0  0  0  0  0  0  0  0  0  0
   39.7770   30.9880   41.7140 H   0  0  0  0  0  0  0  0  0  0  0  0
   43.6370   32.9100   39.0790 F   0  0  0  0  0  0  0  0  0  0  0  0
   43.9770   33.7540   40.0770 C   0  0  0  0  0  0  0  0  0  0  0  0
   42.9970   34.1260   40.9740 C   0  0  0  0  0  0  0  0  0  0  0  0
   43.2640   34.9940   42.0360 C   0  0  0  0  0  0  0  0  0  0  0  0
   44.5660   35.4740   42.1550 C   0  0  0  0  0  0  0  0  0  0  0  0
   45.5740   35.1080   41.2550 C   0  0  0  0  0  0  0  0  0  0  0  0
   45.2660   34.2440   40.2170 C   0  0  0  0  0  0  0  0  0  0  0  0
   42.4940   35.2830   42.7370 H   0  0  0  0  0  0  0  0  0  0  0  0
   44.7270   36.1430   42.9930 H   0  0  0  0  0  0  0  0  0  0  0  0
   46.5620   35.5180   41.4090 H   0  0  0  0  0  0  0  0  0  0  0  0
   46.0370   33.9500   39.5100 H   0  0  0  0  0  0  0  0  0  0  0  0
  1 29  1  0  0  0  0
  1  3  1  0  0  0  0
  2  1  1  0  0  0  0
  4  8  1  0  0  0  0
  4  1  1  0  0  0  0
  5  4  1  0  0  0  0
  6  5  1  0  0  0  0
  6  7  1  0  0  0  0
  7  8  1  0  0  0  0
  8 15  1  1  0  0  0
  8 17  1  0  0  0  0
  9  5  1  0  0  0  0
 10  5  1  0  0  0  0
 11  6  1  0  0  0  0
 12  6  1  0  0  0  0
 13  7  1  0  0  0  0
 14  7  1  0  0  0  0
 16 21  1  0  0  0  0
 16 22  1  6  0  0  0
 17 18  1  6  0  0  0
 17 16  1  0  0  0  0
 18 19  1  0  0  0  0
 19 20  1  0  0  0  0
 20 24  1  6  0  0  0
 20 21  1  0  0  0  0
 21 26  1  1  0  0  0
 22 23  1  0  0  0  0
 25 24  1  0  0  0  0
 26 27  1  0  0  0  0
 28 31  1  0  0  0  0
 28 29  2  0  0  0  0
 30 35  2  0  0  0  0
 30 31  1  0  0  0  0
 31 32  2  0  0  0  0
 32 33  1  0  0  0  0
 32 37  1  0  0  0  0
 34 40  1  0  0  0  0
 34 33  2  0  0  0  0
 35 34  1  0  0  0  0
 36 30  1  0  0  0  0
 38 39  1  0  0  0  0
 39 44  2  0  0  0  0
 39 40  1  0  0  0  0
 40 41  2  0  0  0  0
 41 42  1  0  0  0  0
 41 45  1  0  0  0  0
 42 46  1  0  0  0  0
 43 47  1  0  0  0  0
 43 42  2  0  0  0  0
 44 43  1  0  0  0  0
 48 44  1  0  0  0  0
M  END
>  <minimizedAffinity>
-6.21320343

$$$$

 OpenBabel03252501523D

 48 51  0  0  1  0  0  0  0  0999 V2000
   37.9600   32.7800   39.6300 C   0  0  0  0  0  0  0  0  0  0  0  0
   37.3170   33.5240   40.1740 H   0  0  0  0  0  0  0  0  0  0  0  0
   38.2850   33.1790   38.6550 H   0  0  0  0  0  0  0  0  0  0  0  0
   39.1200   32.5260   40.4520 N   0  0  0  0  0  0  0  0  0  0  0  0
   38.8350   31.5300   41.4260 C   0  0  0  0  0  0  0  0  0  0  0  0
   40.0800   30.7310   41.6350 C   0  0  0  0  0  0  0  0  0  0  0  0
   40.7930   30.8630   40.3090 C   0  0  0  0  0  0  0  0  0  0  0  0
   40.2380   32.1210   39.6640 C   0  0  2  0  0  0  0  0  0  0  0  0
   38.4960   32.0600   42.3490 H   0  0  0  0  0  0  0  0  0  0  0  0
   38.0420   30.8420   41.0370 H   0  0  0  0  0  0  0  0  0  0  0  0
   40.6410   31.2120   42.4690 H   0  0  0  0  0  0  0  0  0  0  0  0
   39.9020   29.6560   41.8240 H   0  0  0  0  0  0  0  0  0  0  0  0
   40.6950   29.9630   39.7010 H   0  0  0  0  0  0  0  0  0  0  0  0
   41.8820   30.9700   40.5810 H   0  0  0  0  0  0  0  0  0  0  0  0
   39.8820   31.8390   38.6580 H   0  0  0  0  0  0  0  0  0  0  0  0
   41.3710   33.7340   38.2210 C   0  0  1  0  0  3  0  0  0  0  0  0
   41.3470   33.1270   39.6020 C   0  0  2  0  0  3  0  0  0  0  0  0
   42.5800   32.5820   39.9470 O   0  0  0  0  0  0  0  0  0  0  0  0
   43.4800   33.6390   40.0760 C   0  0  0  0  0  2  0  0  0  0  0  0
   43.5980   34.4670   38.8160 C   0  0  2  0  0  3  0  0  0  0  0  0
   42.8180   33.7980   37.7330 C   0  0  2  0  0  3  0  0  0  0  0  0
   40.6520   33.0340   37.2760 O   0  0  0  0  0  0  0  0  0  0  0  0
   41.1510   32.8410   36.4490 H   0  0  0  0  0  0  0  0  0  0  0  0
   44.9680   34.4800   38.4770 O   0  0  0  0  0  0  0  0  0  0  0  0
   45.1450   33.6050   38.0050 H   0  0  0  0  0  0  0  0  0  0  0  0
   42.8640   34.4870   36.5270 O   0  0  0  0  0  0  0  0  0  0  0  0
   41.9630   34.7830   36.2270 H   0  0  0  0  0  0  0  0  0  0  0  0
   37.0680   31.0180   38.1770 C   0  0  0  0  0  3  0  0  0  0  0  0
   37.1240   31.5500   39.4050 C   0  0  0  0  0  3  0  0  0  0  0  0
   35.3300   29.2580   38.8570 C   0  0  0  0  0  0  0  0  0  0  0  0
   36.2510   29.8050   37.9190 C   0  0  0  0  0  0  0  0  0  0  0  0
   36.4150   29.1770   36.6730 C   0  0  0  0  0  0  0  0  0  0  0  0
   35.6770   28.0630   36.4180 N   0  0  0  0  0  0  0  0  0  0  0  0
   34.8200   27.5760   37.3210 C   0  0  0  0  0  0  0  0  0  0  0  0
   34.6690   28.1750   38.5030 N   0  0  0  0  0  0  0  0  0  0  0  0
   35.2540   29.7880   39.7920 H   0  0  0  0  0  0  0  0  0  0  0  0
   37.1100   29.5930   35.9700 H   0  0  0  0  0  0  0  0  0  0  0  0
   35.5800   25.0700   38.1950 F   0  0  0  0  0  0  0  0  0  0  0  0
   34.4540   25.1390   37.4530 C   0  0  0  0  0  0  0  0  0  0  0  0
   34.0500   26.3790   37.0020 C   0  0  0  0  0  0  0  0  0  0  0  0
   32.8970   26.5400   36.2290 C   0  0  0  0  0  0  0  0  0  0  0  0
   32.1660   25.3930   35.9290 C   0  0  0  0  0  0  0  0  0  0  0  0
   32.5600   24.1270   36.3770 C   0  0  0  0  0  0  0  0  0  0  0  0
   33.7100   24.0120   37.1400 C   0  0  0  0  0  0  0  0  0  0  0  0
   32.5830   27.5130   35.8770 H   0  0  0  0  0  0  0  0  0  0  0  0
   31.2800   25.5650   35.3260 H   0  0  0  0  0  0  0  0  0  0  0  0
   31.9450   23.2810   36.1050 H   0  0  0  0  0  0  0  0  0  0  0  0
   34.0300   23.0370   37.4960 H   0  0  0  0  0  0  0  0  0  0  0  0
  1  2  1  0  0  0  0
  1  4  1  0  0  0  0
  3  1  1  0  0  0  0
  4  5  1  0  0  0  0
  5  6  1  0  0  0  0
  5  9  1  0  0  0  0
  6 12  1  0  0  0  0
  6 11  1  0  0  0  0
  7 14  1  0  0  0  0
  7  6  1  0  0  0  0
  8 15  1  6  0  0  0
  8  7  1  0  0  0  0
  8  4  1  0  0  0  0
 10  5  1  0  0  0  0
 13  7  1  0  0  0  0
 16 22  1  6  0  0  0
 16 17  1  0  0  0  0
 17  8  1  0  0  0  0
 17 18  1  6  0  0  0
 18 19  1  0  0  0  0
 20 24  1  6  0  0  0
 20 19  1  0  0  0  0
 21 26  1  6  0  0  0
 21 16  1  0  0  0  0
 21 20  1  0  0  0  0
 23 22  1  0  0  0  0
 25 24  1  0  0  0  0
 27 26  1  0  0  0  0
 28 29  2  0  0  0  0
 29  1  1  0  0  0  0
 30 36  1  0  0  0  0
 31 28  1  0  0  0  0
 31 30  2  0  0  0  0
 32 31  1  0  0  0  0
 33 32  2  0  0  0  0
 33 34  1  0  0  0  0
 34 35  2  0  0  0  0
 35 30  1  0  0  0  0
 37 32  1  0  0  0  0
 39 38  1  0  0  0  0
 40 34  1  0  0  0  0
 40 39  2  0  0  0  0
 41 40  1  0  0  0  0
 42 41  2  0  0  0  0
 42 43  1  0  0  0  0
 43 44  2  0  0  0  0
 44 39  1  0  0  0  0
 44 48  1  0  0  0  0
 45 41  1  0  0  0  0
 46 42  1  0  0  0  0
 47 43  1  0  0  0  0
M  END
>  <minimizedAffinity>
-6.08046103

$$$$

 OpenBabel03252501523D

 48 51  0  0  1  0  0  0  0  0999 V2000
   38.9000   29.6530   40.9200 C   0  0  0  0  0  0  0  0  0  0  0  0
   39.1220   30.7420   41.0810 H   0  0  0  0  0  0  0  0  0  0  0  0
   39.6450   29.1920   40.2510 H   0  0  0  0  0  0  0  0  0  0  0  0
   38.9520   29.0050   42.2100 N   0  0  0  0  0  0  0  0  0  0  0  0
   37.7230   29.1750   42.9060 C   0  0  0  0  0  0  0  0  0  0  0  0
   37.4780   27.9360   43.7050 C   0  0  0  0  0  0  0  0  0  0  0  0
   38.2060   26.8740   42.9120 C   0  0  0  0  0  0  0  0  0  0  0  0
   39.2420   27.6140   42.0830 C   0  0  2  0  0  0  0  0  0  0  0  0
   37.8280   30.0890   43.5400 H   0  0  0  0  0  0  0  0  0  0  0  0
   36.8870   29.2840   42.1690 H   0  0  0  0  0  0  0  0  0  0  0  0
   37.9300   28.1000   44.7100 H   0  0  0  0  0  0  0  0  0  0  0  0
   36.4140   27.6440   43.7730 H   0  0  0  0  0  0  0  0  0  0  0  0
   37.5210   26.2570   42.3310 H   0  0  0  0  0  0  0  0  0  0  0  0
   38.6800   26.2120   43.6920 H   0  0  0  0  0  0  0  0  0  0  0  0
   39.0910   27.3120   41.0320 H   0  0  0  0  0  0  0  0  0  0  0  0
   41.3900   26.6420   41.4420 C   0  0  1  0  0  3  0  0  0  0  0  0
   40.5960   27.2170   42.5900 C   0  0  2  0  0  3  0  0  0  0  0  0
   40.5260   26.3330   43.6620 O   0  0  0  0  0  0  0  0  0  0  0  0
   41.8110   26.2160   44.1880 C   0  0  0  0  0  2  0  0  0  0  0  0
   42.8210   25.7360   43.1700 C   0  0  2  0  0  3  0  0  0  0  0  0
   42.0960   25.3720   41.9160 C   0  0  2  0  0  3  0  0  0  0  0  0
   40.6370   26.3030   40.3390 O   0  0  0  0  0  0  0  0  0  0  0  0
   40.7990   25.3920   40.0030 H   0  0  0  0  0  0  0  0  0  0  0  0
   43.4250   24.5870   43.7210 O   0  0  0  0  0  0  0  0  0  0  0  0
   42.7840   23.8270   43.5480 H   0  0  0  0  0  0  0  0  0  0  0  0
   42.9430   24.9180   40.9120 O   0  0  0  0  0  0  0  0  0  0  0  0
   42.9100   25.4940   40.1020 H   0  0  0  0  0  0  0  0  0  0  0  0
   37.4570   29.2530   38.9780 C   0  0  0  0  0  3  0  0  0  0  0  0
   37.5420   29.5650   40.2780 C   0  0  0  0  0  3  0  0  0  0  0  0
   35.9480   29.2520   36.9040 C   0  0  0  0  0  0  0  0  0  0  0  0
   36.1330   29.1590   38.3120 C   0  0  0  0  0  0  0  0  0  0  0  0
   35.0140   28.9690   39.1400 C   0  0  0  0  0  0  0  0  0  0  0  0
   33.7910   28.8810   38.5490 N   0  0  0  0  0  0  0  0  0  0  0  0
   33.6530   28.9720   37.2230 C   0  0  0  0  0  0  0  0  0  0  0  0
   34.7190   29.1540   36.4420 N   0  0  0  0  0  0  0  0  0  0  0  0
   36.8480   29.3980   36.3290 H   0  0  0  0  0  0  0  0  0  0  0  0
   35.1580   28.8990   40.2000 H   0  0  0  0  0  0  0  0  0  0  0  0
   32.7080   26.6210   36.1270 F   0  0  0  0  0  0  0  0  0  0  0  0
   31.8770   27.6840   36.0940 C   0  0  0  0  0  0  0  0  0  0  0  0
   32.3220   28.8730   36.6340 C   0  0  0  0  0  0  0  0  0  0  0  0
   31.5250   30.0210   36.6410 C   0  0  0  0  0  0  0  0  0  0  0  0
   30.2560   29.9190   36.0780 C   0  0  0  0  0  0  0  0  0  0  0  0
   29.7860   28.7210   35.5250 C   0  0  0  0  0  0  0  0  0  0  0  0
   30.6090   27.6070   35.5380 C   0  0  0  0  0  0  0  0  0  0  0  0
   31.8770   30.9500   37.0650 H   0  0  0  0  0  0  0  0  0  0  0  0
   29.6740   30.8340   36.1050 H   0  0  0  0  0  0  0  0  0  0  0  0
   28.7910   28.7160   35.1040 H   0  0  0  0  0  0  0  0  0  0  0  0
   30.2600   26.6710   35.1130 H   0  0  0  0  0  0  0  0  0  0  0  0
  1  2  1  0  0  0  0
  1  4  1  0  0  0  0
  3  1  1  0  0  0  0
  4  5  1  0  0  0  0
  5  9  1  0  0  0  0
  5  6  1  0  0  0  0
  6 12  1  0  0  0  0
  6 11  1  0  0  0  0
  7 14  1  0  0  0  0
  7  6  1  0  0  0  0
  8 15  1  6  0  0  0
  8  4  1  0  0  0  0
  8 17  1  0  0  0  0
  8  7  1  0  0  0  0
 10  5  1  0  0  0  0
 13  7  1  0  0  0  0
 16 22  1  6  0  0  0
 16 21  1  0  0  0  0
 16 17  1  0  0  0  0
 17 18  1  1  0  0  0
 18 19  1  0  0  0  0
 20 24  1  1  0  0  0
 20 19  1  0  0  0  0
 21 26  1  6  0  0  0
 21 20  1  0  0  0  0
 23 22  1  0  0  0  0
 25 24  1  0  0  0  0
 27 26  1  0  0  0  0
 28 29  2  0  0  0  0
 29  1  1  0  0  0  0
 30 31  1  0  0  0  0
 31 28  1  0  0  0  0
 31 32  2  0  0  0  0
 32 37  1  0  0  0  0
 33 32  1  0  0  0  0
 34 33  2  0  0  0  0
 35 30  2  0  0  0  0
 35 34  1  0  0  0  0
 36 30  1  0  0  0  0
 39 38  1  0  0  0  0
 39 40  1  0  0  0  0
 40 41  2  0  0  0  0
 40 34  1  0  0  0  0
 41 45  1  0  0  0  0
 42 46  1  0  0  0  0
 42 41  1  0  0  0  0
 43 44  1  0  0  0  0
 43 42  2  0  0  0  0
 44 39  2  0  0  0  0
 47 43  1  0  0  0  0
 48 44  1  0  0  0  0
M  END
>  <minimizedAffinity>
-6.00837898

$$$$

 OpenBabel03252501523D

 48 51  0  0  1  0  0  0  0  0999 V2000
   37.7510   30.7170   41.4450 C   0  0  0  0  0  0  0  0  0  0  0  0
   38.5710   30.7040   42.2120 H   0  0  0  0  0  0  0  0  0  0  0  0
   36.8020   31.0630   41.8880 H   0  0  0  0  0  0  0  0  0  0  0  0
   38.1500   31.6310   40.4000 N   0  0  0  0  0  0  0  0  0  0  0  0
   37.0100   32.2180   39.7860 C   0  0  0  0  0  0  0  0  0  0  0  0
   37.3690   33.6190   39.4060 C   0  0  0  0  0  0  0  0  0  0  0  0
   38.4380   33.9780   40.4130 C   0  0  0  0  0  0  0  0  0  0  0  0
   39.0050   32.6570   40.9030 C   0  0  2  0  0  0  0  0  0  0  0  0
   36.7450   31.5820   38.9070 H   0  0  0  0  0  0  0  0  0  0  0  0
   36.1680   32.2640   40.5240 H   0  0  0  0  0  0  0  0  0  0  0  0
   37.7610   33.5840   38.3630 H   0  0  0  0  0  0  0  0  0  0  0  0
   36.5410   34.3430   39.5110 H   0  0  0  0  0  0  0  0  0  0  0  0
   38.0560   34.6250   41.2010 H   0  0  0  0  0  0  0  0  0  0  0  0
   39.1950   34.5720   39.8230 H   0  0  0  0  0  0  0  0  0  0  0  0
   38.9400   32.6660   42.0050 H   0  0  0  0  0  0  0  0  0  0  0  0
   41.2320   31.8220   41.4620 C   0  0  1  0  0  3  0  0  0  0  0  0
   40.4240   32.5660   40.4270 C   0  0  2  0  0  3  0  0  0  0  0  0
   40.9710   33.8140   40.1460 O   0  0  0  0  0  0  0  0  0  0  0  0
   42.1900   33.5970   39.5060 C   0  0  0  0  0  2  0  0  0  0  0  0
   43.1490   32.7710   40.3320 C   0  0  2  0  0  3  0  0  0  0  0  0
   42.5520   32.5600   41.6840 C   0  0  2  0  0  3  0  0  0  0  0  0
   40.6190   31.7030   42.6900 O   0  0  0  0  0  0  0  0  0  0  0  0
   41.1800   31.9760   43.4510 H   0  0  0  0  0  0  0  0  0  0  0  0
   44.3310   33.5320   40.4480 O   0  0  0  0  0  0  0  0  0  0  0  0
   44.1600   34.2000   41.1850 H   0  0  0  0  0  0  0  0  0  0  0  0
   43.3620   31.8050   42.5230 O   0  0  0  0  0  0  0  0  0  0  0  0
   42.9230   30.9600   42.8120 H   0  0  0  0  0  0  0  0  0  0  0  0
   37.3380   28.3330   41.8400 C   0  0  0  0  0  3  0  0  0  0  0  0
   37.5800   29.3070   40.9520 C   0  0  0  0  0  3  0  0  0  0  0  0
   37.2450   25.8040   42.2560 C   0  0  0  0  0  0  0  0  0  0  0  0
   37.1650   26.9290   41.3880 C   0  0  0  0  0  0  0  0  0  0  0  0
   36.9110   26.7250   40.0220 C   0  0  0  0  0  0  0  0  0  0  0  0
   36.7510   25.4450   39.5870 N   0  0  0  0  0  0  0  0  0  0  0  0
   36.8310   24.4110   40.4300 C   0  0  0  0  0  0  0  0  0  0  0  0
   37.0740   24.6100   41.7260 N   0  0  0  0  0  0  0  0  0  0  0  0
   37.4420   26.0320   43.2910 H   0  0  0  0  0  0  0  0  0  0  0  0
   36.8520   27.5750   39.3720 H   0  0  0  0  0  0  0  0  0  0  0  0
   34.5050   23.6160   39.1720 F   0  0  0  0  0  0  0  0  0  0  0  0
   35.4780   22.6870   39.2930 C   0  0  0  0  0  0  0  0  0  0  0  0
   36.6520   23.0560   39.9180 C   0  0  0  0  0  0  0  0  0  0  0  0
   37.7090   22.1580   40.0860 C   0  0  0  0  0  0  0  0  0  0  0  0
   37.5320   20.8670   39.5950 C   0  0  0  0  0  0  0  0  0  0  0  0
   36.3480   20.4740   38.9580 C   0  0  0  0  0  0  0  0  0  0  0  0
   35.3260   21.3960   38.8140 C   0  0  0  0  0  0  0  0  0  0  0  0
   38.6270   22.4500   40.5760 H   0  0  0  0  0  0  0  0  0  0  0  0
   38.3770   20.2040   39.7480 H   0  0  0  0  0  0  0  0  0  0  0  0
   36.2810   19.4550   38.6030 H   0  0  0  0  0  0  0  0  0  0  0  0
   34.4010   21.1070   38.3220 H   0  0  0  0  0  0  0  0  0  0  0  0
  1  3  1  0  0  0  0
  1  2  1  0  0  0  0
  4  8  1  0  0  0  0
  4  1  1  0  0  0  0
  5  4  1  0  0  0  0
  5 10  1  0  0  0  0
  6 12  1  0  0  0  0
  6  5  1  0  0  0  0
  6  7  1  0  0  0  0
  7  8  1  0  0  0  0
  7 13  1  0  0  0  0
  8 15  1  1  0  0  0
  9  5  1  0  0  0  0
 11  6  1  0  0  0  0
 14  7  1  0  0  0  0
 16 21  1  0  0  0  0
 16 22  1  1  0  0  0
 17 18  1  1  0  0  0
 17  8  1  0  0  0  0
 17 16  1  0  0  0  0
 19 18  1  0  0  0  0
 19 20  1  0  0  0  0
 20 24  1  1  0  0  0
 20 21  1  0  0  0  0
 21 26  1  1  0  0  0
 22 23  1  0  0  0  0
 24 25  1  0  0  0  0
 26 27  1  0  0  0  0
 29  1  1  0  0  0  0
 29 28  2  0  0  0  0
 30 36  1  0  0  0  0
 31 28  1  0  0  0  0
 31 30  2  0  0  0  0
 32 31  1  0  0  0  0
 33 32  2  0  0  0  0
 33 34  1  0  0  0  0
 34 35  2  0  0  0  0
 35 30  1  0  0  0  0
 37 32  1  0  0  0  0
 38 39  1  0  0  0  0
 39 40  1  0  0  0  0
 40 41  2  0  0  0  0
 40 34  1  0  0  0  0
 41 45  1  0  0  0  0
 42 46  1  0  0  0  0
 42 41  1  0  0  0  0
 43 42  2  0  0  0  0
 44 43  1  0  0  0  0
 44 39  2  0  0  0  0
 47 43  1  0  0  0  0
 48 44  1  0  0  0  0
M  END
>  <minimizedAffinity>
-5.95665836

$$$$
