
 OpenBabel03242519313D

 51 54  0  0  1  0  0  0  0  0999 V2000
   50.6150   31.3890   42.5680 C   0  0  0  0  0  0  0  0  0  0  0  0
   51.4550   31.1790   41.5470 N   0  0  0  0  0  0  0  0  0  0  0  0
   52.1030   30.0000   41.7370 C   0  0  0  0  0  0  0  0  0  0  0  0
   51.6430   29.4900   42.8970 N   0  0  0  0  0  0  0  0  0  0  0  0
   50.7380   30.3230   43.4140 N   0  0  0  0  0  0  0  0  0  0  0  0
   52.8410   29.5650   41.0800 H   0  0  0  0  0  0  0  0  0  0  0  0
   47.8610   33.8080   42.8800 C   0  0  0  0  0  0  0  0  0  0  0  0
   48.5430   35.0130   42.5570 C   0  0  0  0  0  0  0  0  0  0  0  0
   49.9060   34.9680   42.2420 C   0  0  0  0  0  0  0  0  0  0  0  0
   50.5130   33.7370   42.2670 N   0  0  0  0  0  0  0  0  0  0  0  0
   49.8010   32.6000   42.5890 C   0  0  0  0  0  0  0  0  0  0  0  0
   48.5070   32.6360   42.8880 N   0  0  0  0  0  0  0  0  0  0  0  0
   48.1330   35.9840   42.5210 H   0  0  0  0  0  0  0  0  0  0  0  0
   50.4700   35.8510   41.9900 H   0  0  0  0  0  0  0  0  0  0  0  0
   46.4400   33.9800   43.2000 C   0  0  0  0  0  0  0  0  0  0  0  0
   45.7660   35.0090   42.4490 C   0  0  0  0  0  0  0  0  0  0  0  0
   45.3350   36.1730   43.2410 C   0  0  0  0  0  0  0  0  0  0  0  0
   44.4500   35.7370   44.4150 C   0  0  0  0  0  0  0  0  0  0  0  0
   44.9560   34.5320   45.1410 C   0  0  0  0  0  0  0  0  0  0  0  0
   46.3870   34.2050   44.7480 C   0  0  0  0  0  0  0  0  0  0  0  0
   45.9560   32.9620   43.1140 H   0  0  0  0  0  0  0  0  0  0  0  0
   44.8340   34.5850   41.9690 H   0  0  0  0  0  0  0  0  0  0  0  0
   46.3650   35.3820   41.5810 H   0  0  0  0  0  0  0  0  0  0  0  0
   44.6490   36.7860   42.5890 H   0  0  0  0  0  0  0  0  0  0  0  0
   46.1060   36.8720   43.5800 H   0  0  0  0  0  0  0  0  0  0  0  0
   43.4630   35.4410   43.9550 H   0  0  0  0  0  0  0  0  0  0  0  0
   44.2360   36.6150   45.0500 H   0  0  0  0  0  0  0  0  0  0  0  0
   45.0020   34.8010   46.2160 H   0  0  0  0  0  0  0  0  0  0  0  0
   44.3000   33.6400   45.0630 H   0  0  0  0  0  0  0  0  0  0  0  0
   47.0030   35.0890   44.9800 H   0  0  0  0  0  0  0  0  0  0  0  0
   46.6950   33.2750   45.2670 H   0  0  0  0  0  0  0  0  0  0  0  0
   52.0540   28.2640   43.5290 C   0  0  0  0  0  0  0  0  0  0  0  0
   52.8680   27.7500   43.0350 H   0  0  0  0  0  0  0  0  0  0  0  0
   51.1820   27.5430   43.4890 H   0  0  0  0  0  0  0  0  0  0  0  0
   52.3900   28.5180   44.9290 C   0  0  0  0  0  3  0  0  0  0  0  0
   51.7700   28.3040   46.0840 C   0  0  0  0  0  3  0  0  0  0  0  0
   52.3460   28.5650   47.4890 C   0  0  0  0  0  0  0  0  0  0  0  0
   52.2820   27.6260   48.0340 H   0  0  0  0  0  0  0  0  0  0  0  0
   53.4000   28.8430   47.3240 H   0  0  0  0  0  0  0  0  0  0  0  0
   52.3970   29.9710   49.4560 C   0  0  1  0  0  3  0  0  0  0  0  0
   51.6650   29.7230   48.1480 C   0  0  2  0  0  3  0  0  0  0  0  0
   50.3050   29.6130   48.2810 O   0  0  0  0  0  0  0  0  0  0  0  0
   49.8620   28.7300   49.2330 C   0  0  0  0  0  2  0  0  0  0  0  0
   50.4220   28.9770   50.6150 C   0  0  1  0  0  3  0  0  0  0  0  0
   51.9310   28.9970   50.5330 C   0  0  2  0  0  3  0  0  0  0  0  0
   53.7560   29.6690   49.2580 O   0  0  0  0  0  0  0  0  0  0  0  0
   54.2060   30.3630   48.7400 H   0  0  0  0  0  0  0  0  0  0  0  0
   49.9910   30.1870   51.1400 O   0  0  0  0  0  0  0  0  0  0  0  0
   50.4730   30.9510   50.7370 H   0  0  0  0  0  0  0  0  0  0  0  0
   52.4530   29.4260   51.7350 O   0  0  0  0  0  0  0  0  0  0  0  0
   53.4280   29.4700   51.7280 H   0  0  0  0  0  0  0  0  0  0  0  0
  1 11  1  0  0  0  0
  1  5  2  0  0  0  0
  2  3  2  0  0  0  0
  2  1  1  0  0  0  0
  3  4  1  0  0  0  0
  4  5  1  0  0  0  0
  4 32  1  0  0  0  0
  6  3  1  0  0  0  0
  7 12  1  0  0  0  0
  7 15  1  0  0  0  0
  8  7  2  0  0  0  0
  9 10  2  0  0  0  0
  9  8  1  0  0  0  0
 10 11  1  0  0  0  0
 11 12  2  0  0  0  0
 13  8  1  0  0  0  0
 14  9  1  0  0  0  0
 15 20  1  0  0  0  0
 16 15  1  0  0  0  0
 16 17  1  0  0  0  0
 17 25  1  0  0  0  0
 17 18  1  0  0  0  0
 18 27  1  0  0  0  0
 18 19  1  0  0  0  0
 19 28  1  0  0  0  0
 20 30  1  0  0  0  0
 20 19  1  0  0  0  0
 20 31  1  0  0  0  0
 21 15  1  0  0  0  0
 22 16  1  0  0  0  0
 23 16  1  0  0  0  0
 24 17  1  0  0  0  0
 26 18  1  0  0  0  0
 29 19  1  0  0  0  0
 32 35  1  0  0  0  0
 33 32  1  0  0  0  0
 34 32  1  0  0  0  0
 35 36  2  0  0  0  0
 36 37  1  0  0  0  0
 37 38  1  0  0  0  0
 39 37  1  0  0  0  0
 40 46  1  6  0  0  0
 40 45  1  0  0  0  0
 41 37  1  1  0  0  0
 41 42  1  0  0  0  0
 41 40  1  0  0  0  0
 42 43  1  0  0  0  0
 43 44  1  0  0  0  0
 44 48  1  6  0  0  0
 45 44  1  0  0  0  0
 45 50  1  1  0  0  0
 47 46  1  0  0  0  0
 49 48  1  0  0  0  0
 51 50  1  0  0  0  0
M  END
>  <minimizedAffinity>
-4.96787167

>  <minimizedRMSD>
3.98760343

$$$$
