
 OpenBabel03252507383D

 41 45  0  0  1  0  0  0  0  0999 V2000
   45.6030   34.3170   44.0030 C   0  0  0  0  0  0  0  0  0  0  0  0
   46.4030   33.2990   44.5880 C   0  0  0  0  0  0  0  0  0  0  0  0
   46.2820   33.1060   45.9540 C   0  0  0  0  0  0  0  0  0  0  0  0
   45.4230   33.8830   46.6530 N   0  0  0  0  0  0  0  0  0  0  0  0
   44.6690   34.8480   46.0740 C   0  0  0  0  0  0  0  0  0  0  0  0
   44.7650   35.0550   44.7640 N   0  0  0  0  0  0  0  0  0  0  0  0
   47.0800   32.6850   44.0490 H   0  0  0  0  0  0  0  0  0  0  0  0
   43.9800   35.4740   46.6240 H   0  0  0  0  0  0  0  0  0  0  0  0
   47.4330   32.4360   47.9880 C   0  0  0  0  0  0  0  0  0  0  0  0
   47.0300   32.1060   46.7020 C   0  0  0  0  0  0  0  0  0  0  0  0
   47.3550   30.8710   46.2230 C   0  0  0  0  0  0  0  0  0  0  0  0
   48.0650   29.9360   46.9510 C   0  0  0  0  0  0  0  0  0  0  0  0
   48.4880   28.6830   46.6840 N   0  0  0  0  0  0  0  0  0  0  0  0
   49.1580   28.2260   47.8050 C   0  0  0  0  0  0  0  0  0  0  0  0
   49.1290   29.2000   48.7200 N   0  0  0  0  0  0  0  0  0  0  0  0
   48.4660   30.2510   48.2170 C   0  0  0  0  0  0  0  0  0  0  0  0
   48.1510   31.4990   48.7370 C   0  0  0  0  0  0  0  0  0  0  0  0
   47.2250   33.3870   48.4590 H   0  0  0  0  0  0  0  0  0  0  0  0
   47.0480   30.5940   45.2160 H   0  0  0  0  0  0  0  0  0  0  0  0
   48.3150   28.1930   45.7810 H   0  0  0  0  0  0  0  0  0  0  0  0
   49.5800   27.2250   47.7900 H   0  0  0  0  0  0  0  0  0  0  0  0
   48.4640   31.7750   49.7550 H   0  0  0  0  0  0  0  0  0  0  0  0
   45.7260   34.5110   42.6290 O   0  0  0  0  0  0  0  0  0  0  0  0
   44.6160   34.3450   41.8030 C   0  0  0  0  0  0  0  0  0  0  0  0
   45.2130   33.9030   40.6770 C   0  0  0  0  0  0  0  0  0  0  0  0
   43.7230   33.6610   39.5150 S   0  0  0  0  0  0  0  0  0  0  0  0
   42.5790   34.2480   40.9060 C   0  0  0  0  0  0  0  0  0  0  0  0
   43.3200   34.4420   41.6980 N   0  0  0  0  0  0  0  0  0  0  0  0
   46.1090   33.5760   39.9740 H   0  0  0  0  0  0  0  0  0  0  0  0
   40.6700   35.4270   39.9030 C   0  0  1  0  0  3  0  0  0  0  0  0
   41.0400   34.4040   40.9100 C   0  0  1  0  0  3  0  0  0  0  0  0
   40.4510   33.1810   40.7950 O   0  0  0  0  0  0  0  0  0  0  0  0
   40.3060   32.7150   39.5020 C   0  0  0  0  0  2  0  0  0  0  0  0
   39.2950   33.6150   38.8220 C   0  0  1  0  0  3  0  0  0  0  0  0
   40.0000   34.9550   38.6720 C   0  0  2  0  0  3  0  0  0  0  0  0
   39.8030   36.3770   40.4920 O   0  0  0  0  0  0  0  0  0  0  0  0
   39.1810   35.8190   41.0410 H   0  0  0  0  0  0  0  0  0  0  0  0
   38.9160   33.1490   37.5780 O   0  0  0  0  0  0  0  0  0  0  0  0
   38.2120   32.4450   37.7480 H   0  0  0  0  0  0  0  0  0  0  0  0
   40.9060   34.8130   37.6070 O   0  0  0  0  0  0  0  0  0  0  0  0
   40.4360   34.7380   36.7420 H   0  0  0  0  0  0  0  0  0  0  0  0
  1  2  2  0  0  0  0
  1  6  1  0  0  0  0
  2  3  1  0  0  0  0
  3  4  2  0  0  0  0
  3 10  1  0  0  0  0
  5  8  1  0  0  0  0
  5  4  1  0  0  0  0
  6  5  2  0  0  0  0
  7  2  1  0  0  0  0
  9 18  1  0  0  0  0
  9 17  1  0  0  0  0
 10  9  2  0  0  0  0
 11 10  1  0  0  0  0
 11 12  2  0  0  0  0
 12 16  1  0  0  0  0
 13 12  1  0  0  0  0
 13 14  1  0  0  0  0
 14 15  2  0  0  0  0
 16 15  1  0  0  0  0
 16 17  2  0  0  0  0
 17 22  1  0  0  0  0
 19 11  1  0  0  0  0
 20 13  1  0  0  0  0
 21 14  1  0  0  0  0
 23  1  1  0  0  0  0
 24 23  1  0  0  0  0
 25 24  2  0  0  0  0
 26 25  1  0  0  0  0
 26 27  1  0  0  0  0
 27 28  2  0  0  0  0
 28 24  1  0  0  0  0
 29 25  1  0  0  0  0
 30 36  1  1  0  0  0
 30 31  1  0  0  0  0
 31 27  1  6  0  0  0
 32 31  1  0  0  0  0
 33 32  1  0  0  0  0
 34 38  1  6  0  0  0
 34 33  1  0  0  0  0
 35 40  1  6  0  0  0
 35 34  1  0  0  0  0
 35 30  1  0  0  0  0
 36 37  1  0  0  0  0
 38 39  1  0  0  0  0
 41 40  1  0  0  0  0
M  END
>  <minimizedAffinity>
-6.7561717

>  <minimizedRMSD>
1.49877644

$$$$
