
 OpenBabel03242518023D

 40 42  0  0  1  0  0  0  0  0999 V2000
   46.2500   31.6540   45.6400 C   0  0  0  0  0  0  0  0  0  0  0  0
   45.2460   31.9490   45.9280 H   0  0  0  0  0  0  0  0  0  0  0  0
   46.1130   30.6920   45.0600 H   0  0  0  0  0  0  0  0  0  0  0  0
   47.4110   32.3050   47.7430 C   0  0  0  0  0  0  0  0  0  0  0  0
   47.0670   31.3170   46.7950 C   0  0  0  0  0  0  0  0  0  0  0  0
   47.5580   30.0250   47.0380 C   0  0  0  0  0  0  0  0  0  0  0  0
   48.3120   29.7960   48.1330 N   0  0  0  0  0  0  0  0  0  0  0  0
   48.6180   30.7700   49.0140 C   0  0  0  0  0  0  0  0  0  0  0  0
   48.1700   32.0050   48.8150 N   0  0  0  0  0  0  0  0  0  0  0  0
   47.0790   33.3330   47.6420 H   0  0  0  0  0  0  0  0  0  0  0  0
   47.3080   29.2520   46.3280 H   0  0  0  0  0  0  0  0  0  0  0  0
   50.3980   31.6700   50.3540 C   0  0  1  0  0  3  0  0  0  0  0  0
   49.4510   30.5000   50.2160 C   0  0  2  0  0  3  0  0  0  0  0  0
   50.0700   29.2870   50.2090 O   0  0  0  0  0  0  0  0  0  0  0  0
   51.3030   29.2450   50.8070 C   0  0  0  0  0  2  0  0  0  0  0  0
   51.4900   30.1700   51.9760 C   0  0  2  0  0  3  0  0  0  0  0  0
   51.0610   31.5810   51.7060 C   0  0  1  0  0  3  0  0  0  0  0  0
   51.2840   31.6290   49.3050 O   0  0  0  0  0  0  0  0  0  0  0  0
   51.8510   32.4280   49.2250 H   0  0  0  0  0  0  0  0  0  0  0  0
   52.8530   30.1820   52.2710 O   0  0  0  0  0  0  0  0  0  0  0  0
   53.0260   30.4640   53.2080 H   0  0  0  0  0  0  0  0  0  0  0  0
   52.0610   32.5180   51.7730 O   0  0  0  0  0  0  0  0  0  0  0  0
   52.9120   32.0800   51.9540 H   0  0  0  0  0  0  0  0  0  0  0  0
   47.0170   32.6670   44.8170 C   0  0  0  0  0  0  0  0  0  0  0  0
   47.9380   33.0360   45.3580 H   0  0  0  0  0  0  0  0  0  0  0  0
   47.4230   32.1330   43.9380 H   0  0  0  0  0  0  0  0  0  0  0  0
   46.5260   34.5180   43.2710 C   0  0  0  0  0  0  0  0  0  0  0  0
   46.2560   33.8720   44.4610 C   0  0  0  0  0  0  0  0  0  0  0  0
   45.2990   34.2970   45.3420 C   0  0  0  0  0  0  0  0  0  0  0  0
   44.5720   35.4230   45.0270 C   0  0  0  0  0  0  0  0  0  0  0  0
   44.7730   36.1250   43.8690 C   0  0  0  0  0  0  0  0  0  0  0  0
   45.7630   35.6340   43.0200 C   0  0  0  0  0  0  0  0  0  0  0  0
   45.0240   33.8730   46.2720 H   0  0  0  0  0  0  0  0  0  0  0  0
   43.7880   35.8390   45.6660 H   0  0  0  0  0  0  0  0  0  0  0  0
   44.2070   37.0130   43.6090 H   0  0  0  0  0  0  0  0  0  0  0  0
   45.9580   36.1630   42.0850 H   0  0  0  0  0  0  0  0  0  0  0  0
   47.7440   34.0060   42.1210 S   0  0  0  0  0  0  0  0  0  0  0  0
   49.1170   34.5420   42.4630 O   0  0  0  0  0  0  0  0  0  0  0  0
   47.4190   34.6240   40.7790 O   0  0  0  0  0  0  0  0  0  0  0  0
   47.7500   32.6610   41.9060 H   0  0  0  0  0  0  0  0  0  0  0  0
  1  2  1  0  0  0  0
  1  5  1  0  0  0  0
  3  1  1  0  0  0  0
  4  9  1  0  0  0  0
  5  6  1  0  0  0  0
  5  4  2  0  0  0  0
  6  7  2  0  0  0  0
  7  8  1  0  0  0  0
  9  8  2  0  0  0  0
 10  4  1  0  0  0  0
 11  6  1  0  0  0  0
 12 18  1  6  0  0  0
 12 17  1  0  0  0  0
 13  8  1  6  0  0  0
 13 12  1  0  0  0  0
 14 13  1  0  0  0  0
 14 15  1  0  0  0  0
 15 16  1  0  0  0  0
 16 20  1  6  0  0  0
 17 22  1  6  0  0  0
 17 16  1  0  0  0  0
 19 18  1  0  0  0  0
 20 21  1  0  0  0  0
 22 23  1  0  0  0  0
 24 25  1  0  0  0  0
 24  1  1  0  0  0  0
 26 24  1  0  0  0  0
 27 28  1  0  0  0  0
 28 24  1  0  0  0  0
 28 29  2  0  0  0  0
 29 33  1  0  0  0  0
 30 29  1  0  0  0  0
 30 34  1  0  0  0  0
 31 30  2  0  0  0  0
 32 27  2  0  0  0  0
 32 31  1  0  0  0  0
 35 31  1  0  0  0  0
 36 32  1  0  0  0  0
 37 38  2  0  0  0  0
 37 27  1  0  0  0  0
 39 37  2  0  0  0  0
 40 37  1  0  0  0  0
M  END
>  <minimizedAffinity>
-6.22736359

>  <minimizedRMSD>
0.22989963

$$$$
