
     RDKit          3D

 30 31  0  0  0  0  0  0  0  0999 V2000
   45.4392   35.0671   43.9943 C   0  0  0  0  0  0  0  0  0  0  0  0
   46.4958   34.3015   43.5022 C   0  0  0  0  0  0  0  0  0  0  0  0
   47.0207   33.2873   44.3325 C   0  0  0  0  0  0  0  0  0  0  0  0
   46.4558   33.1226   45.5690 N   0  0  0  0  0  0  0  0  0  0  0  0
   45.4313   33.8937   45.9974 C   0  0  0  0  0  0  0  0  0  0  0  0
   44.9235   34.8617   45.2163 N   0  0  0  0  0  0  0  0  0  0  0  0
   44.8988   36.1390   43.0923 C   0  0  0  0  0  0  0  0  0  0  0  0
   46.9345   34.4460   42.5139 H   0  0  0  0  0  0  0  0  0  0  0  0
   45.0252   33.7109   46.9953 H   0  0  0  0  0  0  0  0  0  0  0  0
   43.9148   35.7497   42.7139 H   0  0  0  0  0  0  0  0  0  0  0  0
   45.6013   36.3825   42.2993 H   0  0  0  0  0  0  0  0  0  0  0  0
   44.6205   37.0265   43.7146 H   0  0  0  0  0  0  0  0  0  0  0  0
   47.5509   30.8158   45.5110 O   0  0  0  0  0  0  0  0  0  0  0  0
   47.7519   30.9971   44.1562 C   0  0  1  0  0  0  0  0  0  0  0  0
   48.1455   32.4257   43.8878 C   0  0  1  0  0  0  0  0  0  0  0  0
   48.2844   32.5715   42.5254 O   0  0  0  0  0  0  0  0  0  0  0  0
   49.2795   31.8285   41.9522 C   0  0  0  0  0  0  0  0  0  0  0  0
   49.3128   30.3834   42.2868 C   0  0  1  0  0  0  0  0  0  0  0  0
   50.6485   29.9785   42.2614 O   0  0  0  0  0  0  0  0  0  0  0  0
   48.7762   30.0242   43.6374 C   0  0  2  0  0  0  0  0  0  0  0  0
   48.1654   28.7723   43.5699 O   0  0  0  0  0  0  0  0  0  0  0  0
   47.6281   29.8756   45.7751 H   0  0  0  0  0  0  0  0  0  0  0  0
   46.7979   30.8042   43.6224 H   0  0  0  0  0  0  0  0  0  0  0  0
   49.0504   32.7099   44.4695 H   0  0  0  0  0  0  0  0  0  0  0  0
   49.1168   31.8925   40.8363 H   0  0  0  0  0  0  0  0  0  0  0  0
   50.2653   32.3483   42.1052 H   0  0  0  0  0  0  0  0  0  0  0  0
   48.7972   29.7586   41.5019 H   0  0  0  0  0  0  0  0  0  0  0  0
   50.7488   29.0821   42.6756 H   0  0  0  0  0  0  0  0  0  0  0  0
   49.5690   29.9383   44.4110 H   0  0  0  0  0  0  0  0  0  0  0  0
   47.3948   28.6630   44.1507 H   0  0  0  0  0  0  0  0  0  0  0  0
  1  6  2  0
  2  1  1  0
  2  3  2  0
  3  4  1  0
  4  5  2  0
  6  5  1  0
  7  1  1  0
  2  8  1  0
  5  9  1  0
  7 10  1  0
  7 11  1  0
  7 12  1  0
 13 14  1  0
 14 15  1  0
 15 16  1  0
 16 17  1  0
 17 18  1  0
 18 19  1  0
 18 20  1  0
 20 21  1  0
 20 14  1  0
 13 22  1  0
 14 23  1  6
 15 24  1  1
 17 25  1  0
 17 26  1  0
 18 27  1  6
 19 28  1  0
 20 29  1  1
 21 30  1  0
  3 15  1  0
M  ISO  5   8  14   9  14  10   8  11   8  12   8
M  END
>  <DihAtoms>  (1) 
1,2,14,13

>  <DihDeg>  (1) 
-160.9074581986511

$$$$
