
     RDKit          3D

 30 31  0  0  0  0  0  0  0  0999 V2000
   44.3829   35.7790   44.4335 C   0  0  0  0  0  0  0  0  0  0  0  0
   44.6644   35.0699   43.2768 C   0  0  0  0  0  0  0  0  0  0  0  0
   45.2884   33.8346   43.3925 C   0  0  0  0  0  0  0  0  0  0  0  0
   45.5922   33.3804   44.6245 N   0  0  0  0  0  0  0  0  0  0  0  0
   45.3078   34.0908   45.7449 C   0  0  0  0  0  0  0  0  0  0  0  0
   44.6992   35.3001   45.6676 N   0  0  0  0  0  0  0  0  0  0  0  0
   44.2642   35.7112   41.9971 C   0  0  0  0  0  0  0  0  0  0  0  0
   43.8972   36.7463   44.3890 H   0  0  0  0  0  0  0  0  0  0  0  0
   45.4956   33.3043   42.4726 H   0  0  0  0  0  0  0  0  0  0  0  0
   43.2092   35.4279   41.8083 H   0  0  0  0  0  0  0  0  0  0  0  0
   44.9305   35.2707   41.2102 H   0  0  0  0  0  0  0  0  0  0  0  0
   44.4350   36.7831   42.0780 H   0  0  0  0  0  0  0  0  0  0  0  0
   47.9557   34.0994   47.3487 O   0  0  0  0  0  0  0  0  0  0  0  0
   47.0978   33.0102   47.1160 C   0  0  2  0  0  0  0  0  0  0  0  0
   45.6619   33.5459   47.0556 C   0  0  1  0  0  0  0  0  0  0  0  0
   45.6242   34.4954   48.0830 O   0  0  0  0  0  0  0  0  0  0  0  0
   45.4591   33.7860   49.2572 C   0  0  0  0  0  0  0  0  0  0  0  0
   46.5158   32.7641   49.5405 C   0  0  2  0  0  0  0  0  0  0  0  0
   47.5463   33.3710   50.2541 O   0  0  0  0  0  0  0  0  0  0  0  0
   47.0966   32.0925   48.3381 C   0  0  1  0  0  0  0  0  0  0  0  0
   46.2814   31.0067   48.0081 O   0  0  0  0  0  0  0  0  0  0  0  0
   48.6236   34.1720   46.6203 H   0  0  0  0  0  0  0  0  0  0  0  0
   47.3794   32.4254   46.2425 H   0  0  0  0  0  0  0  0  0  0  0  0
   44.9812   32.7172   47.3388 H   0  0  0  0  0  0  0  0  0  0  0  0
   45.4455   34.4989   50.1204 H   0  0  0  0  0  0  0  0  0  0  0  0
   44.4312   33.3517   49.2081 H   0  0  0  0  0  0  0  0  0  0  0  0
   46.0355   31.9578   50.1642 H   0  0  0  0  0  0  0  0  0  0  0  0
   47.1929   33.6688   51.1291 H   0  0  0  0  0  0  0  0  0  0  0  0
   48.1354   31.7629   48.5646 H   0  0  0  0  0  0  0  0  0  0  0  0
   45.5877   30.8441   48.6762 H   0  0  0  0  0  0  0  0  0  0  0  0
  1  6  2  0
  2  3  2  0
  2  1  1  0
  3  4  1  0
  4  5  2  0
  6  5  1  0
  7  2  1  0
  1  8  1  0
  3  9  1  0
  7 10  1  0
  7 11  1  0
  7 12  1  0
 13 14  1  0
 14 15  1  0
 15 16  1  0
 16 17  1  0
 17 18  1  0
 18 19  1  0
 18 20  1  0
 20 21  1  0
 20 14  1  0
 13 22  1  0
 14 23  1  6
 15 24  1  1
 17 25  1  0
 17 26  1  0
 18 27  1  1
 19 28  1  0
 20 29  1  1
 21 30  1  0
  5 15  1  0
M  ISO  5   8  14   9  14  10   8  11   8  12   8
M  END
>  <DihAtoms>  (1) 
3,4,14,13

>  <DihDeg>  (1) 
107.50952945895756

$$$$
