
     RDKit          3D

 30 31  0  0  0  0  0  0  0  0999 V2000
   44.3829   35.7790   44.4335 C   0  0  0  0  0  0  0  0  0  0  0  0
   44.6644   35.0699   43.2768 C   0  0  0  0  0  0  0  0  0  0  0  0
   45.2884   33.8346   43.3925 C   0  0  0  0  0  0  0  0  0  0  0  0
   45.5922   33.3804   44.6245 N   0  0  0  0  0  0  0  0  0  0  0  0
   45.3078   34.0908   45.7449 C   0  0  0  0  0  0  0  0  0  0  0  0
   44.6992   35.3001   45.6676 N   0  0  0  0  0  0  0  0  0  0  0  0
   44.2642   35.7112   41.9971 C   0  0  0  0  0  0  0  0  0  0  0  0
   43.8972   36.7463   44.3890 H   0  0  0  0  0  0  0  0  0  0  0  0
   45.4956   33.3043   42.4726 H   0  0  0  0  0  0  0  0  0  0  0  0
   43.2092   35.4279   41.8083 H   0  0  0  0  0  0  0  0  0  0  0  0
   44.9305   35.2707   41.2102 H   0  0  0  0  0  0  0  0  0  0  0  0
   44.4350   36.7831   42.0780 H   0  0  0  0  0  0  0  0  0  0  0  0
   43.5807   33.0770   48.1056 O   0  0  0  0  0  0  0  0  0  0  0  0
   44.6794   33.9523   48.1610 C   0  0  2  0  0  0  0  0  0  0  0  0
   45.6619   33.5459   47.0556 C   0  0  1  0  0  0  0  0  0  0  0  0
   45.6445   32.1473   47.1014 O   0  0  0  0  0  0  0  0  0  0  0  0
   46.4625   31.7862   48.1547 C   0  0  0  0  0  0  0  0  0  0  0  0
   46.0751   32.3487   49.4868 C   0  0  2  0  0  0  0  0  0  0  0  0
   45.1855   31.4715   50.1022 O   0  0  0  0  0  0  0  0  0  0  0  0
   45.4590   33.7101   49.4530 C   0  0  1  0  0  0  0  0  0  0  0  0
   46.4880   34.6554   49.4692 O   0  0  0  0  0  0  0  0  0  0  0  0
   42.7424   33.5865   47.9658 H   0  0  0  0  0  0  0  0  0  0  0  0
   44.3909   35.0008   48.1206 H   0  0  0  0  0  0  0  0  0  0  0  0
   46.6735   33.8797   47.3649 H   0  0  0  0  0  0  0  0  0  0  0  0
   46.4673   30.6708   48.2529 H   0  0  0  0  0  0  0  0  0  0  0  0
   47.4985   32.0663   47.8451 H   0  0  0  0  0  0  0  0  0  0  0  0
   47.0193   32.4331   50.0960 H   0  0  0  0  0  0  0  0  0  0  0  0
   45.6531   30.6169   50.2763 H   0  0  0  0  0  0  0  0  0  0  0  0
   44.7849   33.8326   50.3302 H   0  0  0  0  0  0  0  0  0  0  0  0
   47.3650   34.2500   49.6120 H   0  0  0  0  0  0  0  0  0  0  0  0
  1  6  2  0
  2  3  2  0
  2  1  1  0
  3  4  1  0
  4  5  2  0
  6  5  1  0
  7  2  1  0
  1  8  1  0
  3  9  1  0
  7 10  1  0
  7 11  1  0
  7 12  1  0
 13 14  1  0
 14 15  1  0
 15 16  1  0
 16 17  1  0
 17 18  1  0
 18 19  1  0
 18 20  1  0
 20 21  1  0
 20 14  1  0
 13 22  1  0
 14 23  1  6
 15 24  1  1
 17 25  1  0
 17 26  1  0
 18 27  1  1
 19 28  1  0
 20 29  1  1
 21 30  1  0
  5 15  1  0
M  ISO  5   8  14   9  14  10   8  11   8  12   8
M  END
>  <DihAtoms>  (1) 
3,4,14,13

>  <DihDeg>  (1) 
107.50952945895756

$$$$
