
 OpenBabel03252501513D

 48 51  0  0  1  0  0  0  0  0999 V2000
   48.0550   34.8340   42.1300 C   0  0  0  0  0  0  0  0  0  0  0  0
   47.9570   34.4370   43.1760 H   0  0  0  0  0  0  0  0  0  0  0  0
   48.2590   35.9170   42.1370 H   0  0  0  0  0  0  0  0  0  0  0  0
   49.1620   34.1450   41.5080 N   0  0  0  0  0  0  0  0  0  0  0  0
   50.3190   34.2090   42.3310 C   0  0  0  0  0  0  0  0  0  0  0  0
   51.0700   32.9280   42.1600 C   0  0  0  0  0  0  0  0  0  0  0  0
   49.9820   31.9460   41.7910 C   0  0  0  0  0  0  0  0  0  0  0  0
   48.8410   32.7810   41.2380 C   0  0  2  0  0  0  0  0  0  0  0  0
   50.9040   35.1040   42.0080 H   0  0  0  0  0  0  0  0  0  0  0  0
   50.0110   34.2900   43.4050 H   0  0  0  0  0  0  0  0  0  0  0  0
   51.8000   33.0850   41.3320 H   0  0  0  0  0  0  0  0  0  0  0  0
   51.5630   32.5660   43.0810 H   0  0  0  0  0  0  0  0  0  0  0  0
   49.7080   31.3060   42.6300 H   0  0  0  0  0  0  0  0  0  0  0  0
   50.4490   31.2880   41.0020 H   0  0  0  0  0  0  0  0  0  0  0  0
   47.9350   32.5080   41.8060 H   0  0  0  0  0  0  0  0  0  0  0  0
   49.9940   31.8320   39.3040 C   0  0  1  0  0  0  0  0  0  0  0  0
   48.7050   32.4550   39.7810 C   0  0  2  0  0  0  0  0  0  0  0  0
   48.3570   33.5650   39.0170 O   0  0  0  0  0  0  0  0  0  0  0  0
   48.0390   33.1070   37.7400 C   0  0  0  0  0  0  0  0  0  0  0  0
   49.1730   32.3490   37.0880 C   0  0  2  0  0  0  0  0  0  0  0  0
   50.3790   32.4550   37.9620 C   0  0  2  0  0  0  0  0  0  0  0  0
   51.0630   32.0060   40.1570 O   0  0  0  0  0  0  0  0  0  0  0  0
   51.8750   32.3530   39.7220 H   0  0  0  0  0  0  0  0  0  0  0  0
   49.4220   32.9890   35.8560 O   0  0  0  0  0  0  0  0  0  0  0  0
   49.9890   33.7960   36.0720 H   0  0  0  0  0  0  0  0  0  0  0  0
   51.4820   31.7850   37.4480 O   0  0  0  0  0  0  0  0  0  0  0  0
   51.7980   31.0590   38.0500 H   0  0  0  0  0  0  0  0  0  0  0  0
   45.6050   34.9030   42.0580 C   0  0  0  0  0  0  0  0  0  0  0  0
   46.7460   34.5820   41.4330 C   0  0  0  0  0  0  0  0  0  0  0  0
   44.0050   33.5240   40.6050 C   0  0  0  0  0  0  0  0  0  0  0  0
   44.2950   34.6680   41.4000 C   0  0  0  0  0  0  0  0  0  0  0  0
   43.3020   35.6440   41.5870 C   0  0  0  0  0  0  0  0  0  0  0  0
   42.0940   35.4470   40.9910 N   0  0  0  0  0  0  0  0  0  0  0  0
   41.8540   34.3610   40.2510 C   0  0  0  0  0  0  0  0  0  0  0  0
   42.8010   33.4380   40.0760 N   0  0  0  0  0  0  0  0  0  0  0  0
   44.8100   32.8160   40.5030 H   0  0  0  0  0  0  0  0  0  0  0  0
   43.5260   36.5030   42.1880 H   0  0  0  0  0  0  0  0  0  0  0  0
   39.6390   33.5760   41.7000 F   0  0  0  0  0  0  0  0  0  0  0  0
   39.4550   33.7990   40.3820 C   0  0  0  0  0  0  0  0  0  0  0  0
   40.5440   34.1930   39.6320 C   0  0  0  0  0  0  0  0  0  0  0  0
   40.4410   34.4450   38.2610 C   0  0  0  0  0  0  0  0  0  0  0  0
   39.1870   34.2830   37.6770 C   0  0  0  0  0  0  0  0  0  0  0  0
   38.0700   33.8840   38.4210 C   0  0  0  0  0  0  0  0  0  0  0  0
   38.2170   33.6440   39.7770 C   0  0  0  0  0  0  0  0  0  0  0  0
   41.2960   34.7530   37.6770 H   0  0  0  0  0  0  0  0  0  0  0  0
   39.1540   34.4890   36.6120 H   0  0  0  0  0  0  0  0  0  0  0  0
   37.1290   33.7780   37.9000 H   0  0  0  0  0  0  0  0  0  0  0  0
   37.3610   33.3340   40.3680 H   0  0  0  0  0  0  0  0  0  0  0  0
  1  3  1  0  0  0  0
  1  2  1  0  0  0  0
  4  1  1  0  0  0  0
  4  5  1  0  0  0  0
  5 10  1  0  0  0  0
  6  5  1  0  0  0  0
  6 12  1  0  0  0  0
  7  6  1  0  0  0  0
  7 13  1  0  0  0  0
  8  4  1  0  0  0  0
  8  7  1  0  0  0  0
  8 15  1  1  0  0  0
  9  5  1  0  0  0  0
 11  6  1  0  0  0  0
 14  7  1  0  0  0  0
 16 17  1  0  0  0  0
 16 22  1  1  0  0  0
 17 18  1  6  0  0  0
 17  8  1  0  0  0  0
 19 18  1  0  0  0  0
 20 24  1  6  0  0  0
 20 19  1  0  0  0  0
 20 21  1  0  0  0  0
 21 26  1  6  0  0  0
 21 16  1  0  0  0  0
 23 22  1  0  0  0  0
 24 25  1  0  0  0  0
 26 27  1  0  0  0  0
 29 28  2  0  0  0  0
 29  1  1  0  0  0  0
 30 31  1  0  0  0  0
 31 32  2  0  0  0  0
 31 28  1  0  0  0  0
 32 37  1  0  0  0  0
 33 32  1  0  0  0  0
 34 33  2  0  0  0  0
 35 34  1  0  0  0  0
 35 30  2  0  0  0  0
 36 30  1  0  0  0  0
 39 38  1  0  0  0  0
 40 34  1  0  0  0  0
 40 39  2  0  0  0  0
 41 40  1  0  0  0  0
 42 41  2  0  0  0  0
 42 43  1  0  0  0  0
 43 44  2  0  0  0  0
 44 48  1  0  0  0  0
 44 39  1  0  0  0  0
 45 41  1  0  0  0  0
 46 42  1  0  0  0  0
 47 43  1  0  0  0  0
M  END
>  <minimizedAffinity>
-7.22781515

>  <minimizedRMSD>
0.8129282

$$$$
