
 OpenBabel03242523543D

 48 51  0  0  1  0  0  0  0  0999 V2000
   42.8710   34.2420   39.3440 C   0  0  1  0  0  0  0  0  0  0  0  0
   43.2540   35.1320   40.5210 C   0  0  1  0  0  0  0  0  0  0  0  0
   42.0810   35.7250   41.0220 O   0  0  0  0  0  0  0  0  0  0  0  0
   41.1690   36.0460   40.0140 C   0  0  0  0  0  0  0  0  0  0  0  0
   40.5570   34.8080   39.3880 C   0  0  2  0  0  0  0  0  0  0  0  0
   41.5530   33.6290   39.6880 C   0  0  1  0  0  0  0  0  0  0  0  0
   43.6670   33.4690   39.2320 H   0  0  0  0  0  0  0  0  0  0  0  0
   44.0040   35.8890   40.2480 H   0  0  0  0  0  0  0  0  0  0  0  0
   40.3530   36.5810   40.5140 H   0  0  0  0  0  0  0  0  0  0  0  0
   41.5920   36.7450   39.2750 H   0  0  0  0  0  0  0  0  0  0  0  0
   39.5680   34.5700   39.8020 H   0  0  0  0  0  0  0  0  0  0  0  0
   41.3690   33.6240   40.8100 H   0  0  0  0  0  0  0  0  0  0  0  0
   42.7740   34.9910   38.1630 O   0  0  0  0  0  0  0  0  0  0  0  0
   43.2490   34.5350   37.4290 H   0  0  0  0  0  0  0  0  0  0  0  0
   40.5570   34.9390   38.0070 O   0  0  0  0  0  0  0  0  0  0  0  0
   39.7370   34.6360   37.5820 H   0  0  0  0  0  0  0  0  0  0  0  0
   43.6400   34.2480   41.5380 O   0  0  0  0  0  0  0  0  0  0  0  0
   44.8250   34.2630   42.1560 C   0  0  0  0  0  0  0  0  0  0  0  0
   46.0170   34.4790   41.4470 C   0  0  0  0  0  0  0  0  0  0  0  0
   47.2090   34.4810   42.1520 C   0  0  0  0  0  0  0  0  0  0  0  0
   47.1920   34.2730   43.5210 N   0  0  0  0  0  0  0  0  0  0  0  0
   46.0270   34.0680   44.1700 C   0  0  0  0  0  0  0  0  0  0  0  0
   44.8480   34.0620   43.4970 N   0  0  0  0  0  0  0  0  0  0  0  0
   46.0170   34.6400   40.3820 H   0  0  0  0  0  0  0  0  0  0  0  0
   46.0430   33.9090   45.2280 H   0  0  0  0  0  0  0  0  0  0  0  0
   48.5200   34.7050   41.4610 C   0  0  0  0  0  0  0  0  0  0  0  0
   49.1020   36.1130   41.5550 C   0  0  0  0  0  0  0  0  0  0  0  0
   49.7220   34.8840   42.2070 C   0  0  0  0  0  0  0  0  0  0  0  0
   48.4780   34.3900   40.3830 H   0  0  0  0  0  0  0  0  0  0  0  0
   48.5790   36.7750   42.2980 H   0  0  0  0  0  0  0  0  0  0  0  0
   49.5970   36.5760   40.7050 H   0  0  0  0  0  0  0  0  0  0  0  0
   50.6870   34.5880   41.7430 H   0  0  0  0  0  0  0  0  0  0  0  0
   49.6990   34.7680   43.2980 H   0  0  0  0  0  0  0  0  0  0  0  0
   41.1610   32.5720   38.9550 O   0  0  0  0  0  0  0  0  0  0  0  0
   40.3030   31.5790   39.2960 C   0  0  0  0  0  0  0  0  0  0  0  0
   39.7860   30.7970   38.3880 O   0  0  0  0  0  0  0  0  0  0  0  0
   38.0890   31.2780   40.4470 C   0  0  1  0  0  3  0  0  0  0  0  0
   39.5300   30.8020   40.3080 C   0  0  1  0  0  3  0  0  0  0  0  0
   39.3780   29.4690   39.9050 O   0  0  0  0  0  0  0  0  0  0  0  0
   39.2650   28.6740   41.0200 C   0  0  0  0  0  2  0  0  0  0  0  0
   38.0850   29.1840   41.8290 C   0  0  1  0  0  3  0  0  0  0  0  0
   37.2400   30.1670   41.0250 C   0  0  2  0  0  3  0  0  0  0  0  0
   37.9750   32.4660   41.1250 O   0  0  0  0  0  0  0  0  0  0  0  0
   37.7530   33.2250   40.5020 H   0  0  0  0  0  0  0  0  0  0  0  0
   37.2400   28.1540   42.2300 O   0  0  0  0  0  0  0  0  0  0  0  0
   36.2950   28.4420   42.2980 H   0  0  0  0  0  0  0  0  0  0  0  0
   36.6020   29.4480   40.0190 O   0  0  0  0  0  0  0  0  0  0  0  0
   36.6930   29.8360   39.1270 H   0  0  0  0  0  0  0  0  0  0  0  0
  1  7  1  6  0  0  0
  1  6  1  0  0  0  0
  1  2  1  0  0  0  0
  2  8  1  6  0  0  0
  2  3  1  0  0  0  0
  2 17  1  0  0  0  0
  4  9  1  0  0  0  0
  4  3  1  0  0  0  0
  5  6  1  0  0  0  0
  5 11  1  1  0  0  0
  5  4  1  0  0  0  0
  6 12  1  1  0  0  0
 10  4  1  0  0  0  0
 13  1  1  0  0  0  0
 14 13  1  0  0  0  0
 15  5  1  0  0  0  0
 16 15  1  0  0  0  0
 17 18  1  0  0  0  0
 18 23  1  0  0  0  0
 19 20  1  0  0  0  0
 19 18  2  0  0  0  0
 20 21  2  0  0  0  0
 21 22  1  0  0  0  0
 22 25  1  0  0  0  0
 23 22  2  0  0  0  0
 24 19  1  0  0  0  0
 26 27  1  0  0  0  0
 26 20  1  0  0  0  0
 26 28  1  0  0  0  0
 27 28  1  0  0  0  0
 27 30  1  0  0  0  0
 28 33  1  0  0  0  0
 29 26  1  0  0  0  0
 31 27  1  0  0  0  0
 32 28  1  0  0  0  0
 34 35  1  0  0  0  0
 34  6  1  0  0  0  0
 36 35  2  0  0  0  0
 37 42  1  0  0  0  0
 37 43  1  1  0  0  0
 38 35  1  6  0  0  0
 38 37  1  0  0  0  0
 39 38  1  0  0  0  0
 39 40  1  0  0  0  0
 40 41  1  0  0  0  0
 41 45  1  6  0  0  0
 42 47  1  6  0  0  0
 42 41  1  0  0  0  0
 44 43  1  0  0  0  0
 45 46  1  0  0  0  0
 48 47  1  0  0  0  0
M  END
>  <minimizedAffinity>
-7.16552782

>  <minimizedRMSD>
2.01489782

$$$$
