
 OpenBabel03242523543D

 48 51  0  0  1  0  0  0  0  0999 V2000
   42.9560   34.1000   39.1950 C   0  0  1  0  0  0  0  0  0  0  0  0
   43.1660   35.0580   40.3610 C   0  0  1  0  0  0  0  0  0  0  0  0
   41.9120   35.5720   40.7370 O   0  0  0  0  0  0  0  0  0  0  0  0
   41.0680   35.7820   39.6440 C   0  0  0  0  0  0  0  0  0  0  0  0
   40.6100   34.4770   39.0220 C   0  0  2  0  0  0  0  0  0  0  0  0
   41.6650   33.3940   39.4530 C   0  0  1  0  0  0  0  0  0  0  0  0
   43.8160   33.3900   39.1820 H   0  0  0  0  0  0  0  0  0  0  0  0
   43.8760   35.8630   40.1200 H   0  0  0  0  0  0  0  0  0  0  0  0
   40.1730   36.2670   40.0520 H   0  0  0  0  0  0  0  0  0  0  0  0
   41.4980   36.4870   38.9140 H   0  0  0  0  0  0  0  0  0  0  0  0
   39.6100   34.1760   39.3620 H   0  0  0  0  0  0  0  0  0  0  0  0
   41.3860   33.4140   40.5550 H   0  0  0  0  0  0  0  0  0  0  0  0
   42.9040   34.7960   37.9800 O   0  0  0  0  0  0  0  0  0  0  0  0
   43.4740   34.3540   37.3080 H   0  0  0  0  0  0  0  0  0  0  0  0
   40.7200   34.5590   37.6410 O   0  0  0  0  0  0  0  0  0  0  0  0
   39.9650   34.1770   37.1630 H   0  0  0  0  0  0  0  0  0  0  0  0
   43.5300   34.2450   41.4430 O   0  0  0  0  0  0  0  0  0  0  0  0
   44.7070   34.2920   42.0740 C   0  0  0  0  0  0  0  0  0  0  0  0
   45.9090   34.4660   41.3690 C   0  0  0  0  0  0  0  0  0  0  0  0
   47.0910   34.5050   42.0880 C   0  0  0  0  0  0  0  0  0  0  0  0
   47.0560   34.3750   43.4670 N   0  0  0  0  0  0  0  0  0  0  0  0
   45.8830   34.2090   44.1110 C   0  0  0  0  0  0  0  0  0  0  0  0
   44.7120   34.1670   43.4250 N   0  0  0  0  0  0  0  0  0  0  0  0
   45.9220   34.5660   40.2970 H   0  0  0  0  0  0  0  0  0  0  0  0
   45.8850   34.1100   45.1770 H   0  0  0  0  0  0  0  0  0  0  0  0
   48.4120   34.6880   41.4030 C   0  0  0  0  0  0  0  0  0  0  0  0
   49.0460   36.0720   41.5140 C   0  0  0  0  0  0  0  0  0  0  0  0
   49.6170   34.8130   42.1540 C   0  0  0  0  0  0  0  0  0  0  0  0
   48.3600   34.3870   40.3220 H   0  0  0  0  0  0  0  0  0  0  0  0
   48.5460   36.7450   42.2640 H   0  0  0  0  0  0  0  0  0  0  0  0
   49.5610   36.5260   40.6710 H   0  0  0  0  0  0  0  0  0  0  0  0
   50.5730   34.4860   41.6890 H   0  0  0  0  0  0  0  0  0  0  0  0
   49.5880   34.6850   43.2430 H   0  0  0  0  0  0  0  0  0  0  0  0
   41.4210   32.2830   38.7350 O   0  0  0  0  0  0  0  0  0  0  0  0
   40.3960   31.4050   38.8600 C   0  0  0  0  0  0  0  0  0  0  0  0
   39.8110   30.9000   37.8080 O   0  0  0  0  0  0  0  0  0  0  0  0
   40.1230   29.3990   40.3490 C   0  0  1  0  0  3  0  0  0  0  0  0
   39.4530   30.5980   39.6880 C   0  0  1  0  0  3  0  0  0  0  0  0
   38.9890   31.3370   40.7830 O   0  0  0  0  0  0  0  0  0  0  0  0
   37.7390   30.8820   41.1320 C   0  0  0  0  0  2  0  0  0  0  0  0
   37.8580   29.3990   41.4300 C   0  0  1  0  0  3  0  0  0  0  0  0
   39.3150   28.9690   41.5550 C   0  0  2  0  0  3  0  0  0  0  0  0
   40.3890   28.3770   39.4730 O   0  0  0  0  0  0  0  0  0  0  0  0
   41.3730   28.3170   39.2680 H   0  0  0  0  0  0  0  0  0  0  0  0
   37.2260   29.0510   42.6210 O   0  0  0  0  0  0  0  0  0  0  0  0
   37.6680   28.2910   43.0770 H   0  0  0  0  0  0  0  0  0  0  0  0
   39.8210   29.5310   42.7240 O   0  0  0  0  0  0  0  0  0  0  0  0
   40.6700   30.0000   42.6090 H   0  0  0  0  0  0  0  0  0  0  0  0
  1  7  1  6  0  0  0
  1  6  1  0  0  0  0
  1  2  1  0  0  0  0
  2  8  1  6  0  0  0
  2  3  1  0  0  0  0
  2 17  1  0  0  0  0
  4  9  1  0  0  0  0
  4  3  1  0  0  0  0
  5 11  1  1  0  0  0
  5  6  1  0  0  0  0
  5  4  1  0  0  0  0
  6 12  1  1  0  0  0
 10  4  1  0  0  0  0
 13  1  1  0  0  0  0
 14 13  1  0  0  0  0
 15  5  1  0  0  0  0
 16 15  1  0  0  0  0
 17 18  1  0  0  0  0
 18 23  1  0  0  0  0
 19 18  2  0  0  0  0
 19 20  1  0  0  0  0
 20 21  2  0  0  0  0
 21 22  1  0  0  0  0
 22 25  1  0  0  0  0
 23 22  2  0  0  0  0
 24 19  1  0  0  0  0
 26 27  1  0  0  0  0
 26 20  1  0  0  0  0
 26 28  1  0  0  0  0
 27 28  1  0  0  0  0
 27 30  1  0  0  0  0
 28 33  1  0  0  0  0
 29 26  1  0  0  0  0
 31 27  1  0  0  0  0
 32 28  1  0  0  0  0
 34 35  1  0  0  0  0
 34  6  1  0  0  0  0
 36 35  2  0  0  0  0
 37 43  1  6  0  0  0
 37 42  1  0  0  0  0
 38 35  1  1  0  0  0
 38 37  1  0  0  0  0
 38 39  1  0  0  0  0
 39 40  1  0  0  0  0
 40 41  1  0  0  0  0
 41 42  1  0  0  0  0
 41 45  1  1  0  0  0
 42 47  1  1  0  0  0
 44 43  1  0  0  0  0
 45 46  1  0  0  0  0
 48 47  1  0  0  0  0
M  END
>  <minimizedAffinity>
-6.90804863

>  <minimizedRMSD>
2.10733199

$$$$
