
 OpenBabel03242523543D

 48 51  0  0  1  0  0  0  0  0999 V2000
   42.8240   34.2310   39.1330 C   0  0  1  0  0  0  0  0  0  0  0  0
   43.1490   35.0540   40.3740 C   0  0  1  0  0  0  0  0  0  0  0  0
   41.9400   35.5160   40.9230 O   0  0  0  0  0  0  0  0  0  0  0  0
   40.9960   35.8420   39.9470 C   0  0  0  0  0  0  0  0  0  0  0  0
   40.4740   34.6130   39.2290 C   0  0  2  0  0  0  0  0  0  0  0  0
   41.5600   33.4940   39.4330 C   0  0  1  0  0  0  0  0  0  0  0  0
   43.6740   33.5320   38.9580 H   0  0  0  0  0  0  0  0  0  0  0  0
   43.8370   35.8850   40.1570 H   0  0  0  0  0  0  0  0  0  0  0  0
   40.1470   36.2730   40.4900 H   0  0  0  0  0  0  0  0  0  0  0  0
   41.3570   36.6270   39.2630 H   0  0  0  0  0  0  0  0  0  0  0  0
   39.5090   34.2690   39.6270 H   0  0  0  0  0  0  0  0  0  0  0  0
   41.3870   33.3890   40.5510 H   0  0  0  0  0  0  0  0  0  0  0  0
   42.6590   35.0590   38.0140 O   0  0  0  0  0  0  0  0  0  0  0  0
   43.1600   34.6980   37.2450 H   0  0  0  0  0  0  0  0  0  0  0  0
   40.4510   34.8490   37.8620 O   0  0  0  0  0  0  0  0  0  0  0  0
   39.6520   34.5190   37.4190 H   0  0  0  0  0  0  0  0  0  0  0  0
   43.6110   34.1270   41.3170 O   0  0  0  0  0  0  0  0  0  0  0  0
   44.7670   34.2220   41.9830 C   0  0  0  0  0  0  0  0  0  0  0  0
   45.9840   34.4110   41.3100 C   0  0  0  0  0  0  0  0  0  0  0  0
   47.1430   34.5020   42.0630 C   0  0  0  0  0  0  0  0  0  0  0  0
   47.0680   34.4050   43.4430 N   0  0  0  0  0  0  0  0  0  0  0  0
   45.8800   34.2230   44.0560 C   0  0  0  0  0  0  0  0  0  0  0  0
   44.7330   34.1310   43.3350 N   0  0  0  0  0  0  0  0  0  0  0  0
   46.0290   34.4850   40.2370 H   0  0  0  0  0  0  0  0  0  0  0  0
   45.8520   34.1510   45.1230 H   0  0  0  0  0  0  0  0  0  0  0  0
   48.4790   34.7030   41.4140 C   0  0  0  0  0  0  0  0  0  0  0  0
   49.0760   36.1040   41.5180 C   0  0  0  0  0  0  0  0  0  0  0  0
   49.6580   34.8710   42.1970 C   0  0  0  0  0  0  0  0  0  0  0  0
   48.4660   34.3810   40.3380 H   0  0  0  0  0  0  0  0  0  0  0  0
   48.5390   36.7780   42.2400 H   0  0  0  0  0  0  0  0  0  0  0  0
   49.6050   36.5540   40.6820 H   0  0  0  0  0  0  0  0  0  0  0  0
   50.6340   34.5580   41.7670 H   0  0  0  0  0  0  0  0  0  0  0  0
   49.5990   34.7620   43.2880 H   0  0  0  0  0  0  0  0  0  0  0  0
   41.2420   32.4690   38.6220 O   0  0  0  0  0  0  0  0  0  0  0  0
   40.2690   31.5390   38.7780 C   0  0  0  0  0  0  0  0  0  0  0  0
   39.6910   30.9900   37.7440 O   0  0  0  0  0  0  0  0  0  0  0  0
   40.1330   29.5350   40.2880 C   0  0  1  0  0  3  0  0  0  0  0  0
   39.3870   30.6920   39.6340 C   0  0  1  0  0  3  0  0  0  0  0  0
   38.9110   31.4160   40.7330 O   0  0  0  0  0  0  0  0  0  0  0  0
   37.6950   30.9030   41.1160 C   0  0  0  0  0  2  0  0  0  0  0  0
   37.8970   29.4290   41.4220 C   0  0  1  0  0  3  0  0  0  0  0  0
   39.3770   29.0750   41.5170 C   0  0  2  0  0  3  0  0  0  0  0  0
   40.4310   28.5190   39.4140 O   0  0  0  0  0  0  0  0  0  0  0  0
   41.4120   28.5070   39.1860 H   0  0  0  0  0  0  0  0  0  0  0  0
   37.3120   29.0600   42.6310 O   0  0  0  0  0  0  0  0  0  0  0  0
   37.8020   28.3280   43.0810 H   0  0  0  0  0  0  0  0  0  0  0  0
   39.8800   29.6720   42.6680 O   0  0  0  0  0  0  0  0  0  0  0  0
   40.7010   30.1840   42.5300 H   0  0  0  0  0  0  0  0  0  0  0  0
  1  7  1  6  0  0  0
  1  6  1  0  0  0  0
  1  2  1  0  0  0  0
  2  8  1  6  0  0  0
  2  3  1  0  0  0  0
  2 17  1  0  0  0  0
  4  9  1  0  0  0  0
  4  3  1  0  0  0  0
  5  6  1  0  0  0  0
  5 11  1  1  0  0  0
  5  4  1  0  0  0  0
  6 12  1  1  0  0  0
 10  4  1  0  0  0  0
 13  1  1  0  0  0  0
 14 13  1  0  0  0  0
 15  5  1  0  0  0  0
 16 15  1  0  0  0  0
 17 18  1  0  0  0  0
 18 23  1  0  0  0  0
 19 18  2  0  0  0  0
 19 20  1  0  0  0  0
 20 21  2  0  0  0  0
 21 22  1  0  0  0  0
 22 25  1  0  0  0  0
 23 22  2  0  0  0  0
 24 19  1  0  0  0  0
 26 27  1  0  0  0  0
 26 20  1  0  0  0  0
 26 28  1  0  0  0  0
 27 28  1  0  0  0  0
 27 30  1  0  0  0  0
 28 33  1  0  0  0  0
 29 26  1  0  0  0  0
 31 27  1  0  0  0  0
 32 28  1  0  0  0  0
 34 35  1  0  0  0  0
 34  6  1  0  0  0  0
 36 35  2  0  0  0  0
 37 43  1  6  0  0  0
 37 42  1  0  0  0  0
 38 35  1  1  0  0  0
 38 37  1  0  0  0  0
 38 39  1  0  0  0  0
 39 40  1  0  0  0  0
 40 41  1  0  0  0  0
 41 42  1  0  0  0  0
 41 45  1  1  0  0  0
 42 47  1  1  0  0  0
 44 43  1  0  0  0  0
 45 46  1  0  0  0  0
 48 47  1  0  0  0  0
M  END
>  <minimizedAffinity>
-6.83576965

>  <minimizedRMSD>
2.20640707

$$$$
