
 OpenBabel03242514323D

 29 31  0  0  1  0  0  0  0  0999 V2000
   48.4030   35.1240   40.6720 O   0  0  0  0  0  0  0  0  0  0  0  0
   49.6130   35.3100   42.9300 O   0  0  0  0  0  0  0  0  0  0  0  0
   48.9930   34.3150   42.0150 P   0  0  2  0  0  0  0  0  0  0  0  0
   50.2100   33.2580   41.5230 O   0  0  0  0  0  0  0  0  0  0  0  0
   50.8120   33.7280   40.8940 H   0  0  0  0  0  0  0  0  0  0  0  0
   47.7260   33.4620   42.7910 O   0  0  0  0  0  0  0  0  0  0  0  0
   46.1330   35.2630   42.7690 C   0  0  0  0  0  0  0  0  0  0  0  0
   46.6930   34.1640   43.4310 C   0  0  0  0  0  0  0  0  0  0  0  0
   46.1970   33.8230   44.6870 C   0  0  0  0  0  0  0  0  0  0  0  0
   45.1930   34.5740   45.2120 N   0  0  0  0  0  0  0  0  0  0  0  0
   44.6790   35.6230   44.5480 C   0  0  0  0  0  0  0  0  0  0  0  0
   45.1470   35.9600   43.3400 N   0  0  0  0  0  0  0  0  0  0  0  0
   46.4740   35.5720   41.7990 H   0  0  0  0  0  0  0  0  0  0  0  0
   46.6310   32.9770   45.1930 H   0  0  0  0  0  0  0  0  0  0  0  0
   43.8870   36.2020   44.9820 H   0  0  0  0  0  0  0  0  0  0  0  0
   48.1720   34.5630   39.4560 C   0  0  1  0  0  3  0  0  0  0  0  0
   48.3640   33.2910   39.5010 O   0  0  0  0  0  0  0  0  0  0  0  0
   48.9620   32.8740   37.8300 C   0  0  1  0  0  3  0  0  0  0  0  0
   47.9180   33.9580   38.1260 C   0  0  2  0  0  0  0  0  0  0  0  0
   46.6470   33.4370   38.0990 O   0  0  0  0  0  0  0  0  0  0  0  0
   46.2290   33.0830   36.8250 C   0  0  0  0  0  2  0  0  0  0  0  0
   47.3720   32.5060   36.0150 C   0  0  1  0  0  3  0  0  0  0  0  0
   48.2670   31.7950   37.0300 C   0  0  1  0  0  3  0  0  0  0  0  0
   50.0100   33.3580   37.0520 O   0  0  0  0  0  0  0  0  0  0  0  0
   49.8490   34.2720   36.7470 H   0  0  0  0  0  0  0  0  0  0  0  0
   46.9680   31.6800   34.9950 O   0  0  0  0  0  0  0  0  0  0  0  0
   46.8980   32.2170   34.1690 H   0  0  0  0  0  0  0  0  0  0  0  0
   49.1810   31.0340   36.2970 O   0  0  0  0  0  0  0  0  0  0  0  0
   50.0260   31.0240   36.7880 H   0  0  0  0  0  0  0  0  0  0  0  0
  1  3  1  0  0  0  0
  3  6  1  0  0  0  0
  3  2  2  1  0  0  0
  4  3  1  0  0  0  0
  5  4  1  0  0  0  0
  6  8  1  0  0  0  0
  7 12  2  0  0  0  0
  7  8  1  0  0  0  0
  8  9  2  0  0  0  0
  9 14  1  0  0  0  0
  9 10  1  0  0  0  0
 11 15  1  0  0  0  0
 11 10  2  0  0  0  0
 12 11  1  0  0  0  0
 13  7  1  0  0  0  0
 16 17  1  0  0  0  0
 16  1  1  1  0  0  0
 18 24  1  6  0  0  0
 18 19  1  0  0  0  0
 19 20  1  6  0  0  0
 19 16  1  0  0  0  0
 19 17  1  0  0  0  0
 21 20  1  0  0  0  0
 22 26  1  6  0  0  0
 22 21  1  0  0  0  0
 22 23  1  0  0  0  0
 23 28  1  6  0  0  0
 23 18  1  0  0  0  0
 25 24  1  0  0  0  0
 27 26  1  0  0  0  0
 28 29  1  0  0  0  0
M  END
>  <minimizedAffinity>
-5.25662947

>  <minimizedRMSD>
1.06087363

$$$$
