
     RDKit          3D

 35 36  0  0  0  0  0  0  0  0999 V2000
   46.1320   35.2849   42.6980 C   0  0  0  0  0  0  0  0  0  0  0  0
   46.6870   34.1758   43.3479 C   0  0  0  0  0  0  0  0  0  0  0  0
   46.2024   33.8348   44.6084 C   0  0  0  0  0  0  0  0  0  0  0  0
   45.2124   34.5953   45.1491 N   0  0  0  0  0  0  0  0  0  0  0  0
   44.7033   35.6534   44.4960 C   0  0  0  0  0  0  0  0  0  0  0  0
   45.1609   35.9910   43.2841 N   0  0  0  0  0  0  0  0  0  0  0  0
   47.7040   33.4660   42.6926 O   0  0  0  0  0  0  0  0  0  0  0  0
   49.5420   35.3659   42.7839 O   0  0  0  0  0  0  0  0  0  0  0  0
   48.9721   34.3079   41.9065 P   0  0  1  0  0  0  0  0  0  0  0  0
   50.2278   33.2571   41.5074 O   0  0  0  0  0  0  0  0  0  0  0  0
   48.4017   35.0287   40.5067 O   0  0  0  0  0  0  0  0  0  0  0  0
   48.0714   34.3725   39.3635 C   0  0  0  0  0  0  0  0  0  0  0  0
   46.9499   33.7557   39.5057 O   0  0  0  0  0  0  0  0  0  0  0  0
   46.4650   35.5952   41.7258 H   0  0  0  0  0  0  0  0  0  0  0  0
   46.6316   32.9814   45.1050 H   0  0  0  0  0  0  0  0  0  0  0  0
   43.9233   36.2386   44.9416 H   0  0  0  0  0  0  0  0  0  0  0  0
   50.8360   33.7076   40.8698 H   0  0  0  0  0  0  0  0  0  0  0  0
   47.1684   31.3420   38.5845 O   0  0  0  0  0  0  0  0  0  0  0  0
   46.6307   32.6123   38.3923 C   0  0  1  0  0  0  0  0  0  0  0  0
   47.7157   33.6587   38.1142 C   0  0  1  0  0  0  0  0  0  0  0  0
   47.2917   34.5685   37.1757 O   0  0  0  0  0  0  0  0  0  0  0  0
   47.1850   34.0310   35.9018 C   0  0  0  0  0  0  0  0  0  0  0  0
   46.6785   32.6036   35.9530 C   0  0  2  0  0  0  0  0  0  0  0  0
   46.0642   32.1913   34.7960 O   0  0  0  0  0  0  0  0  0  0  0  0
   45.7489   32.5478   37.1652 C   0  0  1  0  0  0  0  0  0  0  0  0
   45.0630   31.3326   37.0914 O   0  0  0  0  0  0  0  0  0  0  0  0
   48.1293   31.3191   38.4096 H   0  0  0  0  0  0  0  0  0  0  0  0
   46.0489   32.8858   39.2961 H   0  0  0  0  0  0  0  0  0  0  0  0
   48.6009   33.0461   37.7926 H   0  0  0  0  0  0  0  0  0  0  0  0
   46.3994   34.6107   35.3750 H   0  0  0  0  0  0  0  0  0  0  0  0
   48.1122   34.1280   35.2966 H   0  0  0  0  0  0  0  0  0  0  0  0
   47.5652   31.9685   36.1437 H   0  0  0  0  0  0  0  0  0  0  0  0
   46.7355   31.7371   34.2309 H   0  0  0  0  0  0  0  0  0  0  0  0
   45.0838   33.4171   37.1345 H   0  0  0  0  0  0  0  0  0  0  0  0
   44.9148   31.0157   38.0040 H   0  0  0  0  0  0  0  0  0  0  0  0
  1  6  2  0
  1  2  1  0
  2  3  2  0
  3  4  1  0
  5  4  2  0
  6  5  1  0
  7  2  1  0
  9  7  1  1
  9  8  2  0
 10  9  1  0
 11  9  1  0
 12 13  2  0
 12 11  1  0
  1 14  1  0
  3 15  1  0
  5 16  1  0
 10 17  1  0
 18 19  1  0
 19 20  1  0
 20 21  1  0
 21 22  1  0
 22 23  1  0
 23 24  1  0
 23 25  1  0
 25 26  1  0
 25 19  1  0
 18 27  1  0
 19 28  1  1
 20 29  1  6
 22 30  1  0
 22 31  1  0
 23 32  1  1
 24 33  1  0
 25 34  1  6
 26 35  1  0
 12 20  1  0
M  ISO  4  14  14  15  14  16  14  17   3
M  END
>  <DihAtoms>  (1) 
12,11,19,18

>  <DihDeg>  (1) 
-121.57062142725867

$$$$
