REMARK  Name = 
REMARK  9 active torsions:
REMARK  status: ('A' for Active; 'I' for Inactive)
REMARK    1  A    between atoms: C_2  and  O_7
REMARK    2  A    between atoms: O_7  and  P_9
REMARK    3  A    between atoms: P_9  and  O_10
REMARK    4  A    between atoms: P_9  and  O_11
REMARK    5  A    between atoms: O_11  and  C_12
REMARK    6  A    between atoms: C_12  and  C_20
REMARK    7  A    between atoms: O_18  and  C_19
REMARK    8  A    between atoms: C_23  and  O_24
REMARK    9  A    between atoms: C_25  and  O_26
REMARK                            x       y       z     vdW  Elec       q    Type
REMARK                         _______ _______ _______ _____ _____    ______ ____
ROOT
ATOM      1  O   UNL     1      48.402  35.029  40.507  0.00  0.00    +0.000 OA
ENDROOT
BRANCH   1   3
ATOM      2  O   UNL     1      49.542  35.366  42.784  0.00  0.00    +0.000 OA
ATOM      3  P   UNL     1      48.972  34.308  41.907  0.00  0.00    +0.000 P 
BRANCH   3   4
ATOM      4  O   UNL     1      50.228  33.257  41.507  0.00  0.00    +0.000 OA
ATOM      5  H   UNL     1      50.836  33.708  40.870  0.00  0.00    +0.000 HD
ENDBRANCH   3   4
BRANCH   3   6
ATOM      6  O   UNL     1      47.704  33.466  42.693  0.00  0.00    +0.000 OA
BRANCH   6   8
ATOM      7  C   UNL     1      46.132  35.285  42.698  0.00  0.00    +0.000 A 
ATOM      8  C   UNL     1      46.687  34.176  43.348  0.00  0.00    +0.000 A 
ATOM      9  C   UNL     1      46.202  33.835  44.608  0.00  0.00    +0.000 A 
ATOM     10  N   UNL     1      45.212  34.595  45.149  0.00  0.00    +0.000 NA
ATOM     11  C   UNL     1      44.703  35.653  44.496  0.00  0.00    +0.000 A 
ATOM     12  N   UNL     1      45.161  35.991  43.284  0.00  0.00    +0.000 NA
ATOM     13  H   UNL     1      46.465  35.595  41.726  0.00  0.00    +0.000 HD
ATOM     14  H   UNL     1      46.632  32.981  45.105  0.00  0.00    +0.000 HD
ATOM     15  H   UNL     1      43.923  36.239  44.942  0.00  0.00    +0.000 HD
ENDBRANCH   6   8
ENDBRANCH   3   6
ENDBRANCH   1   3
BRANCH   1  16
ATOM     16  C   UNL     1      48.071  34.373  39.364  0.00  0.00    +0.000 C 
ATOM     17  O   UNL     1      46.950  33.756  39.506  0.00  0.00    +0.000 OA
BRANCH  16  19
ATOM     18  C   UNL     1      46.193  33.538  37.988  0.00  0.00    +0.000 C 
ATOM     19  C   UNL     1      47.716  33.659  38.114  0.00  0.00    +0.000 C 
ATOM     20  O   UNL     1      48.246  34.331  37.039  0.00  0.00    +0.000 OA
ATOM     21  C   UNL     1      48.188  33.607  35.858  0.00  0.00    +0.000 C 
ATOM     22  C   UNL     1      46.908  32.800  35.775  0.00  0.00    +0.000 C 
ATOM     23  C   UNL     1      45.859  33.630  36.516  0.00  0.00    +0.000 C 
BRANCH  18  24
ATOM     24  O   UNL     1      45.728  32.306  38.444  0.00  0.00    +0.000 OA
ATOM     25  H   UNL     1      46.458  31.698  38.669  0.00  0.00    +0.000 HD
ENDBRANCH  18  24
BRANCH  22  26
ATOM     26  O   UNL     1      46.529  32.492  34.492  0.00  0.00    +0.000 OA
ATOM     27  H   UNL     1      46.888  31.600  34.266  0.00  0.00    +0.000 HD
ENDBRANCH  22  26
BRANCH  23  28
ATOM     28  O   UNL     1      44.618  33.052  36.236  0.00  0.00    +0.000 OA
ATOM     29  H   UNL     1      44.054  33.153  37.028  0.00  0.00    +0.000 HD
ENDBRANCH  23  28
ENDBRANCH  16  19
ENDBRANCH   1  16
TORSDOF 9
