
 OpenBabel03242514323D

 29 31  0  0  1  0  0  0  0  0999 V2000
   47.7740   34.6230   40.2480 O   0  0  0  0  0  0  0  0  0  0  0  0
   49.2190   35.5720   42.1480 O   0  0  0  0  0  0  0  0  0  0  0  0
   48.6640   34.2930   41.6280 P   0  0  2  0  0  0  0  0  0  0  0  0
   49.9710   33.3120   41.2120 O   0  0  0  0  0  0  0  0  0  0  0  0
   50.3950   33.6690   40.3920 H   0  0  0  0  0  0  0  0  0  0  0  0
   47.6760   33.5230   42.7960 O   0  0  0  0  0  0  0  0  0  0  0  0
   46.0770   35.3180   42.7340 C   0  0  0  0  0  0  0  0  0  0  0  0
   46.6380   34.2330   43.4180 C   0  0  0  0  0  0  0  0  0  0  0  0
   46.1380   33.9140   44.6780 C   0  0  0  0  0  0  0  0  0  0  0  0
   45.1280   34.6710   45.1850 N   0  0  0  0  0  0  0  0  0  0  0  0
   44.6140   35.7060   44.5000 C   0  0  0  0  0  0  0  0  0  0  0  0
   45.0870   36.0220   43.2870 N   0  0  0  0  0  0  0  0  0  0  0  0
   46.4210   35.6100   41.7600 H   0  0  0  0  0  0  0  0  0  0  0  0
   46.5720   33.0780   45.2010 H   0  0  0  0  0  0  0  0  0  0  0  0
   43.8180   36.2900   44.9190 H   0  0  0  0  0  0  0  0  0  0  0  0
   47.3850   33.7040   39.3260 C   0  0  1  0  0  3  0  0  0  0  0  0
   46.4770   32.9320   39.8130 O   0  0  0  0  0  0  0  0  0  0  0  0
   46.0290   33.3500   37.2880 C   0  0  1  0  0  3  0  0  0  0  0  0
   46.9650   32.7040   38.3150 C   0  0  1  0  0  0  0  0  0  0  0  0
   48.0780   32.1800   37.7030 O   0  0  0  0  0  0  0  0  0  0  0  0
   47.8040   31.0600   36.9330 C   0  0  0  0  0  2  0  0  0  0  0  0
   46.4650   31.1930   36.2340 C   0  0  1  0  0  3  0  0  0  0  0  0
   46.3020   32.6870   35.9560 C   0  0  1  0  0  3  0  0  0  0  0  0
   44.6870   33.1290   37.5940 O   0  0  0  0  0  0  0  0  0  0  0  0
   44.5770   32.5190   38.3490 H   0  0  0  0  0  0  0  0  0  0  0  0
   46.3540   30.4290   35.0990 O   0  0  0  0  0  0  0  0  0  0  0  0
   45.9330   29.5690   35.3420 H   0  0  0  0  0  0  0  0  0  0  0  0
   45.2170   32.8190   35.0860 O   0  0  0  0  0  0  0  0  0  0  0  0
   44.7570   33.6540   35.3040 H   0  0  0  0  0  0  0  0  0  0  0  0
  1  3  1  0  0  0  0
  3  2  2  1  0  0  0
  3  6  1  0  0  0  0
  4  3  1  0  0  0  0
  5  4  1  0  0  0  0
  6  8  1  0  0  0  0
  7 12  2  0  0  0  0
  7  8  1  0  0  0  0
  8  9  2  0  0  0  0
  9 10  1  0  0  0  0
  9 14  1  0  0  0  0
 11 15  1  0  0  0  0
 11 10  2  0  0  0  0
 12 11  1  0  0  0  0
 13  7  1  0  0  0  0
 16 17  1  0  0  0  0
 16  1  1  6  0  0  0
 18 24  1  1  0  0  0
 18 19  1  0  0  0  0
 19 20  1  6  0  0  0
 19 16  1  0  0  0  0
 19 17  1  0  0  0  0
 21 20  1  0  0  0  0
 22 26  1  6  0  0  0
 22 21  1  0  0  0  0
 23 28  1  6  0  0  0
 23 22  1  0  0  0  0
 23 18  1  0  0  0  0
 24 25  1  0  0  0  0
 26 27  1  0  0  0  0
 28 29  1  0  0  0  0
M  END
>  <minimizedAffinity>
-4.88579845

>  <minimizedRMSD>
1.11638403

$$$$
