
     RDKit          3D

 35 36  0  0  0  0  0  0  0  0999 V2000
   46.1320   35.2849   42.6980 C   0  0  0  0  0  0  0  0  0  0  0  0
   46.6870   34.1758   43.3479 C   0  0  0  0  0  0  0  0  0  0  0  0
   46.2024   33.8348   44.6084 C   0  0  0  0  0  0  0  0  0  0  0  0
   45.2124   34.5953   45.1491 N   0  0  0  0  0  0  0  0  0  0  0  0
   44.7033   35.6534   44.4960 C   0  0  0  0  0  0  0  0  0  0  0  0
   45.1609   35.9910   43.2841 N   0  0  0  0  0  0  0  0  0  0  0  0
   47.7040   33.4660   42.6926 O   0  0  0  0  0  0  0  0  0  0  0  0
   49.5420   35.3659   42.7839 O   0  0  0  0  0  0  0  0  0  0  0  0
   48.9721   34.3079   41.9065 P   0  0  1  0  0  0  0  0  0  0  0  0
   50.2278   33.2571   41.5074 O   0  0  0  0  0  0  0  0  0  0  0  0
   48.4017   35.0287   40.5067 O   0  0  0  0  0  0  0  0  0  0  0  0
   48.0714   34.3725   39.3635 C   0  0  0  0  0  0  0  0  0  0  0  0
   46.9499   33.7557   39.5057 O   0  0  0  0  0  0  0  0  0  0  0  0
   46.4650   35.5952   41.7258 H   0  0  0  0  0  0  0  0  0  0  0  0
   46.6316   32.9814   45.1050 H   0  0  0  0  0  0  0  0  0  0  0  0
   43.9233   36.2386   44.9416 H   0  0  0  0  0  0  0  0  0  0  0  0
   50.8360   33.7076   40.8698 H   0  0  0  0  0  0  0  0  0  0  0  0
   49.6908   32.6749   37.1048 O   0  0  0  0  0  0  0  0  0  0  0  0
   48.6044   32.4222   37.9390 C   0  0  1  0  0  0  0  0  0  0  0  0
   47.7157   33.6587   38.1142 C   0  0  1  0  0  0  0  0  0  0  0  0
   46.3877   33.3076   38.1535 O   0  0  0  0  0  0  0  0  0  0  0  0
   45.9014   32.8692   36.9311 C   0  0  0  0  0  0  0  0  0  0  0  0
   46.9454   32.0612   36.1869 C   0  0  2  0  0  0  0  0  0  0  0  0
   46.4186   31.1848   35.2702 O   0  0  0  0  0  0  0  0  0  0  0  0
   47.7614   31.3584   37.2717 C   0  0  1  0  0  0  0  0  0  0  0  0
   48.5553   30.4069   36.6260 O   0  0  0  0  0  0  0  0  0  0  0  0
   49.6432   33.5615   36.6973 H   0  0  0  0  0  0  0  0  0  0  0  0
   48.9901   32.0780   38.9202 H   0  0  0  0  0  0  0  0  0  0  0  0
   47.9923   34.3117   37.2428 H   0  0  0  0  0  0  0  0  0  0  0  0
   45.0742   32.1633   37.1507 H   0  0  0  0  0  0  0  0  0  0  0  0
   45.4702   33.6800   36.3048 H   0  0  0  0  0  0  0  0  0  0  0  0
   47.5888   32.7954   35.6645 H   0  0  0  0  0  0  0  0  0  0  0  0
   46.4012   31.6291   34.3878 H   0  0  0  0  0  0  0  0  0  0  0  0
   47.0698   30.9175   37.9972 H   0  0  0  0  0  0  0  0  0  0  0  0
   49.4013   30.3428   37.1110 H   0  0  0  0  0  0  0  0  0  0  0  0
  1  6  2  0
  1  2  1  0
  2  3  2  0
  3  4  1  0
  5  4  2  0
  6  5  1  0
  7  2  1  0
  9  7  1  1
  9  8  2  0
 10  9  1  0
 11  9  1  0
 12 13  2  0
 12 11  1  0
  1 14  1  0
  3 15  1  0
  5 16  1  0
 10 17  1  0
 18 19  1  0
 19 20  1  0
 20 21  1  0
 21 22  1  0
 22 23  1  0
 23 24  1  0
 23 25  1  0
 25 26  1  0
 25 19  1  0
 18 27  1  0
 19 28  1  1
 20 29  1  6
 22 30  1  0
 22 31  1  0
 23 32  1  6
 24 33  1  0
 25 34  1  1
 26 35  1  0
 12 20  1  0
M  ISO  4  14  14  15  14  16  14  17   3
M  END
>  <DihAtoms>  (1) 
12,11,19,18

>  <DihDeg>  (1) 
-121.57062142725867

$$$$
