
 OpenBabel03242514323D

 29 31  0  0  1  0  0  0  0  0999 V2000
   48.4590   34.9030   40.6030 O   0  0  0  0  0  0  0  0  0  0  0  0
   49.6260   35.3900   42.8380 O   0  0  0  0  0  0  0  0  0  0  0  0
   49.0720   34.2720   42.0280 P   0  0  2  0  0  0  0  0  0  0  0  0
   50.3510   33.2370   41.6600 O   0  0  0  0  0  0  0  0  0  0  0  0
   50.9350   33.6700   40.9900 H   0  0  0  0  0  0  0  0  0  0  0  0
   47.8420   33.4380   42.8790 O   0  0  0  0  0  0  0  0  0  0  0  0
   46.2450   35.2290   42.7350 C   0  0  0  0  0  0  0  0  0  0  0  0
   46.7750   34.1480   43.4490 C   0  0  0  0  0  0  0  0  0  0  0  0
   46.2160   33.8320   44.6850 C   0  0  0  0  0  0  0  0  0  0  0  0
   45.1820   34.5890   45.1410 N   0  0  0  0  0  0  0  0  0  0  0  0
   44.6990   35.6200   44.4290 C   0  0  0  0  0  0  0  0  0  0  0  0
   45.2280   35.9340   43.2390 N   0  0  0  0  0  0  0  0  0  0  0  0
   46.6340   35.5190   41.7780 H   0  0  0  0  0  0  0  0  0  0  0  0
   46.6270   32.9990   45.2310 H   0  0  0  0  0  0  0  0  0  0  0  0
   43.8840   36.2040   44.8090 H   0  0  0  0  0  0  0  0  0  0  0  0
   48.1390   34.1800   39.4970 C   0  0  2  0  0  3  0  0  0  0  0  0
   46.8640   34.0230   39.4130 O   0  0  0  0  0  0  0  0  0  0  0  0
   46.2840   33.1550   38.2220 C   0  0  2  0  0  0  0  0  0  0  0  0
   47.7980   33.3900   38.2900 C   0  0  1  0  0  3  0  0  0  0  0  0
   48.2420   34.0530   37.1710 O   0  0  0  0  0  0  0  0  0  0  0  0
   48.1990   33.2780   36.0220 C   0  0  0  0  0  2  0  0  0  0  0  0
   46.9800   32.3780   36.0160 C   0  0  1  0  0  3  0  0  0  0  0  0
   45.8970   33.1610   36.7600 C   0  0  1  0  0  3  0  0  0  0  0  0
   45.9260   31.9130   38.7430 O   0  0  0  0  0  0  0  0  0  0  0  0
   46.7060   31.3690   38.9650 H   0  0  0  0  0  0  0  0  0  0  0  0
   46.5830   31.9900   34.7600 O   0  0  0  0  0  0  0  0  0  0  0  0
   46.9990   31.1180   34.5570 H   0  0  0  0  0  0  0  0  0  0  0  0
   44.6940   32.4830   36.5470 O   0  0  0  0  0  0  0  0  0  0  0  0
   44.1500   32.5770   37.3540 H   0  0  0  0  0  0  0  0  0  0  0  0
  1  3  1  0  0  0  0
  3  2  2  1  0  0  0
  3  6  1  0  0  0  0
  4  3  1  0  0  0  0
  5  4  1  0  0  0  0
  6  8  1  0  0  0  0
  7 12  2  0  0  0  0
  7  8  1  0  0  0  0
  8  9  2  0  0  0  0
  9 10  1  0  0  0  0
  9 14  1  0  0  0  0
 11 15  1  0  0  0  0
 11 10  2  0  0  0  0
 12 11  1  0  0  0  0
 13  7  1  0  0  0  0
 16  1  1  1  0  0  0
 17 16  1  0  0  0  0
 18 19  1  0  0  0  0
 18 24  1  1  0  0  0
 18 17  1  0  0  0  0
 19 20  1  6  0  0  0
 19 16  1  0  0  0  0
 21 20  1  0  0  0  0
 22 26  1  6  0  0  0
 22 21  1  0  0  0  0
 22 23  1  0  0  0  0
 23 28  1  1  0  0  0
 23 18  1  0  0  0  0
 24 25  1  0  0  0  0
 27 26  1  0  0  0  0
 28 29  1  0  0  0  0
M  END
>  <minimizedAffinity>
-5.01714897

>  <minimizedRMSD>
0.335220337

$$$$
