
 OpenBabel03242514323D

 29 30  0  0  1  0  0  0  0  0999 V2000
   48.3800   35.1130   40.6950 O   0  0  0  0  0  0  0  0  0  0  0  0
   49.6460   35.2800   42.9230 O   0  0  0  0  0  0  0  0  0  0  0  0
   48.9940   34.2940   42.0200 P   0  0  2  0  0  0  0  0  0  0  0  0
   50.1880   33.2260   41.4960 O   0  0  0  0  0  0  0  0  0  0  0  0
   50.7790   33.6930   40.8540 H   0  0  0  0  0  0  0  0  0  0  0  0
   47.7370   33.4510   42.8240 O   0  0  0  0  0  0  0  0  0  0  0  0
   46.1490   35.2550   42.7680 C   0  0  0  0  0  0  0  0  0  0  0  0
   46.6990   34.1600   43.4460 C   0  0  0  0  0  0  0  0  0  0  0  0
   46.1890   33.8310   44.6990 C   0  0  0  0  0  0  0  0  0  0  0  0
   45.1790   34.5890   45.2070 N   0  0  0  0  0  0  0  0  0  0  0  0
   44.6760   35.6330   44.5280 C   0  0  0  0  0  0  0  0  0  0  0  0
   45.1580   35.9590   43.3220 N   0  0  0  0  0  0  0  0  0  0  0  0
   46.5010   35.5550   41.8000 H   0  0  0  0  0  0  0  0  0  0  0  0
   46.6150   32.9880   45.2170 H   0  0  0  0  0  0  0  0  0  0  0  0
   43.8800   36.2170   44.9480 H   0  0  0  0  0  0  0  0  0  0  0  0
   48.1420   34.5660   39.4740 C   0  0  0  0  0  0  0  0  0  0  0  0
   47.1040   33.8060   39.5130 O   0  0  0  0  0  0  0  0  0  0  0  0
   48.9530   32.9150   37.8180 C   0  0  1  0  0  3  0  0  0  0  0  0
   47.8900   33.9720   38.1390 C   0  0  1  0  0  3  0  0  0  0  0  0
   46.6300   33.4230   38.1180 O   0  0  0  0  0  0  0  0  0  0  0  0
   46.2060   33.0760   36.8430 C   0  0  0  0  0  2  0  0  0  0  0  0
   47.3540   32.5360   36.0150 C   0  0  1  0  0  3  0  0  0  0  0  0
   48.2750   31.8310   37.0110 C   0  0  1  0  0  3  0  0  0  0  0  0
   49.9820   33.4340   37.0350 O   0  0  0  0  0  0  0  0  0  0  0  0
   49.7990   34.3470   36.7440 H   0  0  0  0  0  0  0  0  0  0  0  0
   46.9590   31.7150   34.9880 O   0  0  0  0  0  0  0  0  0  0  0  0
   46.8680   32.2600   34.1690 H   0  0  0  0  0  0  0  0  0  0  0  0
   49.1980   31.1000   36.2590 O   0  0  0  0  0  0  0  0  0  0  0  0
   50.0490   31.1030   36.7420 H   0  0  0  0  0  0  0  0  0  0  0  0
  1  3  1  0  0  0  0
  3  6  1  0  0  0  0
  3  2  2  1  0  0  0
  4  3  1  0  0  0  0
  5  4  1  0  0  0  0
  6  8  1  0  0  0  0
  7 12  2  0  0  0  0
  7  8  1  0  0  0  0
  8  9  2  0  0  0  0
  9 10  1  0  0  0  0
  9 14  1  0  0  0  0
 11 15  1  0  0  0  0
 11 10  2  0  0  0  0
 12 11  1  0  0  0  0
 13  7  1  0  0  0  0
 16 17  2  0  0  0  0
 16  1  1  0  0  0  0
 18 24  1  6  0  0  0
 18 19  1  0  0  0  0
 19 16  1  1  0  0  0
 20 19  1  0  0  0  0
 21 20  1  0  0  0  0
 22 26  1  6  0  0  0
 22 21  1  0  0  0  0
 22 23  1  0  0  0  0
 23 28  1  6  0  0  0
 23 18  1  0  0  0  0
 25 24  1  0  0  0  0
 27 26  1  0  0  0  0
 28 29  1  0  0  0  0
M  END
>  <minimizedAffinity>
-5.29534769

>  <minimizedRMSD>
0.336883605

$$$$
