
 OpenBabel03242514323D

 29 31  0  0  1  0  0  0  0  0999 V2000
   48.5610   34.7150   40.8760 O   0  0  0  0  0  0  0  0  0  0  0  0
   49.7470   35.3040   43.0770 O   0  0  0  0  0  0  0  0  0  0  0  0
   49.3060   34.1400   42.2610 P   0  0  2  0  0  0  0  0  0  0  0  0
   50.6900   33.2830   41.8210 O   0  0  0  0  0  0  0  0  0  0  0  0
   51.1870   33.8000   41.1400 H   0  0  0  0  0  0  0  0  0  0  0  0
   48.2270   33.1400   43.1380 O   0  0  0  0  0  0  0  0  0  0  0  0
   46.4120   34.7180   43.1520 C   0  0  0  0  0  0  0  0  0  0  0  0
   47.1270   33.7030   43.8020 C   0  0  0  0  0  0  0  0  0  0  0  0
   46.7090   33.3060   45.0690 C   0  0  0  0  0  0  0  0  0  0  0  0
   45.6270   33.9210   45.6180 N   0  0  0  0  0  0  0  0  0  0  0  0
   44.9660   34.8910   44.9660 C   0  0  0  0  0  0  0  0  0  0  0  0
   45.3570   35.2830   43.7460 N   0  0  0  0  0  0  0  0  0  0  0  0
   46.6870   35.0650   42.1750 H   0  0  0  0  0  0  0  0  0  0  0  0
   47.2620   32.5250   45.5660 H   0  0  0  0  0  0  0  0  0  0  0  0
   44.1150   35.3640   45.4180 H   0  0  0  0  0  0  0  0  0  0  0  0
   48.2510   33.9690   39.7830 C   0  0  2  0  0  3  0  0  0  0  0  0
   46.9750   33.8670   39.6540 O   0  0  0  0  0  0  0  0  0  0  0  0
   48.3180   33.8990   37.3110 C   0  0  1  0  0  3  0  0  0  0  0  0
   47.9200   33.1540   38.5900 C   0  0  1  0  0  0  0  0  0  0  0  0
   48.5660   31.9430   38.6730 O   0  0  0  0  0  0  0  0  0  0  0  0
   48.1170   31.0190   37.7420 C   0  0  0  0  0  2  0  0  0  0  0  0
   47.7900   31.6890   36.4230 C   0  0  1  0  0  3  0  0  0  0  0  0
   48.7680   32.8580   36.3100 C   0  0  1  0  0  3  0  0  0  0  0  0
   47.2400   34.5780   36.7480 O   0  0  0  0  0  0  0  0  0  0  0  0
   46.4010   34.3800   37.2060 H   0  0  0  0  0  0  0  0  0  0  0  0
   47.8500   30.8440   35.3410 O   0  0  0  0  0  0  0  0  0  0  0  0
   46.9450   30.4880   35.1730 H   0  0  0  0  0  0  0  0  0  0  0  0
   48.6770   33.3350   35.0000 O   0  0  0  0  0  0  0  0  0  0  0  0
   48.8130   34.3030   35.0220 H   0  0  0  0  0  0  0  0  0  0  0  0
  1  3  1  0  0  0  0
  3  2  2  1  0  0  0
  3  6  1  0  0  0  0
  4  3  1  0  0  0  0
  5  4  1  0  0  0  0
  6  8  1  0  0  0  0
  7 12  2  0  0  0  0
  7  8  1  0  0  0  0
  8  9  2  0  0  0  0
  9 14  1  0  0  0  0
  9 10  1  0  0  0  0
 11 15  1  0  0  0  0
 11 10  2  0  0  0  0
 12 11  1  0  0  0  0
 13  7  1  0  0  0  0
 16  1  1  1  0  0  0
 17 16  1  0  0  0  0
 18 24  1  6  0  0  0
 18 19  1  0  0  0  0
 19 20  1  1  0  0  0
 19 17  1  0  0  0  0
 19 16  1  0  0  0  0
 21 20  1  0  0  0  0
 22 26  1  6  0  0  0
 22 21  1  0  0  0  0
 23 28  1  6  0  0  0
 23 22  1  0  0  0  0
 23 18  1  0  0  0  0
 24 25  1  0  0  0  0
 27 26  1  0  0  0  0
 28 29  1  0  0  0  0
M  END
>  <minimizedAffinity>
-5.25433588

>  <minimizedRMSD>
0.914172471

$$$$
