
 OpenBabel03242514193D

 48 50  0  0  0  0  0  0  0  0999 V2000
   46.1300   34.5530   43.6140 C   0  0  0  0  0  0  0  0  0  0  0  0
   46.1260   33.7940   44.7590 C   0  0  0  0  0  0  0  0  0  0  0  0
   45.3100   34.2030   45.7740 C   0  0  0  0  0  0  0  0  0  0  0  0
   44.5510   35.3100   45.6220 N   0  0  0  0  0  0  0  0  0  0  0  0
   44.5530   36.0410   44.5200 C   0  0  0  0  0  0  0  0  0  0  0  0
   45.3450   35.6510   43.5300 N   0  0  0  0  0  0  0  0  0  0  0  0
   45.1650   33.7520   46.7460 H   0  0  0  0  0  0  0  0  0  0  0  0
   43.9620   36.9370   44.3450 H   0  0  0  0  0  0  0  0  0  0  0  0
   46.9560   34.0760   42.4970 C   0  0  0  0  0  0  0  0  0  0  0  0
   48.3480   34.6390   42.5660 C   0  0  0  0  0  0  0  0  0  0  0  0
   48.6530   35.5140   41.4330 C   0  0  0  0  0  0  0  0  0  0  0  0
   48.4460   34.8100   40.1070 C   0  0  0  0  0  0  0  0  0  0  0  0
   47.1890   34.0310   40.0440 C   0  0  0  0  0  0  0  0  0  0  0  0
   46.2740   34.3470   41.2050 C   0  0  0  0  0  0  0  0  0  0  0  0
   47.1300   32.9920   42.6330 H   0  0  0  0  0  0  0  0  0  0  0  0
   49.1230   33.8550   42.6330 H   0  0  0  0  0  0  0  0  0  0  0  0
   48.4340   35.2160   43.5110 H   0  0  0  0  0  0  0  0  0  0  0  0
   47.9000   36.3560   41.4380 H   0  0  0  0  0  0  0  0  0  0  0  0
   49.6500   35.9530   41.4190 H   0  0  0  0  0  0  0  0  0  0  0  0
   48.5480   35.5290   39.2530 H   0  0  0  0  0  0  0  0  0  0  0  0
   49.3180   34.1040   39.9860 H   0  0  0  0  0  0  0  0  0  0  0  0
   46.6070   34.1360   39.1000 H   0  0  0  0  0  0  0  0  0  0  0  0
   47.3930   32.9280   40.1260 H   0  0  0  0  0  0  0  0  0  0  0  0
   45.3710   33.7050   41.1500 H   0  0  0  0  0  0  0  0  0  0  0  0
   46.0050   35.4340   41.1310 H   0  0  0  0  0  0  0  0  0  0  0  0
   46.7920   32.6870   45.0920 O   0  0  0  0  0  0  0  0  0  0  0  0
   47.2280   32.1500   46.2660 C   0  0  0  0  0  0  0  0  0  0  0  0
   48.3350   32.3680   46.3480 H   0  0  0  0  0  0  0  0  0  0  0  0
   46.8040   32.5090   47.2070 H   0  0  0  0  0  0  0  0  0  0  0  0
   47.1370   30.6370   46.3340 C   0  0  0  0  0  0  0  0  0  0  0  0
   48.0960   30.2250   45.9290 H   0  0  0  0  0  0  0  0  0  0  0  0
   47.1320   30.3470   47.4220 H   0  0  0  0  0  0  0  0  0  0  0  0
   46.0050   30.1200   45.6080 N   0  0  0  0  0  0  0  0  0  0  0  0
   46.3070   29.2430   45.1230 H   0  0  0  0  0  0  0  0  0  0  0  0
   44.8420   29.5660   46.7870 S   0  0  0  0  0  0  0  0  0  0  0  0
   43.6010   29.0550   46.1260 O   0  0  0  0  0  0  0  0  0  0  0  0
   43.0910   29.5300   45.4440 H   0  0  0  0  0  0  0  0  0  0  0  0
   44.5280   30.7230   47.6780 O   0  0  0  0  0  0  0  0  0  0  0  0
   45.0040   30.8720   48.5320 H   0  0  0  0  0  0  0  0  0  0  0  0
   45.5040   28.3550   47.7370 O   0  0  0  0  0  0  0  0  0  0  0  0
   44.9300   27.0910   47.6440 C   0  0  0  0  0  0  0  0  0  0  0  0
   44.7620   26.0290   46.7620 C   0  0  0  0  0  0  0  0  0  0  0  0
   45.2300   26.2110   45.8010 H   0  0  0  0  0  0  0  0  0  0  0  0
   44.0270   25.0610   47.4440 C   0  0  0  0  0  0  0  0  0  0  0  0
   43.8170   24.1650   46.8750 H   0  0  0  0  0  0  0  0  0  0  0  0
   43.7700   25.5330   48.6770 N   0  0  0  0  0  0  0  0  0  0  0  0
   43.2230   24.9420   49.3430 H   0  0  0  0  0  0  0  0  0  0  0  0
   44.3060   26.7480   48.8070 N   0  0  0  0  0  0  0  0  0  0  0  0
  1  2  1  0  0  0  0
  2 26  1  0  0  0  0
  2  3  2  0  0  0  0
  3  7  1  0  0  0  0
  4  3  1  0  0  0  0
  5  4  2  0  0  0  0
  6  1  2  0  0  0  0
  6  5  1  0  0  0  0
  8  5  1  0  0  0  0
  9 10  1  0  0  0  0
  9 15  1  0  0  0  0
  9  1  1  0  0  0  0
 10 16  1  0  0  0  0
 10 17  1  0  0  0  0
 11 18  1  0  0  0  0
 11 10  1  0  0  0  0
 12 11  1  0  0  0  0
 13 12  1  0  0  0  0
 13 23  1  0  0  0  0
 13 14  1  0  0  0  0
 14  9  1  0  0  0  0
 19 11  1  0  0  0  0
 20 12  1  0  0  0  0
 21 12  1  0  0  0  0
 22 13  1  0  0  0  0
 24 14  1  0  0  0  0
 25 14  1  0  0  0  0
 26 27  1  0  0  0  0
 27 30  1  0  0  0  0
 27 28  1  0  0  0  0
 27 29  1  0  0  0  0
 30 32  1  0  0  0  0
 31 30  1  0  0  0  0
 33 30  1  0  0  0  0
 33 35  1  0  0  0  0
 34 33  1  0  0  0  0
 35 38  1  0  0  0  0
 35 40  1  0  0  0  0
 36 35  1  0  0  0  0
 37 36  1  0  0  0  0
 38 39  1  0  0  0  0
 41 40  1  0  0  0  0
 41 48  2  0  0  0  0
 42 44  2  0  0  0  0
 42 41  1  0  0  0  0
 43 42  1  0  0  0  0
 44 46  1  0  0  0  0
 45 44  1  0  0  0  0
 46 48  1  0  0  0  0
 46 47  1  0  0  0  0
M  END
>  <minimizedAffinity>
-5.89712811

>  <minimizedRMSD>
1.42136061

$$$$
