REMARK  Name = 
REMARK  7 active torsions:
REMARK  status: ('A' for Active; 'I' for Inactive)
REMARK    1  A    between atoms: C_1  and  C_7
REMARK    2  A    between atoms: C_2  and  O_9
REMARK    3  A    between atoms: C_7  and  C_8
REMARK    4  A    between atoms: O_9  and  P_11
REMARK    5  A    between atoms: P_11  and  O_12
REMARK    6  A    between atoms: P_11  and  O_13
REMARK    7  A    between atoms: O_13  and  C_22
REMARK                            x       y       z     vdW  Elec       q    Type
REMARK                         _______ _______ _______ _____ _____    ______ ____
ROOT
ATOM      1  C   UNL     1      46.639  34.311  42.917  0.00  0.00    +0.000 A 
ATOM      2  C   UNL     1      45.426  34.770  43.392  0.00  0.00    +0.000 A 
ATOM      3  C   UNL     1      45.075  34.419  44.707  0.00  0.00    +0.000 A 
ATOM      4  N   UNL     1      45.936  33.664  45.412  0.00  0.00    +0.000 NA
ATOM      5  C   UNL     1      47.109  33.233  44.921  0.00  0.00    +0.000 A 
ATOM      6  N   UNL     1      47.453  33.561  43.673  0.00  0.00    +0.000 NA
ATOM      7  H   UNL     1      44.122  34.789  45.058  0.00  0.00    +0.000 HD
ATOM      8  H   UNL     1      47.749  32.622  45.566  0.00  0.00    +0.000 HD
ENDROOT
BRANCH   1   9
ATOM      9  C   UNL     1      47.081  34.631  41.558  0.00  0.00    +0.000 C 
ATOM     10  H   UNL     1      46.312  35.200  40.991  0.00  0.00    +0.000 HD
ATOM     11  H   UNL     1      47.247  33.680  41.010  0.00  0.00    +0.000 HD
BRANCH   9  12
ATOM     12  C   UNL     1      48.408  35.351  41.622  0.00  0.00    +0.000 C 
ATOM     13  H   UNL     1      49.153  34.882  40.925  0.00  0.00    +0.000 HD
ATOM     14  H   UNL     1      48.221  36.397  41.248  0.00  0.00    +0.000 HD
ATOM     15  H   UNL     1      48.816  35.443  42.643  0.00  0.00    +0.000 HD
ENDBRANCH   9  12
ENDBRANCH   1   9
BRANCH   2  16
ATOM     16  O   UNL     1      44.660  35.536  42.533  0.00  0.00    +0.000 OA
BRANCH  16  18
ATOM     17  O   UNL     1      43.229  35.459  40.328  0.00  0.00    +0.000 OA
ATOM     18  P   UNL     1      43.201  35.102  41.812  0.00  0.00    +0.000 P 
BRANCH  18  19
ATOM     19  O   UNL     1      43.053  33.402  41.928  0.00  0.00    +0.000 OA
ATOM     20  H   UNL     1      42.163  33.083  41.638  0.00  0.00    +0.000 HD
ENDBRANCH  18  19
BRANCH  18  21
ATOM     21  O   UNL     1      41.852  35.790  42.566  0.00  0.00    +0.000 OA
BRANCH  21  22
ATOM     22  C   UNL     1      40.720  36.073  41.814  0.00  0.00    +0.000 A 
ATOM     23  C   UNL     1      40.889  35.721  40.470  0.00  0.00    +0.000 A 
ATOM     24  H   UNL     1      41.674  35.279  39.837  0.00  0.00    +0.000 HD
ATOM     25  C   UNL     1      39.718  36.033  39.780  0.00  0.00    +0.000 A 
ATOM     26  H   UNL     1      39.349  35.963  38.773  0.00  0.00    +0.000 HD
ATOM     27  N   UNL     1      38.894  36.557  40.731  0.00  0.00    +0.000 N 
ATOM     28  H   UNL     1      37.914  36.950  40.776  0.00  0.00    +0.000 HD
ATOM     29  N   UNL     1      39.490  36.576  41.914  0.00  0.00    +0.000 NA
ENDBRANCH  21  22
ENDBRANCH  18  21
ENDBRANCH  16  18
ENDBRANCH   2  16
TORSDOF 7
