
 OpenBabel03242512093D

 32 34  0  0  1  0  0  0  0  0999 V2000
   48.2350   34.5120   41.1750 C   0  0  1  0  0  0  0  0  0  0  0  0
   48.9020   35.8120   41.7690 C   0  0  0  0  0  0  0  0  0  0  0  0
   49.1500   34.4680   42.3110 C   0  0  2  0  0  0  0  0  0  0  0  0
   48.6160   34.2820   40.1740 H   0  0  0  0  0  0  0  0  0  0  0  0
   49.6540   36.3020   41.1150 H   0  0  0  0  0  0  0  0  0  0  0  0
   48.2230   36.5040   42.3050 H   0  0  0  0  0  0  0  0  0  0  0  0
   48.6560   34.0150   43.1840 H   0  0  0  0  0  0  0  0  0  0  0  0
   46.7610   34.4990   41.3950 C   0  0  0  0  0  0  0  0  0  0  0  0
   46.0470   34.2670   40.4260 O   0  0  0  0  0  0  0  0  0  0  0  0
   45.4550   35.8740   42.9450 C   0  0  0  0  0  0  0  0  0  0  0  0
   46.1290   34.7350   42.6560 C   0  0  0  0  0  0  0  0  0  0  0  0
   46.2000   33.7390   43.6650 C   0  0  0  0  0  0  0  0  0  0  0  0
   45.6070   33.9390   44.8680 N   0  0  0  0  0  0  0  0  0  0  0  0
   44.9390   35.1030   45.1100 C   0  0  0  0  0  0  0  0  0  0  0  0
   44.8690   36.0340   44.1760 N   0  0  0  0  0  0  0  0  0  0  0  0
   45.4090   36.6190   42.1700 H   0  0  0  0  0  0  0  0  0  0  0  0
   46.6920   32.8090   43.5630 H   0  0  0  0  0  0  0  0  0  0  0  0
   44.4510   35.3130   46.0460 H   0  0  0  0  0  0  0  0  0  0  0  0
   50.4630   34.0350   42.1440 O   0  0  0  0  0  0  0  0  0  0  0  0
   49.1050   31.9550   42.8470 O   0  0  0  0  0  0  0  0  0  0  0  0
   50.4190   32.3360   42.1880 P   0  0  2  0  0  0  0  0  0  0  0  0
   51.7140   31.6460   42.9690 O   0  0  0  0  0  0  0  0  0  0  0  0
   52.5020   32.2250   42.9920 H   0  0  0  0  0  0  0  0  0  0  0  0
   50.2760   31.7740   40.5620 O   0  0  0  0  0  0  0  0  0  0  0  0
   51.4160   31.5960   39.7740 C   0  0  0  0  0  0  0  0  0  0  0  0
   52.7680   31.3270   39.8900 C   0  0  0  0  0  0  0  0  0  0  0  0
   53.0990   31.2060   40.9120 H   0  0  0  0  0  0  0  0  0  0  0  0
   53.2790   31.2990   38.5880 C   0  0  0  0  0  0  0  0  0  0  0  0
   54.3310   31.1000   38.5030 H   0  0  0  0  0  0  0  0  0  0  0  0
   52.2520   31.5450   37.7520 N   0  0  0  0  0  0  0  0  0  0  0  0
   52.5060   31.5520   36.7400 H   0  0  0  0  0  0  0  0  0  0  0  0
   51.1440   31.7220   38.4490 N   0  0  0  0  0  0  0  0  0  0  0  0
  1  4  1  6  0  0  0
  1  8  1  0  0  0  0
  1  2  1  0  0  0  0
  1  3  1  0  0  0  0
  2  6  1  0  0  0  0
  2  3  1  0  0  0  0
  3  7  1  1  0  0  0
  5  2  1  0  0  0  0
  8 11  1  0  0  0  0
  9  8  2  0  0  0  0
 10 15  1  0  0  0  0
 11 10  2  0  0  0  0
 11 12  1  0  0  0  0
 12 13  2  0  0  0  0
 13 14  1  0  0  0  0
 14 18  1  0  0  0  0
 15 14  2  0  0  0  0
 16 10  1  0  0  0  0
 17 12  1  0  0  0  0
 19 21  1  0  0  0  0
 19  3  1  0  0  0  0
 21 20  2  1  0  0  0
 21 22  1  0  0  0  0
 22 23  1  0  0  0  0
 24 21  1  0  0  0  0
 25 26  1  0  0  0  0
 25 24  1  0  0  0  0
 26 27  1  0  0  0  0
 28 26  2  0  0  0  0
 29 28  1  0  0  0  0
 30 32  1  0  0  0  0
 30 28  1  0  0  0  0
 31 30  1  0  0  0  0
 32 25  2  0  0  0  0
M  END
>  <minimizedAffinity>
-5.0353961

>  <minimizedRMSD>
0.566823184

$$$$
