
 OpenBabel03252500443D

 33 35  0  0  1  0  0  0  0  0999 V2000
   47.5810   35.2480   41.6750 C   0  0  1  0  0  0  0  0  0  0  0  0
   49.0980   35.3560   41.5290 C   0  0  0  0  0  0  0  0  0  0  0  0
   48.2350   34.9390   40.3600 C   0  0  1  0  0  0  0  0  0  0  0  0
   47.1340   36.2550   41.8250 H   0  0  0  0  0  0  0  0  0  0  0  0
   49.5900   36.3280   41.5290 H   0  0  0  0  0  0  0  0  0  0  0  0
   49.6910   34.5450   42.0020 H   0  0  0  0  0  0  0  0  0  0  0  0
   48.1610   35.7270   39.5770 H   0  0  0  0  0  0  0  0  0  0  0  0
   47.0770   34.0770   42.4180 C   0  0  0  0  0  0  0  0  0  0  0  0
   47.8650   33.3440   42.6850 H   0  0  0  0  0  0  0  0  0  0  0  0
   46.4090   33.5050   41.7080 H   0  0  0  0  0  0  0  0  0  0  0  0
   46.2330   34.4000   43.5770 C   0  0  0  0  0  0  0  0  0  0  0  0
   45.4560   35.5120   43.4030 C   0  0  0  0  0  0  0  0  0  0  0  0
   44.6100   35.9530   44.4290 C   0  0  0  0  0  0  0  0  0  0  0  0
   44.6310   35.1940   45.5800 N   0  0  0  0  0  0  0  0  0  0  0  0
   45.4030   34.1000   45.7320 C   0  0  0  0  0  0  0  0  0  0  0  0
   46.1890   33.7190   44.7360 N   0  0  0  0  0  0  0  0  0  0  0  0
   45.2880   36.2180   42.6010 H   0  0  0  0  0  0  0  0  0  0  0  0
   43.9390   36.7960   44.4670 H   0  0  0  0  0  0  0  0  0  0  0  0
   45.3280   33.5900   46.6830 H   0  0  0  0  0  0  0  0  0  0  0  0
   48.2890   33.6200   39.9880 O   0  0  0  0  0  0  0  0  0  0  0  0
   48.3230   34.7340   37.5620 O   0  0  0  0  0  0  0  0  0  0  0  0
   48.3340   33.4130   38.3120 P   0  0  1  0  0  0  0  0  0  0  0  0
   49.8020   32.6290   37.9180 O   0  0  0  0  0  0  0  0  0  0  0  0
   50.5090   32.8640   38.5670 H   0  0  0  0  0  0  0  0  0  0  0  0
   47.0520   32.4240   37.8500 O   0  0  0  0  0  0  0  0  0  0  0  0
   46.6180   32.3640   36.5330 C   0  0  0  0  0  0  0  0  0  0  0  0
   46.9710   31.8110   35.3200 C   0  0  0  0  0  0  0  0  0  0  0  0
   47.8760   31.2200   35.3420 H   0  0  0  0  0  0  0  0  0  0  0  0
   45.9920   32.2200   34.4140 C   0  0  0  0  0  0  0  0  0  0  0  0
   46.1210   31.8640   33.3920 H   0  0  0  0  0  0  0  0  0  0  0  0
   45.0930   32.9860   35.0750 N   0  0  0  0  0  0  0  0  0  0  0  0
   44.2830   33.3830   34.5500 H   0  0  0  0  0  0  0  0  0  0  0  0
   45.4820   33.0660   36.3530 N   0  0  0  0  0  0  0  0  0  0  0  0
  1  4  1  1  0  0  0
  1  8  1  0  0  0  0
  2  5  1  0  0  0  0
  2  1  1  0  0  0  0
  2  6  1  0  0  0  0
  3  7  1  6  0  0  0
  3  2  1  0  0  0  0
  3  1  1  0  0  0  0
  8  9  1  0  0  0  0
  8 11  1  0  0  0  0
 10  8  1  0  0  0  0
 11 16  1  0  0  0  0
 12 11  2  0  0  0  0
 12 13  1  0  0  0  0
 13 18  1  0  0  0  0
 13 14  2  0  0  0  0
 14 15  1  0  0  0  0
 15 19  1  0  0  0  0
 16 15  2  0  0  0  0
 17 12  1  0  0  0  0
 20  3  1  0  0  0  0
 22 21  2  6  0  0  0
 22 20  1  0  0  0  0
 23 22  1  0  0  0  0
 23 24  1  0  0  0  0
 25 22  1  0  0  0  0
 26 25  1  0  0  0  0
 27 28  1  0  0  0  0
 27 26  1  0  0  0  0
 29 31  1  0  0  0  0
 29 27  2  0  0  0  0
 30 29  1  0  0  0  0
 31 33  1  0  0  0  0
 32 31  1  0  0  0  0
 33 26  2  0  0  0  0
M  END
>  <minimizedAffinity>
-5.44044161

>  <minimizedRMSD>
2.10444784

$$$$
