
 OpenBabel03252509313D

 26 27  0  0  0  0  0  0  0  0999 V2000
   47.7790   31.2520   44.4950 O   0  0  0  0  0  0  0  0  0  0  0  0
   46.8690   32.1480   45.0560 C   0  0  0  0  0  0  0  0  0  0  0  0
   47.1400   33.2040   44.8810 H   0  0  0  0  0  0  0  0  0  0  0  0
   45.9030   31.9560   44.5320 H   0  0  0  0  0  0  0  0  0  0  0  0
   47.2400   30.7170   48.4770 C   0  0  0  0  0  0  0  0  0  0  0  0
   47.4540   30.9350   47.0950 C   0  0  0  0  0  0  0  0  0  0  0  0
   46.6740   31.9000   46.4760 C   0  0  0  0  0  0  0  0  0  0  0  0
   45.7500   32.5810   47.2250 N   0  0  0  0  0  0  0  0  0  0  0  0
   45.5740   32.3440   48.5490 C   0  0  0  0  0  0  0  0  0  0  0  0
   46.3160   31.4180   49.1650 N   0  0  0  0  0  0  0  0  0  0  0  0
   47.8070   29.9800   49.0390 H   0  0  0  0  0  0  0  0  0  0  0  0
   48.2100   30.3410   46.5980 H   0  0  0  0  0  0  0  0  0  0  0  0
   44.8020   32.9780   48.9700 H   0  0  0  0  0  0  0  0  0  0  0  0
   47.0020   30.6740   42.0710 O   0  0  0  0  0  0  0  0  0  0  0  0
   47.8760   31.6260   42.8390 P   0  0  2  0  0  0  0  0  0  0  0  0
   49.4950   31.5210   42.4070 O   0  0  0  0  0  0  0  0  0  0  0  0
   50.1180   31.6720   43.1460 H   0  0  0  0  0  0  0  0  0  0  0  0
   47.2760   33.1810   42.6300 O   0  0  0  0  0  0  0  0  0  0  0  0
   48.1190   34.2420   42.3200 C   0  0  0  0  0  0  0  0  0  0  0  0
   48.2610   35.3300   41.4630 C   0  0  0  0  0  0  0  0  0  0  0  0
   47.4220   35.4050   40.7700 H   0  0  0  0  0  0  0  0  0  0  0  0
   49.4490   35.9530   41.7990 C   0  0  0  0  0  0  0  0  0  0  0  0
   49.6850   36.8250   41.2040 H   0  0  0  0  0  0  0  0  0  0  0  0
   50.0090   35.2660   42.8260 N   0  0  0  0  0  0  0  0  0  0  0  0
   50.9100   35.5970   43.2060 H   0  0  0  0  0  0  0  0  0  0  0  0
   49.2100   34.2410   43.1370 N   0  0  0  0  0  0  0  0  0  0  0  0
  1  2  1  0  0  0  0
  2  7  1  0  0  0  0
  3  2  1  0  0  0  0
  4  2  1  0  0  0  0
  5 11  1  0  0  0  0
  5 10  1  0  0  0  0
  6  5  2  0  0  0  0
  7  6  1  0  0  0  0
  7  8  2  0  0  0  0
  8  9  1  0  0  0  0
  9 13  1  0  0  0  0
  9 10  2  0  0  0  0
 12  6  1  0  0  0  0
 15 14  2  6  0  0  0
 15  1  1  0  0  0  0
 16 15  1  0  0  0  0
 16 17  1  0  0  0  0
 18 15  1  0  0  0  0
 19 18  1  0  0  0  0
 19 26  2  0  0  0  0
 20 22  2  0  0  0  0
 20 19  1  0  0  0  0
 21 20  1  0  0  0  0
 22 24  1  0  0  0  0
 23 22  1  0  0  0  0
 24 26  1  0  0  0  0
 24 25  1  0  0  0  0
M  END
>  <minimizedAffinity>
-4.06611967

>  <minimizedRMSD>
3.94404984

$$$$
