
 OpenBabel03252504223D

 31 34  0  0  0  0  0  0  0  0999 V2000
   47.0120   33.4340   39.5430 C   0  0  0  0  0  0  0  0  0  0  0  0
   48.3780   33.2190   39.6820 C   0  0  0  0  0  0  0  0  0  0  0  0
   48.9590   33.4150   40.9580 C   0  0  0  0  0  0  0  0  0  0  0  0
   48.1200   33.8050   41.9620 N   0  0  0  0  0  0  0  0  0  0  0  0
   46.7920   34.0030   41.7750 C   0  0  0  0  0  0  0  0  0  0  0  0
   46.2520   33.8160   40.5710 N   0  0  0  0  0  0  0  0  0  0  0  0
   46.0200   34.4110   42.8980 N   0  0  0  0  0  0  0  0  0  0  0  0
   45.0810   35.3920   42.8960 C   0  0  0  0  0  0  0  0  0  0  0  0
   44.5710   35.4840   44.1580 N   0  0  0  0  0  0  0  0  0  0  0  0
   45.2030   34.5670   44.8980 C   0  0  0  0  0  0  0  0  0  0  0  0
   45.1260   34.1900   46.2140 C   0  0  0  0  0  0  0  0  0  0  0  0
   45.8800   33.2230   46.7260 N   0  0  0  0  0  0  0  0  0  0  0  0
   46.7810   32.5410   45.9820 C   0  0  0  0  0  0  0  0  0  0  0  0
   46.8450   32.9260   44.6860 N   0  0  0  0  0  0  0  0  0  0  0  0
   46.1200   33.8800   44.1230 C   0  0  0  0  0  0  0  0  0  0  0  0
   49.0720   32.9100   38.9090 H   0  0  0  0  0  0  0  0  0  0  0  0
   50.0040   33.2630   41.1150 H   0  0  0  0  0  0  0  0  0  0  0  0
   44.7500   36.0240   42.0730 H   0  0  0  0  0  0  0  0  0  0  0  0
   47.3980   31.7550   46.3930 H   0  0  0  0  0  0  0  0  0  0  0  0
   44.2400   34.8000   47.1270 N   0  0  0  0  0  0  0  0  0  0  0  0
   43.4630   34.3510   47.6820 H   0  0  0  0  0  0  0  0  0  0  0  0
   44.4340   35.8350   47.2190 H   0  0  0  0  0  0  0  0  0  0  0  0
   46.3620   33.1640   37.8730 S   0  0  0  0  0  0  0  0  0  0  0  0
   47.7210   32.6880   36.8180 C   0  0  0  0  0  0  0  0  0  0  0  0
   47.9860   31.3360   36.5730 C   0  0  0  0  0  0  0  0  0  0  0  0
   47.5070   30.4070   36.9100 H   0  0  0  0  0  0  0  0  0  0  0  0
   49.0940   31.2540   35.7210 C   0  0  0  0  0  0  0  0  0  0  0  0
   49.6360   30.4380   35.2800 H   0  0  0  0  0  0  0  0  0  0  0  0
   49.4530   32.5510   35.4870 N   0  0  0  0  0  0  0  0  0  0  0  0
   50.2490   32.9180   34.8880 H   0  0  0  0  0  0  0  0  0  0  0  0
   48.6530   33.4040   36.1260 N   0  0  0  0  0  0  0  0  0  0  0  0
  1  2  2  0  0  0  0
  1  6  1  0  0  0  0
  2  3  1  0  0  0  0
  3 17  1  0  0  0  0
  3  4  2  0  0  0  0
  5  4  1  0  0  0  0
  5  7  1  0  0  0  0
  6  5  2  0  0  0  0
  7 15  1  0  0  0  0
  8  7  1  0  0  0  0
  8  9  2  0  0  0  0
  9 10  1  0  0  0  0
 10 11  1  0  0  0  0
 11 12  2  0  0  0  0
 11 20  1  0  0  0  0
 13 19  1  0  0  0  0
 13 12  1  0  0  0  0
 14 13  2  0  0  0  0
 15 14  1  0  0  0  0
 15 10  2  0  0  0  0
 16  2  1  0  0  0  0
 18  8  1  0  0  0  0
 20 22  1  0  0  0  0
 20 21  1  0  0  0  0
 23  1  1  0  0  0  0
 24 23  1  0  0  0  0
 25 24  1  0  0  0  0
 25 26  1  0  0  0  0
 27 25  2  0  0  0  0
 28 27  1  0  0  0  0
 29 27  1  0  0  0  0
 29 31  1  0  0  0  0
 30 29  1  0  0  0  0
 31 24  2  0  0  0  0
M  END
>  <minimizedAffinity>
-5.85002708

>  <minimizedRMSD>
0.969809055

$$$$
