
 OpenBabel03242512093D

 32 34  0  0  1  0  0  0  0  0999 V2000
   48.2340   34.5090   41.1730 C   0  0  1  0  0  0  0  0  0  0  0  0
   48.9010   35.8120   41.7600 C   0  0  0  0  0  0  0  0  0  0  0  0
   49.1490   34.4700   42.3090 C   0  0  2  0  0  0  0  0  0  0  0  0
   48.6150   34.2730   40.1730 H   0  0  0  0  0  0  0  0  0  0  0  0
   49.6530   36.2980   41.1030 H   0  0  0  0  0  0  0  0  0  0  0  0
   48.2220   36.5070   42.2930 H   0  0  0  0  0  0  0  0  0  0  0  0
   48.6540   34.0220   43.1850 H   0  0  0  0  0  0  0  0  0  0  0  0
   46.7600   34.4970   41.3940 C   0  0  0  0  0  0  0  0  0  0  0  0
   46.0450   34.2650   40.4240 O   0  0  0  0  0  0  0  0  0  0  0  0
   45.4580   35.8740   42.9440 C   0  0  0  0  0  0  0  0  0  0  0  0
   46.1280   34.7330   42.6540 C   0  0  0  0  0  0  0  0  0  0  0  0
   46.1940   33.7350   43.6620 C   0  0  0  0  0  0  0  0  0  0  0  0
   45.6020   33.9350   44.8640 N   0  0  0  0  0  0  0  0  0  0  0  0
   44.9380   35.1010   45.1080 C   0  0  0  0  0  0  0  0  0  0  0  0
   44.8730   36.0350   44.1750 N   0  0  0  0  0  0  0  0  0  0  0  0
   45.4170   36.6210   42.1710 H   0  0  0  0  0  0  0  0  0  0  0  0
   46.6830   32.8030   43.5580 H   0  0  0  0  0  0  0  0  0  0  0  0
   44.4500   35.3120   46.0440 H   0  0  0  0  0  0  0  0  0  0  0  0
   50.4620   34.0370   42.1440 O   0  0  0  0  0  0  0  0  0  0  0  0
   49.1030   31.9580   42.8520 O   0  0  0  0  0  0  0  0  0  0  0  0
   50.4170   32.3380   42.1910 P   0  0  2  0  0  0  0  0  0  0  0  0
   51.7130   31.6480   42.9710 O   0  0  0  0  0  0  0  0  0  0  0  0
   52.5010   32.2260   42.9920 H   0  0  0  0  0  0  0  0  0  0  0  0
   50.2710   31.7730   40.5660 O   0  0  0  0  0  0  0  0  0  0  0  0
   51.4100   31.5970   39.7750 C   0  0  0  0  0  0  0  0  0  0  0  0
   52.7630   31.3280   39.8870 C   0  0  0  0  0  0  0  0  0  0  0  0
   53.0960   31.2070   40.9100 H   0  0  0  0  0  0  0  0  0  0  0  0
   53.2710   31.3010   38.5850 C   0  0  0  0  0  0  0  0  0  0  0  0
   54.3220   31.1020   38.4980 H   0  0  0  0  0  0  0  0  0  0  0  0
   52.2410   31.5470   37.7510 N   0  0  0  0  0  0  0  0  0  0  0  0
   52.4930   31.5540   36.7380 H   0  0  0  0  0  0  0  0  0  0  0  0
   51.1350   31.7220   38.4500 N   0  0  0  0  0  0  0  0  0  0  0  0
  1  4  1  6  0  0  0
  1  8  1  0  0  0  0
  1  2  1  0  0  0  0
  1  3  1  0  0  0  0
  2  6  1  0  0  0  0
  2  3  1  0  0  0  0
  3  7  1  1  0  0  0
  5  2  1  0  0  0  0
  8 11  1  0  0  0  0
  9  8  2  0  0  0  0
 10 15  1  0  0  0  0
 11 10  2  0  0  0  0
 11 12  1  0  0  0  0
 12 13  2  0  0  0  0
 13 14  1  0  0  0  0
 14 18  1  0  0  0  0
 15 14  2  0  0  0  0
 16 10  1  0  0  0  0
 17 12  1  0  0  0  0
 19 21  1  0  0  0  0
 19  3  1  0  0  0  0
 21 20  2  1  0  0  0
 21 22  1  0  0  0  0
 22 23  1  0  0  0  0
 24 21  1  0  0  0  0
 25 26  1  0  0  0  0
 25 24  1  0  0  0  0
 26 27  1  0  0  0  0
 28 26  2  0  0  0  0
 29 28  1  0  0  0  0
 30 32  1  0  0  0  0
 30 28  1  0  0  0  0
 31 30  1  0  0  0  0
 32 25  2  0  0  0  0
M  END
>  <minimizedAffinity>
-5.03359985

>  <minimizedRMSD>
0.552226365

$$$$
