
 OpenBabel03242512093D

 32 34  0  0  1  0  0  0  0  0999 V2000
   47.9990   34.4190   41.1320 C   0  0  1  0  0  0  0  0  0  0  0  0
   48.7280   35.7030   41.6890 C   0  0  0  0  0  0  0  0  0  0  0  0
   48.9550   34.3560   42.2340 C   0  0  2  0  0  0  0  0  0  0  0  0
   48.3350   34.1690   40.1200 H   0  0  0  0  0  0  0  0  0  0  0  0
   49.4700   36.1630   41.0020 H   0  0  0  0  0  0  0  0  0  0  0  0
   48.0920   36.4200   42.2440 H   0  0  0  0  0  0  0  0  0  0  0  0
   48.4800   33.9260   43.1290 H   0  0  0  0  0  0  0  0  0  0  0  0
   46.5350   34.4540   41.4080 C   0  0  0  0  0  0  0  0  0  0  0  0
   45.7780   34.2330   40.4690 O   0  0  0  0  0  0  0  0  0  0  0  0
   45.3490   35.8950   42.9940 C   0  0  0  0  0  0  0  0  0  0  0  0
   45.9590   34.7250   42.6890 C   0  0  0  0  0  0  0  0  0  0  0  0
   46.0180   33.7300   43.7000 C   0  0  0  0  0  0  0  0  0  0  0  0
   45.4770   33.9620   44.9210 N   0  0  0  0  0  0  0  0  0  0  0  0
   44.8730   35.1570   45.1800 C   0  0  0  0  0  0  0  0  0  0  0  0
   44.8150   36.0870   44.2440 N   0  0  0  0  0  0  0  0  0  0  0  0
   45.3120   36.6380   42.2180 H   0  0  0  0  0  0  0  0  0  0  0  0
   46.4620   32.7780   43.5850 H   0  0  0  0  0  0  0  0  0  0  0  0
   44.4280   35.3940   46.1310 H   0  0  0  0  0  0  0  0  0  0  0  0
   50.2460   33.8810   42.0210 O   0  0  0  0  0  0  0  0  0  0  0  0
   48.9540   31.9000   43.0570 O   0  0  0  0  0  0  0  0  0  0  0  0
   50.1740   32.1920   42.2000 P   0  0  2  0  0  0  0  0  0  0  0  0
   51.5490   31.5200   42.8500 O   0  0  0  0  0  0  0  0  0  0  0  0
   52.3440   32.0740   42.7220 H   0  0  0  0  0  0  0  0  0  0  0  0
   49.7980   31.5170   40.6550 O   0  0  0  0  0  0  0  0  0  0  0  0
   50.7190   31.5990   39.6070 C   0  0  0  0  0  0  0  0  0  0  0  0
   50.7730   31.6200   38.2250 C   0  0  0  0  0  0  0  0  0  0  0  0
   49.8010   31.5540   37.7540 H   0  0  0  0  0  0  0  0  0  0  0  0
   52.1240   31.7240   37.8820 C   0  0  0  0  0  0  0  0  0  0  0  0
   52.3390   31.7540   36.8320 H   0  0  0  0  0  0  0  0  0  0  0  0
   52.8250   31.7630   39.0330 N   0  0  0  0  0  0  0  0  0  0  0  0
   53.8580   31.8400   38.9120 H   0  0  0  0  0  0  0  0  0  0  0  0
   51.9980   31.6880   40.0590 N   0  0  0  0  0  0  0  0  0  0  0  0
  1  4  1  6  0  0  0
  1  8  1  0  0  0  0
  1  2  1  0  0  0  0
  1  3  1  0  0  0  0
  2  3  1  0  0  0  0
  2  6  1  0  0  0  0
  3  7  1  1  0  0  0
  5  2  1  0  0  0  0
  8 11  1  0  0  0  0
  9  8  2  0  0  0  0
 10 15  1  0  0  0  0
 11 10  2  0  0  0  0
 11 12  1  0  0  0  0
 12 13  2  0  0  0  0
 13 14  1  0  0  0  0
 14 18  1  0  0  0  0
 15 14  2  0  0  0  0
 16 10  1  0  0  0  0
 17 12  1  0  0  0  0
 19 21  1  0  0  0  0
 19  3  1  0  0  0  0
 21 22  1  0  0  0  0
 21 20  2  1  0  0  0
 23 22  1  0  0  0  0
 24 21  1  0  0  0  0
 25 32  2  0  0  0  0
 25 24  1  0  0  0  0
 26 25  1  0  0  0  0
 27 26  1  0  0  0  0
 28 26  2  0  0  0  0
 28 30  1  0  0  0  0
 29 28  1  0  0  0  0
 30 32  1  0  0  0  0
 31 30  1  0  0  0  0
M  END
>  <minimizedAffinity>
-5.14761686

>  <minimizedRMSD>
0.695140302

$$$$
