
 OpenBabel03252504223D

 31 34  0  0  0  0  0  0  0  0999 V2000
   47.6140   33.5310   40.1710 C   0  0  0  0  0  0  0  0  0  0  0  0
   48.9630   33.2890   40.4040 C   0  0  0  0  0  0  0  0  0  0  0  0
   49.4360   33.3720   41.7360 C   0  0  0  0  0  0  0  0  0  0  0  0
   48.5180   33.6870   42.6960 N   0  0  0  0  0  0  0  0  0  0  0  0
   47.2110   33.9150   42.4170 C   0  0  0  0  0  0  0  0  0  0  0  0
   46.7730   33.8350   41.1610 N   0  0  0  0  0  0  0  0  0  0  0  0
   46.3500   34.2370   43.5020 N   0  0  0  0  0  0  0  0  0  0  0  0
   45.4200   35.2260   43.5050 C   0  0  0  0  0  0  0  0  0  0  0  0
   44.8060   35.2190   44.7230 N   0  0  0  0  0  0  0  0  0  0  0  0
   45.3680   34.2360   45.4340 C   0  0  0  0  0  0  0  0  0  0  0  0
   45.1800   33.7520   46.7030 C   0  0  0  0  0  0  0  0  0  0  0  0
   45.8840   32.7360   47.1920 N   0  0  0  0  0  0  0  0  0  0  0  0
   46.8400   32.1090   46.4710 C   0  0  0  0  0  0  0  0  0  0  0  0
   47.0150   32.5990   45.2210 N   0  0  0  0  0  0  0  0  0  0  0  0
   46.3440   33.6050   44.6820 C   0  0  0  0  0  0  0  0  0  0  0  0
   49.7170   33.0370   39.6690 H   0  0  0  0  0  0  0  0  0  0  0  0
   50.4630   33.1940   41.9660 H   0  0  0  0  0  0  0  0  0  0  0  0
   45.1610   35.9290   42.7130 H   0  0  0  0  0  0  0  0  0  0  0  0
   47.4170   31.2830   46.8640 H   0  0  0  0  0  0  0  0  0  0  0  0
   44.2240   34.2950   47.5860 N   0  0  0  0  0  0  0  0  0  0  0  0
   43.4010   33.8110   48.0350 H   0  0  0  0  0  0  0  0  0  0  0  0
   44.4140   35.3160   47.7810 H   0  0  0  0  0  0  0  0  0  0  0  0
   47.1050   33.4100   38.4370 S   0  0  0  0  0  0  0  0  0  0  0  0
   48.4190   32.6140   37.5260 C   0  0  0  0  0  0  0  0  0  0  0  0
   48.4320   31.2230   37.3750 C   0  0  0  0  0  0  0  0  0  0  0  0
   47.7590   30.4260   37.7190 H   0  0  0  0  0  0  0  0  0  0  0  0
   49.5630   30.8740   36.6260 C   0  0  0  0  0  0  0  0  0  0  0  0
   49.9670   29.9430   36.2750 H   0  0  0  0  0  0  0  0  0  0  0  0
   50.1830   32.0610   36.3550 N   0  0  0  0  0  0  0  0  0  0  0  0
   51.0770   32.2290   35.8070 H   0  0  0  0  0  0  0  0  0  0  0  0
   49.5200   33.0920   36.8780 N   0  0  0  0  0  0  0  0  0  0  0  0
  1  2  2  0  0  0  0
  1  6  1  0  0  0  0
  2  3  1  0  0  0  0
  3 17  1  0  0  0  0
  3  4  2  0  0  0  0
  5  4  1  0  0  0  0
  5  7  1  0  0  0  0
  6  5  2  0  0  0  0
  7  8  1  0  0  0  0
  7 15  1  0  0  0  0
  8  9  2  0  0  0  0
  9 10  1  0  0  0  0
 10 11  1  0  0  0  0
 11 12  2  0  0  0  0
 11 20  1  0  0  0  0
 13 19  1  0  0  0  0
 13 12  1  0  0  0  0
 14 13  2  0  0  0  0
 15 14  1  0  0  0  0
 15 10  2  0  0  0  0
 16  2  1  0  0  0  0
 18  8  1  0  0  0  0
 20 22  1  0  0  0  0
 20 21  1  0  0  0  0
 23  1  1  0  0  0  0
 24 23  1  0  0  0  0
 25 24  1  0  0  0  0
 25 26  1  0  0  0  0
 27 25  2  0  0  0  0
 28 27  1  0  0  0  0
 29 27  1  0  0  0  0
 29 31  1  0  0  0  0
 30 29  1  0  0  0  0
 31 24  2  0  0  0  0
M  END
>  <minimizedAffinity>
-5.47710943

>  <minimizedRMSD>
0.339829683

$$$$
