REMARK  Name = 
REMARK  7 active torsions:
REMARK  status: ('A' for Active; 'I' for Inactive)
REMARK    1  A    between atoms: C_1  and  C_4
REMARK    2  A    between atoms: C_3  and  O_12
REMARK    3  A    between atoms: C_4  and  C_7
REMARK    4  A    between atoms: O_12  and  P_14
REMARK    5  A    between atoms: P_14  and  O_15
REMARK    6  A    between atoms: P_14  and  O_16
REMARK    7  A    between atoms: O_16  and  C_25
REMARK                            x       y       z     vdW  Elec       q    Type
REMARK                         _______ _______ _______ _____ _____    ______ ____
ROOT
ATOM      1  C   UNL     1      48.238  34.620  41.287  0.00  0.00    +0.000 C 
ATOM      2  C   UNL     1      48.860  35.982  41.783  0.00  0.00    +0.000 C 
ATOM      3  C   UNL     1      49.133  34.694  42.438  0.00  0.00    +0.000 C 
ATOM      4  H   UNL     1      48.643  34.319  40.315  0.00  0.00    +0.000 HD
ATOM      5  H   UNL     1      49.611  36.437  41.103  0.00  0.00    +0.000 HD
ATOM      6  H   UNL     1      48.154  36.697  42.249  0.00  0.00    +0.000 HD
ATOM      7  H   UNL     1      48.634  34.301  43.337  0.00  0.00    +0.000 HD
ENDROOT
BRANCH   1   8
ATOM      8  C   UNL     1      46.761  34.585  41.484  0.00  0.00    +0.000 C 
ATOM      9  O   UNL     1      46.066  34.337  40.504  0.00  0.00    +0.000 OA
BRANCH   8  11
ATOM     10  C   UNL     1      45.394  35.939  42.999  0.00  0.00    +0.000 A 
ATOM     11  C   UNL     1      46.105  34.817  42.733  0.00  0.00    +0.000 A 
ATOM     12  C   UNL     1      46.191  33.835  43.755  0.00  0.00    +0.000 A 
ATOM     13  N   UNL     1      45.576  34.031  44.947  0.00  0.00    +0.000 NA
ATOM     14  C   UNL     1      44.871  35.178  45.166  0.00  0.00    +0.000 A 
ATOM     15  N   UNL     1      44.787  36.096  44.220  0.00  0.00    +0.000 NA
ATOM     16  H   UNL     1      45.338  36.673  42.215  0.00  0.00    +0.000 HD
ATOM     17  H   UNL     1      46.711  32.919  43.670  0.00  0.00    +0.000 HD
ATOM     18  H   UNL     1      44.364  35.385  46.093  0.00  0.00    +0.000 HD
ENDBRANCH   8  11
ENDBRANCH   1   8
BRANCH   3  19
ATOM     19  O   UNL     1      50.459  34.285  42.328  0.00  0.00    +0.000 OA
BRANCH  19  21
ATOM     20  O   UNL     1      49.108  32.110  42.663  0.00  0.00    +0.000 OA
ATOM     21  P   UNL     1      50.426  32.602  42.089  0.00  0.00    +0.000 P 
BRANCH  21  22
ATOM     22  O   UNL     1      51.718  31.798  42.757  0.00  0.00    +0.000 OA
ATOM     23  H   UNL     1      52.502  32.368  42.883  0.00  0.00    +0.000 HD
ENDBRANCH  21  22
BRANCH  21  24
ATOM     24  O   UNL     1      50.300  32.317  40.391  0.00  0.00    +0.000 OA
BRANCH  24  25
ATOM     25  C   UNL     1      51.425  32.437  39.570  0.00  0.00    +0.000 A 
ATOM     26  C   UNL     1      52.502  33.275  39.342  0.00  0.00    +0.000 A 
ATOM     27  H   UNL     1      52.522  34.139  39.992  0.00  0.00    +0.000 HD
ATOM     28  C   UNL     1      53.238  32.698  38.302  0.00  0.00    +0.000 A 
ATOM     29  H   UNL     1      54.118  33.234  38.001  0.00  0.00    +0.000 HD
ATOM     30  N   UNL     1      52.603  31.566  37.944  0.00  0.00    +0.000 N 
ATOM     31  H   UNL     1      53.058  31.037  37.168  0.00  0.00    +0.000 HD
ATOM     32  N   UNL     1      51.527  31.404  38.693  0.00  0.00    +0.000 NA
ENDBRANCH  24  25
ENDBRANCH  21  24
ENDBRANCH  19  21
ENDBRANCH   3  19
TORSDOF 7
