
 OpenBabel03252509313D

 26 27  0  0  0  0  0  0  0  0999 V2000
   46.8090   33.3830   45.2420 O   0  0  0  0  0  0  0  0  0  0  0  0
   46.8880   32.0040   45.4380 C   0  0  0  0  0  0  0  0  0  0  0  0
   46.4120   31.4260   44.6260 H   0  0  0  0  0  0  0  0  0  0  0  0
   47.9770   31.7650   45.4300 H   0  0  0  0  0  0  0  0  0  0  0  0
   46.1550   31.9410   49.0910 C   0  0  0  0  0  0  0  0  0  0  0  0
   46.6990   32.3480   47.8490 C   0  0  0  0  0  0  0  0  0  0  0  0
   46.3450   31.6120   46.7300 C   0  0  0  0  0  0  0  0  0  0  0  0
   45.4980   30.5450   46.8820 N   0  0  0  0  0  0  0  0  0  0  0  0
   44.9970   30.1850   48.0900 C   0  0  0  0  0  0  0  0  0  0  0  0
   45.3260   30.8820   49.1830 N   0  0  0  0  0  0  0  0  0  0  0  0
   46.3810   32.4610   50.0180 H   0  0  0  0  0  0  0  0  0  0  0  0
   47.3590   33.2060   47.8410 H   0  0  0  0  0  0  0  0  0  0  0  0
   44.3480   29.3200   48.0120 H   0  0  0  0  0  0  0  0  0  0  0  0
   45.3130   35.0440   43.8940 O   0  0  0  0  0  0  0  0  0  0  0  0
   45.8200   33.6280   43.8800 P   0  0  2  0  0  0  0  0  0  0  0  0
   44.5890   32.4910   43.9580 O   0  0  0  0  0  0  0  0  0  0  0  0
   44.8200   31.6820   44.4570 H   0  0  0  0  0  0  0  0  0  0  0  0
   46.7730   33.4210   42.5120 O   0  0  0  0  0  0  0  0  0  0  0  0
   48.0030   34.0570   42.3900 C   0  0  0  0  0  0  0  0  0  0  0  0
   49.3080   34.0460   42.8760 C   0  0  0  0  0  0  0  0  0  0  0  0
   49.4490   33.2680   43.6260 H   0  0  0  0  0  0  0  0  0  0  0  0
   49.9890   35.0540   42.2170 C   0  0  0  0  0  0  0  0  0  0  0  0
   51.0270   35.1590   42.5030 H   0  0  0  0  0  0  0  0  0  0  0  0
   49.1250   35.6570   41.3620 N   0  0  0  0  0  0  0  0  0  0  0  0
   49.4710   36.4400   40.7830 H   0  0  0  0  0  0  0  0  0  0  0  0
   47.9360   35.0570   41.4660 N   0  0  0  0  0  0  0  0  0  0  0  0
  1  2  1  0  0  0  0
  2  7  1  0  0  0  0
  3  2  1  0  0  0  0
  4  2  1  0  0  0  0
  5 10  1  0  0  0  0
  5 11  1  0  0  0  0
  6  5  2  0  0  0  0
  7  8  2  0  0  0  0
  7  6  1  0  0  0  0
  8  9  1  0  0  0  0
  9 10  2  0  0  0  0
 12  6  1  0  0  0  0
 13  9  1  0  0  0  0
 15 14  2  1  0  0  0
 15 16  1  0  0  0  0
 15  1  1  0  0  0  0
 16 17  1  0  0  0  0
 18 15  1  0  0  0  0
 19 18  1  0  0  0  0
 19 20  1  0  0  0  0
 20 21  1  0  0  0  0
 22 23  1  0  0  0  0
 22 20  2  0  0  0  0
 24 26  1  0  0  0  0
 24 22  1  0  0  0  0
 25 24  1  0  0  0  0
 26 19  2  0  0  0  0
M  END
>  <minimizedAffinity>
-4.40259171

>  <minimizedRMSD>
4.56338501

$$$$
