
 OpenBabel03252509313D

 26 27  0  0  0  0  0  0  0  0999 V2000
   47.1730   33.7270   41.6920 O   0  0  0  0  0  0  0  0  0  0  0  0
   46.6360   34.9770   41.9980 C   0  0  0  0  0  0  0  0  0  0  0  0
   47.3800   35.7900   41.9450 H   0  0  0  0  0  0  0  0  0  0  0  0
   45.8680   35.1700   41.2120 H   0  0  0  0  0  0  0  0  0  0  0  0
   45.5730   33.9670   45.4240 C   0  0  0  0  0  0  0  0  0  0  0  0
   46.2350   33.9390   44.1730 C   0  0  0  0  0  0  0  0  0  0  0  0
   45.9710   34.9760   43.2920 C   0  0  0  0  0  0  0  0  0  0  0  0
   45.0960   35.9600   43.6740 N   0  0  0  0  0  0  0  0  0  0  0  0
   44.4800   35.9520   44.8830 C   0  0  0  0  0  0  0  0  0  0  0  0
   44.7210   34.9600   45.7470 N   0  0  0  0  0  0  0  0  0  0  0  0
   45.7210   33.1940   46.1720 H   0  0  0  0  0  0  0  0  0  0  0  0
   46.9060   33.1150   43.9720 H   0  0  0  0  0  0  0  0  0  0  0  0
   43.8280   36.8080   45.0050 H   0  0  0  0  0  0  0  0  0  0  0  0
   49.1380   32.8080   40.2390 O   0  0  0  0  0  0  0  0  0  0  0  0
   48.1460   33.9360   40.3130 P   0  0  2  0  0  0  0  0  0  0  0  0
   48.8760   35.4410   40.4530 O   0  0  0  0  0  0  0  0  0  0  0  0
   48.3770   36.0800   41.0010 H   0  0  0  0  0  0  0  0  0  0  0  0
   47.1470   33.8510   38.9650 O   0  0  0  0  0  0  0  0  0  0  0  0
   47.6600   33.5500   37.7080 C   0  0  0  0  0  0  0  0  0  0  0  0
   48.8370   33.5430   36.9650 C   0  0  0  0  0  0  0  0  0  0  0  0
   49.6830   33.8950   37.5540 H   0  0  0  0  0  0  0  0  0  0  0  0
   48.5110   33.0780   35.7040 C   0  0  0  0  0  0  0  0  0  0  0  0
   49.3440   33.0210   35.0150 H   0  0  0  0  0  0  0  0  0  0  0  0
   47.1810   32.8130   35.6820 N   0  0  0  0  0  0  0  0  0  0  0  0
   46.7640   32.4530   34.8080 H   0  0  0  0  0  0  0  0  0  0  0  0
   46.6730   33.0960   36.8850 N   0  0  0  0  0  0  0  0  0  0  0  0
  1  2  1  0  0  0  0
  2  7  1  0  0  0  0
  3  2  1  0  0  0  0
  4  2  1  0  0  0  0
  5 10  1  0  0  0  0
  5 11  1  0  0  0  0
  6  5  2  0  0  0  0
  7  8  2  0  0  0  0
  7  6  1  0  0  0  0
  8  9  1  0  0  0  0
  9 13  1  0  0  0  0
  9 10  2  0  0  0  0
 12  6  1  0  0  0  0
 15 14  2  6  0  0  0
 15 16  1  0  0  0  0
 15  1  1  0  0  0  0
 16 17  1  0  0  0  0
 18 15  1  0  0  0  0
 19 18  1  0  0  0  0
 20 21  1  0  0  0  0
 20 19  1  0  0  0  0
 22 20  2  0  0  0  0
 23 22  1  0  0  0  0
 24 22  1  0  0  0  0
 24 26  1  0  0  0  0
 25 24  1  0  0  0  0
 26 19  2  0  0  0  0
M  END
>  <minimizedAffinity>
-4.65144348

>  <minimizedRMSD>
3.35126424

$$$$
