
 OpenBabel03242517583D

 42 44  0  0  0  0  0  0  0  0999 V2000
   38.1640   28.6470   39.6290 O   0  0  0  0  0  0  0  0  0  0  0  0
   38.3230   29.2770   42.0080 C   0  0  0  0  0  0  0  0  0  0  0  0
   37.9130   28.4850   40.9900 C   0  0  0  0  0  0  0  0  0  0  0  0
   37.1490   27.3750   41.2960 C   0  0  0  0  0  0  0  0  0  0  0  0
   36.7900   27.0430   42.5810 C   0  0  0  0  0  0  0  0  0  0  0  0
   37.2140   27.8600   43.6060 C   0  0  0  0  0  0  0  0  0  0  0  0
   37.9810   28.9770   43.3110 C   0  0  0  0  0  0  0  0  0  0  0  0
   36.7830   26.6910   40.5420 H   0  0  0  0  0  0  0  0  0  0  0  0
   36.1910   26.1720   42.8130 H   0  0  0  0  0  0  0  0  0  0  0  0
   36.9690   27.6620   44.6400 H   0  0  0  0  0  0  0  0  0  0  0  0
   38.3210   29.6290   44.1070 H   0  0  0  0  0  0  0  0  0  0  0  0
   39.3790   30.5980   41.5710 S   0  0  0  0  0  0  0  0  0  0  0  0
   40.6200   30.1900   40.8950 O   0  0  0  0  0  0  0  0  0  0  0  0
   39.8390   31.2090   42.9180 O   0  0  0  0  0  0  0  0  0  0  0  0
   38.5160   31.9410   40.8650 C   0  0  0  0  0  0  0  0  0  0  0  0
   39.0290   33.1780   40.5380 C   0  0  0  0  0  0  0  0  0  0  0  0
   40.0300   33.5280   40.6570 H   0  0  0  0  0  0  0  0  0  0  0  0
   37.9810   33.9170   40.0090 C   0  0  0  0  0  0  0  0  0  0  0  0
   37.9700   34.9340   39.6340 H   0  0  0  0  0  0  0  0  0  0  0  0
   36.8760   33.1190   40.0290 N   0  0  0  0  0  0  0  0  0  0  0  0
   35.8820   33.3130   39.7110 H   0  0  0  0  0  0  0  0  0  0  0  0
   37.2110   31.9260   40.5480 N   0  0  0  0  0  0  0  0  0  0  0  0
   36.8050   29.1210   36.4030 C   0  0  0  0  0  0  0  0  0  0  0  0
   35.4220   29.1430   36.6610 C   0  0  0  0  0  0  0  0  0  0  0  0
   34.9710   28.9930   37.9470 C   0  0  0  0  0  0  0  0  0  0  0  0
   35.9150   28.8330   38.8840 N   0  0  0  0  0  0  0  0  0  0  0  0
   37.2130   28.8130   38.6490 C   0  0  0  0  0  0  0  0  0  0  0  0
   37.6620   28.9570   37.4030 N   0  0  0  0  0  0  0  0  0  0  0  0
   37.1640   29.2380   35.3930 H   0  0  0  0  0  0  0  0  0  0  0  0
   34.7970   29.2830   35.7970 H   0  0  0  0  0  0  0  0  0  0  0  0
   33.5550   29.0260   38.3300 C   0  0  0  0  0  0  0  0  0  0  0  0
   33.3070   28.1180   38.8970 H   0  0  0  0  0  0  0  0  0  0  0  0
   33.4260   29.8790   39.0350 H   0  0  0  0  0  0  0  0  0  0  0  0
   32.6410   29.1980   37.1560 C   0  0  0  0  0  0  0  0  0  0  0  0
   33.1040   29.6250   36.2670 H   0  0  0  0  0  0  0  0  0  0  0  0
   32.3730   28.1360   36.8430 H   0  0  0  0  0  0  0  0  0  0  0  0
   31.3630   29.8310   37.4890 C   0  0  0  0  0  3  0  0  0  0  0  0
   30.5570   30.0620   38.5190 C   0  0  0  0  0  3  0  0  0  0  0  0
   29.1830   30.7020   38.4760 C   0  0  0  0  0  0  0  0  0  0  0  0
   29.0060   30.9870   37.4380 H   0  0  0  0  0  0  0  0  0  0  0  0
   29.2880   31.6390   39.0670 H   0  0  0  0  0  0  0  0  0  0  0  0
   28.4330   30.0160   38.8940 H   0  0  0  0  0  0  0  0  0  0  0  0
  1  3  1  0  0  0  0
  2  7  1  0  0  0  0
  3  4  1  0  0  0  0
  3  2  2  0  0  0  0
  4  5  2  0  0  0  0
  5  9  1  0  0  0  0
  5  6  1  0  0  0  0
  6 10  1  0  0  0  0
  7  6  2  0  0  0  0
  7 11  1  0  0  0  0
  8  4  1  0  0  0  0
 12  2  1  0  0  0  0
 12 14  2  0  0  0  0
 13 12  2  0  0  0  0
 15 12  1  0  0  0  0
 16 17  1  0  0  0  0
 16 15  1  0  0  0  0
 18 20  1  0  0  0  0
 18 16  2  0  0  0  0
 19 18  1  0  0  0  0
 20 22  1  0  0  0  0
 21 20  1  0  0  0  0
 22 15  2  0  0  0  0
 23 24  2  0  0  0  0
 23 28  1  0  0  0  0
 24 25  1  0  0  0  0
 25 31  1  0  0  0  0
 25 26  2  0  0  0  0
 27 26  1  0  0  0  0
 27  1  1  0  0  0  0
 28 27  2  0  0  0  0
 29 23  1  0  0  0  0
 30 24  1  0  0  0  0
 31 32  1  0  0  0  0
 31 33  1  0  0  0  0
 34 37  1  0  0  0  0
 34 31  1  0  0  0  0
 35 34  1  0  0  0  0
 36 34  1  0  0  0  0
 37 38  2  0  0  0  0
 39 38  1  0  0  0  0
 39 42  1  0  0  0  0
 39 41  1  0  0  0  0
 40 39  1  0  0  0  0
M  END
>  <minimizedAffinity>
-6.05297327

$$$$

 OpenBabel03242517583D

 42 44  0  0  0  0  0  0  0  0999 V2000
   38.0870   27.1370   39.0370 O   0  0  0  0  0  0  0  0  0  0  0  0
   37.7910   26.7970   41.4630 C   0  0  0  0  0  0  0  0  0  0  0  0
   37.7090   26.4130   40.1670 C   0  0  0  0  0  0  0  0  0  0  0  0
   37.1920   25.1630   39.8910 C   0  0  0  0  0  0  0  0  0  0  0  0
   36.7600   24.2970   40.8680 C   0  0  0  0  0  0  0  0  0  0  0  0
   36.8490   24.7030   42.1810 C   0  0  0  0  0  0  0  0  0  0  0  0
   37.3660   25.9570   42.4710 C   0  0  0  0  0  0  0  0  0  0  0  0
   37.0940   24.7800   38.8840 H   0  0  0  0  0  0  0  0  0  0  0  0
   36.3560   23.3190   40.6430 H   0  0  0  0  0  0  0  0  0  0  0  0
   36.5280   24.0760   43.0010 H   0  0  0  0  0  0  0  0  0  0  0  0
   37.4410   26.2890   43.4990 H   0  0  0  0  0  0  0  0  0  0  0  0
   38.5580   28.3390   41.7560 S   0  0  0  0  0  0  0  0  0  0  0  0
   39.9670   28.4110   41.3400 O   0  0  0  0  0  0  0  0  0  0  0  0
   38.5870   28.4880   43.2970 O   0  0  0  0  0  0  0  0  0  0  0  0
   37.5450   29.6880   41.3030 C   0  0  0  0  0  0  0  0  0  0  0  0
   37.8960   30.7600   40.5110 C   0  0  0  0  0  0  0  0  0  0  0  0
   38.8350   30.9520   40.0410 H   0  0  0  0  0  0  0  0  0  0  0  0
   36.7780   31.5760   40.4260 C   0  0  0  0  0  0  0  0  0  0  0  0
   36.6420   32.5140   39.9000 H   0  0  0  0  0  0  0  0  0  0  0  0
   35.7930   30.9850   41.1600 N   0  0  0  0  0  0  0  0  0  0  0  0
   34.7930   31.2930   41.3440 H   0  0  0  0  0  0  0  0  0  0  0  0
   36.2680   29.8440   41.6850 N   0  0  0  0  0  0  0  0  0  0  0  0
   37.0560   29.2060   36.3670 C   0  0  0  0  0  0  0  0  0  0  0  0
   35.6790   29.3570   36.6190 C   0  0  0  0  0  0  0  0  0  0  0  0
   35.1200   28.7420   37.7090 C   0  0  0  0  0  0  0  0  0  0  0  0
   35.9560   28.0250   38.4700 N   0  0  0  0  0  0  0  0  0  0  0  0
   37.2470   27.8800   38.2400 C   0  0  0  0  0  0  0  0  0  0  0  0
   37.8010   28.4730   37.1840 N   0  0  0  0  0  0  0  0  0  0  0  0
   37.4990   29.6890   35.5110 H   0  0  0  0  0  0  0  0  0  0  0  0
   35.1480   29.9690   35.9110 H   0  0  0  0  0  0  0  0  0  0  0  0
   33.7030   28.8540   38.0790 C   0  0  0  0  0  0  0  0  0  0  0  0
   33.4400   28.0410   38.7690 H   0  0  0  0  0  0  0  0  0  0  0  0
   33.5880   29.8010   38.6530 H   0  0  0  0  0  0  0  0  0  0  0  0
   32.7950   28.8710   36.8890 C   0  0  0  0  0  0  0  0  0  0  0  0
   33.2930   28.8040   35.9220 H   0  0  0  0  0  0  0  0  0  0  0  0
   32.2080   27.8970   36.9620 H   0  0  0  0  0  0  0  0  0  0  0  0
   31.7820   29.9290   36.9330 C   0  0  0  0  0  3  0  0  0  0  0  0
   31.1000   30.7460   36.1390 C   0  0  0  0  0  3  0  0  0  0  0  0
   30.1470   31.8450   36.5630 C   0  0  0  0  0  0  0  0  0  0  0  0
   30.0870   31.8000   37.6520 H   0  0  0  0  0  0  0  0  0  0  0  0
   29.1580   31.5340   36.1600 H   0  0  0  0  0  0  0  0  0  0  0  0
   30.4850   32.8130   36.1650 H   0  0  0  0  0  0  0  0  0  0  0  0
  1  3  1  0  0  0  0
  2 12  1  0  0  0  0
  2  7  1  0  0  0  0
  3  2  2  0  0  0  0
  4  3  1  0  0  0  0
  4  5  2  0  0  0  0
  5  6  1  0  0  0  0
  6  7  2  0  0  0  0
  6 10  1  0  0  0  0
  7 11  1  0  0  0  0
  8  4  1  0  0  0  0
  9  5  1  0  0  0  0
 12 14  2  0  0  0  0
 13 12  2  0  0  0  0
 15 22  2  0  0  0  0
 15 12  1  0  0  0  0
 16 15  1  0  0  0  0
 17 16  1  0  0  0  0
 18 16  2  0  0  0  0
 18 20  1  0  0  0  0
 19 18  1  0  0  0  0
 20 21  1  0  0  0  0
 20 22  1  0  0  0  0
 23 24  2  0  0  0  0
 23 28  1  0  0  0  0
 24 25  1  0  0  0  0
 25 31  1  0  0  0  0
 25 26  2  0  0  0  0
 27 26  1  0  0  0  0
 27  1  1  0  0  0  0
 28 27  2  0  0  0  0
 29 23  1  0  0  0  0
 30 24  1  0  0  0  0
 31 33  1  0  0  0  0
 31 32  1  0  0  0  0
 34 37  1  0  0  0  0
 34 36  1  0  0  0  0
 34 31  1  0  0  0  0
 35 34  1  0  0  0  0
 38 39  1  0  0  0  0
 38 37  2  0  0  0  0
 39 40  1  0  0  0  0
 41 39  1  0  0  0  0
 42 39  1  0  0  0  0
M  END
>  <minimizedAffinity>
-5.75232172

$$$$

 OpenBabel03242517583D

 42 44  0  0  0  0  0  0  0  0999 V2000
   40.7180   29.9740   40.1040 O   0  0  0  0  0  0  0  0  0  0  0  0
   39.5930   32.0660   39.4390 C   0  0  0  0  0  0  0  0  0  0  0  0
   40.5910   31.3600   40.0210 C   0  0  0  0  0  0  0  0  0  0  0  0
   41.6220   32.0590   40.6160 C   0  0  0  0  0  0  0  0  0  0  0  0
   41.6790   33.4330   40.6440 C   0  0  0  0  0  0  0  0  0  0  0  0
   40.6560   34.1370   40.0480 C   0  0  0  0  0  0  0  0  0  0  0  0
   39.6150   33.4460   39.4480 C   0  0  0  0  0  0  0  0  0  0  0  0
   42.4570   31.5710   41.1010 H   0  0  0  0  0  0  0  0  0  0  0  0
   42.4900   33.9730   41.1120 H   0  0  0  0  0  0  0  0  0  0  0  0
   40.6340   35.2180   40.0330 H   0  0  0  0  0  0  0  0  0  0  0  0
   38.8030   33.9860   38.9770 H   0  0  0  0  0  0  0  0  0  0  0  0
   38.3780   31.1280   38.6050 S   0  0  0  0  0  0  0  0  0  0  0  0
   38.9150   30.0970   37.7030 O   0  0  0  0  0  0  0  0  0  0  0  0
   37.6590   32.1370   37.6760 O   0  0  0  0  0  0  0  0  0  0  0  0
   37.0710   30.6400   39.6540 C   0  0  0  0  0  0  0  0  0  0  0  0
   36.3650   29.4570   39.6040 C   0  0  0  0  0  0  0  0  0  0  0  0
   36.4910   28.6430   38.9250 H   0  0  0  0  0  0  0  0  0  0  0  0
   35.4280   29.5090   40.6250 C   0  0  0  0  0  0  0  0  0  0  0  0
   34.6830   28.7790   40.9210 H   0  0  0  0  0  0  0  0  0  0  0  0
   35.5900   30.7050   41.2590 N   0  0  0  0  0  0  0  0  0  0  0  0
   35.0710   31.1210   42.0860 H   0  0  0  0  0  0  0  0  0  0  0  0
   36.5860   31.3810   40.6630 N   0  0  0  0  0  0  0  0  0  0  0  0
   41.1010   27.5350   42.6310 C   0  0  0  0  0  0  0  0  0  0  0  0
   39.8890   27.6440   43.3380 C   0  0  0  0  0  0  0  0  0  0  0  0
   38.9500   28.5590   42.9360 C   0  0  0  0  0  0  0  0  0  0  0  0
   39.2740   29.2990   41.8670 N   0  0  0  0  0  0  0  0  0  0  0  0
   40.4080   29.2020   41.2000 C   0  0  0  0  0  0  0  0  0  0  0  0
   41.3270   28.3160   41.5820 N   0  0  0  0  0  0  0  0  0  0  0  0
   41.8410   26.8170   42.9440 H   0  0  0  0  0  0  0  0  0  0  0  0
   39.7830   26.9740   44.1730 H   0  0  0  0  0  0  0  0  0  0  0  0
   37.6450   28.7370   43.5840 C   0  0  0  0  0  0  0  0  0  0  0  0
   37.7870   29.1920   44.5730 H   0  0  0  0  0  0  0  0  0  0  0  0
   37.0770   29.4790   42.9770 H   0  0  0  0  0  0  0  0  0  0  0  0
   36.8680   27.4610   43.6800 C   0  0  0  0  0  0  0  0  0  0  0  0
   37.0880   26.8470   44.5530 H   0  0  0  0  0  0  0  0  0  0  0  0
   35.7900   27.7930   43.8430 H   0  0  0  0  0  0  0  0  0  0  0  0
   36.8440   26.6880   42.4350 C   0  0  0  0  0  3  0  0  0  0  0  0
   37.0420   25.4590   41.9730 C   0  0  0  0  0  3  0  0  0  0  0  0
   37.0200   25.0150   40.5240 C   0  0  0  0  0  0  0  0  0  0  0  0
   36.7560   25.8940   39.9340 H   0  0  0  0  0  0  0  0  0  0  0  0
   36.1710   24.3000   40.4590 H   0  0  0  0  0  0  0  0  0  0  0  0
   37.9840   24.5590   40.2550 H   0  0  0  0  0  0  0  0  0  0  0  0
  1 27  1  0  0  0  0
  2  7  2  0  0  0  0
  2  3  1  0  0  0  0
  3  1  1  0  0  0  0
  3  4  2  0  0  0  0
  4  5  1  0  0  0  0
  4  8  1  0  0  0  0
  5  9  1  0  0  0  0
  6  5  2  0  0  0  0
  7  6  1  0  0  0  0
 10  6  1  0  0  0  0
 11  7  1  0  0  0  0
 12  2  1  0  0  0  0
 12 15  1  0  0  0  0
 13 12  2  0  0  0  0
 14 12  2  0  0  0  0
 15 22  2  0  0  0  0
 16 15  1  0  0  0  0
 16 18  2  0  0  0  0
 17 16  1  0  0  0  0
 18 19  1  0  0  0  0
 18 20  1  0  0  0  0
 20 21  1  0  0  0  0
 22 20  1  0  0  0  0
 23 29  1  0  0  0  0
 23 24  1  0  0  0  0
 24 30  1  0  0  0  0
 25 24  2  0  0  0  0
 25 31  1  0  0  0  0
 26 25  1  0  0  0  0
 27 28  1  0  0  0  0
 27 26  2  0  0  0  0
 28 23  2  0  0  0  0
 31 34  1  0  0  0  0
 31 32  1  0  0  0  0
 33 31  1  0  0  0  0
 34 36  1  0  0  0  0
 34 35  1  0  0  0  0
 37 34  1  0  0  0  0
 38 37  2  0  0  0  0
 39 38  1  0  0  0  0
 40 39  1  0  0  0  0
 41 39  1  0  0  0  0
 42 39  1  0  0  0  0
M  END
>  <minimizedAffinity>
-5.7366271

$$$$

 OpenBabel03242517583D

 42 44  0  0  0  0  0  0  0  0999 V2000
   36.1870   29.2420   40.0630 O   0  0  0  0  0  0  0  0  0  0  0  0
   38.1830   29.2340   41.5130 C   0  0  0  0  0  0  0  0  0  0  0  0
   36.9180   28.8750   41.1920 C   0  0  0  0  0  0  0  0  0  0  0  0
   36.2350   28.0500   42.0650 C   0  0  0  0  0  0  0  0  0  0  0  0
   36.7800   27.5810   43.2370 C   0  0  0  0  0  0  0  0  0  0  0  0
   38.0680   27.9560   43.5490 C   0  0  0  0  0  0  0  0  0  0  0  0
   38.7640   28.7840   42.6810 C   0  0  0  0  0  0  0  0  0  0  0  0
   35.2220   27.7160   41.8820 H   0  0  0  0  0  0  0  0  0  0  0  0
   36.2390   26.9360   43.9140 H   0  0  0  0  0  0  0  0  0  0  0  0
   38.5610   27.6270   44.4540 H   0  0  0  0  0  0  0  0  0  0  0  0
   39.7770   29.0880   42.9140 H   0  0  0  0  0  0  0  0  0  0  0  0
   39.0350   30.1820   40.3180 S   0  0  0  0  0  0  0  0  0  0  0  0
   39.2300   29.5060   39.0260 O   0  0  0  0  0  0  0  0  0  0  0  0
   40.4610   30.3670   40.8930 O   0  0  0  0  0  0  0  0  0  0  0  0
   38.4770   31.8350   40.2530 C   0  0  0  0  0  0  0  0  0  0  0  0
   37.5580   32.3670   39.3740 C   0  0  0  0  0  0  0  0  0  0  0  0
   37.0340   31.8690   38.5890 H   0  0  0  0  0  0  0  0  0  0  0  0
   37.4290   33.7100   39.6950 C   0  0  0  0  0  0  0  0  0  0  0  0
   36.8080   34.4750   39.2440 H   0  0  0  0  0  0  0  0  0  0  0  0
   38.2610   33.9530   40.7480 N   0  0  0  0  0  0  0  0  0  0  0  0
   38.4490   34.8500   41.2830 H   0  0  0  0  0  0  0  0  0  0  0  0
   38.8900   32.8120   41.0760 N   0  0  0  0  0  0  0  0  0  0  0  0
   33.9980   28.0540   37.5590 C   0  0  0  0  0  0  0  0  0  0  0  0
   34.4860   26.7540   37.3250 C   0  0  0  0  0  0  0  0  0  0  0  0
   35.5670   26.3010   38.0360 C   0  0  0  0  0  0  0  0  0  0  0  0
   36.0880   27.1590   38.9220 N   0  0  0  0  0  0  0  0  0  0  0  0
   35.6350   28.3780   39.1460 C   0  0  0  0  0  0  0  0  0  0  0  0
   34.5850   28.8290   38.4620 N   0  0  0  0  0  0  0  0  0  0  0  0
   33.1480   28.4140   37.0020 H   0  0  0  0  0  0  0  0  0  0  0  0
   33.9530   26.1910   36.5800 H   0  0  0  0  0  0  0  0  0  0  0  0
   36.1410   24.9570   37.8910 C   0  0  0  0  0  0  0  0  0  0  0  0
   35.9860   24.6020   36.8640 H   0  0  0  0  0  0  0  0  0  0  0  0
   37.2420   25.0540   38.0270 H   0  0  0  0  0  0  0  0  0  0  0  0
   35.5930   23.9840   38.8890 C   0  0  0  0  0  0  0  0  0  0  0  0
   34.5070   23.9730   38.9790 H   0  0  0  0  0  0  0  0  0  0  0  0
   35.8420   22.9590   38.4580 H   0  0  0  0  0  0  0  0  0  0  0  0
   36.2690   24.0250   40.1880 C   0  0  0  0  0  3  0  0  0  0  0  0
   37.4030   24.4180   40.7550 C   0  0  0  0  0  3  0  0  0  0  0  0
   37.8260   24.2020   42.1940 C   0  0  0  0  0  0  0  0  0  0  0  0
   36.9910   23.7060   42.6920 H   0  0  0  0  0  0  0  0  0  0  0  0
   37.9110   25.2250   42.6220 H   0  0  0  0  0  0  0  0  0  0  0  0
   38.7730   23.6450   42.2310 H   0  0  0  0  0  0  0  0  0  0  0  0
  1  3  1  0  0  0  0
  2  7  1  0  0  0  0
  3  2  2  0  0  0  0
  3  4  1  0  0  0  0
  4  5  2  0  0  0  0
  5  6  1  0  0  0  0
  5  9  1  0  0  0  0
  6 10  1  0  0  0  0
  7 11  1  0  0  0  0
  7  6  2  0  0  0  0
  8  4  1  0  0  0  0
 12 14  2  0  0  0  0
 12  2  1  0  0  0  0
 13 12  2  0  0  0  0
 15 12  1  0  0  0  0
 15 22  2  0  0  0  0
 16 18  2  0  0  0  0
 16 15  1  0  0  0  0
 17 16  1  0  0  0  0
 18 20  1  0  0  0  0
 19 18  1  0  0  0  0
 20 22  1  0  0  0  0
 20 21  1  0  0  0  0
 23 28  1  0  0  0  0
 24 23  2  0  0  0  0
 24 25  1  0  0  0  0
 25 26  2  0  0  0  0
 26 27  1  0  0  0  0
 27  1  1  0  0  0  0
 28 27  2  0  0  0  0
 29 23  1  0  0  0  0
 30 24  1  0  0  0  0
 31 33  1  0  0  0  0
 31 25  1  0  0  0  0
 31 34  1  0  0  0  0
 32 31  1  0  0  0  0
 34 35  1  0  0  0  0
 34 37  1  0  0  0  0
 36 34  1  0  0  0  0
 37 38  2  0  0  0  0
 38 39  1  0  0  0  0
 39 42  1  0  0  0  0
 39 41  1  0  0  0  0
 39 40  1  0  0  0  0
M  END
>  <minimizedAffinity>
-5.55771494

$$$$

 OpenBabel03242517583D

 42 44  0  0  0  0  0  0  0  0999 V2000
   39.2700   28.6310   41.0090 O   0  0  0  0  0  0  0  0  0  0  0  0
   37.7920   30.5700   40.6290 C   0  0  0  0  0  0  0  0  0  0  0  0
   38.0340   29.2550   40.8450 C   0  0  0  0  0  0  0  0  0  0  0  0
   36.9530   28.3980   40.9140 C   0  0  0  0  0  0  0  0  0  0  0  0
   35.6520   28.8190   40.7730 C   0  0  0  0  0  0  0  0  0  0  0  0
   35.4230   30.1590   40.5530 C   0  0  0  0  0  0  0  0  0  0  0  0
   36.5000   31.0290   40.4820 C   0  0  0  0  0  0  0  0  0  0  0  0
   37.0600   27.3350   41.0850 H   0  0  0  0  0  0  0  0  0  0  0  0
   34.8110   28.1410   40.8290 H   0  0  0  0  0  0  0  0  0  0  0  0
   34.4260   30.5610   40.4320 H   0  0  0  0  0  0  0  0  0  0  0  0
   36.3340   32.0860   40.3080 H   0  0  0  0  0  0  0  0  0  0  0  0
   39.1880   31.6200   40.6660 S   0  0  0  0  0  0  0  0  0  0  0  0
   40.1620   31.3050   41.7220 O   0  0  0  0  0  0  0  0  0  0  0  0
   38.6310   33.0160   41.0380 O   0  0  0  0  0  0  0  0  0  0  0  0
   39.8390   31.9250   39.0750 C   0  0  0  0  0  0  0  0  0  0  0  0
   41.1530   32.1880   38.7520 C   0  0  0  0  0  0  0  0  0  0  0  0
   41.9920   32.2500   39.4080 H   0  0  0  0  0  0  0  0  0  0  0  0
   41.1980   32.3650   37.3780 C   0  0  0  0  0  0  0  0  0  0  0  0
   42.0420   32.5870   36.7340 H   0  0  0  0  0  0  0  0  0  0  0  0
   39.9270   32.2070   36.9100 N   0  0  0  0  0  0  0  0  0  0  0  0
   39.5470   32.2630   35.9200 H   0  0  0  0  0  0  0  0  0  0  0  0
   39.1140   31.9410   37.9450 N   0  0  0  0  0  0  0  0  0  0  0  0
   40.3070   26.5650   43.6790 C   0  0  0  0  0  0  0  0  0  0  0  0
   39.9910   25.2780   43.2030 C   0  0  0  0  0  0  0  0  0  0  0  0
   39.4220   25.1370   41.9640 C   0  0  0  0  0  0  0  0  0  0  0  0
   39.2060   26.2710   41.2850 N   0  0  0  0  0  0  0  0  0  0  0  0
   39.5010   27.4800   41.7250 C   0  0  0  0  0  0  0  0  0  0  0  0
   40.0540   27.6290   42.9280 N   0  0  0  0  0  0  0  0  0  0  0  0
   40.7550   26.6800   44.6530 H   0  0  0  0  0  0  0  0  0  0  0  0
   40.2300   24.4700   43.8710 H   0  0  0  0  0  0  0  0  0  0  0  0
   39.0760   23.8440   41.3600 C   0  0  0  0  0  0  0  0  0  0  0  0
   39.5530   23.7610   40.3740 H   0  0  0  0  0  0  0  0  0  0  0  0
   39.5340   23.0530   41.9970 H   0  0  0  0  0  0  0  0  0  0  0  0
   37.5980   23.6260   41.2680 C   0  0  0  0  0  0  0  0  0  0  0  0
   37.2540   22.6370   41.5720 H   0  0  0  0  0  0  0  0  0  0  0  0
   37.1550   24.3230   42.0520 H   0  0  0  0  0  0  0  0  0  0  0  0
   37.0140   24.0620   39.9970 C   0  0  0  0  0  3  0  0  0  0  0  0
   36.2570   25.0210   39.4780 C   0  0  0  0  0  3  0  0  0  0  0  0
   35.7430   25.1090   38.0550 C   0  0  0  0  0  0  0  0  0  0  0  0
   36.1620   24.2540   37.5210 H   0  0  0  0  0  0  0  0  0  0  0  0
   36.2130   26.0270   37.6390 H   0  0  0  0  0  0  0  0  0  0  0  0
   34.6440   25.1530   38.0520 H   0  0  0  0  0  0  0  0  0  0  0  0
  1 27  1  0  0  0  0
  2 12  1  0  0  0  0
  2  3  1  0  0  0  0
  3  4  2  0  0  0  0
  3  1  1  0  0  0  0
  4  8  1  0  0  0  0
  5  9  1  0  0  0  0
  5  4  1  0  0  0  0
  6  5  2  0  0  0  0
  7  6  1  0  0  0  0
  7  2  2  0  0  0  0
 10  6  1  0  0  0  0
 11  7  1  0  0  0  0
 12 14  2  0  0  0  0
 12 13  2  0  0  0  0
 15 12  1  0  0  0  0
 16 15  1  0  0  0  0
 16 17  1  0  0  0  0
 18 16  2  0  0  0  0
 19 18  1  0  0  0  0
 20 18  1  0  0  0  0
 20 22  1  0  0  0  0
 21 20  1  0  0  0  0
 22 15  2  0  0  0  0
 23 29  1  0  0  0  0
 24 23  1  0  0  0  0
 24 30  1  0  0  0  0
 25 24  2  0  0  0  0
 26 27  2  0  0  0  0
 26 25  1  0  0  0  0
 27 28  1  0  0  0  0
 28 23  2  0  0  0  0
 31 25  1  0  0  0  0
 31 33  1  0  0  0  0
 32 31  1  0  0  0  0
 34 31  1  0  0  0  0
 34 35  1  0  0  0  0
 34 36  1  0  0  0  0
 37 34  1  0  0  0  0
 38 37  2  0  0  0  0
 39 38  1  0  0  0  0
 40 39  1  0  0  0  0
 41 39  1  0  0  0  0
 42 39  1  0  0  0  0
M  END
>  <minimizedAffinity>
-5.49540186

$$$$

 OpenBabel03242517583D

 42 44  0  0  0  0  0  0  0  0999 V2000
   38.6000   29.4470   40.4410 O   0  0  0  0  0  0  0  0  0  0  0  0
   39.1000   31.8600   40.3170 C   0  0  0  0  0  0  0  0  0  0  0  0
   39.4180   30.5690   40.5730 C   0  0  0  0  0  0  0  0  0  0  0  0
   40.6920   30.2890   41.0250 C   0  0  0  0  0  0  0  0  0  0  0  0
   41.6470   31.2590   41.2240 C   0  0  0  0  0  0  0  0  0  0  0  0
   41.3090   32.5670   40.9600 C   0  0  0  0  0  0  0  0  0  0  0  0
   40.0310   32.8600   40.5060 C   0  0  0  0  0  0  0  0  0  0  0  0
   41.0260   29.2850   41.2520 H   0  0  0  0  0  0  0  0  0  0  0  0
   42.6430   31.0310   41.5780 H   0  0  0  0  0  0  0  0  0  0  0  0
   42.0070   33.3820   41.0950 H   0  0  0  0  0  0  0  0  0  0  0  0
   39.7510   33.8850   40.2950 H   0  0  0  0  0  0  0  0  0  0  0  0
   37.5140   32.1380   39.6410 S   0  0  0  0  0  0  0  0  0  0  0  0
   37.1510   33.5560   39.4970 O   0  0  0  0  0  0  0  0  0  0  0  0
   36.5240   31.5760   40.6910 O   0  0  0  0  0  0  0  0  0  0  0  0
   37.1790   31.1080   38.2720 C   0  0  0  0  0  0  0  0  0  0  0  0
   36.2270   30.1140   38.1940 C   0  0  0  0  0  0  0  0  0  0  0  0
   35.5370   29.8030   38.9460 H   0  0  0  0  0  0  0  0  0  0  0  0
   36.3250   29.5670   36.9230 C   0  0  0  0  0  0  0  0  0  0  0  0
   35.7560   28.7650   36.4680 H   0  0  0  0  0  0  0  0  0  0  0  0
   37.3200   30.2350   36.2730 N   0  0  0  0  0  0  0  0  0  0  0  0
   37.6990   30.1160   35.2890 H   0  0  0  0  0  0  0  0  0  0  0  0
   37.8290   31.1650   37.0980 N   0  0  0  0  0  0  0  0  0  0  0  0
   37.4590   28.6190   43.6800 C   0  0  0  0  0  0  0  0  0  0  0  0
   37.1730   27.2470   43.5550 C   0  0  0  0  0  0  0  0  0  0  0  0
   37.3760   26.6200   42.3530 C   0  0  0  0  0  0  0  0  0  0  0  0
   37.8460   27.3900   41.3620 N   0  0  0  0  0  0  0  0  0  0  0  0
   38.1170   28.6770   41.4730 C   0  0  0  0  0  0  0  0  0  0  0  0
   37.9230   29.2960   42.6360 N   0  0  0  0  0  0  0  0  0  0  0  0
   37.3000   29.1160   44.6240 H   0  0  0  0  0  0  0  0  0  0  0  0
   36.8030   26.7730   44.4470 H   0  0  0  0  0  0  0  0  0  0  0  0
   37.1360   25.1910   42.1200 C   0  0  0  0  0  0  0  0  0  0  0  0
   36.8250   24.7140   43.0590 H   0  0  0  0  0  0  0  0  0  0  0  0
   36.2680   25.1130   41.4270 H   0  0  0  0  0  0  0  0  0  0  0  0
   38.3210   24.4950   41.5260 C   0  0  0  0  0  0  0  0  0  0  0  0
   38.1640   23.4470   41.2700 H   0  0  0  0  0  0  0  0  0  0  0  0
   38.4760   25.0020   40.5180 H   0  0  0  0  0  0  0  0  0  0  0  0
   39.5680   24.7180   42.2600 C   0  0  0  0  0  3  0  0  0  0  0  0
   40.7690   25.2690   42.1230 C   0  0  0  0  0  3  0  0  0  0  0  0
   41.9110   25.2270   43.1180 C   0  0  0  0  0  0  0  0  0  0  0  0
   41.5370   24.6990   43.9970 H   0  0  0  0  0  0  0  0  0  0  0  0
   42.0750   26.2880   43.4080 H   0  0  0  0  0  0  0  0  0  0  0  0
   42.7980   24.7680   42.6560 H   0  0  0  0  0  0  0  0  0  0  0  0
  1  3  1  0  0  0  0
  1 27  1  0  0  0  0
  2  7  2  0  0  0  0
  2  3  1  0  0  0  0
  3  4  2  0  0  0  0
  4  5  1  0  0  0  0
  4  8  1  0  0  0  0
  5  9  1  0  0  0  0
  6 10  1  0  0  0  0
  6  5  2  0  0  0  0
  7  6  1  0  0  0  0
 11  7  1  0  0  0  0
 12  2  1  0  0  0  0
 12 14  2  0  0  0  0
 13 12  2  0  0  0  0
 15 12  1  0  0  0  0
 16 15  1  0  0  0  0
 16 17  1  0  0  0  0
 18 16  2  0  0  0  0
 19 18  1  0  0  0  0
 20 18  1  0  0  0  0
 20 22  1  0  0  0  0
 21 20  1  0  0  0  0
 22 15  2  0  0  0  0
 23 29  1  0  0  0  0
 24 23  1  0  0  0  0
 24 30  1  0  0  0  0
 25 24  2  0  0  0  0
 26 27  2  0  0  0  0
 26 25  1  0  0  0  0
 27 28  1  0  0  0  0
 28 23  2  0  0  0  0
 31 25  1  0  0  0  0
 31 32  1  0  0  0  0
 33 31  1  0  0  0  0
 34 31  1  0  0  0  0
 34 37  1  0  0  0  0
 35 34  1  0  0  0  0
 36 34  1  0  0  0  0
 38 37  2  0  0  0  0
 38 39  1  0  0  0  0
 39 41  1  0  0  0  0
 39 40  1  0  0  0  0
 42 39  1  0  0  0  0
M  END
>  <minimizedAffinity>
-5.46616316

$$$$

 OpenBabel03242517583D

 42 44  0  0  0  0  0  0  0  0999 V2000
   39.7170   27.4350   40.9130 O   0  0  0  0  0  0  0  0  0  0  0  0
   37.8330   26.2140   41.9360 C   0  0  0  0  0  0  0  0  0  0  0  0
   38.9580   26.2980   41.1860 C   0  0  0  0  0  0  0  0  0  0  0  0
   39.4390   25.1420   40.6040 C   0  0  0  0  0  0  0  0  0  0  0  0
   38.8300   23.9180   40.7500 C   0  0  0  0  0  0  0  0  0  0  0  0
   37.6860   23.8500   41.5150 C   0  0  0  0  0  0  0  0  0  0  0  0
   37.1930   25.0040   42.1050 C   0  0  0  0  0  0  0  0  0  0  0  0
   40.3310   25.1230   39.9910 H   0  0  0  0  0  0  0  0  0  0  0  0
   39.2130   23.0180   40.2900 H   0  0  0  0  0  0  0  0  0  0  0  0
   37.1540   22.9220   41.6730 H   0  0  0  0  0  0  0  0  0  0  0  0
   36.2940   24.9650   42.7080 H   0  0  0  0  0  0  0  0  0  0  0  0
   37.3380   27.6840   42.7390 S   0  0  0  0  0  0  0  0  0  0  0  0
   38.3470   28.2550   43.6460 O   0  0  0  0  0  0  0  0  0  0  0  0
   36.1650   27.2650   43.6580 O   0  0  0  0  0  0  0  0  0  0  0  0
   36.5430   28.8030   41.6600 C   0  0  0  0  0  0  0  0  0  0  0  0
   35.7890   28.4910   40.5490 C   0  0  0  0  0  0  0  0  0  0  0  0
   35.5620   27.5240   40.1580 H   0  0  0  0  0  0  0  0  0  0  0  0
   35.3620   29.6930   40.0060 C   0  0  0  0  0  0  0  0  0  0  0  0
   34.7500   29.8810   39.1320 H   0  0  0  0  0  0  0  0  0  0  0  0
   35.8610   30.6890   40.7930 N   0  0  0  0  0  0  0  0  0  0  0  0
   35.7600   31.7430   40.7150 H   0  0  0  0  0  0  0  0  0  0  0  0
   36.5740   30.1380   41.7900 N   0  0  0  0  0  0  0  0  0  0  0  0
   39.4370   30.6660   39.5150 C   0  0  0  0  0  0  0  0  0  0  0  0
   38.8130   30.4060   38.2800 C   0  0  0  0  0  0  0  0  0  0  0  0
   38.4950   29.1160   37.9430 C   0  0  0  0  0  0  0  0  0  0  0  0
   38.8150   28.1780   38.8440 N   0  0  0  0  0  0  0  0  0  0  0  0
   39.3990   28.4160   40.0030 C   0  0  0  0  0  0  0  0  0  0  0  0
   39.7120   29.6650   40.3410 N   0  0  0  0  0  0  0  0  0  0  0  0
   39.6880   31.6800   39.7840 H   0  0  0  0  0  0  0  0  0  0  0  0
   38.6230   31.2720   37.6710 H   0  0  0  0  0  0  0  0  0  0  0  0
   37.8210   28.7350   36.6950 C   0  0  0  0  0  0  0  0  0  0  0  0
   38.5360   28.7880   35.8620 H   0  0  0  0  0  0  0  0  0  0  0  0
   37.5320   27.6640   36.7920 H   0  0  0  0  0  0  0  0  0  0  0  0
   36.6050   29.5640   36.4190 C   0  0  0  0  0  0  0  0  0  0  0  0
   35.6530   29.0630   36.5890 H   0  0  0  0  0  0  0  0  0  0  0  0
   36.6290   30.3830   37.2100 H   0  0  0  0  0  0  0  0  0  0  0  0
   36.6510   30.2720   35.1370 C   0  0  0  0  0  3  0  0  0  0  0  0
   36.1460   30.2310   33.9100 C   0  0  0  0  0  3  0  0  0  0  0  0
   36.5120   31.1240   32.7420 C   0  0  0  0  0  0  0  0  0  0  0  0
   37.2370   31.8470   33.1190 H   0  0  0  0  0  0  0  0  0  0  0  0
   35.5780   31.6790   32.5040 H   0  0  0  0  0  0  0  0  0  0  0  0
   36.8740   30.5160   31.9000 H   0  0  0  0  0  0  0  0  0  0  0  0
  1  3  1  0  0  0  0
  2  7  1  0  0  0  0
  2 12  1  0  0  0  0
  3  2  2  0  0  0  0
  4  5  2  0  0  0  0
  4  3  1  0  0  0  0
  5  6  1  0  0  0  0
  6 10  1  0  0  0  0
  6  7  2  0  0  0  0
  7 11  1  0  0  0  0
  8  4  1  0  0  0  0
  9  5  1  0  0  0  0
 12 13  2  0  0  0  0
 12 14  2  0  0  0  0
 15 22  2  0  0  0  0
 15 12  1  0  0  0  0
 16 15  1  0  0  0  0
 17 16  1  0  0  0  0
 18 16  2  0  0  0  0
 18 20  1  0  0  0  0
 19 18  1  0  0  0  0
 20 22  1  0  0  0  0
 21 20  1  0  0  0  0
 23 29  1  0  0  0  0
 23 28  1  0  0  0  0
 24 23  2  0  0  0  0
 25 24  1  0  0  0  0
 25 26  2  0  0  0  0
 26 27  1  0  0  0  0
 27 28  2  0  0  0  0
 27  1  1  0  0  0  0
 30 24  1  0  0  0  0
 31 33  1  0  0  0  0
 31 25  1  0  0  0  0
 32 31  1  0  0  0  0
 34 35  1  0  0  0  0
 34 31  1  0  0  0  0
 34 36  1  0  0  0  0
 37 34  1  0  0  0  0
 38 37  2  0  0  0  0
 39 40  1  0  0  0  0
 39 38  1  0  0  0  0
 41 39  1  0  0  0  0
 42 39  1  0  0  0  0
M  END
>  <minimizedAffinity>
-5.44782925

$$$$

 OpenBabel03242517583D

 42 44  0  0  0  0  0  0  0  0999 V2000
   35.6560   29.3910   40.6380 O   0  0  0  0  0  0  0  0  0  0  0  0
   37.8570   29.7060   41.7080 C   0  0  0  0  0  0  0  0  0  0  0  0
   36.6740   29.0710   41.5360 C   0  0  0  0  0  0  0  0  0  0  0  0
   36.4040   27.9730   42.3290 C   0  0  0  0  0  0  0  0  0  0  0  0
   37.2780   27.4990   43.2790 C   0  0  0  0  0  0  0  0  0  0  0  0
   38.4780   28.1570   43.4410 C   0  0  0  0  0  0  0  0  0  0  0  0
   38.7600   29.2610   42.6520 C   0  0  0  0  0  0  0  0  0  0  0  0
   35.4830   27.4090   42.2540 H   0  0  0  0  0  0  0  0  0  0  0  0
   37.0590   26.6380   43.8950 H   0  0  0  0  0  0  0  0  0  0  0  0
   39.2130   27.8420   44.1690 H   0  0  0  0  0  0  0  0  0  0  0  0
   39.6990   29.7880   42.7690 H   0  0  0  0  0  0  0  0  0  0  0  0
   38.1900   31.0150   40.6000 S   0  0  0  0  0  0  0  0  0  0  0  0
   39.3710   31.8220   40.9450 O   0  0  0  0  0  0  0  0  0  0  0  0
   36.9880   31.9810   40.7460 O   0  0  0  0  0  0  0  0  0  0  0  0
   38.0390   30.5340   38.9290 C   0  0  0  0  0  0  0  0  0  0  0  0
   37.2370   31.1120   37.9680 C   0  0  0  0  0  0  0  0  0  0  0  0
   36.5760   31.9430   38.0750 H   0  0  0  0  0  0  0  0  0  0  0  0
   37.4440   30.4000   36.7960 C   0  0  0  0  0  0  0  0  0  0  0  0
   37.0040   30.5370   35.8140 H   0  0  0  0  0  0  0  0  0  0  0  0
   38.3540   29.4230   37.0740 N   0  0  0  0  0  0  0  0  0  0  0  0
   38.7730   28.6760   36.4470 H   0  0  0  0  0  0  0  0  0  0  0  0
   38.7070   29.5140   38.3660 N   0  0  0  0  0  0  0  0  0  0  0  0
   33.8440   28.4440   37.7590 C   0  0  0  0  0  0  0  0  0  0  0  0
   34.4960   27.2580   37.3700 C   0  0  0  0  0  0  0  0  0  0  0  0
   35.5560   26.7970   38.1070 C   0  0  0  0  0  0  0  0  0  0  0  0
   35.8970   27.5370   39.1710 N   0  0  0  0  0  0  0  0  0  0  0  0
   35.2890   28.6480   39.5410 C   0  0  0  0  0  0  0  0  0  0  0  0
   34.2580   29.1050   38.8320 N   0  0  0  0  0  0  0  0  0  0  0  0
   33.0100   28.8090   37.1820 H   0  0  0  0  0  0  0  0  0  0  0  0
   34.0980   26.7830   36.4920 H   0  0  0  0  0  0  0  0  0  0  0  0
   36.2900   25.5620   37.8080 C   0  0  0  0  0  0  0  0  0  0  0  0
   36.1720   25.3140   36.7440 H   0  0  0  0  0  0  0  0  0  0  0  0
   37.3720   25.7780   37.9600 H   0  0  0  0  0  0  0  0  0  0  0  0
   35.8760   24.4170   38.6800 C   0  0  0  0  0  0  0  0  0  0  0  0
   34.8170   24.3850   38.9330 H   0  0  0  0  0  0  0  0  0  0  0  0
   36.0320   23.4920   38.0340 H   0  0  0  0  0  0  0  0  0  0  0  0
   36.7430   24.2180   39.8440 C   0  0  0  0  0  3  0  0  0  0  0  0
   36.7460   24.3330   41.1670 C   0  0  0  0  0  3  0  0  0  0  0  0
   37.9220   24.1150   42.0990 C   0  0  0  0  0  0  0  0  0  0  0  0
   38.7560   23.7920   41.4750 H   0  0  0  0  0  0  0  0  0  0  0  0
   37.6250   23.2520   42.7340 H   0  0  0  0  0  0  0  0  0  0  0  0
   38.1160   25.0280   42.6810 H   0  0  0  0  0  0  0  0  0  0  0  0
  1  3  1  0  0  0  0
  2  7  1  0  0  0  0
  3  2  2  0  0  0  0
  3  4  1  0  0  0  0
  4  5  2  0  0  0  0
  5  6  1  0  0  0  0
  5  9  1  0  0  0  0
  6 10  1  0  0  0  0
  7 11  1  0  0  0  0
  7  6  2  0  0  0  0
  8  4  1  0  0  0  0
 12 14  2  0  0  0  0
 12 13  2  0  0  0  0
 12  2  1  0  0  0  0
 15 12  1  0  0  0  0
 16 17  1  0  0  0  0
 16 15  1  0  0  0  0
 18 20  1  0  0  0  0
 18 16  2  0  0  0  0
 19 18  1  0  0  0  0
 20 22  1  0  0  0  0
 21 20  1  0  0  0  0
 22 15  2  0  0  0  0
 23 28  1  0  0  0  0
 24 23  2  0  0  0  0
 24 25  1  0  0  0  0
 25 26  2  0  0  0  0
 26 27  1  0  0  0  0
 27  1  1  0  0  0  0
 28 27  2  0  0  0  0
 29 23  1  0  0  0  0
 30 24  1  0  0  0  0
 31 33  1  0  0  0  0
 31 25  1  0  0  0  0
 31 34  1  0  0  0  0
 32 31  1  0  0  0  0
 34 35  1  0  0  0  0
 34 37  1  0  0  0  0
 36 34  1  0  0  0  0
 37 38  2  0  0  0  0
 38 39  1  0  0  0  0
 39 42  1  0  0  0  0
 39 41  1  0  0  0  0
 40 39  1  0  0  0  0
M  END
>  <minimizedAffinity>
-5.42002106

$$$$

 OpenBabel03242517583D

 42 44  0  0  0  0  0  0  0  0999 V2000
   36.6470   28.6870   39.7380 O   0  0  0  0  0  0  0  0  0  0  0  0
   38.2810   29.4140   41.4370 C   0  0  0  0  0  0  0  0  0  0  0  0
   37.1900   28.7290   41.0220 C   0  0  0  0  0  0  0  0  0  0  0  0
   36.5030   27.9730   41.9520 C   0  0  0  0  0  0  0  0  0  0  0  0
   36.8770   27.8860   43.2720 C   0  0  0  0  0  0  0  0  0  0  0  0
   37.9890   28.5900   43.6790 C   0  0  0  0  0  0  0  0  0  0  0  0
   38.6860   29.3530   42.7550 C   0  0  0  0  0  0  0  0  0  0  0  0
   35.6230   27.3950   41.7010 H   0  0  0  0  0  0  0  0  0  0  0  0
   36.3340   27.2910   43.9940 H   0  0  0  0  0  0  0  0  0  0  0  0
   38.3410   28.5690   44.7020 H   0  0  0  0  0  0  0  0  0  0  0  0
   39.5620   29.9120   43.0610 H   0  0  0  0  0  0  0  0  0  0  0  0
   39.1720   30.2590   40.1950 S   0  0  0  0  0  0  0  0  0  0  0  0
   39.4820   29.4490   39.0070 O   0  0  0  0  0  0  0  0  0  0  0  0
   40.5470   30.5780   40.8330 O   0  0  0  0  0  0  0  0  0  0  0  0
   38.5530   31.8640   39.9010 C   0  0  0  0  0  0  0  0  0  0  0  0
   37.2350   32.2270   39.7290 C   0  0  0  0  0  0  0  0  0  0  0  0
   36.3720   31.5990   39.7450 H   0  0  0  0  0  0  0  0  0  0  0  0
   37.2210   33.5980   39.5220 C   0  0  0  0  0  0  0  0  0  0  0  0
   36.3850   34.2660   39.3480 H   0  0  0  0  0  0  0  0  0  0  0  0
   38.5150   34.0250   39.5750 N   0  0  0  0  0  0  0  0  0  0  0  0
   38.9230   34.9990   39.4660 H   0  0  0  0  0  0  0  0  0  0  0  0
   39.3120   32.9680   39.8040 N   0  0  0  0  0  0  0  0  0  0  0  0
   35.6490   26.6680   37.0180 C   0  0  0  0  0  0  0  0  0  0  0  0
   35.7420   25.3710   37.5570 C   0  0  0  0  0  0  0  0  0  0  0  0
   36.1480   25.2060   38.8560 C   0  0  0  0  0  0  0  0  0  0  0  0
   36.4340   26.3290   39.5270 N   0  0  0  0  0  0  0  0  0  0  0  0
   36.3480   27.5480   39.0280 C   0  0  0  0  0  0  0  0  0  0  0  0
   35.9540   27.7190   37.7680 N   0  0  0  0  0  0  0  0  0  0  0  0
   35.3290   26.8020   35.9970 H   0  0  0  0  0  0  0  0  0  0  0  0
   35.4740   24.5750   36.8850 H   0  0  0  0  0  0  0  0  0  0  0  0
   36.2550   23.9040   39.5240 C   0  0  0  0  0  0  0  0  0  0  0  0
   37.2970   23.5580   39.4890 H   0  0  0  0  0  0  0  0  0  0  0  0
   36.0160   24.0670   40.6000 H   0  0  0  0  0  0  0  0  0  0  0  0
   35.3250   22.8810   38.9500 C   0  0  0  0  0  0  0  0  0  0  0  0
   35.3760   22.7620   37.8680 H   0  0  0  0  0  0  0  0  0  0  0  0
   35.7070   21.8860   39.3530 H   0  0  0  0  0  0  0  0  0  0  0  0
   33.9500   22.9880   39.4440 C   0  0  0  0  0  3  0  0  0  0  0  0
   32.8130   22.3050   39.5060 C   0  0  0  0  0  3  0  0  0  0  0  0
   31.4820   22.7950   40.0390 C   0  0  0  0  0  0  0  0  0  0  0  0
   31.6510   23.8050   40.4140 H   0  0  0  0  0  0  0  0  0  0  0  0
   31.2700   22.1440   40.9160 H   0  0  0  0  0  0  0  0  0  0  0  0
   30.7120   22.7220   39.2570 H   0  0  0  0  0  0  0  0  0  0  0  0
  1  3  1  0  0  0  0
  2  7  1  0  0  0  0
  3  2  2  0  0  0  0
  3  4  1  0  0  0  0
  4  5  2  0  0  0  0
  5  6  1  0  0  0  0
  5  9  1  0  0  0  0
  6 10  1  0  0  0  0
  7 11  1  0  0  0  0
  7  6  2  0  0  0  0
  8  4  1  0  0  0  0
 12 14  2  0  0  0  0
 12  2  1  0  0  0  0
 13 12  2  0  0  0  0
 15 12  1  0  0  0  0
 16 17  1  0  0  0  0
 16 15  1  0  0  0  0
 18 20  1  0  0  0  0
 18 16  2  0  0  0  0
 19 18  1  0  0  0  0
 20 22  1  0  0  0  0
 21 20  1  0  0  0  0
 22 15  2  0  0  0  0
 23 24  2  0  0  0  0
 23 28  1  0  0  0  0
 24 25  1  0  0  0  0
 25 31  1  0  0  0  0
 25 26  2  0  0  0  0
 27 26  1  0  0  0  0
 27  1  1  0  0  0  0
 28 27  2  0  0  0  0
 29 23  1  0  0  0  0
 30 24  1  0  0  0  0
 31 33  1  0  0  0  0
 32 31  1  0  0  0  0
 34 36  1  0  0  0  0
 34 37  1  0  0  0  0
 34 31  1  0  0  0  0
 35 34  1  0  0  0  0
 37 38  2  0  0  0  0
 38 39  1  0  0  0  0
 39 40  1  0  0  0  0
 39 41  1  0  0  0  0
 42 39  1  0  0  0  0
M  END
>  <minimizedAffinity>
-5.34712029

$$$$
