
 OpenBabel03252509103D

 40 43  0  0  0  0  0  0  0  0999 V2000
   36.5030   26.1300   39.5360 C   0  0  0  0  0  0  0  0  0  0  0  0
   37.0500   25.8640   40.7550 C   0  0  0  0  0  0  0  0  0  0  0  0
   37.1170   24.5610   41.2160 C   0  0  0  0  0  0  0  0  0  0  0  0
   36.6350   23.5300   40.4450 C   0  0  0  0  0  0  0  0  0  0  0  0
   36.0690   23.7590   39.1900 C   0  0  0  0  0  0  0  0  0  0  0  0
   36.0120   25.0860   38.7480 C   0  0  0  0  0  0  0  0  0  0  0  0
   37.5340   24.3030   42.1610 H   0  0  0  0  0  0  0  0  0  0  0  0
   36.6330   22.4870   40.6950 H   0  0  0  0  0  0  0  0  0  0  0  0
   35.6770   23.0140   38.5400 H   0  0  0  0  0  0  0  0  0  0  0  0
   35.5750   25.3020   37.7700 H   0  0  0  0  0  0  0  0  0  0  0  0
   41.0610   28.7100   42.3320 Cl  0  0  0  0  0  0  0  0  0  0  0  0
   39.3930   28.1880   42.3810 C   0  0  0  0  0  0  0  0  0  0  0  0
   38.9290   27.2450   41.5220 C   0  0  0  0  0  0  0  0  0  0  0  0
   37.5970   26.8850   41.6510 C   0  0  0  0  0  0  0  0  0  0  0  0
   36.7810   27.4510   42.5990 C   0  0  0  0  0  0  0  0  0  0  0  0
   37.2630   28.3920   43.4480 C   0  0  0  0  0  0  0  0  0  0  0  0
   38.5880   28.7600   43.3330 C   0  0  0  0  0  0  0  0  0  0  0  0
   35.7380   27.1340   42.6590 H   0  0  0  0  0  0  0  0  0  0  0  0
   36.5860   28.8100   44.1790 H   0  0  0  0  0  0  0  0  0  0  0  0
   38.9510   29.5140   44.0240 H   0  0  0  0  0  0  0  0  0  0  0  0
   41.3520   24.9200   39.8030 C   0  0  0  0  0  0  0  0  0  0  0  0
   40.4800   25.4700   40.7500 C   0  0  0  0  0  0  0  0  0  0  0  0
   39.8310   26.6690   40.5510 C   0  0  0  0  0  0  0  0  0  0  0  0
   40.1080   27.2660   39.3620 N   0  0  0  0  0  0  0  0  0  0  0  0
   40.9380   26.7500   38.4520 C   0  0  0  0  0  0  0  0  0  0  0  0
   41.5530   25.5840   38.6740 N   0  0  0  0  0  0  0  0  0  0  0  0
   41.7880   23.9760   40.0970 H   0  0  0  0  0  0  0  0  0  0  0  0
   40.2840   24.9630   41.6880 H   0  0  0  0  0  0  0  0  0  0  0  0
   41.0900   27.3070   37.5360 H   0  0  0  0  0  0  0  0  0  0  0  0
   36.4460   27.6980   38.9240 S   0  0  0  0  0  0  0  0  0  0  0  0
   37.6190   28.0060   38.0210 O   0  0  0  0  0  0  0  0  0  0  0  0
   35.2380   27.6570   37.9160 O   0  0  0  0  0  0  0  0  0  0  0  0
   36.1640   29.1080   39.8670 C   0  0  0  0  0  0  0  0  0  0  0  0
   37.1700   30.1040   39.9620 C   0  0  0  0  0  0  0  0  0  0  0  0
   38.1710   30.1210   39.4810 H   0  0  0  0  0  0  0  0  0  0  0  0
   36.8400   31.1740   40.7580 C   0  0  0  0  0  0  0  0  0  0  0  0
   37.3920   32.0510   41.0060 H   0  0  0  0  0  0  0  0  0  0  0  0
   35.6170   30.8350   41.1580 N   0  0  0  0  0  0  0  0  0  0  0  0
   34.9520   31.3660   41.7990 H   0  0  0  0  0  0  0  0  0  0  0  0
   35.2660   29.7110   40.6640 N   0  0  0  0  0  0  0  0  0  0  0  0
  1  2  1  0  0  0  0
  2  3  2  0  0  0  0
  2 14  1  0  0  0  0
  3  7  1  0  0  0  0
  4  8  1  0  0  0  0
  4  3  1  0  0  0  0
  5  4  2  0  0  0  0
  6  5  1  0  0  0  0
  6  1  2  0  0  0  0
  9  5  1  0  0  0  0
 10  6  1  0  0  0  0
 11 12  1  0  0  0  0
 12 17  1  0  0  0  0
 13 14  1  0  0  0  0
 13 12  2  0  0  0  0
 14 15  2  0  0  0  0
 15 18  1  0  0  0  0
 15 16  1  0  0  0  0
 16 19  1  0  0  0  0
 17 16  2  0  0  0  0
 17 20  1  0  0  0  0
 21 27  1  0  0  0  0
 21 22  1  0  0  0  0
 22 28  1  0  0  0  0
 23 22  2  0  0  0  0
 23 13  1  0  0  0  0
 24 23  1  0  0  0  0
 25 26  1  0  0  0  0
 25 24  2  0  0  0  0
 26 21  2  0  0  0  0
 29 25  1  0  0  0  0
 30  1  1  0  0  0  0
 30 33  1  0  0  0  0
 31 30  2  0  0  0  0
 32 30  2  0  0  0  0
 33 34  1  0  0  0  0
 33 40  2  0  0  0  0
 34 36  2  0  0  0  0
 35 34  1  0  0  0  0
 36 37  1  0  0  0  0
 36 38  1  0  0  0  0
 38 39  1  0  0  0  0
 40 38  1  0  0  0  0
M  END
>  <minimizedAffinity>
-6.17977428

$$$$

 OpenBabel03252509103D

 40 43  0  0  0  0  0  0  0  0999 V2000
   37.5440   29.5180   41.5220 C   0  0  0  0  0  0  0  0  0  0  0  0
   36.6640   28.5100   41.2690 C   0  0  0  0  0  0  0  0  0  0  0  0
   36.4780   27.5010   42.1990 C   0  0  0  0  0  0  0  0  0  0  0  0
   37.1790   27.5150   43.3810 C   0  0  0  0  0  0  0  0  0  0  0  0
   38.0890   28.5300   43.6800 C   0  0  0  0  0  0  0  0  0  0  0  0
   38.2590   29.5360   42.7220 C   0  0  0  0  0  0  0  0  0  0  0  0
   35.8030   26.6930   42.0470 H   0  0  0  0  0  0  0  0  0  0  0  0
   37.1190   26.7920   44.1720 H   0  0  0  0  0  0  0  0  0  0  0  0
   38.6650   28.6060   44.5700 H   0  0  0  0  0  0  0  0  0  0  0  0
   38.9640   30.3480   42.9220 H   0  0  0  0  0  0  0  0  0  0  0  0
   35.9760   26.4890   36.5650 Cl  0  0  0  0  0  0  0  0  0  0  0  0
   35.5260   27.5020   37.9190 C   0  0  0  0  0  0  0  0  0  0  0  0
   36.2950   27.5590   39.0360 C   0  0  0  0  0  0  0  0  0  0  0  0
   35.8640   28.4040   40.0460 C   0  0  0  0  0  0  0  0  0  0  0  0
   34.7160   29.1480   39.9300 C   0  0  0  0  0  0  0  0  0  0  0  0
   33.9620   29.0760   38.8060 C   0  0  0  0  0  0  0  0  0  0  0  0
   34.3780   28.2410   37.7900 C   0  0  0  0  0  0  0  0  0  0  0  0
   34.4190   29.7970   40.7560 H   0  0  0  0  0  0  0  0  0  0  0  0
   33.0660   29.6790   38.7580 H   0  0  0  0  0  0  0  0  0  0  0  0
   33.7580   28.2010   36.9010 H   0  0  0  0  0  0  0  0  0  0  0  0
   38.6960   24.7090   39.6200 C   0  0  0  0  0  0  0  0  0  0  0  0
   37.5210   25.4670   39.5580 C   0  0  0  0  0  0  0  0  0  0  0  0
   37.5020   26.7670   39.1040 C   0  0  0  0  0  0  0  0  0  0  0  0
   38.7160   27.2470   38.7220 N   0  0  0  0  0  0  0  0  0  0  0  0
   39.8420   26.5320   38.7770 C   0  0  0  0  0  0  0  0  0  0  0  0
   39.8290   25.2710   39.2230 N   0  0  0  0  0  0  0  0  0  0  0  0
   38.5570   23.7060   39.9980 H   0  0  0  0  0  0  0  0  0  0  0  0
   36.5710   25.0490   39.8720 H   0  0  0  0  0  0  0  0  0  0  0  0
   40.7570   27.0080   38.4480 H   0  0  0  0  0  0  0  0  0  0  0  0
   37.7620   30.7840   40.4330 S   0  0  0  0  0  0  0  0  0  0  0  0
   37.8590   30.3020   39.0020 O   0  0  0  0  0  0  0  0  0  0  0  0
   36.3770   31.5290   40.4510 O   0  0  0  0  0  0  0  0  0  0  0  0
   38.9220   32.0400   40.6100 C   0  0  0  0  0  0  0  0  0  0  0  0
   40.2880   31.7850   40.3170 C   0  0  0  0  0  0  0  0  0  0  0  0
   40.7500   30.8430   39.9560 H   0  0  0  0  0  0  0  0  0  0  0  0
   41.1230   32.8580   40.5150 C   0  0  0  0  0  0  0  0  0  0  0  0
   42.1760   32.9520   40.3780 H   0  0  0  0  0  0  0  0  0  0  0  0
   40.2650   33.7850   40.9340 N   0  0  0  0  0  0  0  0  0  0  0  0
   40.4560   34.7950   41.2130 H   0  0  0  0  0  0  0  0  0  0  0  0
   39.0750   33.3240   40.9780 N   0  0  0  0  0  0  0  0  0  0  0  0
  1  6  1  0  0  0  0
  2  1  2  0  0  0  0
  2  3  1  0  0  0  0
  3  4  2  0  0  0  0
  4  5  1  0  0  0  0
  4  8  1  0  0  0  0
  5  9  1  0  0  0  0
  6 10  1  0  0  0  0
  6  5  2  0  0  0  0
  7  3  1  0  0  0  0
 11 12  1  0  0  0  0
 12 13  1  0  0  0  0
 13 23  1  0  0  0  0
 13 14  2  0  0  0  0
 14  2  1  0  0  0  0
 15 14  1  0  0  0  0
 15 18  1  0  0  0  0
 16 15  2  0  0  0  0
 17 12  2  0  0  0  0
 17 16  1  0  0  0  0
 19 16  1  0  0  0  0
 20 17  1  0  0  0  0
 21 27  1  0  0  0  0
 22 21  1  0  0  0  0
 22 28  1  0  0  0  0
 23 22  2  0  0  0  0
 24 25  2  0  0  0  0
 24 23  1  0  0  0  0
 25 26  1  0  0  0  0
 26 21  2  0  0  0  0
 29 25  1  0  0  0  0
 30 32  2  0  0  0  0
 30 33  1  0  0  0  0
 30  1  1  0  0  0  0
 31 30  2  0  0  0  0
 33 40  2  0  0  0  0
 34 36  2  0  0  0  0
 34 33  1  0  0  0  0
 35 34  1  0  0  0  0
 36 38  1  0  0  0  0
 37 36  1  0  0  0  0
 38 40  1  0  0  0  0
 38 39  1  0  0  0  0
M  END
>  <minimizedAffinity>
-6.1064024

$$$$

 OpenBabel03252509103D

 40 43  0  0  0  0  0  0  0  0999 V2000
   38.2690   28.7330   41.3380 C   0  0  0  0  0  0  0  0  0  0  0  0
   37.0830   28.0700   41.2340 C   0  0  0  0  0  0  0  0  0  0  0  0
   36.5590   27.4100   42.3320 C   0  0  0  0  0  0  0  0  0  0  0  0
   37.2330   27.4210   43.5310 C   0  0  0  0  0  0  0  0  0  0  0  0
   38.4480   28.0890   43.6800 C   0  0  0  0  0  0  0  0  0  0  0  0
   38.9560   28.7480   42.5540 C   0  0  0  0  0  0  0  0  0  0  0  0
   35.6380   26.8780   42.3010 H   0  0  0  0  0  0  0  0  0  0  0  0
   36.9270   26.9480   44.4440 H   0  0  0  0  0  0  0  0  0  0  0  0
   39.0240   28.1420   44.5730 H   0  0  0  0  0  0  0  0  0  0  0  0
   39.9070   29.2820   42.6340 H   0  0  0  0  0  0  0  0  0  0  0  0
   35.5250   25.4150   37.0870 Cl  0  0  0  0  0  0  0  0  0  0  0  0
   35.5600   26.8210   38.1280 C   0  0  0  0  0  0  0  0  0  0  0  0
   36.3080   26.8340   39.2600 C   0  0  0  0  0  0  0  0  0  0  0  0
   36.2840   28.0000   40.0090 C   0  0  0  0  0  0  0  0  0  0  0  0
   35.5410   29.0910   39.6300 C   0  0  0  0  0  0  0  0  0  0  0  0
   34.8010   29.0570   38.4960 C   0  0  0  0  0  0  0  0  0  0  0  0
   34.8150   27.9040   37.7380 C   0  0  0  0  0  0  0  0  0  0  0  0
   35.5560   29.9850   40.2560 H   0  0  0  0  0  0  0  0  0  0  0  0
   34.2310   29.9380   38.2360 H   0  0  0  0  0  0  0  0  0  0  0  0
   34.2140   27.9010   36.8340 H   0  0  0  0  0  0  0  0  0  0  0  0
   37.3350   23.4910   40.6730 C   0  0  0  0  0  0  0  0  0  0  0  0
   36.5740   24.6180   40.3420 C   0  0  0  0  0  0  0  0  0  0  0  0
   37.0850   25.6660   39.6080 C   0  0  0  0  0  0  0  0  0  0  0  0
   38.3830   25.5110   39.2350 N   0  0  0  0  0  0  0  0  0  0  0  0
   39.1170   24.4390   39.5450 C   0  0  0  0  0  0  0  0  0  0  0  0
   38.5940   23.4380   40.2600 N   0  0  0  0  0  0  0  0  0  0  0  0
   36.8020   22.7500   41.2530 H   0  0  0  0  0  0  0  0  0  0  0  0
   35.5410   24.7060   40.6580 H   0  0  0  0  0  0  0  0  0  0  0  0
   40.1430   24.4150   39.1990 H   0  0  0  0  0  0  0  0  0  0  0  0
   38.9130   29.5840   40.0360 S   0  0  0  0  0  0  0  0  0  0  0  0
   40.3940   29.8500   40.1990 O   0  0  0  0  0  0  0  0  0  0  0  0
   38.8810   28.5400   38.8590 O   0  0  0  0  0  0  0  0  0  0  0  0
   38.2270   31.0080   39.3590 C   0  0  0  0  0  0  0  0  0  0  0  0
   37.8830   32.0940   40.2050 C   0  0  0  0  0  0  0  0  0  0  0  0
   38.0070   32.1780   41.3050 H   0  0  0  0  0  0  0  0  0  0  0  0
   37.3240   33.1680   39.5550 C   0  0  0  0  0  0  0  0  0  0  0  0
   36.9760   34.1020   39.9300 H   0  0  0  0  0  0  0  0  0  0  0  0
   37.3240   32.7410   38.2940 N   0  0  0  0  0  0  0  0  0  0  0  0
   36.9810   33.2400   37.4180 H   0  0  0  0  0  0  0  0  0  0  0  0
   37.8190   31.5660   38.2070 N   0  0  0  0  0  0  0  0  0  0  0  0
  1  6  1  0  0  0  0
  2  1  2  0  0  0  0
  2  3  1  0  0  0  0
  3  4  2  0  0  0  0
  4  5  1  0  0  0  0
  4  8  1  0  0  0  0
  5  9  1  0  0  0  0
  6 10  1  0  0  0  0
  6  5  2  0  0  0  0
  7  3  1  0  0  0  0
 11 12  1  0  0  0  0
 12 13  1  0  0  0  0
 13 23  1  0  0  0  0
 13 14  2  0  0  0  0
 14  2  1  0  0  0  0
 15 14  1  0  0  0  0
 15 18  1  0  0  0  0
 16 15  2  0  0  0  0
 17 12  2  0  0  0  0
 17 16  1  0  0  0  0
 19 16  1  0  0  0  0
 20 17  1  0  0  0  0
 21 27  1  0  0  0  0
 22 28  1  0  0  0  0
 22 21  1  0  0  0  0
 23 22  2  0  0  0  0
 24 25  2  0  0  0  0
 24 23  1  0  0  0  0
 25 26  1  0  0  0  0
 26 21  2  0  0  0  0
 29 25  1  0  0  0  0
 30 31  2  0  0  0  0
 30  1  1  0  0  0  0
 32 30  2  0  0  0  0
 33 30  1  0  0  0  0
 33 34  1  0  0  0  0
 34 35  1  0  0  0  0
 36 37  1  0  0  0  0
 36 34  2  0  0  0  0
 38 36  1  0  0  0  0
 39 38  1  0  0  0  0
 40 38  1  0  0  0  0
 40 33  2  0  0  0  0
M  END
>  <minimizedAffinity>
-6.0816102

$$$$

 OpenBabel03252509103D

 40 43  0  0  0  0  0  0  0  0999 V2000
   36.1620   27.2600   39.1410 C   0  0  0  0  0  0  0  0  0  0  0  0
   35.8820   28.2370   40.0480 C   0  0  0  0  0  0  0  0  0  0  0  0
   34.8370   29.1160   39.8210 C   0  0  0  0  0  0  0  0  0  0  0  0
   34.0780   29.0040   38.6810 C   0  0  0  0  0  0  0  0  0  0  0  0
   34.3300   28.0170   37.7280 C   0  0  0  0  0  0  0  0  0  0  0  0
   35.3930   27.1430   37.9810 C   0  0  0  0  0  0  0  0  0  0  0  0
   34.5790   29.8950   40.4980 H   0  0  0  0  0  0  0  0  0  0  0  0
   33.2480   29.6240   38.3980 H   0  0  0  0  0  0  0  0  0  0  0  0
   33.7860   27.8700   36.8250 H   0  0  0  0  0  0  0  0  0  0  0  0
   35.6200   26.3570   37.2560 H   0  0  0  0  0  0  0  0  0  0  0  0
   39.4740   30.8160   42.7180 Cl  0  0  0  0  0  0  0  0  0  0  0  0
   38.2390   29.5910   42.5270 C   0  0  0  0  0  0  0  0  0  0  0  0
   37.5710   29.4490   41.3540 C   0  0  0  0  0  0  0  0  0  0  0  0
   36.6240   28.4390   41.2950 C   0  0  0  0  0  0  0  0  0  0  0  0
   36.3680   27.6200   42.3670 C   0  0  0  0  0  0  0  0  0  0  0  0
   37.0460   27.7790   43.5300 C   0  0  0  0  0  0  0  0  0  0  0  0
   37.9940   28.7790   43.6040 C   0  0  0  0  0  0  0  0  0  0  0  0
   35.6110   26.8400   42.2690 H   0  0  0  0  0  0  0  0  0  0  0  0
   36.8130   27.1120   44.3470 H   0  0  0  0  0  0  0  0  0  0  0  0
   38.5240   28.8860   44.5450 H   0  0  0  0  0  0  0  0  0  0  0  0
   37.5860   32.3880   38.9890 C   0  0  0  0  0  0  0  0  0  0  0  0
   37.2720   31.5460   40.0620 C   0  0  0  0  0  0  0  0  0  0  0  0
   37.8860   30.3270   40.2500 C   0  0  0  0  0  0  0  0  0  0  0  0
   38.8180   30.0170   39.3100 N   0  0  0  0  0  0  0  0  0  0  0  0
   39.1250   30.8130   38.2830 C   0  0  0  0  0  0  0  0  0  0  0  0
   38.5110   31.9910   38.1270 N   0  0  0  0  0  0  0  0  0  0  0  0
   37.0230   33.3110   38.9710 H   0  0  0  0  0  0  0  0  0  0  0  0
   36.5220   31.8280   40.7930 H   0  0  0  0  0  0  0  0  0  0  0  0
   39.8830   30.4710   37.5900 H   0  0  0  0  0  0  0  0  0  0  0  0
   37.3970   26.1470   39.4070 S   0  0  0  0  0  0  0  0  0  0  0  0
   37.0230   25.1090   40.4420 O   0  0  0  0  0  0  0  0  0  0  0  0
   37.4300   25.3070   38.0760 O   0  0  0  0  0  0  0  0  0  0  0  0
   39.0430   26.5570   39.6900 C   0  0  0  0  0  0  0  0  0  0  0  0
   39.6020   26.3720   40.9810 C   0  0  0  0  0  0  0  0  0  0  0  0
   39.1140   25.9650   41.8920 H   0  0  0  0  0  0  0  0  0  0  0  0
   40.9180   26.7530   41.0920 C   0  0  0  0  0  0  0  0  0  0  0  0
   41.5790   26.7270   41.9270 H   0  0  0  0  0  0  0  0  0  0  0  0
   41.1730   27.1770   39.8570 N   0  0  0  0  0  0  0  0  0  0  0  0
   42.0790   27.5710   39.4590 H   0  0  0  0  0  0  0  0  0  0  0  0
   40.1440   27.0620   39.1090 N   0  0  0  0  0  0  0  0  0  0  0  0
  1 30  1  0  0  0  0
  1  2  1  0  0  0  0
  2 14  1  0  0  0  0
  3  2  2  0  0  0  0
  3  7  1  0  0  0  0
  4  3  1  0  0  0  0
  5  6  1  0  0  0  0
  5  4  2  0  0  0  0
  6  1  2  0  0  0  0
  8  4  1  0  0  0  0
  9  5  1  0  0  0  0
 10  6  1  0  0  0  0
 12 11  1  0  0  0  0
 12 17  1  0  0  0  0
 13 12  2  0  0  0  0
 14 13  1  0  0  0  0
 14 15  2  0  0  0  0
 15 16  1  0  0  0  0
 16 17  2  0  0  0  0
 16 19  1  0  0  0  0
 17 20  1  0  0  0  0
 18 15  1  0  0  0  0
 21 22  1  0  0  0  0
 22 23  2  0  0  0  0
 22 28  1  0  0  0  0
 23 13  1  0  0  0  0
 24 23  1  0  0  0  0
 25 24  2  0  0  0  0
 26 25  1  0  0  0  0
 26 21  2  0  0  0  0
 27 21  1  0  0  0  0
 29 25  1  0  0  0  0
 30 33  1  0  0  0  0
 30 31  2  0  0  0  0
 32 30  2  0  0  0  0
 33 34  1  0  0  0  0
 34 36  2  0  0  0  0
 34 35  1  0  0  0  0
 36 37  1  0  0  0  0
 38 36  1  0  0  0  0
 39 38  1  0  0  0  0
 40 33  2  0  0  0  0
 40 38  1  0  0  0  0
M  END
>  <minimizedAffinity>
-6.00542593

$$$$

 OpenBabel03252509103D

 40 43  0  0  0  0  0  0  0  0999 V2000
   36.9840   29.2800   38.7820 C   0  0  0  0  0  0  0  0  0  0  0  0
   36.9260   29.4550   40.1310 C   0  0  0  0  0  0  0  0  0  0  0  0
   35.7120   29.3670   40.7910 C   0  0  0  0  0  0  0  0  0  0  0  0
   34.5620   29.1020   40.0860 C   0  0  0  0  0  0  0  0  0  0  0  0
   34.5780   28.9140   38.7030 C   0  0  0  0  0  0  0  0  0  0  0  0
   35.8180   29.0090   38.0610 C   0  0  0  0  0  0  0  0  0  0  0  0
   35.6140   29.4970   41.8420 H   0  0  0  0  0  0  0  0  0  0  0  0
   33.5700   29.0110   40.4850 H   0  0  0  0  0  0  0  0  0  0  0  0
   33.7320   28.7060   38.0940 H   0  0  0  0  0  0  0  0  0  0  0  0
   35.8690   28.8680   36.9780 H   0  0  0  0  0  0  0  0  0  0  0  0
   40.5850   27.7700   43.3640 Cl  0  0  0  0  0  0  0  0  0  0  0  0
   39.7570   29.0000   42.4360 C   0  0  0  0  0  0  0  0  0  0  0  0
   38.6890   28.6890   41.6580 C   0  0  0  0  0  0  0  0  0  0  0  0
   38.0900   29.7360   40.9760 C   0  0  0  0  0  0  0  0  0  0  0  0
   38.5490   31.0250   41.0750 C   0  0  0  0  0  0  0  0  0  0  0  0
   39.6180   31.3150   41.8570 C   0  0  0  0  0  0  0  0  0  0  0  0
   40.2250   30.2840   42.5450 C   0  0  0  0  0  0  0  0  0  0  0  0
   38.0420   31.8140   40.5150 H   0  0  0  0  0  0  0  0  0  0  0  0
   39.9460   32.3440   41.9060 H   0  0  0  0  0  0  0  0  0  0  0  0
   41.0780   30.5410   43.1640 H   0  0  0  0  0  0  0  0  0  0  0  0
   36.8730   25.4680   42.4070 C   0  0  0  0  0  0  0  0  0  0  0  0
   37.3070   26.7970   42.4750 C   0  0  0  0  0  0  0  0  0  0  0  0
   38.2330   27.3180   41.5980 C   0  0  0  0  0  0  0  0  0  0  0  0
   38.6840   26.4360   40.6670 N   0  0  0  0  0  0  0  0  0  0  0  0
   38.2760   25.1670   40.5940 C   0  0  0  0  0  0  0  0  0  0  0  0
   37.3760   24.6900   41.4590 N   0  0  0  0  0  0  0  0  0  0  0  0
   36.1450   25.2010   43.1600 H   0  0  0  0  0  0  0  0  0  0  0  0
   36.9240   27.4710   43.2320 H   0  0  0  0  0  0  0  0  0  0  0  0
   38.6990   24.5470   39.8130 H   0  0  0  0  0  0  0  0  0  0  0  0
   38.4500   29.3350   37.9540 S   0  0  0  0  0  0  0  0  0  0  0  0
   39.4030   28.2470   38.3980 O   0  0  0  0  0  0  0  0  0  0  0  0
   38.0680   28.8820   36.4960 O   0  0  0  0  0  0  0  0  0  0  0  0
   39.3930   30.7540   37.7240 C   0  0  0  0  0  0  0  0  0  0  0  0
   40.7690   30.7500   38.0720 C   0  0  0  0  0  0  0  0  0  0  0  0
   41.3720   29.9140   38.4840 H   0  0  0  0  0  0  0  0  0  0  0  0
   41.4130   31.9450   37.8630 C   0  0  0  0  0  0  0  0  0  0  0  0
   42.4270   32.2250   38.0310 H   0  0  0  0  0  0  0  0  0  0  0  0
   40.4260   32.6950   37.3800 N   0  0  0  0  0  0  0  0  0  0  0  0
   40.4500   33.7130   37.0690 H   0  0  0  0  0  0  0  0  0  0  0  0
   39.3360   32.0320   37.3110 N   0  0  0  0  0  0  0  0  0  0  0  0
  1  2  1  0  0  0  0
  2  3  2  0  0  0  0
  2 14  1  0  0  0  0
  3  7  1  0  0  0  0
  4  8  1  0  0  0  0
  4  3  1  0  0  0  0
  5  4  2  0  0  0  0
  6  5  1  0  0  0  0
  6  1  2  0  0  0  0
  9  5  1  0  0  0  0
 10  6  1  0  0  0  0
 12 17  1  0  0  0  0
 12 11  1  0  0  0  0
 13 12  2  0  0  0  0
 14 15  2  0  0  0  0
 14 13  1  0  0  0  0
 15 16  1  0  0  0  0
 16 19  1  0  0  0  0
 16 17  2  0  0  0  0
 17 20  1  0  0  0  0
 18 15  1  0  0  0  0
 21 22  1  0  0  0  0
 21 27  1  0  0  0  0
 22 28  1  0  0  0  0
 23 13  1  0  0  0  0
 23 22  2  0  0  0  0
 24 23  1  0  0  0  0
 25 24  2  0  0  0  0
 25 26  1  0  0  0  0
 26 21  2  0  0  0  0
 29 25  1  0  0  0  0
 30 31  2  0  0  0  0
 30  1  1  0  0  0  0
 32 30  2  0  0  0  0
 33 30  1  0  0  0  0
 33 34  1  0  0  0  0
 34 35  1  0  0  0  0
 36 37  1  0  0  0  0
 36 34  2  0  0  0  0
 38 36  1  0  0  0  0
 39 38  1  0  0  0  0
 40 38  1  0  0  0  0
 40 33  2  0  0  0  0
M  END
>  <minimizedAffinity>
-5.84987736

$$$$

 OpenBabel03252509103D

 40 43  0  0  0  0  0  0  0  0999 V2000
   37.8530   29.1540   41.3040 C   0  0  0  0  0  0  0  0  0  0  0  0
   36.7750   28.3270   41.2060 C   0  0  0  0  0  0  0  0  0  0  0  0
   36.3130   27.6540   42.3240 C   0  0  0  0  0  0  0  0  0  0  0  0
   36.9400   27.8190   43.5360 C   0  0  0  0  0  0  0  0  0  0  0  0
   38.0460   28.6580   43.6800 C   0  0  0  0  0  0  0  0  0  0  0  0
   38.4930   29.3250   42.5340 C   0  0  0  0  0  0  0  0  0  0  0  0
   35.4770   26.9980   42.2990 H   0  0  0  0  0  0  0  0  0  0  0  0
   36.6740   27.3530   44.4660 H   0  0  0  0  0  0  0  0  0  0  0  0
   38.5800   28.8350   44.5820 H   0  0  0  0  0  0  0  0  0  0  0  0
   39.3580   29.9910   42.6080 H   0  0  0  0  0  0  0  0  0  0  0  0
   35.7330   25.2780   37.1690 Cl  0  0  0  0  0  0  0  0  0  0  0  0
   35.5400   26.7240   38.1340 C   0  0  0  0  0  0  0  0  0  0  0  0
   36.2420   26.8990   39.2820 C   0  0  0  0  0  0  0  0  0  0  0  0
   36.0330   28.0860   39.9660 C   0  0  0  0  0  0  0  0  0  0  0  0
   35.1590   29.0420   39.5120 C   0  0  0  0  0  0  0  0  0  0  0  0
   34.4670   28.8480   38.3620 C   0  0  0  0  0  0  0  0  0  0  0  0
   34.6640   27.6720   37.6680 C   0  0  0  0  0  0  0  0  0  0  0  0
   35.0300   29.9590   40.0890 H   0  0  0  0  0  0  0  0  0  0  0  0
   33.7900   29.6270   38.0420 H   0  0  0  0  0  0  0  0  0  0  0  0
   34.1000   27.5400   36.7510 H   0  0  0  0  0  0  0  0  0  0  0  0
   39.3880   24.8940   39.8410 C   0  0  0  0  0  0  0  0  0  0  0  0
   38.5070   25.8960   39.4200 C   0  0  0  0  0  0  0  0  0  0  0  0
   37.1610   25.8690   39.7120 C   0  0  0  0  0  0  0  0  0  0  0  0
   36.7660   24.7920   40.4410 N   0  0  0  0  0  0  0  0  0  0  0  0
   37.5990   23.8300   40.8480 C   0  0  0  0  0  0  0  0  0  0  0  0
   38.9010   23.8840   40.5490 N   0  0  0  0  0  0  0  0  0  0  0  0
   40.4140   25.0490   39.5370 H   0  0  0  0  0  0  0  0  0  0  0  0
   38.8600   26.7410   38.8390 H   0  0  0  0  0  0  0  0  0  0  0  0
   37.1820   23.0150   41.4250 H   0  0  0  0  0  0  0  0  0  0  0  0
   38.4140   30.0220   39.9740 S   0  0  0  0  0  0  0  0  0  0  0  0
   37.5810   31.2550   39.7000 O   0  0  0  0  0  0  0  0  0  0  0  0
   39.7740   30.6330   40.4790 O   0  0  0  0  0  0  0  0  0  0  0  0
   38.7990   29.3350   38.4460 C   0  0  0  0  0  0  0  0  0  0  0  0
   40.1220   28.8930   38.1850 C   0  0  0  0  0  0  0  0  0  0  0  0
   41.0010   28.9120   38.8640 H   0  0  0  0  0  0  0  0  0  0  0  0
   40.3150   28.3810   36.9250 C   0  0  0  0  0  0  0  0  0  0  0  0
   41.1890   27.9830   36.4640 H   0  0  0  0  0  0  0  0  0  0  0  0
   39.0970   28.5080   36.4020 N   0  0  0  0  0  0  0  0  0  0  0  0
   38.7560   28.2400   35.4290 H   0  0  0  0  0  0  0  0  0  0  0  0
   38.2870   29.0270   37.2420 N   0  0  0  0  0  0  0  0  0  0  0  0
  1  6  1  0  0  0  0
  2  1  2  0  0  0  0
  2  3  1  0  0  0  0
  3  4  2  0  0  0  0
  4  5  1  0  0  0  0
  4  8  1  0  0  0  0
  5  9  1  0  0  0  0
  6 10  1  0  0  0  0
  6  5  2  0  0  0  0
  7  3  1  0  0  0  0
 11 12  1  0  0  0  0
 12 13  1  0  0  0  0
 13 23  1  0  0  0  0
 13 14  2  0  0  0  0
 14  2  1  0  0  0  0
 15 14  1  0  0  0  0
 15 18  1  0  0  0  0
 16 15  2  0  0  0  0
 17 12  2  0  0  0  0
 17 16  1  0  0  0  0
 19 16  1  0  0  0  0
 20 17  1  0  0  0  0
 21 26  1  0  0  0  0
 22 23  1  0  0  0  0
 22 21  2  0  0  0  0
 23 24  2  0  0  0  0
 24 25  1  0  0  0  0
 25 29  1  0  0  0  0
 26 25  2  0  0  0  0
 27 21  1  0  0  0  0
 28 22  1  0  0  0  0
 30 32  2  0  0  0  0
 30  1  1  0  0  0  0
 31 30  2  0  0  0  0
 33 30  1  0  0  0  0
 34 33  1  0  0  0  0
 34 35  1  0  0  0  0
 36 34  2  0  0  0  0
 37 36  1  0  0  0  0
 38 36  1  0  0  0  0
 38 40  1  0  0  0  0
 39 38  1  0  0  0  0
 40 33  2  0  0  0  0
M  END
>  <minimizedAffinity>
-5.80556822

$$$$

 OpenBabel03252509103D

 40 43  0  0  0  0  0  0  0  0999 V2000
   41.1130   28.6350   41.8430 C   0  0  0  0  0  0  0  0  0  0  0  0
   40.0620   29.2950   42.4060 C   0  0  0  0  0  0  0  0  0  0  0  0
   40.2410   30.5640   42.9300 C   0  0  0  0  0  0  0  0  0  0  0  0
   41.4780   31.1620   42.8830 C   0  0  0  0  0  0  0  0  0  0  0  0
   42.5790   30.5210   42.3140 C   0  0  0  0  0  0  0  0  0  0  0  0
   42.3710   29.2390   41.7930 C   0  0  0  0  0  0  0  0  0  0  0  0
   39.4530   31.1200   43.3800 H   0  0  0  0  0  0  0  0  0  0  0  0
   41.7360   32.1350   43.2540 H   0  0  0  0  0  0  0  0  0  0  0  0
   43.5620   30.9200   42.2420 H   0  0  0  0  0  0  0  0  0  0  0  0
   43.2120   28.7060   41.3400 H   0  0  0  0  0  0  0  0  0  0  0  0
   35.2600   28.9700   40.5320 Cl  0  0  0  0  0  0  0  0  0  0  0  0
   36.5280   28.5840   41.6730 C   0  0  0  0  0  0  0  0  0  0  0  0
   37.7750   29.1030   41.5360 C   0  0  0  0  0  0  0  0  0  0  0  0
   38.7050   28.7520   42.5020 C   0  0  0  0  0  0  0  0  0  0  0  0
   38.3890   27.9200   43.5470 C   0  0  0  0  0  0  0  0  0  0  0  0
   37.1380   27.4120   43.6650 C   0  0  0  0  0  0  0  0  0  0  0  0
   36.1990   27.7520   42.7130 C   0  0  0  0  0  0  0  0  0  0  0  0
   39.1590   27.6740   44.2800 H   0  0  0  0  0  0  0  0  0  0  0  0
   36.9330   26.7610   44.5040 H   0  0  0  0  0  0  0  0  0  0  0  0
   35.2050   27.3340   42.8290 H   0  0  0  0  0  0  0  0  0  0  0  0
   38.1690   32.1990   39.4180 C   0  0  0  0  0  0  0  0  0  0  0  0
   37.8940   31.3530   40.4980 C   0  0  0  0  0  0  0  0  0  0  0  0
   38.0550   29.9860   40.4270 C   0  0  0  0  0  0  0  0  0  0  0  0
   38.5010   29.5350   39.2250 N   0  0  0  0  0  0  0  0  0  0  0  0
   38.7660   30.3340   38.1880 C   0  0  0  0  0  0  0  0  0  0  0  0
   38.6000   31.6570   38.2870 N   0  0  0  0  0  0  0  0  0  0  0  0
   37.9960   33.2470   39.6200 H   0  0  0  0  0  0  0  0  0  0  0  0
   37.5390   31.7510   41.4420 H   0  0  0  0  0  0  0  0  0  0  0  0
   39.1180   29.8720   37.2740 H   0  0  0  0  0  0  0  0  0  0  0  0
   40.9210   27.1090   41.1570 S   0  0  0  0  0  0  0  0  0  0  0  0
   40.2620   27.1700   39.7960 O   0  0  0  0  0  0  0  0  0  0  0  0
   42.3920   26.6750   40.8050 O   0  0  0  0  0  0  0  0  0  0  0  0
   40.2580   25.7450   41.9670 C   0  0  0  0  0  0  0  0  0  0  0  0
   39.1110   25.1000   41.4370 C   0  0  0  0  0  0  0  0  0  0  0  0
   38.5460   25.3480   40.5130 H   0  0  0  0  0  0  0  0  0  0  0  0
   38.6600   24.0360   42.1800 C   0  0  0  0  0  0  0  0  0  0  0  0
   37.8350   23.3810   42.0240 H   0  0  0  0  0  0  0  0  0  0  0  0
   39.5390   24.0240   43.1790 N   0  0  0  0  0  0  0  0  0  0  0  0
   39.5930   23.3640   44.0140 H   0  0  0  0  0  0  0  0  0  0  0  0
   40.4000   24.9580   43.0470 N   0  0  0  0  0  0  0  0  0  0  0  0
  1  2  1  0  0  0  0
  2 14  1  0  0  0  0
  2  3  2  0  0  0  0
  3  7  1  0  0  0  0
  4  3  1  0  0  0  0
  4  8  1  0  0  0  0
  5  4  2  0  0  0  0
  6  1  2  0  0  0  0
  6  5  1  0  0  0  0
  9  5  1  0  0  0  0
 10  6  1  0  0  0  0
 11 12  1  0  0  0  0
 12 17  1  0  0  0  0
 13 12  2  0  0  0  0
 13 14  1  0  0  0  0
 14 15  2  0  0  0  0
 15 16  1  0  0  0  0
 15 18  1  0  0  0  0
 16 19  1  0  0  0  0
 17 20  1  0  0  0  0
 17 16  2  0  0  0  0
 21 27  1  0  0  0  0
 21 22  1  0  0  0  0
 22 28  1  0  0  0  0
 23 22  2  0  0  0  0
 23 13  1  0  0  0  0
 24 23  1  0  0  0  0
 25 26  1  0  0  0  0
 25 24  2  0  0  0  0
 26 21  2  0  0  0  0
 29 25  1  0  0  0  0
 30  1  1  0  0  0  0
 30 33  1  0  0  0  0
 31 30  2  0  0  0  0
 32 30  2  0  0  0  0
 33 40  2  0  0  0  0
 34 33  1  0  0  0  0
 34 36  2  0  0  0  0
 35 34  1  0  0  0  0
 36 38  1  0  0  0  0
 37 36  1  0  0  0  0
 38 39  1  0  0  0  0
 40 38  1  0  0  0  0
M  END
>  <minimizedAffinity>
-5.79941702

$$$$

 OpenBabel03252509103D

 40 43  0  0  0  0  0  0  0  0999 V2000
   36.1250   27.3180   39.1440 C   0  0  0  0  0  0  0  0  0  0  0  0
   35.8440   28.2660   40.0810 C   0  0  0  0  0  0  0  0  0  0  0  0
   34.7840   29.1350   39.8930 C   0  0  0  0  0  0  0  0  0  0  0  0
   34.0100   29.0450   38.7600 C   0  0  0  0  0  0  0  0  0  0  0  0
   34.2620   28.0880   37.7770 C   0  0  0  0  0  0  0  0  0  0  0  0
   35.3400   27.2220   37.9920 C   0  0  0  0  0  0  0  0  0  0  0  0
   34.5260   29.8920   40.5950 H   0  0  0  0  0  0  0  0  0  0  0  0
   33.1680   29.6600   38.5070 H   0  0  0  0  0  0  0  0  0  0  0  0
   33.7080   27.9580   36.8790 H   0  0  0  0  0  0  0  0  0  0  0  0
   35.5680   26.4590   37.2420 H   0  0  0  0  0  0  0  0  0  0  0  0
   39.4990   30.7640   42.7430 Cl  0  0  0  0  0  0  0  0  0  0  0  0
   38.2450   29.5600   42.5510 C   0  0  0  0  0  0  0  0  0  0  0  0
   37.5630   29.4400   41.3830 C   0  0  0  0  0  0  0  0  0  0  0  0
   36.6010   28.4440   41.3230 C   0  0  0  0  0  0  0  0  0  0  0  0
   36.3440   27.6170   42.3880 C   0  0  0  0  0  0  0  0  0  0  0  0
   37.0360   27.7540   43.5460 C   0  0  0  0  0  0  0  0  0  0  0  0
   37.9980   28.7400   43.6220 C   0  0  0  0  0  0  0  0  0  0  0  0
   35.5740   26.8490   42.2900 H   0  0  0  0  0  0  0  0  0  0  0  0
   36.8000   27.0810   44.3590 H   0  0  0  0  0  0  0  0  0  0  0  0
   38.5390   28.8290   44.5580 H   0  0  0  0  0  0  0  0  0  0  0  0
   39.1000   30.8730   38.2510 C   0  0  0  0  0  0  0  0  0  0  0  0
   38.8010   30.0090   39.3100 C   0  0  0  0  0  0  0  0  0  0  0  0
   37.8800   30.3240   40.2850 C   0  0  0  0  0  0  0  0  0  0  0  0
   37.2910   31.5400   40.1290 N   0  0  0  0  0  0  0  0  0  0  0  0
   37.5690   32.3710   39.1220 C   0  0  0  0  0  0  0  0  0  0  0  0
   38.4680   32.0370   38.1900 N   0  0  0  0  0  0  0  0  0  0  0  0
   39.8430   30.4920   37.5630 H   0  0  0  0  0  0  0  0  0  0  0  0
   39.2920   29.0460   39.4010 H   0  0  0  0  0  0  0  0  0  0  0  0
   37.0430   33.3170   39.0900 H   0  0  0  0  0  0  0  0  0  0  0  0
   37.3790   26.2150   39.3610 S   0  0  0  0  0  0  0  0  0  0  0  0
   38.5500   26.8170   40.1060 O   0  0  0  0  0  0  0  0  0  0  0  0
   36.7960   25.1940   40.4060 O   0  0  0  0  0  0  0  0  0  0  0  0
   38.0380   25.2240   38.1210 C   0  0  0  0  0  0  0  0  0  0  0  0
   37.3680   24.0320   37.7410 C   0  0  0  0  0  0  0  0  0  0  0  0
   36.4160   23.6200   38.1380 H   0  0  0  0  0  0  0  0  0  0  0  0
   37.9990   23.3120   36.7550 C   0  0  0  0  0  0  0  0  0  0  0  0
   37.7290   22.3950   36.2840 H   0  0  0  0  0  0  0  0  0  0  0  0
   39.0690   24.0680   36.5230 N   0  0  0  0  0  0  0  0  0  0  0  0
   39.8610   23.9110   35.8280 H   0  0  0  0  0  0  0  0  0  0  0  0
   39.0740   25.1030   37.2730 N   0  0  0  0  0  0  0  0  0  0  0  0
  1 30  1  0  0  0  0
  1  2  1  0  0  0  0
  2 14  1  0  0  0  0
  3  2  2  0  0  0  0
  3  7  1  0  0  0  0
  4  3  1  0  0  0  0
  5  6  1  0  0  0  0
  5  4  2  0  0  0  0
  6  1  2  0  0  0  0
  8  4  1  0  0  0  0
  9  5  1  0  0  0  0
 10  6  1  0  0  0  0
 12 11  1  0  0  0  0
 12 17  1  0  0  0  0
 13 12  2  0  0  0  0
 14 13  1  0  0  0  0
 14 15  2  0  0  0  0
 15 16  1  0  0  0  0
 16 17  2  0  0  0  0
 16 19  1  0  0  0  0
 17 20  1  0  0  0  0
 18 15  1  0  0  0  0
 21 22  1  0  0  0  0
 22 28  1  0  0  0  0
 22 23  2  0  0  0  0
 23 13  1  0  0  0  0
 24 23  1  0  0  0  0
 25 24  2  0  0  0  0
 26 21  2  0  0  0  0
 26 25  1  0  0  0  0
 27 21  1  0  0  0  0
 29 25  1  0  0  0  0
 30 31  2  0  0  0  0
 30 32  2  0  0  0  0
 33 30  1  0  0  0  0
 34 33  1  0  0  0  0
 34 35  1  0  0  0  0
 36 34  2  0  0  0  0
 37 36  1  0  0  0  0
 38 36  1  0  0  0  0
 38 40  1  0  0  0  0
 39 38  1  0  0  0  0
 40 33  2  0  0  0  0
M  END
>  <minimizedAffinity>
-5.78928041

$$$$

 OpenBabel03252509103D

 40 43  0  0  0  0  0  0  0  0999 V2000
   36.5930   29.8810   38.9490 C   0  0  0  0  0  0  0  0  0  0  0  0
   37.3010   30.8550   38.3120 C   0  0  0  0  0  0  0  0  0  0  0  0
   37.3330   30.8970   36.9280 C   0  0  0  0  0  0  0  0  0  0  0  0
   36.6510   29.9560   36.1940 C   0  0  0  0  0  0  0  0  0  0  0  0
   35.9130   28.9430   36.8070 C   0  0  0  0  0  0  0  0  0  0  0  0
   35.8980   28.9240   38.2070 C   0  0  0  0  0  0  0  0  0  0  0  0
   37.8720   31.6360   36.3850 H   0  0  0  0  0  0  0  0  0  0  0  0
   36.6030   29.8870   35.1240 H   0  0  0  0  0  0  0  0  0  0  0  0
   35.3610   28.1850   36.3060 H   0  0  0  0  0  0  0  0  0  0  0  0
   35.3300   28.1440   38.7220 H   0  0  0  0  0  0  0  0  0  0  0  0
   41.7680   32.5740   40.2550 Cl  0  0  0  0  0  0  0  0  0  0  0  0
   40.0640   32.7090   39.8800 C   0  0  0  0  0  0  0  0  0  0  0  0
   39.4090   31.7130   39.2330 C   0  0  0  0  0  0  0  0  0  0  0  0
   38.0570   31.9060   38.9970 C   0  0  0  0  0  0  0  0  0  0  0  0
   37.4070   33.0480   39.3950 C   0  0  0  0  0  0  0  0  0  0  0  0
   38.0800   34.0320   40.0410 C   0  0  0  0  0  0  0  0  0  0  0  0
   39.4260   33.8540   40.2840 C   0  0  0  0  0  0  0  0  0  0  0  0
   36.3400   33.1520   39.1850 H   0  0  0  0  0  0  0  0  0  0  0  0
   37.5280   34.9130   40.3360 H   0  0  0  0  0  0  0  0  0  0  0  0
   39.9430   34.6550   40.8020 H   0  0  0  0  0  0  0  0  0  0  0  0
   41.4170   29.2140   37.2450 C   0  0  0  0  0  0  0  0  0  0  0  0
   40.7170   30.3690   37.6080 C   0  0  0  0  0  0  0  0  0  0  0  0
   40.1340   30.5230   38.8470 C   0  0  0  0  0  0  0  0  0  0  0  0
   40.3000   29.4630   39.6820 N   0  0  0  0  0  0  0  0  0  0  0  0
   40.9670   28.3560   39.3450 C   0  0  0  0  0  0  0  0  0  0  0  0
   41.5210   28.2360   38.1340 N   0  0  0  0  0  0  0  0  0  0  0  0
   41.8180   29.2350   36.2410 H   0  0  0  0  0  0  0  0  0  0  0  0
   40.6050   31.1950   36.9150 H   0  0  0  0  0  0  0  0  0  0  0  0
   41.0410   27.5690   40.0840 H   0  0  0  0  0  0  0  0  0  0  0  0
   36.4960   29.8280   40.6290 S   0  0  0  0  0  0  0  0  0  0  0  0
   35.9100   31.0950   41.2120 O   0  0  0  0  0  0  0  0  0  0  0  0
   35.3620   28.7710   40.9000 O   0  0  0  0  0  0  0  0  0  0  0  0
   37.7770   29.3510   41.6710 C   0  0  0  0  0  0  0  0  0  0  0  0
   38.0250   27.9720   41.8990 C   0  0  0  0  0  0  0  0  0  0  0  0
   37.4920   27.0970   41.4710 H   0  0  0  0  0  0  0  0  0  0  0  0
   39.0600   27.7140   42.7640 C   0  0  0  0  0  0  0  0  0  0  0  0
   39.4600   26.7890   43.1110 H   0  0  0  0  0  0  0  0  0  0  0  0
   39.4570   28.9460   43.0740 N   0  0  0  0  0  0  0  0  0  0  0  0
   40.2440   29.2520   43.7220 H   0  0  0  0  0  0  0  0  0  0  0  0
   38.7500   29.8220   42.4700 N   0  0  0  0  0  0  0  0  0  0  0  0
  1 30  1  0  0  0  0
  2  1  1  0  0  0  0
  2 14  1  0  0  0  0
  3  2  2  0  0  0  0
  4  5  2  0  0  0  0
  4  3  1  0  0  0  0
  5  6  1  0  0  0  0
  6 10  1  0  0  0  0
  6  1  2  0  0  0  0
  7  3  1  0  0  0  0
  8  4  1  0  0  0  0
  9  5  1  0  0  0  0
 12 11  1  0  0  0  0
 12 17  1  0  0  0  0
 13 12  2  0  0  0  0
 14 13  1  0  0  0  0
 14 15  2  0  0  0  0
 15 16  1  0  0  0  0
 16 17  2  0  0  0  0
 16 19  1  0  0  0  0
 17 20  1  0  0  0  0
 18 15  1  0  0  0  0
 21 22  2  0  0  0  0
 21 26  1  0  0  0  0
 22 23  1  0  0  0  0
 23 13  1  0  0  0  0
 23 24  2  0  0  0  0
 25 24  1  0  0  0  0
 25 29  1  0  0  0  0
 26 25  2  0  0  0  0
 27 21  1  0  0  0  0
 28 22  1  0  0  0  0
 30 32  2  0  0  0  0
 30 31  2  0  0  0  0
 30 33  1  0  0  0  0
 33 34  1  0  0  0  0
 33 40  2  0  0  0  0
 34 36  2  0  0  0  0
 35 34  1  0  0  0  0
 36 38  1  0  0  0  0
 36 37  1  0  0  0  0
 38 39  1  0  0  0  0
 40 38  1  0  0  0  0
M  END
>  <minimizedAffinity>
-5.77954149

$$$$
