
 OpenBabel03252504223D

 31 34  0  0  0  0  0  0  0  0999 V2000
   47.4120   33.4210   39.9600 C   0  0  0  0  0  0  0  0  0  0  0  0
   48.7710   33.1680   40.1100 C   0  0  0  0  0  0  0  0  0  0  0  0
   49.3220   33.2290   41.4130 C   0  0  0  0  0  0  0  0  0  0  0  0
   48.4640   33.5360   42.4300 N   0  0  0  0  0  0  0  0  0  0  0  0
   47.1450   33.7760   42.2310 C   0  0  0  0  0  0  0  0  0  0  0  0
   46.6330   33.7160   41.0020 N   0  0  0  0  0  0  0  0  0  0  0  0
   46.3510   34.0880   43.3700 N   0  0  0  0  0  0  0  0  0  0  0  0
   45.4290   35.0820   43.4400 C   0  0  0  0  0  0  0  0  0  0  0  0
   44.8870   35.0610   44.6930 N   0  0  0  0  0  0  0  0  0  0  0  0
   45.4840   34.0650   45.3550 C   0  0  0  0  0  0  0  0  0  0  0  0
   45.3670   33.5630   46.6260 C   0  0  0  0  0  0  0  0  0  0  0  0
   46.0920   32.5370   47.0590 N   0  0  0  0  0  0  0  0  0  0  0  0
   47.0000   31.9140   46.2750 C   0  0  0  0  0  0  0  0  0  0  0  0
   47.1040   32.4210   45.0240 N   0  0  0  0  0  0  0  0  0  0  0  0
   46.4100   33.4390   44.5390 C   0  0  0  0  0  0  0  0  0  0  0  0
   49.4790   32.9220   39.3280 H   0  0  0  0  0  0  0  0  0  0  0  0
   50.3600   33.0420   41.5800 H   0  0  0  0  0  0  0  0  0  0  0  0
   45.1300   35.7980   42.6750 H   0  0  0  0  0  0  0  0  0  0  0  0
   47.5930   31.0790   46.6210 H   0  0  0  0  0  0  0  0  0  0  0  0
   44.4680   34.0990   47.5720 N   0  0  0  0  0  0  0  0  0  0  0  0
   43.6700   33.6140   48.0610 H   0  0  0  0  0  0  0  0  0  0  0  0
   44.6770   35.1170   47.7690 H   0  0  0  0  0  0  0  0  0  0  0  0
   46.8010   33.3280   38.2570 S   0  0  0  0  0  0  0  0  0  0  0  0
   47.8660   32.2210   37.3450 C   0  0  0  0  0  0  0  0  0  0  0  0
   48.6990   32.7150   36.3350 C   0  0  0  0  0  0  0  0  0  0  0  0
   48.8700   33.7210   35.9310 H   0  0  0  0  0  0  0  0  0  0  0  0
   49.4140   31.6400   35.7940 C   0  0  0  0  0  0  0  0  0  0  0  0
   50.1510   31.5500   35.0160 H   0  0  0  0  0  0  0  0  0  0  0  0
   48.9870   30.5460   36.4930 N   0  0  0  0  0  0  0  0  0  0  0  0
   49.2900   29.5350   36.3850 H   0  0  0  0  0  0  0  0  0  0  0  0
   48.0760   30.8750   37.4080 N   0  0  0  0  0  0  0  0  0  0  0  0
  1  2  2  0  0  0  0
  1  6  1  0  0  0  0
  2  3  1  0  0  0  0
  3 17  1  0  0  0  0
  3  4  2  0  0  0  0
  5  4  1  0  0  0  0
  5  7  1  0  0  0  0
  6  5  2  0  0  0  0
  7  8  1  0  0  0  0
  7 15  1  0  0  0  0
  8  9  2  0  0  0  0
  9 10  1  0  0  0  0
 10 11  1  0  0  0  0
 11 12  2  0  0  0  0
 11 20  1  0  0  0  0
 13 19  1  0  0  0  0
 13 12  1  0  0  0  0
 14 13  2  0  0  0  0
 15 14  1  0  0  0  0
 15 10  2  0  0  0  0
 16  2  1  0  0  0  0
 18  8  1  0  0  0  0
 20 22  1  0  0  0  0
 20 21  1  0  0  0  0
 23  1  1  0  0  0  0
 24 31  2  0  0  0  0
 24 23  1  0  0  0  0
 25 24  1  0  0  0  0
 26 25  1  0  0  0  0
 27 25  2  0  0  0  0
 27 29  1  0  0  0  0
 28 27  1  0  0  0  0
 29 31  1  0  0  0  0
 30 29  1  0  0  0  0
M  END
>  <minimizedAffinity>
-5.33646059

>  <minimizedRMSD>
0.846014917

$$$$
