
 OpenBabel03242510103D

 27 29  0  0  0  0  0  0  0  0999 V2000
   37.7170   28.0920   39.0570 Br  0  0  0  0  0  0  0  0  0  0  0  0
   37.5650   27.9680   40.9500 C   0  0  0  0  0  0  0  0  0  0  0  0
   37.5170   26.7230   41.5570 C   0  0  0  0  0  0  0  0  0  0  0  0
   37.4020   26.6040   42.9410 C   0  0  0  0  0  0  0  0  0  0  0  0
   37.3370   27.7470   43.6790 C   0  0  0  0  0  0  0  0  0  0  0  0
   37.3870   28.9590   43.0440 C   0  0  0  0  0  0  0  0  0  0  0  0
   37.4990   29.1150   41.6850 C   0  0  0  0  0  0  0  0  0  0  0  0
   37.3740   25.5900   43.3170 H   0  0  0  0  0  0  0  0  0  0  0  0
   37.2490   27.6020   44.7360 H   0  0  0  0  0  0  0  0  0  0  0  0
   37.3230   29.7810   43.7770 H   0  0  0  0  0  0  0  0  0  0  0  0
   38.8750   23.8900   39.6880 C   0  0  0  0  0  0  0  0  0  0  0  0
   37.7480   23.2810   39.1190 C   0  0  0  0  0  0  0  0  0  0  0  0
   36.5130   23.8680   39.3950 C   0  0  0  0  0  0  0  0  0  0  0  0
   36.4720   24.9730   40.1810 N   0  0  0  0  0  0  0  0  0  0  0  0
   37.5930   25.5390   40.7190 C   0  0  0  0  0  0  0  0  0  0  0  0
   38.8030   24.9810   40.4600 N   0  0  0  0  0  0  0  0  0  0  0  0
   39.8320   23.4220   39.4640 H   0  0  0  0  0  0  0  0  0  0  0  0
   37.7700   22.4090   38.4970 H   0  0  0  0  0  0  0  0  0  0  0  0
   35.5690   23.5150   39.0310 H   0  0  0  0  0  0  0  0  0  0  0  0
   37.5370   30.4810   41.1910 C   0  0  0  0  0  0  0  0  0  0  0  0
   38.5250   31.3880   40.9030 C   0  0  0  0  0  0  0  0  0  0  0  0
   39.5600   31.2030   41.0110 H   0  0  0  0  0  0  0  0  0  0  0  0
   38.0370   32.5860   40.4500 C   0  0  0  0  0  0  0  0  0  0  0  0
   38.5960   33.4610   40.1550 H   0  0  0  0  0  0  0  0  0  0  0  0
   36.7100   32.3830   40.4690 N   0  0  0  0  0  0  0  0  0  0  0  0
   35.9650   33.0740   40.1890 H   0  0  0  0  0  0  0  0  0  0  0  0
   36.4250   31.1740   40.8960 N   0  0  0  0  0  0  0  0  0  0  0  0
  1  2  1  0  0  0  0
  2  3  2  0  0  0  0
  2  7  1  0  0  0  0
  3  4  1  0  0  0  0
  4  8  1  0  0  0  0
  4  5  2  0  0  0  0
  5  9  1  0  0  0  0
  6  5  1  0  0  0  0
  6 10  1  0  0  0  0
  7  6  2  0  0  0  0
 11 16  1  0  0  0  0
 12 13  1  0  0  0  0
 12 11  2  0  0  0  0
 13 14  2  0  0  0  0
 14 15  1  0  0  0  0
 15  3  1  0  0  0  0
 16 15  2  0  0  0  0
 17 11  1  0  0  0  0
 18 12  1  0  0  0  0
 19 13  1  0  0  0  0
 20  7  1  0  0  0  0
 21 22  1  0  0  0  0
 21 20  1  0  0  0  0
 23 25  1  0  0  0  0
 23 21  2  0  0  0  0
 24 23  1  0  0  0  0
 25 27  1  0  0  0  0
 26 25  1  0  0  0  0
 27 20  2  0  0  0  0
M  END
>  <minimizedAffinity>
-5.09100056

$$$$

 OpenBabel03242510103D

 27 29  0  0  0  0  0  0  0  0999 V2000
   39.6430   28.3060   39.1460 Br  0  0  0  0  0  0  0  0  0  0  0  0
   38.2680   29.4070   39.8680 C   0  0  0  0  0  0  0  0  0  0  0  0
   37.3080   28.8530   40.7000 C   0  0  0  0  0  0  0  0  0  0  0  0
   36.2890   29.6340   41.2400 C   0  0  0  0  0  0  0  0  0  0  0  0
   36.2620   30.9600   40.9240 C   0  0  0  0  0  0  0  0  0  0  0  0
   37.2280   31.4720   40.0990 C   0  0  0  0  0  0  0  0  0  0  0  0
   38.2460   30.7330   39.5490 C   0  0  0  0  0  0  0  0  0  0  0  0
   35.5900   29.1090   41.8770 H   0  0  0  0  0  0  0  0  0  0  0  0
   35.4610   31.5170   41.3630 H   0  0  0  0  0  0  0  0  0  0  0  0
   37.0680   32.5520   39.9420 H   0  0  0  0  0  0  0  0  0  0  0  0
   38.1460   25.7180   42.3830 C   0  0  0  0  0  0  0  0  0  0  0  0
   37.5480   24.7300   41.5890 C   0  0  0  0  0  0  0  0  0  0  0  0
   36.8510   25.1690   40.4630 C   0  0  0  0  0  0  0  0  0  0  0  0
   36.7920   26.5000   40.2050 N   0  0  0  0  0  0  0  0  0  0  0  0
   37.3880   27.4340   41.0040 C   0  0  0  0  0  0  0  0  0  0  0  0
   38.0710   27.0250   42.1030 N   0  0  0  0  0  0  0  0  0  0  0  0
   38.6870   25.3610   43.2580 H   0  0  0  0  0  0  0  0  0  0  0  0
   37.5890   23.6770   41.7840 H   0  0  0  0  0  0  0  0  0  0  0  0
   36.3440   24.5320   39.7660 H   0  0  0  0  0  0  0  0  0  0  0  0
   39.1780   31.4490   38.6950 C   0  0  0  0  0  0  0  0  0  0  0  0
   40.4170   32.0150   38.8620 C   0  0  0  0  0  0  0  0  0  0  0  0
   40.9610   32.0140   39.7680 H   0  0  0  0  0  0  0  0  0  0  0  0
   40.8980   32.5950   37.7170 C   0  0  0  0  0  0  0  0  0  0  0  0
   41.8400   33.1040   37.5770 H   0  0  0  0  0  0  0  0  0  0  0  0
   39.9090   32.3660   36.8390 N   0  0  0  0  0  0  0  0  0  0  0  0
   39.8880   32.6580   35.8270 H   0  0  0  0  0  0  0  0  0  0  0  0
   38.9210   31.7090   37.4030 N   0  0  0  0  0  0  0  0  0  0  0  0
  1  2  1  0  0  0  0
  2  3  1  0  0  0  0
  3 15  1  0  0  0  0
  3  4  2  0  0  0  0
  4  8  1  0  0  0  0
  5  4  1  0  0  0  0
  5  9  1  0  0  0  0
  6  5  2  0  0  0  0
  7  2  2  0  0  0  0
  7  6  1  0  0  0  0
 10  6  1  0  0  0  0
 11 17  1  0  0  0  0
 12 18  1  0  0  0  0
 12 11  2  0  0  0  0
 13 12  1  0  0  0  0
 14 13  2  0  0  0  0
 14 15  1  0  0  0  0
 15 16  2  0  0  0  0
 16 11  1  0  0  0  0
 19 13  1  0  0  0  0
 20 21  1  0  0  0  0
 20  7  1  0  0  0  0
 21 22  1  0  0  0  0
 23 21  2  0  0  0  0
 24 23  1  0  0  0  0
 25 27  1  0  0  0  0
 25 23  1  0  0  0  0
 26 25  1  0  0  0  0
 27 20  2  0  0  0  0
M  END
>  <minimizedAffinity>
-4.97191858

$$$$

 OpenBabel03242510103D

 27 29  0  0  0  0  0  0  0  0999 V2000
   38.0800   27.4410   39.1550 Br  0  0  0  0  0  0  0  0  0  0  0  0
   37.7670   27.7400   41.0090 C   0  0  0  0  0  0  0  0  0  0  0  0
   37.7090   29.0350   41.4970 C   0  0  0  0  0  0  0  0  0  0  0  0
   37.4850   29.2830   42.8500 C   0  0  0  0  0  0  0  0  0  0  0  0
   37.3250   28.2130   43.6790 C   0  0  0  0  0  0  0  0  0  0  0  0
   37.3890   26.9470   43.1600 C   0  0  0  0  0  0  0  0  0  0  0  0
   37.6090   26.6660   41.8340 C   0  0  0  0  0  0  0  0  0  0  0  0
   37.4560   30.3270   43.1320 H   0  0  0  0  0  0  0  0  0  0  0  0
   37.1560   28.4550   44.7070 H   0  0  0  0  0  0  0  0  0  0  0  0
   37.2420   26.1970   43.9550 H   0  0  0  0  0  0  0  0  0  0  0  0
   36.9570   31.6800   39.0870 C   0  0  0  0  0  0  0  0  0  0  0  0
   38.2080   32.2360   38.7860 C   0  0  0  0  0  0  0  0  0  0  0  0
   39.3120   31.6810   39.4320 C   0  0  0  0  0  0  0  0  0  0  0  0
   39.1190   30.6540   40.2970 N   0  0  0  0  0  0  0  0  0  0  0  0
   37.8840   30.1370   40.5660 C   0  0  0  0  0  0  0  0  0  0  0  0
   36.7980   30.6650   39.9460 N   0  0  0  0  0  0  0  0  0  0  0  0
   36.1040   32.1230   38.5760 H   0  0  0  0  0  0  0  0  0  0  0  0
   38.3710   33.0470   38.1040 H   0  0  0  0  0  0  0  0  0  0  0  0
   40.3260   32.0020   39.3020 H   0  0  0  0  0  0  0  0  0  0  0  0
   37.6450   25.2600   41.4690 C   0  0  0  0  0  0  0  0  0  0  0  0
   36.8410   24.4210   40.7390 C   0  0  0  0  0  0  0  0  0  0  0  0
   35.9440   24.7120   40.2630 H   0  0  0  0  0  0  0  0  0  0  0  0
   37.3200   23.1380   40.6820 C   0  0  0  0  0  0  0  0  0  0  0  0
   36.8830   22.2890   40.1770 H   0  0  0  0  0  0  0  0  0  0  0  0
   38.4490   23.2180   41.4030 N   0  0  0  0  0  0  0  0  0  0  0  0
   39.1220   22.4330   41.6050 H   0  0  0  0  0  0  0  0  0  0  0  0
   38.6330   24.4380   41.8550 N   0  0  0  0  0  0  0  0  0  0  0  0
  1  2  1  0  0  0  0
  2  3  2  0  0  0  0
  2  7  1  0  0  0  0
  3  4  1  0  0  0  0
  4  8  1  0  0  0  0
  4  5  2  0  0  0  0
  5  9  1  0  0  0  0
  6  5  1  0  0  0  0
  6 10  1  0  0  0  0
  7  6  2  0  0  0  0
 11 16  1  0  0  0  0
 12 11  2  0  0  0  0
 12 13  1  0  0  0  0
 13 14  2  0  0  0  0
 14 15  1  0  0  0  0
 15  3  1  0  0  0  0
 16 15  2  0  0  0  0
 17 11  1  0  0  0  0
 18 12  1  0  0  0  0
 19 13  1  0  0  0  0
 20  7  1  0  0  0  0
 20 27  2  0  0  0  0
 21 20  1  0  0  0  0
 22 21  1  0  0  0  0
 23 21  2  0  0  0  0
 23 25  1  0  0  0  0
 24 23  1  0  0  0  0
 25 26  1  0  0  0  0
 25 27  1  0  0  0  0
M  END
>  <minimizedAffinity>
-4.93574619

$$$$

 OpenBabel03242510103D

 27 29  0  0  0  0  0  0  0  0999 V2000
   37.9730   27.3590   39.1050 Br  0  0  0  0  0  0  0  0  0  0  0  0
   37.6390   27.5870   40.9660 C   0  0  0  0  0  0  0  0  0  0  0  0
   37.6100   28.8610   41.5090 C   0  0  0  0  0  0  0  0  0  0  0  0
   37.3710   29.0570   42.8670 C   0  0  0  0  0  0  0  0  0  0  0  0
   37.1680   27.9580   43.6470 C   0  0  0  0  0  0  0  0  0  0  0  0
   37.2050   26.7140   43.0750 C   0  0  0  0  0  0  0  0  0  0  0  0
   37.4380   26.4830   41.7420 C   0  0  0  0  0  0  0  0  0  0  0  0
   37.3670   30.0880   43.1940 H   0  0  0  0  0  0  0  0  0  0  0  0
   36.9890   28.1600   44.6820 H   0  0  0  0  0  0  0  0  0  0  0  0
   37.0230   25.9340   43.8340 H   0  0  0  0  0  0  0  0  0  0  0  0
   39.2970   31.5030   39.6280 C   0  0  0  0  0  0  0  0  0  0  0  0
   38.2600   32.1620   38.9550 C   0  0  0  0  0  0  0  0  0  0  0  0
   36.9690   31.6760   39.1630 C   0  0  0  0  0  0  0  0  0  0  0  0
   36.7940   30.6140   39.9890 N   0  0  0  0  0  0  0  0  0  0  0  0
   37.8300   29.9960   40.6290 C   0  0  0  0  0  0  0  0  0  0  0  0
   39.0930   30.4570   40.4380 N   0  0  0  0  0  0  0  0  0  0  0  0
   40.2990   31.8930   39.4570 H   0  0  0  0  0  0  0  0  0  0  0  0
   38.3880   33.0020   38.3010 H   0  0  0  0  0  0  0  0  0  0  0  0
   36.0810   32.0770   38.7170 H   0  0  0  0  0  0  0  0  0  0  0  0
   37.4400   25.0940   41.3160 C   0  0  0  0  0  0  0  0  0  0  0  0
   36.6250   24.3110   40.5380 C   0  0  0  0  0  0  0  0  0  0  0  0
   35.7450   24.6480   40.0610 H   0  0  0  0  0  0  0  0  0  0  0  0
   37.0680   23.0180   40.4330 C   0  0  0  0  0  0  0  0  0  0  0  0
   36.6160   22.2040   39.8850 H   0  0  0  0  0  0  0  0  0  0  0  0
   38.1870   23.0340   41.1750 N   0  0  0  0  0  0  0  0  0  0  0  0
   38.8340   22.2220   41.3520 H   0  0  0  0  0  0  0  0  0  0  0  0
   38.3980   24.2280   41.6820 N   0  0  0  0  0  0  0  0  0  0  0  0
  1  2  1  0  0  0  0
  2  3  2  0  0  0  0
  2  7  1  0  0  0  0
  3  4  1  0  0  0  0
  4  8  1  0  0  0  0
  4  5  2  0  0  0  0
  5  9  1  0  0  0  0
  6  5  1  0  0  0  0
  6 10  1  0  0  0  0
  7  6  2  0  0  0  0
 11 16  1  0  0  0  0
 12 13  1  0  0  0  0
 12 11  2  0  0  0  0
 13 14  2  0  0  0  0
 14 15  1  0  0  0  0
 15  3  1  0  0  0  0
 16 15  2  0  0  0  0
 17 11  1  0  0  0  0
 18 12  1  0  0  0  0
 19 13  1  0  0  0  0
 20 27  2  0  0  0  0
 20  7  1  0  0  0  0
 21 20  1  0  0  0  0
 22 21  1  0  0  0  0
 23 21  2  0  0  0  0
 23 25  1  0  0  0  0
 24 23  1  0  0  0  0
 25 26  1  0  0  0  0
 25 27  1  0  0  0  0
M  END
>  <minimizedAffinity>
-4.92162418

$$$$

 OpenBabel03242510103D

 27 29  0  0  0  0  0  0  0  0999 V2000
   40.6500   28.9720   40.0840 Br  0  0  0  0  0  0  0  0  0  0  0  0
   38.9870   29.8270   40.4440 C   0  0  0  0  0  0  0  0  0  0  0  0
   38.0860   29.2390   41.3180 C   0  0  0  0  0  0  0  0  0  0  0  0
   36.8610   29.8410   41.5970 C   0  0  0  0  0  0  0  0  0  0  0  0
   36.5740   31.0250   40.9850 C   0  0  0  0  0  0  0  0  0  0  0  0
   37.4900   31.5750   40.1270 C   0  0  0  0  0  0  0  0  0  0  0  0
   38.7050   31.0100   39.8280 C   0  0  0  0  0  0  0  0  0  0  0  0
   36.2290   29.3050   42.2920 H   0  0  0  0  0  0  0  0  0  0  0  0
   35.6220   31.4460   41.2320 H   0  0  0  0  0  0  0  0  0  0  0  0
   37.1100   32.5260   39.7170 H   0  0  0  0  0  0  0  0  0  0  0  0
   39.4870   26.8260   43.6800 C   0  0  0  0  0  0  0  0  0  0  0  0
   39.1420   25.5790   43.1420 C   0  0  0  0  0  0  0  0  0  0  0  0
   38.4170   25.5890   41.9500 C   0  0  0  0  0  0  0  0  0  0  0  0
   38.0940   26.7810   41.3900 N   0  0  0  0  0  0  0  0  0  0  0  0
   38.4470   27.9790   41.9440 C   0  0  0  0  0  0  0  0  0  0  0  0
   39.1530   27.9870   43.1030 N   0  0  0  0  0  0  0  0  0  0  0  0
   40.0530   26.8030   44.6100 H   0  0  0  0  0  0  0  0  0  0  0  0
   39.3930   24.6320   43.5770 H   0  0  0  0  0  0  0  0  0  0  0  0
   38.0850   24.7160   41.4250 H   0  0  0  0  0  0  0  0  0  0  0  0
   39.5450   31.7410   38.8950 C   0  0  0  0  0  0  0  0  0  0  0  0
   40.6160   32.5910   39.0050 C   0  0  0  0  0  0  0  0  0  0  0  0
   41.0580   32.8860   39.9190 H   0  0  0  0  0  0  0  0  0  0  0  0
   41.0750   33.0340   37.7910 C   0  0  0  0  0  0  0  0  0  0  0  0
   41.8990   33.7040   37.5990 H   0  0  0  0  0  0  0  0  0  0  0  0
   40.2460   32.4240   36.9290 N   0  0  0  0  0  0  0  0  0  0  0  0
   40.2630   32.5050   35.8790 H   0  0  0  0  0  0  0  0  0  0  0  0
   39.3670   31.6830   37.5650 N   0  0  0  0  0  0  0  0  0  0  0  0
  1  2  1  0  0  0  0
  2  3  1  0  0  0  0
  3  4  2  0  0  0  0
  3 15  1  0  0  0  0
  4  8  1  0  0  0  0
  5  9  1  0  0  0  0
  5  4  1  0  0  0  0
  6  5  2  0  0  0  0
  7  6  1  0  0  0  0
  7  2  2  0  0  0  0
 10  6  1  0  0  0  0
 11 17  1  0  0  0  0
 12 18  1  0  0  0  0
 12 11  1  0  0  0  0
 13 12  2  0  0  0  0
 14 15  2  0  0  0  0
 14 13  1  0  0  0  0
 15 16  1  0  0  0  0
 16 11  2  0  0  0  0
 19 13  1  0  0  0  0
 20 21  1  0  0  0  0
 20  7  1  0  0  0  0
 21 22  1  0  0  0  0
 23 21  2  0  0  0  0
 24 23  1  0  0  0  0
 25 27  1  0  0  0  0
 25 23  1  0  0  0  0
 26 25  1  0  0  0  0
 27 20  2  0  0  0  0
M  END
>  <minimizedAffinity>
-4.89879704

$$$$

 OpenBabel03242510103D

 27 29  0  0  0  0  0  0  0  0999 V2000
   38.5280   28.7300   41.0510 Br  0  0  0  0  0  0  0  0  0  0  0  0
   37.1560   28.3690   39.7820 C   0  0  0  0  0  0  0  0  0  0  0  0
   36.8090   27.0580   39.4970 C   0  0  0  0  0  0  0  0  0  0  0  0
   35.8110   26.7650   38.5700 C   0  0  0  0  0  0  0  0  0  0  0  0
   35.1870   27.8060   37.9500 C   0  0  0  0  0  0  0  0  0  0  0  0
   35.5570   29.0890   38.2570 C   0  0  0  0  0  0  0  0  0  0  0  0
   36.5350   29.4140   39.1640 C   0  0  0  0  0  0  0  0  0  0  0  0
   35.6140   25.7130   38.4170 H   0  0  0  0  0  0  0  0  0  0  0  0
   34.4290   27.5300   37.2470 H   0  0  0  0  0  0  0  0  0  0  0  0
   34.9620   29.8120   37.6740 H   0  0  0  0  0  0  0  0  0  0  0  0
   37.6210   24.4930   41.9720 C   0  0  0  0  0  0  0  0  0  0  0  0
   38.8320   23.9510   41.5210 C   0  0  0  0  0  0  0  0  0  0  0  0
   39.3600   24.4880   40.3470 C   0  0  0  0  0  0  0  0  0  0  0  0
   38.6870   25.4850   39.7210 N   0  0  0  0  0  0  0  0  0  0  0  0
   37.5070   25.9890   40.1900 C   0  0  0  0  0  0  0  0  0  0  0  0
   36.9790   25.4780   41.3320 N   0  0  0  0  0  0  0  0  0  0  0  0
   37.2210   24.0650   42.8890 H   0  0  0  0  0  0  0  0  0  0  0  0
   39.3720   23.1640   42.0090 H   0  0  0  0  0  0  0  0  0  0  0  0
   40.2750   24.1750   39.8840 H   0  0  0  0  0  0  0  0  0  0  0  0
   36.7910   30.8310   39.3590 C   0  0  0  0  0  0  0  0  0  0  0  0
   37.3250   31.8400   38.5980 C   0  0  0  0  0  0  0  0  0  0  0  0
   37.6820   31.7230   37.6100 H   0  0  0  0  0  0  0  0  0  0  0  0
   37.3520   33.0450   39.2510 C   0  0  0  0  0  0  0  0  0  0  0  0
   37.7170   33.9920   38.8810 H   0  0  0  0  0  0  0  0  0  0  0  0
   36.8140   32.7410   40.4420 N   0  0  0  0  0  0  0  0  0  0  0  0
   36.6550   33.4030   41.2470 H   0  0  0  0  0  0  0  0  0  0  0  0
   36.4940   31.4680   40.5030 N   0  0  0  0  0  0  0  0  0  0  0  0
  2  1  1  0  0  0  0
  3  2  1  0  0  0  0
  3 15  1  0  0  0  0
  4  3  2  0  0  0  0
  5  6  2  0  0  0  0
  5  4  1  0  0  0  0
  6  7  1  0  0  0  0
  7 20  1  0  0  0  0
  7  2  2  0  0  0  0
  8  4  1  0  0  0  0
  9  5  1  0  0  0  0
 10  6  1  0  0  0  0
 11 17  1  0  0  0  0
 12 11  1  0  0  0  0
 12 18  1  0  0  0  0
 13 12  2  0  0  0  0
 14 15  2  0  0  0  0
 14 13  1  0  0  0  0
 15 16  1  0  0  0  0
 16 11  2  0  0  0  0
 19 13  1  0  0  0  0
 20 27  2  0  0  0  0
 21 23  2  0  0  0  0
 21 20  1  0  0  0  0
 22 21  1  0  0  0  0
 23 25  1  0  0  0  0
 24 23  1  0  0  0  0
 25 27  1  0  0  0  0
 25 26  1  0  0  0  0
M  END
>  <minimizedAffinity>
-4.83489609

$$$$

 OpenBabel03242510103D

 27 29  0  0  0  0  0  0  0  0999 V2000
   38.5460   29.7610   39.6790 Br  0  0  0  0  0  0  0  0  0  0  0  0
   37.9560   28.9440   41.2940 C   0  0  0  0  0  0  0  0  0  0  0  0
   36.7720   28.2230   41.3070 C   0  0  0  0  0  0  0  0  0  0  0  0
   36.3150   27.6170   42.4750 C   0  0  0  0  0  0  0  0  0  0  0  0
   37.0640   27.7550   43.6050 C   0  0  0  0  0  0  0  0  0  0  0  0
   38.2290   28.4750   43.5530 C   0  0  0  0  0  0  0  0  0  0  0  0
   38.7100   29.0860   42.4210 C   0  0  0  0  0  0  0  0  0  0  0  0
   35.3820   27.0780   42.3830 H   0  0  0  0  0  0  0  0  0  0  0  0
   36.6710   27.2720   44.4750 H   0  0  0  0  0  0  0  0  0  0  0  0
   38.7150   28.4930   44.5430 H   0  0  0  0  0  0  0  0  0  0  0  0
   34.3490   28.9120   38.6580 C   0  0  0  0  0  0  0  0  0  0  0  0
   34.5650   27.8930   37.7210 C   0  0  0  0  0  0  0  0  0  0  0  0
   35.5630   26.9660   38.0220 C   0  0  0  0  0  0  0  0  0  0  0  0
   36.2540   27.0990   39.1820 N   0  0  0  0  0  0  0  0  0  0  0  0
   36.0150   28.1070   40.0720 C   0  0  0  0  0  0  0  0  0  0  0  0
   35.0470   29.0180   39.7950 N   0  0  0  0  0  0  0  0  0  0  0  0
   33.5670   29.6280   38.4100 H   0  0  0  0  0  0  0  0  0  0  0  0
   34.0240   27.7790   36.8020 H   0  0  0  0  0  0  0  0  0  0  0  0
   35.8390   26.1360   37.4030 H   0  0  0  0  0  0  0  0  0  0  0  0
   39.9630   29.8070   42.5580 C   0  0  0  0  0  0  0  0  0  0  0  0
   41.2920   29.4670   42.5340 C   0  0  0  0  0  0  0  0  0  0  0  0
   41.6590   28.4870   42.3900 H   0  0  0  0  0  0  0  0  0  0  0  0
   42.1220   30.5420   42.7170 C   0  0  0  0  0  0  0  0  0  0  0  0
   43.2020   30.5500   42.7400 H   0  0  0  0  0  0  0  0  0  0  0  0
   41.2550   31.5570   42.8550 N   0  0  0  0  0  0  0  0  0  0  0  0
   41.4950   32.5710   43.0160 H   0  0  0  0  0  0  0  0  0  0  0  0
   40.0150   31.1320   42.7640 N   0  0  0  0  0  0  0  0  0  0  0  0
  1  2  1  0  0  0  0
  2  3  2  0  0  0  0
  2  7  1  0  0  0  0
  3  4  1  0  0  0  0
  4  5  2  0  0  0  0
  5  9  1  0  0  0  0
  6  5  1  0  0  0  0
  6 10  1  0  0  0  0
  7 20  1  0  0  0  0
  7  6  2  0  0  0  0
  8  4  1  0  0  0  0
 11 16  1  0  0  0  0
 12 13  1  0  0  0  0
 12 11  2  0  0  0  0
 13 14  2  0  0  0  0
 14 15  1  0  0  0  0
 15  3  1  0  0  0  0
 16 15  2  0  0  0  0
 17 11  1  0  0  0  0
 18 12  1  0  0  0  0
 19 13  1  0  0  0  0
 20 27  2  0  0  0  0
 21 20  1  0  0  0  0
 21 23  2  0  0  0  0
 22 21  1  0  0  0  0
 23 24  1  0  0  0  0
 23 25  1  0  0  0  0
 25 26  1  0  0  0  0
 27 25  1  0  0  0  0
M  END
>  <minimizedAffinity>
-4.83068943

$$$$

 OpenBabel03242510103D

 27 29  0  0  0  0  0  0  0  0999 V2000
   40.4690   29.6430   40.2470 Br  0  0  0  0  0  0  0  0  0  0  0  0
   39.0290   30.8780   40.0860 C   0  0  0  0  0  0  0  0  0  0  0  0
   37.8170   30.6060   40.6990 C   0  0  0  0  0  0  0  0  0  0  0  0
   36.7450   31.4900   40.5950 C   0  0  0  0  0  0  0  0  0  0  0  0
   36.9240   32.6310   39.8720 C   0  0  0  0  0  0  0  0  0  0  0  0
   38.1370   32.8660   39.2800 C   0  0  0  0  0  0  0  0  0  0  0  0
   39.2140   32.0180   39.3600 C   0  0  0  0  0  0  0  0  0  0  0  0
   35.8430   31.1880   41.1090 H   0  0  0  0  0  0  0  0  0  0  0  0
   36.0730   33.2770   39.8210 H   0  0  0  0  0  0  0  0  0  0  0  0
   38.1210   33.8250   38.7340 H   0  0  0  0  0  0  0  0  0  0  0  0
   37.1450   27.1100   41.5330 C   0  0  0  0  0  0  0  0  0  0  0  0
   37.4260   27.0230   42.9030 C   0  0  0  0  0  0  0  0  0  0  0  0
   37.8520   28.1940   43.5310 C   0  0  0  0  0  0  0  0  0  0  0  0
   37.9670   29.3280   42.7950 N   0  0  0  0  0  0  0  0  0  0  0  0
   37.6840   29.3750   41.4600 C   0  0  0  0  0  0  0  0  0  0  0  0
   37.2680   28.2450   40.8330 N   0  0  0  0  0  0  0  0  0  0  0  0
   36.8140   26.1890   41.0560 H   0  0  0  0  0  0  0  0  0  0  0  0
   37.3380   26.1330   43.4930 H   0  0  0  0  0  0  0  0  0  0  0  0
   38.1020   28.2800   44.5690 H   0  0  0  0  0  0  0  0  0  0  0  0
   40.4200   32.4350   38.6660 C   0  0  0  0  0  0  0  0  0  0  0  0
   41.5960   33.0380   39.0310 C   0  0  0  0  0  0  0  0  0  0  0  0
   41.8410   33.3330   40.0160 H   0  0  0  0  0  0  0  0  0  0  0  0
   42.4500   33.2280   37.9750 C   0  0  0  0  0  0  0  0  0  0  0  0
   43.4330   33.6760   37.9890 H   0  0  0  0  0  0  0  0  0  0  0  0
   41.7550   32.7190   36.9460 N   0  0  0  0  0  0  0  0  0  0  0  0
   42.0660   32.6730   35.9400 H   0  0  0  0  0  0  0  0  0  0  0  0
   40.5880   32.2650   37.3450 N   0  0  0  0  0  0  0  0  0  0  0  0
  2  1  1  0  0  0  0
  2  3  1  0  0  0  0
  3 15  1  0  0  0  0
  4  3  2  0  0  0  0
  4  8  1  0  0  0  0
  5  4  1  0  0  0  0
  6  7  1  0  0  0  0
  6  5  2  0  0  0  0
  7  2  2  0  0  0  0
  9  5  1  0  0  0  0
 10  6  1  0  0  0  0
 11 12  1  0  0  0  0
 12 18  1  0  0  0  0
 12 13  2  0  0  0  0
 13 19  1  0  0  0  0
 14 13  1  0  0  0  0
 15 14  2  0  0  0  0
 16 15  1  0  0  0  0
 16 11  2  0  0  0  0
 17 11  1  0  0  0  0
 20 21  1  0  0  0  0
 20  7  1  0  0  0  0
 21 22  1  0  0  0  0
 23 24  1  0  0  0  0
 23 21  2  0  0  0  0
 25 27  1  0  0  0  0
 25 23  1  0  0  0  0
 26 25  1  0  0  0  0
 27 20  2  0  0  0  0
M  END
>  <minimizedAffinity>
-4.75311565

$$$$

 OpenBabel03242510103D

 27 29  0  0  0  0  0  0  0  0999 V2000
   38.5650   28.2740   39.2630 Br  0  0  0  0  0  0  0  0  0  0  0  0
   37.9590   28.0570   41.0540 C   0  0  0  0  0  0  0  0  0  0  0  0
   37.4780   26.8270   41.4740 C   0  0  0  0  0  0  0  0  0  0  0  0
   37.0250   26.6410   42.7780 C   0  0  0  0  0  0  0  0  0  0  0  0
   37.0680   27.7040   43.6290 C   0  0  0  0  0  0  0  0  0  0  0  0
   37.5500   28.9040   43.1780 C   0  0  0  0  0  0  0  0  0  0  0  0
   38.0040   29.1250   41.9020 C   0  0  0  0  0  0  0  0  0  0  0  0
   36.6700   25.6450   43.0080 H   0  0  0  0  0  0  0  0  0  0  0  0
   36.7090   27.5110   44.6180 H   0  0  0  0  0  0  0  0  0  0  0  0
   37.5190   29.6590   43.9830 H   0  0  0  0  0  0  0  0  0  0  0  0
   38.5020   23.8720   39.5810 C   0  0  0  0  0  0  0  0  0  0  0  0
   37.4300   23.6320   38.7110 C   0  0  0  0  0  0  0  0  0  0  0  0
   36.3490   24.5100   38.7920 C   0  0  0  0  0  0  0  0  0  0  0  0
   36.3950   25.5260   39.6890 N   0  0  0  0  0  0  0  0  0  0  0  0
   37.4580   25.7280   40.5230 C   0  0  0  0  0  0  0  0  0  0  0  0
   38.5190   24.8840   40.4570 N   0  0  0  0  0  0  0  0  0  0  0  0
   39.3390   23.1790   39.5070 H   0  0  0  0  0  0  0  0  0  0  0  0
   37.3840   22.8330   37.9980 H   0  0  0  0  0  0  0  0  0  0  0  0
   35.4630   24.4510   38.1930 H   0  0  0  0  0  0  0  0  0  0  0  0
   38.4790   30.4650   41.6060 C   0  0  0  0  0  0  0  0  0  0  0  0
   38.0210   31.5190   40.8560 C   0  0  0  0  0  0  0  0  0  0  0  0
   37.1230   31.5160   40.2990 H   0  0  0  0  0  0  0  0  0  0  0  0
   38.8560   32.6060   40.8960 C   0  0  0  0  0  0  0  0  0  0  0  0
   38.7300   33.5570   40.3990 H   0  0  0  0  0  0  0  0  0  0  0  0
   39.8440   32.1820   41.6990 N   0  0  0  0  0  0  0  0  0  0  0  0
   40.6970   32.7300   41.9880 H   0  0  0  0  0  0  0  0  0  0  0  0
   39.6260   30.9520   42.1050 N   0  0  0  0  0  0  0  0  0  0  0  0
  1  2  1  0  0  0  0
  2  3  2  0  0  0  0
  2  7  1  0  0  0  0
  3  4  1  0  0  0  0
  4  8  1  0  0  0  0
  4  5  2  0  0  0  0
  5  9  1  0  0  0  0
  6  5  1  0  0  0  0
  6 10  1  0  0  0  0
  7  6  2  0  0  0  0
 11 16  1  0  0  0  0
 12 13  1  0  0  0  0
 12 11  2  0  0  0  0
 13 14  2  0  0  0  0
 14 15  1  0  0  0  0
 15  3  1  0  0  0  0
 16 15  2  0  0  0  0
 17 11  1  0  0  0  0
 18 12  1  0  0  0  0
 19 13  1  0  0  0  0
 20  7  1  0  0  0  0
 20 27  2  0  0  0  0
 21 23  2  0  0  0  0
 21 20  1  0  0  0  0
 22 21  1  0  0  0  0
 23 25  1  0  0  0  0
 24 23  1  0  0  0  0
 25 26  1  0  0  0  0
 25 27  1  0  0  0  0
M  END
>  <minimizedAffinity>
-4.7166481

$$$$
