REMARK  Name = 
REMARK  6 active torsions:
REMARK  status: ('A' for Active; 'I' for Inactive)
REMARK    1  A    between atoms: C_1  and  C_4
REMARK    2  A    between atoms: C_1  and  O_8
REMARK    3  A    between atoms: O_8  and  P_10
REMARK    4  A    between atoms: P_10  and  O_11
REMARK    5  A    between atoms: P_10  and  O_12
REMARK    6  A    between atoms: O_12  and  C_19
REMARK                            x       y       z     vdW  Elec       q    Type
REMARK                         _______ _______ _______ _____ _____    ______ ____
ROOT
ATOM      1  O   UNL     1      48.318  33.416  43.012  0.00  0.00    +0.000 OA
ENDROOT
BRANCH   1   2
ATOM      2  C   UNL     1      47.160  33.979  42.477  0.00  0.00    +0.000 C 
ATOM      3  H   UNL     1      47.368  34.780  41.746  0.00  0.00    +0.000 HD
ATOM      4  H   UNL     1      46.650  33.149  41.933  0.00  0.00    +0.000 HD
BRANCH   2   7
ATOM      5  C   UNL     1      45.297  34.236  45.695  0.00  0.00    +0.000 A 
ATOM      6  C   UNL     1      46.178  33.744  44.702  0.00  0.00    +0.000 A 
ATOM      7  C   UNL     1      46.263  34.459  43.518  0.00  0.00    +0.000 A 
ATOM      8  N   UNL     1      45.501  35.589  43.373  0.00  0.00    +0.000 NA
ATOM      9  C   UNL     1      44.667  36.030  44.348  0.00  0.00    +0.000 A 
ATOM     10  N   UNL     1      44.570  35.354  45.498  0.00  0.00    +0.000 NA
ATOM     11  H   UNL     1      45.169  33.737  46.651  0.00  0.00    +0.000 HD
ATOM     12  H   UNL     1      46.734  32.841  44.919  0.00  0.00    +0.000 HD
ATOM     13  H   UNL     1      44.150  36.935  44.053  0.00  0.00    +0.000 HD
ENDBRANCH   2   7
ENDBRANCH   1   2
BRANCH   1  15
ATOM     14  O   UNL     1      50.662  33.110  41.904  0.00  0.00    +0.000 OA
ATOM     15  P   UNL     1      49.631  34.157  42.225  0.00  0.00    +0.000 P 
BRANCH  15  16
ATOM     16  O   UNL     1      50.209  35.350  43.254  0.00  0.00    +0.000 OA
ATOM     17  H   UNL     1      49.541  35.701  43.877  0.00  0.00    +0.000 HD
ENDBRANCH  15  16
BRANCH  15  18
ATOM     18  O   UNL     1      49.064  34.801  40.781  0.00  0.00    +0.000 OA
BRANCH  18  19
ATOM     19  C   UNL     1      49.427  36.079  40.372  0.00  0.00    +0.000 A 
ATOM     20  C   UNL     1      49.191  37.429  40.617  0.00  0.00    +0.000 A 
ATOM     21  H   UNL     1      48.461  37.568  41.414  0.00  0.00    +0.000 HD
ATOM     22  C   UNL     1      49.988  38.141  39.738  0.00  0.00    +0.000 A 
ATOM     23  H   UNL     1      49.902  39.217  39.822  0.00  0.00    +0.000 HD
ATOM     24  N   UNL     1      50.684  37.252  38.985  0.00  0.00    +0.000 N 
ATOM     25  H   UNL     1      51.334  37.615  38.270  0.00  0.00    +0.000 HD
ATOM     26  N   UNL     1      50.346  36.017  39.366  0.00  0.00    +0.000 NA
ENDBRANCH  18  19
ENDBRANCH  15  18
ENDBRANCH   1  15
TORSDOF 6
