
 OpenBabel03242515143D

 33 35  0  0  0  0  0  0  0  0999 V2000
   45.7030   32.1600   47.3560 C   0  0  0  0  0  0  0  0  0  0  0  0
   46.0510   32.2910   48.3770 H   0  0  0  0  0  0  0  0  0  0  0  0
   44.7080   32.6630   47.2180 H   0  0  0  0  0  0  0  0  0  0  0  0
   45.5720   30.7400   46.9730 C   0  0  0  0  0  0  0  0  0  0  0  0
   46.0630   30.0660   45.8910 C   0  0  0  0  0  0  0  0  0  0  0  0
   45.6500   28.7610   46.0110 C   0  0  0  0  0  0  0  0  0  0  0  0
   44.9310   28.6540   47.1350 N   0  0  0  0  0  0  0  0  0  0  0  0
   44.8960   29.8580   47.6990 N   0  0  0  0  0  0  0  0  0  0  0  0
   46.6570   30.5680   45.1360 H   0  0  0  0  0  0  0  0  0  0  0  0
   45.9260   28.0330   45.2580 H   0  0  0  0  0  0  0  0  0  0  0  0
   44.3730   27.4010   47.5160 C   0  0  0  0  0  0  0  0  0  0  0  0
   43.7170   26.4320   46.7830 C   0  0  0  0  0  0  0  0  0  0  0  0
   43.5520   26.5660   45.7130 H   0  0  0  0  0  0  0  0  0  0  0  0
   43.3870   25.4060   47.6770 C   0  0  0  0  0  0  0  0  0  0  0  0
   42.8590   24.5240   47.3240 H   0  0  0  0  0  0  0  0  0  0  0  0
   43.8440   25.7740   48.9090 N   0  0  0  0  0  0  0  0  0  0  0  0
   43.7190   25.1690   49.7500 H   0  0  0  0  0  0  0  0  0  0  0  0
   44.4270   26.9640   48.7890 N   0  0  0  0  0  0  0  0  0  0  0  0
   46.6930   32.8620   46.4670 C   0  0  0  0  0  0  0  0  0  0  0  0
   47.4200   33.4820   47.0560 H   0  0  0  0  0  0  0  0  0  0  0  0
   47.2310   32.0790   45.8990 H   0  0  0  0  0  0  0  0  0  0  0  0
   44.5610   35.4740   44.8440 C   0  0  0  0  0  0  0  0  0  0  0  0
   45.1480   35.5130   43.5580 C   0  0  0  0  0  0  0  0  0  0  0  0
   46.2220   34.6540   43.3290 C   0  0  0  0  0  0  0  0  0  0  0  0
   46.6180   33.8550   44.3470 N   0  0  0  0  0  0  0  0  0  0  0  0
   46.0280   33.8540   45.5550 C   0  0  0  0  0  0  0  0  0  0  0  0
   45.0000   34.6620   45.8050 N   0  0  0  0  0  0  0  0  0  0  0  0
   43.7210   36.1240   45.0710 H   0  0  0  0  0  0  0  0  0  0  0  0
   44.7220   36.2090   42.8300 H   0  0  0  0  0  0  0  0  0  0  0  0
   46.8200   34.7000   42.0000 C   0  0  0  0  0  0  0  0  0  0  0  0
   47.6210   33.5830   41.8060 F   0  0  0  0  0  0  0  0  0  0  0  0
   47.6910   35.7820   41.9960 F   0  0  0  0  0  0  0  0  0  0  0  0
   45.8880   34.7580   40.9950 F   0  0  0  0  0  0  0  0  0  0  0  0
  1  2  1  0  0  0  0
  3  1  1  0  0  0  0
  4  1  1  0  0  0  0
  4  8  2  0  0  0  0
  5  6  2  0  0  0  0
  5  4  1  0  0  0  0
  6  7  1  0  0  0  0
  7 11  1  0  0  0  0
  7  8  1  0  0  0  0
  9  5  1  0  0  0  0
 10  6  1  0  0  0  0
 11 18  2  0  0  0  0
 12 11  1  0  0  0  0
 12 14  2  0  0  0  0
 13 12  1  0  0  0  0
 14 16  1  0  0  0  0
 15 14  1  0  0  0  0
 16 17  1  0  0  0  0
 18 16  1  0  0  0  0
 19 20  1  0  0  0  0
 19  1  1  0  0  0  0
 21 19  1  0  0  0  0
 22 28  1  0  0  0  0
 22 27  1  0  0  0  0
 23 22  2  0  0  0  0
 24 23  1  0  0  0  0
 24 25  2  0  0  0  0
 25 26  1  0  0  0  0
 26 27  2  0  0  0  0
 26 19  1  0  0  0  0
 29 23  1  0  0  0  0
 30 24  1  0  0  0  0
 31 30  1  0  0  0  0
 32 30  1  0  0  0  0
 33 30  1  0  0  0  0
M  END
>  <minimizedAffinity>
-5.67107677

>  <minimizedRMSD>
2.07795191

$$$$
