REMARK  Name = 
REMARK  7 active torsions:
REMARK  status: ('A' for Active; 'I' for Inactive)
REMARK    1  A    between atoms: C_1  and  C_4
REMARK    2  A    between atoms: C_3  and  O_11
REMARK    3  A    between atoms: C_4  and  C_5
REMARK    4  A    between atoms: O_11  and  P_13
REMARK    5  A    between atoms: P_13  and  O_14
REMARK    6  A    between atoms: P_13  and  O_15
REMARK    7  A    between atoms: O_15  and  C_26
REMARK                            x       y       z     vdW  Elec       q    Type
REMARK                         _______ _______ _______ _____ _____    ______ ____
ROOT
ATOM      1  C   UNL     1      47.577  35.227  41.783  0.00  0.00    +0.000 C 
ATOM      2  C   UNL     1      49.071  35.499  41.618  0.00  0.00    +0.000 C 
ATOM      3  C   UNL     1      48.254  34.942  40.474  0.00  0.00    +0.000 C 
ATOM      4  H   UNL     1      47.020  36.183  41.898  0.00  0.00    +0.000 HD
ATOM      5  H   UNL     1      49.451  36.520  41.575  0.00  0.00    +0.000 HD
ATOM      6  H   UNL     1      49.755  34.779  42.116  0.00  0.00    +0.000 HD
ATOM      7  H   UNL     1      48.088  35.685  39.662  0.00  0.00    +0.000 HD
ENDROOT
BRANCH   1   8
ATOM      8  C   UNL     1      47.212  34.037  42.576  0.00  0.00    +0.000 C 
ATOM      9  H   UNL     1      48.080  33.410  42.865  0.00  0.00    +0.000 HD
ATOM     10  H   UNL     1      46.612  33.365  41.894  0.00  0.00    +0.000 HD
BRANCH   8  11
ATOM     11  C   UNL     1      46.340  34.308  43.727  0.00  0.00    +0.000 A 
ATOM     12  C   UNL     1      45.507  35.379  43.551  0.00  0.00    +0.000 A 
ATOM     13  C   UNL     1      44.629  35.768  44.570  0.00  0.00    +0.000 A 
ATOM     14  N   UNL     1      44.678  35.005  45.717  0.00  0.00    +0.000 NA
ATOM     15  C   UNL     1      45.505  33.952  45.872  0.00  0.00    +0.000 A 
ATOM     16  N   UNL     1      46.321  33.619  44.882  0.00  0.00    +0.000 NA
ATOM     17  H   UNL     1      45.311  36.079  42.751  0.00  0.00    +0.000 HD
ATOM     18  H   UNL     1      43.914  36.574  44.605  0.00  0.00    +0.000 HD
ATOM     19  H   UNL     1      45.448  33.433  46.819  0.00  0.00    +0.000 HD
ENDBRANCH   8  11
ENDBRANCH   1   8
BRANCH   3  20
ATOM     20  O   UNL     1      48.455  33.624  40.153  0.00  0.00    +0.000 OA
BRANCH  20  22
ATOM     21  O   UNL     1      48.264  34.621  37.684  0.00  0.00    +0.000 OA
ATOM     22  P   UNL     1      48.413  33.341  38.488  0.00  0.00    +0.000 P 
BRANCH  22  23
ATOM     23  O   UNL     1      49.906  32.640  38.036  0.00  0.00    +0.000 OA
ATOM     24  H   UNL     1      50.633  32.952  38.628  0.00  0.00    +0.000 HD
ENDBRANCH  22  23
BRANCH  22  25
ATOM     25  O   UNL     1      47.178  32.247  38.151  0.00  0.00    +0.000 OA
BRANCH  25  26
ATOM     26  C   UNL     1      47.411  30.880  38.104  0.00  0.00    +0.000 A 
ATOM     27  C   UNL     1      48.412  29.980  37.803  0.00  0.00    +0.000 A 
ATOM     28  H   UNL     1      49.345  30.430  37.498  0.00  0.00    +0.000 HD
ATOM     29  C   UNL     1      47.859  28.714  38.005  0.00  0.00    +0.000 A 
ATOM     30  H   UNL     1      48.527  27.874  37.809  0.00  0.00    +0.000 HD
ATOM     31  N   UNL     1      46.577  28.867  38.410  0.00  0.00    +0.000 N 
ATOM     32  H   UNL     1      46.003  28.019  38.609  0.00  0.00    +0.000 HD
ATOM     33  N   UNL     1      46.318  30.179  38.466  0.00  0.00    +0.000 NA
ENDBRANCH  25  26
ENDBRANCH  22  25
ENDBRANCH  20  22
ENDBRANCH   3  20
TORSDOF 7
