
 OpenBabel03242512093D

 32 34  0  0  1  0  0  0  0  0999 V2000
   48.0390   34.4170   41.1120 C   0  0  1  0  0  0  0  0  0  0  0  0
   48.7600   35.6960   41.6870 C   0  0  0  0  0  0  0  0  0  0  0  0
   48.9930   34.3430   42.2140 C   0  0  2  0  0  0  0  0  0  0  0  0
   48.3770   34.1820   40.0970 H   0  0  0  0  0  0  0  0  0  0  0  0
   49.5010   36.1700   41.0090 H   0  0  0  0  0  0  0  0  0  0  0  0
   48.1190   36.4020   42.2500 H   0  0  0  0  0  0  0  0  0  0  0  0
   48.5180   33.8980   43.1020 H   0  0  0  0  0  0  0  0  0  0  0  0
   46.5740   34.4410   41.3850 C   0  0  0  0  0  0  0  0  0  0  0  0
   45.8200   34.2160   40.4440 O   0  0  0  0  0  0  0  0  0  0  0  0
   45.3730   35.8680   42.9720 C   0  0  0  0  0  0  0  0  0  0  0  0
   45.9930   34.7030   42.6650 C   0  0  0  0  0  0  0  0  0  0  0  0
   46.0590   33.7070   43.6740 C   0  0  0  0  0  0  0  0  0  0  0  0
   45.5140   33.9320   44.8950 N   0  0  0  0  0  0  0  0  0  0  0  0
   44.8990   35.1210   45.1550 C   0  0  0  0  0  0  0  0  0  0  0  0
   44.8340   36.0530   44.2210 N   0  0  0  0  0  0  0  0  0  0  0  0
   45.3310   36.6120   42.1960 H   0  0  0  0  0  0  0  0  0  0  0  0
   46.5110   32.7590   43.5590 H   0  0  0  0  0  0  0  0  0  0  0  0
   44.4510   35.3520   46.1060 H   0  0  0  0  0  0  0  0  0  0  0  0
   50.2860   33.8770   41.9980 O   0  0  0  0  0  0  0  0  0  0  0  0
   48.9860   31.8770   42.9860 O   0  0  0  0  0  0  0  0  0  0  0  0
   50.2230   32.1860   42.1600 P   0  0  2  0  0  0  0  0  0  0  0  0
   51.5880   31.5190   42.8350 O   0  0  0  0  0  0  0  0  0  0  0  0
   52.3820   32.0800   42.7310 H   0  0  0  0  0  0  0  0  0  0  0  0
   49.8880   31.5230   40.6010 O   0  0  0  0  0  0  0  0  0  0  0  0
   50.8380   31.6090   39.5790 C   0  0  0  0  0  0  0  0  0  0  0  0
   52.1810   31.3750   39.3410 C   0  0  0  0  0  0  0  0  0  0  0  0
   52.7140   31.0010   40.2040 H   0  0  0  0  0  0  0  0  0  0  0  0
   52.4100   31.7160   38.0040 C   0  0  0  0  0  0  0  0  0  0  0  0
   53.4190   31.5900   37.6570 H   0  0  0  0  0  0  0  0  0  0  0  0
   51.2360   32.1320   37.4920 N   0  0  0  0  0  0  0  0  0  0  0  0
   51.2750   32.4170   36.4890 H   0  0  0  0  0  0  0  0  0  0  0  0
   50.2990   32.0700   38.4210 N   0  0  0  0  0  0  0  0  0  0  0  0
  1  4  1  6  0  0  0
  1  8  1  0  0  0  0
  1  2  1  0  0  0  0
  1  3  1  0  0  0  0
  2  3  1  0  0  0  0
  2  6  1  0  0  0  0
  3  7  1  1  0  0  0
  5  2  1  0  0  0  0
  8 11  1  0  0  0  0
  9  8  2  0  0  0  0
 10 15  1  0  0  0  0
 11 10  2  0  0  0  0
 11 12  1  0  0  0  0
 12 13  2  0  0  0  0
 13 14  1  0  0  0  0
 14 18  1  0  0  0  0
 15 14  2  0  0  0  0
 16 10  1  0  0  0  0
 17 12  1  0  0  0  0
 19 21  1  0  0  0  0
 19  3  1  0  0  0  0
 21 22  1  0  0  0  0
 21 20  2  1  0  0  0
 23 22  1  0  0  0  0
 24 21  1  0  0  0  0
 25 24  1  0  0  0  0
 26 25  1  0  0  0  0
 26 27  1  0  0  0  0
 28 26  2  0  0  0  0
 29 28  1  0  0  0  0
 30 28  1  0  0  0  0
 30 32  1  0  0  0  0
 31 30  1  0  0  0  0
 32 25  2  0  0  0  0
M  END
>  <minimizedAffinity>
-5.16542959

>  <minimizedRMSD>
0.72998327

$$$$
