
 OpenBabel03242518283D

 20 21  0  0  0  0  0  0  0  0999 V2000
   47.1390   35.0180   41.9370 C   0  0  0  0  0  0  0  0  0  0  0  0
   48.2460   35.5860   41.7860 O   0  0  0  0  0  0  0  0  0  0  0  0
   46.3600   34.9210   43.1220 C   0  0  0  0  0  0  0  0  0  0  0  0
   45.3790   35.9080   43.2170 C   0  0  0  0  0  0  0  0  0  0  0  0
   44.5650   35.8810   44.3650 C   0  0  0  0  0  0  0  0  0  0  0  0
   44.7780   34.9060   45.2970 N   0  0  0  0  0  0  0  0  0  0  0  0
   45.7510   33.9750   45.1410 C   0  0  0  0  0  0  0  0  0  0  0  0
   46.5370   33.9910   44.0490 N   0  0  0  0  0  0  0  0  0  0  0  0
   45.1840   36.6900   42.5030 H   0  0  0  0  0  0  0  0  0  0  0  0
   43.7810   36.5990   44.5310 H   0  0  0  0  0  0  0  0  0  0  0  0
   45.8030   33.2680   45.9600 H   0  0  0  0  0  0  0  0  0  0  0  0
   46.5930   34.4000   40.8020 O   0  0  0  0  0  0  0  0  0  0  0  0
   47.4510   33.6780   39.9450 C   0  0  0  0  0  0  0  0  0  0  0  0
   47.8920   33.9910   38.6750 C   0  0  0  0  0  0  0  0  0  0  0  0
   47.5950   34.9040   38.1660 H   0  0  0  0  0  0  0  0  0  0  0  0
   48.7090   32.9450   38.2970 C   0  0  0  0  0  0  0  0  0  0  0  0
   49.2080   32.9160   37.3270 H   0  0  0  0  0  0  0  0  0  0  0  0
   48.7550   32.0360   39.3110 N   0  0  0  0  0  0  0  0  0  0  0  0
   49.3360   31.1810   39.1750 H   0  0  0  0  0  0  0  0  0  0  0  0
   47.9910   32.4780   40.3130 N   0  0  0  0  0  0  0  0  0  0  0  0
  1  3  1  0  0  0  0
  2  1  2  0  0  0  0
  3  4  2  0  0  0  0
  3  8  1  0  0  0  0
  4  5  1  0  0  0  0
  5 10  1  0  0  0  0
  5  6  2  0  0  0  0
  7  6  1  0  0  0  0
  7 11  1  0  0  0  0
  8  7  2  0  0  0  0
  9  4  1  0  0  0  0
 12  1  1  0  0  0  0
 13 20  2  0  0  0  0
 13 12  1  0  0  0  0
 14 13  1  0  0  0  0
 15 14  1  0  0  0  0
 16 14  2  0  0  0  0
 16 18  1  0  0  0  0
 17 16  1  0  0  0  0
 18 20  1  0  0  0  0
 19 18  1  0  0  0  0
M  END
>  <minimizedAffinity>
-3.96465921

>  <minimizedRMSD>
1.16597056

$$$$
