
 OpenBabel03252509073D

 40 43  0  0  0  0  0  0  0  0999 V2000
   48.0180   32.1320   40.2220 C   0  0  0  0  0  0  0  0  0  0  0  0
   47.3230   33.1840   39.7070 C   0  0  0  0  0  0  0  0  0  0  0  0
   47.7180   33.7590   38.5110 C   0  0  0  0  0  0  0  0  0  0  0  0
   48.8120   33.2680   37.8390 C   0  0  0  0  0  0  0  0  0  0  0  0
   49.5500   32.1910   38.3300 C   0  0  0  0  0  0  0  0  0  0  0  0
   49.1300   31.6290   39.5410 C   0  0  0  0  0  0  0  0  0  0  0  0
   47.2090   34.5820   38.0700 H   0  0  0  0  0  0  0  0  0  0  0  0
   49.2100   33.6290   36.9090 H   0  0  0  0  0  0  0  0  0  0  0  0
   50.4030   31.7590   37.8660 H   0  0  0  0  0  0  0  0  0  0  0  0
   49.6850   30.7840   39.9560 H   0  0  0  0  0  0  0  0  0  0  0  0
   42.1840   33.5850   40.0420 Cl  0  0  0  0  0  0  0  0  0  0  0  0
   43.8220   33.9760   40.5150 C   0  0  0  0  0  0  0  0  0  0  0  0
   44.8850   33.3900   39.9070 C   0  0  0  0  0  0  0  0  0  0  0  0
   46.1430   33.7790   40.3390 C   0  0  0  0  0  0  0  0  0  0  0  0
   46.3130   34.7080   41.3350 C   0  0  0  0  0  0  0  0  0  0  0  0
   45.2380   35.2820   41.9300 C   0  0  0  0  0  0  0  0  0  0  0  0
   43.9790   34.9060   41.5100 C   0  0  0  0  0  0  0  0  0  0  0  0
   47.3260   34.9790   41.6410 H   0  0  0  0  0  0  0  0  0  0  0  0
   45.4190   36.0090   42.7100 H   0  0  0  0  0  0  0  0  0  0  0  0
   43.1350   35.3790   42.0010 H   0  0  0  0  0  0  0  0  0  0  0  0
   44.2120   30.1660   38.0680 C   0  0  0  0  0  0  0  0  0  0  0  0
   44.4350   31.0890   39.0950 C   0  0  0  0  0  0  0  0  0  0  0  0
   44.6540   32.4280   38.8530 C   0  0  0  0  0  0  0  0  0  0  0  0
   44.6330   32.7710   37.5380 N   0  0  0  0  0  0  0  0  0  0  0  0
   44.4210   31.8980   36.5500 C   0  0  0  0  0  0  0  0  0  0  0  0
   44.2120   30.6050   36.8170 N   0  0  0  0  0  0  0  0  0  0  0  0
   44.0570   29.1520   38.4090 H   0  0  0  0  0  0  0  0  0  0  0  0
   44.4450   30.7770   40.1340 H   0  0  0  0  0  0  0  0  0  0  0  0
   44.4240   32.2760   35.5350 H   0  0  0  0  0  0  0  0  0  0  0  0
   47.5390   31.3800   41.6510 S   0  0  0  0  0  0  0  0  0  0  0  0
   46.3830   30.4280   41.4400 O   0  0  0  0  0  0  0  0  0  0  0  0
   48.7310   30.4050   41.9730 O   0  0  0  0  0  0  0  0  0  0  0  0
   47.2440   32.1950   43.1350 C   0  0  0  0  0  0  0  0  0  0  0  0
   45.9980   32.0280   43.7950 C   0  0  0  0  0  0  0  0  0  0  0  0
   45.1350   31.4030   43.4870 H   0  0  0  0  0  0  0  0  0  0  0  0
   45.8700   32.7430   44.9600 C   0  0  0  0  0  0  0  0  0  0  0  0
   45.0600   32.8080   45.6490 H   0  0  0  0  0  0  0  0  0  0  0  0
   47.0490   33.3580   45.0230 N   0  0  0  0  0  0  0  0  0  0  0  0
   47.4150   34.0300   45.7640 H   0  0  0  0  0  0  0  0  0  0  0  0
   47.7830   33.0480   44.0240 N   0  0  0  0  0  0  0  0  0  0  0  0
  1 30  1  0  0  0  0
  2  1  1  0  0  0  0
  2 14  1  0  0  0  0
  3  2  2  0  0  0  0
  4  5  2  0  0  0  0
  4  3  1  0  0  0  0
  5  6  1  0  0  0  0
  6 10  1  0  0  0  0
  6  1  2  0  0  0  0
  7  3  1  0  0  0  0
  8  4  1  0  0  0  0
  9  5  1  0  0  0  0
 11 12  1  0  0  0  0
 12 17  1  0  0  0  0
 13 14  1  0  0  0  0
 13 12  2  0  0  0  0
 14 15  2  0  0  0  0
 15 18  1  0  0  0  0
 15 16  1  0  0  0  0
 16 19  1  0  0  0  0
 17 16  2  0  0  0  0
 17 20  1  0  0  0  0
 21 27  1  0  0  0  0
 21 22  1  0  0  0  0
 22 28  1  0  0  0  0
 23 22  2  0  0  0  0
 23 13  1  0  0  0  0
 24 23  1  0  0  0  0
 25 26  1  0  0  0  0
 25 24  2  0  0  0  0
 26 21  2  0  0  0  0
 29 25  1  0  0  0  0
 30 32  2  0  0  0  0
 30 33  1  0  0  0  0
 31 30  2  0  0  0  0
 33 34  1  0  0  0  0
 33 40  2  0  0  0  0
 34 36  2  0  0  0  0
 35 34  1  0  0  0  0
 36 38  1  0  0  0  0
 36 37  1  0  0  0  0
 38 39  1  0  0  0  0
 40 38  1  0  0  0  0
M  END
>  <minimizedAffinity>
-4.34448242

>  <minimizedRMSD>
4.02699375

$$$$
