
 OpenBabel03252509083D

 40 43  0  0  0  0  0  0  0  0999 V2000
   46.8500   31.6190   39.4230 C   0  0  0  0  0  0  0  0  0  0  0  0
   46.6690   32.9670   39.3350 C   0  0  0  0  0  0  0  0  0  0  0  0
   47.4750   33.7210   38.5000 C   0  0  0  0  0  0  0  0  0  0  0  0
   48.4590   33.1130   37.7570 C   0  0  0  0  0  0  0  0  0  0  0  0
   48.6760   31.7370   37.8170 C   0  0  0  0  0  0  0  0  0  0  0  0
   47.8480   30.9970   38.6690 C   0  0  0  0  0  0  0  0  0  0  0  0
   47.3750   34.7750   38.3980 H   0  0  0  0  0  0  0  0  0  0  0  0
   49.1410   33.5920   37.0790 H   0  0  0  0  0  0  0  0  0  0  0  0
   49.4140   31.1990   37.2720 H   0  0  0  0  0  0  0  0  0  0  0  0
   47.9890   29.9150   38.7420 H   0  0  0  0  0  0  0  0  0  0  0  0
   45.3900   35.9750   43.3340 Cl  0  0  0  0  0  0  0  0  0  0  0  0
   45.0450   35.0750   41.8750 C   0  0  0  0  0  0  0  0  0  0  0  0
   46.0260   34.4090   41.2140 C   0  0  0  0  0  0  0  0  0  0  0  0
   45.6500   33.7110   40.0780 C   0  0  0  0  0  0  0  0  0  0  0  0
   44.3500   33.6900   39.6360 C   0  0  0  0  0  0  0  0  0  0  0  0
   43.3850   34.3610   40.3100 C   0  0  0  0  0  0  0  0  0  0  0  0
   43.7430   35.0610   41.4440 C   0  0  0  0  0  0  0  0  0  0  0  0
   44.1060   33.1250   38.7340 H   0  0  0  0  0  0  0  0  0  0  0  0
   42.3750   34.3170   39.9260 H   0  0  0  0  0  0  0  0  0  0  0  0
   42.9530   35.5900   41.9660 H   0  0  0  0  0  0  0  0  0  0  0  0
   49.5370   35.5370   42.0090 C   0  0  0  0  0  0  0  0  0  0  0  0
   48.2310   35.5070   41.5070 C   0  0  0  0  0  0  0  0  0  0  0  0
   47.3770   34.4500   41.7280 C   0  0  0  0  0  0  0  0  0  0  0  0
   47.9080   33.4450   42.4730 N   0  0  0  0  0  0  0  0  0  0  0  0
   49.1530   33.4630   42.9570 C   0  0  0  0  0  0  0  0  0  0  0  0
   49.9590   34.5040   42.7250 N   0  0  0  0  0  0  0  0  0  0  0  0
   50.0900   36.4300   41.7550 H   0  0  0  0  0  0  0  0  0  0  0  0
   47.8420   36.3290   40.9160 H   0  0  0  0  0  0  0  0  0  0  0  0
   49.4780   32.6100   43.5390 H   0  0  0  0  0  0  0  0  0  0  0  0
   45.8590   30.6650   40.3950 S   0  0  0  0  0  0  0  0  0  0  0  0
   44.5360   30.3500   39.7320 O   0  0  0  0  0  0  0  0  0  0  0  0
   46.5810   29.2670   40.3980 O   0  0  0  0  0  0  0  0  0  0  0  0
   45.5210   30.9720   42.0520 C   0  0  0  0  0  0  0  0  0  0  0  0
   46.3380   30.3910   43.0570 C   0  0  0  0  0  0  0  0  0  0  0  0
   47.2260   29.7360   42.9310 H   0  0  0  0  0  0  0  0  0  0  0  0
   45.9600   30.6910   44.3440 C   0  0  0  0  0  0  0  0  0  0  0  0
   46.3820   30.3980   45.2770 H   0  0  0  0  0  0  0  0  0  0  0  0
   44.9000   31.4670   44.1310 N   0  0  0  0  0  0  0  0  0  0  0  0
   44.2670   31.9450   44.8420 H   0  0  0  0  0  0  0  0  0  0  0  0
   44.6760   31.6090   42.8810 N   0  0  0  0  0  0  0  0  0  0  0  0
  1 30  1  0  0  0  0
  2  1  1  0  0  0  0
  2 14  1  0  0  0  0
  3  2  2  0  0  0  0
  4  5  2  0  0  0  0
  4  3  1  0  0  0  0
  5  6  1  0  0  0  0
  6 10  1  0  0  0  0
  6  1  2  0  0  0  0
  7  3  1  0  0  0  0
  8  4  1  0  0  0  0
  9  5  1  0  0  0  0
 12 11  1  0  0  0  0
 13 23  1  0  0  0  0
 13 12  2  0  0  0  0
 14 13  1  0  0  0  0
 15 14  2  0  0  0  0
 15 16  1  0  0  0  0
 16 17  2  0  0  0  0
 17 12  1  0  0  0  0
 17 20  1  0  0  0  0
 18 15  1  0  0  0  0
 19 16  1  0  0  0  0
 21 26  1  0  0  0  0
 22 23  1  0  0  0  0
 22 21  2  0  0  0  0
 23 24  2  0  0  0  0
 24 25  1  0  0  0  0
 25 29  1  0  0  0  0
 26 25  2  0  0  0  0
 27 21  1  0  0  0  0
 28 22  1  0  0  0  0
 30 32  2  0  0  0  0
 30 33  1  0  0  0  0
 31 30  2  0  0  0  0
 33 40  2  0  0  0  0
 33 34  1  0  0  0  0
 34 36  2  0  0  0  0
 35 34  1  0  0  0  0
 36 37  1  0  0  0  0
 38 36  1  0  0  0  0
 38 39  1  0  0  0  0
 40 38  1  0  0  0  0
M  END
>  <minimizedAffinity>
-4.95717955

>  <minimizedRMSD>
1.0850246

$$$$
