
     RDKit          3D

 38 40  0  0  0  0  0  0  0  0999 V2000
   45.1877   33.4554   41.1629 F   0  0  0  0  0  0  0  0  0  0  0  0
   46.3544   34.0453   41.0343 C   0  0  0  0  0  0  0  0  0  0  0  0
   46.8376   34.7942   42.0995 C   0  0  0  0  0  0  0  0  0  0  0  0
   48.0755   35.4683   42.0722 C   0  0  0  0  0  0  0  0  0  0  0  0
   48.8614   35.3800   40.9126 C   0  0  0  0  0  0  0  0  0  0  0  0
   48.3443   34.6286   39.8846 C   0  0  0  0  0  0  0  0  0  0  0  0
   47.1614   33.9794   39.8978 C   0  0  0  0  0  0  0  0  0  0  0  0
   45.4743   33.9962   45.4051 C   0  0  0  0  0  0  0  0  0  0  0  0
   44.6260   35.1073   45.6475 C   0  0  0  0  0  0  0  0  0  0  0  0
   44.5334   36.1272   44.6596 C   0  0  0  0  0  0  0  0  0  0  0  0
   45.2796   35.9657   43.5254 N   0  0  0  0  0  0  0  0  0  0  0  0
   46.0592   34.9147   43.3365 C   0  0  0  0  0  0  0  0  0  0  0  0
   46.1572   33.9378   44.2663 N   0  0  0  0  0  0  0  0  0  0  0  0
   45.5443   33.0077   46.3997 N   0  0  0  0  0  0  0  0  0  0  0  0
   46.7504   33.2624   38.8119 O   0  0  0  0  0  0  0  0  0  0  0  0
   48.0448   34.7135   37.0189 O   0  0  0  0  0  0  0  0  0  0  0  0
   47.2910   33.4122   37.2342 P   0  0  2  0  0  0  0  0  0  0  0  0
   45.9731   33.3441   36.1640 O   0  0  0  0  0  0  0  0  0  0  0  0
   48.3034   32.1357   36.7635 O   0  0  0  0  0  0  0  0  0  0  0  0
   47.5488   30.9570   36.5664 C   0  0  0  0  0  0  0  0  0  0  0  0
   47.2072   30.9924   35.2049 F   0  0  0  0  0  0  0  0  0  0  0  0
   48.3320   29.8446   36.7709 F   0  0  0  0  0  0  0  0  0  0  0  0
   46.4628   30.8654   37.3812 F   0  0  0  0  0  0  0  0  0  0  0  0
   48.3850   36.0359   42.9483 H   0  0  0  0  0  0  0  0  0  0  0  0
   49.7989   35.9129   40.9414 H   0  0  0  0  0  0  0  0  0  0  0  0
   49.0610   34.6435   39.0588 H   0  0  0  0  0  0  0  0  0  0  0  0
   44.0405   35.2369   46.5341 H   0  0  0  0  0  0  0  0  0  0  0  0
   43.8966   36.9860   44.8134 H   0  0  0  0  0  0  0  0  0  0  0  0
   46.5544   32.9903   46.7287 H   0  0  0  0  0  0  0  0  0  0  0  0
   44.7028   32.4564   46.6827 H   0  0  0  0  0  0  0  0  0  0  0  0
   44.6657   33.0798   36.5401 C   0  0  0  0  0  0  0  0  0  0  0  0
   44.0377   33.9372   37.4487 C   0  0  0  0  0  0  0  0  0  0  0  0
   44.3399   34.8399   37.9842 H   0  0  0  0  0  0  0  0  0  0  0  0
   42.7648   33.3979   37.6064 C   0  0  0  0  0  0  0  0  0  0  0  0
   41.9053   33.6936   38.2008 H   0  0  0  0  0  0  0  0  0  0  0  0
   42.6452   32.2948   36.8429 N   0  0  0  0  0  0  0  0  0  0  0  0
   41.9367   31.5725   36.6185 H   0  0  0  0  0  0  0  0  0  0  0  0
   43.7907   32.1151   36.2093 N   0  0  0  0  0  0  0  0  0  0  0  0
  2  1  1  0
  2  3  2  0
  3 12  1  0
  4  3  1  0
  5  4  2  0
  6  7  2  0
  6  5  1  0
  7  2  1  0
  8  9  2  0
  8 14  1  0
 10  9  1  0
 11 10  2  0
 12 11  1  0
 12 13  2  0
 13  8  1  0
 15  7  1  0
 17 16  2  0
 17 15  1  1
 18 17  1  0
 19 17  1  0
 20 19  1  0
 20 22  1  0
 20 23  1  0
 21 20  1  0
  4 24  1  0
  5 25  1  0
  6 26  1  0
  9 27  1  0
 10 28  1  0
 14 29  1  0
 14 30  1  0
 31 32  1  0
 32 33  1  0
 32 34  2  0
 34 35  1  0
 34 36  1  0
 36 37  1  0
 36 38  1  0
 38 31  2  0
 18 31  1  0
M  ISO  8  24  14  25  14  26  14  27  14  28  14  33  15  35  16  37   5
M  END
>  <DihAtoms>  (1) 
16,17,30,31

>  <DihDeg>  (1) 
-179.9990893056663

$$$$
