
 OpenBabel03242515153D

 33 35  0  0  0  0  0  0  0  0999 V2000
   36.9400   31.4580   40.5700 C   0  0  0  0  0  0  0  0  0  0  0  0
   36.2080   32.2500   40.4400 H   0  0  0  0  0  0  0  0  0  0  0  0
   36.7930   30.9530   41.5630 H   0  0  0  0  0  0  0  0  0  0  0  0
   38.3320   31.9440   40.4890 C   0  0  0  0  0  0  0  0  0  0  0  0
   39.3220   31.9550   41.4300 C   0  0  0  0  0  0  0  0  0  0  0  0
   40.4290   32.5180   40.8410 C   0  0  0  0  0  0  0  0  0  0  0  0
   40.1120   32.8360   39.5810 N   0  0  0  0  0  0  0  0  0  0  0  0
   38.8450   32.4820   39.3890 N   0  0  0  0  0  0  0  0  0  0  0  0
   39.1560   31.5660   42.4280 H   0  0  0  0  0  0  0  0  0  0  0  0
   41.3460   32.6300   41.4060 H   0  0  0  0  0  0  0  0  0  0  0  0
   41.0770   33.4410   38.7270 C   0  0  0  0  0  0  0  0  0  0  0  0
   41.9890   34.4530   38.9500 C   0  0  0  0  0  0  0  0  0  0  0  0
   42.0520   34.9350   39.9280 H   0  0  0  0  0  0  0  0  0  0  0  0
   42.6860   34.6400   37.7500 C   0  0  0  0  0  0  0  0  0  0  0  0
   43.4660   35.3950   37.6830 H   0  0  0  0  0  0  0  0  0  0  0  0
   42.1870   33.7500   36.8450 N   0  0  0  0  0  0  0  0  0  0  0  0
   42.5480   33.6920   35.8670 H   0  0  0  0  0  0  0  0  0  0  0  0
   41.2310   33.0470   37.4470 N   0  0  0  0  0  0  0  0  0  0  0  0
   36.6710   30.4370   39.4980 C   0  0  0  0  0  0  0  0  0  0  0  0
   35.6200   30.5050   39.1090 H   0  0  0  0  0  0  0  0  0  0  0  0
   37.3930   30.6250   38.6810 H   0  0  0  0  0  0  0  0  0  0  0  0
   36.8110   26.7330   40.0140 C   0  0  0  0  0  0  0  0  0  0  0  0
   37.0200   26.6830   41.4130 C   0  0  0  0  0  0  0  0  0  0  0  0
   37.0970   27.9030   42.0830 C   0  0  0  0  0  0  0  0  0  0  0  0
   36.9690   29.0340   41.3500 N   0  0  0  0  0  0  0  0  0  0  0  0
   36.7730   29.0310   40.0200 C   0  0  0  0  0  0  0  0  0  0  0  0
   36.6930   27.8830   39.3510 N   0  0  0  0  0  0  0  0  0  0  0  0
   36.7430   25.8090   39.4480 H   0  0  0  0  0  0  0  0  0  0  0  0
   37.1040   25.6950   41.8750 H   0  0  0  0  0  0  0  0  0  0  0  0
   37.3110   27.8420   43.5230 C   0  0  0  0  0  0  0  0  0  0  0  0
   36.1420   27.4450   44.1560 F   0  0  0  0  0  0  0  0  0  0  0  0
   37.5330   29.1470   43.9460 F   0  0  0  0  0  0  0  0  0  0  0  0
   38.3220   26.9840   43.8780 F   0  0  0  0  0  0  0  0  0  0  0  0
  1  3  1  0  0  0  0
  2  1  1  0  0  0  0
  4  1  1  0  0  0  0
  4  5  1  0  0  0  0
  5  9  1  0  0  0  0
  6 10  1  0  0  0  0
  6  5  2  0  0  0  0
  7  6  1  0  0  0  0
  8  7  1  0  0  0  0
  8  4  2  0  0  0  0
 11 12  1  0  0  0  0
 11  7  1  0  0  0  0
 12 13  1  0  0  0  0
 14 12  2  0  0  0  0
 15 14  1  0  0  0  0
 16 18  1  0  0  0  0
 16 14  1  0  0  0  0
 17 16  1  0  0  0  0
 18 11  2  0  0  0  0
 19 26  1  0  0  0  0
 19  1  1  0  0  0  0
 20 19  1  0  0  0  0
 21 19  1  0  0  0  0
 22 23  1  0  0  0  0
 23 29  1  0  0  0  0
 23 24  2  0  0  0  0
 24 30  1  0  0  0  0
 25 24  1  0  0  0  0
 26 25  2  0  0  0  0
 27 22  2  0  0  0  0
 27 26  1  0  0  0  0
 28 22  1  0  0  0  0
 30 33  1  0  0  0  0
 30 32  1  0  0  0  0
 30 31  1  0  0  0  0
M  END
>  <minimizedAffinity>
-6.26718569

$$$$

 OpenBabel03242515153D

 33 35  0  0  0  0  0  0  0  0999 V2000
   35.8730   28.7690   38.9300 C   0  0  0  0  0  0  0  0  0  0  0  0
   34.9850   28.7160   38.3070 H   0  0  0  0  0  0  0  0  0  0  0  0
   35.5850   28.7710   40.0170 H   0  0  0  0  0  0  0  0  0  0  0  0
   36.6960   29.9650   38.6580 C   0  0  0  0  0  0  0  0  0  0  0  0
   37.0960   30.5120   37.4730 C   0  0  0  0  0  0  0  0  0  0  0  0
   37.8470   31.6230   37.7780 C   0  0  0  0  0  0  0  0  0  0  0  0
   37.8950   31.7380   39.1110 N   0  0  0  0  0  0  0  0  0  0  0  0
   37.1960   30.7290   39.6210 N   0  0  0  0  0  0  0  0  0  0  0  0
   36.8170   30.0700   36.5240 H   0  0  0  0  0  0  0  0  0  0  0  0
   38.2750   32.2230   36.9850 H   0  0  0  0  0  0  0  0  0  0  0  0
   38.6130   32.8090   39.7140 C   0  0  0  0  0  0  0  0  0  0  0  0
   39.8510   33.3520   39.4360 C   0  0  0  0  0  0  0  0  0  0  0  0
   40.4600   32.9510   38.6240 H   0  0  0  0  0  0  0  0  0  0  0  0
   40.0510   34.3920   40.3530 C   0  0  0  0  0  0  0  0  0  0  0  0
   40.9680   34.9730   40.3280 H   0  0  0  0  0  0  0  0  0  0  0  0
   38.9450   34.4510   41.1500 N   0  0  0  0  0  0  0  0  0  0  0  0
   38.8520   35.1520   41.9190 H   0  0  0  0  0  0  0  0  0  0  0  0
   38.1030   33.5000   40.7530 N   0  0  0  0  0  0  0  0  0  0  0  0
   36.6600   27.5130   38.6730 C   0  0  0  0  0  0  0  0  0  0  0  0
   36.1400   26.8350   37.9440 H   0  0  0  0  0  0  0  0  0  0  0  0
   37.6440   27.8220   38.2710 H   0  0  0  0  0  0  0  0  0  0  0  0
   36.9770   24.7970   41.2270 C   0  0  0  0  0  0  0  0  0  0  0  0
   37.0740   25.5730   42.4060 C   0  0  0  0  0  0  0  0  0  0  0  0
   37.0250   26.9580   42.2560 C   0  0  0  0  0  0  0  0  0  0  0  0
   36.8900   27.4510   41.0030 N   0  0  0  0  0  0  0  0  0  0  0  0
   36.8020   26.6720   39.9100 C   0  0  0  0  0  0  0  0  0  0  0  0
   36.8450   25.3460   40.0210 N   0  0  0  0  0  0  0  0  0  0  0  0
   37.0100   23.7140   41.2930 H   0  0  0  0  0  0  0  0  0  0  0  0
   37.1800   25.0370   43.3550 H   0  0  0  0  0  0  0  0  0  0  0  0
   37.1250   27.7490   43.4760 C   0  0  0  0  0  0  0  0  0  0  0  0
   38.2140   27.3250   44.2240 F   0  0  0  0  0  0  0  0  0  0  0  0
   36.0090   27.4380   44.2420 F   0  0  0  0  0  0  0  0  0  0  0  0
   37.2510   29.0940   43.2330 F   0  0  0  0  0  0  0  0  0  0  0  0
  1  3  1  0  0  0  0
  2  1  1  0  0  0  0
  4  1  1  0  0  0  0
  4  8  2  0  0  0  0
  5  6  2  0  0  0  0
  5  4  1  0  0  0  0
  6  7  1  0  0  0  0
  7  8  1  0  0  0  0
  7 11  1  0  0  0  0
  9  5  1  0  0  0  0
 10  6  1  0  0  0  0
 11 18  2  0  0  0  0
 12 11  1  0  0  0  0
 12 14  2  0  0  0  0
 13 12  1  0  0  0  0
 14 16  1  0  0  0  0
 15 14  1  0  0  0  0
 16 17  1  0  0  0  0
 18 16  1  0  0  0  0
 19  1  1  0  0  0  0
 19 26  1  0  0  0  0
 20 19  1  0  0  0  0
 21 19  1  0  0  0  0
 22 28  1  0  0  0  0
 22 23  1  0  0  0  0
 23 29  1  0  0  0  0
 24 23  2  0  0  0  0
 24 30  1  0  0  0  0
 25 24  1  0  0  0  0
 26 27  1  0  0  0  0
 26 25  2  0  0  0  0
 27 22  2  0  0  0  0
 30 31  1  0  0  0  0
 30 32  1  0  0  0  0
 33 30  1  0  0  0  0
M  END
>  <minimizedAffinity>
-6.06665277

$$$$

 OpenBabel03242515153D

 33 35  0  0  0  0  0  0  0  0999 V2000
   37.0350   31.3770   40.5550 C   0  0  0  0  0  0  0  0  0  0  0  0
   36.3460   31.8680   39.8730 H   0  0  0  0  0  0  0  0  0  0  0  0
   36.6720   31.4810   41.6140 H   0  0  0  0  0  0  0  0  0  0  0  0
   38.4070   31.9170   40.4720 C   0  0  0  0  0  0  0  0  0  0  0  0
   39.3860   31.9980   41.4210 C   0  0  0  0  0  0  0  0  0  0  0  0
   40.4750   32.5870   40.8250 C   0  0  0  0  0  0  0  0  0  0  0  0
   40.1580   32.8530   39.5520 N   0  0  0  0  0  0  0  0  0  0  0  0
   38.9080   32.4420   39.3600 N   0  0  0  0  0  0  0  0  0  0  0  0
   39.2250   31.6330   42.4290 H   0  0  0  0  0  0  0  0  0  0  0  0
   41.3810   32.7540   41.3940 H   0  0  0  0  0  0  0  0  0  0  0  0
   41.1070   33.4700   38.6880 C   0  0  0  0  0  0  0  0  0  0  0  0
   41.9750   34.5240   38.8870 C   0  0  0  0  0  0  0  0  0  0  0  0
   42.0080   35.0390   39.8500 H   0  0  0  0  0  0  0  0  0  0  0  0
   42.6760   34.7020   37.6890 C   0  0  0  0  0  0  0  0  0  0  0  0
   43.4250   35.4850   37.6050 H   0  0  0  0  0  0  0  0  0  0  0  0
   42.2220   33.7640   36.8080 N   0  0  0  0  0  0  0  0  0  0  0  0
   42.5950   33.6910   35.8350 H   0  0  0  0  0  0  0  0  0  0  0  0
   41.2890   33.0420   37.4230 N   0  0  0  0  0  0  0  0  0  0  0  0
   37.0180   29.9130   40.2110 C   0  0  0  0  0  0  0  0  0  0  0  0
   36.0290   29.5940   39.7870 H   0  0  0  0  0  0  0  0  0  0  0  0
   37.8240   29.7440   39.4720 H   0  0  0  0  0  0  0  0  0  0  0  0
   37.4970   28.4680   43.6300 C   0  0  0  0  0  0  0  0  0  0  0  0
   37.4460   27.0870   43.3270 C   0  0  0  0  0  0  0  0  0  0  0  0
   37.2550   26.7410   41.9900 C   0  0  0  0  0  0  0  0  0  0  0  0
   37.1320   27.7450   41.0910 N   0  0  0  0  0  0  0  0  0  0  0  0
   37.1860   29.0460   41.4270 C   0  0  0  0  0  0  0  0  0  0  0  0
   37.3690   29.4080   42.6950 N   0  0  0  0  0  0  0  0  0  0  0  0
   37.6450   28.7870   44.6570 H   0  0  0  0  0  0  0  0  0  0  0  0
   37.5620   26.3840   44.1570 H   0  0  0  0  0  0  0  0  0  0  0  0
   37.2050   25.3160   41.6870 C   0  0  0  0  0  0  0  0  0  0  0  0
   36.3450   24.6770   42.5690 F   0  0  0  0  0  0  0  0  0  0  0  0
   38.4660   24.8070   41.9700 F   0  0  0  0  0  0  0  0  0  0  0  0
   36.7980   25.0560   40.4020 F   0  0  0  0  0  0  0  0  0  0  0  0
  1  3  1  0  0  0  0
  2  1  1  0  0  0  0
  4  1  1  0  0  0  0
  4  5  1  0  0  0  0
  5  9  1  0  0  0  0
  6 10  1  0  0  0  0
  6  5  2  0  0  0  0
  7  6  1  0  0  0  0
  8  7  1  0  0  0  0
  8  4  2  0  0  0  0
 11 12  1  0  0  0  0
 11  7  1  0  0  0  0
 12 13  1  0  0  0  0
 14 12  2  0  0  0  0
 15 14  1  0  0  0  0
 16 18  1  0  0  0  0
 16 14  1  0  0  0  0
 17 16  1  0  0  0  0
 18 11  2  0  0  0  0
 19  1  1  0  0  0  0
 19 26  1  0  0  0  0
 20 19  1  0  0  0  0
 21 19  1  0  0  0  0
 22 28  1  0  0  0  0
 23 22  1  0  0  0  0
 23 29  1  0  0  0  0
 24 23  2  0  0  0  0
 25 26  2  0  0  0  0
 25 24  1  0  0  0  0
 26 27  1  0  0  0  0
 27 22  2  0  0  0  0
 30 32  1  0  0  0  0
 30 24  1  0  0  0  0
 30 31  1  0  0  0  0
 33 30  1  0  0  0  0
M  END
>  <minimizedAffinity>
-6.04868555

$$$$

 OpenBabel03242515153D

 33 35  0  0  0  0  0  0  0  0999 V2000
   36.9700   30.4340   38.4660 C   0  0  0  0  0  0  0  0  0  0  0  0
   37.6920   29.6410   38.2960 H   0  0  0  0  0  0  0  0  0  0  0  0
   36.4760   30.7230   37.4990 H   0  0  0  0  0  0  0  0  0  0  0  0
   37.5740   31.6410   39.0660 C   0  0  0  0  0  0  0  0  0  0  0  0
   37.0050   32.8270   39.4330 C   0  0  0  0  0  0  0  0  0  0  0  0
   38.0110   33.6140   39.9410 C   0  0  0  0  0  0  0  0  0  0  0  0
   39.1520   32.9190   39.8810 N   0  0  0  0  0  0  0  0  0  0  0  0
   38.8670   31.7330   39.3510 N   0  0  0  0  0  0  0  0  0  0  0  0
   35.9450   33.0080   39.3010 H   0  0  0  0  0  0  0  0  0  0  0  0
   37.7900   34.6110   40.2990 H   0  0  0  0  0  0  0  0  0  0  0  0
   40.3690   33.4930   40.3450 C   0  0  0  0  0  0  0  0  0  0  0  0
   40.9100   34.7520   40.1750 C   0  0  0  0  0  0  0  0  0  0  0  0
   40.3770   35.5080   39.5950 H   0  0  0  0  0  0  0  0  0  0  0  0
   42.1340   34.7610   40.8550 C   0  0  0  0  0  0  0  0  0  0  0  0
   42.7480   35.6570   40.8620 H   0  0  0  0  0  0  0  0  0  0  0  0
   42.3010   33.5260   41.4110 N   0  0  0  0  0  0  0  0  0  0  0  0
   43.1450   33.2810   41.9740 H   0  0  0  0  0  0  0  0  0  0  0  0
   41.2400   32.7880   41.0940 N   0  0  0  0  0  0  0  0  0  0  0  0
   35.9060   29.8680   39.3660 C   0  0  0  0  0  0  0  0  0  0  0  0
   35.6900   30.5440   40.2360 H   0  0  0  0  0  0  0  0  0  0  0  0
   34.9960   29.7350   38.7500 H   0  0  0  0  0  0  0  0  0  0  0  0
   36.8850   26.3570   40.2140 C   0  0  0  0  0  0  0  0  0  0  0  0
   37.1520   26.4990   41.5960 C   0  0  0  0  0  0  0  0  0  0  0  0
   36.9820   27.7690   42.1440 C   0  0  0  0  0  0  0  0  0  0  0  0
   36.5780   28.7630   41.3190 N   0  0  0  0  0  0  0  0  0  0  0  0
   36.3370   28.5800   40.0090 C   0  0  0  0  0  0  0  0  0  0  0  0
   36.4890   27.3790   39.4560 N   0  0  0  0  0  0  0  0  0  0  0  0
   37.0030   25.3870   39.7410 H   0  0  0  0  0  0  0  0  0  0  0  0
   37.4710   25.6060   42.1420 H   0  0  0  0  0  0  0  0  0  0  0  0
   37.2590   27.9060   43.5690 C   0  0  0  0  0  0  0  0  0  0  0  0
   38.2890   27.0500   43.9320 F   0  0  0  0  0  0  0  0  0  0  0  0
   36.1360   27.4340   44.2370 F   0  0  0  0  0  0  0  0  0  0  0  0
   37.5970   29.1860   43.9280 F   0  0  0  0  0  0  0  0  0  0  0  0
  1  4  1  0  0  0  0
  1 19  1  0  0  0  0
  2  1  1  0  0  0  0
  3  1  1  0  0  0  0
  4  8  2  0  0  0  0
  4  5  1  0  0  0  0
  5  6  2  0  0  0  0
  6 10  1  0  0  0  0
  7  6  1  0  0  0  0
  7 11  1  0  0  0  0
  8  7  1  0  0  0  0
  9  5  1  0  0  0  0
 11 18  2  0  0  0  0
 12 11  1  0  0  0  0
 12 14  2  0  0  0  0
 13 12  1  0  0  0  0
 14 15  1  0  0  0  0
 14 16  1  0  0  0  0
 16 17  1  0  0  0  0
 18 16  1  0  0  0  0
 19 26  1  0  0  0  0
 19 20  1  0  0  0  0
 21 19  1  0  0  0  0
 22 23  1  0  0  0  0
 23 29  1  0  0  0  0
 23 24  2  0  0  0  0
 24 30  1  0  0  0  0
 25 24  1  0  0  0  0
 26 25  2  0  0  0  0
 27 26  1  0  0  0  0
 27 22  2  0  0  0  0
 28 22  1  0  0  0  0
 30 33  1  0  0  0  0
 30 31  1  0  0  0  0
 30 32  1  0  0  0  0
M  END
>  <minimizedAffinity>
-5.99798393

$$$$

 OpenBabel03242515153D

 33 35  0  0  0  0  0  0  0  0999 V2000
   36.0350   29.4220   39.4020 C   0  0  0  0  0  0  0  0  0  0  0  0
   36.4430   28.4230   39.2770 H   0  0  0  0  0  0  0  0  0  0  0  0
   35.0860   29.5310   38.8090 H   0  0  0  0  0  0  0  0  0  0  0  0
   36.9750   30.4830   38.9870 C   0  0  0  0  0  0  0  0  0  0  0  0
   37.3910   30.8590   37.7420 C   0  0  0  0  0  0  0  0  0  0  0  0
   38.2720   31.9010   37.9120 C   0  0  0  0  0  0  0  0  0  0  0  0
   38.3800   32.1430   39.2230 N   0  0  0  0  0  0  0  0  0  0  0  0
   37.5910   31.2780   39.8530 N   0  0  0  0  0  0  0  0  0  0  0  0
   37.0300   30.3590   36.8520 H   0  0  0  0  0  0  0  0  0  0  0  0
   38.7340   32.3660   37.0500 H   0  0  0  0  0  0  0  0  0  0  0  0
   39.2330   33.1810   39.6950 C   0  0  0  0  0  0  0  0  0  0  0  0
   40.5130   33.5480   39.3320 C   0  0  0  0  0  0  0  0  0  0  0  0
   41.0450   33.0000   38.5510 H   0  0  0  0  0  0  0  0  0  0  0  0
   40.8610   34.6450   40.1300 C   0  0  0  0  0  0  0  0  0  0  0  0
   41.8360   35.1120   40.0220 H   0  0  0  0  0  0  0  0  0  0  0  0
   39.7980   34.9100   40.9440 N   0  0  0  0  0  0  0  0  0  0  0  0
   39.8120   35.6900   41.6370 H   0  0  0  0  0  0  0  0  0  0  0  0
   38.8410   34.0270   40.6680 N   0  0  0  0  0  0  0  0  0  0  0  0
   35.6780   29.5670   40.8570 C   0  0  0  0  0  0  0  0  0  0  0  0
   35.7860   30.6270   41.2110 H   0  0  0  0  0  0  0  0  0  0  0  0
   34.6300   29.2310   40.9690 H   0  0  0  0  0  0  0  0  0  0  0  0
   38.1300   28.3660   43.4160 C   0  0  0  0  0  0  0  0  0  0  0  0
   38.1690   26.9880   43.0980 C   0  0  0  0  0  0  0  0  0  0  0  0
   37.3650   26.5620   42.0410 C   0  0  0  0  0  0  0  0  0  0  0  0
   36.6140   27.4910   41.4060 N   0  0  0  0  0  0  0  0  0  0  0  0
   36.6100   28.7920   41.7460 C   0  0  0  0  0  0  0  0  0  0  0  0
   37.3670   29.2310   42.7490 N   0  0  0  0  0  0  0  0  0  0  0  0
   38.7390   28.7460   44.2310 H   0  0  0  0  0  0  0  0  0  0  0  0
   38.8250   26.3510   43.6980 H   0  0  0  0  0  0  0  0  0  0  0  0
   37.4120   25.1410   41.7200 C   0  0  0  0  0  0  0  0  0  0  0  0
   38.6590   24.6260   42.0440 F   0  0  0  0  0  0  0  0  0  0  0  0
   37.3230   25.0440   40.3370 F   0  0  0  0  0  0  0  0  0  0  0  0
   36.4480   24.4130   42.3720 F   0  0  0  0  0  0  0  0  0  0  0  0
  1 19  1  0  0  0  0
  2  1  1  0  0  0  0
  3  1  1  0  0  0  0
  4  1  1  0  0  0  0
  4  8  2  0  0  0  0
  5  6  2  0  0  0  0
  5  4  1  0  0  0  0
  6  7  1  0  0  0  0
  7 11  1  0  0  0  0
  7  8  1  0  0  0  0
  9  5  1  0  0  0  0
 10  6  1  0  0  0  0
 11 18  2  0  0  0  0
 12 11  1  0  0  0  0
 12 14  2  0  0  0  0
 13 12  1  0  0  0  0
 14 16  1  0  0  0  0
 15 14  1  0  0  0  0
 16 17  1  0  0  0  0
 18 16  1  0  0  0  0
 19 21  1  0  0  0  0
 19 20  1  0  0  0  0
 19 26  1  0  0  0  0
 22 28  1  0  0  0  0
 23 22  1  0  0  0  0
 23 29  1  0  0  0  0
 24 23  2  0  0  0  0
 25 26  2  0  0  0  0
 25 24  1  0  0  0  0
 26 27  1  0  0  0  0
 27 22  2  0  0  0  0
 30 24  1  0  0  0  0
 30 31  1  0  0  0  0
 30 33  1  0  0  0  0
 32 30  1  0  0  0  0
M  END
>  <minimizedAffinity>
-5.78089333

$$$$

 OpenBabel03242515153D

 33 35  0  0  0  0  0  0  0  0999 V2000
   36.6810   28.5030   42.3770 C   0  0  0  0  0  0  0  0  0  0  0  0
   36.7000   27.6370   41.7220 H   0  0  0  0  0  0  0  0  0  0  0  0
   35.6680   28.6080   42.8520 H   0  0  0  0  0  0  0  0  0  0  0  0
   37.0050   29.7610   41.6740 C   0  0  0  0  0  0  0  0  0  0  0  0
   36.1920   30.6490   41.0280 C   0  0  0  0  0  0  0  0  0  0  0  0
   36.9990   31.6530   40.5460 C   0  0  0  0  0  0  0  0  0  0  0  0
   38.2610   31.3750   40.8940 N   0  0  0  0  0  0  0  0  0  0  0  0
   38.2420   30.2310   41.5720 N   0  0  0  0  0  0  0  0  0  0  0  0
   35.1220   30.4920   40.9670 H   0  0  0  0  0  0  0  0  0  0  0  0
   36.5660   32.4770   39.9930 H   0  0  0  0  0  0  0  0  0  0  0  0
   39.3180   32.2520   40.5240 C   0  0  0  0  0  0  0  0  0  0  0  0
   39.5920   32.9060   39.3390 C   0  0  0  0  0  0  0  0  0  0  0  0
   38.9330   32.7870   38.4770 H   0  0  0  0  0  0  0  0  0  0  0  0
   40.7670   33.6390   39.5450 C   0  0  0  0  0  0  0  0  0  0  0  0
   41.1830   34.2420   38.7420 H   0  0  0  0  0  0  0  0  0  0  0  0
   41.1690   33.4140   40.8300 N   0  0  0  0  0  0  0  0  0  0  0  0
   42.0280   33.8550   41.2270 H   0  0  0  0  0  0  0  0  0  0  0  0
   40.2930   32.5860   41.3930 N   0  0  0  0  0  0  0  0  0  0  0  0
   37.6730   28.2380   43.4770 C   0  0  0  0  0  0  0  0  0  0  0  0
   38.4940   29.0030   43.4940 H   0  0  0  0  0  0  0  0  0  0  0  0
   37.1120   28.2580   44.4310 H   0  0  0  0  0  0  0  0  0  0  0  0
   40.0110   25.3170   43.5160 C   0  0  0  0  0  0  0  0  0  0  0  0
   39.3420   24.4490   42.6210 C   0  0  0  0  0  0  0  0  0  0  0  0
   38.1500   24.9120   42.0660 C   0  0  0  0  0  0  0  0  0  0  0  0
   37.7250   26.1460   42.4250 N   0  0  0  0  0  0  0  0  0  0  0  0
   38.3960   26.9360   43.2820 C   0  0  0  0  0  0  0  0  0  0  0  0
   39.5380   26.5230   43.8280 N   0  0  0  0  0  0  0  0  0  0  0  0
   40.9440   25.0020   43.9730 H   0  0  0  0  0  0  0  0  0  0  0  0
   39.8040   23.4780   42.4220 H   0  0  0  0  0  0  0  0  0  0  0  0
   37.4690   24.0120   41.1440 C   0  0  0  0  0  0  0  0  0  0  0  0
   37.4890   24.5460   39.8640 F   0  0  0  0  0  0  0  0  0  0  0  0
   36.1300   24.0020   41.5170 F   0  0  0  0  0  0  0  0  0  0  0  0
   38.0250   22.7580   41.1110 F   0  0  0  0  0  0  0  0  0  0  0  0
  1  3  1  0  0  0  0
  1 19  1  0  0  0  0
  2  1  1  0  0  0  0
  4  1  1  0  0  0  0
  5  4  1  0  0  0  0
  6  7  1  0  0  0  0
  6  5  2  0  0  0  0
  7  8  1  0  0  0  0
  8  4  2  0  0  0  0
  9  5  1  0  0  0  0
 10  6  1  0  0  0  0
 11  7  1  0  0  0  0
 11 18  2  0  0  0  0
 12 14  2  0  0  0  0
 12 11  1  0  0  0  0
 13 12  1  0  0  0  0
 14 16  1  0  0  0  0
 15 14  1  0  0  0  0
 16 17  1  0  0  0  0
 16 18  1  0  0  0  0
 19 20  1  0  0  0  0
 19 21  1  0  0  0  0
 22 27  1  0  0  0  0
 22 28  1  0  0  0  0
 23 22  2  0  0  0  0
 24 25  2  0  0  0  0
 24 23  1  0  0  0  0
 25 26  1  0  0  0  0
 26 19  1  0  0  0  0
 26 27  2  0  0  0  0
 29 23  1  0  0  0  0
 30 32  1  0  0  0  0
 30 24  1  0  0  0  0
 31 30  1  0  0  0  0
 33 30  1  0  0  0  0
M  END
>  <minimizedAffinity>
-5.73668051

$$$$

 OpenBabel03242515153D

 33 35  0  0  0  0  0  0  0  0999 V2000
   36.7430   30.3050   39.1360 C   0  0  0  0  0  0  0  0  0  0  0  0
   37.3990   29.4660   38.9210 H   0  0  0  0  0  0  0  0  0  0  0  0
   36.0910   30.5250   38.2470 H   0  0  0  0  0  0  0  0  0  0  0  0
   37.4820   31.5330   39.4940 C   0  0  0  0  0  0  0  0  0  0  0  0
   37.0550   32.8260   39.5920 C   0  0  0  0  0  0  0  0  0  0  0  0
   38.1440   33.5810   39.9590 C   0  0  0  0  0  0  0  0  0  0  0  0
   39.1950   32.7620   40.0780 N   0  0  0  0  0  0  0  0  0  0  0  0
   38.7750   31.5330   39.7940 N   0  0  0  0  0  0  0  0  0  0  0  0
   36.0250   33.0960   39.3930 H   0  0  0  0  0  0  0  0  0  0  0  0
   38.0410   34.6500   40.0980 H   0  0  0  0  0  0  0  0  0  0  0  0
   40.4690   33.2770   40.4520 C   0  0  0  0  0  0  0  0  0  0  0  0
   41.1560   34.4020   40.0450 C   0  0  0  0  0  0  0  0  0  0  0  0
   40.7210   35.0780   39.3060 H   0  0  0  0  0  0  0  0  0  0  0  0
   42.3680   34.4120   40.7470 C   0  0  0  0  0  0  0  0  0  0  0  0
   43.0840   35.2130   40.5890 H   0  0  0  0  0  0  0  0  0  0  0  0
   42.3830   33.3080   41.5490 N   0  0  0  0  0  0  0  0  0  0  0  0
   43.1890   33.0900   42.1770 H   0  0  0  0  0  0  0  0  0  0  0  0
   41.2440   32.6470   41.3580 N   0  0  0  0  0  0  0  0  0  0  0  0
   35.8440   29.8780   40.2630 C   0  0  0  0  0  0  0  0  0  0  0  0
   35.4040   30.7570   40.8050 H   0  0  0  0  0  0  0  0  0  0  0  0
   35.0390   29.2610   39.8200 H   0  0  0  0  0  0  0  0  0  0  0  0
   37.8370   28.7700   43.2290 C   0  0  0  0  0  0  0  0  0  0  0  0
   37.8340   27.3700   43.0250 C   0  0  0  0  0  0  0  0  0  0  0  0
   37.1590   26.8990   41.8990 C   0  0  0  0  0  0  0  0  0  0  0  0
   36.5630   27.8100   41.0950 N   0  0  0  0  0  0  0  0  0  0  0  0
   36.5930   29.1330   41.3320 C   0  0  0  0  0  0  0  0  0  0  0  0
   37.2290   29.6140   42.3970 N   0  0  0  0  0  0  0  0  0  0  0  0
   38.3500   29.1850   44.0920 H   0  0  0  0  0  0  0  0  0  0  0  0
   38.3590   26.7520   43.7580 H   0  0  0  0  0  0  0  0  0  0  0  0
   37.1610   25.4560   41.6950 C   0  0  0  0  0  0  0  0  0  0  0  0
   36.3480   24.8460   42.6400 F   0  0  0  0  0  0  0  0  0  0  0  0
   38.4490   25.0180   41.9800 F   0  0  0  0  0  0  0  0  0  0  0  0
   36.7370   25.0910   40.4420 F   0  0  0  0  0  0  0  0  0  0  0  0
  1  4  1  0  0  0  0
  1 19  1  0  0  0  0
  2  1  1  0  0  0  0
  3  1  1  0  0  0  0
  4  5  1  0  0  0  0
  4  8  2  0  0  0  0
  5  6  2  0  0  0  0
  6  7  1  0  0  0  0
  6 10  1  0  0  0  0
  7 11  1  0  0  0  0
  8  7  1  0  0  0  0
  9  5  1  0  0  0  0
 11 18  2  0  0  0  0
 12 11  1  0  0  0  0
 12 14  2  0  0  0  0
 13 12  1  0  0  0  0
 14 16  1  0  0  0  0
 15 14  1  0  0  0  0
 16 17  1  0  0  0  0
 18 16  1  0  0  0  0
 19 20  1  0  0  0  0
 19 26  1  0  0  0  0
 21 19  1  0  0  0  0
 22 28  1  0  0  0  0
 23 22  1  0  0  0  0
 23 29  1  0  0  0  0
 24 23  2  0  0  0  0
 25 26  2  0  0  0  0
 25 24  1  0  0  0  0
 26 27  1  0  0  0  0
 27 22  2  0  0  0  0
 30 24  1  0  0  0  0
 30 32  1  0  0  0  0
 30 31  1  0  0  0  0
 33 30  1  0  0  0  0
M  END
>  <minimizedAffinity>
-5.72700119

$$$$

 OpenBabel03242515153D

 33 35  0  0  0  0  0  0  0  0999 V2000
   36.3740   30.8420   40.7640 C   0  0  0  0  0  0  0  0  0  0  0  0
   35.5660   31.5050   41.0610 H   0  0  0  0  0  0  0  0  0  0  0  0
   37.2900   31.0460   41.3820 H   0  0  0  0  0  0  0  0  0  0  0  0
   36.7280   30.9730   39.3360 C   0  0  0  0  0  0  0  0  0  0  0  0
   37.4220   31.9510   38.6830 C   0  0  0  0  0  0  0  0  0  0  0  0
   37.4710   31.5890   37.3570 C   0  0  0  0  0  0  0  0  0  0  0  0
   36.8250   30.4260   37.2200 N   0  0  0  0  0  0  0  0  0  0  0  0
   36.3850   30.0720   38.4240 N   0  0  0  0  0  0  0  0  0  0  0  0
   37.8160   32.8110   39.2100 H   0  0  0  0  0  0  0  0  0  0  0  0
   37.9780   32.2230   36.6410 H   0  0  0  0  0  0  0  0  0  0  0  0
   36.7180   29.8090   35.9420 C   0  0  0  0  0  0  0  0  0  0  0  0
   36.4300   30.3290   34.6960 C   0  0  0  0  0  0  0  0  0  0  0  0
   36.2340   31.3960   34.5750 H   0  0  0  0  0  0  0  0  0  0  0  0
   36.4590   29.2590   33.7940 C   0  0  0  0  0  0  0  0  0  0  0  0
   36.2590   29.4280   32.7390 H   0  0  0  0  0  0  0  0  0  0  0  0
   36.7610   28.1340   34.5060 N   0  0  0  0  0  0  0  0  0  0  0  0
   36.8430   27.1970   34.0530 H   0  0  0  0  0  0  0  0  0  0  0  0
   36.9110   28.4840   35.7800 N   0  0  0  0  0  0  0  0  0  0  0  0
   35.9210   29.4410   41.0730 C   0  0  0  0  0  0  0  0  0  0  0  0
   35.0160   29.4300   41.7370 H   0  0  0  0  0  0  0  0  0  0  0  0
   35.6920   28.9530   40.1070 H   0  0  0  0  0  0  0  0  0  0  0  0
   38.7120   28.2740   43.2760 C   0  0  0  0  0  0  0  0  0  0  0  0
   38.6260   26.8770   43.0700 C   0  0  0  0  0  0  0  0  0  0  0  0
   37.6320   26.4270   42.2020 C   0  0  0  0  0  0  0  0  0  0  0  0
   36.8310   27.3550   41.6270 N   0  0  0  0  0  0  0  0  0  0  0  0
   36.9510   28.6750   41.8540 C   0  0  0  0  0  0  0  0  0  0  0  0
   37.8910   29.1350   42.6770 N   0  0  0  0  0  0  0  0  0  0  0  0
   39.4700   28.6720   43.9430 H   0  0  0  0  0  0  0  0  0  0  0  0
   39.3420   26.2440   43.6020 H   0  0  0  0  0  0  0  0  0  0  0  0
   37.5500   24.9870   41.9950 C   0  0  0  0  0  0  0  0  0  0  0  0
   38.4770   24.3420   42.8020 F   0  0  0  0  0  0  0  0  0  0  0  0
   37.9700   24.7500   40.6920 F   0  0  0  0  0  0  0  0  0  0  0  0
   36.3030   24.4780   42.2580 F   0  0  0  0  0  0  0  0  0  0  0  0
  1  2  1  0  0  0  0
  1 19  1  0  0  0  0
  1  3  1  0  0  0  0
  4  1  1  0  0  0  0
  5  9  1  0  0  0  0
  5  4  1  0  0  0  0
  6  5  2  0  0  0  0
  7  6  1  0  0  0  0
  7  8  1  0  0  0  0
  8  4  2  0  0  0  0
 10  6  1  0  0  0  0
 11  7  1  0  0  0  0
 12 11  1  0  0  0  0
 13 12  1  0  0  0  0
 14 16  1  0  0  0  0
 14 12  2  0  0  0  0
 15 14  1  0  0  0  0
 16 18  1  0  0  0  0
 17 16  1  0  0  0  0
 18 11  2  0  0  0  0
 19 20  1  0  0  0  0
 19 26  1  0  0  0  0
 21 19  1  0  0  0  0
 22 28  1  0  0  0  0
 23 22  1  0  0  0  0
 23 29  1  0  0  0  0
 24 23  2  0  0  0  0
 25 26  2  0  0  0  0
 25 24  1  0  0  0  0
 26 27  1  0  0  0  0
 27 22  2  0  0  0  0
 30 24  1  0  0  0  0
 30 33  1  0  0  0  0
 30 31  1  0  0  0  0
 32 30  1  0  0  0  0
M  END
>  <minimizedAffinity>
-5.65891838

$$$$

 OpenBabel03242515153D

 33 35  0  0  0  0  0  0  0  0999 V2000
   38.2670   29.5600   42.8030 C   0  0  0  0  0  0  0  0  0  0  0  0
   38.2640   30.4140   43.4750 H   0  0  0  0  0  0  0  0  0  0  0  0
   39.3220   29.2440   42.5820 H   0  0  0  0  0  0  0  0  0  0  0  0
   37.5790   29.8340   41.5250 C   0  0  0  0  0  0  0  0  0  0  0  0
   36.5260   30.6580   41.2450 C   0  0  0  0  0  0  0  0  0  0  0  0
   36.2760   30.5450   39.8980 C   0  0  0  0  0  0  0  0  0  0  0  0
   37.1540   29.6760   39.3840 N   0  0  0  0  0  0  0  0  0  0  0  0
   37.9300   29.2600   40.3810 N   0  0  0  0  0  0  0  0  0  0  0  0
   36.0510   31.2480   42.0190 H   0  0  0  0  0  0  0  0  0  0  0  0
   35.4740   31.1150   39.4460 H   0  0  0  0  0  0  0  0  0  0  0  0
   37.1280   29.3630   37.9960 C   0  0  0  0  0  0  0  0  0  0  0  0
   36.0800   29.0960   37.1380 C   0  0  0  0  0  0  0  0  0  0  0  0
   35.0510   29.1040   37.5040 H   0  0  0  0  0  0  0  0  0  0  0  0
   36.6400   28.8540   35.8780 C   0  0  0  0  0  0  0  0  0  0  0  0
   36.0010   28.6190   35.0320 H   0  0  0  0  0  0  0  0  0  0  0  0
   37.9930   28.9790   36.0030 N   0  0  0  0  0  0  0  0  0  0  0  0
   38.6390   28.8450   35.1940 H   0  0  0  0  0  0  0  0  0  0  0  0
   38.2610   29.2820   37.2710 N   0  0  0  0  0  0  0  0  0  0  0  0
   37.5980   28.4280   43.5340 C   0  0  0  0  0  0  0  0  0  0  0  0
   37.5980   28.5900   44.6450 H   0  0  0  0  0  0  0  0  0  0  0  0
   36.5590   28.3670   43.1580 H   0  0  0  0  0  0  0  0  0  0  0  0
   39.9640   25.5300   43.6120 C   0  0  0  0  0  0  0  0  0  0  0  0
   39.3010   24.6430   42.7300 C   0  0  0  0  0  0  0  0  0  0  0  0
   38.1030   25.0860   42.1720 C   0  0  0  0  0  0  0  0  0  0  0  0
   37.6680   26.3220   42.5130 N   0  0  0  0  0  0  0  0  0  0  0  0
   38.3330   27.1300   43.3570 C   0  0  0  0  0  0  0  0  0  0  0  0
   39.4800   26.7360   43.9060 N   0  0  0  0  0  0  0  0  0  0  0  0
   40.9000   25.2300   44.0710 H   0  0  0  0  0  0  0  0  0  0  0  0
   39.7710   23.6730   42.5450 H   0  0  0  0  0  0  0  0  0  0  0  0
   37.4280   24.1670   41.2650 C   0  0  0  0  0  0  0  0  0  0  0  0
   37.3690   24.7180   39.9930 F   0  0  0  0  0  0  0  0  0  0  0  0
   36.1090   24.0860   41.6920 F   0  0  0  0  0  0  0  0  0  0  0  0
   38.0430   22.9420   41.1890 F   0  0  0  0  0  0  0  0  0  0  0  0
  1  2  1  0  0  0  0
  1 19  1  0  0  0  0
  3  1  1  0  0  0  0
  4  1  1  0  0  0  0
  5  4  1  0  0  0  0
  5  9  1  0  0  0  0
  6  5  2  0  0  0  0
  7  6  1  0  0  0  0
  7  8  1  0  0  0  0
  8  4  2  0  0  0  0
 10  6  1  0  0  0  0
 11  7  1  0  0  0  0
 12 13  1  0  0  0  0
 12 11  1  0  0  0  0
 14 16  1  0  0  0  0
 14 12  2  0  0  0  0
 15 14  1  0  0  0  0
 16 18  1  0  0  0  0
 17 16  1  0  0  0  0
 18 11  2  0  0  0  0
 19 20  1  0  0  0  0
 21 19  1  0  0  0  0
 22 27  1  0  0  0  0
 22 28  1  0  0  0  0
 23 22  2  0  0  0  0
 24 25  2  0  0  0  0
 24 23  1  0  0  0  0
 25 26  1  0  0  0  0
 26 19  1  0  0  0  0
 26 27  2  0  0  0  0
 29 23  1  0  0  0  0
 30 32  1  0  0  0  0
 30 24  1  0  0  0  0
 31 30  1  0  0  0  0
 33 30  1  0  0  0  0
M  END
>  <minimizedAffinity>
-5.65033197

$$$$
