
     RDKit          3D

 31 34  0  0  0  0  0  0  0  0999 V2000
   47.7094   33.4875   40.1364 C   0  0  0  0  0  0  0  0  0  0  0  0
   49.0512   33.2240   40.3867 C   0  0  0  0  0  0  0  0  0  0  0  0
   49.5087   33.3060   41.7243 C   0  0  0  0  0  0  0  0  0  0  0  0
   48.5844   33.6410   42.6708 N   0  0  0  0  0  0  0  0  0  0  0  0
   47.2848   33.8888   42.3750 C   0  0  0  0  0  0  0  0  0  0  0  0
   46.8615   33.8097   41.1137 N   0  0  0  0  0  0  0  0  0  0  0  0
   46.4157   34.2315   43.4481 N   0  0  0  0  0  0  0  0  0  0  0  0
   45.5018   35.2347   43.4344 C   0  0  0  0  0  0  0  0  0  0  0  0
   44.8733   35.2443   44.6450 N   0  0  0  0  0  0  0  0  0  0  0  0
   45.4110   34.2559   45.3669 C   0  0  0  0  0  0  0  0  0  0  0  0
   45.1986   33.7806   46.6356 C   0  0  0  0  0  0  0  0  0  0  0  0
   45.8805   32.7571   47.1389 N   0  0  0  0  0  0  0  0  0  0  0  0
   46.8351   32.1101   46.4330 C   0  0  0  0  0  0  0  0  0  0  0  0
   47.0326   32.5914   45.1833 N   0  0  0  0  0  0  0  0  0  0  0  0
   46.3852   33.6047   44.6312 C   0  0  0  0  0  0  0  0  0  0  0  0
   44.2410   34.3436   47.5051 N   0  0  0  0  0  0  0  0  0  0  0  0
   47.2191   33.3653   38.3956 S   0  0  0  0  0  0  0  0  0  0  0  0
   49.8099   32.9561   39.6620 H   0  0  0  0  0  0  0  0  0  0  0  0
   50.5302   33.1126   41.9676 H   0  0  0  0  0  0  0  0  0  0  0  0
   45.2646   35.9384   42.6359 H   0  0  0  0  0  0  0  0  0  0  0  0
   47.3934   31.2766   46.8369 H   0  0  0  0  0  0  0  0  0  0  0  0
   43.4048   33.8757   47.9462 H   0  0  0  0  0  0  0  0  0  0  0  0
   44.4455   35.3630   47.6974 H   0  0  0  0  0  0  0  0  0  0  0  0
   48.6616   32.9200   37.4419 C   0  0  0  0  0  0  0  0  0  0  0  0
   49.8961   32.7307   38.0734 C   0  0  0  0  0  0  0  0  0  0  0  0
   50.2187   32.7982   39.1210 H   0  0  0  0  0  0  0  0  0  0  0  0
   50.8402   32.3926   37.0971 C   0  0  0  0  0  0  0  0  0  0  0  0
   51.8897   32.1639   37.1222 H   0  0  0  0  0  0  0  0  0  0  0  0
   50.1442   32.3906   35.9213 N   0  0  0  0  0  0  0  0  0  0  0  0
   50.5002   32.1823   34.9435 H   0  0  0  0  0  0  0  0  0  0  0  0
   48.8616   32.6993   36.1105 N   0  0  0  0  0  0  0  0  0  0  0  0
  1  2  2  0
  1  6  1  0
  2  3  1  0
  3  4  2  0
  5  4  1  0
  5  7  1  0
  6  5  2  0
  7 15  1  0
  8  7  1  0
  8  9  2  0
  9 10  1  0
 10 11  2  0
 11 12  1  0
 11 16  1  0
 13 12  2  0
 14 13  1  0
 15 14  2  0
 15 10  1  0
 17  1  1  0
  2 18  1  0
  3 19  1  0
  8 20  1  0
 13 21  1  0
 16 22  1  0
 16 23  1  0
 24 25  1  0
 25 26  1  0
 25 27  2  0
 27 28  1  0
 27 29  1  0
 29 30  1  0
 29 31  1  0
 31 24  2  0
 17 24  1  0
M  ISO  7  18  14  19  14  20  14  21  14  26  15  28  16  30   5
M  END
>  <DihAtoms>  (1) 
0,16,23,24

>  <DihDeg>  (1) 
-90.00063495640936

$$$$
