
 OpenBabel03242518283D

 20 21  0  0  0  0  0  0  0  0999 V2000
   47.8650   33.9370   42.3910 C   0  0  0  0  0  0  0  0  0  0  0  0
   48.6270   34.4560   43.2400 O   0  0  0  0  0  0  0  0  0  0  0  0
   48.1400   33.6560   41.0260 C   0  0  0  0  0  0  0  0  0  0  0  0
   48.9060   32.5030   40.8460 C   0  0  0  0  0  0  0  0  0  0  0  0
   49.2230   32.1560   39.5190 C   0  0  0  0  0  0  0  0  0  0  0  0
   48.7690   32.9510   38.5070 N   0  0  0  0  0  0  0  0  0  0  0  0
   48.0280   34.0600   38.7530 C   0  0  0  0  0  0  0  0  0  0  0  0
   47.7180   34.4030   40.0160 N   0  0  0  0  0  0  0  0  0  0  0  0
   49.2800   31.8530   41.6200 H   0  0  0  0  0  0  0  0  0  0  0  0
   49.8080   31.2850   39.2770 H   0  0  0  0  0  0  0  0  0  0  0  0
   47.7400   34.5910   37.8540 H   0  0  0  0  0  0  0  0  0  0  0  0
   46.5800   33.5870   42.8330 O   0  0  0  0  0  0  0  0  0  0  0  0
   45.8000   34.5650   43.4860 C   0  0  0  0  0  0  0  0  0  0  0  0
   45.2080   34.5280   44.7320 C   0  0  0  0  0  0  0  0  0  0  0  0
   45.2930   33.6670   45.3900 H   0  0  0  0  0  0  0  0  0  0  0  0
   44.5660   35.7420   44.8760 C   0  0  0  0  0  0  0  0  0  0  0  0
   44.0030   36.0020   45.7740 H   0  0  0  0  0  0  0  0  0  0  0  0
   44.7680   36.4790   43.7480 N   0  0  0  0  0  0  0  0  0  0  0  0
   44.3410   37.4310   43.7030 H   0  0  0  0  0  0  0  0  0  0  0  0
   45.5170   35.7670   42.9030 N   0  0  0  0  0  0  0  0  0  0  0  0
  1 12  1  0  0  0  0
  1  2  2  0  0  0  0
  3  1  1  0  0  0  0
  4  3  1  0  0  0  0
  4  9  1  0  0  0  0
  5  4  2  0  0  0  0
  6  7  2  0  0  0  0
  6  5  1  0  0  0  0
  7  8  1  0  0  0  0
  8  3  2  0  0  0  0
 10  5  1  0  0  0  0
 11  7  1  0  0  0  0
 12 13  1  0  0  0  0
 13 14  1  0  0  0  0
 14 16  2  0  0  0  0
 14 15  1  0  0  0  0
 16 17  1  0  0  0  0
 18 16  1  0  0  0  0
 19 18  1  0  0  0  0
 20 13  2  0  0  0  0
 20 18  1  0  0  0  0
M  END
>  <minimizedAffinity>
-3.85981393

>  <minimizedRMSD>
5.58169746

$$$$
