
 OpenBabel03252500443D

 33 35  0  0  1  0  0  0  0  0999 V2000
   47.7090   35.3060   41.9320 C   0  0  1  0  0  0  0  0  0  0  0  0
   49.2150   35.4940   41.7620 C   0  0  0  0  0  0  0  0  0  0  0  0
   48.3510   35.0670   40.5970 C   0  0  1  0  0  0  0  0  0  0  0  0
   47.2150   36.2860   42.1190 H   0  0  0  0  0  0  0  0  0  0  0  0
   49.6590   36.4900   41.7800 H   0  0  0  0  0  0  0  0  0  0  0  0
   49.8570   34.7010   42.2000 H   0  0  0  0  0  0  0  0  0  0  0  0
   48.2230   35.8720   39.8380 H   0  0  0  0  0  0  0  0  0  0  0  0
   47.2780   34.0920   42.6510 C   0  0  0  0  0  0  0  0  0  0  0  0
   48.1150   33.4240   42.9400 H   0  0  0  0  0  0  0  0  0  0  0  0
   46.6850   33.4730   41.9140 H   0  0  0  0  0  0  0  0  0  0  0  0
   46.3700   34.3340   43.7810 C   0  0  0  0  0  0  0  0  0  0  0  0
   45.5180   35.3880   43.5910 C   0  0  0  0  0  0  0  0  0  0  0  0
   44.6060   35.7490   44.5900 C   0  0  0  0  0  0  0  0  0  0  0  0
   44.6420   34.9780   45.7320 N   0  0  0  0  0  0  0  0  0  0  0  0
   45.4880   33.9420   45.9010 C   0  0  0  0  0  0  0  0  0  0  0  0
   46.3370   33.6360   44.9300 N   0  0  0  0  0  0  0  0  0  0  0  0
   45.3270   36.0890   42.7910 H   0  0  0  0  0  0  0  0  0  0  0  0
   43.8720   36.5380   44.6120 H   0  0  0  0  0  0  0  0  0  0  0  0
   45.4190   33.4150   46.8420 H   0  0  0  0  0  0  0  0  0  0  0  0
   48.4640   33.7640   40.1870 O   0  0  0  0  0  0  0  0  0  0  0  0
   48.4840   34.6770   37.6780 O   0  0  0  0  0  0  0  0  0  0  0  0
   48.0140   33.5430   38.5730 P   0  0  1  0  0  0  0  0  0  0  0  0
   48.7690   32.1160   38.0070 O   0  0  0  0  0  0  0  0  0  0  0  0
   49.6270   31.9650   38.4740 H   0  0  0  0  0  0  0  0  0  0  0  0
   46.3440   33.3390   38.4940 O   0  0  0  0  0  0  0  0  0  0  0  0
   45.6200   32.8540   39.5740 C   0  0  0  0  0  0  0  0  0  0  0  0
   45.5000   31.7230   40.3540 C   0  0  0  0  0  0  0  0  0  0  0  0
   46.1640   30.9160   40.0820 H   0  0  0  0  0  0  0  0  0  0  0  0
   44.5050   32.0110   41.2910 C   0  0  0  0  0  0  0  0  0  0  0  0
   44.2810   31.2110   41.9980 H   0  0  0  0  0  0  0  0  0  0  0  0
   44.0580   33.2680   41.0670 N   0  0  0  0  0  0  0  0  0  0  0  0
   43.3050   33.6550   41.6770 H   0  0  0  0  0  0  0  0  0  0  0  0
   44.7380   33.7670   40.0280 N   0  0  0  0  0  0  0  0  0  0  0  0
  1  4  1  1  0  0  0
  1  8  1  0  0  0  0
  2  5  1  0  0  0  0
  2  1  1  0  0  0  0
  2  6  1  0  0  0  0
  3  7  1  6  0  0  0
  3  2  1  0  0  0  0
  3  1  1  0  0  0  0
  8  9  1  0  0  0  0
  8 11  1  0  0  0  0
 10  8  1  0  0  0  0
 11 16  1  0  0  0  0
 12 11  2  0  0  0  0
 12 13  1  0  0  0  0
 13 18  1  0  0  0  0
 13 14  2  0  0  0  0
 14 15  1  0  0  0  0
 15 19  1  0  0  0  0
 16 15  2  0  0  0  0
 17 12  1  0  0  0  0
 20  3  1  0  0  0  0
 22 21  2  6  0  0  0
 22 20  1  0  0  0  0
 23 24  1  0  0  0  0
 23 22  1  0  0  0  0
 25 22  1  0  0  0  0
 25 26  1  0  0  0  0
 26 33  2  0  0  0  0
 26 27  1  0  0  0  0
 27 29  2  0  0  0  0
 28 27  1  0  0  0  0
 29 30  1  0  0  0  0
 31 29  1  0  0  0  0
 31 32  1  0  0  0  0
 33 31  1  0  0  0  0
M  END
>  <minimizedAffinity>
-4.65100241

>  <minimizedRMSD>
2.39597583

$$$$
