
 OpenBabel03252506153D

 38 40  0  0  0  0  0  0  0  0999 V2000
   45.3450   33.3930   41.0670 F   0  0  0  0  0  0  0  0  0  0  0  0
   46.4740   34.0500   40.9370 C   0  0  0  0  0  0  0  0  0  0  0  0
   46.9080   34.8360   41.9970 C   0  0  0  0  0  0  0  0  0  0  0  0
   48.1020   35.5830   41.9700 C   0  0  0  0  0  0  0  0  0  0  0  0
   48.8980   35.5310   40.8150 C   0  0  0  0  0  0  0  0  0  0  0  0
   48.4320   34.7410   39.7920 C   0  0  0  0  0  0  0  0  0  0  0  0
   47.2890   34.0220   39.8060 C   0  0  0  0  0  0  0  0  0  0  0  0
   48.3740   36.1760   42.8420 H   0  0  0  0  0  0  0  0  0  0  0  0
   49.8020   36.1190   40.8420 H   0  0  0  0  0  0  0  0  0  0  0  0
   49.1500   34.7920   38.9690 H   0  0  0  0  0  0  0  0  0  0  0  0
   45.5280   33.9540   45.2750 C   0  0  0  0  0  0  0  0  0  0  0  0
   44.6620   35.0480   45.5330 C   0  0  0  0  0  0  0  0  0  0  0  0
   44.5630   36.0860   44.5640 C   0  0  0  0  0  0  0  0  0  0  0  0
   45.3210   35.9580   43.4330 N   0  0  0  0  0  0  0  0  0  0  0  0
   46.1170   34.9220   43.2310 C   0  0  0  0  0  0  0  0  0  0  0  0
   46.2210   33.9280   44.1410 N   0  0  0  0  0  0  0  0  0  0  0  0
   44.0680   35.1530   46.4160 H   0  0  0  0  0  0  0  0  0  0  0  0
   43.9130   36.9330   44.7290 H   0  0  0  0  0  0  0  0  0  0  0  0
   45.6040   32.9480   46.2510 N   0  0  0  0  0  0  0  0  0  0  0  0
   46.6110   32.9380   46.5890 H   0  0  0  0  0  0  0  0  0  0  0  0
   44.7680   32.3790   46.5160 H   0  0  0  0  0  0  0  0  0  0  0  0
   46.9270   33.2720   38.7250 O   0  0  0  0  0  0  0  0  0  0  0  0
   48.2670   33.7810   36.5010 O   0  0  0  0  0  0  0  0  0  0  0  0
   47.9260   32.6960   37.5090 P   0  0  2  0  0  0  0  0  0  0  0  0
   47.1710   31.4020   36.7080 O   0  0  0  0  0  0  0  0  0  0  0  0
   46.0570   31.5230   35.8920 C   0  0  0  0  0  0  0  0  0  0  0  0
   44.9590   30.6870   36.1190 C   0  0  0  0  0  0  0  0  0  0  0  0
   44.7360   29.8950   36.8370 H   0  0  0  0  0  0  0  0  0  0  0  0
   44.0370   31.0600   35.1470 C   0  0  0  0  0  0  0  0  0  0  0  0
   43.0360   30.7130   34.9060 H   0  0  0  0  0  0  0  0  0  0  0  0
   44.5510   32.0510   34.3940 N   0  0  0  0  0  0  0  0  0  0  0  0
   44.2790   32.6420   33.5880 H   0  0  0  0  0  0  0  0  0  0  0  0
   45.7610   32.3190   34.8500 N   0  0  0  0  0  0  0  0  0  0  0  0
   49.3780   32.0560   38.1030 O   0  0  0  0  0  0  0  0  0  0  0  0
   49.1190   31.1060   39.1170 C   0  0  0  0  0  0  0  0  0  0  0  0
   50.0140   30.0590   38.8440 F   0  0  0  0  0  0  0  0  0  0  0  0
   49.4420   31.6190   40.3520 F   0  0  0  0  0  0  0  0  0  0  0  0
   47.8220   30.6950   39.1570 F   0  0  0  0  0  0  0  0  0  0  0  0
  2  1  1  0  0  0  0
  2  3  1  0  0  0  0
  3 15  1  0  0  0  0
  4  3  2  0  0  0  0
  4  8  1  0  0  0  0
  5  9  1  0  0  0  0
  5  4  1  0  0  0  0
  6  7  1  0  0  0  0
  6  5  2  0  0  0  0
  7  2  2  0  0  0  0
 10  6  1  0  0  0  0
 11 12  1  0  0  0  0
 11 19  1  0  0  0  0
 12 17  1  0  0  0  0
 13 18  1  0  0  0  0
 13 12  2  0  0  0  0
 14 13  1  0  0  0  0
 15 14  2  0  0  0  0
 15 16  1  0  0  0  0
 16 11  2  0  0  0  0
 19 21  1  0  0  0  0
 19 20  1  0  0  0  0
 22  7  1  0  0  0  0
 24 23  2  6  0  0  0
 24 34  1  0  0  0  0
 24 22  1  0  0  0  0
 25 24  1  0  0  0  0
 26 27  1  0  0  0  0
 26 25  1  0  0  0  0
 27 28  1  0  0  0  0
 29 27  2  0  0  0  0
 30 29  1  0  0  0  0
 31 33  1  0  0  0  0
 31 29  1  0  0  0  0
 32 31  1  0  0  0  0
 33 26  2  0  0  0  0
 34 35  1  0  0  0  0
 35 38  1  0  0  0  0
 35 37  1  0  0  0  0
 36 35  1  0  0  0  0
M  END
>  <minimizedAffinity>
-5.94193125

>  <minimizedRMSD>
1.90651679

$$$$
