
 OpenBabel03252500543D

 29 30  0  0  0  0  0  0  0  0999 V2000
   46.7710   34.2960   42.3800 C   0  0  0  0  0  0  0  0  0  0  0  0
   45.4390   34.5560   42.6370 C   0  0  0  0  0  0  0  0  0  0  0  0
   44.9600   34.2520   43.9230 C   0  0  0  0  0  0  0  0  0  0  0  0
   45.8230   33.7310   44.8130 N   0  0  0  0  0  0  0  0  0  0  0  0
   47.1130   33.4890   44.5320 C   0  0  0  0  0  0  0  0  0  0  0  0
   47.5790   33.7750   43.3130 N   0  0  0  0  0  0  0  0  0  0  0  0
   43.9150   34.4640   44.1020 H   0  0  0  0  0  0  0  0  0  0  0  0
   47.7450   33.0620   45.3180 H   0  0  0  0  0  0  0  0  0  0  0  0
   47.3510   34.5830   41.0660 C   0  0  0  0  0  0  0  0  0  0  0  0
   46.6250   35.0840   40.3890 H   0  0  0  0  0  0  0  0  0  0  0  0
   47.6270   33.6210   40.5860 H   0  0  0  0  0  0  0  0  0  0  0  0
   48.6230   35.3780   41.2450 C   0  0  0  0  0  0  0  0  0  0  0  0
   49.4660   34.9220   40.6610 H   0  0  0  0  0  0  0  0  0  0  0  0
   48.4280   36.3950   40.8030 H   0  0  0  0  0  0  0  0  0  0  0  0
   48.9050   35.5350   42.3000 H   0  0  0  0  0  0  0  0  0  0  0  0
   44.6900   35.0940   41.6060 O   0  0  0  0  0  0  0  0  0  0  0  0
   44.1550   33.2440   39.8150 O   0  0  0  0  0  0  0  0  0  0  0  0
   43.5100   34.3120   40.6940 P   0  0  1  0  0  0  0  0  0  0  0  0
   42.4590   33.5150   41.7820 O   0  0  0  0  0  0  0  0  0  0  0  0
   41.6660   33.1360   41.3280 H   0  0  0  0  0  0  0  0  0  0  0  0
   42.5780   35.3710   39.7590 O   0  0  0  0  0  0  0  0  0  0  0  0
   41.2170   35.1370   39.6150 C   0  0  0  0  0  0  0  0  0  0  0  0
   40.8940   34.7390   38.3130 C   0  0  0  0  0  0  0  0  0  0  0  0
   41.4220   34.5580   37.3640 H   0  0  0  0  0  0  0  0  0  0  0  0
   39.5190   34.5230   38.2450 C   0  0  0  0  0  0  0  0  0  0  0  0
   38.8000   34.2210   37.5050 H   0  0  0  0  0  0  0  0  0  0  0  0
   39.0700   34.7970   39.5020 N   0  0  0  0  0  0  0  0  0  0  0  0
   38.1420   34.8020   40.0100 H   0  0  0  0  0  0  0  0  0  0  0  0
   40.0690   35.1550   40.2930 N   0  0  0  0  0  0  0  0  0  0  0  0
  1  2  2  0  0  0  0
  1  6  1  0  0  0  0
  2  3  1  0  0  0  0
  3  7  1  0  0  0  0
  3  4  2  0  0  0  0
  5  4  1  0  0  0  0
  5  8  1  0  0  0  0
  6  5  2  0  0  0  0
  9 12  1  0  0  0  0
  9  1  1  0  0  0  0
 10  9  1  0  0  0  0
 11  9  1  0  0  0  0
 12 15  1  0  0  0  0
 13 12  1  0  0  0  0
 14 12  1  0  0  0  0
 16  2  1  0  0  0  0
 18 17  2  6  0  0  0
 18 16  1  0  0  0  0
 18 19  1  0  0  0  0
 20 19  1  0  0  0  0
 21 18  1  0  0  0  0
 22 21  1  0  0  0  0
 22 29  2  0  0  0  0
 23 22  1  0  0  0  0
 24 23  1  0  0  0  0
 25 23  2  0  0  0  0
 25 27  1  0  0  0  0
 26 25  1  0  0  0  0
 27 28  1  0  0  0  0
 27 29  1  0  0  0  0
M  END
>  <minimizedAffinity>
-4.67360878

>  <minimizedRMSD>
1.9176898

$$$$
