
 OpenBabel03242512093D

 32 34  0  0  1  0  0  0  0  0999 V2000
   48.0010   34.4190   41.1310 C   0  0  1  0  0  0  0  0  0  0  0  0
   48.7300   35.7020   41.6870 C   0  0  0  0  0  0  0  0  0  0  0  0
   48.9570   34.3550   42.2320 C   0  0  2  0  0  0  0  0  0  0  0  0
   48.3370   34.1680   40.1190 H   0  0  0  0  0  0  0  0  0  0  0  0
   49.4710   36.1630   41.0010 H   0  0  0  0  0  0  0  0  0  0  0  0
   48.0930   36.4190   42.2420 H   0  0  0  0  0  0  0  0  0  0  0  0
   48.4820   33.9250   43.1270 H   0  0  0  0  0  0  0  0  0  0  0  0
   46.5370   34.4530   41.4070 C   0  0  0  0  0  0  0  0  0  0  0  0
   45.7790   34.2310   40.4670 O   0  0  0  0  0  0  0  0  0  0  0  0
   45.3510   35.8940   42.9920 C   0  0  0  0  0  0  0  0  0  0  0  0
   45.9600   34.7240   42.6870 C   0  0  0  0  0  0  0  0  0  0  0  0
   46.0190   33.7290   43.6980 C   0  0  0  0  0  0  0  0  0  0  0  0
   45.4770   33.9610   44.9190 N   0  0  0  0  0  0  0  0  0  0  0  0
   44.8740   35.1570   45.1770 C   0  0  0  0  0  0  0  0  0  0  0  0
   44.8160   36.0870   44.2410 N   0  0  0  0  0  0  0  0  0  0  0  0
   45.3140   36.6370   42.2150 H   0  0  0  0  0  0  0  0  0  0  0  0
   46.4620   32.7770   43.5840 H   0  0  0  0  0  0  0  0  0  0  0  0
   44.4280   35.3940   46.1290 H   0  0  0  0  0  0  0  0  0  0  0  0
   50.2480   33.8800   42.0200 O   0  0  0  0  0  0  0  0  0  0  0  0
   48.9560   31.9000   43.0560 O   0  0  0  0  0  0  0  0  0  0  0  0
   50.1760   32.1910   42.1990 P   0  0  2  0  0  0  0  0  0  0  0  0
   51.5500   31.5210   42.8500 O   0  0  0  0  0  0  0  0  0  0  0  0
   52.3460   32.0740   42.7230 H   0  0  0  0  0  0  0  0  0  0  0  0
   49.8010   31.5160   40.6550 O   0  0  0  0  0  0  0  0  0  0  0  0
   50.7220   31.5990   39.6070 C   0  0  0  0  0  0  0  0  0  0  0  0
   50.7740   31.6210   38.2240 C   0  0  0  0  0  0  0  0  0  0  0  0
   49.8020   31.5550   37.7540 H   0  0  0  0  0  0  0  0  0  0  0  0
   52.1270   31.7260   37.8810 C   0  0  0  0  0  0  0  0  0  0  0  0
   52.3390   31.7550   36.8300 H   0  0  0  0  0  0  0  0  0  0  0  0
   52.8260   31.7620   39.0310 N   0  0  0  0  0  0  0  0  0  0  0  0
   53.8610   31.8400   38.9090 H   0  0  0  0  0  0  0  0  0  0  0  0
   52.0010   31.6880   40.0580 N   0  0  0  0  0  0  0  0  0  0  0  0
  1  4  1  6  0  0  0
  1  8  1  0  0  0  0
  1  2  1  0  0  0  0
  1  3  1  0  0  0  0
  2  3  1  0  0  0  0
  2  6  1  0  0  0  0
  3  7  1  1  0  0  0
  5  2  1  0  0  0  0
  8 11  1  0  0  0  0
  9  8  2  0  0  0  0
 10 15  1  0  0  0  0
 11 10  2  0  0  0  0
 11 12  1  0  0  0  0
 12 13  2  0  0  0  0
 13 14  1  0  0  0  0
 14 18  1  0  0  0  0
 15 14  2  0  0  0  0
 16 10  1  0  0  0  0
 17 12  1  0  0  0  0
 19 21  1  0  0  0  0
 19  3  1  0  0  0  0
 21 22  1  0  0  0  0
 21 20  2  1  0  0  0
 23 22  1  0  0  0  0
 24 21  1  0  0  0  0
 25 32  2  0  0  0  0
 25 24  1  0  0  0  0
 26 25  1  0  0  0  0
 27 26  1  0  0  0  0
 28 26  2  0  0  0  0
 28 30  1  0  0  0  0
 29 28  1  0  0  0  0
 30 32  1  0  0  0  0
 31 30  1  0  0  0  0
M  END
>  <minimizedAffinity>
-5.14464426

>  <minimizedRMSD>
0.750191271

$$$$
