
 OpenBabel03252500543D

 29 30  0  0  0  0  0  0  0  0999 V2000
   46.7820   34.2970   42.4000 C   0  0  0  0  0  0  0  0  0  0  0  0
   45.4520   34.5680   42.6580 C   0  0  0  0  0  0  0  0  0  0  0  0
   44.9710   34.2640   43.9420 C   0  0  0  0  0  0  0  0  0  0  0  0
   45.8290   33.7320   44.8310 N   0  0  0  0  0  0  0  0  0  0  0  0
   47.1170   33.4790   44.5490 C   0  0  0  0  0  0  0  0  0  0  0  0
   47.5860   33.7650   43.3310 N   0  0  0  0  0  0  0  0  0  0  0  0
   43.9280   34.4840   44.1220 H   0  0  0  0  0  0  0  0  0  0  0  0
   47.7450   33.0440   45.3330 H   0  0  0  0  0  0  0  0  0  0  0  0
   47.3640   34.5840   41.0870 C   0  0  0  0  0  0  0  0  0  0  0  0
   46.6370   35.0770   40.4050 H   0  0  0  0  0  0  0  0  0  0  0  0
   47.6490   33.6220   40.6120 H   0  0  0  0  0  0  0  0  0  0  0  0
   48.6300   35.3890   41.2680 C   0  0  0  0  0  0  0  0  0  0  0  0
   49.4790   34.9380   40.6880 H   0  0  0  0  0  0  0  0  0  0  0  0
   48.4290   36.4030   40.8210 H   0  0  0  0  0  0  0  0  0  0  0  0
   48.9070   35.5520   42.3230 H   0  0  0  0  0  0  0  0  0  0  0  0
   44.7080   35.1160   41.6290 O   0  0  0  0  0  0  0  0  0  0  0  0
   44.1660   33.2810   39.8250 O   0  0  0  0  0  0  0  0  0  0  0  0
   43.5250   34.3470   40.7100 P   0  0  1  0  0  0  0  0  0  0  0  0
   42.4680   33.5480   41.7920 O   0  0  0  0  0  0  0  0  0  0  0  0
   41.6740   33.1770   41.3340 H   0  0  0  0  0  0  0  0  0  0  0  0
   42.6000   35.4170   39.7810 O   0  0  0  0  0  0  0  0  0  0  0  0
   41.2630   35.1320   39.5410 C   0  0  0  0  0  0  0  0  0  0  0  0
   41.0240   34.8580   38.1900 C   0  0  0  0  0  0  0  0  0  0  0  0
   41.6060   34.8060   37.2560 H   0  0  0  0  0  0  0  0  0  0  0  0
   39.6670   34.5830   38.0260 C   0  0  0  0  0  0  0  0  0  0  0  0
   39.0030   34.3250   37.2220 H   0  0  0  0  0  0  0  0  0  0  0  0
   39.1450   34.7000   39.2790 N   0  0  0  0  0  0  0  0  0  0  0  0
   38.1960   34.6040   39.7350 H   0  0  0  0  0  0  0  0  0  0  0  0
   40.0850   35.0200   40.1540 N   0  0  0  0  0  0  0  0  0  0  0  0
  1  2  2  0  0  0  0
  1  6  1  0  0  0  0
  2  3  1  0  0  0  0
  3  7  1  0  0  0  0
  3  4  2  0  0  0  0
  5  4  1  0  0  0  0
  5  8  1  0  0  0  0
  6  5  2  0  0  0  0
  9 12  1  0  0  0  0
  9  1  1  0  0  0  0
 10  9  1  0  0  0  0
 11  9  1  0  0  0  0
 12 15  1  0  0  0  0
 13 12  1  0  0  0  0
 14 12  1  0  0  0  0
 16  2  1  0  0  0  0
 18 17  2  6  0  0  0
 18 16  1  0  0  0  0
 18 19  1  0  0  0  0
 20 19  1  0  0  0  0
 21 18  1  0  0  0  0
 22 21  1  0  0  0  0
 22 29  2  0  0  0  0
 23 22  1  0  0  0  0
 24 23  1  0  0  0  0
 25 23  2  0  0  0  0
 25 27  1  0  0  0  0
 26 25  1  0  0  0  0
 27 28  1  0  0  0  0
 27 29  1  0  0  0  0
M  END
>  <minimizedAffinity>
-4.66736603

>  <minimizedRMSD>
1.89776516

$$$$
