
 OpenBabel03242520023D

 24 26  0  0  0  0  0  0  0  0999 V2000
   46.2500   32.5870   44.8350 C   0  0  0  0  0  0  0  0  0  0  0  0
   47.3800   31.9510   44.3070 C   0  0  0  0  0  0  0  0  0  0  0  0
   47.4650   30.7350   44.9520 C   0  0  0  0  0  0  0  0  0  0  0  0
   46.4460   30.6420   45.8210 N   0  0  0  0  0  0  0  0  0  0  0  0
   45.7330   31.7660   45.7290 N   0  0  0  0  0  0  0  0  0  0  0  0
   48.0430   32.3520   43.5410 H   0  0  0  0  0  0  0  0  0  0  0  0
   48.2120   29.9810   44.7990 H   0  0  0  0  0  0  0  0  0  0  0  0
   46.1970   29.5400   46.6660 C   0  0  0  0  0  0  0  0  0  0  0  0
   44.9550   28.9280   46.8400 C   0  0  0  0  0  0  0  0  0  0  0  0
   44.0500   29.2690   46.3150 H   0  0  0  0  0  0  0  0  0  0  0  0
   45.0390   27.8830   47.7290 C   0  0  0  0  0  0  0  0  0  0  0  0
   44.1840   27.2920   47.9880 H   0  0  0  0  0  0  0  0  0  0  0  0
   46.3470   27.8680   48.0910 N   0  0  0  0  0  0  0  0  0  0  0  0
   46.7150   27.1600   48.7760 H   0  0  0  0  0  0  0  0  0  0  0  0
   47.0120   28.8360   47.4690 N   0  0  0  0  0  0  0  0  0  0  0  0
   44.5900   35.8560   44.8620 C   0  0  0  0  0  0  0  0  0  0  0  0
   44.9650   36.4010   43.6210 C   0  0  0  0  0  0  0  0  0  0  0  0
   45.7890   35.6420   42.7740 C   0  0  0  0  0  0  0  0  0  0  0  0
   46.1570   34.4280   43.2390 N   0  0  0  0  0  0  0  0  0  0  0  0
   45.8030   33.9090   44.4160 C   0  0  0  0  0  0  0  0  0  0  0  0
   45.0090   34.6230   45.2480 N   0  0  0  0  0  0  0  0  0  0  0  0
   43.9640   36.4960   45.4420 H   0  0  0  0  0  0  0  0  0  0  0  0
   44.6410   37.3810   43.2980 H   0  0  0  0  0  0  0  0  0  0  0  0
   46.1220   35.9870   41.8060 H   0  0  0  0  0  0  0  0  0  0  0  0
  1  5  2  0  0  0  0
  2  1  1  0  0  0  0
  2  3  2  0  0  0  0
  3  4  1  0  0  0  0
  4  8  1  0  0  0  0
  5  4  1  0  0  0  0
  6  2  1  0  0  0  0
  7  3  1  0  0  0  0
  8  9  1  0  0  0  0
  8 15  2  0  0  0  0
  9 11  2  0  0  0  0
 10  9  1  0  0  0  0
 11 12  1  0  0  0  0
 11 13  1  0  0  0  0
 13 14  1  0  0  0  0
 15 13  1  0  0  0  0
 16 21  1  0  0  0  0
 16 22  1  0  0  0  0
 17 16  2  0  0  0  0
 18 19  2  0  0  0  0
 18 17  1  0  0  0  0
 19 20  1  0  0  0  0
 20  1  1  0  0  0  0
 20 21  2  0  0  0  0
 23 17  1  0  0  0  0
 24 18  1  0  0  0  0
M  END
>  <minimizedAffinity>
-4.36698771

>  <minimizedRMSD>
3.26374722

$$$$
