
 OpenBabel03252509083D

 40 43  0  0  0  0  0  0  0  0999 V2000
   47.3610   31.6320   39.0740 C   0  0  0  0  0  0  0  0  0  0  0  0
   47.0620   32.9600   39.0450 C   0  0  0  0  0  0  0  0  0  0  0  0
   47.8350   33.8290   38.2940 C   0  0  0  0  0  0  0  0  0  0  0  0
   48.9050   33.3540   37.5740 C   0  0  0  0  0  0  0  0  0  0  0  0
   49.2440   32.0010   37.5750 C   0  0  0  0  0  0  0  0  0  0  0  0
   48.4480   31.1440   38.3430 C   0  0  0  0  0  0  0  0  0  0  0  0
   47.6420   34.8740   38.2390 H   0  0  0  0  0  0  0  0  0  0  0  0
   49.5720   33.9280   36.9590 H   0  0  0  0  0  0  0  0  0  0  0  0
   50.0550   31.5620   37.0440 H   0  0  0  0  0  0  0  0  0  0  0  0
   48.6840   30.0770   38.3680 H   0  0  0  0  0  0  0  0  0  0  0  0
   45.3250   35.6570   43.0930 Cl  0  0  0  0  0  0  0  0  0  0  0  0
   45.1320   34.7890   41.5870 C   0  0  0  0  0  0  0  0  0  0  0  0
   46.2010   34.2520   40.9460 C   0  0  0  0  0  0  0  0  0  0  0  0
   45.9430   33.5680   39.7690 C   0  0  0  0  0  0  0  0  0  0  0  0
   44.6720   33.4370   39.2690 C   0  0  0  0  0  0  0  0  0  0  0  0
   43.6170   33.9810   39.9240 C   0  0  0  0  0  0  0  0  0  0  0  0
   43.8560   34.6640   41.0980 C   0  0  0  0  0  0  0  0  0  0  0  0
   44.5220   32.8890   38.3370 H   0  0  0  0  0  0  0  0  0  0  0  0
   42.6330   33.8530   39.4940 H   0  0  0  0  0  0  0  0  0  0  0  0
   42.9960   35.0900   41.6050 H   0  0  0  0  0  0  0  0  0  0  0  0
   49.5370   35.6940   41.9560 C   0  0  0  0  0  0  0  0  0  0  0  0
   48.2630   35.5570   41.3950 C   0  0  0  0  0  0  0  0  0  0  0  0
   47.5190   34.4040   41.5210 C   0  0  0  0  0  0  0  0  0  0  0  0
   48.1260   33.4190   42.2340 N   0  0  0  0  0  0  0  0  0  0  0  0
   49.3420   33.5400   42.7730 C   0  0  0  0  0  0  0  0  0  0  0  0
   50.0400   34.6710   42.6330 N   0  0  0  0  0  0  0  0  0  0  0  0
   50.0010   36.6540   41.7740 H   0  0  0  0  0  0  0  0  0  0  0  0
   47.8100   36.3660   40.8320 H   0  0  0  0  0  0  0  0  0  0  0  0
   49.7350   32.6940   43.3230 H   0  0  0  0  0  0  0  0  0  0  0  0
   46.4170   30.5400   39.9410 S   0  0  0  0  0  0  0  0  0  0  0  0
   45.3580   29.8860   39.0810 O   0  0  0  0  0  0  0  0  0  0  0  0
   47.4030   29.3490   40.2340 O   0  0  0  0  0  0  0  0  0  0  0  0
   45.6850   30.8690   41.4610 C   0  0  0  0  0  0  0  0  0  0  0  0
   44.2750   30.7870   41.5970 C   0  0  0  0  0  0  0  0  0  0  0  0
   43.5220   30.5130   40.8270 H   0  0  0  0  0  0  0  0  0  0  0  0
   43.8040   31.0900   42.8510 C   0  0  0  0  0  0  0  0  0  0  0  0
   42.8090   31.1110   43.2330 H   0  0  0  0  0  0  0  0  0  0  0  0
   44.9350   31.3630   43.4970 N   0  0  0  0  0  0  0  0  0  0  0  0
   45.0720   31.6520   44.5140 H   0  0  0  0  0  0  0  0  0  0  0  0
   45.9460   31.2370   42.7270 N   0  0  0  0  0  0  0  0  0  0  0  0
  1 30  1  0  0  0  0
  2  1  1  0  0  0  0
  2 14  1  0  0  0  0
  3  2  2  0  0  0  0
  4  5  2  0  0  0  0
  4  3  1  0  0  0  0
  5  6  1  0  0  0  0
  6 10  1  0  0  0  0
  6  1  2  0  0  0  0
  7  3  1  0  0  0  0
  8  4  1  0  0  0  0
  9  5  1  0  0  0  0
 12 11  1  0  0  0  0
 13 23  1  0  0  0  0
 13 12  2  0  0  0  0
 14 13  1  0  0  0  0
 15 14  2  0  0  0  0
 15 16  1  0  0  0  0
 16 17  2  0  0  0  0
 17 12  1  0  0  0  0
 17 20  1  0  0  0  0
 18 15  1  0  0  0  0
 19 16  1  0  0  0  0
 21 26  1  0  0  0  0
 22 23  1  0  0  0  0
 22 21  2  0  0  0  0
 23 24  2  0  0  0  0
 24 25  1  0  0  0  0
 25 29  1  0  0  0  0
 26 25  2  0  0  0  0
 27 21  1  0  0  0  0
 28 22  1  0  0  0  0
 30 32  2  0  0  0  0
 30 33  1  0  0  0  0
 31 30  2  0  0  0  0
 33 34  1  0  0  0  0
 33 40  2  0  0  0  0
 34 36  2  0  0  0  0
 35 34  1  0  0  0  0
 36 37  1  0  0  0  0
 36 38  1  0  0  0  0
 38 39  1  0  0  0  0
 40 38  1  0  0  0  0
M  END
>  <minimizedAffinity>
-4.78016043

>  <minimizedRMSD>
0.604698956

$$$$
