
 OpenBabel03242521103D

 18 19  0  0  0  0  0  0  0  0999 V2000
   37.0810   27.2770   41.4420 C   0  0  0  0  0  0  0  0  0  0  0  0
   36.6910   27.2290   42.8030 C   0  0  0  0  0  0  0  0  0  0  0  0
   37.1630   28.2150   43.6780 C   0  0  0  0  0  0  0  0  0  0  0  0
   37.9770   29.1780   43.1810 N   0  0  0  0  0  0  0  0  0  0  0  0
   38.3410   29.2060   41.8670 C   0  0  0  0  0  0  0  0  0  0  0  0
   37.8910   28.2620   41.0210 N   0  0  0  0  0  0  0  0  0  0  0  0
   36.7280   26.5300   40.7570 H   0  0  0  0  0  0  0  0  0  0  0  0
   36.0360   26.4360   43.1520 H   0  0  0  0  0  0  0  0  0  0  0  0
   36.8740   28.1920   44.7200 H   0  0  0  0  0  0  0  0  0  0  0  0
   39.4110   30.5700   41.4860 S   0  0  0  0  0  0  0  0  0  0  0  0
   38.4720   31.9510   40.8090 C   0  0  0  0  0  0  0  0  0  0  0  0
   39.1420   33.1480   40.5530 C   0  0  0  0  0  0  0  0  0  0  0  0
   40.1600   33.4330   40.6840 H   0  0  0  0  0  0  0  0  0  0  0  0
   38.1560   33.9880   40.0500 C   0  0  0  0  0  0  0  0  0  0  0  0
   38.2140   35.0150   39.7150 H   0  0  0  0  0  0  0  0  0  0  0  0
   37.0100   33.3170   40.0200 N   0  0  0  0  0  0  0  0  0  0  0  0
   36.0600   33.6560   39.6940 H   0  0  0  0  0  0  0  0  0  0  0  0
   37.1820   32.0860   40.4760 N   0  0  0  0  0  0  0  0  0  0  0  0
  1  2  1  0  0  0  0
  2  8  1  0  0  0  0
  2  3  2  0  0  0  0
  3  9  1  0  0  0  0
  4  3  1  0  0  0  0
  5  4  2  0  0  0  0
  6  1  2  0  0  0  0
  6  5  1  0  0  0  0
  7  1  1  0  0  0  0
 10  5  1  0  0  0  0
 11 10  1  0  0  0  0
 12 13  1  0  0  0  0
 12 11  1  0  0  0  0
 14 12  2  0  0  0  0
 15 14  1  0  0  0  0
 16 14  1  0  0  0  0
 16 18  1  0  0  0  0
 17 16  1  0  0  0  0
 18 11  2  0  0  0  0
M  END
>  <minimizedAffinity>
-4.06613922

$$$$

 OpenBabel03242521103D

 18 19  0  0  0  0  0  0  0  0999 V2000
   37.7300   28.1990   43.4970 C   0  0  0  0  0  0  0  0  0  0  0  0
   37.5550   26.9570   42.8370 C   0  0  0  0  0  0  0  0  0  0  0  0
   37.0650   26.9510   41.5260 C   0  0  0  0  0  0  0  0  0  0  0  0
   36.7780   28.1400   40.9420 N   0  0  0  0  0  0  0  0  0  0  0  0
   36.9530   29.3240   41.5950 C   0  0  0  0  0  0  0  0  0  0  0  0
   37.4230   29.3370   42.8550 N   0  0  0  0  0  0  0  0  0  0  0  0
   38.1050   28.2230   44.5030 H   0  0  0  0  0  0  0  0  0  0  0  0
   37.8010   26.0310   43.3490 H   0  0  0  0  0  0  0  0  0  0  0  0
   36.9270   26.0110   41.0080 H   0  0  0  0  0  0  0  0  0  0  0  0
   36.5000   30.7240   40.6010 S   0  0  0  0  0  0  0  0  0  0  0  0
   37.7690   32.0000   40.6760 C   0  0  0  0  0  0  0  0  0  0  0  0
   37.5690   33.1790   39.9560 C   0  0  0  0  0  0  0  0  0  0  0  0
   36.7700   33.5000   39.3310 H   0  0  0  0  0  0  0  0  0  0  0  0
   38.7050   33.9350   40.2210 C   0  0  0  0  0  0  0  0  0  0  0  0
   38.9860   34.9220   39.8760 H   0  0  0  0  0  0  0  0  0  0  0  0
   39.4920   33.2380   41.0330 N   0  0  0  0  0  0  0  0  0  0  0  0
   40.4340   33.5160   41.4320 H   0  0  0  0  0  0  0  0  0  0  0  0
   38.9430   32.0670   41.3170 N   0  0  0  0  0  0  0  0  0  0  0  0
  1  7  1  0  0  0  0
  2  8  1  0  0  0  0
  2  1  2  0  0  0  0
  3  2  1  0  0  0  0
  4  3  2  0  0  0  0
  4  5  1  0  0  0  0
  5  6  2  0  0  0  0
  6  1  1  0  0  0  0
  9  3  1  0  0  0  0
 10 11  1  0  0  0  0
 10  5  1  0  0  0  0
 11 18  2  0  0  0  0
 12 14  2  0  0  0  0
 12 11  1  0  0  0  0
 13 12  1  0  0  0  0
 14 16  1  0  0  0  0
 15 14  1  0  0  0  0
 16 18  1  0  0  0  0
 16 17  1  0  0  0  0
M  END
>  <minimizedAffinity>
-3.90655375

$$$$

 OpenBabel03242521103D

 18 19  0  0  0  0  0  0  0  0999 V2000
   38.9080   26.6480   42.3390 C   0  0  0  0  0  0  0  0  0  0  0  0
   38.4380   27.0590   43.6110 C   0  0  0  0  0  0  0  0  0  0  0  0
   37.3680   27.9580   43.6800 C   0  0  0  0  0  0  0  0  0  0  0  0
   36.8240   28.3980   42.5190 N   0  0  0  0  0  0  0  0  0  0  0  0
   37.2910   27.9900   41.3040 C   0  0  0  0  0  0  0  0  0  0  0  0
   38.3190   27.1260   41.2320 N   0  0  0  0  0  0  0  0  0  0  0  0
   39.7280   25.9580   42.2680 H   0  0  0  0  0  0  0  0  0  0  0  0
   38.9080   26.6760   44.5130 H   0  0  0  0  0  0  0  0  0  0  0  0
   36.9970   28.2810   44.6440 H   0  0  0  0  0  0  0  0  0  0  0  0
   36.4010   28.7190   39.9520 S   0  0  0  0  0  0  0  0  0  0  0  0
   36.6460   30.5030   39.9100 C   0  0  0  0  0  0  0  0  0  0  0  0
   37.0880   31.0850   38.7220 C   0  0  0  0  0  0  0  0  0  0  0  0
   37.3260   30.6660   37.7730 H   0  0  0  0  0  0  0  0  0  0  0  0
   37.1740   32.4400   39.0190 C   0  0  0  0  0  0  0  0  0  0  0  0
   37.4730   33.2760   38.4000 H   0  0  0  0  0  0  0  0  0  0  0  0
   36.8070   32.6150   40.2830 N   0  0  0  0  0  0  0  0  0  0  0  0
   36.7560   33.5210   40.8320 H   0  0  0  0  0  0  0  0  0  0  0  0
   36.4860   31.4570   40.8370 N   0  0  0  0  0  0  0  0  0  0  0  0
  1  2  1  0  0  0  0
  2  3  2  0  0  0  0
  2  8  1  0  0  0  0
  3  9  1  0  0  0  0
  4  3  1  0  0  0  0
  5  4  2  0  0  0  0
  6  5  1  0  0  0  0
  6  1  2  0  0  0  0
  7  1  1  0  0  0  0
 10  5  1  0  0  0  0
 11 10  1  0  0  0  0
 11 18  2  0  0  0  0
 12 14  2  0  0  0  0
 12 11  1  0  0  0  0
 13 12  1  0  0  0  0
 14 16  1  0  0  0  0
 15 14  1  0  0  0  0
 16 17  1  0  0  0  0
 16 18  1  0  0  0  0
M  END
>  <minimizedAffinity>
-3.88049603

$$$$

 OpenBabel03242521103D

 18 19  0  0  0  0  0  0  0  0999 V2000
   36.5880   24.1800   40.7270 C   0  0  0  0  0  0  0  0  0  0  0  0
   37.0600   24.5180   42.0200 C   0  0  0  0  0  0  0  0  0  0  0  0
   37.3690   25.8540   42.3010 C   0  0  0  0  0  0  0  0  0  0  0  0
   37.2020   26.7710   41.3170 N   0  0  0  0  0  0  0  0  0  0  0  0
   36.7470   26.4250   40.0790 C   0  0  0  0  0  0  0  0  0  0  0  0
   36.4480   25.1440   39.8030 N   0  0  0  0  0  0  0  0  0  0  0  0
   36.3460   23.1600   40.4950 H   0  0  0  0  0  0  0  0  0  0  0  0
   37.1760   23.7440   42.7740 H   0  0  0  0  0  0  0  0  0  0  0  0
   37.7300   26.1280   43.2830 H   0  0  0  0  0  0  0  0  0  0  0  0
   36.6220   27.8180   38.9850 S   0  0  0  0  0  0  0  0  0  0  0  0
   36.3800   29.3430   39.9140 C   0  0  0  0  0  0  0  0  0  0  0  0
   37.3150   30.3680   39.7650 C   0  0  0  0  0  0  0  0  0  0  0  0
   38.2000   30.4400   39.1770 H   0  0  0  0  0  0  0  0  0  0  0  0
   36.8470   31.3780   40.5970 C   0  0  0  0  0  0  0  0  0  0  0  0
   37.2510   32.3610   40.8010 H   0  0  0  0  0  0  0  0  0  0  0  0
   35.7280   30.9580   41.1760 N   0  0  0  0  0  0  0  0  0  0  0  0
   35.1130   31.4760   41.8670 H   0  0  0  0  0  0  0  0  0  0  0  0
   35.4320   29.7320   40.7760 N   0  0  0  0  0  0  0  0  0  0  0  0
  1  2  1  0  0  0  0
  2  3  2  0  0  0  0
  2  8  1  0  0  0  0
  3  9  1  0  0  0  0
  4  3  1  0  0  0  0
  5  4  2  0  0  0  0
  6  5  1  0  0  0  0
  6  1  2  0  0  0  0
  7  1  1  0  0  0  0
 10 11  1  0  0  0  0
 10  5  1  0  0  0  0
 11 18  2  0  0  0  0
 12 11  1  0  0  0  0
 12 14  2  0  0  0  0
 13 12  1  0  0  0  0
 14 15  1  0  0  0  0
 14 16  1  0  0  0  0
 16 17  1  0  0  0  0
 18 16  1  0  0  0  0
M  END
>  <minimizedAffinity>
-3.82686329

$$$$

 OpenBabel03242521103D

 18 19  0  0  0  0  0  0  0  0999 V2000
   37.0180   31.7970   39.4230 C   0  0  0  0  0  0  0  0  0  0  0  0
   37.2750   33.1880   39.3320 C   0  0  0  0  0  0  0  0  0  0  0  0
   38.2670   33.7480   40.1450 C   0  0  0  0  0  0  0  0  0  0  0  0
   38.9430   32.9300   40.9880 N   0  0  0  0  0  0  0  0  0  0  0  0
   38.6810   31.5930   41.0590 C   0  0  0  0  0  0  0  0  0  0  0  0
   37.7290   31.0490   40.2810 N   0  0  0  0  0  0  0  0  0  0  0  0
   36.2610   31.3510   38.8060 H   0  0  0  0  0  0  0  0  0  0  0  0
   36.7040   33.8010   38.6400 H   0  0  0  0  0  0  0  0  0  0  0  0
   38.4750   34.8080   40.0880 H   0  0  0  0  0  0  0  0  0  0  0  0
   39.7100   30.7600   42.2420 S   0  0  0  0  0  0  0  0  0  0  0  0
   38.8830   29.2980   42.8930 C   0  0  0  0  0  0  0  0  0  0  0  0
   39.6300   28.1310   43.0630 C   0  0  0  0  0  0  0  0  0  0  0  0
   40.6550   27.9130   42.8760 H   0  0  0  0  0  0  0  0  0  0  0  0
   38.7170   27.2140   43.5690 C   0  0  0  0  0  0  0  0  0  0  0  0
   38.8490   26.1780   43.8520 H   0  0  0  0  0  0  0  0  0  0  0  0
   37.5380   27.8140   43.6790 N   0  0  0  0  0  0  0  0  0  0  0  0
   36.6240   27.4060   44.0290 H   0  0  0  0  0  0  0  0  0  0  0  0
   37.6190   29.0720   43.2750 N   0  0  0  0  0  0  0  0  0  0  0  0
  1  6  1  0  0  0  0
  2  1  2  0  0  0  0
  2  3  1  0  0  0  0
  3  4  2  0  0  0  0
  4  5  1  0  0  0  0
  5 10  1  0  0  0  0
  6  5  2  0  0  0  0
  7  1  1  0  0  0  0
  8  2  1  0  0  0  0
  9  3  1  0  0  0  0
 10 11  1  0  0  0  0
 11 12  1  0  0  0  0
 11 18  2  0  0  0  0
 12 14  2  0  0  0  0
 13 12  1  0  0  0  0
 14 16  1  0  0  0  0
 14 15  1  0  0  0  0
 16 17  1  0  0  0  0
 18 16  1  0  0  0  0
M  END
>  <minimizedAffinity>
-3.77498507

$$$$

 OpenBabel03242521103D

 18 19  0  0  0  0  0  0  0  0999 V2000
   39.3170   24.9090   41.4230 C   0  0  0  0  0  0  0  0  0  0  0  0
   38.1670   24.0930   41.5690 C   0  0  0  0  0  0  0  0  0  0  0  0
   37.0110   24.6470   42.1310 C   0  0  0  0  0  0  0  0  0  0  0  0
   37.0430   25.9470   42.5140 N   0  0  0  0  0  0  0  0  0  0  0  0
   38.1600   26.7140   42.3640 C   0  0  0  0  0  0  0  0  0  0  0  0
   39.2740   26.1890   41.8250 N   0  0  0  0  0  0  0  0  0  0  0  0
   40.2120   24.5000   40.9930 H   0  0  0  0  0  0  0  0  0  0  0  0
   38.1920   23.0560   41.2460 H   0  0  0  0  0  0  0  0  0  0  0  0
   36.1250   24.0380   42.2490 H   0  0  0  0  0  0  0  0  0  0  0  0
   37.9280   28.3760   42.9460 S   0  0  0  0  0  0  0  0  0  0  0  0
   36.8660   29.3050   41.8260 C   0  0  0  0  0  0  0  0  0  0  0  0
   36.0100   28.5970   40.9820 C   0  0  0  0  0  0  0  0  0  0  0  0
   35.8440   27.5530   40.8550 H   0  0  0  0  0  0  0  0  0  0  0  0
   35.3460   29.5850   40.2650 C   0  0  0  0  0  0  0  0  0  0  0  0
   34.5890   29.5040   39.4970 H   0  0  0  0  0  0  0  0  0  0  0  0
   35.7920   30.7680   40.6720 N   0  0  0  0  0  0  0  0  0  0  0  0
   35.5010   31.7300   40.3360 H   0  0  0  0  0  0  0  0  0  0  0  0
   36.7100   30.6180   41.6130 N   0  0  0  0  0  0  0  0  0  0  0  0
  1  2  2  0  0  0  0
  1  6  1  0  0  0  0
  2  3  1  0  0  0  0
  3  9  1  0  0  0  0
  3  4  2  0  0  0  0
  5  4  1  0  0  0  0
  5 10  1  0  0  0  0
  6  5  2  0  0  0  0
  7  1  1  0  0  0  0
  8  2  1  0  0  0  0
 11 10  1  0  0  0  0
 12 11  1  0  0  0  0
 13 12  1  0  0  0  0
 14 16  1  0  0  0  0
 14 12  2  0  0  0  0
 15 14  1  0  0  0  0
 16 18  1  0  0  0  0
 17 16  1  0  0  0  0
 18 11  2  0  0  0  0
M  END
>  <minimizedAffinity>
-3.76092148

$$$$

 OpenBabel03242521103D

 18 19  0  0  0  0  0  0  0  0999 V2000
   39.1020   28.8380   42.8480 C   0  0  0  0  0  0  0  0  0  0  0  0
   38.4850   27.5760   43.0400 C   0  0  0  0  0  0  0  0  0  0  0  0
   37.1810   27.3820   42.5690 C   0  0  0  0  0  0  0  0  0  0  0  0
   36.5630   28.4150   41.9460 N   0  0  0  0  0  0  0  0  0  0  0  0
   37.1750   29.6210   41.7720 C   0  0  0  0  0  0  0  0  0  0  0  0
   38.4270   29.8140   42.2220 N   0  0  0  0  0  0  0  0  0  0  0  0
   40.1010   29.0040   43.2030 H   0  0  0  0  0  0  0  0  0  0  0  0
   39.0230   26.7800   43.5460 H   0  0  0  0  0  0  0  0  0  0  0  0
   36.6960   26.4250   42.7080 H   0  0  0  0  0  0  0  0  0  0  0  0
   36.1420   30.7930   40.9280 S   0  0  0  0  0  0  0  0  0  0  0  0
   36.8720   31.2720   39.3520 C   0  0  0  0  0  0  0  0  0  0  0  0
   37.0080   30.3000   38.3600 C   0  0  0  0  0  0  0  0  0  0  0  0
   36.7530   29.2660   38.3410 H   0  0  0  0  0  0  0  0  0  0  0  0
   37.5920   30.9780   37.2970 C   0  0  0  0  0  0  0  0  0  0  0  0
   37.8810   30.6270   36.3150 H   0  0  0  0  0  0  0  0  0  0  0  0
   37.7730   32.2440   37.6570 N   0  0  0  0  0  0  0  0  0  0  0  0
   38.1930   33.0340   37.0890 H   0  0  0  0  0  0  0  0  0  0  0  0
   37.3450   32.4380   38.8950 N   0  0  0  0  0  0  0  0  0  0  0  0
  1  2  1  0  0  0  0
  1  7  1  0  0  0  0
  2  8  1  0  0  0  0
  3  9  1  0  0  0  0
  3  2  2  0  0  0  0
  4  3  1  0  0  0  0
  5  4  2  0  0  0  0
  5  6  1  0  0  0  0
  6  1  2  0  0  0  0
 10  5  1  0  0  0  0
 11 10  1  0  0  0  0
 12 11  1  0  0  0  0
 13 12  1  0  0  0  0
 14 16  1  0  0  0  0
 14 12  2  0  0  0  0
 15 14  1  0  0  0  0
 16 18  1  0  0  0  0
 17 16  1  0  0  0  0
 18 11  2  0  0  0  0
M  END
>  <minimizedAffinity>
-3.76061225

$$$$

 OpenBabel03242521103D

 18 19  0  0  0  0  0  0  0  0999 V2000
   35.5350   29.0110   40.6190 C   0  0  0  0  0  0  0  0  0  0  0  0
   36.0560   30.2930   40.3160 C   0  0  0  0  0  0  0  0  0  0  0  0
   37.1810   30.7490   41.0130 C   0  0  0  0  0  0  0  0  0  0  0  0
   37.7250   29.9390   41.9530 N   0  0  0  0  0  0  0  0  0  0  0  0
   37.2080   28.7070   42.2300 C   0  0  0  0  0  0  0  0  0  0  0  0
   36.1280   28.2630   41.5640 N   0  0  0  0  0  0  0  0  0  0  0  0
   34.6730   28.6450   40.0940 H   0  0  0  0  0  0  0  0  0  0  0  0
   35.5830   30.9040   39.5530 H   0  0  0  0  0  0  0  0  0  0  0  0
   37.5910   31.7260   40.7930 H   0  0  0  0  0  0  0  0  0  0  0  0
   38.1120   27.8580   43.5010 S   0  0  0  0  0  0  0  0  0  0  0  0
   38.4710   26.1630   43.0080 C   0  0  0  0  0  0  0  0  0  0  0  0
   39.7320   25.6400   43.2960 C   0  0  0  0  0  0  0  0  0  0  0  0
   40.5820   26.0640   43.7780 H   0  0  0  0  0  0  0  0  0  0  0  0
   39.6850   24.3450   42.7960 C   0  0  0  0  0  0  0  0  0  0  0  0
   40.4370   23.5660   42.7940 H   0  0  0  0  0  0  0  0  0  0  0  0
   38.4850   24.1450   42.2640 N   0  0  0  0  0  0  0  0  0  0  0  0
   38.1110   23.2700   41.7960 H   0  0  0  0  0  0  0  0  0  0  0  0
   37.7390   25.2320   42.3820 N   0  0  0  0  0  0  0  0  0  0  0  0
  1  6  1  0  0  0  0
  2  1  2  0  0  0  0
  2  3  1  0  0  0  0
  3  4  2  0  0  0  0
  4  5  1  0  0  0  0
  5 10  1  0  0  0  0
  6  5  2  0  0  0  0
  7  1  1  0  0  0  0
  8  2  1  0  0  0  0
  9  3  1  0  0  0  0
 11 12  1  0  0  0  0
 11 10  1  0  0  0  0
 12 13  1  0  0  0  0
 14 12  2  0  0  0  0
 15 14  1  0  0  0  0
 16 18  1  0  0  0  0
 16 14  1  0  0  0  0
 17 16  1  0  0  0  0
 18 11  2  0  0  0  0
M  END
>  <minimizedAffinity>
-3.65860033

$$$$

 OpenBabel03242521103D

 18 19  0  0  0  0  0  0  0  0999 V2000
   37.2770   31.4590   38.0350 C   0  0  0  0  0  0  0  0  0  0  0  0
   37.6390   32.5270   38.8930 C   0  0  0  0  0  0  0  0  0  0  0  0
   37.3400   32.4310   40.2570 C   0  0  0  0  0  0  0  0  0  0  0  0
   36.7130   31.3140   40.7000 N   0  0  0  0  0  0  0  0  0  0  0  0
   36.3730   30.2970   39.8570 C   0  0  0  0  0  0  0  0  0  0  0  0
   36.6580   30.3830   38.5450 N   0  0  0  0  0  0  0  0  0  0  0  0
   37.4990   31.5150   36.9860 H   0  0  0  0  0  0  0  0  0  0  0  0
   38.1410   33.4010   38.4880 H   0  0  0  0  0  0  0  0  0  0  0  0
   37.6110   33.2380   40.9250 H   0  0  0  0  0  0  0  0  0  0  0  0
   35.5650   28.9580   40.6970 S   0  0  0  0  0  0  0  0  0  0  0  0
   36.6770   28.1800   41.8820 C   0  0  0  0  0  0  0  0  0  0  0  0
   37.0690   26.8600   41.6570 C   0  0  0  0  0  0  0  0  0  0  0  0
   36.8310   26.1720   40.8800 H   0  0  0  0  0  0  0  0  0  0  0  0
   37.9050   26.5670   42.7280 C   0  0  0  0  0  0  0  0  0  0  0  0
   38.4410   25.6590   42.9710 H   0  0  0  0  0  0  0  0  0  0  0  0
   37.9840   27.6420   43.5040 N   0  0  0  0  0  0  0  0  0  0  0  0
   38.5340   27.7660   44.4010 H   0  0  0  0  0  0  0  0  0  0  0  0
   37.2480   28.6250   43.0080 N   0  0  0  0  0  0  0  0  0  0  0  0
  1  6  2  0  0  0  0
  1  2  1  0  0  0  0
  2  3  2  0  0  0  0
  3  4  1  0  0  0  0
  3  9  1  0  0  0  0
  5 10  1  0  0  0  0
  5  4  2  0  0  0  0
  6  5  1  0  0  0  0
  7  1  1  0  0  0  0
  8  2  1  0  0  0  0
 10 11  1  0  0  0  0
 11 18  2  0  0  0  0
 12 11  1  0  0  0  0
 12 14  2  0  0  0  0
 13 12  1  0  0  0  0
 14 15  1  0  0  0  0
 14 16  1  0  0  0  0
 16 17  1  0  0  0  0
 18 16  1  0  0  0  0
M  END
>  <minimizedAffinity>
-3.64752412

$$$$
