
     RDKit          3D

 29 30  0  0  0  0  0  0  0  0999 V2000
   46.6388   34.3110   42.9170 C   0  0  0  0  0  0  0  0  0  0  0  0
   45.4264   34.7701   43.3915 C   0  0  0  0  0  0  0  0  0  0  0  0
   45.0754   34.4186   44.7068 C   0  0  0  0  0  0  0  0  0  0  0  0
   45.9362   33.6640   45.4121 N   0  0  0  0  0  0  0  0  0  0  0  0
   47.1094   33.2327   44.9213 C   0  0  0  0  0  0  0  0  0  0  0  0
   47.4527   33.5609   43.6728 N   0  0  0  0  0  0  0  0  0  0  0  0
   47.0805   34.6314   41.5581 C   0  0  0  0  0  0  0  0  0  0  0  0
   48.4081   35.3509   41.6218 C   0  0  0  0  0  0  0  0  0  0  0  0
   44.6604   35.5364   42.5335 O   0  0  0  0  0  0  0  0  0  0  0  0
   43.2286   35.4588   40.3284 O   0  0  0  0  0  0  0  0  0  0  0  0
   43.2010   35.1015   41.8118 P   0  0  1  0  0  0  0  0  0  0  0  0
   43.0535   33.4019   41.9280 O   0  0  0  0  0  0  0  0  0  0  0  0
   41.8519   35.7899   42.5659 O   0  0  0  0  0  0  0  0  0  0  0  0
   44.1222   34.7886   45.0578 H   0  0  0  0  0  0  0  0  0  0  0  0
   47.7495   32.6223   45.5656 H   0  0  0  0  0  0  0  0  0  0  0  0
   46.3119   35.2000   40.9906 H   0  0  0  0  0  0  0  0  0  0  0  0
   47.2471   33.6797   41.0098 H   0  0  0  0  0  0  0  0  0  0  0  0
   49.1527   34.8821   40.9246 H   0  0  0  0  0  0  0  0  0  0  0  0
   48.2214   36.3971   41.2482 H   0  0  0  0  0  0  0  0  0  0  0  0
   48.8162   35.4426   42.6431 H   0  0  0  0  0  0  0  0  0  0  0  0
   42.1634   33.0827   41.6376 H   0  0  0  0  0  0  0  0  0  0  0  0
   40.7202   36.0729   41.8140 C   0  0  0  0  0  0  0  0  0  0  0  0
   40.2071   37.3417   42.1057 C   0  0  0  0  0  0  0  0  0  0  0  0
   40.4524   38.1850   42.7704 H   0  0  0  0  0  0  0  0  0  0  0  0
   39.0774   37.5552   41.3168 C   0  0  0  0  0  0  0  0  0  0  0  0
   38.3522   38.3335   41.1662 H   0  0  0  0  0  0  0  0  0  0  0  0
   38.9555   36.4118   40.5848 N   0  0  0  0  0  0  0  0  0  0  0  0
   38.3011   36.0304   39.8478 H   0  0  0  0  0  0  0  0  0  0  0  0
   39.9192   35.5548   40.8834 N   0  0  0  0  0  0  0  0  0  0  0  0
  1  2  2  0
  1  6  1  0
  2  3  1  0
  3  4  2  0
  5  4  1  0
  6  5  2  0
  7  8  1  0
  7  1  1  0
  9  2  1  0
 10 11  2  0
 11 12  1  6
 11  9  1  0
 11 13  1  0
  3 14  1  0
  5 15  1  0
  7 16  1  0
  7 17  1  0
  8 18  1  0
  8 19  1  0
  8 20  1  0
 12 21  1  0
 22 23  1  0
 23 24  1  0
 23 25  2  0
 25 26  1  0
 25 27  1  0
 27 28  1  0
 27 29  1  0
 29 22  2  0
 13 22  1  0
M  ISO  8  14  14  15  14  16   8  17   8  18   8  19   8  20   8  21   3
M  ISO  3  24  15  26  16  28   5
M  END
>  <DihAtoms>  (1) 
10,12,21,22

>  <DihDeg>  (1) 
-179.99981572843944

$$$$
