
 OpenBabel03252504223D

 31 34  0  0  0  0  0  0  0  0999 V2000
   47.4870   33.3500   40.0940 C   0  0  0  0  0  0  0  0  0  0  0  0
   48.8430   33.0690   40.2110 C   0  0  0  0  0  0  0  0  0  0  0  0
   49.4120   33.0530   41.5070 C   0  0  0  0  0  0  0  0  0  0  0  0
   48.5710   33.3170   42.5510 N   0  0  0  0  0  0  0  0  0  0  0  0
   47.2540   33.5860   42.3840 C   0  0  0  0  0  0  0  0  0  0  0  0
   46.7250   33.6010   41.1600 N   0  0  0  0  0  0  0  0  0  0  0  0
   46.4800   33.8480   43.5480 N   0  0  0  0  0  0  0  0  0  0  0  0
   45.5740   34.8510   43.6850 C   0  0  0  0  0  0  0  0  0  0  0  0
   45.0490   34.7710   44.9410 N   0  0  0  0  0  0  0  0  0  0  0  0
   45.6390   33.7320   45.5410 C   0  0  0  0  0  0  0  0  0  0  0  0
   45.5310   33.1650   46.7850 C   0  0  0  0  0  0  0  0  0  0  0  0
   46.2450   32.1060   47.1530 N   0  0  0  0  0  0  0  0  0  0  0  0
   47.1340   31.5130   46.3240 C   0  0  0  0  0  0  0  0  0  0  0  0
   47.2290   32.0850   45.1000 N   0  0  0  0  0  0  0  0  0  0  0  0
   46.5440   33.1370   44.6800 C   0  0  0  0  0  0  0  0  0  0  0  0
   49.5370   32.8560   39.4070 H   0  0  0  0  0  0  0  0  0  0  0  0
   50.4480   32.8420   41.6500 H   0  0  0  0  0  0  0  0  0  0  0  0
   45.2760   35.6110   42.9630 H   0  0  0  0  0  0  0  0  0  0  0  0
   47.7180   30.6520   46.6170 H   0  0  0  0  0  0  0  0  0  0  0  0
   44.6530   33.6620   47.7710 N   0  0  0  0  0  0  0  0  0  0  0  0
   43.8540   33.1630   48.2450 H   0  0  0  0  0  0  0  0  0  0  0  0
   44.8790   34.6640   48.0190 H   0  0  0  0  0  0  0  0  0  0  0  0
   46.8520   33.3570   38.3970 S   0  0  0  0  0  0  0  0  0  0  0  0
   47.8630   32.2540   37.4210 C   0  0  0  0  0  0  0  0  0  0  0  0
   48.6890   32.7600   36.4110 C   0  0  0  0  0  0  0  0  0  0  0  0
   48.8820   33.7750   36.0410 H   0  0  0  0  0  0  0  0  0  0  0  0
   49.3600   31.6860   35.8150 C   0  0  0  0  0  0  0  0  0  0  0  0
   50.0770   31.6030   35.0190 H   0  0  0  0  0  0  0  0  0  0  0  0
   48.9150   30.5800   36.4840 N   0  0  0  0  0  0  0  0  0  0  0  0
   49.1850   29.5640   36.3330 H   0  0  0  0  0  0  0  0  0  0  0  0
   48.0340   30.9010   37.4310 N   0  0  0  0  0  0  0  0  0  0  0  0
  1  2  2  0  0  0  0
  1  6  1  0  0  0  0
  2  3  1  0  0  0  0
  3 17  1  0  0  0  0
  3  4  2  0  0  0  0
  5  4  1  0  0  0  0
  5  7  1  0  0  0  0
  6  5  2  0  0  0  0
  7  8  1  0  0  0  0
  7 15  1  0  0  0  0
  8  9  2  0  0  0  0
  9 10  1  0  0  0  0
 10 11  1  0  0  0  0
 11 12  2  0  0  0  0
 11 20  1  0  0  0  0
 13 19  1  0  0  0  0
 13 12  1  0  0  0  0
 14 13  2  0  0  0  0
 15 14  1  0  0  0  0
 15 10  2  0  0  0  0
 16  2  1  0  0  0  0
 18  8  1  0  0  0  0
 20 22  1  0  0  0  0
 20 21  1  0  0  0  0
 23  1  1  0  0  0  0
 24 31  2  0  0  0  0
 24 23  1  0  0  0  0
 25 24  1  0  0  0  0
 26 25  1  0  0  0  0
 27 25  2  0  0  0  0
 27 29  1  0  0  0  0
 28 27  1  0  0  0  0
 29 31  1  0  0  0  0
 30 29  1  0  0  0  0
M  END
>  <minimizedAffinity>
-5.20894384

>  <minimizedRMSD>
0.948454261

$$$$
