
 OpenBabel03252500543D

 29 30  0  0  0  0  0  0  0  0999 V2000
   47.4130   33.9850   42.3820 C   0  0  0  0  0  0  0  0  0  0  0  0
   46.2970   33.8490   41.5800 C   0  0  0  0  0  0  0  0  0  0  0  0
   45.0440   33.8260   42.2180 C   0  0  0  0  0  0  0  0  0  0  0  0
   45.0140   33.9350   43.5580 N   0  0  0  0  0  0  0  0  0  0  0  0
   46.1190   34.0650   44.3100 C   0  0  0  0  0  0  0  0  0  0  0  0
   47.3140   34.0890   43.7140 N   0  0  0  0  0  0  0  0  0  0  0  0
   44.1850   33.7200   41.5710 H   0  0  0  0  0  0  0  0  0  0  0  0
   46.0010   34.1480   45.3950 H   0  0  0  0  0  0  0  0  0  0  0  0
   48.7550   34.0180   41.7980 C   0  0  0  0  0  0  0  0  0  0  0  0
   48.7450   33.7790   40.7120 H   0  0  0  0  0  0  0  0  0  0  0  0
   49.3730   33.2390   42.2930 H   0  0  0  0  0  0  0  0  0  0  0  0
   49.3950   35.3550   42.0930 C   0  0  0  0  0  0  0  0  0  0  0  0
   50.4240   35.2210   42.5220 H   0  0  0  0  0  0  0  0  0  0  0  0
   49.5170   35.8750   41.1020 H   0  0  0  0  0  0  0  0  0  0  0  0
   48.7770   36.0130   42.7280 H   0  0  0  0  0  0  0  0  0  0  0  0
   46.5060   33.7480   40.2170 O   0  0  0  0  0  0  0  0  0  0  0  0
   47.9610   31.9750   38.9300 O   0  0  0  0  0  0  0  0  0  0  0  0
   46.5230   32.3400   39.2930 P   0  0  1  0  0  0  0  0  0  0  0  0
   45.9030   31.0770   40.2660 O   0  0  0  0  0  0  0  0  0  0  0  0
   45.7640   30.2430   39.7530 H   0  0  0  0  0  0  0  0  0  0  0  0
   45.5640   32.4400   37.9040 O   0  0  0  0  0  0  0  0  0  0  0  0
   45.6970   31.4790   36.9110 C   0  0  0  0  0  0  0  0  0  0  0  0
   46.7640   31.7650   36.0520 C   0  0  0  0  0  0  0  0  0  0  0  0
   47.5330   32.5450   35.9420 H   0  0  0  0  0  0  0  0  0  0  0  0
   46.8370   30.7620   35.0860 C   0  0  0  0  0  0  0  0  0  0  0  0
   47.4490   30.5230   34.2370 H   0  0  0  0  0  0  0  0  0  0  0  0
   45.8160   29.9150   35.4010 N   0  0  0  0  0  0  0  0  0  0  0  0
   45.4120   29.0150   35.0230 H   0  0  0  0  0  0  0  0  0  0  0  0
   45.1580   30.3440   36.4670 N   0  0  0  0  0  0  0  0  0  0  0  0
  1  6  1  0  0  0  0
  2  3  1  0  0  0  0
  2  1  2  0  0  0  0
  3  4  2  0  0  0  0
  4  5  1  0  0  0  0
  5  8  1  0  0  0  0
  6  5  2  0  0  0  0
  7  3  1  0  0  0  0
  9 12  1  0  0  0  0
  9 11  1  0  0  0  0
  9  1  1  0  0  0  0
 10  9  1  0  0  0  0
 12 13  1  0  0  0  0
 12 15  1  0  0  0  0
 14 12  1  0  0  0  0
 16  2  1  0  0  0  0
 18 17  2  6  0  0  0
 18 16  1  0  0  0  0
 18 19  1  0  0  0  0
 20 19  1  0  0  0  0
 21 18  1  0  0  0  0
 22 21  1  0  0  0  0
 23 22  1  0  0  0  0
 24 23  1  0  0  0  0
 25 27  1  0  0  0  0
 25 23  2  0  0  0  0
 26 25  1  0  0  0  0
 27 29  1  0  0  0  0
 28 27  1  0  0  0  0
 29 22  2  0  0  0  0
M  END
>  <minimizedAffinity>
-2.94846106

>  <minimizedRMSD>
5.95082903

$$$$
