
     RDKit          3D

 32 34  0  0  0  0  0  0  0  0999 V2000
   48.2378   34.6201   41.2869 C   0  0  1  0  0  0  0  0  0  0  0  0
   48.8600   35.9822   41.7833 C   0  0  0  0  0  0  0  0  0  0  0  0
   49.1328   34.6944   42.4379 C   0  0  2  0  0  0  0  0  0  0  0  0
   46.7612   34.5846   41.4837 C   0  0  0  0  0  0  0  0  0  0  0  0
   46.0661   34.3367   40.5042 O   0  0  0  0  0  0  0  0  0  0  0  0
   45.3936   35.9386   42.9992 C   0  0  0  0  0  0  0  0  0  0  0  0
   46.1051   34.8171   42.7335 C   0  0  0  0  0  0  0  0  0  0  0  0
   46.1914   33.8346   43.7551 C   0  0  0  0  0  0  0  0  0  0  0  0
   45.5764   34.0313   44.9473 N   0  0  0  0  0  0  0  0  0  0  0  0
   44.8715   35.1781   45.1663 C   0  0  0  0  0  0  0  0  0  0  0  0
   44.7870   36.0963   44.2201 N   0  0  0  0  0  0  0  0  0  0  0  0
   50.4585   34.2845   42.3281 O   0  0  0  0  0  0  0  0  0  0  0  0
   49.1082   32.1096   42.6629 O   0  0  0  0  0  0  0  0  0  0  0  0
   50.4256   32.6015   42.0889 P   0  0  2  0  0  0  0  0  0  0  0  0
   51.7183   31.7984   42.7570 O   0  0  0  0  0  0  0  0  0  0  0  0
   50.2997   32.3171   40.3907 O   0  0  0  0  0  0  0  0  0  0  0  0
   48.6428   34.3192   40.3146 H   0  0  0  0  0  0  0  0  0  0  0  0
   49.6110   36.4369   41.1035 H   0  0  0  0  0  0  0  0  0  0  0  0
   48.1535   36.6972   42.2494 H   0  0  0  0  0  0  0  0  0  0  0  0
   48.6342   34.3012   43.3369 H   0  0  0  0  0  0  0  0  0  0  0  0
   45.3378   36.6732   42.2150 H   0  0  0  0  0  0  0  0  0  0  0  0
   46.7110   32.9193   43.6701 H   0  0  0  0  0  0  0  0  0  0  0  0
   44.3645   35.3850   46.0933 H   0  0  0  0  0  0  0  0  0  0  0  0
   52.5022   32.3685   42.8830 H   0  0  0  0  0  0  0  0  0  0  0  0
   51.4252   32.4366   39.5701 C   0  0  0  0  0  0  0  0  0  0  0  0
   51.8676   32.1064   38.3015 C   0  0  0  0  0  0  0  0  0  0  0  0
   51.1312   31.5785   37.7106 H   0  0  0  0  0  0  0  0  0  0  0  0
   53.1775   32.5867   38.2022 C   0  0  0  0  0  0  0  0  0  0  0  0
   53.6694   32.4083   37.2650 H   0  0  0  0  0  0  0  0  0  0  0  0
   53.4764   33.1737   39.3765 N   0  0  0  0  0  0  0  0  0  0  0  0
   54.4378   33.5768   39.4303 H   0  0  0  0  0  0  0  0  0  0  0  0
   52.4417   33.0886   40.1932 N   0  0  0  0  0  0  0  0  0  0  0  0
  1  4  1  0
  1  2  1  0
  1  3  1  0
  2  3  1  0
  4  7  1  0
  5  4  2  0
  6 11  2  0
  7  6  1  0
  7  8  2  0
  8  9  1  0
  9 10  2  0
 11 10  1  0
 12  3  1  0
 14 12  1  6
 14 13  2  0
 14 15  1  0
 16 14  1  0
  1 17  1  6
  2 18  1  0
  2 19  1  0
  3 20  1  1
  6 21  1  0
  8 22  1  0
 10 23  1  0
 15 24  1  0
 25 26  1  0
 26 27  1  0
 26 28  2  0
 28 29  1  0
 28 30  1  0
 30 31  1  0
 30 32  1  0
 32 25  2  0
 16 25  1  0
M  ISO  8  17  13  18  13  19  13  20  13  21  14  22  14  23  14  24   3
M  ISO  3  27  15  29  16  31   5
M  END
>  <DihAtoms>  (1) 
13,15,24,25

>  <DihDeg>  (1) 
-0.00026942607613434575

$$$$
