
     RDKit          3D

 33 35  0  0  0  0  0  0  0  0999 V2000
   47.5766   35.2267   41.7833 C   0  0  1  0  0  0  0  0  0  0  0  0
   49.0709   35.4992   41.6184 C   0  0  0  0  0  0  0  0  0  0  0  0
   48.2544   34.9416   40.4739 C   0  0  1  0  0  0  0  0  0  0  0  0
   47.2118   34.0370   42.5758 C   0  0  0  0  0  0  0  0  0  0  0  0
   46.3399   34.3084   43.7275 C   0  0  0  0  0  0  0  0  0  0  0  0
   45.5071   35.3791   43.5510 C   0  0  0  0  0  0  0  0  0  0  0  0
   44.6292   35.7677   44.5703 C   0  0  0  0  0  0  0  0  0  0  0  0
   44.6775   35.0055   45.7171 N   0  0  0  0  0  0  0  0  0  0  0  0
   45.5047   33.9520   45.8723 C   0  0  0  0  0  0  0  0  0  0  0  0
   46.3205   33.6186   44.8823 N   0  0  0  0  0  0  0  0  0  0  0  0
   48.4550   33.6239   40.1526 O   0  0  0  0  0  0  0  0  0  0  0  0
   48.2639   34.6207   37.6838 O   0  0  0  0  0  0  0  0  0  0  0  0
   48.4131   33.3408   38.4884 P   0  0  1  0  0  0  0  0  0  0  0  0
   49.9059   32.6398   38.0365 O   0  0  0  0  0  0  0  0  0  0  0  0
   47.1783   32.2468   38.1507 O   0  0  0  0  0  0  0  0  0  0  0  0
   47.0203   36.1833   41.8982 H   0  0  0  0  0  0  0  0  0  0  0  0
   49.4511   36.5195   41.5749 H   0  0  0  0  0  0  0  0  0  0  0  0
   49.7548   34.7788   42.1164 H   0  0  0  0  0  0  0  0  0  0  0  0
   48.0882   35.6846   39.6617 H   0  0  0  0  0  0  0  0  0  0  0  0
   48.0803   33.4097   42.8654 H   0  0  0  0  0  0  0  0  0  0  0  0
   46.6119   33.3653   41.8939 H   0  0  0  0  0  0  0  0  0  0  0  0
   45.3113   36.0786   42.7509 H   0  0  0  0  0  0  0  0  0  0  0  0
   43.9144   36.5743   44.6045 H   0  0  0  0  0  0  0  0  0  0  0  0
   45.4483   33.4326   46.8195 H   0  0  0  0  0  0  0  0  0  0  0  0
   50.6328   32.9519   38.6283 H   0  0  0  0  0  0  0  0  0  0  0  0
   47.4108   30.8798   38.1040 C   0  0  0  0  0  0  0  0  0  0  0  0
   48.3147   29.9702   37.5962 C   0  0  0  0  0  0  0  0  0  0  0  0
   49.1325   30.4094   37.0436 H   0  0  0  0  0  0  0  0  0  0  0  0
   47.8499   28.7129   37.9850 C   0  0  0  0  0  0  0  0  0  0  0  0
   48.4575   27.8677   37.6611 H   0  0  0  0  0  0  0  0  0  0  0  0
   46.7114   28.8800   38.6969 N   0  0  0  0  0  0  0  0  0  0  0  0
   46.2195   28.0395   39.0720 H   0  0  0  0  0  0  0  0  0  0  0  0
   46.4565   30.1922   38.7620 N   0  0  0  0  0  0  0  0  0  0  0  0
  1  4  1  0
  2  1  1  0
  3  2  1  0
  3  1  1  0
  4  5  1  0
  5 10  1  0
  6  5  2  0
  6  7  1  0
  7  8  2  0
  8  9  1  0
 10  9  2  0
 11  3  1  0
 12 13  2  0
 13 11  1  1
 14 13  1  0
 15 13  1  0
  1 16  1  6
  2 17  1  0
  2 18  1  0
  3 19  1  6
  4 20  1  0
  4 21  1  0
  6 22  1  0
  7 23  1  0
  9 24  1  0
 14 25  1  0
 26 27  1  0
 27 28  1  0
 27 29  2  0
 29 30  1  0
 29 31  1  0
 31 32  1  0
 31 33  1  0
 33 26  2  0
 15 26  1  0
M  ISO  8  16  13  17  13  18  13  19  13  20   8  21   8  22  14  23  14
M  ISO  5  24  14  25   3  28  15  30  16  32   5
M  END
>  <DihAtoms>  (1) 
12,14,25,26

>  <DihDeg>  (1) 
0.0008749720819143

$$$$
