
 OpenBabel03242518283D

 20 21  0  0  0  0  0  0  0  0999 V2000
   48.4340   34.1090   42.4840 C   0  0  0  0  0  0  0  0  0  0  0  0
   49.2220   34.8680   43.0960 O   0  0  0  0  0  0  0  0  0  0  0  0
   48.4540   33.7550   41.1080 C   0  0  0  0  0  0  0  0  0  0  0  0
   49.0420   32.5120   40.8700 C   0  0  0  0  0  0  0  0  0  0  0  0
   49.1010   32.0880   39.5290 C   0  0  0  0  0  0  0  0  0  0  0  0
   48.5870   32.9020   38.5610 N   0  0  0  0  0  0  0  0  0  0  0  0
   48.0270   34.1000   38.8630 C   0  0  0  0  0  0  0  0  0  0  0  0
   47.9660   34.5170   40.1410 N   0  0  0  0  0  0  0  0  0  0  0  0
   49.4570   31.8460   41.6080 H   0  0  0  0  0  0  0  0  0  0  0  0
   49.5350   31.1460   39.2420 H   0  0  0  0  0  0  0  0  0  0  0  0
   47.6640   34.6340   37.9940 H   0  0  0  0  0  0  0  0  0  0  0  0
   47.4020   33.5360   43.2410 O   0  0  0  0  0  0  0  0  0  0  0  0
   46.3160   34.3480   43.6310 C   0  0  0  0  0  0  0  0  0  0  0  0
   45.7600   35.4380   42.9930 C   0  0  0  0  0  0  0  0  0  0  0  0
   46.1360   35.8090   42.0440 H   0  0  0  0  0  0  0  0  0  0  0  0
   44.7260   35.8580   43.8060 C   0  0  0  0  0  0  0  0  0  0  0  0
   44.0960   36.7130   43.5540 H   0  0  0  0  0  0  0  0  0  0  0  0
   44.6690   35.0420   44.8960 N   0  0  0  0  0  0  0  0  0  0  0  0
   43.9320   35.2340   45.6110 H   0  0  0  0  0  0  0  0  0  0  0  0
   45.6330   34.1250   44.7930 N   0  0  0  0  0  0  0  0  0  0  0  0
  1  2  2  0  0  0  0
  1 12  1  0  0  0  0
  3  1  1  0  0  0  0
  4  3  1  0  0  0  0
  4  9  1  0  0  0  0
  5  4  2  0  0  0  0
  6  7  2  0  0  0  0
  6  5  1  0  0  0  0
  7  8  1  0  0  0  0
  8  3  2  0  0  0  0
 10  5  1  0  0  0  0
 11  7  1  0  0  0  0
 12 13  1  0  0  0  0
 13 20  2  0  0  0  0
 14 13  1  0  0  0  0
 14 16  2  0  0  0  0
 15 14  1  0  0  0  0
 16 18  1  0  0  0  0
 17 16  1  0  0  0  0
 18 19  1  0  0  0  0
 20 18  1  0  0  0  0
M  END
>  <minimizedAffinity>
-3.7783258

>  <minimizedRMSD>
5.56497622

$$$$
