
 OpenBabel03252500543D

 29 30  0  0  0  0  0  0  0  0999 V2000
   46.4140   34.3100   42.4860 C   0  0  0  0  0  0  0  0  0  0  0  0
   45.1730   34.6790   42.9670 C   0  0  0  0  0  0  0  0  0  0  0  0
   44.9150   34.4430   44.3290 C   0  0  0  0  0  0  0  0  0  0  0  0
   45.8850   33.8770   45.0680 N   0  0  0  0  0  0  0  0  0  0  0  0
   47.0830   33.5300   44.5700 C   0  0  0  0  0  0  0  0  0  0  0  0
   47.3390   33.7500   43.2780 N   0  0  0  0  0  0  0  0  0  0  0  0
   43.9380   34.7390   44.6840 H   0  0  0  0  0  0  0  0  0  0  0  0
   47.8140   33.0750   45.2450 H   0  0  0  0  0  0  0  0  0  0  0  0
   46.7650   34.5210   41.0790 C   0  0  0  0  0  0  0  0  0  0  0  0
   46.0690   35.2280   40.5760 H   0  0  0  0  0  0  0  0  0  0  0  0
   46.6790   33.5510   40.5470 H   0  0  0  0  0  0  0  0  0  0  0  0
   48.2080   34.9600   40.9860 C   0  0  0  0  0  0  0  0  0  0  0  0
   48.7660   34.3430   40.2320 H   0  0  0  0  0  0  0  0  0  0  0  0
   48.1950   36.0180   40.6000 H   0  0  0  0  0  0  0  0  0  0  0  0
   48.7320   34.9780   41.9570 H   0  0  0  0  0  0  0  0  0  0  0  0
   44.2900   35.2480   42.0690 O   0  0  0  0  0  0  0  0  0  0  0  0
   43.4060   34.3500   39.7610 O   0  0  0  0  0  0  0  0  0  0  0  0
   43.0450   34.4750   41.2390 P   0  0  1  0  0  0  0  0  0  0  0  0
   42.9100   32.8910   41.8700 O   0  0  0  0  0  0  0  0  0  0  0  0
   42.1170   32.4150   41.5190 H   0  0  0  0  0  0  0  0  0  0  0  0
   41.5450   35.2340   41.4260 O   0  0  0  0  0  0  0  0  0  0  0  0
   40.3810   34.5050   41.2240 C   0  0  0  0  0  0  0  0  0  0  0  0
   39.6660   34.9660   40.1130 C   0  0  0  0  0  0  0  0  0  0  0  0
   39.7690   35.7520   39.3480 H   0  0  0  0  0  0  0  0  0  0  0  0
   38.5160   34.1910   39.9740 C   0  0  0  0  0  0  0  0  0  0  0  0
   37.6720   34.1380   39.3110 H   0  0  0  0  0  0  0  0  0  0  0  0
   38.5840   33.2970   41.0010 N   0  0  0  0  0  0  0  0  0  0  0  0
   38.0000   32.4970   41.3720 H   0  0  0  0  0  0  0  0  0  0  0  0
   39.6760   33.4910   41.7240 N   0  0  0  0  0  0  0  0  0  0  0  0
  1  2  2  0  0  0  0
  1  6  1  0  0  0  0
  2  3  1  0  0  0  0
  3  7  1  0  0  0  0
  3  4  2  0  0  0  0
  5  4  1  0  0  0  0
  5  8  1  0  0  0  0
  6  5  2  0  0  0  0
  9  1  1  0  0  0  0
 10  9  1  0  0  0  0
 11  9  1  0  0  0  0
 12  9  1  0  0  0  0
 12 15  1  0  0  0  0
 13 12  1  0  0  0  0
 14 12  1  0  0  0  0
 16  2  1  0  0  0  0
 18 17  2  6  0  0  0
 18 21  1  0  0  0  0
 18 19  1  0  0  0  0
 18 16  1  0  0  0  0
 20 19  1  0  0  0  0
 22 21  1  0  0  0  0
 22 29  2  0  0  0  0
 23 22  1  0  0  0  0
 24 23  1  0  0  0  0
 25 23  2  0  0  0  0
 25 27  1  0  0  0  0
 26 25  1  0  0  0  0
 27 28  1  0  0  0  0
 27 29  1  0  0  0  0
M  END
>  <minimizedAffinity>
-4.91108322

>  <minimizedRMSD>
1.63845217

$$$$
