
 OpenBabel03252503583D

 33 36  0  0  0  0  0  0  0  0999 V2000
   47.0260   35.0430   42.5750 C   0  0  0  0  0  0  0  0  0  0  0  0
   45.9730   35.9300   42.3620 C   0  0  0  0  0  0  0  0  0  0  0  0
   44.8690   35.8360   43.1900 C   0  0  0  0  0  0  0  0  0  0  0  0
   44.8540   34.8940   44.1650 N   0  0  0  0  0  0  0  0  0  0  0  0
   45.8970   34.0420   44.3490 C   0  0  0  0  0  0  0  0  0  0  0  0
   46.9830   34.1170   43.5520 N   0  0  0  0  0  0  0  0  0  0  0  0
   45.9570   36.6890   41.5940 H   0  0  0  0  0  0  0  0  0  0  0  0
   44.0210   36.5130   43.0570 H   0  0  0  0  0  0  0  0  0  0  0  0
   46.1980   31.7270   45.0530 C   0  0  0  0  0  0  0  0  0  0  0  0
   45.8780   33.0250   45.4030 C   0  0  0  0  0  0  0  0  0  0  0  0
   45.5540   33.3250   46.7180 C   0  0  0  0  0  0  0  0  0  0  0  0
   45.5610   32.3100   47.6530 C   0  0  0  0  0  0  0  0  0  0  0  0
   45.2970   32.2890   48.9760 N   0  0  0  0  0  0  0  0  0  0  0  0
   45.4340   31.0530   49.4700 C   0  0  0  0  0  0  0  0  0  0  0  0
   45.8050   30.2150   48.4280 C   0  0  0  0  0  0  0  0  0  0  0  0
   45.8820   31.0050   47.3010 C   0  0  0  0  0  0  0  0  0  0  0  0
   46.1990   30.7230   45.9960 C   0  0  0  0  0  0  0  0  0  0  0  0
   46.4480   31.5090   44.0240 H   0  0  0  0  0  0  0  0  0  0  0  0
   45.3050   34.3560   46.9790 H   0  0  0  0  0  0  0  0  0  0  0  0
   45.0190   33.1150   49.5670 H   0  0  0  0  0  0  0  0  0  0  0  0
   45.3020   30.6740   50.4810 H   0  0  0  0  0  0  0  0  0  0  0  0
   46.0100   29.1610   48.4110 H   0  0  0  0  0  0  0  0  0  0  0  0
   46.4600   29.7360   45.6440 H   0  0  0  0  0  0  0  0  0  0  0  0
   48.1650   35.1580   41.7020 C   0  0  0  0  0  0  0  0  0  0  0  0
   49.0340   36.0760   41.7750 O   0  0  0  0  0  0  0  0  0  0  0  0
   48.3610   34.1620   40.6470 C   0  0  0  0  0  0  0  0  0  0  0  0
   48.0180   34.2270   39.3120 C   0  0  0  0  0  0  0  0  0  0  0  0
   47.5340   35.0950   38.9020 H   0  0  0  0  0  0  0  0  0  0  0  0
   48.3810   33.0660   38.6520 C   0  0  0  0  0  0  0  0  0  0  0  0
   48.2310   32.8500   37.6040 H   0  0  0  0  0  0  0  0  0  0  0  0
   48.9430   32.3160   39.6180 N   0  0  0  0  0  0  0  0  0  0  0  0
   49.3340   31.3610   39.4660 H   0  0  0  0  0  0  0  0  0  0  0  0
   48.9410   32.9370   40.7860 N   0  0  0  0  0  0  0  0  0  0  0  0
  1  6  1  0  0  0  0
  2  1  2  0  0  0  0
  2  3  1  0  0  0  0
  3  4  2  0  0  0  0
  4  5  1  0  0  0  0
  5 10  1  0  0  0  0
  6  5  2  0  0  0  0
  7  2  1  0  0  0  0
  8  3  1  0  0  0  0
  9 10  2  0  0  0  0
  9 17  1  0  0  0  0
 10 11  1  0  0  0  0
 11 19  1  0  0  0  0
 11 12  2  0  0  0  0
 12 13  1  0  0  0  0
 13 14  1  0  0  0  0
 13 20  1  0  0  0  0
 14 21  1  0  0  0  0
 15 14  2  0  0  0  0
 16 12  1  0  0  0  0
 16 15  1  0  0  0  0
 17 16  2  0  0  0  0
 18  9  1  0  0  0  0
 22 15  1  0  0  0  0
 23 17  1  0  0  0  0
 24 25  2  0  0  0  0
 24  1  1  0  0  0  0
 26 33  2  0  0  0  0
 26 24  1  0  0  0  0
 27 26  1  0  0  0  0
 28 27  1  0  0  0  0
 29 27  2  0  0  0  0
 29 31  1  0  0  0  0
 30 29  1  0  0  0  0
 31 33  1  0  0  0  0
 32 31  1  0  0  0  0
M  END
>  <minimizedAffinity>
-5.98766613

>  <minimizedRMSD>
0.426195115

$$$$
