
 OpenBabel03252503583D

 33 36  0  0  0  0  0  0  0  0999 V2000
   47.0150   35.0500   42.5890 C   0  0  0  0  0  0  0  0  0  0  0  0
   45.9610   35.9360   42.3800 C   0  0  0  0  0  0  0  0  0  0  0  0
   44.8580   35.8400   43.2090 C   0  0  0  0  0  0  0  0  0  0  0  0
   44.8460   34.8970   44.1830 N   0  0  0  0  0  0  0  0  0  0  0  0
   45.8900   34.0450   44.3640 C   0  0  0  0  0  0  0  0  0  0  0  0
   46.9750   34.1230   43.5650 N   0  0  0  0  0  0  0  0  0  0  0  0
   45.9430   36.6970   41.6130 H   0  0  0  0  0  0  0  0  0  0  0  0
   44.0100   36.5170   43.0790 H   0  0  0  0  0  0  0  0  0  0  0  0
   46.2020   31.7310   45.0660 C   0  0  0  0  0  0  0  0  0  0  0  0
   45.8740   33.0270   45.4170 C   0  0  0  0  0  0  0  0  0  0  0  0
   45.5440   33.3230   46.7310 C   0  0  0  0  0  0  0  0  0  0  0  0
   45.5530   32.3080   47.6650 C   0  0  0  0  0  0  0  0  0  0  0  0
   45.2860   32.2830   48.9870 N   0  0  0  0  0  0  0  0  0  0  0  0
   45.4280   31.0470   49.4800 C   0  0  0  0  0  0  0  0  0  0  0  0
   45.8070   30.2130   48.4380 C   0  0  0  0  0  0  0  0  0  0  0  0
   45.8830   31.0050   47.3130 C   0  0  0  0  0  0  0  0  0  0  0  0
   46.2060   30.7260   46.0080 C   0  0  0  0  0  0  0  0  0  0  0  0
   46.4560   31.5170   44.0380 H   0  0  0  0  0  0  0  0  0  0  0  0
   45.2880   34.3530   46.9920 H   0  0  0  0  0  0  0  0  0  0  0  0
   45.0010   33.1070   49.5780 H   0  0  0  0  0  0  0  0  0  0  0  0
   45.2950   30.6660   50.4900 H   0  0  0  0  0  0  0  0  0  0  0  0
   46.0190   29.1600   48.4200 H   0  0  0  0  0  0  0  0  0  0  0  0
   46.4740   29.7410   45.6550 H   0  0  0  0  0  0  0  0  0  0  0  0
   48.1520   35.1670   41.7140 C   0  0  0  0  0  0  0  0  0  0  0  0
   49.0130   36.0930   41.7780 O   0  0  0  0  0  0  0  0  0  0  0  0
   48.3570   34.1620   40.6690 C   0  0  0  0  0  0  0  0  0  0  0  0
   48.9380   32.9150   40.7610 C   0  0  0  0  0  0  0  0  0  0  0  0
   49.3210   32.5460   41.6950 H   0  0  0  0  0  0  0  0  0  0  0  0
   48.9360   32.2760   39.5330 C   0  0  0  0  0  0  0  0  0  0  0  0
   49.3260   31.2920   39.3200 H   0  0  0  0  0  0  0  0  0  0  0  0
   48.3450   33.1680   38.7160 N   0  0  0  0  0  0  0  0  0  0  0  0
   48.1770   33.0090   37.6980 H   0  0  0  0  0  0  0  0  0  0  0  0
   48.0000   34.2710   39.3580 N   0  0  0  0  0  0  0  0  0  0  0  0
  1  6  1  0  0  0  0
  2  1  2  0  0  0  0
  2  3  1  0  0  0  0
  3  4  2  0  0  0  0
  4  5  1  0  0  0  0
  5 10  1  0  0  0  0
  6  5  2  0  0  0  0
  7  2  1  0  0  0  0
  8  3  1  0  0  0  0
  9 10  2  0  0  0  0
  9 17  1  0  0  0  0
 10 11  1  0  0  0  0
 11 19  1  0  0  0  0
 11 12  2  0  0  0  0
 12 13  1  0  0  0  0
 13 14  1  0  0  0  0
 13 20  1  0  0  0  0
 14 21  1  0  0  0  0
 15 14  2  0  0  0  0
 16 12  1  0  0  0  0
 16 15  1  0  0  0  0
 17 16  2  0  0  0  0
 18  9  1  0  0  0  0
 22 15  1  0  0  0  0
 23 17  1  0  0  0  0
 24 25  2  0  0  0  0
 24  1  1  0  0  0  0
 26 27  1  0  0  0  0
 26 24  1  0  0  0  0
 27 28  1  0  0  0  0
 29 27  2  0  0  0  0
 30 29  1  0  0  0  0
 31 33  1  0  0  0  0
 31 29  1  0  0  0  0
 32 31  1  0  0  0  0
 33 26  2  0  0  0  0
M  END
>  <minimizedAffinity>
-5.8970871

>  <minimizedRMSD>
0.423902482

$$$$
