
 OpenBabel03252503583D

 33 36  0  0  0  0  0  0  0  0999 V2000
   46.7240   35.0490   42.6790 C   0  0  0  0  0  0  0  0  0  0  0  0
   45.8010   36.0920   42.6830 C   0  0  0  0  0  0  0  0  0  0  0  0
   44.8450   36.1090   43.6830 C   0  0  0  0  0  0  0  0  0  0  0  0
   44.8440   35.1200   44.6110 N   0  0  0  0  0  0  0  0  0  0  0  0
   45.7580   34.1140   44.5810 C   0  0  0  0  0  0  0  0  0  0  0  0
   46.6980   34.0800   43.6140 N   0  0  0  0  0  0  0  0  0  0  0  0
   45.7770   36.8920   41.9580 H   0  0  0  0  0  0  0  0  0  0  0  0
   44.1030   36.9100   43.7220 H   0  0  0  0  0  0  0  0  0  0  0  0
   46.0720   31.7680   45.1670 C   0  0  0  0  0  0  0  0  0  0  0  0
   45.7540   33.0470   45.5850 C   0  0  0  0  0  0  0  0  0  0  0  0
   45.4460   33.2810   46.9160 C   0  0  0  0  0  0  0  0  0  0  0  0
   45.4660   32.2220   47.8010 C   0  0  0  0  0  0  0  0  0  0  0  0
   45.2180   32.1350   49.1240 N   0  0  0  0  0  0  0  0  0  0  0  0
   45.3630   30.8770   49.5560 C   0  0  0  0  0  0  0  0  0  0  0  0
   45.7230   30.0920   48.4690 C   0  0  0  0  0  0  0  0  0  0  0  0
   45.7850   30.9370   47.3820 C   0  0  0  0  0  0  0  0  0  0  0  0
   46.0870   30.7200   46.0610 C   0  0  0  0  0  0  0  0  0  0  0  0
   46.3090   31.6020   44.1270 H   0  0  0  0  0  0  0  0  0  0  0  0
   45.1970   34.2980   47.2310 H   0  0  0  0  0  0  0  0  0  0  0  0
   44.9460   32.9310   49.7580 H   0  0  0  0  0  0  0  0  0  0  0  0
   45.2450   30.4490   50.5480 H   0  0  0  0  0  0  0  0  0  0  0  0
   45.9310   29.0410   48.3980 H   0  0  0  0  0  0  0  0  0  0  0  0
   46.3450   29.7520   45.6570 H   0  0  0  0  0  0  0  0  0  0  0  0
   47.7090   35.0500   41.6300 C   0  0  0  0  0  0  0  0  0  0  0  0
   48.8330   35.6300   41.7020 O   0  0  0  0  0  0  0  0  0  0  0  0
   47.4240   34.3420   40.3800 C   0  0  0  0  0  0  0  0  0  0  0  0
   48.1500   34.3180   39.2070 C   0  0  0  0  0  0  0  0  0  0  0  0
   49.0690   34.8670   39.1090 H   0  0  0  0  0  0  0  0  0  0  0  0
   47.5310   33.5220   38.2590 C   0  0  0  0  0  0  0  0  0  0  0  0
   47.8830   33.3260   37.2570 H   0  0  0  0  0  0  0  0  0  0  0  0
   46.4300   33.0790   38.8920 N   0  0  0  0  0  0  0  0  0  0  0  0
   45.7220   32.4430   38.4610 H   0  0  0  0  0  0  0  0  0  0  0  0
   46.3490   33.5440   40.1260 N   0  0  0  0  0  0  0  0  0  0  0  0
  1  2  2  0  0  0  0
  1  6  1  0  0  0  0
  2  3  1  0  0  0  0
  3  8  1  0  0  0  0
  3  4  2  0  0  0  0
  5  4  1  0  0  0  0
  5 10  1  0  0  0  0
  6  5  2  0  0  0  0
  7  2  1  0  0  0  0
  9 10  2  0  0  0  0
  9 17  1  0  0  0  0
 10 11  1  0  0  0  0
 11 19  1  0  0  0  0
 11 12  2  0  0  0  0
 12 13  1  0  0  0  0
 13 14  1  0  0  0  0
 13 20  1  0  0  0  0
 14 21  1  0  0  0  0
 15 14  2  0  0  0  0
 16 12  1  0  0  0  0
 16 15  1  0  0  0  0
 17 16  2  0  0  0  0
 18  9  1  0  0  0  0
 22 15  1  0  0  0  0
 23 17  1  0  0  0  0
 24 25  2  0  0  0  0
 24  1  1  0  0  0  0
 26 24  1  0  0  0  0
 27 26  1  0  0  0  0
 28 27  1  0  0  0  0
 29 31  1  0  0  0  0
 29 27  2  0  0  0  0
 30 29  1  0  0  0  0
 31 33  1  0  0  0  0
 32 31  1  0  0  0  0
 33 26  2  0  0  0  0
M  END
>  <minimizedAffinity>
-6.07375956

>  <minimizedRMSD>
0.7295807

$$$$
