
 OpenBabel03252503583D

 33 36  0  0  0  0  0  0  0  0999 V2000
   47.0250   35.0440   42.5770 C   0  0  0  0  0  0  0  0  0  0  0  0
   45.9720   35.9300   42.3640 C   0  0  0  0  0  0  0  0  0  0  0  0
   44.8670   35.8350   43.1920 C   0  0  0  0  0  0  0  0  0  0  0  0
   44.8530   34.8930   44.1670 N   0  0  0  0  0  0  0  0  0  0  0  0
   45.8950   34.0410   44.3510 C   0  0  0  0  0  0  0  0  0  0  0  0
   46.9820   34.1170   43.5550 N   0  0  0  0  0  0  0  0  0  0  0  0
   45.9560   36.6890   41.5970 H   0  0  0  0  0  0  0  0  0  0  0  0
   44.0200   36.5120   43.0580 H   0  0  0  0  0  0  0  0  0  0  0  0
   46.1940   31.7260   45.0540 C   0  0  0  0  0  0  0  0  0  0  0  0
   45.8760   33.0240   45.4050 C   0  0  0  0  0  0  0  0  0  0  0  0
   45.5540   33.3250   46.7200 C   0  0  0  0  0  0  0  0  0  0  0  0
   45.5600   32.3100   47.6550 C   0  0  0  0  0  0  0  0  0  0  0  0
   45.2970   32.2890   48.9780 N   0  0  0  0  0  0  0  0  0  0  0  0
   45.4330   31.0520   49.4720 C   0  0  0  0  0  0  0  0  0  0  0  0
   45.8020   30.2140   48.4300 C   0  0  0  0  0  0  0  0  0  0  0  0
   45.8790   31.0040   47.3030 C   0  0  0  0  0  0  0  0  0  0  0  0
   46.1950   30.7220   45.9980 C   0  0  0  0  0  0  0  0  0  0  0  0
   46.4420   31.5080   44.0250 H   0  0  0  0  0  0  0  0  0  0  0  0
   45.3060   34.3560   46.9810 H   0  0  0  0  0  0  0  0  0  0  0  0
   45.0210   33.1150   49.5700 H   0  0  0  0  0  0  0  0  0  0  0  0
   45.3020   30.6730   50.4830 H   0  0  0  0  0  0  0  0  0  0  0  0
   46.0060   29.1600   48.4120 H   0  0  0  0  0  0  0  0  0  0  0  0
   46.4540   29.7350   45.6440 H   0  0  0  0  0  0  0  0  0  0  0  0
   48.1650   35.1590   41.7050 C   0  0  0  0  0  0  0  0  0  0  0  0
   49.0340   36.0760   41.7800 O   0  0  0  0  0  0  0  0  0  0  0  0
   48.3600   34.1640   40.6490 C   0  0  0  0  0  0  0  0  0  0  0  0
   48.0180   34.2310   39.3150 C   0  0  0  0  0  0  0  0  0  0  0  0
   47.5340   35.1000   38.9060 H   0  0  0  0  0  0  0  0  0  0  0  0
   48.3800   33.0710   38.6520 C   0  0  0  0  0  0  0  0  0  0  0  0
   48.2310   32.8550   37.6040 H   0  0  0  0  0  0  0  0  0  0  0  0
   48.9420   32.3200   39.6170 N   0  0  0  0  0  0  0  0  0  0  0  0
   49.3330   31.3630   39.4640 H   0  0  0  0  0  0  0  0  0  0  0  0
   48.9390   32.9380   40.7870 N   0  0  0  0  0  0  0  0  0  0  0  0
  1  6  1  0  0  0  0
  2  1  2  0  0  0  0
  2  3  1  0  0  0  0
  3  4  2  0  0  0  0
  4  5  1  0  0  0  0
  5 10  1  0  0  0  0
  6  5  2  0  0  0  0
  7  2  1  0  0  0  0
  8  3  1  0  0  0  0
  9 10  2  0  0  0  0
  9 17  1  0  0  0  0
 10 11  1  0  0  0  0
 11 19  1  0  0  0  0
 11 12  2  0  0  0  0
 12 13  1  0  0  0  0
 13 14  1  0  0  0  0
 13 20  1  0  0  0  0
 14 21  1  0  0  0  0
 15 14  2  0  0  0  0
 16 12  1  0  0  0  0
 16 15  1  0  0  0  0
 17 16  2  0  0  0  0
 18  9  1  0  0  0  0
 22 15  1  0  0  0  0
 23 17  1  0  0  0  0
 24 25  2  0  0  0  0
 24  1  1  0  0  0  0
 26 33  2  0  0  0  0
 26 24  1  0  0  0  0
 27 26  1  0  0  0  0
 28 27  1  0  0  0  0
 29 27  2  0  0  0  0
 29 31  1  0  0  0  0
 30 29  1  0  0  0  0
 31 33  1  0  0  0  0
 32 31  1  0  0  0  0
M  END
>  <minimizedAffinity>
-5.9897356

>  <minimizedRMSD>
0.396008611

$$$$
