
 OpenBabel03242512063D

 26 28  0  0  1  0  0  0  0  0999 V2000
   47.4490   34.3760   41.1820 C   0  0  1  0  0  0  0  0  0  0  0  0
   48.3280   35.6110   41.5690 C   0  0  0  0  0  0  0  0  0  0  0  0
   48.4800   34.2670   42.1860 C   0  0  2  0  0  0  0  0  0  0  0  0
   47.5250   34.3470   40.0640 H   0  0  0  0  0  0  0  0  0  0  0  0
   47.8440   36.4150   42.1310 H   0  0  0  0  0  0  0  0  0  0  0  0
   49.1200   35.9320   40.8810 H   0  0  0  0  0  0  0  0  0  0  0  0
   48.1300   34.2040   43.2370 H   0  0  0  0  0  0  0  0  0  0  0  0
   49.6480   33.4150   41.8350 C   0  0  0  0  0  0  0  0  0  0  0  0
   49.7160   32.3290   40.9810 C   0  0  0  0  0  0  0  0  0  0  0  0
   48.8970   31.9210   40.4200 H   0  0  0  0  0  0  0  0  0  0  0  0
   51.0180   31.8800   40.9910 C   0  0  0  0  0  0  0  0  0  0  0  0
   51.4630   31.0480   40.4500 H   0  0  0  0  0  0  0  0  0  0  0  0
   51.7090   32.6690   41.8230 N   0  0  0  0  0  0  0  0  0  0  0  0
   52.7160   32.6700   42.1100 H   0  0  0  0  0  0  0  0  0  0  0  0
   50.9120   33.5710   42.3210 N   0  0  0  0  0  0  0  0  0  0  0  0
   46.0170   34.5490   41.5780 C   0  0  0  0  0  0  0  0  0  0  0  0
   45.1800   34.4370   40.6720 O   0  0  0  0  0  0  0  0  0  0  0  0
   45.0730   36.0330   43.2710 C   0  0  0  0  0  0  0  0  0  0  0  0
   45.5780   34.8180   42.9020 C   0  0  0  0  0  0  0  0  0  0  0  0
   45.6490   33.8100   43.8800 C   0  0  0  0  0  0  0  0  0  0  0  0
   45.2240   34.0590   45.1350 N   0  0  0  0  0  0  0  0  0  0  0  0
   44.7210   35.2900   45.4760 C   0  0  0  0  0  0  0  0  0  0  0  0
   44.6580   36.2340   44.5490 N   0  0  0  0  0  0  0  0  0  0  0  0
   44.9820   36.8640   42.5870 H   0  0  0  0  0  0  0  0  0  0  0  0
   46.0450   32.8440   43.6070 H   0  0  0  0  0  0  0  0  0  0  0  0
   44.3860   35.4570   46.5010 H   0  0  0  0  0  0  0  0  0  0  0  0
  1  4  1  6  0  0  0
  1  2  1  0  0  0  0
  1 16  1  0  0  0  0
  1  3  1  0  0  0  0
  2  5  1  0  0  0  0
  2  3  1  0  0  0  0
  3  7  1  1  0  0  0
  6  2  1  0  0  0  0
  8  3  1  0  0  0  0
  8 15  2  0  0  0  0
  9 11  2  0  0  0  0
  9  8  1  0  0  0  0
 10  9  1  0  0  0  0
 11 13  1  0  0  0  0
 12 11  1  0  0  0  0
 13 14  1  0  0  0  0
 13 15  1  0  0  0  0
 16 19  1  0  0  0  0
 17 16  2  0  0  0  0
 18 23  1  0  0  0  0
 19 18  2  0  0  0  0
 19 20  1  0  0  0  0
 20 21  2  0  0  0  0
 21 22  1  0  0  0  0
 22 26  1  0  0  0  0
 23 22  2  0  0  0  0
 24 18  1  0  0  0  0
 25 20  1  0  0  0  0
M  END
>  <minimizedAffinity>
-5.16216421

>  <minimizedRMSD>
1.4009515

$$$$
