
 OpenBabel03252505053D

 42 45  0  0  1  0  0  0  0  0999 V2000
   44.5690   35.5710   44.6140 C   0  0  0  0  0  0  0  0  0  0  0  0
   45.2400   35.5990   43.3620 C   0  0  0  0  0  0  0  0  0  0  0  0
   46.3350   34.6970   43.1900 C   0  0  0  0  0  0  0  0  0  0  0  0
   46.6790   33.8730   44.2080 N   0  0  0  0  0  0  0  0  0  0  0  0
   46.0080   33.8900   45.3720 C   0  0  0  0  0  0  0  0  0  0  0  0
   44.9580   34.7290   45.5850 N   0  0  0  0  0  0  0  0  0  0  0  0
   43.7450   36.2560   44.7310 H   0  0  0  0  0  0  0  0  0  0  0  0
   44.9310   36.2770   42.5730 H   0  0  0  0  0  0  0  0  0  0  0  0
   46.4310   32.9670   46.4530 C   0  0  2  0  0  0  0  0  0  0  0  0
   46.9650   31.7410   45.7660 C   0  0  0  0  0  0  0  0  0  0  0  0
   46.0970   30.5500   45.7850 C   0  0  0  0  0  0  0  0  0  0  0  0
   45.8030   30.2890   47.2630 C   0  0  0  0  0  0  0  0  0  0  0  0
   45.0150   31.3530   47.8730 C   0  0  0  0  0  0  0  0  0  0  0  0
   45.3800   32.7280   47.4160 C   0  0  0  0  0  0  0  0  0  0  0  0
   47.2800   33.4870   46.9640 H   0  0  0  0  0  0  0  0  0  0  0  0
   47.2410   31.9380   44.6990 H   0  0  0  0  0  0  0  0  0  0  0  0
   47.9260   31.4610   46.2450 H   0  0  0  0  0  0  0  0  0  0  0  0
   45.2020   30.5690   45.1610 H   0  0  0  0  0  0  0  0  0  0  0  0
   46.7040   29.6800   45.4640 H   0  0  0  0  0  0  0  0  0  0  0  0
   46.7610   30.1370   47.7720 H   0  0  0  0  0  0  0  0  0  0  0  0
   45.1840   29.3880   47.2730 H   0  0  0  0  0  0  0  0  0  0  0  0
   44.2260   31.3430   48.5800 H   0  0  0  0  0  0  0  0  0  0  0  0
   44.6860   33.8720   47.9300 N   0  0  0  0  0  0  0  0  0  0  0  0
   45.0370   34.5330   48.6260 H   0  0  0  0  0  0  0  0  0  0  0  0
   43.7130   34.0420   47.5450 H   0  0  0  0  0  0  0  0  0  0  0  0
   47.0400   34.7020   41.9160 C   0  0  0  0  0  0  0  0  0  0  0  0
   48.1900   35.4170   41.8150 C   0  0  0  0  0  0  0  0  0  0  0  0
   48.8270   35.3870   40.5650 C   0  0  0  0  0  0  0  0  0  0  0  0
   48.2310   34.6440   39.5710 C   0  0  0  0  0  0  0  0  0  0  0  0
   47.0790   33.9290   39.6770 C   0  0  0  0  0  0  0  0  0  0  0  0
   46.4930   33.9870   40.9140 N   0  0  0  0  0  0  0  0  0  0  0  0
   48.6410   35.9900   42.5950 H   0  0  0  0  0  0  0  0  0  0  0  0
   49.7450   35.9300   40.4080 H   0  0  0  0  0  0  0  0  0  0  0  0
   48.7600   34.6530   38.6280 H   0  0  0  0  0  0  0  0  0  0  0  0
   46.4910   33.1660   38.6150 C   0  0  0  0  0  0  0  0  0  0  0  0
   46.6850   33.3270   37.2710 C   0  0  0  0  0  0  0  0  0  0  0  0
   47.3340   34.0790   36.8190 H   0  0  0  0  0  0  0  0  0  0  0  0
   45.8990   32.3490   36.6550 C   0  0  0  0  0  0  0  0  0  0  0  0
   45.9010   32.2910   35.5730 H   0  0  0  0  0  0  0  0  0  0  0  0
   45.2710   31.6470   37.6220 N   0  0  0  0  0  0  0  0  0  0  0  0
   44.6510   30.8840   37.2710 H   0  0  0  0  0  0  0  0  0  0  0  0
   45.6350   32.1490   38.7870 N   0  0  0  0  0  0  0  0  0  0  0  0
  1  7  1  0  0  0  0
  1  6  1  0  0  0  0
  2  1  2  0  0  0  0
  3  2  1  0  0  0  0
  3  4  2  0  0  0  0
  4  5  1  0  0  0  0
  5  6  2  0  0  0  0
  5  9  1  0  0  0  0
  8  2  1  0  0  0  0
  9 15  1  1  0  0  0
  9 14  1  0  0  0  0
 10 11  1  0  0  0  0
 10 17  1  0  0  0  0
 10  9  1  0  0  0  0
 11 12  1  0  0  0  0
 12 21  1  0  0  0  0
 12 20  1  0  0  0  0
 12 13  1  0  0  0  0
 13 22  1  0  0  0  0
 14 13  2  0  0  0  0
 14 23  1  0  0  0  0
 16 10  1  0  0  0  0
 18 11  1  0  0  0  0
 19 11  1  0  0  0  0
 23 24  1  0  0  0  0
 25 23  1  0  0  0  0
 26  3  1  0  0  0  0
 27 26  1  0  0  0  0
 27 32  1  0  0  0  0
 28 27  2  0  0  0  0
 29 30  2  0  0  0  0
 29 28  1  0  0  0  0
 30 31  1  0  0  0  0
 31 26  2  0  0  0  0
 33 28  1  0  0  0  0
 34 29  1  0  0  0  0
 35 42  2  0  0  0  0
 35 30  1  0  0  0  0
 36 35  1  0  0  0  0
 37 36  1  0  0  0  0
 38 36  2  0  0  0  0
 38 40  1  0  0  0  0
 39 38  1  0  0  0  0
 40 42  1  0  0  0  0
 41 40  1  0  0  0  0
M  END
>  <minimizedAffinity>
-7.22399902

>  <minimizedRMSD>
0.171587139

$$$$
