
 OpenBabel03252502493D

 44 47  0  0  1  0  0  0  0  0999 V2000
   37.3270   31.6840   39.9530 C   0  0  1  0  0  0  0  0  0  0  0  0
   37.2310   33.1570   39.7590 C   0  0  0  0  0  0  0  0  0  0  0  0
   38.3730   32.5500   40.4850 C   0  0  2  0  0  0  0  0  0  0  0  0
   37.4830   31.0640   39.0730 H   0  0  0  0  0  0  0  0  0  0  0  0
   37.3460   33.5620   38.7200 H   0  0  0  0  0  0  0  0  0  0  0  0
   36.4080   33.6830   40.3010 H   0  0  0  0  0  0  0  0  0  0  0  0
   38.4730   32.8560   41.5250 H   0  0  0  0  0  0  0  0  0  0  0  0
   39.5940   32.5410   39.6990 N   0  0  0  0  0  0  0  0  0  0  0  0
   40.1170   33.8240   39.4090 C   0  0  0  0  0  0  0  0  0  0  0  0
   41.3730   33.5910   38.5910 C   0  0  0  0  0  0  0  0  0  0  0  0
   41.0840   32.9420   37.3500 N   0  0  0  0  0  0  0  0  0  0  0  0
   39.9050   32.1060   37.3820 C   0  0  0  0  0  0  0  0  0  0  0  0
   39.7320   31.5090   38.7650 C   0  0  0  0  0  0  0  0  0  0  0  0
   39.4070   34.3490   38.7310 H   0  0  0  0  0  0  0  0  0  0  0  0
   40.3520   34.3600   40.3270 H   0  0  0  0  0  0  0  0  0  0  0  0
   41.8740   34.5700   38.4450 H   0  0  0  0  0  0  0  0  0  0  0  0
   42.0540   32.9610   39.1890 H   0  0  0  0  0  0  0  0  0  0  0  0
   41.9070   32.4720   36.9480 H   0  0  0  0  0  0  0  0  0  0  0  0
   40.1330   31.2340   36.7010 H   0  0  0  0  0  0  0  0  0  0  0  0
   38.9910   32.5910   37.0290 H   0  0  0  0  0  0  0  0  0  0  0  0
   40.5650   30.8050   38.9690 H   0  0  0  0  0  0  0  0  0  0  0  0
   38.8060   30.8860   38.7350 H   0  0  0  0  0  0  0  0  0  0  0  0
   36.3860   31.0620   40.9430 C   0  0  0  0  0  0  0  0  0  0  0  0
   36.8660   31.0420   41.9480 H   0  0  0  0  0  0  0  0  0  0  0  0
   35.4530   31.6640   41.0980 H   0  0  0  0  0  0  0  0  0  0  0  0
   36.1080   29.6740   40.4550 C   0  0  0  0  0  0  0  0  0  0  0  0
   36.2670   29.4720   39.4070 H   0  0  0  0  0  0  0  0  0  0  0  0
   35.0070   29.4880   40.6300 H   0  0  0  0  0  0  0  0  0  0  0  0
   37.8600   28.2700   43.4530 C   0  0  0  0  0  0  0  0  0  0  0  0
   37.2440   29.1900   42.5740 C   0  0  0  0  0  0  0  0  0  0  0  0
   36.7630   28.7030   41.3930 C   0  0  0  0  0  0  0  0  0  0  0  0
   36.8900   27.3850   41.1090 N   0  0  0  0  0  0  0  0  0  0  0  0
   37.4690   26.5360   41.9390 C   0  0  0  0  0  0  0  0  0  0  0  0
   37.9500   26.9700   43.1010 N   0  0  0  0  0  0  0  0  0  0  0  0
   38.2530   28.6010   44.3910 H   0  0  0  0  0  0  0  0  0  0  0  0
   37.1910   30.2180   42.8900 H   0  0  0  0  0  0  0  0  0  0  0  0
   37.5380   25.1260   41.5000 C   0  0  0  0  0  0  0  0  0  0  0  0
   36.7960   24.4380   40.5870 C   0  0  0  0  0  0  0  0  0  0  0  0
   35.9970   24.8590   40.0160 H   0  0  0  0  0  0  0  0  0  0  0  0
   37.2490   23.1230   40.5280 C   0  0  0  0  0  0  0  0  0  0  0  0
   36.8800   22.3100   39.9060 H   0  0  0  0  0  0  0  0  0  0  0  0
   38.2510   23.0460   41.4050 N   0  0  0  0  0  0  0  0  0  0  0  0
   38.8610   22.2140   41.6580 H   0  0  0  0  0  0  0  0  0  0  0  0
   38.4260   24.2110   41.9770 N   0  0  0  0  0  0  0  0  0  0  0  0
  1  4  1  6  0  0  0
  1  3  1  0  0  0  0
  1 23  1  0  0  0  0
  2  1  1  0  0  0  0
  2  6  1  0  0  0  0
  2  3  1  0  0  0  0
  3  7  1  1  0  0  0
  5  2  1  0  0  0  0
  8  3  1  0  0  0  0
  9  8  1  0  0  0  0
  9 15  1  0  0  0  0
 10 17  1  0  0  0  0
 10  9  1  0  0  0  0
 11 12  1  0  0  0  0
 11 10  1  0  0  0  0
 12 13  1  0  0  0  0
 13 21  1  0  0  0  0
 13  8  1  0  0  0  0
 14  9  1  0  0  0  0
 16 10  1  0  0  0  0
 18 11  1  0  0  0  0
 19 12  1  0  0  0  0
 20 12  1  0  0  0  0
 22 13  1  0  0  0  0
 23 25  1  0  0  0  0
 23 24  1  0  0  0  0
 26 28  1  0  0  0  0
 26 23  1  0  0  0  0
 26 31  1  0  0  0  0
 27 26  1  0  0  0  0
 29 35  1  0  0  0  0
 30 36  1  0  0  0  0
 30 29  2  0  0  0  0
 31 30  1  0  0  0  0
 32 31  2  0  0  0  0
 32 33  1  0  0  0  0
 33 34  2  0  0  0  0
 34 29  1  0  0  0  0
 37 33  1  0  0  0  0
 37 44  2  0  0  0  0
 38 37  1  0  0  0  0
 39 38  1  0  0  0  0
 40 38  2  0  0  0  0
 40 42  1  0  0  0  0
 41 40  1  0  0  0  0
 42 43  1  0  0  0  0
 42 44  1  0  0  0  0
M  END
>  <minimizedAffinity>
-5.73975992

$$$$

 OpenBabel03252502493D

 44 47  0  0  1  0  0  0  0  0999 V2000
   39.4580   26.8510   42.2470 C   0  0  1  0  0  0  0  0  0  0  0  0
   40.5460   25.9050   42.6200 C   0  0  0  0  0  0  0  0  0  0  0  0
   39.1290   25.6120   42.9430 C   0  0  2  0  0  0  0  0  0  0  0  0
   39.2460   26.9930   41.1910 H   0  0  0  0  0  0  0  0  0  0  0  0
   41.0820   25.3660   41.7960 H   0  0  0  0  0  0  0  0  0  0  0  0
   41.2650   26.2500   43.4020 H   0  0  0  0  0  0  0  0  0  0  0  0
   38.9080   25.5230   44.0060 H   0  0  0  0  0  0  0  0  0  0  0  0
   38.5570   24.5930   42.0820 N   0  0  0  0  0  0  0  0  0  0  0  0
   39.3140   24.3130   40.9180 C   0  0  0  0  0  0  0  0  0  0  0  0
   38.5510   23.2370   40.1690 C   0  0  0  0  0  0  0  0  0  0  0  0
   37.2610   23.6930   39.7570 N   0  0  0  0  0  0  0  0  0  0  0  0
   36.6990   24.7210   40.6050 C   0  0  0  0  0  0  0  0  0  0  0  0
   37.1610   24.5200   42.0350 C   0  0  0  0  0  0  0  0  0  0  0  0
   39.2950   25.2120   40.2610 H   0  0  0  0  0  0  0  0  0  0  0  0
   40.3110   23.9630   41.1820 H   0  0  0  0  0  0  0  0  0  0  0  0
   39.1740   22.9100   39.3110 H   0  0  0  0  0  0  0  0  0  0  0  0
   38.4410   22.3700   40.8430 H   0  0  0  0  0  0  0  0  0  0  0  0
   36.6090   22.9190   39.5670 H   0  0  0  0  0  0  0  0  0  0  0  0
   35.5850   24.5290   40.6160 H   0  0  0  0  0  0  0  0  0  0  0  0
   36.8700   25.7430   40.2590 H   0  0  0  0  0  0  0  0  0  0  0  0
   36.7300   23.5780   42.4330 H   0  0  0  0  0  0  0  0  0  0  0  0
   36.7090   25.3430   42.6400 H   0  0  0  0  0  0  0  0  0  0  0  0
   39.3590   28.1250   43.0360 C   0  0  0  0  0  0  0  0  0  0  0  0
   39.9720   28.0360   43.9620 H   0  0  0  0  0  0  0  0  0  0  0  0
   39.7990   29.0050   42.5000 H   0  0  0  0  0  0  0  0  0  0  0  0
   37.9110   28.3100   43.3680 C   0  0  0  0  0  0  0  0  0  0  0  0
   37.6680   28.6960   44.3460 H   0  0  0  0  0  0  0  0  0  0  0  0
   37.4390   27.2850   43.3270 H   0  0  0  0  0  0  0  0  0  0  0  0
   35.6010   29.0760   40.5210 C   0  0  0  0  0  0  0  0  0  0  0  0
   36.2160   28.3970   41.5970 C   0  0  0  0  0  0  0  0  0  0  0  0
   37.2520   29.0260   42.2240 C   0  0  0  0  0  0  0  0  0  0  0  0
   37.6470   30.2520   41.8060 N   0  0  0  0  0  0  0  0  0  0  0  0
   37.0630   30.8750   40.7980 C   0  0  0  0  0  0  0  0  0  0  0  0
   36.0490   30.2970   40.1590 N   0  0  0  0  0  0  0  0  0  0  0  0
   34.7850   28.6270   39.9960 H   0  0  0  0  0  0  0  0  0  0  0  0
   35.8310   27.4260   41.8550 H   0  0  0  0  0  0  0  0  0  0  0  0
   37.5960   32.2090   40.4480 C   0  0  0  0  0  0  0  0  0  0  0  0
   38.6920   32.8790   40.9030 C   0  0  0  0  0  0  0  0  0  0  0  0
   39.3720   32.5010   41.6350 H   0  0  0  0  0  0  0  0  0  0  0  0
   38.7710   34.1130   40.2630 C   0  0  0  0  0  0  0  0  0  0  0  0
   39.5200   34.8930   40.3910 H   0  0  0  0  0  0  0  0  0  0  0  0
   37.7240   34.1610   39.4390 N   0  0  0  0  0  0  0  0  0  0  0  0
   37.4250   34.9330   38.7740 H   0  0  0  0  0  0  0  0  0  0  0  0
   37.0330   33.0530   39.5410 N   0  0  0  0  0  0  0  0  0  0  0  0
  1  4  1  6  0  0  0
  1  2  1  0  0  0  0
  1  3  1  0  0  0  0
  1 23  1  0  0  0  0
  2  3  1  0  0  0  0
  2  6  1  0  0  0  0
  3  7  1  1  0  0  0
  5  2  1  0  0  0  0
  8  3  1  0  0  0  0
  9 15  1  0  0  0  0
  9  8  1  0  0  0  0
 10 17  1  0  0  0  0
 10  9  1  0  0  0  0
 11 10  1  0  0  0  0
 11 12  1  0  0  0  0
 12 19  1  0  0  0  0
 12 13  1  0  0  0  0
 13  8  1  0  0  0  0
 13 21  1  0  0  0  0
 13 22  1  0  0  0  0
 14  9  1  0  0  0  0
 16 10  1  0  0  0  0
 18 11  1  0  0  0  0
 20 12  1  0  0  0  0
 23 26  1  0  0  0  0
 23 24  1  0  0  0  0
 25 23  1  0  0  0  0
 26 27  1  0  0  0  0
 28 26  1  0  0  0  0
 29 30  1  0  0  0  0
 30 36  1  0  0  0  0
 30 31  2  0  0  0  0
 31 26  1  0  0  0  0
 32 31  1  0  0  0  0
 33 32  2  0  0  0  0
 34 29  2  0  0  0  0
 34 33  1  0  0  0  0
 35 29  1  0  0  0  0
 37 33  1  0  0  0  0
 37 38  1  0  0  0  0
 38 39  1  0  0  0  0
 40 41  1  0  0  0  0
 40 38  2  0  0  0  0
 42 44  1  0  0  0  0
 42 40  1  0  0  0  0
 43 42  1  0  0  0  0
 44 37  2  0  0  0  0
M  END
>  <minimizedAffinity>
-5.45647907

$$$$

 OpenBabel03252502493D

 44 47  0  0  1  0  0  0  0  0999 V2000
   37.7890   28.0180   43.3550 C   0  0  1  0  0  0  0  0  0  0  0  0
   36.4230   27.5230   43.6790 C   0  0  0  0  0  0  0  0  0  0  0  0
   37.1330   27.0740   42.4580 C   0  0  2  0  0  0  0  0  0  0  0  0
   38.6060   27.7220   44.0080 H   0  0  0  0  0  0  0  0  0  0  0  0
   36.3010   26.8500   44.5680 H   0  0  0  0  0  0  0  0  0  0  0  0
   35.5930   28.2700   43.6310 H   0  0  0  0  0  0  0  0  0  0  0  0
   36.6430   27.3280   41.5200 H   0  0  0  0  0  0  0  0  0  0  0  0
   37.6360   25.7160   42.5710 N   0  0  0  0  0  0  0  0  0  0  0  0
   39.0360   25.5910   42.4000 C   0  0  0  0  0  0  0  0  0  0  0  0
   39.3480   24.1140   42.5530 C   0  0  0  0  0  0  0  0  0  0  0  0
   38.7080   23.3300   41.5440 N   0  0  0  0  0  0  0  0  0  0  0  0
   37.4840   23.9080   41.0350 C   0  0  0  0  0  0  0  0  0  0  0  0
   36.7900   24.6940   42.1310 C   0  0  0  0  0  0  0  0  0  0  0  0
   39.2860   25.8460   41.3450 H   0  0  0  0  0  0  0  0  0  0  0  0
   39.5700   26.1750   43.1480 H   0  0  0  0  0  0  0  0  0  0  0  0
   40.4510   23.9940   42.5410 H   0  0  0  0  0  0  0  0  0  0  0  0
   38.9950   23.7960   43.5500 H   0  0  0  0  0  0  0  0  0  0  0  0
   38.6120   22.3410   41.8110 H   0  0  0  0  0  0  0  0  0  0  0  0
   36.8050   23.0320   40.8130 H   0  0  0  0  0  0  0  0  0  0  0  0
   37.6000   24.4950   40.1210 H   0  0  0  0  0  0  0  0  0  0  0  0
   36.4490   23.9980   42.9240 H   0  0  0  0  0  0  0  0  0  0  0  0
   35.8620   25.1250   41.6820 H   0  0  0  0  0  0  0  0  0  0  0  0
   37.9080   29.4390   42.8830 C   0  0  0  0  0  0  0  0  0  0  0  0
   37.0090   29.7050   42.2800 H   0  0  0  0  0  0  0  0  0  0  0  0
   37.9020   30.1800   43.7240 H   0  0  0  0  0  0  0  0  0  0  0  0
   39.1510   29.5110   42.0530 C   0  0  0  0  0  0  0  0  0  0  0  0
   39.5900   28.5800   41.7280 H   0  0  0  0  0  0  0  0  0  0  0  0
   39.9390   30.0020   42.6970 H   0  0  0  0  0  0  0  0  0  0  0  0
   37.5180   32.0840   39.8750 C   0  0  0  0  0  0  0  0  0  0  0  0
   37.7160   31.1330   40.9030 C   0  0  0  0  0  0  0  0  0  0  0  0
   38.9340   30.5210   40.9640 C   0  0  0  0  0  0  0  0  0  0  0  0
   39.8910   30.8370   40.0590 N   0  0  0  0  0  0  0  0  0  0  0  0
   39.6920   31.7270   39.1030 C   0  0  0  0  0  0  0  0  0  0  0  0
   38.5190   32.3470   39.0080 N   0  0  0  0  0  0  0  0  0  0  0  0
   36.5820   32.5910   39.7830 H   0  0  0  0  0  0  0  0  0  0  0  0
   36.8940   30.9510   41.5730 H   0  0  0  0  0  0  0  0  0  0  0  0
   40.8250   31.9740   38.1860 C   0  0  0  0  0  0  0  0  0  0  0  0
   41.7210   31.1150   37.6230 C   0  0  0  0  0  0  0  0  0  0  0  0
   41.7280   30.0580   37.7800 H   0  0  0  0  0  0  0  0  0  0  0  0
   42.6050   31.8350   36.8240 C   0  0  0  0  0  0  0  0  0  0  0  0
   43.4390   31.4610   36.2330 H   0  0  0  0  0  0  0  0  0  0  0  0
   42.2240   33.1100   36.9230 N   0  0  0  0  0  0  0  0  0  0  0  0
   42.6400   33.9740   36.4660 H   0  0  0  0  0  0  0  0  0  0  0  0
   41.1860   33.1990   37.7160 N   0  0  0  0  0  0  0  0  0  0  0  0
  1  2  1  0  0  0  0
  1  4  1  1  0  0  0
  2  5  1  0  0  0  0
  3  7  1  6  0  0  0
  3  8  1  0  0  0  0
  3  1  1  0  0  0  0
  3  2  1  0  0  0  0
  6  2  1  0  0  0  0
  9 10  1  0  0  0  0
  9  8  1  0  0  0  0
  9 15  1  0  0  0  0
 10 17  1  0  0  0  0
 11 18  1  0  0  0  0
 11 10  1  0  0  0  0
 12 11  1  0  0  0  0
 12 13  1  0  0  0  0
 13  8  1  0  0  0  0
 13 21  1  0  0  0  0
 14  9  1  0  0  0  0
 16 10  1  0  0  0  0
 19 12  1  0  0  0  0
 20 12  1  0  0  0  0
 22 13  1  0  0  0  0
 23  1  1  0  0  0  0
 23 25  1  0  0  0  0
 24 23  1  0  0  0  0
 26 28  1  0  0  0  0
 26 23  1  0  0  0  0
 27 26  1  0  0  0  0
 29 30  1  0  0  0  0
 30 31  2  0  0  0  0
 30 36  1  0  0  0  0
 31 26  1  0  0  0  0
 32 31  1  0  0  0  0
 33 32  2  0  0  0  0
 34 33  1  0  0  0  0
 34 29  2  0  0  0  0
 35 29  1  0  0  0  0
 37 33  1  0  0  0  0
 38 39  1  0  0  0  0
 38 37  1  0  0  0  0
 40 42  1  0  0  0  0
 40 38  2  0  0  0  0
 41 40  1  0  0  0  0
 42 44  1  0  0  0  0
 43 42  1  0  0  0  0
 44 37  2  0  0  0  0
M  END
>  <minimizedAffinity>
-5.36520672

$$$$

 OpenBabel03252502493D

 44 47  0  0  1  0  0  0  0  0999 V2000
   35.2230   28.5740   39.2670 C   0  0  1  0  0  0  0  0  0  0  0  0
   34.0190   28.8950   38.4530 C   0  0  0  0  0  0  0  0  0  0  0  0
   35.3500   29.4520   38.1100 C   0  0  2  0  0  0  0  0  0  0  0  0
   35.5860   27.5490   39.2570 H   0  0  0  0  0  0  0  0  0  0  0  0
   33.5540   28.0720   37.8490 H   0  0  0  0  0  0  0  0  0  0  0  0
   33.2330   29.5200   38.9430 H   0  0  0  0  0  0  0  0  0  0  0  0
   35.4180   30.5380   38.1440 H   0  0  0  0  0  0  0  0  0  0  0  0
   35.9430   28.8080   36.9510 N   0  0  0  0  0  0  0  0  0  0  0  0
   37.3580   28.8330   36.9240 C   0  0  0  0  0  0  0  0  0  0  0  0
   37.7680   28.1190   35.6500 C   0  0  0  0  0  0  0  0  0  0  0  0
   37.2920   28.8000   34.4860 N   0  0  0  0  0  0  0  0  0  0  0  0
   36.0830   29.5630   34.7010 C   0  0  0  0  0  0  0  0  0  0  0  0
   35.2260   28.8860   35.7530 C   0  0  0  0  0  0  0  0  0  0  0  0
   37.6890   29.8890   36.8010 H   0  0  0  0  0  0  0  0  0  0  0  0
   37.7690   28.3260   37.7970 H   0  0  0  0  0  0  0  0  0  0  0  0
   38.8720   28.0170   35.6540 H   0  0  0  0  0  0  0  0  0  0  0  0
   37.3450   27.1010   35.6830 H   0  0  0  0  0  0  0  0  0  0  0  0
   37.2480   28.1880   33.6600 H   0  0  0  0  0  0  0  0  0  0  0  0
   35.4990   29.4830   33.7370 H   0  0  0  0  0  0  0  0  0  0  0  0
   36.2410   30.6210   34.9220 H   0  0  0  0  0  0  0  0  0  0  0  0
   34.8640   27.9120   35.3630 H   0  0  0  0  0  0  0  0  0  0  0  0
   34.3160   29.5200   35.8860 H   0  0  0  0  0  0  0  0  0  0  0  0
   35.3230   29.2120   40.6230 C   0  0  0  0  0  0  0  0  0  0  0  0
   35.7660   30.2290   40.5210 H   0  0  0  0  0  0  0  0  0  0  0  0
   34.3220   29.3950   41.0940 H   0  0  0  0  0  0  0  0  0  0  0  0
   36.2010   28.3250   41.4490 C   0  0  0  0  0  0  0  0  0  0  0  0
   36.3180   27.3010   41.1300 H   0  0  0  0  0  0  0  0  0  0  0  0
   35.7240   28.2650   42.4720 H   0  0  0  0  0  0  0  0  0  0  0  0
   39.6030   29.1360   42.7890 C   0  0  0  0  0  0  0  0  0  0  0  0
   38.3960   28.4450   42.5360 C   0  0  0  0  0  0  0  0  0  0  0  0
   37.4850   29.0530   41.7230 C   0  0  0  0  0  0  0  0  0  0  0  0
   37.7600   30.2710   41.1980 N   0  0  0  0  0  0  0  0  0  0  0  0
   38.8910   30.9060   41.4440 C   0  0  0  0  0  0  0  0  0  0  0  0
   39.8070   30.3480   42.2310 N   0  0  0  0  0  0  0  0  0  0  0  0
   40.3500   28.7030   43.4190 H   0  0  0  0  0  0  0  0  0  0  0  0
   38.2710   27.4820   42.9990 H   0  0  0  0  0  0  0  0  0  0  0  0
   39.0580   32.2290   40.8040 C   0  0  0  0  0  0  0  0  0  0  0  0
   40.1760   32.9760   40.5770 C   0  0  0  0  0  0  0  0  0  0  0  0
   41.1660   32.6840   40.8530 H   0  0  0  0  0  0  0  0  0  0  0  0
   39.8130   34.1580   39.9370 C   0  0  0  0  0  0  0  0  0  0  0  0
   40.4560   34.9740   39.6130 H   0  0  0  0  0  0  0  0  0  0  0  0
   38.4880   34.0980   39.7930 N   0  0  0  0  0  0  0  0  0  0  0  0
   37.8270   34.8040   39.3520 H   0  0  0  0  0  0  0  0  0  0  0  0
   38.0400   32.9760   40.2960 N   0  0  0  0  0  0  0  0  0  0  0  0
  1  4  1  6  0  0  0
  1 23  1  0  0  0  0
  2  6  1  0  0  0  0
  2  1  1  0  0  0  0
  3  7  1  1  0  0  0
  3  2  1  0  0  0  0
  3  1  1  0  0  0  0
  5  2  1  0  0  0  0
  8  3  1  0  0  0  0
  9  8  1  0  0  0  0
  9 15  1  0  0  0  0
 10 16  1  0  0  0  0
 10 17  1  0  0  0  0
 10  9  1  0  0  0  0
 11 12  1  0  0  0  0
 11 10  1  0  0  0  0
 12 20  1  0  0  0  0
 12 13  1  0  0  0  0
 13 22  1  0  0  0  0
 13  8  1  0  0  0  0
 14  9  1  0  0  0  0
 18 11  1  0  0  0  0
 19 12  1  0  0  0  0
 21 13  1  0  0  0  0
 23 25  1  0  0  0  0
 23 26  1  0  0  0  0
 24 23  1  0  0  0  0
 26 31  1  0  0  0  0
 26 28  1  0  0  0  0
 27 26  1  0  0  0  0
 29 35  1  0  0  0  0
 30 29  1  0  0  0  0
 30 36  1  0  0  0  0
 31 30  2  0  0  0  0
 32 33  2  0  0  0  0
 32 31  1  0  0  0  0
 33 34  1  0  0  0  0
 34 29  2  0  0  0  0
 37 33  1  0  0  0  0
 38 37  1  0  0  0  0
 38 39  1  0  0  0  0
 40 38  2  0  0  0  0
 41 40  1  0  0  0  0
 42 40  1  0  0  0  0
 42 44  1  0  0  0  0
 43 42  1  0  0  0  0
 44 37  2  0  0  0  0
M  END
>  <minimizedAffinity>
-5.32492352

$$$$

 OpenBabel03252502493D

 44 47  0  0  1  0  0  0  0  0999 V2000
   36.5790   30.7110   38.8180 C   0  0  1  0  0  0  0  0  0  0  0  0
   37.4640   31.7530   38.2280 C   0  0  0  0  0  0  0  0  0  0  0  0
   37.9300   30.3560   38.4000 C   0  0  2  0  0  0  0  0  0  0  0  0
   35.7020   30.4080   38.2530 H   0  0  0  0  0  0  0  0  0  0  0  0
   37.1980   32.1610   37.2180 H   0  0  0  0  0  0  0  0  0  0  0  0
   37.8030   32.5700   38.9100 H   0  0  0  0  0  0  0  0  0  0  0  0
   38.7860   30.2340   39.0620 H   0  0  0  0  0  0  0  0  0  0  0  0
   37.9800   29.6240   37.1470 N   0  0  0  0  0  0  0  0  0  0  0  0
   36.7290   29.4780   36.5010 C   0  0  0  0  0  0  0  0  0  0  0  0
   37.0010   28.6940   35.2310 C   0  0  0  0  0  0  0  0  0  0  0  0
   37.5060   27.3870   35.5130 N   0  0  0  0  0  0  0  0  0  0  0  0
   38.2300   27.2910   36.7610 C   0  0  0  0  0  0  0  0  0  0  0  0
   38.9320   28.6030   37.0530 C   0  0  0  0  0  0  0  0  0  0  0  0
   36.0820   28.8240   37.1290 H   0  0  0  0  0  0  0  0  0  0  0  0
   36.3010   30.4510   36.2660 H   0  0  0  0  0  0  0  0  0  0  0  0
   36.0620   28.6620   34.6400 H   0  0  0  0  0  0  0  0  0  0  0  0
   37.7410   29.2580   34.6370 H   0  0  0  0  0  0  0  0  0  0  0  0
   38.0110   26.9760   34.7160 H   0  0  0  0  0  0  0  0  0  0  0  0
   39.0550   26.5410   36.5760 H   0  0  0  0  0  0  0  0  0  0  0  0
   37.6350   26.9480   37.6110 H   0  0  0  0  0  0  0  0  0  0  0  0
   39.7240   28.7740   36.2950 H   0  0  0  0  0  0  0  0  0  0  0  0
   39.4630   28.4770   38.0280 H   0  0  0  0  0  0  0  0  0  0  0  0
   36.3200   30.7910   40.2950 C   0  0  0  0  0  0  0  0  0  0  0  0
   37.2900   30.8770   40.8370 H   0  0  0  0  0  0  0  0  0  0  0  0
   35.7590   31.7160   40.5910 H   0  0  0  0  0  0  0  0  0  0  0  0
   35.6050   29.5320   40.6730 C   0  0  0  0  0  0  0  0  0  0  0  0
   35.0510   29.0210   39.9010 H   0  0  0  0  0  0  0  0  0  0  0  0
   34.8360   29.8200   41.4490 H   0  0  0  0  0  0  0  0  0  0  0  0
   38.1700   28.4300   43.1710 C   0  0  0  0  0  0  0  0  0  0  0  0
   37.2780   29.2530   42.4440 C   0  0  0  0  0  0  0  0  0  0  0  0
   36.5530   28.6640   41.4490 C   0  0  0  0  0  0  0  0  0  0  0  0
   36.7080   27.3430   41.1960 N   0  0  0  0  0  0  0  0  0  0  0  0
   37.5450   26.5860   41.8830 C   0  0  0  0  0  0  0  0  0  0  0  0
   38.2710   27.1200   42.8610 N   0  0  0  0  0  0  0  0  0  0  0  0
   38.7610   28.8420   43.9600 H   0  0  0  0  0  0  0  0  0  0  0  0
   37.2270   30.2920   42.7200 H   0  0  0  0  0  0  0  0  0  0  0  0
   37.6120   25.1600   41.4990 C   0  0  0  0  0  0  0  0  0  0  0  0
   36.9610   24.4670   40.5230 C   0  0  0  0  0  0  0  0  0  0  0  0
   36.2550   24.8940   39.8450 H   0  0  0  0  0  0  0  0  0  0  0  0
   37.3660   23.1350   40.5610 C   0  0  0  0  0  0  0  0  0  0  0  0
   37.0440   22.3140   39.9230 H   0  0  0  0  0  0  0  0  0  0  0  0
   38.2490   23.0540   41.5570 N   0  0  0  0  0  0  0  0  0  0  0  0
   38.7900   22.2100   41.9100 H   0  0  0  0  0  0  0  0  0  0  0  0
   38.3990   24.2320   42.1100 N   0  0  0  0  0  0  0  0  0  0  0  0
  1  4  1  6  0  0  0
  1 23  1  0  0  0  0
  2  3  1  0  0  0  0
  2  1  1  0  0  0  0
  2  6  1  0  0  0  0
  3  1  1  0  0  0  0
  3  7  1  1  0  0  0
  5  2  1  0  0  0  0
  8  3  1  0  0  0  0
  9 14  1  0  0  0  0
  9  8  1  0  0  0  0
 10 11  1  0  0  0  0
 10  9  1  0  0  0  0
 11 12  1  0  0  0  0
 12 13  1  0  0  0  0
 12 20  1  0  0  0  0
 13  8  1  0  0  0  0
 13 22  1  0  0  0  0
 15  9  1  0  0  0  0
 16 10  1  0  0  0  0
 17 10  1  0  0  0  0
 18 11  1  0  0  0  0
 19 12  1  0  0  0  0
 21 13  1  0  0  0  0
 23 25  1  0  0  0  0
 23 26  1  0  0  0  0
 23 24  1  0  0  0  0
 26 28  1  0  0  0  0
 26 31  1  0  0  0  0
 27 26  1  0  0  0  0
 29 35  1  0  0  0  0
 30 36  1  0  0  0  0
 30 29  2  0  0  0  0
 31 30  1  0  0  0  0
 32 31  2  0  0  0  0
 32 33  1  0  0  0  0
 33 34  2  0  0  0  0
 34 29  1  0  0  0  0
 37 33  1  0  0  0  0
 37 44  2  0  0  0  0
 38 40  2  0  0  0  0
 38 37  1  0  0  0  0
 39 38  1  0  0  0  0
 40 42  1  0  0  0  0
 41 40  1  0  0  0  0
 42 43  1  0  0  0  0
 42 44  1  0  0  0  0
M  END
>  <minimizedAffinity>
-5.25206852

$$$$

 OpenBabel03252502493D

 44 47  0  0  1  0  0  0  0  0999 V2000
   38.8750   29.7340   42.6850 C   0  0  1  0  0  0  0  0  0  0  0  0
   40.1850   30.4410   42.6600 C   0  0  0  0  0  0  0  0  0  0  0  0
   39.5410   29.9730   41.4090 C   0  0  2  0  0  0  0  0  0  0  0  0
   37.9990   30.2980   42.9930 H   0  0  0  0  0  0  0  0  0  0  0  0
   40.2050   31.5270   42.9380 H   0  0  0  0  0  0  0  0  0  0  0  0
   41.0560   29.9010   43.1060 H   0  0  0  0  0  0  0  0  0  0  0  0
   40.1100   29.2360   40.8450 H   0  0  0  0  0  0  0  0  0  0  0  0
   38.9570   31.0580   40.6410 N   0  0  0  0  0  0  0  0  0  0  0  0
   39.0540   32.3310   41.2520 C   0  0  0  0  0  0  0  0  0  0  0  0
   38.3930   33.3070   40.2980 C   0  0  0  0  0  0  0  0  0  0  0  0
   37.0060   33.0110   40.1150 N   0  0  0  0  0  0  0  0  0  0  0  0
   36.6720   31.6150   40.2950 C   0  0  0  0  0  0  0  0  0  0  0  0
   37.8370   30.7450   39.8640 C   0  0  0  0  0  0  0  0  0  0  0  0
   38.4240   32.3300   42.1710 H   0  0  0  0  0  0  0  0  0  0  0  0
   40.0970   32.6010   41.4150 H   0  0  0  0  0  0  0  0  0  0  0  0
   38.5540   34.3320   40.6900 H   0  0  0  0  0  0  0  0  0  0  0  0
   38.9180   33.2410   39.3290 H   0  0  0  0  0  0  0  0  0  0  0  0
   36.6260   33.4130   39.2470 H   0  0  0  0  0  0  0  0  0  0  0  0
   35.8450   31.4040   39.5550 H   0  0  0  0  0  0  0  0  0  0  0  0
   36.3160   31.3550   41.2950 H   0  0  0  0  0  0  0  0  0  0  0  0
   37.9870   30.8470   38.7690 H   0  0  0  0  0  0  0  0  0  0  0  0
   37.5300   29.6850   40.0340 H   0  0  0  0  0  0  0  0  0  0  0  0
   38.8690   28.3230   43.1990 C   0  0  0  0  0  0  0  0  0  0  0  0
   39.4440   27.6720   42.5010 H   0  0  0  0  0  0  0  0  0  0  0  0
   39.4020   28.2120   44.1780 H   0  0  0  0  0  0  0  0  0  0  0  0
   37.4350   27.9000   43.2670 C   0  0  0  0  0  0  0  0  0  0  0  0
   36.7050   28.6480   43.5320 H   0  0  0  0  0  0  0  0  0  0  0  0
   37.3690   27.1190   44.0810 H   0  0  0  0  0  0  0  0  0  0  0  0
   37.0110   25.0330   40.8930 C   0  0  0  0  0  0  0  0  0  0  0  0
   37.3150   25.7660   42.0640 C   0  0  0  0  0  0  0  0  0  0  0  0
   37.1140   27.1150   42.0270 C   0  0  0  0  0  0  0  0  0  0  0  0
   36.6430   27.6940   40.8980 N   0  0  0  0  0  0  0  0  0  0  0  0
   36.3640   26.9980   39.8100 C   0  0  0  0  0  0  0  0  0  0  0  0
   36.5450   25.6800   39.8040 N   0  0  0  0  0  0  0  0  0  0  0  0
   37.1500   23.9730   40.8700 H   0  0  0  0  0  0  0  0  0  0  0  0
   37.6840   25.2150   42.9110 H   0  0  0  0  0  0  0  0  0  0  0  0
   35.8560   27.7600   38.6500 C   0  0  0  0  0  0  0  0  0  0  0  0
   34.8020   28.6160   38.5370 C   0  0  0  0  0  0  0  0  0  0  0  0
   34.1440   28.8760   39.3380 H   0  0  0  0  0  0  0  0  0  0  0  0
   34.7330   29.0850   37.2280 C   0  0  0  0  0  0  0  0  0  0  0  0
   34.0150   29.7800   36.7970 H   0  0  0  0  0  0  0  0  0  0  0  0
   35.7430   28.5010   36.5810 N   0  0  0  0  0  0  0  0  0  0  0  0
   36.0350   28.5960   35.5640 H   0  0  0  0  0  0  0  0  0  0  0  0
   36.4040   27.7260   37.4040 N   0  0  0  0  0  0  0  0  0  0  0  0
  1  4  1  1  0  0  0
  1 23  1  0  0  0  0
  2  1  1  0  0  0  0
  2  5  1  0  0  0  0
  2  6  1  0  0  0  0
  3  7  1  6  0  0  0
  3  2  1  0  0  0  0
  3  1  1  0  0  0  0
  8  9  1  0  0  0  0
  8  3  1  0  0  0  0
  9 15  1  0  0  0  0
  9 14  1  0  0  0  0
 10 16  1  0  0  0  0
 10  9  1  0  0  0  0
 11 12  1  0  0  0  0
 11 10  1  0  0  0  0
 12 20  1  0  0  0  0
 13 22  1  0  0  0  0
 13 12  1  0  0  0  0
 13  8  1  0  0  0  0
 17 10  1  0  0  0  0
 18 11  1  0  0  0  0
 19 12  1  0  0  0  0
 21 13  1  0  0  0  0
 23 26  1  0  0  0  0
 23 25  1  0  0  0  0
 24 23  1  0  0  0  0
 26 27  1  0  0  0  0
 26 28  1  0  0  0  0
 29 30  1  0  0  0  0
 30 36  1  0  0  0  0
 31 30  2  0  0  0  0
 31 26  1  0  0  0  0
 32 31  1  0  0  0  0
 33 32  2  0  0  0  0
 34 33  1  0  0  0  0
 34 29  2  0  0  0  0
 35 29  1  0  0  0  0
 37 33  1  0  0  0  0
 38 37  1  0  0  0  0
 38 39  1  0  0  0  0
 40 38  2  0  0  0  0
 41 40  1  0  0  0  0
 42 40  1  0  0  0  0
 42 44  1  0  0  0  0
 43 42  1  0  0  0  0
 44 37  2  0  0  0  0
M  END
>  <minimizedAffinity>
-5.23664331

$$$$

 OpenBabel03252502493D

 44 47  0  0  1  0  0  0  0  0999 V2000
   36.9260   25.0760   41.2890 C   0  0  1  0  0  0  0  0  0  0  0  0
   37.7370   24.3520   42.3050 C   0  0  0  0  0  0  0  0  0  0  0  0
   38.2680   25.5490   41.6090 C   0  0  2  0  0  0  0  0  0  0  0  0
   36.0340   25.5990   41.6280 H   0  0  0  0  0  0  0  0  0  0  0  0
   37.4060   24.3950   43.3750 H   0  0  0  0  0  0  0  0  0  0  0  0
   38.0760   23.3210   42.0360 H   0  0  0  0  0  0  0  0  0  0  0  0
   39.1600   25.3750   41.0090 H   0  0  0  0  0  0  0  0  0  0  0  0
   38.2850   26.7270   42.4570 N   0  0  0  0  0  0  0  0  0  0  0  0
   37.0050   27.2210   42.8050 C   0  0  0  0  0  0  0  0  0  0  0  0
   37.2470   28.4370   43.6790 C   0  0  0  0  0  0  0  0  0  0  0  0
   37.9410   29.4680   42.9730 N   0  0  0  0  0  0  0  0  0  0  0  0
   38.7920   28.9840   41.9090 C   0  0  0  0  0  0  0  0  0  0  0  0
   39.3460   27.6200   42.2700 C   0  0  0  0  0  0  0  0  0  0  0  0
   36.5130   27.6040   41.8820 H   0  0  0  0  0  0  0  0  0  0  0  0
   36.4350   26.4670   43.3460 H   0  0  0  0  0  0  0  0  0  0  0  0
   36.2660   28.7810   44.0660 H   0  0  0  0  0  0  0  0  0  0  0  0
   37.8460   28.1140   44.5480 H   0  0  0  0  0  0  0  0  0  0  0  0
   38.4120   30.1320   43.6030 H   0  0  0  0  0  0  0  0  0  0  0  0
   39.6830   29.6790   41.8940 H   0  0  0  0  0  0  0  0  0  0  0  0
   38.3330   28.9900   40.9170 H   0  0  0  0  0  0  0  0  0  0  0  0
   40.0300   27.7180   43.1380 H   0  0  0  0  0  0  0  0  0  0  0  0
   39.9830   27.2920   41.4130 H   0  0  0  0  0  0  0  0  0  0  0  0
   36.7360   24.4060   39.9590 C   0  0  0  0  0  0  0  0  0  0  0  0
   37.2090   23.3970   39.9830 H   0  0  0  0  0  0  0  0  0  0  0  0
   35.6600   24.1980   39.7240 H   0  0  0  0  0  0  0  0  0  0  0  0
   37.3960   25.2820   38.9400 C   0  0  0  0  0  0  0  0  0  0  0  0
   37.8260   24.8050   38.0740 H   0  0  0  0  0  0  0  0  0  0  0  0
   38.2610   25.7860   39.4630 H   0  0  0  0  0  0  0  0  0  0  0  0
   34.5620   27.2790   37.5200 C   0  0  0  0  0  0  0  0  0  0  0  0
   35.4240   26.1940   37.8000 C   0  0  0  0  0  0  0  0  0  0  0  0
   36.4760   26.4300   38.6380 C   0  0  0  0  0  0  0  0  0  0  0  0
   36.6540   27.6660   39.1610 N   0  0  0  0  0  0  0  0  0  0  0  0
   35.8410   28.6710   38.8900 C   0  0  0  0  0  0  0  0  0  0  0  0
   34.8030   28.4840   38.0790 N   0  0  0  0  0  0  0  0  0  0  0  0
   33.7240   27.1470   36.8700 H   0  0  0  0  0  0  0  0  0  0  0  0
   35.1990   25.2500   37.3360 H   0  0  0  0  0  0  0  0  0  0  0  0
   36.1550   29.9660   39.5310 C   0  0  0  0  0  0  0  0  0  0  0  0
   36.8940   31.0230   39.0910 C   0  0  0  0  0  0  0  0  0  0  0  0
   37.3880   31.0650   38.1450 H   0  0  0  0  0  0  0  0  0  0  0  0
   36.8930   32.0180   40.0660 C   0  0  0  0  0  0  0  0  0  0  0  0
   37.3830   32.9890   40.0380 H   0  0  0  0  0  0  0  0  0  0  0  0
   36.1560   31.5390   41.0700 N   0  0  0  0  0  0  0  0  0  0  0  0
   35.9120   31.9910   42.0000 H   0  0  0  0  0  0  0  0  0  0  0  0
   35.7220   30.3420   40.7660 N   0  0  0  0  0  0  0  0  0  0  0  0
  1  3  1  0  0  0  0
  1  4  1  1  0  0  0
  1  2  1  0  0  0  0
  2  5  1  0  0  0  0
  3  7  1  6  0  0  0
  3  2  1  0  0  0  0
  3  8  1  0  0  0  0
  6  2  1  0  0  0  0
  8  9  1  0  0  0  0
  9 15  1  0  0  0  0
  9 10  1  0  0  0  0
 10 16  1  0  0  0  0
 10 17  1  0  0  0  0
 11 18  1  0  0  0  0
 11 10  1  0  0  0  0
 12 13  1  0  0  0  0
 12 11  1  0  0  0  0
 13  8  1  0  0  0  0
 13 21  1  0  0  0  0
 14  9  1  0  0  0  0
 19 12  1  0  0  0  0
 20 12  1  0  0  0  0
 22 13  1  0  0  0  0
 23 24  1  0  0  0  0
 23  1  1  0  0  0  0
 25 23  1  0  0  0  0
 26 28  1  0  0  0  0
 26 23  1  0  0  0  0
 27 26  1  0  0  0  0
 29 30  2  0  0  0  0
 29 34  1  0  0  0  0
 30 31  1  0  0  0  0
 31 26  1  0  0  0  0
 31 32  2  0  0  0  0
 33 32  1  0  0  0  0
 33 37  1  0  0  0  0
 34 33  2  0  0  0  0
 35 29  1  0  0  0  0
 36 30  1  0  0  0  0
 37 44  2  0  0  0  0
 38 37  1  0  0  0  0
 38 40  2  0  0  0  0
 39 38  1  0  0  0  0
 40 42  1  0  0  0  0
 41 40  1  0  0  0  0
 42 43  1  0  0  0  0
 44 42  1  0  0  0  0
M  END
>  <minimizedAffinity>
-5.15503216

$$$$

 OpenBabel03252502493D

 44 47  0  0  1  0  0  0  0  0999 V2000
   37.3870   27.3110   42.6710 C   0  0  1  0  0  0  0  0  0  0  0  0
   36.3800   27.8260   41.7030 C   0  0  0  0  0  0  0  0  0  0  0  0
   37.6540   27.2240   41.2400 C   0  0  2  0  0  0  0  0  0  0  0  0
   37.1250   26.4390   43.2630 H   0  0  0  0  0  0  0  0  0  0  0  0
   35.4060   27.2770   41.6120 H   0  0  0  0  0  0  0  0  0  0  0  0
   36.2160   28.9310   41.6880 H   0  0  0  0  0  0  0  0  0  0  0  0
   38.3010   27.8930   40.6750 H   0  0  0  0  0  0  0  0  0  0  0  0
   37.4770   25.8910   40.6930 N   0  0  0  0  0  0  0  0  0  0  0  0
   36.9380   24.9490   41.6020 C   0  0  0  0  0  0  0  0  0  0  0  0
   36.8370   23.6400   40.8420 C   0  0  0  0  0  0  0  0  0  0  0  0
   38.1220   23.1690   40.4280 N   0  0  0  0  0  0  0  0  0  0  0  0
   39.0970   24.2160   40.2220 C   0  0  0  0  0  0  0  0  0  0  0  0
   38.4080   25.4760   39.7360 C   0  0  0  0  0  0  0  0  0  0  0  0
   37.6840   24.7730   42.4110 H   0  0  0  0  0  0  0  0  0  0  0  0
   35.9560   25.2670   41.9500 H   0  0  0  0  0  0  0  0  0  0  0  0
   36.3100   22.9080   41.4870 H   0  0  0  0  0  0  0  0  0  0  0  0
   36.2020   23.8120   39.9560 H   0  0  0  0  0  0  0  0  0  0  0  0
   38.0660   22.5030   39.6440 H   0  0  0  0  0  0  0  0  0  0  0  0
   39.7380   23.8680   39.3600 H   0  0  0  0  0  0  0  0  0  0  0  0
   39.7470   24.4100   41.0790 H   0  0  0  0  0  0  0  0  0  0  0  0
   37.9870   25.2980   38.7240 H   0  0  0  0  0  0  0  0  0  0  0  0
   39.2020   26.2500   39.6060 H   0  0  0  0  0  0  0  0  0  0  0  0
   38.1690   28.3290   43.4500 C   0  0  0  0  0  0  0  0  0  0  0  0
   37.7980   29.3500   43.2030 H   0  0  0  0  0  0  0  0  0  0  0  0
   38.0150   28.2440   44.5580 H   0  0  0  0  0  0  0  0  0  0  0  0
   39.6020   28.1680   43.0480 C   0  0  0  0  0  0  0  0  0  0  0  0
   39.8530   27.3280   42.4200 H   0  0  0  0  0  0  0  0  0  0  0  0
   40.1870   28.0120   44.0030 H   0  0  0  0  0  0  0  0  0  0  0  0
   41.8930   31.0400   42.3170 C   0  0  0  0  0  0  0  0  0  0  0  0
   41.4230   29.7880   42.7780 C   0  0  0  0  0  0  0  0  0  0  0  0
   40.1080   29.4950   42.5610 C   0  0  0  0  0  0  0  0  0  0  0  0
   39.3150   30.3910   41.9270 N   0  0  0  0  0  0  0  0  0  0  0  0
   39.7670   31.5570   41.5020 C   0  0  0  0  0  0  0  0  0  0  0  0
   41.0430   31.8830   41.6930 N   0  0  0  0  0  0  0  0  0  0  0  0
   42.9150   31.3180   42.4610 H   0  0  0  0  0  0  0  0  0  0  0  0
   42.1310   29.1450   43.2700 H   0  0  0  0  0  0  0  0  0  0  0  0
   38.7910   32.4370   40.8260 C   0  0  0  0  0  0  0  0  0  0  0  0
   38.9270   33.6910   40.3090 C   0  0  0  0  0  0  0  0  0  0  0  0
   39.8340   34.2560   40.3220 H   0  0  0  0  0  0  0  0  0  0  0  0
   37.7090   34.0990   39.7710 C   0  0  0  0  0  0  0  0  0  0  0  0
   37.4700   35.0410   39.2820 H   0  0  0  0  0  0  0  0  0  0  0  0
   36.8660   33.0850   39.9760 N   0  0  0  0  0  0  0  0  0  0  0  0
   35.8400   33.0000   39.7150 H   0  0  0  0  0  0  0  0  0  0  0  0
   37.4900   32.1120   40.5920 N   0  0  0  0  0  0  0  0  0  0  0  0
  1  4  1  1  0  0  0
  1 23  1  0  0  0  0
  2  1  1  0  0  0  0
  3  7  1  6  0  0  0
  3  2  1  0  0  0  0
  3  1  1  0  0  0  0
  5  2  1  0  0  0  0
  6  2  1  0  0  0  0
  8  3  1  0  0  0  0
  8  9  1  0  0  0  0
  9 15  1  0  0  0  0
  9 14  1  0  0  0  0
 10 16  1  0  0  0  0
 10  9  1  0  0  0  0
 11 10  1  0  0  0  0
 12 11  1  0  0  0  0
 12 20  1  0  0  0  0
 13 12  1  0  0  0  0
 13  8  1  0  0  0  0
 17 10  1  0  0  0  0
 18 11  1  0  0  0  0
 19 12  1  0  0  0  0
 21 13  1  0  0  0  0
 22 13  1  0  0  0  0
 23 25  1  0  0  0  0
 24 23  1  0  0  0  0
 26 23  1  0  0  0  0
 26 28  1  0  0  0  0
 27 26  1  0  0  0  0
 29 35  1  0  0  0  0
 29 30  1  0  0  0  0
 30 36  1  0  0  0  0
 31 30  2  0  0  0  0
 31 26  1  0  0  0  0
 32 31  1  0  0  0  0
 33 34  1  0  0  0  0
 33 32  2  0  0  0  0
 34 29  2  0  0  0  0
 37 33  1  0  0  0  0
 38 39  1  0  0  0  0
 38 37  1  0  0  0  0
 40 42  1  0  0  0  0
 40 38  2  0  0  0  0
 41 40  1  0  0  0  0
 42 44  1  0  0  0  0
 43 42  1  0  0  0  0
 44 37  2  0  0  0  0
M  END
>  <minimizedAffinity>
-5.13063192

$$$$

 OpenBabel03252502493D

 44 47  0  0  1  0  0  0  0  0999 V2000
   36.2460   29.3050   39.2830 C   0  0  1  0  0  0  0  0  0  0  0  0
   35.8470   27.8720   39.2210 C   0  0  0  0  0  0  0  0  0  0  0  0
   37.2270   28.2710   39.5910 C   0  0  2  0  0  0  0  0  0  0  0  0
   35.7990   29.9250   40.0570 H   0  0  0  0  0  0  0  0  0  0  0  0
   35.1220   27.4920   39.9870 H   0  0  0  0  0  0  0  0  0  0  0  0
   35.6090   27.4610   38.2100 H   0  0  0  0  0  0  0  0  0  0  0  0
   38.0050   27.9160   38.9170 H   0  0  0  0  0  0  0  0  0  0  0  0
   37.4910   28.1210   41.0110 N   0  0  0  0  0  0  0  0  0  0  0  0
   36.3340   27.9770   41.8130 C   0  0  0  0  0  0  0  0  0  0  0  0
   36.8260   27.8370   43.2410 C   0  0  0  0  0  0  0  0  0  0  0  0
   37.5230   29.0070   43.6770 N   0  0  0  0  0  0  0  0  0  0  0  0
   38.1600   29.7470   42.6110 C   0  0  0  0  0  0  0  0  0  0  0  0
   38.6060   28.7960   41.5170 C   0  0  0  0  0  0  0  0  0  0  0  0
   35.7630   28.9330   41.7810 H   0  0  0  0  0  0  0  0  0  0  0  0
   35.7650   27.0970   41.5160 H   0  0  0  0  0  0  0  0  0  0  0  0
   35.9520   27.6060   43.8840 H   0  0  0  0  0  0  0  0  0  0  0  0
   37.5020   26.9660   43.2820 H   0  0  0  0  0  0  0  0  0  0  0  0
   38.1470   28.8220   44.4750 H   0  0  0  0  0  0  0  0  0  0  0  0
   39.1110   30.1640   43.0570 H   0  0  0  0  0  0  0  0  0  0  0  0
   37.5710   30.5780   42.2150 H   0  0  0  0  0  0  0  0  0  0  0  0
   39.4110   28.1390   41.9060 H   0  0  0  0  0  0  0  0  0  0  0  0
   39.0780   29.4190   40.7190 H   0  0  0  0  0  0  0  0  0  0  0  0
   36.4040   30.0290   37.9770 C   0  0  0  0  0  0  0  0  0  0  0  0
   36.0760   29.3660   37.1440 H   0  0  0  0  0  0  0  0  0  0  0  0
   35.7360   30.9250   37.8910 H   0  0  0  0  0  0  0  0  0  0  0  0
   37.8550   30.3710   37.8500 C   0  0  0  0  0  0  0  0  0  0  0  0
   38.2640   30.4500   36.8550 H   0  0  0  0  0  0  0  0  0  0  0  0
   38.4270   29.5290   38.3410 H   0  0  0  0  0  0  0  0  0  0  0  0
   37.4960   33.6330   39.6570 C   0  0  0  0  0  0  0  0  0  0  0  0
   37.2160   32.5360   38.8090 C   0  0  0  0  0  0  0  0  0  0  0  0
   38.1460   31.5390   38.7480 C   0  0  0  0  0  0  0  0  0  0  0  0
   39.2790   31.6300   39.4840 N   0  0  0  0  0  0  0  0  0  0  0  0
   39.5280   32.6620   40.2710 C   0  0  0  0  0  0  0  0  0  0  0  0
   38.6480   33.6550   40.3600 N   0  0  0  0  0  0  0  0  0  0  0  0
   36.8010   34.4400   39.7400 H   0  0  0  0  0  0  0  0  0  0  0  0
   36.2880   32.5550   38.2650 H   0  0  0  0  0  0  0  0  0  0  0  0
   40.8040   32.6300   41.0160 C   0  0  0  0  0  0  0  0  0  0  0  0
   41.4000   31.6280   41.7240 C   0  0  0  0  0  0  0  0  0  0  0  0
   40.9930   30.6480   41.8460 H   0  0  0  0  0  0  0  0  0  0  0  0
   42.6040   32.0920   42.2470 C   0  0  0  0  0  0  0  0  0  0  0  0
   43.3260   31.5540   42.8580 H   0  0  0  0  0  0  0  0  0  0  0  0
   42.7080   33.3600   41.8450 N   0  0  0  0  0  0  0  0  0  0  0  0
   43.4810   34.0650   42.0330 H   0  0  0  0  0  0  0  0  0  0  0  0
   41.6620   33.6820   41.1270 N   0  0  0  0  0  0  0  0  0  0  0  0
  1  3  1  0  0  0  0
  1  4  1  1  0  0  0
  2  1  1  0  0  0  0
  2  3  1  0  0  0  0
  2  5  1  0  0  0  0
  3  7  1  6  0  0  0
  3  8  1  0  0  0  0
  6  2  1  0  0  0  0
  8 13  1  0  0  0  0
  8  9  1  0  0  0  0
  9 10  1  0  0  0  0
 10 17  1  0  0  0  0
 10 11  1  0  0  0  0
 10 16  1  0  0  0  0
 11 18  1  0  0  0  0
 12 19  1  0  0  0  0
 12 11  1  0  0  0  0
 13 21  1  0  0  0  0
 13 12  1  0  0  0  0
 14  9  1  0  0  0  0
 15  9  1  0  0  0  0
 20 12  1  0  0  0  0
 22 13  1  0  0  0  0
 23  1  1  0  0  0  0
 24 23  1  0  0  0  0
 25 23  1  0  0  0  0
 26 23  1  0  0  0  0
 26 28  1  0  0  0  0
 26 31  1  0  0  0  0
 27 26  1  0  0  0  0
 29 35  1  0  0  0  0
 29 34  1  0  0  0  0
 30 29  2  0  0  0  0
 31 30  1  0  0  0  0
 31 32  2  0  0  0  0
 32 33  1  0  0  0  0
 33 34  2  0  0  0  0
 33 37  1  0  0  0  0
 36 30  1  0  0  0  0
 37 44  2  0  0  0  0
 37 38  1  0  0  0  0
 38 39  1  0  0  0  0
 38 40  2  0  0  0  0
 40 41  1  0  0  0  0
 42 43  1  0  0  0  0
 42 40  1  0  0  0  0
 44 42  1  0  0  0  0
M  END
>  <minimizedAffinity>
-5.06683874

$$$$
