
 OpenBabel03252503333D

 21 22  0  0  0  0  0  0  0  0999 V2000
   46.5220   34.1060   40.9290 C   0  0  0  0  0  0  0  0  0  0  0  0
   45.4680   33.4380   41.1080 O   0  0  0  0  0  0  0  0  0  0  0  0
   46.9340   34.8980   42.0330 N   0  0  0  0  0  0  0  0  0  0  0  0
   47.8130   35.4630   41.9390 H   0  0  0  0  0  0  0  0  0  0  0  0
   44.5080   35.8610   44.6960 C   0  0  0  0  0  0  0  0  0  0  0  0
   45.2070   35.9030   43.4840 C   0  0  0  0  0  0  0  0  0  0  0  0
   46.1780   34.9280   43.2390 C   0  0  0  0  0  0  0  0  0  0  0  0
   46.4060   33.9760   44.1880 N   0  0  0  0  0  0  0  0  0  0  0  0
   45.7040   33.9700   45.3560 C   0  0  0  0  0  0  0  0  0  0  0  0
   44.7710   34.9010   45.5990 N   0  0  0  0  0  0  0  0  0  0  0  0
   43.7790   36.6480   44.8050 H   0  0  0  0  0  0  0  0  0  0  0  0
   45.0190   36.6640   42.7330 H   0  0  0  0  0  0  0  0  0  0  0  0
   45.9390   33.1840   46.0620 H   0  0  0  0  0  0  0  0  0  0  0  0
   47.2440   34.0490   39.6640 C   0  0  0  0  0  0  0  0  0  0  0  0
   46.8750   33.2500   38.6090 C   0  0  0  0  0  0  0  0  0  0  0  0
   46.0720   32.5610   38.4710 H   0  0  0  0  0  0  0  0  0  0  0  0
   47.8480   33.5350   37.6480 C   0  0  0  0  0  0  0  0  0  0  0  0
   47.9160   33.1070   36.6590 H   0  0  0  0  0  0  0  0  0  0  0  0
   48.7400   34.4570   38.1200 N   0  0  0  0  0  0  0  0  0  0  0  0
   49.5550   34.8250   37.5790 H   0  0  0  0  0  0  0  0  0  0  0  0
   48.3460   34.7570   39.3630 N   0  0  0  0  0  0  0  0  0  0  0  0
  1  2  2  0  0  0  0
  1  3  1  0  0  0  0
  3  7  1  0  0  0  0
  4  3  1  0  0  0  0
  5 11  1  0  0  0  0
  5 10  1  0  0  0  0
  6  5  2  0  0  0  0
  7  6  1  0  0  0  0
  7  8  2  0  0  0  0
  8  9  1  0  0  0  0
  9 10  2  0  0  0  0
  9 13  1  0  0  0  0
 12  6  1  0  0  0  0
 14  1  1  0  0  0  0
 15 14  1  0  0  0  0
 16 15  1  0  0  0  0
 17 19  1  0  0  0  0
 17 15  2  0  0  0  0
 18 17  1  0  0  0  0
 19 21  1  0  0  0  0
 20 19  1  0  0  0  0
 21 14  2  0  0  0  0
M  END
>  <minimizedAffinity>
-4.36905289

>  <minimizedRMSD>
0.526471555

$$$$
