
 OpenBabel03252508303D

 38 41  0  0  1  0  0  0  0  0999 V2000
   38.2920   32.1760   38.2180 N   0  0  0  0  0  0  0  0  0  0  0  0
   37.3980   31.3620   39.0480 C   0  0  2  0  0  0  0  0  0  0  0  0
   36.9950   32.0500   40.3000 C   0  0  0  0  0  0  0  0  0  0  0  0
   37.3630   33.4560   40.3050 N   0  0  0  0  0  0  0  0  0  0  0  0
   38.7100   33.7260   39.9610 C   0  0  0  0  0  0  0  0  0  0  0  0
   39.3480   32.6220   39.1540 C   0  0  2  0  0  0  0  0  0  0  0  0
   37.8030   32.9920   37.8060 H   0  0  0  0  0  0  0  0  0  0  0  0
   36.4950   31.0980   38.4540 H   0  0  0  0  0  0  0  0  0  0  0  0
   35.8700   32.0560   40.3990 H   0  0  0  0  0  0  0  0  0  0  0  0
   37.4750   31.7150   41.2350 H   0  0  0  0  0  0  0  0  0  0  0  0
   36.7370   33.9500   39.6050 H   0  0  0  0  0  0  0  0  0  0  0  0
   39.3250   33.8630   40.8850 H   0  0  0  0  0  0  0  0  0  0  0  0
   38.7660   34.7020   39.4140 H   0  0  0  0  0  0  0  0  0  0  0  0
   39.5590   31.7830   39.8180 H   0  0  0  0  0  0  0  0  0  0  0  0
   40.5510   33.0830   38.4410 C   0  0  0  0  0  0  0  0  0  0  0  0
   41.4220   34.0800   38.7770 C   0  0  0  0  0  0  0  0  0  0  0  0
   41.3770   34.7220   39.6480 H   0  0  0  0  0  0  0  0  0  0  0  0
   42.4090   34.1610   37.8130 C   0  0  0  0  0  0  0  0  0  0  0  0
   43.2660   34.8400   37.7560 H   0  0  0  0  0  0  0  0  0  0  0  0
   42.1230   33.2100   36.9040 N   0  0  0  0  0  0  0  0  0  0  0  0
   42.6390   32.9520   36.0170 H   0  0  0  0  0  0  0  0  0  0  0  0
   41.0190   32.5730   37.2830 N   0  0  0  0  0  0  0  0  0  0  0  0
   38.9400   28.4240   40.4620 C   0  0  0  0  0  0  0  0  0  0  0  0
   39.2060   28.3230   39.0940 C   0  0  0  0  0  0  0  0  0  0  0  0
   38.6670   29.4090   38.4250 C   0  0  0  0  0  0  0  0  0  0  0  0
   38.0920   30.1320   39.3830 N   0  0  0  0  0  0  0  0  0  0  0  0
   38.2510   29.5590   40.5680 N   0  0  0  0  0  0  0  0  0  0  0  0
   39.7780   27.4450   38.7390 H   0  0  0  0  0  0  0  0  0  0  0  0
   38.8800   29.3350   37.3640 H   0  0  0  0  0  0  0  0  0  0  0  0
   39.8380   26.7020   43.6790 C   0  0  0  0  0  0  0  0  0  0  0  0
   39.3950   27.7520   42.8180 C   0  0  0  0  0  0  0  0  0  0  0  0
   39.3720   27.4620   41.4760 C   0  0  0  0  0  0  0  0  0  0  0  0
   39.7580   26.2280   41.0350 N   0  0  0  0  0  0  0  0  0  0  0  0
   40.1710   25.2610   41.8880 C   0  0  0  0  0  0  0  0  0  0  0  0
   40.2020   25.5190   43.1860 N   0  0  0  0  0  0  0  0  0  0  0  0
   39.8560   26.9340   44.7440 H   0  0  0  0  0  0  0  0  0  0  0  0
   39.0900   28.7260   43.1650 H   0  0  0  0  0  0  0  0  0  0  0  0
   40.4530   24.3240   41.4300 H   0  0  0  0  0  0  0  0  0  0  0  0
  1  2  1  0  0  0  0
  1  6  1  0  0  0  0
  2  8  1  6  0  0  0
  2 26  1  0  0  0  0
  2  3  1  0  0  0  0
  3  4  1  0  0  0  0
  3  9  1  0  0  0  0
  3 10  1  0  0  0  0
  5  4  1  0  0  0  0
  5 12  1  0  0  0  0
  6 14  1  1  0  0  0
  6  5  1  0  0  0  0
  7  1  1  0  0  0  0
 11  4  1  0  0  0  0
 13  5  1  0  0  0  0
 15 16  1  0  0  0  0
 15  6  1  0  0  0  0
 16 17  1  0  0  0  0
 18 16  2  0  0  0  0
 19 18  1  0  0  0  0
 20 22  1  0  0  0  0
 20 18  1  0  0  0  0
 21 20  1  0  0  0  0
 22 15  2  0  0  0  0
 23 27  2  0  0  0  0
 23 32  1  0  0  0  0
 24 23  1  0  0  0  0
 25 24  2  0  0  0  0
 25 26  1  0  0  0  0
 26 27  1  0  0  0  0
 28 24  1  0  0  0  0
 29 25  1  0  0  0  0
 30 36  1  0  0  0  0
 31 37  1  0  0  0  0
 31 30  2  0  0  0  0
 32 31  1  0  0  0  0
 33 32  2  0  0  0  0
 33 34  1  0  0  0  0
 34 35  2  0  0  0  0
 35 30  1  0  0  0  0
 38 34  1  0  0  0  0
M  END
>  <minimizedAffinity>
-5.67720747

$$$$

 OpenBabel03252508303D

 38 41  0  0  1  0  0  0  0  0999 V2000
   36.6900   29.9880   41.9370 N   0  0  0  0  0  0  0  0  0  0  0  0
   36.5350   28.5360   41.8090 C   0  0  2  0  0  0  0  0  0  0  0  0
   37.7980   27.7980   42.0650 C   0  0  0  0  0  0  0  0  0  0  0  0
   38.8320   28.6490   42.6300 N   0  0  0  0  0  0  0  0  0  0  0  0
   39.0570   29.8630   41.9370 C   0  0  0  0  0  0  0  0  0  0  0  0
   37.8740   30.2990   41.1060 C   0  0  2  0  0  0  0  0  0  0  0  0
   36.8510   30.2750   42.9200 H   0  0  0  0  0  0  0  0  0  0  0  0
   35.7470   28.1920   42.5160 H   0  0  0  0  0  0  0  0  0  0  0  0
   37.6340   27.0010   42.8480 H   0  0  0  0  0  0  0  0  0  0  0  0
   38.3300   27.3930   41.1890 H   0  0  0  0  0  0  0  0  0  0  0  0
   38.5420   28.8840   43.6230 H   0  0  0  0  0  0  0  0  0  0  0  0
   39.9300   29.7590   41.2450 H   0  0  0  0  0  0  0  0  0  0  0  0
   39.3450   30.6620   42.6670 H   0  0  0  0  0  0  0  0  0  0  0  0
   37.8170   29.6640   40.2210 H   0  0  0  0  0  0  0  0  0  0  0  0
   37.9390   31.7290   40.7600 C   0  0  0  0  0  0  0  0  0  0  0  0
   38.9540   32.6190   40.9640 C   0  0  0  0  0  0  0  0  0  0  0  0
   39.9120   32.4240   41.4280 H   0  0  0  0  0  0  0  0  0  0  0  0
   38.5740   33.8560   40.4770 C   0  0  0  0  0  0  0  0  0  0  0  0
   39.1330   34.7980   40.4710 H   0  0  0  0  0  0  0  0  0  0  0  0
   37.3320   33.6980   39.9820 N   0  0  0  0  0  0  0  0  0  0  0  0
   36.6980   34.4080   39.5220 H   0  0  0  0  0  0  0  0  0  0  0  0
   36.9610   32.4320   40.1530 N   0  0  0  0  0  0  0  0  0  0  0  0
   35.1090   28.3670   38.5000 C   0  0  0  0  0  0  0  0  0  0  0  0
   35.8930   27.2150   38.5920 C   0  0  0  0  0  0  0  0  0  0  0  0
   36.5000   27.1520   39.8340 C   0  0  0  0  0  0  0  0  0  0  0  0
   36.0820   28.2500   40.4590 N   0  0  0  0  0  0  0  0  0  0  0  0
   35.2720   28.9570   39.6830 N   0  0  0  0  0  0  0  0  0  0  0  0
   35.9280   26.5380   37.7160 H   0  0  0  0  0  0  0  0  0  0  0  0
   37.1030   26.2540   39.9100 H   0  0  0  0  0  0  0  0  0  0  0  0
   32.3340   29.3910   36.1810 C   0  0  0  0  0  0  0  0  0  0  0  0
   32.9670   29.0260   37.4080 C   0  0  0  0  0  0  0  0  0  0  0  0
   34.3110   28.7510   37.3350 C   0  0  0  0  0  0  0  0  0  0  0  0
   34.9630   28.8360   36.1380 N   0  0  0  0  0  0  0  0  0  0  0  0
   34.3220   29.1870   34.9980 C   0  0  0  0  0  0  0  0  0  0  0  0
   33.0260   29.4560   35.0460 N   0  0  0  0  0  0  0  0  0  0  0  0
   31.2670   29.6080   36.2420 H   0  0  0  0  0  0  0  0  0  0  0  0
   32.4540   28.9590   38.3540 H   0  0  0  0  0  0  0  0  0  0  0  0
   34.9350   29.2220   34.1090 H   0  0  0  0  0  0  0  0  0  0  0  0
  1  7  1  0  0  0  0
  2  1  1  0  0  0  0
  2  3  1  0  0  0  0
  2  8  1  1  0  0  0
  3  4  1  0  0  0  0
  3  9  1  0  0  0  0
  4 11  1  0  0  0  0
  5  4  1  0  0  0  0
  5 13  1  0  0  0  0
  6 14  1  6  0  0  0
  6  1  1  0  0  0  0
  6  5  1  0  0  0  0
 10  3  1  0  0  0  0
 12  5  1  0  0  0  0
 15 16  1  0  0  0  0
 15  6  1  0  0  0  0
 16 17  1  0  0  0  0
 18 16  2  0  0  0  0
 19 18  1  0  0  0  0
 20 22  1  0  0  0  0
 20 18  1  0  0  0  0
 21 20  1  0  0  0  0
 22 15  2  0  0  0  0
 23 24  1  0  0  0  0
 23 27  2  0  0  0  0
 24 25  2  0  0  0  0
 25 29  1  0  0  0  0
 25 26  1  0  0  0  0
 26  2  1  0  0  0  0
 27 26  1  0  0  0  0
 28 24  1  0  0  0  0
 30 36  1  0  0  0  0
 30 31  1  0  0  0  0
 31 37  1  0  0  0  0
 32 31  2  0  0  0  0
 32 23  1  0  0  0  0
 33 32  1  0  0  0  0
 34 35  1  0  0  0  0
 34 33  2  0  0  0  0
 35 30  2  0  0  0  0
 38 34  1  0  0  0  0
M  END
>  <minimizedAffinity>
-5.54696989

$$$$

 OpenBabel03252508303D

 38 41  0  0  1  0  0  0  0  0999 V2000
   37.1700   30.1940   42.2280 N   0  0  0  0  0  0  0  0  0  0  0  0
   36.4650   30.8930   41.1500 C   0  0  2  0  0  0  0  0  0  0  0  0
   35.5260   30.0120   40.4110 C   0  0  0  0  0  0  0  0  0  0  0  0
   35.3260   28.7340   41.0740 N   0  0  0  0  0  0  0  0  0  0  0  0
   36.5130   28.0550   41.4440 C   0  0  0  0  0  0  0  0  0  0  0  0
   37.7030   28.9750   41.5800 C   0  0  2  0  0  0  0  0  0  0  0  0
   36.5340   29.9420   43.0070 H   0  0  0  0  0  0  0  0  0  0  0  0
   35.9120   31.7580   41.5800 H   0  0  0  0  0  0  0  0  0  0  0  0
   34.4970   30.4740   40.3800 H   0  0  0  0  0  0  0  0  0  0  0  0
   35.8400   29.6700   39.4110 H   0  0  0  0  0  0  0  0  0  0  0  0
   34.7630   28.9190   41.9550 H   0  0  0  0  0  0  0  0  0  0  0  0
   36.7730   27.2850   40.6760 H   0  0  0  0  0  0  0  0  0  0  0  0
   36.3390   27.4880   42.3930 H   0  0  0  0  0  0  0  0  0  0  0  0
   38.0350   29.2650   40.5830 H   0  0  0  0  0  0  0  0  0  0  0  0
   38.7850   28.3640   42.3700 C   0  0  0  0  0  0  0  0  0  0  0  0
   38.7720   27.2110   43.1030 C   0  0  0  0  0  0  0  0  0  0  0  0
   37.9410   26.5290   43.2330 H   0  0  0  0  0  0  0  0  0  0  0  0
   40.0150   27.0280   43.6780 C   0  0  0  0  0  0  0  0  0  0  0  0
   40.3640   26.2170   44.3260 H   0  0  0  0  0  0  0  0  0  0  0  0
   40.7670   28.0730   43.2860 N   0  0  0  0  0  0  0  0  0  0  0  0
   41.7750   28.2970   43.5140 H   0  0  0  0  0  0  0  0  0  0  0  0
   40.0300   28.8630   42.5090 N   0  0  0  0  0  0  0  0  0  0  0  0
   39.2580   32.3190   39.3670 C   0  0  0  0  0  0  0  0  0  0  0  0
   38.3950   31.8870   38.3580 C   0  0  0  0  0  0  0  0  0  0  0  0
   37.2620   31.3180   38.9140 C   0  0  0  0  0  0  0  0  0  0  0  0
   37.4590   31.4110   40.2260 N   0  0  0  0  0  0  0  0  0  0  0  0
   38.6200   31.9940   40.4900 N   0  0  0  0  0  0  0  0  0  0  0  0
   38.7040   32.0440   37.3060 H   0  0  0  0  0  0  0  0  0  0  0  0
   36.5870   30.9890   38.1310 H   0  0  0  0  0  0  0  0  0  0  0  0
   42.5070   34.1610   39.7820 C   0  0  0  0  0  0  0  0  0  0  0  0
   41.2690   33.5590   40.1600 C   0  0  0  0  0  0  0  0  0  0  0  0
   40.5440   32.9810   39.1470 C   0  0  0  0  0  0  0  0  0  0  0  0
   41.0190   33.0040   37.8670 N   0  0  0  0  0  0  0  0  0  0  0  0
   42.2000   33.5860   37.5530 C   0  0  0  0  0  0  0  0  0  0  0  0
   42.9150   34.1500   38.5140 N   0  0  0  0  0  0  0  0  0  0  0  0
   43.0810   34.6190   40.5880 H   0  0  0  0  0  0  0  0  0  0  0  0
   40.8930   33.5400   41.1710 H   0  0  0  0  0  0  0  0  0  0  0  0
   42.4780   33.5450   36.5090 H   0  0  0  0  0  0  0  0  0  0  0  0
  1  7  1  0  0  0  0
  2  8  1  1  0  0  0
  2  1  1  0  0  0  0
  3  4  1  0  0  0  0
  3  2  1  0  0  0  0
  4  5  1  0  0  0  0
  4 11  1  0  0  0  0
  5  6  1  0  0  0  0
  5 13  1  0  0  0  0
  6 14  1  6  0  0  0
  6  1  1  0  0  0  0
  6 15  1  0  0  0  0
  9  3  1  0  0  0  0
 10  3  1  0  0  0  0
 12  5  1  0  0  0  0
 15 22  2  0  0  0  0
 15 16  1  0  0  0  0
 16 17  1  0  0  0  0
 16 18  2  0  0  0  0
 18 19  1  0  0  0  0
 20 21  1  0  0  0  0
 20 18  1  0  0  0  0
 22 20  1  0  0  0  0
 23 27  2  0  0  0  0
 24 25  2  0  0  0  0
 24 23  1  0  0  0  0
 25 26  1  0  0  0  0
 26 27  1  0  0  0  0
 26  2  1  0  0  0  0
 28 24  1  0  0  0  0
 29 25  1  0  0  0  0
 30 31  1  0  0  0  0
 30 36  1  0  0  0  0
 31 37  1  0  0  0  0
 32 23  1  0  0  0  0
 32 31  2  0  0  0  0
 33 32  1  0  0  0  0
 34 33  2  0  0  0  0
 34 35  1  0  0  0  0
 35 30  2  0  0  0  0
 38 34  1  0  0  0  0
M  END
>  <minimizedAffinity>
-5.50183201

$$$$

 OpenBabel03252508303D

 38 41  0  0  1  0  0  0  0  0999 V2000
   36.7170   31.6420   40.0980 N   0  0  0  0  0  0  0  0  0  0  0  0
   37.2290   32.4630   38.9970 C   0  0  2  0  0  0  0  0  0  0  0  0
   37.4090   31.6910   37.7410 C   0  0  0  0  0  0  0  0  0  0  0  0
   36.8040   30.3710   37.8100 N   0  0  0  0  0  0  0  0  0  0  0  0
   37.1470   29.6110   38.9550 C   0  0  0  0  0  0  0  0  0  0  0  0
   37.6090   30.4610   40.1140 C   0  0  2  0  0  0  0  0  0  0  0  0
   35.7340   31.3530   39.9420 H   0  0  0  0  0  0  0  0  0  0  0  0
   36.5290   33.3110   38.8220 H   0  0  0  0  0  0  0  0  0  0  0  0
   36.8720   32.1990   36.8880 H   0  0  0  0  0  0  0  0  0  0  0  0
   38.4410   31.4230   37.4600 H   0  0  0  0  0  0  0  0  0  0  0  0
   35.7510   30.5040   37.8040 H   0  0  0  0  0  0  0  0  0  0  0  0
   37.9740   28.8990   38.7130 H   0  0  0  0  0  0  0  0  0  0  0  0
   36.2770   28.9730   39.2530 H   0  0  0  0  0  0  0  0  0  0  0  0
   38.6160   30.8210   39.9020 H   0  0  0  0  0  0  0  0  0  0  0  0
   37.5350   29.7380   41.3940 C   0  0  0  0  0  0  0  0  0  0  0  0
   38.3980   29.7690   42.4520 C   0  0  0  0  0  0  0  0  0  0  0  0
   39.3100   30.3450   42.5350 H   0  0  0  0  0  0  0  0  0  0  0  0
   37.9270   28.9270   43.4430 C   0  0  0  0  0  0  0  0  0  0  0  0
   38.3590   28.7050   44.4240 H   0  0  0  0  0  0  0  0  0  0  0  0
   36.7830   28.3970   42.9720 N   0  0  0  0  0  0  0  0  0  0  0  0
   36.1240   27.7090   43.4300 H   0  0  0  0  0  0  0  0  0  0  0  0
   36.5560   28.8830   41.7550 N   0  0  0  0  0  0  0  0  0  0  0  0
   40.6350   33.5330   39.5130 C   0  0  0  0  0  0  0  0  0  0  0  0
   39.9230   34.1550   40.5410 C   0  0  0  0  0  0  0  0  0  0  0  0
   38.5830   33.8170   40.4620 C   0  0  0  0  0  0  0  0  0  0  0  0
   38.5090   33.0140   39.4040 N   0  0  0  0  0  0  0  0  0  0  0  0
   39.7030   32.8480   38.8520 N   0  0  0  0  0  0  0  0  0  0  0  0
   40.4830   34.8000   41.2460 H   0  0  0  0  0  0  0  0  0  0  0  0
   38.0300   34.2940   41.2650 H   0  0  0  0  0  0  0  0  0  0  0  0
   44.3440   33.9510   39.9420 C   0  0  0  0  0  0  0  0  0  0  0  0
   42.9700   33.8640   40.3180 C   0  0  0  0  0  0  0  0  0  0  0  0
   42.0770   33.6510   39.2970 C   0  0  0  0  0  0  0  0  0  0  0  0
   42.5220   33.5350   38.0120 N   0  0  0  0  0  0  0  0  0  0  0  0
   43.8370   33.6230   37.7000 C   0  0  0  0  0  0  0  0  0  0  0  0
   44.7150   33.8290   38.6690 N   0  0  0  0  0  0  0  0  0  0  0  0
   45.0520   34.1200   40.7540 H   0  0  0  0  0  0  0  0  0  0  0  0
   42.6170   33.9550   41.3330 H   0  0  0  0  0  0  0  0  0  0  0  0
   44.0770   33.5170   36.6510 H   0  0  0  0  0  0  0  0  0  0  0  0
  1  6  1  0  0  0  0
  2  8  1  6  0  0  0
  2 26  1  0  0  0  0
  2  1  1  0  0  0  0
  3  4  1  0  0  0  0
  3  2  1  0  0  0  0
  4  5  1  0  0  0  0
  5 13  1  0  0  0  0
  5  6  1  0  0  0  0
  6 14  1  6  0  0  0
  6 15  1  0  0  0  0
  7  1  1  0  0  0  0
  9  3  1  0  0  0  0
 10  3  1  0  0  0  0
 11  4  1  0  0  0  0
 12  5  1  0  0  0  0
 15 22  2  0  0  0  0
 15 16  1  0  0  0  0
 16 17  1  0  0  0  0
 16 18  2  0  0  0  0
 18 19  1  0  0  0  0
 20 21  1  0  0  0  0
 20 18  1  0  0  0  0
 22 20  1  0  0  0  0
 23 24  1  0  0  0  0
 24 28  1  0  0  0  0
 25 24  2  0  0  0  0
 25 29  1  0  0  0  0
 26 25  1  0  0  0  0
 27 26  1  0  0  0  0
 27 23  2  0  0  0  0
 30 31  1  0  0  0  0
 30 36  1  0  0  0  0
 31 37  1  0  0  0  0
 32 23  1  0  0  0  0
 32 31  2  0  0  0  0
 33 32  1  0  0  0  0
 34 33  2  0  0  0  0
 34 35  1  0  0  0  0
 35 30  2  0  0  0  0
 38 34  1  0  0  0  0
M  END
>  <minimizedAffinity>
-5.45654345

$$$$

 OpenBabel03252508303D

 38 41  0  0  1  0  0  0  0  0999 V2000
   38.5950   32.3590   37.4980 N   0  0  0  0  0  0  0  0  0  0  0  0
   37.4050   32.3160   38.3530 C   0  0  2  0  0  0  0  0  0  0  0  0
   37.5680   33.1020   39.6020 C   0  0  0  0  0  0  0  0  0  0  0  0
   38.7570   33.9370   39.5810 N   0  0  0  0  0  0  0  0  0  0  0  0
   39.9530   33.2740   39.2120 C   0  0  0  0  0  0  0  0  0  0  0  0
   39.7090   32.0170   38.4100 C   0  0  2  0  0  0  0  0  0  0  0  0
   38.7410   33.2980   37.0820 H   0  0  0  0  0  0  0  0  0  0  0  0
   36.5330   32.6980   37.7770 H   0  0  0  0  0  0  0  0  0  0  0  0
   36.7160   33.8340   39.7180 H   0  0  0  0  0  0  0  0  0  0  0  0
   37.7380   32.5370   40.5330 H   0  0  0  0  0  0  0  0  0  0  0  0
   38.5840   34.7190   38.8840 H   0  0  0  0  0  0  0  0  0  0  0  0
   40.5300   32.9800   40.1230 H   0  0  0  0  0  0  0  0  0  0  0  0
   40.6140   33.9810   38.6500 H   0  0  0  0  0  0  0  0  0  0  0  0
   39.3420   31.2410   39.0820 H   0  0  0  0  0  0  0  0  0  0  0  0
   40.9100   31.5920   37.6720 C   0  0  0  0  0  0  0  0  0  0  0  0
   41.3280   30.3290   37.3610 C   0  0  0  0  0  0  0  0  0  0  0  0
   40.8370   29.3980   37.6110 H   0  0  0  0  0  0  0  0  0  0  0  0
   42.5140   30.4070   36.6560 C   0  0  0  0  0  0  0  0  0  0  0  0
   43.1300   29.5990   36.2480 H   0  0  0  0  0  0  0  0  0  0  0  0
   42.7990   31.7180   36.5470 N   0  0  0  0  0  0  0  0  0  0  0  0
   43.6210   32.1900   36.0770 H   0  0  0  0  0  0  0  0  0  0  0  0
   41.8420   32.4170   37.1520 N   0  0  0  0  0  0  0  0  0  0  0  0
   36.9460   29.0320   39.7720 C   0  0  0  0  0  0  0  0  0  0  0  0
   36.5350   28.8900   38.4440 C   0  0  0  0  0  0  0  0  0  0  0  0
   36.6690   30.0940   37.7750 C   0  0  0  0  0  0  0  0  0  0  0  0
   37.1470   30.9290   38.6940 N   0  0  0  0  0  0  0  0  0  0  0  0
   37.3090   30.3110   39.8560 N   0  0  0  0  0  0  0  0  0  0  0  0
   36.1760   27.8960   38.1140 H   0  0  0  0  0  0  0  0  0  0  0  0
   36.3570   29.9830   36.7420 H   0  0  0  0  0  0  0  0  0  0  0  0
   36.7760   27.0310   42.9480 C   0  0  0  0  0  0  0  0  0  0  0  0
   36.7380   28.1840   42.1060 C   0  0  0  0  0  0  0  0  0  0  0  0
   36.9560   27.9610   40.7680 C   0  0  0  0  0  0  0  0  0  0  0  0
   37.1890   26.6940   40.3140 N   0  0  0  0  0  0  0  0  0  0  0  0
   37.2150   25.6290   41.1490 C   0  0  0  0  0  0  0  0  0  0  0  0
   37.0080   25.8210   42.4430 N   0  0  0  0  0  0  0  0  0  0  0  0
   36.6030   27.2100   44.0090 H   0  0  0  0  0  0  0  0  0  0  0  0
   36.5530   29.1840   42.4630 H   0  0  0  0  0  0  0  0  0  0  0  0
   37.4090   24.6730   40.6830 H   0  0  0  0  0  0  0  0  0  0  0  0
  1  2  1  0  0  0  0
  1  6  1  0  0  0  0
  2  8  1  6  0  0  0
  2 26  1  0  0  0  0
  2  3  1  0  0  0  0
  3  9  1  0  0  0  0
  3 10  1  0  0  0  0
  4  3  1  0  0  0  0
  5  4  1  0  0  0  0
  5 12  1  0  0  0  0
  6 14  1  1  0  0  0
  6  5  1  0  0  0  0
  7  1  1  0  0  0  0
 11  4  1  0  0  0  0
 13  5  1  0  0  0  0
 15  6  1  0  0  0  0
 16 17  1  0  0  0  0
 16 15  1  0  0  0  0
 18 16  2  0  0  0  0
 19 18  1  0  0  0  0
 20 18  1  0  0  0  0
 20 22  1  0  0  0  0
 21 20  1  0  0  0  0
 22 15  2  0  0  0  0
 23 27  2  0  0  0  0
 23 32  1  0  0  0  0
 24 23  1  0  0  0  0
 25 24  2  0  0  0  0
 25 26  1  0  0  0  0
 26 27  1  0  0  0  0
 28 24  1  0  0  0  0
 29 25  1  0  0  0  0
 30 36  1  0  0  0  0
 31 37  1  0  0  0  0
 31 30  2  0  0  0  0
 32 31  1  0  0  0  0
 33 32  2  0  0  0  0
 33 34  1  0  0  0  0
 34 35  2  0  0  0  0
 35 30  1  0  0  0  0
 38 34  1  0  0  0  0
M  END
>  <minimizedAffinity>
-5.41580057

$$$$

 OpenBabel03252508303D

 38 41  0  0  1  0  0  0  0  0999 V2000
   36.3870   30.5360   39.0910 N   0  0  0  0  0  0  0  0  0  0  0  0
   36.7530   31.1560   40.3680 C   0  0  2  0  0  0  0  0  0  0  0  0
   37.4100   32.4770   40.1970 C   0  0  0  0  0  0  0  0  0  0  0  0
   37.3140   32.9720   38.8340 N   0  0  0  0  0  0  0  0  0  0  0  0
   37.7030   32.0520   37.8300 C   0  0  0  0  0  0  0  0  0  0  0  0
   37.6240   30.6130   38.2830 C   0  0  2  0  0  0  0  0  0  0  0  0
   35.6140   31.0440   38.6210 H   0  0  0  0  0  0  0  0  0  0  0  0
   35.8380   31.2670   40.9910 H   0  0  0  0  0  0  0  0  0  0  0  0
   36.8820   33.2590   40.8160 H   0  0  0  0  0  0  0  0  0  0  0  0
   38.5010   32.5180   40.3480 H   0  0  0  0  0  0  0  0  0  0  0  0
   36.3010   33.2380   38.6640 H   0  0  0  0  0  0  0  0  0  0  0  0
   38.7580   32.2450   37.5160 H   0  0  0  0  0  0  0  0  0  0  0  0
   37.0810   32.2140   36.9140 H   0  0  0  0  0  0  0  0  0  0  0  0
   38.4570   30.4150   38.9580 H   0  0  0  0  0  0  0  0  0  0  0  0
   37.5950   29.6780   37.1470 C   0  0  0  0  0  0  0  0  0  0  0  0
   36.6250   29.5000   36.2020 C   0  0  0  0  0  0  0  0  0  0  0  0
   35.6830   30.0290   36.1230 H   0  0  0  0  0  0  0  0  0  0  0  0
   37.0250   28.5100   35.3240 C   0  0  0  0  0  0  0  0  0  0  0  0
   36.5030   28.1080   34.4500 H   0  0  0  0  0  0  0  0  0  0  0  0
   38.2360   28.1010   35.7480 N   0  0  0  0  0  0  0  0  0  0  0  0
   38.8730   27.3600   35.3450 H   0  0  0  0  0  0  0  0  0  0  0  0
   38.5680   28.7990   36.8310 N   0  0  0  0  0  0  0  0  0  0  0  0
   38.6120   28.4790   41.9140 C   0  0  0  0  0  0  0  0  0  0  0  0
   39.3890   29.6150   42.1510 C   0  0  0  0  0  0  0  0  0  0  0  0
   38.7760   30.7310   41.6070 C   0  0  0  0  0  0  0  0  0  0  0  0
   37.6610   30.2580   41.0580 N   0  0  0  0  0  0  0  0  0  0  0  0
   37.5650   28.9480   41.2360 N   0  0  0  0  0  0  0  0  0  0  0  0
   40.3370   29.4890   42.7080 H   0  0  0  0  0  0  0  0  0  0  0  0
   39.3760   31.6150   41.7980 H   0  0  0  0  0  0  0  0  0  0  0  0
   40.0790   25.4900   43.6550 C   0  0  0  0  0  0  0  0  0  0  0  0
   39.8760   26.8660   43.3320 C   0  0  0  0  0  0  0  0  0  0  0  0
   38.9430   27.1250   42.3580 C   0  0  0  0  0  0  0  0  0  0  0  0
   38.2720   26.0960   41.7620 N   0  0  0  0  0  0  0  0  0  0  0  0
   38.4960   24.8050   42.1000 C   0  0  0  0  0  0  0  0  0  0  0  0
   39.3920   24.5320   43.0370 N   0  0  0  0  0  0  0  0  0  0  0  0
   40.8210   25.2870   44.4290 H   0  0  0  0  0  0  0  0  0  0  0  0
   40.4040   27.6800   43.8030 H   0  0  0  0  0  0  0  0  0  0  0  0
   37.9100   24.0720   41.5650 H   0  0  0  0  0  0  0  0  0  0  0  0
  1  2  1  0  0  0  0
  2  8  1  1  0  0  0
  2 26  1  0  0  0  0
  3 10  1  0  0  0  0
  3  2  1  0  0  0  0
  3  9  1  0  0  0  0
  4  3  1  0  0  0  0
  5  6  1  0  0  0  0
  5  4  1  0  0  0  0
  6 14  1  1  0  0  0
  6  1  1  0  0  0  0
  7  1  1  0  0  0  0
 11  4  1  0  0  0  0
 12  5  1  0  0  0  0
 13  5  1  0  0  0  0
 15  6  1  0  0  0  0
 16 15  1  0  0  0  0
 17 16  1  0  0  0  0
 18 20  1  0  0  0  0
 18 16  2  0  0  0  0
 19 18  1  0  0  0  0
 20 22  1  0  0  0  0
 21 20  1  0  0  0  0
 22 15  2  0  0  0  0
 23 24  1  0  0  0  0
 23 32  1  0  0  0  0
 24 28  1  0  0  0  0
 25 29  1  0  0  0  0
 25 24  2  0  0  0  0
 26 27  1  0  0  0  0
 26 25  1  0  0  0  0
 27 23  2  0  0  0  0
 30 36  1  0  0  0  0
 31 30  1  0  0  0  0
 31 37  1  0  0  0  0
 32 31  2  0  0  0  0
 33 34  2  0  0  0  0
 33 32  1  0  0  0  0
 34 35  1  0  0  0  0
 35 30  2  0  0  0  0
 38 34  1  0  0  0  0
M  END
>  <minimizedAffinity>
-5.39927864

$$$$

 OpenBabel03252508303D

 38 41  0  0  1  0  0  0  0  0999 V2000
   40.0460   31.4750   42.4610 N   0  0  0  0  0  0  0  0  0  0  0  0
   40.6920   30.2050   42.8050 C   0  0  2  0  0  0  0  0  0  0  0  0
   41.8460   29.8910   41.9250 C   0  0  0  0  0  0  0  0  0  0  0  0
   42.2330   31.0180   41.0940 N   0  0  0  0  0  0  0  0  0  0  0  0
   41.1740   31.6340   40.3820 C   0  0  0  0  0  0  0  0  0  0  0  0
   39.8200   31.3830   41.0020 C   0  0  2  0  0  0  0  0  0  0  0  0
   40.6490   32.2890   42.6840 H   0  0  0  0  0  0  0  0  0  0  0  0
   41.0260   30.2440   43.8660 H   0  0  0  0  0  0  0  0  0  0  0  0
   42.7640   29.6730   42.5440 H   0  0  0  0  0  0  0  0  0  0  0  0
   41.6940   29.1180   41.1530 H   0  0  0  0  0  0  0  0  0  0  0  0
   42.6700   31.7460   41.7310 H   0  0  0  0  0  0  0  0  0  0  0  0
   41.1370   31.2480   39.3330 H   0  0  0  0  0  0  0  0  0  0  0  0
   41.3730   32.7320   40.2940 H   0  0  0  0  0  0  0  0  0  0  0  0
   39.5260   30.3540   40.7910 H   0  0  0  0  0  0  0  0  0  0  0  0
   38.8140   32.3540   40.5420 C   0  0  0  0  0  0  0  0  0  0  0  0
   38.9960   33.6110   40.0400 C   0  0  0  0  0  0  0  0  0  0  0  0
   39.9370   34.1250   39.8900 H   0  0  0  0  0  0  0  0  0  0  0  0
   37.7640   34.1590   39.7370 C   0  0  0  0  0  0  0  0  0  0  0  0
   37.5290   35.1440   39.3200 H   0  0  0  0  0  0  0  0  0  0  0  0
   36.8490   33.2260   40.0600 N   0  0  0  0  0  0  0  0  0  0  0  0
   35.7960   33.2610   39.9770 H   0  0  0  0  0  0  0  0  0  0  0  0
   37.4800   32.1550   40.5360 N   0  0  0  0  0  0  0  0  0  0  0  0
   38.6810   27.2670   42.2210 C   0  0  0  0  0  0  0  0  0  0  0  0
   37.8320   28.1280   42.9200 C   0  0  0  0  0  0  0  0  0  0  0  0
   38.4880   29.3140   43.2040 C   0  0  0  0  0  0  0  0  0  0  0  0
   39.7010   29.1500   42.6850 N   0  0  0  0  0  0  0  0  0  0  0  0
   39.8140   27.9600   42.1130 N   0  0  0  0  0  0  0  0  0  0  0  0
   36.8060   27.7780   43.1440 H   0  0  0  0  0  0  0  0  0  0  0  0
   37.8260   29.9870   43.7390 H   0  0  0  0  0  0  0  0  0  0  0  0
   36.8960   24.0540   41.4430 C   0  0  0  0  0  0  0  0  0  0  0  0
   37.0940   25.3610   41.9820 C   0  0  0  0  0  0  0  0  0  0  0  0
   38.3190   25.9330   41.7440 C   0  0  0  0  0  0  0  0  0  0  0  0
   39.2640   25.2540   41.0280 N   0  0  0  0  0  0  0  0  0  0  0  0
   39.0320   24.0140   40.5350 C   0  0  0  0  0  0  0  0  0  0  0  0
   37.8570   23.4440   40.7530 N   0  0  0  0  0  0  0  0  0  0  0  0
   35.9220   23.6020   41.6340 H   0  0  0  0  0  0  0  0  0  0  0  0
   36.3480   25.8990   42.5470 H   0  0  0  0  0  0  0  0  0  0  0  0
   39.8500   23.5700   39.9840 H   0  0  0  0  0  0  0  0  0  0  0  0
  1  7  1  0  0  0  0
  1  2  1  0  0  0  0
  2  8  1  1  0  0  0
  3  9  1  0  0  0  0
  3  2  1  0  0  0  0
  4 11  1  0  0  0  0
  4  3  1  0  0  0  0
  5  6  1  0  0  0  0
  5  4  1  0  0  0  0
  6 14  1  6  0  0  0
  6  1  1  0  0  0  0
 10  3  1  0  0  0  0
 12  5  1  0  0  0  0
 13  5  1  0  0  0  0
 15  6  1  0  0  0  0
 16 15  1  0  0  0  0
 17 16  1  0  0  0  0
 18 16  2  0  0  0  0
 18 20  1  0  0  0  0
 19 18  1  0  0  0  0
 20 22  1  0  0  0  0
 21 20  1  0  0  0  0
 22 15  2  0  0  0  0
 23 24  1  0  0  0  0
 24 28  1  0  0  0  0
 24 25  2  0  0  0  0
 25 29  1  0  0  0  0
 26  2  1  0  0  0  0
 26 25  1  0  0  0  0
 27 23  2  0  0  0  0
 27 26  1  0  0  0  0
 30 36  1  0  0  0  0
 30 31  1  0  0  0  0
 31 37  1  0  0  0  0
 32 31  2  0  0  0  0
 32 23  1  0  0  0  0
 33 32  1  0  0  0  0
 34 35  1  0  0  0  0
 34 33  2  0  0  0  0
 35 30  2  0  0  0  0
 38 34  1  0  0  0  0
M  END
>  <minimizedAffinity>
-5.3750844

$$$$

 OpenBabel03252508303D

 38 41  0  0  1  0  0  0  0  0999 V2000
   35.3550   29.9430   40.4710 N   0  0  0  0  0  0  0  0  0  0  0  0
   36.4370   30.3720   41.3620 C   0  0  2  0  0  0  0  0  0  0  0  0
   37.4390   31.2270   40.6760 C   0  0  0  0  0  0  0  0  0  0  0  0
   36.9970   31.6530   39.3590 N   0  0  0  0  0  0  0  0  0  0  0  0
   36.5190   30.6170   38.5200 C   0  0  0  0  0  0  0  0  0  0  0  0
   36.0550   29.4010   39.2860 C   0  0  2  0  0  0  0  0  0  0  0  0
   34.7390   30.7320   40.2000 H   0  0  0  0  0  0  0  0  0  0  0  0
   35.9990   30.9230   42.2240 H   0  0  0  0  0  0  0  0  0  0  0  0
   37.5880   32.1900   41.2450 H   0  0  0  0  0  0  0  0  0  0  0  0
   38.4050   30.7610   40.4200 H   0  0  0  0  0  0  0  0  0  0  0  0
   36.2120   32.3530   39.4990 H   0  0  0  0  0  0  0  0  0  0  0  0
   37.3250   30.2820   37.8200 H   0  0  0  0  0  0  0  0  0  0  0  0
   35.6990   31.0120   37.8680 H   0  0  0  0  0  0  0  0  0  0  0  0
   36.9310   28.8650   39.6520 H   0  0  0  0  0  0  0  0  0  0  0  0
   35.1760   28.5410   38.4760 C   0  0  0  0  0  0  0  0  0  0  0  0
   35.4470   27.3350   37.8960 C   0  0  0  0  0  0  0  0  0  0  0  0
   36.3810   26.7880   37.9290 H   0  0  0  0  0  0  0  0  0  0  0  0
   34.3210   26.8900   37.2310 C   0  0  0  0  0  0  0  0  0  0  0  0
   34.1740   25.9690   36.6570 H   0  0  0  0  0  0  0  0  0  0  0  0
   33.3780   27.8330   37.4180 N   0  0  0  0  0  0  0  0  0  0  0  0
   32.3810   27.8640   37.0700 H   0  0  0  0  0  0  0  0  0  0  0  0
   33.8930   28.8110   38.1590 N   0  0  0  0  0  0  0  0  0  0  0  0
   38.5990   27.7350   42.5380 C   0  0  0  0  0  0  0  0  0  0  0  0
   37.3110   27.2260   42.7190 C   0  0  0  0  0  0  0  0  0  0  0  0
   36.3710   28.1500   42.2940 C   0  0  0  0  0  0  0  0  0  0  0  0
   37.0950   29.1840   41.8740 N   0  0  0  0  0  0  0  0  0  0  0  0
   38.3910   28.9430   42.0160 N   0  0  0  0  0  0  0  0  0  0  0  0
   37.2080   26.2120   43.1520 H   0  0  0  0  0  0  0  0  0  0  0  0
   35.3710   27.7520   42.4270 H   0  0  0  0  0  0  0  0  0  0  0  0
   42.0580   26.8140   43.6800 C   0  0  0  0  0  0  0  0  0  0  0  0
   40.9280   27.6470   43.4190 C   0  0  0  0  0  0  0  0  0  0  0  0
   39.8370   27.0270   42.8620 C   0  0  0  0  0  0  0  0  0  0  0  0
   39.8740   25.6890   42.5920 N   0  0  0  0  0  0  0  0  0  0  0  0
   40.9670   24.9360   42.8570 C   0  0  0  0  0  0  0  0  0  0  0  0
   42.0320   25.5140   43.3930 N   0  0  0  0  0  0  0  0  0  0  0  0
   42.9230   27.3080   44.1220 H   0  0  0  0  0  0  0  0  0  0  0  0
   40.8970   28.7040   43.6330 H   0  0  0  0  0  0  0  0  0  0  0  0
   40.8870   23.8880   42.6020 H   0  0  0  0  0  0  0  0  0  0  0  0
  1  2  1  0  0  0  0
  2 26  1  0  0  0  0
  2  8  1  1  0  0  0
  3  9  1  0  0  0  0
  3  2  1  0  0  0  0
  4 11  1  0  0  0  0
  4  3  1  0  0  0  0
  5  6  1  0  0  0  0
  5  4  1  0  0  0  0
  6 14  1  1  0  0  0
  6  1  1  0  0  0  0
  7  1  1  0  0  0  0
 10  3  1  0  0  0  0
 12  5  1  0  0  0  0
 13  5  1  0  0  0  0
 15  6  1  0  0  0  0
 16 17  1  0  0  0  0
 16 15  1  0  0  0  0
 18 20  1  0  0  0  0
 18 16  2  0  0  0  0
 19 18  1  0  0  0  0
 20 22  1  0  0  0  0
 21 20  1  0  0  0  0
 22 15  2  0  0  0  0
 23 24  1  0  0  0  0
 23 32  1  0  0  0  0
 24 28  1  0  0  0  0
 25 29  1  0  0  0  0
 25 24  2  0  0  0  0
 26 27  1  0  0  0  0
 26 25  1  0  0  0  0
 27 23  2  0  0  0  0
 30 36  1  0  0  0  0
 31 37  1  0  0  0  0
 31 30  1  0  0  0  0
 32 31  2  0  0  0  0
 33 34  2  0  0  0  0
 33 32  1  0  0  0  0
 34 35  1  0  0  0  0
 35 30  2  0  0  0  0
 38 34  1  0  0  0  0
M  END
>  <minimizedAffinity>
-5.32400942

$$$$

 OpenBabel03252508303D

 38 41  0  0  1  0  0  0  0  0999 V2000
   35.4500   29.7210   38.9660 N   0  0  0  0  0  0  0  0  0  0  0  0
   35.5830   29.7520   40.4260 C   0  0  2  0  0  0  0  0  0  0  0  0
   36.3970   30.8980   40.9040 C   0  0  0  0  0  0  0  0  0  0  0  0
   36.6630   31.8660   39.8530 N   0  0  0  0  0  0  0  0  0  0  0  0
   37.1690   31.3220   38.6470 C   0  0  0  0  0  0  0  0  0  0  0  0
   36.8380   29.8590   38.4730 C   0  0  2  0  0  0  0  0  0  0  0  0
   34.8610   30.4990   38.6150 H   0  0  0  0  0  0  0  0  0  0  0  0
   34.5690   29.7940   40.8810 H   0  0  0  0  0  0  0  0  0  0  0  0
   35.8300   31.4830   41.6850 H   0  0  0  0  0  0  0  0  0  0  0  0
   37.4250   30.6790   41.2380 H   0  0  0  0  0  0  0  0  0  0  0  0
   35.7490   32.3580   39.6360 H   0  0  0  0  0  0  0  0  0  0  0  0
   38.2820   31.4180   38.6150 H   0  0  0  0  0  0  0  0  0  0  0  0
   36.7890   31.9200   37.7800 H   0  0  0  0  0  0  0  0  0  0  0  0
   37.4720   29.2770   39.1430 H   0  0  0  0  0  0  0  0  0  0  0  0
   36.9660   29.4270   37.0720 C   0  0  0  0  0  0  0  0  0  0  0  0
   36.1100   29.6260   36.0270 C   0  0  0  0  0  0  0  0  0  0  0  0
   35.1630   30.1500   36.0480 H   0  0  0  0  0  0  0  0  0  0  0  0
   36.6400   29.0430   34.8910 C   0  0  0  0  0  0  0  0  0  0  0  0
   36.2290   29.0070   33.8770 H   0  0  0  0  0  0  0  0  0  0  0  0
   37.8130   28.4970   35.2630 N   0  0  0  0  0  0  0  0  0  0  0  0
   38.5180   27.9630   34.6840 H   0  0  0  0  0  0  0  0  0  0  0  0
   38.0010   28.7290   36.5590 N   0  0  0  0  0  0  0  0  0  0  0  0
   36.9280   26.4430   40.9330 C   0  0  0  0  0  0  0  0  0  0  0  0
   37.3620   27.1620   42.0500 C   0  0  0  0  0  0  0  0  0  0  0  0
   36.9010   28.4660   41.9820 C   0  0  0  0  0  0  0  0  0  0  0  0
   36.2130   28.5120   40.8450 N   0  0  0  0  0  0  0  0  0  0  0  0
   36.2280   27.3360   40.2340 N   0  0  0  0  0  0  0  0  0  0  0  0
   37.9790   26.6340   42.8010 H   0  0  0  0  0  0  0  0  0  0  0  0
   37.2310   29.0230   42.8530 H   0  0  0  0  0  0  0  0  0  0  0  0
   38.4690   23.0180   40.8150 C   0  0  0  0  0  0  0  0  0  0  0  0
   38.3410   24.4020   41.1450 C   0  0  0  0  0  0  0  0  0  0  0  0
   37.2130   25.0310   40.6790 C   0  0  0  0  0  0  0  0  0  0  0  0
   36.2940   24.3350   39.9480 N   0  0  0  0  0  0  0  0  0  0  0  0
   36.4560   23.0230   39.6580 C   0  0  0  0  0  0  0  0  0  0  0  0
   37.5360   22.3960   40.0970 N   0  0  0  0  0  0  0  0  0  0  0  0
   39.3660   22.5210   41.1860 H   0  0  0  0  0  0  0  0  0  0  0  0
   39.0660   24.9520   41.7230 H   0  0  0  0  0  0  0  0  0  0  0  0
   35.6660   22.5720   39.0730 H   0  0  0  0  0  0  0  0  0  0  0  0
  1  2  1  0  0  0  0
  2 26  1  0  0  0  0
  2  8  1  1  0  0  0
  2  3  1  0  0  0  0
  3 10  1  0  0  0  0
  3  9  1  0  0  0  0
  4  3  1  0  0  0  0
  5  4  1  0  0  0  0
  6  5  1  0  0  0  0
  6  1  1  0  0  0  0
  6 14  1  1  0  0  0
  7  1  1  0  0  0  0
 11  4  1  0  0  0  0
 12  5  1  0  0  0  0
 13  5  1  0  0  0  0
 15  6  1  0  0  0  0
 16 17  1  0  0  0  0
 16 15  1  0  0  0  0
 18 20  1  0  0  0  0
 18 16  2  0  0  0  0
 19 18  1  0  0  0  0
 20 22  1  0  0  0  0
 21 20  1  0  0  0  0
 22 15  2  0  0  0  0
 23 24  1  0  0  0  0
 24 28  1  0  0  0  0
 25 24  2  0  0  0  0
 25 29  1  0  0  0  0
 26 25  1  0  0  0  0
 27 26  1  0  0  0  0
 27 23  2  0  0  0  0
 30 31  1  0  0  0  0
 30 36  1  0  0  0  0
 31 37  1  0  0  0  0
 32 23  1  0  0  0  0
 32 31  2  0  0  0  0
 33 32  1  0  0  0  0
 34 33  2  0  0  0  0
 34 35  1  0  0  0  0
 35 30  2  0  0  0  0
 38 34  1  0  0  0  0
M  END
>  <minimizedAffinity>
-5.3114934

$$$$
