
 OpenBabel03252508283D

 38 41  0  0  1  0  0  0  0  0999 V2000
   41.1920   33.2530   39.5460 N   0  0  0  0  0  0  0  0  0  0  0  0
   41.4260   32.8320   40.9310 C   0  0  2  0  0  0  0  0  0  0  0  0
   40.2610   33.0920   41.8140 C   0  0  0  0  0  0  0  0  0  0  0  0
   39.0710   33.4650   41.0680 N   0  0  0  0  0  0  0  0  0  0  0  0
   39.2560   34.4970   40.1150 C   0  0  0  0  0  0  0  0  0  0  0  0
   40.6920   34.6400   39.6690 C   0  0  2  0  0  0  0  0  0  0  0  0
   40.4900   32.6550   39.0720 H   0  0  0  0  0  0  0  0  0  0  0  0
   41.6730   31.7470   40.9420 H   0  0  0  0  0  0  0  0  0  0  0  0
   39.9640   32.1490   42.3590 H   0  0  0  0  0  0  0  0  0  0  0  0
   40.3370   33.9460   42.5070 H   0  0  0  0  0  0  0  0  0  0  0  0
   38.7330   32.5990   40.5550 H   0  0  0  0  0  0  0  0  0  0  0  0
   38.9410   35.4800   40.5440 H   0  0  0  0  0  0  0  0  0  0  0  0
   38.5840   34.3200   39.2380 H   0  0  0  0  0  0  0  0  0  0  0  0
   41.2600   35.1120   40.4720 H   0  0  0  0  0  0  0  0  0  0  0  0
   40.8050   35.3770   38.4000 C   0  0  0  0  0  0  0  0  0  0  0  0
   41.6830   36.3610   38.0500 C   0  0  0  0  0  0  0  0  0  0  0  0
   42.4710   36.7840   38.6620 H   0  0  0  0  0  0  0  0  0  0  0  0
   41.4190   36.7630   36.7540 C   0  0  0  0  0  0  0  0  0  0  0  0
   41.9210   37.5270   36.1510 H   0  0  0  0  0  0  0  0  0  0  0  0
   40.3820   36.0150   36.3340 N   0  0  0  0  0  0  0  0  0  0  0  0
   39.8850   36.0200   35.4020 H   0  0  0  0  0  0  0  0  0  0  0  0
   40.0220   35.1930   37.3160 N   0  0  0  0  0  0  0  0  0  0  0  0
   44.6080   34.1360   42.0190 C   0  0  0  0  0  0  0  0  0  0  0  0
   43.7110   35.1790   42.2620 C   0  0  0  0  0  0  0  0  0  0  0  0
   42.4320   34.8010   41.8900 C   0  0  0  0  0  0  0  0  0  0  0  0
   42.5770   33.5610   41.4330 N   0  0  0  0  0  0  0  0  0  0  0  0
   43.8420   33.1720   41.5090 N   0  0  0  0  0  0  0  0  0  0  0  0
   44.1100   36.1170   42.6950 H   0  0  0  0  0  0  0  0  0  0  0  0
   41.7340   35.6080   42.0850 H   0  0  0  0  0  0  0  0  0  0  0  0
   48.2780   34.9430   42.0620 C   0  0  0  0  0  0  0  0  0  0  0  0
   46.9090   35.0240   41.6630 C   0  0  0  0  0  0  0  0  0  0  0  0
   46.0420   34.1750   42.3060 C   0  0  0  0  0  0  0  0  0  0  0  0
   46.5060   33.3200   43.2640 N   0  0  0  0  0  0  0  0  0  0  0  0
   47.8140   33.2770   43.6110 C   0  0  0  0  0  0  0  0  0  0  0  0
   48.6670   34.0870   43.0040 N   0  0  0  0  0  0  0  0  0  0  0  0
   48.9640   35.6180   41.5500 H   0  0  0  0  0  0  0  0  0  0  0  0
   46.5410   35.7000   40.9070 H   0  0  0  0  0  0  0  0  0  0  0  0
   48.0700   32.5630   44.3810 H   0  0  0  0  0  0  0  0  0  0  0  0
  1  6  1  0  0  0  0
  1  2  1  0  0  0  0
  2  8  1  1  0  0  0
  2 26  1  0  0  0  0
  2  3  1  0  0  0  0
  3  9  1  0  0  0  0
  3 10  1  0  0  0  0
  4  3  1  0  0  0  0
  5 12  1  0  0  0  0
  5  4  1  0  0  0  0
  6  5  1  0  0  0  0
  6 14  1  1  0  0  0
  7  1  1  0  0  0  0
 11  4  1  0  0  0  0
 13  5  1  0  0  0  0
 15  6  1  0  0  0  0
 16 15  1  0  0  0  0
 16 17  1  0  0  0  0
 18 16  2  0  0  0  0
 19 18  1  0  0  0  0
 20 18  1  0  0  0  0
 20 22  1  0  0  0  0
 21 20  1  0  0  0  0
 22 15  2  0  0  0  0
 23 24  1  0  0  0  0
 23 32  1  0  0  0  0
 24 28  1  0  0  0  0
 25 29  1  0  0  0  0
 25 24  2  0  0  0  0
 26 27  1  0  0  0  0
 26 25  1  0  0  0  0
 27 23  2  0  0  0  0
 30 35  1  0  0  0  0
 31 30  2  0  0  0  0
 31 32  1  0  0  0  0
 32 33  2  0  0  0  0
 33 34  1  0  0  0  0
 34 38  1  0  0  0  0
 35 34  2  0  0  0  0
 36 30  1  0  0  0  0
 37 31  1  0  0  0  0
M  END
>  <minimizedAffinity>
-4.78652

>  <minimizedRMSD>
1.90998936

$$$$
