
     RDKit          3D

 42 45  0  0  0  0  0  0  0  0999 V2000
   46.4321   32.9699   46.4638 C   0  0  2  0  0  0  0  0  0  0  0  0
   46.9748   31.7439   45.7844 C   0  0  0  0  0  0  0  0  0  0  0  0
   46.1152   30.5477   45.8062 C   0  0  0  0  0  0  0  0  0  0  0  0
   45.8201   30.2912   47.2842 C   0  0  0  0  0  0  0  0  0  0  0  0
   45.0226   31.3528   47.8879 C   0  0  0  0  0  0  0  0  0  0  0  0
   45.3805   32.7278   47.4261 C   0  0  0  0  0  0  0  0  0  0  0  0
   44.5732   35.5719   44.6179 C   0  0  0  0  0  0  0  0  0  0  0  0
   45.2302   35.5795   43.3589 C   0  0  0  0  0  0  0  0  0  0  0  0
   46.3153   34.6663   43.1838 C   0  0  0  0  0  0  0  0  0  0  0  0
   46.6632   33.8492   44.2066 N   0  0  0  0  0  0  0  0  0  0  0  0
   46.0055   33.8846   45.3784 C   0  0  0  0  0  0  0  0  0  0  0  0
   44.9662   34.7358   45.5939 N   0  0  0  0  0  0  0  0  0  0  0  0
   47.0048   34.6505   41.9017 C   0  0  0  0  0  0  0  0  0  0  0  0
   48.1390   35.3858   41.7676 C   0  0  0  0  0  0  0  0  0  0  0  0
   48.7627   35.3351   40.5118 C   0  0  0  0  0  0  0  0  0  0  0  0
   48.1713   34.5528   39.5456 C   0  0  0  0  0  0  0  0  0  0  0  0
   47.0348   33.8178   39.6846 C   0  0  0  0  0  0  0  0  0  0  0  0
   46.4617   33.8979   40.9258 N   0  0  0  0  0  0  0  0  0  0  0  0
   44.6767   33.8696   47.9328 N   0  0  0  0  0  0  0  0  0  0  0  0
   47.2762   33.4977   46.9749 H   0  0  0  0  0  0  0  0  0  0  0  0
   47.2527   31.9383   44.7160 H   0  0  0  0  0  0  0  0  0  0  0  0
   47.9374   31.4727   46.2660 H   0  0  0  0  0  0  0  0  0  0  0  0
   45.2223   30.5577   45.1802 H   0  0  0  0  0  0  0  0  0  0  0  0
   46.7291   29.6798   45.4904 H   0  0  0  0  0  0  0  0  0  0  0  0
   46.7770   30.1481   47.7957 H   0  0  0  0  0  0  0  0  0  0  0  0
   45.2073   29.3858   47.2965 H   0  0  0  0  0  0  0  0  0  0  0  0
   44.2331   31.3413   48.5930 H   0  0  0  0  0  0  0  0  0  0  0  0
   43.7573   36.2646   44.7371 H   0  0  0  0  0  0  0  0  0  0  0  0
   44.9185   36.2518   42.5661 H   0  0  0  0  0  0  0  0  0  0  0  0
   48.5872   35.9890   42.5266 H   0  0  0  0  0  0  0  0  0  0  0  0
   49.6670   35.8925   40.3299 H   0  0  0  0  0  0  0  0  0  0  0  0
   48.6886   34.5465   38.5968 H   0  0  0  0  0  0  0  0  0  0  0  0
   45.0231   34.5365   48.6269 H   0  0  0  0  0  0  0  0  0  0  0  0
   43.7042   34.0306   47.5452 H   0  0  0  0  0  0  0  0  0  0  0  0
   46.4516   33.0149   38.6503 C   0  0  0  0  0  0  0  0  0  0  0  0
   45.4963   32.0470   38.7898 C   0  0  0  0  0  0  0  0  0  0  0  0
   45.0397   31.7506   39.7348 H   0  0  0  0  0  0  0  0  0  0  0  0
   45.2613   31.5585   37.5008 C   0  0  0  0  0  0  0  0  0  0  0  0
   44.5280   30.7710   37.3725 H   0  0  0  0  0  0  0  0  0  0  0  0
   46.0623   32.2305   36.6465 N   0  0  0  0  0  0  0  0  0  0  0  0
   45.9680   31.9433   35.6471 H   0  0  0  0  0  0  0  0  0  0  0  0
   46.7664   33.0965   37.3499 N   0  0  0  0  0  0  0  0  0  0  0  0
  1  6  1  0
  2  3  1  0
  2  1  1  0
  3  4  1  0
  4  5  1  0
  6  5  2  0
  6 19  1  0
  7 12  2  0
  8  7  1  0
  9  8  2  0
  9 10  1  0
 10 11  2  0
 11 12  1  0
 11  1  1  0
 13  9  1  0
 14 13  2  0
 15 14  1  0
 16 17  1  0
 16 15  2  0
 17 18  2  0
 18 13  1  0
  1 20  1  1
  2 21  1  0
  2 22  1  0
  3 23  1  0
  3 24  1  0
  4 25  1  0
  4 26  1  0
  5 27  1  0
  7 28  1  0
  8 29  1  0
 14 30  1  0
 15 31  1  0
 16 32  1  0
 19 33  1  0
 19 34  1  0
 35 36  1  0
 36 37  1  0
 36 38  2  0
 38 39  1  0
 38 40  1  0
 40 41  1  0
 40 42  1  0
 42 35  2  0
 17 35  1  0
M  ISO  8  20  13  21  13  22  13  23  13  24  13  25  13  26  13  27  13
M  ISO  8  28  14  29  14  30  14  31  14  32  14  37  15  39  16  41   5
M  END
>  <DihAtoms>  (1) 
15,16,34,35

>  <DihDeg>  (1) 
-179.99855366248167

$$$$
