
 OpenBabel03242519093D

 46 49  0  0  1  0  0  0  0  0999 V2000
   48.5310   33.4200   39.2240 N   0  0  0  0  0  0  0  0  0  0  0  0
   49.4980   33.8050   39.0230 H   0  0  0  0  0  0  0  0  0  0  0  0
   47.4490   34.4940   42.4400 N   0  0  0  0  0  0  0  0  0  0  0  0
   47.4220   34.6980   40.9900 C   0  0  0  0  0  0  0  0  0  0  0  0
   48.0700   33.4020   40.5770 C   0  0  2  0  0  0  0  0  0  0  0  0
   49.2780   33.3640   41.4770 C   0  0  0  0  0  0  0  0  0  0  0  0
   48.7610   33.9720   42.7520 C   0  0  0  0  0  0  0  0  0  0  0  0
   48.0460   35.5390   40.6870 H   0  0  0  0  0  0  0  0  0  0  0  0
   46.3640   34.7640   40.7030 H   0  0  0  0  0  0  0  0  0  0  0  0
   47.4540   32.5340   40.8180 H   0  0  0  0  0  0  0  0  0  0  0  0
   50.0020   34.1060   41.0360 H   0  0  0  0  0  0  0  0  0  0  0  0
   49.7120   32.3710   41.5890 H   0  0  0  0  0  0  0  0  0  0  0  0
   49.3680   34.8390   43.0870 H   0  0  0  0  0  0  0  0  0  0  0  0
   48.6960   33.2150   43.5600 H   0  0  0  0  0  0  0  0  0  0  0  0
   44.5860   35.8640   44.3760 C   0  0  0  0  0  0  0  0  0  0  0  0
   45.5050   35.7400   43.3400 C   0  0  0  0  0  0  0  0  0  0  0  0
   46.4700   34.7210   43.4190 C   0  0  0  0  0  0  0  0  0  0  0  0
   46.4450   33.9100   44.5160 N   0  0  0  0  0  0  0  0  0  0  0  0
   45.5540   34.0410   45.5080 C   0  0  0  0  0  0  0  0  0  0  0  0
   44.6240   35.0190   45.4340 N   0  0  0  0  0  0  0  0  0  0  0  0
   43.8770   36.6740   44.2360 H   0  0  0  0  0  0  0  0  0  0  0  0
   45.5270   36.3710   42.4810 H   0  0  0  0  0  0  0  0  0  0  0  0
   45.5660   33.3810   46.3580 H   0  0  0  0  0  0  0  0  0  0  0  0
   48.6120   32.2960   37.0000 C   0  0  0  0  0  0  0  0  0  0  0  0
   47.9390   33.0090   38.0120 C   0  0  0  0  0  0  0  0  0  0  0  0
   46.6370   33.2690   37.7070 C   0  0  0  0  0  0  0  0  0  0  0  0
   45.9710   32.9120   36.5590 C   0  0  0  0  0  0  0  0  0  0  0  0
   46.6760   32.2150   35.5990 C   0  0  0  0  0  0  0  0  0  0  0  0
   47.9930   31.9200   35.8420 C   0  0  0  0  0  0  0  0  0  0  0  0
   46.0060   33.8180   38.4150 H   0  0  0  0  0  0  0  0  0  0  0  0
   44.9330   33.1470   36.3710 H   0  0  0  0  0  0  0  0  0  0  0  0
   46.2140   31.9040   34.6730 H   0  0  0  0  0  0  0  0  0  0  0  0
   49.1430   31.8960   33.6820 C   0  0  0  0  0  0  0  0  0  0  0  0
   48.9830   33.1680   33.5850 O   0  0  0  0  0  0  0  0  0  0  0  0
   48.7070   31.1940   34.8290 N   0  0  0  0  0  0  0  0  0  0  0  0
   48.8700   30.1710   34.9930 H   0  0  0  0  0  0  0  0  0  0  0  0
   49.7720   31.0300   32.6640 C   0  0  0  0  0  0  0  0  0  0  0  0
   49.3360   30.0620   31.7990 C   0  0  0  0  0  0  0  0  0  0  0  0
   48.2710   29.8470   31.8410 H   0  0  0  0  0  0  0  0  0  0  0  0
   50.4250   29.6100   31.0850 C   0  0  0  0  0  0  0  0  0  0  0  0
   50.2440   28.8390   30.3570 H   0  0  0  0  0  0  0  0  0  0  0  0
   51.5090   30.3010   31.5170 N   0  0  0  0  0  0  0  0  0  0  0  0
   52.4470   30.1160   31.1050 H   0  0  0  0  0  0  0  0  0  0  0  0
   51.1160   31.1450   32.4560 N   0  0  0  0  0  0  0  0  0  0  0  0
   51.1260   31.7310   37.4320 N   0  0  0  0  0  0  0  0  0  0  0  0
   50.0120   31.9760   37.2470 C   0  0  0  0  0  0  0  0  0  0  0  0
  1  5  1  0  0  0  0
  2  1  1  0  0  0  0
  3  7  1  0  0  0  0
  3 17  1  0  0  0  0
  4  3  1  0  0  0  0
  5 10  1  1  0  0  0
  5  4  1  0  0  0  0
  5  6  1  0  0  0  0
  6 12  1  0  0  0  0
  6  7  1  0  0  0  0
  7 13  1  0  0  0  0
  7 14  1  0  0  0  0
  8  4  1  0  0  0  0
  9  4  1  0  0  0  0
 11  6  1  0  0  0  0
 15 20  1  0  0  0  0
 16 17  1  0  0  0  0
 16 15  2  0  0  0  0
 17 18  2  0  0  0  0
 18 19  1  0  0  0  0
 19 23  1  0  0  0  0
 20 19  2  0  0  0  0
 21 15  1  0  0  0  0
 22 16  1  0  0  0  0
 24 46  1  0  0  0  0
 24 25  1  0  0  0  0
 25  1  1  0  0  0  0
 26 25  2  0  0  0  0
 26 30  1  0  0  0  0
 27 26  1  0  0  0  0
 28 29  1  0  0  0  0
 28 27  2  0  0  0  0
 29 24  2  0  0  0  0
 31 27  1  0  0  0  0
 32 28  1  0  0  0  0
 33 35  1  0  0  0  0
 34 33  2  0  0  0  0
 35 36  1  0  0  0  0
 35 29  1  0  0  0  0
 37 33  1  0  0  0  0
 38 39  1  0  0  0  0
 38 37  1  0  0  0  0
 40 42  1  0  0  0  0
 40 38  2  0  0  0  0
 41 40  1  0  0  0  0
 42 44  1  0  0  0  0
 43 42  1  0  0  0  0
 44 37  2  0  0  0  0
 46 45  3  0  0  0  0
M  END
>  <minimizedAffinity>
-5.72350883

>  <minimizedRMSD>
0.285153627

$$$$
