
 OpenBabel03252505063D

 42 45  0  0  1  0  0  0  0  0999 V2000
   44.5690   35.5740   44.6130 C   0  0  0  0  0  0  0  0  0  0  0  0
   45.2400   35.6010   43.3620 C   0  0  0  0  0  0  0  0  0  0  0  0
   46.3350   34.6980   43.1900 C   0  0  0  0  0  0  0  0  0  0  0  0
   46.6790   33.8740   44.2080 N   0  0  0  0  0  0  0  0  0  0  0  0
   46.0070   33.8910   45.3710 C   0  0  0  0  0  0  0  0  0  0  0  0
   44.9580   34.7310   45.5850 N   0  0  0  0  0  0  0  0  0  0  0  0
   43.7450   36.2580   44.7300 H   0  0  0  0  0  0  0  0  0  0  0  0
   44.9320   36.2790   42.5720 H   0  0  0  0  0  0  0  0  0  0  0  0
   46.4300   32.9680   46.4520 C   0  0  2  0  0  0  0  0  0  0  0  0
   46.9630   31.7420   45.7660 C   0  0  0  0  0  0  0  0  0  0  0  0
   46.0950   30.5520   45.7840 C   0  0  0  0  0  0  0  0  0  0  0  0
   45.8010   30.2900   47.2620 C   0  0  0  0  0  0  0  0  0  0  0  0
   45.0130   31.3550   47.8720 C   0  0  0  0  0  0  0  0  0  0  0  0
   45.3780   32.7290   47.4160 C   0  0  0  0  0  0  0  0  0  0  0  0
   47.2790   33.4880   46.9640 H   0  0  0  0  0  0  0  0  0  0  0  0
   47.2400   31.9390   44.6980 H   0  0  0  0  0  0  0  0  0  0  0  0
   47.9240   31.4620   46.2450 H   0  0  0  0  0  0  0  0  0  0  0  0
   45.2010   30.5710   45.1600 H   0  0  0  0  0  0  0  0  0  0  0  0
   46.7020   29.6810   45.4630 H   0  0  0  0  0  0  0  0  0  0  0  0
   46.7580   30.1380   47.7710 H   0  0  0  0  0  0  0  0  0  0  0  0
   45.1820   29.3890   47.2720 H   0  0  0  0  0  0  0  0  0  0  0  0
   44.2240   31.3450   48.5790 H   0  0  0  0  0  0  0  0  0  0  0  0
   44.6840   33.8740   47.9290 N   0  0  0  0  0  0  0  0  0  0  0  0
   45.0360   34.5340   48.6250 H   0  0  0  0  0  0  0  0  0  0  0  0
   43.7120   34.0430   47.5440 H   0  0  0  0  0  0  0  0  0  0  0  0
   47.0400   34.7030   41.9150 C   0  0  0  0  0  0  0  0  0  0  0  0
   48.1900   35.4180   41.8140 C   0  0  0  0  0  0  0  0  0  0  0  0
   48.8270   35.3870   40.5640 C   0  0  0  0  0  0  0  0  0  0  0  0
   48.2310   34.6440   39.5710 C   0  0  0  0  0  0  0  0  0  0  0  0
   47.0780   33.9290   39.6770 C   0  0  0  0  0  0  0  0  0  0  0  0
   46.4930   33.9880   40.9130 N   0  0  0  0  0  0  0  0  0  0  0  0
   48.6410   35.9910   42.5940 H   0  0  0  0  0  0  0  0  0  0  0  0
   49.7450   35.9300   40.4070 H   0  0  0  0  0  0  0  0  0  0  0  0
   48.7600   34.6520   38.6280 H   0  0  0  0  0  0  0  0  0  0  0  0
   46.4910   33.1660   38.6150 C   0  0  0  0  0  0  0  0  0  0  0  0
   46.6850   33.3270   37.2720 C   0  0  0  0  0  0  0  0  0  0  0  0
   47.3310   34.0800   36.8190 H   0  0  0  0  0  0  0  0  0  0  0  0
   45.8990   32.3490   36.6560 C   0  0  0  0  0  0  0  0  0  0  0  0
   45.8990   32.2910   35.5730 H   0  0  0  0  0  0  0  0  0  0  0  0
   45.2710   31.6470   37.6230 N   0  0  0  0  0  0  0  0  0  0  0  0
   44.6510   30.8830   37.2720 H   0  0  0  0  0  0  0  0  0  0  0  0
   45.6370   32.1480   38.7870 N   0  0  0  0  0  0  0  0  0  0  0  0
  1  7  1  0  0  0  0
  1  6  1  0  0  0  0
  2  1  2  0  0  0  0
  3  2  1  0  0  0  0
  3  4  2  0  0  0  0
  4  5  1  0  0  0  0
  5  6  2  0  0  0  0
  5  9  1  0  0  0  0
  8  2  1  0  0  0  0
  9 15  1  1  0  0  0
  9 14  1  0  0  0  0
 10 11  1  0  0  0  0
 10 17  1  0  0  0  0
 10  9  1  0  0  0  0
 11 12  1  0  0  0  0
 12 21  1  0  0  0  0
 12 20  1  0  0  0  0
 12 13  1  0  0  0  0
 13 22  1  0  0  0  0
 14 13  2  0  0  0  0
 14 23  1  0  0  0  0
 16 10  1  0  0  0  0
 18 11  1  0  0  0  0
 19 11  1  0  0  0  0
 23 24  1  0  0  0  0
 25 23  1  0  0  0  0
 26  3  1  0  0  0  0
 27 26  1  0  0  0  0
 27 32  1  0  0  0  0
 28 27  2  0  0  0  0
 29 30  2  0  0  0  0
 29 28  1  0  0  0  0
 30 31  1  0  0  0  0
 31 26  2  0  0  0  0
 33 28  1  0  0  0  0
 34 29  1  0  0  0  0
 35 42  2  0  0  0  0
 35 30  1  0  0  0  0
 36 35  1  0  0  0  0
 37 36  1  0  0  0  0
 38 36  2  0  0  0  0
 38 40  1  0  0  0  0
 39 38  1  0  0  0  0
 40 42  1  0  0  0  0
 41 40  1  0  0  0  0
M  END
>  <minimizedAffinity>
-7.22069979

>  <minimizedRMSD>
0.11142613

$$$$
