
 OpenBabel03252503363D

 21 22  0  0  0  0  0  0  0  0999 V2000
   38.2550   30.6570   40.8590 C   0  0  0  0  0  0  0  0  0  0  0  0
   39.2630   30.0130   40.4640 O   0  0  0  0  0  0  0  0  0  0  0  0
   37.4000   29.9590   41.7500 N   0  0  0  0  0  0  0  0  0  0  0  0
   36.5520   30.4560   42.1190 H   0  0  0  0  0  0  0  0  0  0  0  0
   38.7210   26.9730   43.5520 C   0  0  0  0  0  0  0  0  0  0  0  0
   38.4960   28.3190   43.2350 C   0  0  0  0  0  0  0  0  0  0  0  0
   37.6800   28.6180   42.1410 C   0  0  0  0  0  0  0  0  0  0  0  0
   37.1380   27.5930   41.4260 N   0  0  0  0  0  0  0  0  0  0  0  0
   37.3820   26.2960   41.7660 C   0  0  0  0  0  0  0  0  0  0  0  0
   38.1630   25.9990   42.8150 N   0  0  0  0  0  0  0  0  0  0  0  0
   39.3600   26.8310   44.4090 H   0  0  0  0  0  0  0  0  0  0  0  0
   38.9310   29.1300   43.8100 H   0  0  0  0  0  0  0  0  0  0  0  0
   36.9180   25.5350   41.1530 H   0  0  0  0  0  0  0  0  0  0  0  0
   38.0100   32.0220   40.4090 C   0  0  0  0  0  0  0  0  0  0  0  0
   38.8210   33.0870   40.7210 C   0  0  0  0  0  0  0  0  0  0  0  0
   39.7160   33.1680   41.2960 H   0  0  0  0  0  0  0  0  0  0  0  0
   38.1900   34.1560   40.0800 C   0  0  0  0  0  0  0  0  0  0  0  0
   38.5180   35.1850   40.0800 H   0  0  0  0  0  0  0  0  0  0  0  0
   37.0670   33.7350   39.4260 N   0  0  0  0  0  0  0  0  0  0  0  0
   36.4320   34.3570   38.8760 H   0  0  0  0  0  0  0  0  0  0  0  0
   36.9780   32.4180   39.6450 N   0  0  0  0  0  0  0  0  0  0  0  0
  1  3  1  0  0  0  0
  2  1  2  0  0  0  0
  3  4  1  0  0  0  0
  3  7  1  0  0  0  0
  5 11  1  0  0  0  0
  6  5  1  0  0  0  0
  6 12  1  0  0  0  0
  7  6  2  0  0  0  0
  8  9  2  0  0  0  0
  8  7  1  0  0  0  0
  9 10  1  0  0  0  0
 10  5  2  0  0  0  0
 13  9  1  0  0  0  0
 14 15  1  0  0  0  0
 14  1  1  0  0  0  0
 15 16  1  0  0  0  0
 17 15  2  0  0  0  0
 18 17  1  0  0  0  0
 19 21  1  0  0  0  0
 19 17  1  0  0  0  0
 20 19  1  0  0  0  0
 21 14  2  0  0  0  0
M  END
>  <minimizedAffinity>
-4.21293974

$$$$

 OpenBabel03252503363D

 21 22  0  0  0  0  0  0  0  0999 V2000
   36.4030   29.0650   40.3150 C   0  0  0  0  0  0  0  0  0  0  0  0
   35.2480   28.6620   40.6150 O   0  0  0  0  0  0  0  0  0  0  0  0
   37.4060   28.0610   40.2770 N   0  0  0  0  0  0  0  0  0  0  0  0
   38.3830   28.3440   40.0190 H   0  0  0  0  0  0  0  0  0  0  0  0
   36.9230   24.8320   42.0780 C   0  0  0  0  0  0  0  0  0  0  0  0
   37.2470   26.1770   41.8650 C   0  0  0  0  0  0  0  0  0  0  0  0
   37.0990   26.7040   40.5790 C   0  0  0  0  0  0  0  0  0  0  0  0
   36.6480   25.8890   39.5840 N   0  0  0  0  0  0  0  0  0  0  0  0
   36.3440   24.5840   39.8320 C   0  0  0  0  0  0  0  0  0  0  0  0
   36.4820   24.0710   41.0620 N   0  0  0  0  0  0  0  0  0  0  0  0
   37.0650   24.5070   43.0960 H   0  0  0  0  0  0  0  0  0  0  0  0
   37.6050   26.8200   42.6630 H   0  0  0  0  0  0  0  0  0  0  0  0
   35.9900   23.9980   38.9930 H   0  0  0  0  0  0  0  0  0  0  0  0
   36.6600   30.4720   40.0330 C   0  0  0  0  0  0  0  0  0  0  0  0
   36.9780   30.9570   38.7870 C   0  0  0  0  0  0  0  0  0  0  0  0
   37.0990   30.4850   37.8380 H   0  0  0  0  0  0  0  0  0  0  0  0
   37.1280   32.3270   39.0170 C   0  0  0  0  0  0  0  0  0  0  0  0
   37.3810   33.0750   38.2790 H   0  0  0  0  0  0  0  0  0  0  0  0
   36.9090   32.6260   40.3310 N   0  0  0  0  0  0  0  0  0  0  0  0
   36.9650   33.5860   40.7390 H   0  0  0  0  0  0  0  0  0  0  0  0
   36.6220   31.4670   40.9360 N   0  0  0  0  0  0  0  0  0  0  0  0
  1  2  2  0  0  0  0
  3  1  1  0  0  0  0
  3  7  1  0  0  0  0
  4  3  1  0  0  0  0
  5 11  1  0  0  0  0
  6  5  1  0  0  0  0
  6 12  1  0  0  0  0
  7  6  2  0  0  0  0
  8  9  2  0  0  0  0
  8  7  1  0  0  0  0
  9 10  1  0  0  0  0
 10  5  2  0  0  0  0
 13  9  1  0  0  0  0
 14  1  1  0  0  0  0
 14 21  2  0  0  0  0
 15 17  2  0  0  0  0
 15 14  1  0  0  0  0
 16 15  1  0  0  0  0
 17 19  1  0  0  0  0
 18 17  1  0  0  0  0
 19 20  1  0  0  0  0
 19 21  1  0  0  0  0
M  END
>  <minimizedAffinity>
-4.17244959

$$$$

 OpenBabel03252503363D

 21 22  0  0  0  0  0  0  0  0999 V2000
   37.8050   29.3220   41.6820 C   0  0  0  0  0  0  0  0  0  0  0  0
   37.6390   29.0680   42.9050 O   0  0  0  0  0  0  0  0  0  0  0  0
   38.1060   28.2020   40.8640 N   0  0  0  0  0  0  0  0  0  0  0  0
   38.2400   28.3590   39.8350 H   0  0  0  0  0  0  0  0  0  0  0  0
   37.3390   24.7510   42.0530 C   0  0  0  0  0  0  0  0  0  0  0  0
   37.1380   26.0180   41.4920 C   0  0  0  0  0  0  0  0  0  0  0  0
   38.2240   26.8960   41.4200 C   0  0  0  0  0  0  0  0  0  0  0  0
   39.4320   26.4850   41.8980 N   0  0  0  0  0  0  0  0  0  0  0  0
   39.5860   25.2440   42.4380 C   0  0  0  0  0  0  0  0  0  0  0  0
   38.5510   24.3950   42.5110 N   0  0  0  0  0  0  0  0  0  0  0  0
   36.4520   24.1390   42.0700 H   0  0  0  0  0  0  0  0  0  0  0  0
   36.1730   26.3370   41.1130 H   0  0  0  0  0  0  0  0  0  0  0  0
   40.5750   24.9870   42.7970 H   0  0  0  0  0  0  0  0  0  0  0  0
   37.6900   30.6840   41.1740 C   0  0  0  0  0  0  0  0  0  0  0  0
   38.7630   31.5160   40.9700 C   0  0  0  0  0  0  0  0  0  0  0  0
   39.8130   31.3900   41.1140 H   0  0  0  0  0  0  0  0  0  0  0  0
   38.1640   32.6830   40.4880 C   0  0  0  0  0  0  0  0  0  0  0  0
   38.6730   33.5920   40.2030 H   0  0  0  0  0  0  0  0  0  0  0  0
   36.8080   32.5370   40.4140 N   0  0  0  0  0  0  0  0  0  0  0  0
   36.1490   33.2760   40.0830 H   0  0  0  0  0  0  0  0  0  0  0  0
   36.5410   31.2970   40.8420 N   0  0  0  0  0  0  0  0  0  0  0  0
  1  2  2  0  0  0  0
  3  7  1  0  0  0  0
  3  1  1  0  0  0  0
  4  3  1  0  0  0  0
  5 11  1  0  0  0  0
  5 10  1  0  0  0  0
  6  5  2  0  0  0  0
  7  6  1  0  0  0  0
  7  8  2  0  0  0  0
  8  9  1  0  0  0  0
  9 10  2  0  0  0  0
  9 13  1  0  0  0  0
 12  6  1  0  0  0  0
 14  1  1  0  0  0  0
 15 16  1  0  0  0  0
 15 14  1  0  0  0  0
 17 15  2  0  0  0  0
 18 17  1  0  0  0  0
 19 17  1  0  0  0  0
 19 21  1  0  0  0  0
 20 19  1  0  0  0  0
 21 14  2  0  0  0  0
M  END
>  <minimizedAffinity>
-4.14118958

$$$$

 OpenBabel03252503363D

 21 22  0  0  0  0  0  0  0  0999 V2000
   38.0830   29.6660   41.7900 C   0  0  0  0  0  0  0  0  0  0  0  0
   37.3260   29.2560   42.7090 O   0  0  0  0  0  0  0  0  0  0  0  0
   39.0970   28.7590   41.3880 N   0  0  0  0  0  0  0  0  0  0  0  0
   39.7470   29.0480   40.6160 H   0  0  0  0  0  0  0  0  0  0  0  0
   40.1310   26.0030   43.6770 C   0  0  0  0  0  0  0  0  0  0  0  0
   40.0530   27.2870   43.1250 C   0  0  0  0  0  0  0  0  0  0  0  0
   39.2330   27.4850   42.0100 C   0  0  0  0  0  0  0  0  0  0  0  0
   38.5440   26.4240   41.5060 N   0  0  0  0  0  0  0  0  0  0  0  0
   38.6470   25.1890   42.0720 C   0  0  0  0  0  0  0  0  0  0  0  0
   39.4310   24.9890   43.1410 N   0  0  0  0  0  0  0  0  0  0  0  0
   40.7840   25.9370   44.5320 H   0  0  0  0  0  0  0  0  0  0  0  0
   40.6050   28.1270   43.5330 H   0  0  0  0  0  0  0  0  0  0  0  0
   38.0700   24.3930   41.6180 H   0  0  0  0  0  0  0  0  0  0  0  0
   37.9060   30.9900   41.2030 C   0  0  0  0  0  0  0  0  0  0  0  0
   38.9280   31.8920   41.0300 C   0  0  0  0  0  0  0  0  0  0  0  0
   39.9710   31.8530   41.2530 H   0  0  0  0  0  0  0  0  0  0  0  0
   38.2820   32.9840   40.4470 C   0  0  0  0  0  0  0  0  0  0  0  0
   38.7410   33.9150   40.1490 H   0  0  0  0  0  0  0  0  0  0  0  0
   36.9490   32.7310   40.2870 N   0  0  0  0  0  0  0  0  0  0  0  0
   36.2630   33.4010   39.8720 H   0  0  0  0  0  0  0  0  0  0  0  0
   36.7430   31.4960   40.7610 N   0  0  0  0  0  0  0  0  0  0  0  0
  1  2  2  0  0  0  0
  3  1  1  0  0  0  0
  3  7  1  0  0  0  0
  4  3  1  0  0  0  0
  5 11  1  0  0  0  0
  6 12  1  0  0  0  0
  6  5  2  0  0  0  0
  7  6  1  0  0  0  0
  8  7  2  0  0  0  0
  8  9  1  0  0  0  0
  9 10  2  0  0  0  0
 10  5  1  0  0  0  0
 13  9  1  0  0  0  0
 14  1  1  0  0  0  0
 15 14  1  0  0  0  0
 15 16  1  0  0  0  0
 17 15  2  0  0  0  0
 18 17  1  0  0  0  0
 19 17  1  0  0  0  0
 19 21  1  0  0  0  0
 20 19  1  0  0  0  0
 21 14  2  0  0  0  0
M  END
>  <minimizedAffinity>
-4.12369156

$$$$

 OpenBabel03252503363D

 21 22  0  0  0  0  0  0  0  0999 V2000
   39.1690   30.7650   40.0130 C   0  0  0  0  0  0  0  0  0  0  0  0
   38.8890   31.3810   41.0760 O   0  0  0  0  0  0  0  0  0  0  0  0
   38.9270   29.3670   40.0400 N   0  0  0  0  0  0  0  0  0  0  0  0
   39.1320   28.8100   39.1740 H   0  0  0  0  0  0  0  0  0  0  0  0
   36.6360   27.8700   42.5730 C   0  0  0  0  0  0  0  0  0  0  0  0
   37.0530   28.5020   41.3950 C   0  0  0  0  0  0  0  0  0  0  0  0
   38.4190   28.7300   41.2080 C   0  0  0  0  0  0  0  0  0  0  0  0
   39.2900   28.3300   42.1760 N   0  0  0  0  0  0  0  0  0  0  0  0
   38.8440   27.7180   43.3090 C   0  0  0  0  0  0  0  0  0  0  0  0
   37.5360   27.4950   43.4970 N   0  0  0  0  0  0  0  0  0  0  0  0
   35.5690   27.7330   42.6370 H   0  0  0  0  0  0  0  0  0  0  0  0
   36.3530   28.8180   40.6280 H   0  0  0  0  0  0  0  0  0  0  0  0
   39.5940   27.4270   44.0340 H   0  0  0  0  0  0  0  0  0  0  0  0
   39.7040   31.4690   38.8540 C   0  0  0  0  0  0  0  0  0  0  0  0
   40.9280   32.0950   38.8380 C   0  0  0  0  0  0  0  0  0  0  0  0
   41.6910   32.2060   39.5740 H   0  0  0  0  0  0  0  0  0  0  0  0
   40.9940   32.6120   37.5420 C   0  0  0  0  0  0  0  0  0  0  0  0
   41.8100   33.1810   37.1220 H   0  0  0  0  0  0  0  0  0  0  0  0
   39.8660   32.3030   36.8370 N   0  0  0  0  0  0  0  0  0  0  0  0
   39.6890   32.5830   35.8460 H   0  0  0  0  0  0  0  0  0  0  0  0
   39.0870   31.5990   37.6670 N   0  0  0  0  0  0  0  0  0  0  0  0
  1  3  1  0  0  0  0
  1  2  2  0  0  0  0
  3  7  1  0  0  0  0
  4  3  1  0  0  0  0
  5 11  1  0  0  0  0
  5 10  1  0  0  0  0
  6  5  2  0  0  0  0
  7  6  1  0  0  0  0
  7  8  2  0  0  0  0
  8  9  1  0  0  0  0
  9 10  2  0  0  0  0
  9 13  1  0  0  0  0
 12  6  1  0  0  0  0
 14  1  1  0  0  0  0
 15 14  1  0  0  0  0
 15 16  1  0  0  0  0
 17 15  2  0  0  0  0
 18 17  1  0  0  0  0
 19 17  1  0  0  0  0
 19 21  1  0  0  0  0
 20 19  1  0  0  0  0
 21 14  2  0  0  0  0
M  END
>  <minimizedAffinity>
-3.91304374

$$$$

 OpenBabel03252503363D

 21 22  0  0  0  0  0  0  0  0999 V2000
   40.6660   31.8490   39.3210 C   0  0  0  0  0  0  0  0  0  0  0  0
   40.6530   30.6120   39.0850 O   0  0  0  0  0  0  0  0  0  0  0  0
   39.8070   32.2770   40.3670 N   0  0  0  0  0  0  0  0  0  0  0  0
   39.7910   33.2970   40.6120 H   0  0  0  0  0  0  0  0  0  0  0  0
   36.9160   30.1940   41.4660 C   0  0  0  0  0  0  0  0  0  0  0  0
   37.6530   31.1230   40.7220 C   0  0  0  0  0  0  0  0  0  0  0  0
   38.9870   31.3500   41.0710 C   0  0  0  0  0  0  0  0  0  0  0  0
   39.5170   30.6600   42.1200 N   0  0  0  0  0  0  0  0  0  0  0  0
   38.7660   29.7640   42.8200 C   0  0  0  0  0  0  0  0  0  0  0  0
   37.4860   29.5390   42.4920 N   0  0  0  0  0  0  0  0  0  0  0  0
   35.8980   30.0790   41.1310 H   0  0  0  0  0  0  0  0  0  0  0  0
   37.2240   31.6680   39.8880 H   0  0  0  0  0  0  0  0  0  0  0  0
   39.2550   29.2520   43.6400 H   0  0  0  0  0  0  0  0  0  0  0  0
   41.5140   32.7540   38.5540 C   0  0  0  0  0  0  0  0  0  0  0  0
   42.5720   33.4480   39.0880 C   0  0  0  0  0  0  0  0  0  0  0  0
   42.9830   33.4920   40.0720 H   0  0  0  0  0  0  0  0  0  0  0  0
   43.0610   34.1610   37.9910 C   0  0  0  0  0  0  0  0  0  0  0  0
   43.9040   34.8360   37.9920 H   0  0  0  0  0  0  0  0  0  0  0  0
   42.3250   33.8950   36.8720 N   0  0  0  0  0  0  0  0  0  0  0  0
   42.5040   34.3120   35.9310 H   0  0  0  0  0  0  0  0  0  0  0  0
   41.3780   33.0250   37.2450 N   0  0  0  0  0  0  0  0  0  0  0  0
  1  3  1  0  0  0  0
  2  1  2  0  0  0  0
  3  4  1  0  0  0  0
  3  7  1  0  0  0  0
  5 10  1  0  0  0  0
  6  7  1  0  0  0  0
  6  5  2  0  0  0  0
  7  8  2  0  0  0  0
  8  9  1  0  0  0  0
  9 13  1  0  0  0  0
 10  9  2  0  0  0  0
 11  5  1  0  0  0  0
 12  6  1  0  0  0  0
 14 15  1  0  0  0  0
 14  1  1  0  0  0  0
 15 16  1  0  0  0  0
 17 18  1  0  0  0  0
 17 15  2  0  0  0  0
 19 21  1  0  0  0  0
 19 17  1  0  0  0  0
 20 19  1  0  0  0  0
 21 14  2  0  0  0  0
M  END
>  <minimizedAffinity>
-3.88949394

$$$$

 OpenBabel03252503363D

 21 22  0  0  0  0  0  0  0  0999 V2000
   37.9580   29.4650   40.3890 C   0  0  0  0  0  0  0  0  0  0  0  0
   38.7760   28.7920   39.7060 O   0  0  0  0  0  0  0  0  0  0  0  0
   37.4380   28.8080   41.5340 N   0  0  0  0  0  0  0  0  0  0  0  0
   36.7620   29.3310   42.1440 H   0  0  0  0  0  0  0  0  0  0  0  0
   39.2120   25.8540   42.9590 C   0  0  0  0  0  0  0  0  0  0  0  0
   38.9020   27.1930   42.6950 C   0  0  0  0  0  0  0  0  0  0  0  0
   37.8210   27.4750   41.8540 C   0  0  0  0  0  0  0  0  0  0  0  0
   37.1130   26.4370   41.3260 N   0  0  0  0  0  0  0  0  0  0  0  0
   37.4470   25.1460   41.6080 C   0  0  0  0  0  0  0  0  0  0  0  0
   38.4820   24.8670   42.4130 N   0  0  0  0  0  0  0  0  0  0  0  0
   40.0570   25.7260   43.6150 H   0  0  0  0  0  0  0  0  0  0  0  0
   39.4700   28.0140   43.1200 H   0  0  0  0  0  0  0  0  0  0  0  0
   36.8390   24.3740   41.1530 H   0  0  0  0  0  0  0  0  0  0  0  0
   37.5900   30.8210   40.0000 C   0  0  0  0  0  0  0  0  0  0  0  0
   37.6620   31.2940   38.7120 C   0  0  0  0  0  0  0  0  0  0  0  0
   37.9660   30.8430   37.7940 H   0  0  0  0  0  0  0  0  0  0  0  0
   37.2170   32.6110   38.8390 C   0  0  0  0  0  0  0  0  0  0  0  0
   37.1220   33.3350   38.0420 H   0  0  0  0  0  0  0  0  0  0  0  0
   36.9000   32.8940   40.1380 N   0  0  0  0  0  0  0  0  0  0  0  0
   36.5450   33.8160   40.4750 H   0  0  0  0  0  0  0  0  0  0  0  0
   37.1380   31.7750   40.8320 N   0  0  0  0  0  0  0  0  0  0  0  0
  1  3  1  0  0  0  0
  2  1  2  0  0  0  0
  3  7  1  0  0  0  0
  3  4  1  0  0  0  0
  5 11  1  0  0  0  0
  6  5  1  0  0  0  0
  6 12  1  0  0  0  0
  7  6  2  0  0  0  0
  8  9  2  0  0  0  0
  8  7  1  0  0  0  0
  9 10  1  0  0  0  0
 10  5  2  0  0  0  0
 13  9  1  0  0  0  0
 14  1  1  0  0  0  0
 14 21  2  0  0  0  0
 15 17  2  0  0  0  0
 15 14  1  0  0  0  0
 16 15  1  0  0  0  0
 17 19  1  0  0  0  0
 18 17  1  0  0  0  0
 19 20  1  0  0  0  0
 19 21  1  0  0  0  0
M  END
>  <minimizedAffinity>
-3.88794374

$$$$

 OpenBabel03252503363D

 21 22  0  0  0  0  0  0  0  0999 V2000
   38.6380   30.7950   41.1960 C   0  0  0  0  0  0  0  0  0  0  0  0
   37.6740   30.4360   40.4690 O   0  0  0  0  0  0  0  0  0  0  0  0
   39.0120   29.8730   42.2080 N   0  0  0  0  0  0  0  0  0  0  0  0
   39.8190   30.1200   42.8330 H   0  0  0  0  0  0  0  0  0  0  0  0
   36.6250   27.2600   43.3820 C   0  0  0  0  0  0  0  0  0  0  0  0
   37.2570   28.5050   43.2780 C   0  0  0  0  0  0  0  0  0  0  0  0
   38.3160   28.6430   42.3760 C   0  0  0  0  0  0  0  0  0  0  0  0
   38.6910   27.5630   41.6350 N   0  0  0  0  0  0  0  0  0  0  0  0
   38.0510   26.3670   41.7650 C   0  0  0  0  0  0  0  0  0  0  0  0
   37.0350   26.2250   42.6280 N   0  0  0  0  0  0  0  0  0  0  0  0
   35.8210   27.2400   44.0990 H   0  0  0  0  0  0  0  0  0  0  0  0
   36.9520   29.3600   43.8710 H   0  0  0  0  0  0  0  0  0  0  0  0
   38.4040   25.5540   41.1440 H   0  0  0  0  0  0  0  0  0  0  0  0
   39.3010   32.0770   40.9880 C   0  0  0  0  0  0  0  0  0  0  0  0
   38.6480   33.2200   40.5950 C   0  0  0  0  0  0  0  0  0  0  0  0
   37.6260   33.4280   40.3720 H   0  0  0  0  0  0  0  0  0  0  0  0
   39.6790   34.1610   40.5330 C   0  0  0  0  0  0  0  0  0  0  0  0
   39.5810   35.2010   40.2590 H   0  0  0  0  0  0  0  0  0  0  0  0
   40.8750   33.5940   40.8740 N   0  0  0  0  0  0  0  0  0  0  0  0
   41.7870   34.1030   40.9000 H   0  0  0  0  0  0  0  0  0  0  0  0
   40.6150   32.3110   41.1500 N   0  0  0  0  0  0  0  0  0  0  0  0
  1  3  1  0  0  0  0
  2  1  2  0  0  0  0
  3  7  1  0  0  0  0
  3  4  1  0  0  0  0
  5 11  1  0  0  0  0
  6  5  1  0  0  0  0
  6 12  1  0  0  0  0
  7  6  2  0  0  0  0
  8  9  2  0  0  0  0
  8  7  1  0  0  0  0
  9 10  1  0  0  0  0
 10  5  2  0  0  0  0
 13  9  1  0  0  0  0
 14 21  2  0  0  0  0
 14  1  1  0  0  0  0
 15 14  1  0  0  0  0
 16 15  1  0  0  0  0
 17 15  2  0  0  0  0
 17 19  1  0  0  0  0
 18 17  1  0  0  0  0
 19 20  1  0  0  0  0
 19 21  1  0  0  0  0
M  END
>  <minimizedAffinity>
-3.86792207

$$$$

 OpenBabel03252503363D

 21 22  0  0  0  0  0  0  0  0999 V2000
   38.2930   32.0200   39.7610 C   0  0  0  0  0  0  0  0  0  0  0  0
   38.1900   33.2740   39.8290 O   0  0  0  0  0  0  0  0  0  0  0  0
   39.5790   31.5340   39.4100 N   0  0  0  0  0  0  0  0  0  0  0  0
   39.7200   30.4960   39.3520 H   0  0  0  0  0  0  0  0  0  0  0  0
   42.0910   33.6670   37.6650 C   0  0  0  0  0  0  0  0  0  0  0  0
   41.0210   32.7810   37.8410 C   0  0  0  0  0  0  0  0  0  0  0  0
   40.6550   32.4280   39.1420 C   0  0  0  0  0  0  0  0  0  0  0  0
   41.3520   32.9580   40.1870 N   0  0  0  0  0  0  0  0  0  0  0  0
   42.3880   33.8160   39.9730 C   0  0  0  0  0  0  0  0  0  0  0  0
   42.7460   34.1610   38.7290 N   0  0  0  0  0  0  0  0  0  0  0  0
   42.3080   33.8860   36.6310 H   0  0  0  0  0  0  0  0  0  0  0  0
   40.4710   32.3640   37.0030 H   0  0  0  0  0  0  0  0  0  0  0  0
   42.8950   34.1980   40.8510 H   0  0  0  0  0  0  0  0  0  0  0  0
   37.1500   31.1550   40.0280 C   0  0  0  0  0  0  0  0  0  0  0  0
   36.6760   30.2180   39.1410 C   0  0  0  0  0  0  0  0  0  0  0  0
   36.9880   29.9280   38.1630 H   0  0  0  0  0  0  0  0  0  0  0  0
   35.5980   29.6570   39.8290 C   0  0  0  0  0  0  0  0  0  0  0  0
   34.9510   28.8700   39.4710 H   0  0  0  0  0  0  0  0  0  0  0  0
   35.4500   30.2370   41.0570 N   0  0  0  0  0  0  0  0  0  0  0  0
   34.7120   29.9810   41.7500 H   0  0  0  0  0  0  0  0  0  0  0  0
   36.4180   31.1570   41.1550 N   0  0  0  0  0  0  0  0  0  0  0  0
  1  2  2  0  0  0  0
  1 14  1  0  0  0  0
  3  1  1  0  0  0  0
  4  3  1  0  0  0  0
  5  6  2  0  0  0  0
  5 10  1  0  0  0  0
  6  7  1  0  0  0  0
  7  3  1  0  0  0  0
  7  8  2  0  0  0  0
  9  8  1  0  0  0  0
  9 13  1  0  0  0  0
 10  9  2  0  0  0  0
 11  5  1  0  0  0  0
 12  6  1  0  0  0  0
 14 21  2  0  0  0  0
 15 17  2  0  0  0  0
 15 14  1  0  0  0  0
 16 15  1  0  0  0  0
 17 19  1  0  0  0  0
 18 17  1  0  0  0  0
 19 21  1  0  0  0  0
 19 20  1  0  0  0  0
M  END
>  <minimizedAffinity>
-3.82214451

$$$$
