
 OpenBabel03252501093D

 19 20  0  0  0  0  0  0  0  0999 V2000
   46.9250   34.9290   42.0700 C   0  0  0  0  0  0  0  0  0  0  0  0
   48.0260   35.4890   41.8850 O   0  0  0  0  0  0  0  0  0  0  0  0
   44.5480   35.9310   44.6850 C   0  0  0  0  0  0  0  0  0  0  0  0
   45.3090   35.9190   43.4820 C   0  0  0  0  0  0  0  0  0  0  0  0
   46.2020   34.8780   43.3010 C   0  0  0  0  0  0  0  0  0  0  0  0
   46.3260   33.9230   44.2470 N   0  0  0  0  0  0  0  0  0  0  0  0
   45.5820   33.9600   45.3930 C   0  0  0  0  0  0  0  0  0  0  0  0
   44.6930   34.9650   45.6130 N   0  0  0  0  0  0  0  0  0  0  0  0
   43.8470   36.7410   44.8340 H   0  0  0  0  0  0  0  0  0  0  0  0
   45.1430   36.7280   42.7790 H   0  0  0  0  0  0  0  0  0  0  0  0
   45.7950   33.1260   46.0510 H   0  0  0  0  0  0  0  0  0  0  0  0
   46.3540   34.2720   40.8780 C   0  0  0  0  0  0  0  0  0  0  0  0
   47.0820   33.6370   39.8760 C   0  0  0  0  0  0  0  0  0  0  0  0
   48.1540   33.5280   39.8120 H   0  0  0  0  0  0  0  0  0  0  0  0
   46.1170   33.1750   38.9730 C   0  0  0  0  0  0  0  0  0  0  0  0
   46.4530   32.6300   38.0760 H   0  0  0  0  0  0  0  0  0  0  0  0
   44.8950   33.5180   39.4210 N   0  0  0  0  0  0  0  0  0  0  0  0
   44.0780   33.2390   38.8490 H   0  0  0  0  0  0  0  0  0  0  0  0
   45.0370   34.1730   40.5590 N   0  0  0  0  0  0  0  0  0  0  0  0
  1  5  1  0  0  0  0
  2  1  2  0  0  0  0
  3  9  1  0  0  0  0
  3  8  1  0  0  0  0
  4  3  2  0  0  0  0
  5  4  1  0  0  0  0
  5  6  2  0  0  0  0
  6  7  1  0  0  0  0
  7  8  2  0  0  0  0
  7 11  1  0  0  0  0
 10  4  1  0  0  0  0
 12  1  1  0  0  0  0
 13 12  1  0  0  0  0
 14 13  1  0  0  0  0
 15 17  1  0  0  0  0
 15 13  2  0  0  0  0
 16 15  1  0  0  0  0
 17 19  1  0  0  0  0
 18 17  1  0  0  0  0
 19 12  2  0  0  0  0
M  END
>  <minimizedAffinity>
-4.15466785

>  <minimizedRMSD>
0.740861595

$$$$
