REMARK  Name = 
REMARK  4 active torsions:
REMARK  status: ('A' for Active; 'I' for Inactive)
REMARK    1  A    between atoms: C_1  and  C_11
REMARK    2  A    between atoms: C_6  and  N_19
REMARK    3  A    between atoms: C_9  and  C_13
REMARK    4  A    between atoms: C_17  and  C_35
REMARK                            x       y       z     vdW  Elec       q    Type
REMARK                         _______ _______ _______ _____ _____    ______ ____
ROOT
ATOM      1  C   UNL     1      44.573  35.572  44.618  0.00  0.00    +0.000 A 
ATOM      2  C   UNL     1      45.230  35.580  43.359  0.00  0.00    +0.000 A 
ATOM      3  C   UNL     1      46.315  34.666  43.184  0.00  0.00    +0.000 A 
ATOM      4  N   UNL     1      46.663  33.849  44.207  0.00  0.00    +0.000 NA
ATOM      5  C   UNL     1      46.005  33.885  45.378  0.00  0.00    +0.000 A 
ATOM      6  N   UNL     1      44.966  34.736  45.594  0.00  0.00    +0.000 NA
ATOM      7  H   UNL     1      43.757  36.265  44.737  0.00  0.00    +0.000 HD
ATOM      8  H   UNL     1      44.919  36.252  42.566  0.00  0.00    +0.000 HD
ENDROOT
BRANCH   5   9
ATOM      9  C   UNL     1      46.432  32.970  46.464  0.00  0.00    +0.000 C 
ATOM     10  C   UNL     1      46.975  31.744  45.784  0.00  0.00    +0.000 C 
ATOM     11  C   UNL     1      46.115  30.548  45.806  0.00  0.00    +0.000 C 
ATOM     12  C   UNL     1      45.820  30.291  47.284  0.00  0.00    +0.000 C 
ATOM     13  C   UNL     1      45.023  31.353  47.888  0.00  0.00    +0.000 C 
ATOM     14  C   UNL     1      45.380  32.728  47.426  0.00  0.00    +0.000 C 
ATOM     15  H   UNL     1      47.276  33.498  46.975  0.00  0.00    +0.000 HD
ATOM     16  H   UNL     1      47.253  31.938  44.716  0.00  0.00    +0.000 HD
ATOM     17  H   UNL     1      47.937  31.473  46.266  0.00  0.00    +0.000 HD
ATOM     18  H   UNL     1      45.222  30.558  45.180  0.00  0.00    +0.000 HD
ATOM     19  H   UNL     1      46.729  29.680  45.490  0.00  0.00    +0.000 HD
ATOM     20  H   UNL     1      46.777  30.148  47.796  0.00  0.00    +0.000 HD
ATOM     21  H   UNL     1      45.207  29.386  47.297  0.00  0.00    +0.000 HD
ATOM     22  H   UNL     1      44.233  31.341  48.593  0.00  0.00    +0.000 HD
BRANCH  14  23
ATOM     23  N   UNL     1      44.677  33.870  47.933  0.00  0.00    +0.000 N 
ATOM     24  H   UNL     1      45.023  34.536  48.627  0.00  0.00    +0.000 HD
ATOM     25  H   UNL     1      43.704  34.031  47.545  0.00  0.00    +0.000 HD
ENDBRANCH  14  23
ENDBRANCH   5   9
BRANCH   3  26
ATOM     26  C   UNL     1      47.005  34.651  41.902  0.00  0.00    +0.000 A 
ATOM     27  C   UNL     1      48.139  35.386  41.768  0.00  0.00    +0.000 A 
ATOM     28  C   UNL     1      48.763  35.335  40.512  0.00  0.00    +0.000 A 
ATOM     29  C   UNL     1      48.171  34.553  39.546  0.00  0.00    +0.000 A 
ATOM     30  C   UNL     1      47.035  33.818  39.685  0.00  0.00    +0.000 A 
ATOM     31  N   UNL     1      46.462  33.898  40.926  0.00  0.00    +0.000 NA
ATOM     32  H   UNL     1      48.587  35.989  42.527  0.00  0.00    +0.000 HD
ATOM     33  H   UNL     1      49.667  35.892  40.330  0.00  0.00    +0.000 HD
ATOM     34  H   UNL     1      48.689  34.547  38.597  0.00  0.00    +0.000 HD
BRANCH  30  35
ATOM     35  C   UNL     1      46.452  33.015  38.650  0.00  0.00    +0.000 A 
ATOM     36  C   UNL     1      46.911  32.843  37.374  0.00  0.00    +0.000 A 
ATOM     37  H   UNL     1      47.809  33.307  36.965  0.00  0.00    +0.000 HD
ATOM     38  C   UNL     1      46.003  31.975  36.759  0.00  0.00    +0.000 A 
ATOM     39  H   UNL     1      46.175  31.696  35.726  0.00  0.00    +0.000 HD
ATOM     40  N   UNL     1      45.049  31.660  37.660  0.00  0.00    +0.000 N 
ATOM     41  H   UNL     1      44.313  31.012  37.304  0.00  0.00    +0.000 HD
ATOM     42  N   UNL     1      45.332  32.290  38.785  0.00  0.00    +0.000 NA
ENDBRANCH  30  35
ENDBRANCH   3  26
TORSDOF 4
