
 OpenBabel03252503253D

 46 51  0  0  1  0  0  0  0  0999 V2000
   35.2130   28.7700   37.7790 C   0  0  1  0  0  0  0  0  0  0  0  0
   35.3040   27.9100   36.6010 C   0  0  0  0  0  0  0  0  0  0  0  0
   33.9710   28.0890   37.2250 C   0  0  2  0  0  0  0  0  0  0  0  0
   35.2380   29.8680   37.6770 H   0  0  0  0  0  0  0  0  0  0  0  0
   35.6660   28.3770   35.6950 H   0  0  0  0  0  0  0  0  0  0  0  0
   35.8670   26.9380   36.7940 H   0  0  0  0  0  0  0  0  0  0  0  0
   33.5700   27.2520   37.8310 H   0  0  0  0  0  0  0  0  0  0  0  0
   33.0240   29.0150   36.5490 C   0  0  0  0  0  0  0  0  0  0  0  0
   33.0700   29.3370   35.2090 C   0  0  0  0  0  0  0  0  0  0  0  0
   32.1510   30.2120   34.6440 C   0  0  0  0  0  0  0  0  0  0  0  0
   31.1710   30.7760   35.4280 C   0  0  0  0  0  0  0  0  0  0  0  0
   30.2560   31.6280   34.9010 N   0  0  0  0  0  0  0  0  0  0  0  0
   29.2940   32.1670   35.6950 C   0  0  0  0  0  0  0  0  0  0  0  0
   29.1720   31.8970   37.0740 C   0  0  0  0  0  0  0  0  0  0  0  0
   30.0890   31.0400   37.6180 C   0  0  0  0  0  0  0  0  0  0  0  0
   31.0780   30.4870   36.7920 C   0  0  0  0  0  0  0  0  0  0  0  0
   32.0150   29.6110   37.3060 C   0  0  0  0  0  0  0  0  0  0  0  0
   33.8490   28.8840   34.6050 H   0  0  0  0  0  0  0  0  0  0  0  0
   32.2080   30.4480   33.5860 H   0  0  0  0  0  0  0  0  0  0  0  0
   28.5550   32.8510   35.2800 H   0  0  0  0  0  0  0  0  0  0  0  0
   28.3760   32.3710   37.6300 H   0  0  0  0  0  0  0  0  0  0  0  0
   30.0450   30.7970   38.6700 H   0  0  0  0  0  0  0  0  0  0  0  0
   31.8840   29.4420   38.3660 H   0  0  0  0  0  0  0  0  0  0  0  0
   35.4380   29.0820   40.2710 C   0  0  0  0  0  0  0  0  0  0  0  0
   35.7010   28.2880   39.1040 C   0  0  0  0  0  0  0  0  0  0  0  0
   36.4030   27.1220   39.2670 C   0  0  0  0  0  0  0  0  0  0  0  0
   36.7950   26.8140   40.5370 N   0  0  0  0  0  0  0  0  0  0  0  0
   36.5480   27.5570   41.6200 C   0  0  0  0  0  0  0  0  0  0  0  0
   35.8630   28.7030   41.4860 N   0  0  0  0  0  0  0  0  0  0  0  0
   34.8770   30.0130   40.1230 H   0  0  0  0  0  0  0  0  0  0  0  0
   36.6210   26.4970   38.4160 H   0  0  0  0  0  0  0  0  0  0  0  0
   37.0440   27.0680   42.9250 C   0  0  2  0  0  0  0  0  0  0  0  0
   37.2020   27.9320   44.0790 C   0  0  0  0  0  0  0  0  0  0  0  0
   38.4440   27.6220   43.3240 C   0  0  2  0  0  0  0  0  0  0  0  0
   36.9330   25.9660   43.0790 H   0  0  0  0  0  0  0  0  0  0  0  0
   37.0340   27.4950   45.0930 H   0  0  0  0  0  0  0  0  0  0  0  0
   36.7600   28.9570   44.0270 H   0  0  0  0  0  0  0  0  0  0  0  0
   39.0980   26.8010   43.7090 H   0  0  0  0  0  0  0  0  0  0  0  0
   39.0320   28.6990   42.5280 C   0  0  0  0  0  0  0  0  0  0  0  0
   39.8030   28.8270   41.3930 C   0  0  0  0  0  0  0  0  0  0  0  0
   40.1080   27.9510   40.8420 H   0  0  0  0  0  0  0  0  0  0  0  0
   40.0830   30.1440   41.0990 C   0  0  0  0  0  0  0  0  0  0  0  0
   40.6750   30.4660   40.2500 H   0  0  0  0  0  0  0  0  0  0  0  0
   39.4620   30.8120   42.0860 N   0  0  0  0  0  0  0  0  0  0  0  0
   39.4790   31.8690   42.1600 H   0  0  0  0  0  0  0  0  0  0  0  0
   38.8590   30.0010   42.9060 N   0  0  0  0  0  0  0  0  0  0  0  0
  1  4  1  6  0  0  0
  1 25  1  0  0  0  0
  2  6  1  0  0  0  0
  2  3  1  0  0  0  0
  2  1  1  0  0  0  0
  3  1  1  0  0  0  0
  3  7  1  1  0  0  0
  5  2  1  0  0  0  0
  8  3  1  0  0  0  0
  8 17  1  0  0  0  0
  9  8  2  0  0  0  0
 10  9  1  0  0  0  0
 10 11  2  0  0  0  0
 11 16  1  0  0  0  0
 12 11  1  0  0  0  0
 12 13  2  0  0  0  0
 13 14  1  0  0  0  0
 14 15  2  0  0  0  0
 14 21  1  0  0  0  0
 15 22  1  0  0  0  0
 16 17  2  0  0  0  0
 16 15  1  0  0  0  0
 17 23  1  0  0  0  0
 18  9  1  0  0  0  0
 19 10  1  0  0  0  0
 20 13  1  0  0  0  0
 24 29  1  0  0  0  0
 25 26  1  0  0  0  0
 25 24  2  0  0  0  0
 26 27  2  0  0  0  0
 27 28  1  0  0  0  0
 28 32  1  0  0  0  0
 29 28  2  0  0  0  0
 30 24  1  0  0  0  0
 31 26  1  0  0  0  0
 32 35  1  1  0  0  0
 32 34  1  0  0  0  0
 32 33  1  0  0  0  0
 33 36  1  0  0  0  0
 34 38  1  1  0  0  0
 34 33  1  0  0  0  0
 37 33  1  0  0  0  0
 39 46  2  0  0  0  0
 39 34  1  0  0  0  0
 40 39  1  0  0  0  0
 41 40  1  0  0  0  0
 42 40  2  0  0  0  0
 42 44  1  0  0  0  0
 43 42  1  0  0  0  0
 44 45  1  0  0  0  0
 44 46  1  0  0  0  0
M  END
>  <minimizedAffinity>
-6.6680851

$$$$

 OpenBabel03252503253D

 46 51  0  0  1  0  0  0  0  0999 V2000
   35.6740   29.5090   38.1030 C   0  0  1  0  0  0  0  0  0  0  0  0
   35.8620   28.6290   36.9510 C   0  0  0  0  0  0  0  0  0  0  0  0
   34.6270   28.4620   37.7540 C   0  0  2  0  0  0  0  0  0  0  0  0
   35.3610   30.5580   37.9640 H   0  0  0  0  0  0  0  0  0  0  0  0
   35.9520   29.1140   35.9880 H   0  0  0  0  0  0  0  0  0  0  0  0
   36.7060   27.8760   37.0920 H   0  0  0  0  0  0  0  0  0  0  0  0
   34.5710   27.5910   38.4370 H   0  0  0  0  0  0  0  0  0  0  0  0
   33.3710   29.0270   37.1920 C   0  0  0  0  0  0  0  0  0  0  0  0
   33.1530   29.2620   35.8510 C   0  0  0  0  0  0  0  0  0  0  0  0
   31.9520   29.7930   35.3960 C   0  0  0  0  0  0  0  0  0  0  0  0
   30.9540   30.0930   36.2930 C   0  0  0  0  0  0  0  0  0  0  0  0
   29.7690   30.6060   35.8760 N   0  0  0  0  0  0  0  0  0  0  0  0
   28.7950   30.8890   36.7810 C   0  0  0  0  0  0  0  0  0  0  0  0
   28.9310   30.6840   38.1690 C   0  0  0  0  0  0  0  0  0  0  0  0
   30.1220   30.1680   38.6030 C   0  0  0  0  0  0  0  0  0  0  0  0
   31.1200   29.8770   37.6640 C   0  0  0  0  0  0  0  0  0  0  0  0
   32.3320   29.3480   38.0650 C   0  0  0  0  0  0  0  0  0  0  0  0
   33.9500   29.0190   35.1570 H   0  0  0  0  0  0  0  0  0  0  0  0
   31.8060   29.9680   34.3350 H   0  0  0  0  0  0  0  0  0  0  0  0
   27.8400   31.3000   36.4550 H   0  0  0  0  0  0  0  0  0  0  0  0
   28.1040   30.9380   38.8180 H   0  0  0  0  0  0  0  0  0  0  0  0
   30.2820   29.9900   39.6580 H   0  0  0  0  0  0  0  0  0  0  0  0
   32.3890   29.2160   39.1370 H   0  0  0  0  0  0  0  0  0  0  0  0
   35.7400   29.2180   40.6070 C   0  0  0  0  0  0  0  0  0  0  0  0
   36.4470   29.2850   39.3590 C   0  0  0  0  0  0  0  0  0  0  0  0
   37.8110   29.1470   39.3860 C   0  0  0  0  0  0  0  0  0  0  0  0
   38.3840   28.9580   40.6090 N   0  0  0  0  0  0  0  0  0  0  0  0
   37.7220   28.8970   41.7690 C   0  0  0  0  0  0  0  0  0  0  0  0
   36.3870   29.0280   41.7680 N   0  0  0  0  0  0  0  0  0  0  0  0
   34.6500   29.3300   40.5670 H   0  0  0  0  0  0  0  0  0  0  0  0
   38.3790   29.1910   38.4700 H   0  0  0  0  0  0  0  0  0  0  0  0
   38.5040   28.6800   43.0050 C   0  0  2  0  0  0  0  0  0  0  0  0
   39.7780   27.9870   43.0160 C   0  0  0  0  0  0  0  0  0  0  0  0
   38.6000   27.1880   43.4450 C   0  0  2  0  0  0  0  0  0  0  0  0
   38.2570   29.3820   43.8390 H   0  0  0  0  0  0  0  0  0  0  0  0
   40.5450   28.3060   43.7620 H   0  0  0  0  0  0  0  0  0  0  0  0
   40.2660   27.7770   42.0330 H   0  0  0  0  0  0  0  0  0  0  0  0
   38.4100   27.0880   44.5410 H   0  0  0  0  0  0  0  0  0  0  0  0
   38.1260   26.1490   42.5320 C   0  0  0  0  0  0  0  0  0  0  0  0
   36.9530   25.4750   42.2720 C   0  0  0  0  0  0  0  0  0  0  0  0
   36.0580   25.7070   42.8280 H   0  0  0  0  0  0  0  0  0  0  0  0
   37.0970   24.5470   41.2630 C   0  0  0  0  0  0  0  0  0  0  0  0
   36.2980   23.9100   40.9020 H   0  0  0  0  0  0  0  0  0  0  0  0
   38.3900   24.6750   40.9180 N   0  0  0  0  0  0  0  0  0  0  0  0
   38.8380   24.0940   40.1540 H   0  0  0  0  0  0  0  0  0  0  0  0
   38.9870   25.5850   41.6330 N   0  0  0  0  0  0  0  0  0  0  0  0
  1  4  1  6  0  0  0
  1 25  1  0  0  0  0
  2  6  1  0  0  0  0
  2  3  1  0  0  0  0
  2  1  1  0  0  0  0
  3  1  1  0  0  0  0
  3  7  1  1  0  0  0
  5  2  1  0  0  0  0
  8  3  1  0  0  0  0
  8 17  1  0  0  0  0
  9  8  2  0  0  0  0
 10  9  1  0  0  0  0
 10 11  2  0  0  0  0
 11 16  1  0  0  0  0
 12 11  1  0  0  0  0
 12 13  2  0  0  0  0
 13 14  1  0  0  0  0
 14 15  2  0  0  0  0
 14 21  1  0  0  0  0
 15 22  1  0  0  0  0
 16 17  2  0  0  0  0
 16 15  1  0  0  0  0
 17 23  1  0  0  0  0
 18  9  1  0  0  0  0
 19 10  1  0  0  0  0
 20 13  1  0  0  0  0
 24 29  1  0  0  0  0
 25 26  1  0  0  0  0
 25 24  2  0  0  0  0
 26 27  2  0  0  0  0
 27 28  1  0  0  0  0
 28 32  1  0  0  0  0
 29 28  2  0  0  0  0
 30 24  1  0  0  0  0
 31 26  1  0  0  0  0
 32 33  1  0  0  0  0
 32 34  1  0  0  0  0
 32 35  1  1  0  0  0
 33 34  1  0  0  0  0
 33 36  1  0  0  0  0
 34 38  1  1  0  0  0
 37 33  1  0  0  0  0
 39 34  1  0  0  0  0
 40 39  1  0  0  0  0
 40 41  1  0  0  0  0
 42 40  2  0  0  0  0
 43 42  1  0  0  0  0
 44 42  1  0  0  0  0
 44 46  1  0  0  0  0
 45 44  1  0  0  0  0
 46 39  2  0  0  0  0
M  END
>  <minimizedAffinity>
-6.24348402

$$$$

 OpenBabel03252503253D

 46 51  0  0  1  0  0  0  0  0999 V2000
   37.2330   27.4210   41.5820 C   0  0  1  0  0  0  0  0  0  0  0  0
   36.8640   27.8180   42.9390 C   0  0  0  0  0  0  0  0  0  0  0  0
   38.2520   28.0890   42.4930 C   0  0  2  0  0  0  0  0  0  0  0  0
   36.9090   28.0180   40.7130 H   0  0  0  0  0  0  0  0  0  0  0  0
   36.0570   28.5340   43.0250 H   0  0  0  0  0  0  0  0  0  0  0  0
   36.6810   26.9340   43.6340 H   0  0  0  0  0  0  0  0  0  0  0  0
   39.0550   27.4310   42.8820 H   0  0  0  0  0  0  0  0  0  0  0  0
   38.5800   29.4880   42.1090 C   0  0  0  0  0  0  0  0  0  0  0  0
   39.6860   30.1810   42.5550 C   0  0  0  0  0  0  0  0  0  0  0  0
   39.9300   31.4880   42.1540 C   0  0  0  0  0  0  0  0  0  0  0  0
   39.0580   32.1140   41.2940 C   0  0  0  0  0  0  0  0  0  0  0  0
   39.2760   33.3870   40.8790 N   0  0  0  0  0  0  0  0  0  0  0  0
   38.4030   33.9820   40.0230 C   0  0  0  0  0  0  0  0  0  0  0  0
   37.2470   33.3520   39.5180 C   0  0  0  0  0  0  0  0  0  0  0  0
   37.0160   32.0670   39.9290 C   0  0  0  0  0  0  0  0  0  0  0  0
   37.9210   31.4600   40.8100 C   0  0  0  0  0  0  0  0  0  0  0  0
   37.7230   30.1620   41.2400 C   0  0  0  0  0  0  0  0  0  0  0  0
   40.3630   29.6730   43.2330 H   0  0  0  0  0  0  0  0  0  0  0  0
   40.8080   32.0110   42.5190 H   0  0  0  0  0  0  0  0  0  0  0  0
   38.5700   35.0030   39.6850 H   0  0  0  0  0  0  0  0  0  0  0  0
   36.6070   33.9000   38.8420 H   0  0  0  0  0  0  0  0  0  0  0  0
   36.1440   31.5350   39.5740 H   0  0  0  0  0  0  0  0  0  0  0  0
   36.8220   29.7250   40.8300 H   0  0  0  0  0  0  0  0  0  0  0  0
   38.1620   25.6550   40.0400 C   0  0  0  0  0  0  0  0  0  0  0  0
   37.4740   25.9850   41.2560 C   0  0  0  0  0  0  0  0  0  0  0  0
   37.0590   24.9530   42.0580 C   0  0  0  0  0  0  0  0  0  0  0  0
   37.3390   23.6900   41.6260 N   0  0  0  0  0  0  0  0  0  0  0  0
   37.9800   23.3880   40.4930 C   0  0  0  0  0  0  0  0  0  0  0  0
   38.3950   24.3800   39.6910 N   0  0  0  0  0  0  0  0  0  0  0  0
   38.4860   26.4920   39.4090 H   0  0  0  0  0  0  0  0  0  0  0  0
   36.5390   25.1580   42.9800 H   0  0  0  0  0  0  0  0  0  0  0  0
   38.2050   21.9600   40.1810 C   0  0  2  0  0  0  0  0  0  0  0  0
   38.4480   21.4780   38.8360 C   0  0  0  0  0  0  0  0  0  0  0  0
   37.0650   21.3010   39.3500 C   0  0  2  0  0  0  0  0  0  0  0  0
   38.5440   21.3440   41.0510 H   0  0  0  0  0  0  0  0  0  0  0  0
   39.1180   20.5950   38.7040 H   0  0  0  0  0  0  0  0  0  0  0  0
   38.6530   22.2350   38.0400 H   0  0  0  0  0  0  0  0  0  0  0  0
   36.7900   20.3050   39.7760 H   0  0  0  0  0  0  0  0  0  0  0  0
   36.0220   22.1530   38.7790 C   0  0  0  0  0  0  0  0  0  0  0  0
   34.8070   22.6780   39.1630 C   0  0  0  0  0  0  0  0  0  0  0  0
   34.4200   22.4850   40.1510 H   0  0  0  0  0  0  0  0  0  0  0  0
   34.2280   23.4340   38.1670 C   0  0  0  0  0  0  0  0  0  0  0  0
   33.2720   23.9370   38.2610 H   0  0  0  0  0  0  0  0  0  0  0  0
   35.1240   23.3540   37.1670 N   0  0  0  0  0  0  0  0  0  0  0  0
   34.9830   23.8350   36.2340 H   0  0  0  0  0  0  0  0  0  0  0  0
   36.1500   22.6280   37.5030 N   0  0  0  0  0  0  0  0  0  0  0  0
  1  4  1  6  0  0  0
  1  3  1  0  0  0  0
  1  2  1  0  0  0  0
  2  5  1  0  0  0  0
  2  6  1  0  0  0  0
  3  7  1  1  0  0  0
  3  2  1  0  0  0  0
  8  3  1  0  0  0  0
  8  9  1  0  0  0  0
  9 18  1  0  0  0  0
 10 19  1  0  0  0  0
 10  9  2  0  0  0  0
 11 10  1  0  0  0  0
 12 11  1  0  0  0  0
 13 12  2  0  0  0  0
 14 15  2  0  0  0  0
 14 13  1  0  0  0  0
 15 16  1  0  0  0  0
 16 17  1  0  0  0  0
 16 11  2  0  0  0  0
 17  8  2  0  0  0  0
 20 13  1  0  0  0  0
 21 14  1  0  0  0  0
 22 15  1  0  0  0  0
 23 17  1  0  0  0  0
 24 25  1  0  0  0  0
 25  1  1  0  0  0  0
 25 26  2  0  0  0  0
 26 31  1  0  0  0  0
 27 26  1  0  0  0  0
 28 27  2  0  0  0  0
 29 24  2  0  0  0  0
 29 28  1  0  0  0  0
 30 24  1  0  0  0  0
 32 28  1  0  0  0  0
 32 35  1  1  0  0  0
 33 34  1  0  0  0  0
 33 32  1  0  0  0  0
 34 38  1  1  0  0  0
 34 32  1  0  0  0  0
 36 33  1  0  0  0  0
 37 33  1  0  0  0  0
 39 40  1  0  0  0  0
 39 34  1  0  0  0  0
 40 41  1  0  0  0  0
 42 43  1  0  0  0  0
 42 40  2  0  0  0  0
 44 46  1  0  0  0  0
 44 42  1  0  0  0  0
 45 44  1  0  0  0  0
 46 39  2  0  0  0  0
M  END
>  <minimizedAffinity>
-6.12256527

$$$$

 OpenBabel03252503253D

 46 51  0  0  1  0  0  0  0  0999 V2000
   37.5210   30.3280   39.6580 C   0  0  1  0  0  0  0  0  0  0  0  0
   36.6360   31.2980   40.2980 C   0  0  0  0  0  0  0  0  0  0  0  0
   38.0450   31.2430   40.7560 C   0  0  2  0  0  0  0  0  0  0  0  0
   37.9260   30.5170   38.6490 H   0  0  0  0  0  0  0  0  0  0  0  0
   36.1910   32.0410   39.6500 H   0  0  0  0  0  0  0  0  0  0  0  0
   35.8350   30.8160   40.9510 H   0  0  0  0  0  0  0  0  0  0  0  0
   38.2510   30.7560   41.7300 H   0  0  0  0  0  0  0  0  0  0  0  0
   38.9590   32.3100   40.2680 C   0  0  0  0  0  0  0  0  0  0  0  0
   38.9210   33.6220   40.6880 C   0  0  0  0  0  0  0  0  0  0  0  0
   39.8070   34.5680   40.1890 C   0  0  0  0  0  0  0  0  0  0  0  0
   40.7470   34.1980   39.2550 C   0  0  0  0  0  0  0  0  0  0  0  0
   41.6300   35.0980   38.7550 N   0  0  0  0  0  0  0  0  0  0  0  0
   42.5540   34.7070   37.8380 C   0  0  0  0  0  0  0  0  0  0  0  0
   42.6650   33.3890   37.3490 C   0  0  0  0  0  0  0  0  0  0  0  0
   41.7800   32.4710   37.8450 C   0  0  0  0  0  0  0  0  0  0  0  0
   40.8310   32.8820   38.7910 C   0  0  0  0  0  0  0  0  0  0  0  0
   39.9270   31.9800   39.3190 C   0  0  0  0  0  0  0  0  0  0  0  0
   38.1730   33.8970   41.4250 H   0  0  0  0  0  0  0  0  0  0  0  0
   39.7570   35.5940   40.5360 H   0  0  0  0  0  0  0  0  0  0  0  0
   43.2680   35.4230   37.4320 H   0  0  0  0  0  0  0  0  0  0  0  0
   43.4300   33.1660   36.6190 H   0  0  0  0  0  0  0  0  0  0  0  0
   41.8180   31.4450   37.5060 H   0  0  0  0  0  0  0  0  0  0  0  0
   40.0480   30.9860   38.9090 H   0  0  0  0  0  0  0  0  0  0  0  0
   38.2300   27.9390   39.2680 C   0  0  0  0  0  0  0  0  0  0  0  0
   37.4190   28.8770   39.9930 C   0  0  0  0  0  0  0  0  0  0  0  0
   36.5780   28.3870   40.9580 C   0  0  0  0  0  0  0  0  0  0  0  0
   36.5830   27.0370   41.1470 N   0  0  0  0  0  0  0  0  0  0  0  0
   37.3390   26.1670   40.4690 C   0  0  0  0  0  0  0  0  0  0  0  0
   38.1710   26.6230   39.5210 N   0  0  0  0  0  0  0  0  0  0  0  0
   38.8970   28.3480   38.5000 H   0  0  0  0  0  0  0  0  0  0  0  0
   35.9530   29.0590   41.5250 H   0  0  0  0  0  0  0  0  0  0  0  0
   37.2220   24.7320   40.8090 C   0  0  2  0  0  0  0  0  0  0  0  0
   36.9120   24.2650   42.1470 C   0  0  0  0  0  0  0  0  0  0  0  0
   38.3440   24.2070   41.7530 C   0  0  2  0  0  0  0  0  0  0  0  0
   37.0170   24.0650   39.9370 H   0  0  0  0  0  0  0  0  0  0  0  0
   36.3180   23.3260   42.2530 H   0  0  0  0  0  0  0  0  0  0  0  0
   36.5710   25.0200   42.8970 H   0  0  0  0  0  0  0  0  0  0  0  0
   38.7440   23.2300   41.3850 H   0  0  0  0  0  0  0  0  0  0  0  0
   39.2510   25.1680   42.3780 C   0  0  0  0  0  0  0  0  0  0  0  0
   39.2290   26.0620   43.4270 C   0  0  0  0  0  0  0  0  0  0  0  0
   38.3480   26.1540   44.0430 H   0  0  0  0  0  0  0  0  0  0  0  0
   40.4170   26.7480   43.5530 C   0  0  0  0  0  0  0  0  0  0  0  0
   40.6110   27.4970   44.3120 H   0  0  0  0  0  0  0  0  0  0  0  0
   41.1630   26.2470   42.5520 N   0  0  0  0  0  0  0  0  0  0  0  0
   42.1560   26.5660   42.3640 H   0  0  0  0  0  0  0  0  0  0  0  0
   40.5100   25.3460   41.8760 N   0  0  0  0  0  0  0  0  0  0  0  0
  1  4  1  6  0  0  0
  1 25  1  0  0  0  0
  1  2  1  0  0  0  0
  1  3  1  0  0  0  0
  2  3  1  0  0  0  0
  2  6  1  0  0  0  0
  3  7  1  1  0  0  0
  5  2  1  0  0  0  0
  8  9  1  0  0  0  0
  8  3  1  0  0  0  0
  9 18  1  0  0  0  0
 10 19  1  0  0  0  0
 10  9  2  0  0  0  0
 11 10  1  0  0  0  0
 12 11  2  0  0  0  0
 13 12  1  0  0  0  0
 14 13  2  0  0  0  0
 14 15  1  0  0  0  0
 15 16  2  0  0  0  0
 16 11  1  0  0  0  0
 16 17  1  0  0  0  0
 17  8  2  0  0  0  0
 20 13  1  0  0  0  0
 21 14  1  0  0  0  0
 22 15  1  0  0  0  0
 23 17  1  0  0  0  0
 24 29  2  0  0  0  0
 24 25  1  0  0  0  0
 25 26  2  0  0  0  0
 26 27  1  0  0  0  0
 26 31  1  0  0  0  0
 28 32  1  0  0  0  0
 28 27  2  0  0  0  0
 29 28  1  0  0  0  0
 30 24  1  0  0  0  0
 32 35  1  6  0  0  0
 32 34  1  0  0  0  0
 32 33  1  0  0  0  0
 33 36  1  0  0  0  0
 33 37  1  0  0  0  0
 34 38  1  6  0  0  0
 34 33  1  0  0  0  0
 34 39  1  0  0  0  0
 39 40  1  0  0  0  0
 40 42  2  0  0  0  0
 40 41  1  0  0  0  0
 42 43  1  0  0  0  0
 44 42  1  0  0  0  0
 45 44  1  0  0  0  0
 46 39  2  0  0  0  0
 46 44  1  0  0  0  0
M  END
>  <minimizedAffinity>
-5.97535563

$$$$

 OpenBabel03252503253D

 46 51  0  0  1  0  0  0  0  0999 V2000
   35.5030   29.4360   38.3160 C   0  0  1  0  0  0  0  0  0  0  0  0
   35.5710   28.6290   37.1000 C   0  0  0  0  0  0  0  0  0  0  0  0
   34.3910   28.4530   37.9820 C   0  0  2  0  0  0  0  0  0  0  0  0
   35.2250   30.5030   38.2680 H   0  0  0  0  0  0  0  0  0  0  0  0
   35.6100   29.1730   36.1660 H   0  0  0  0  0  0  0  0  0  0  0  0
   36.3910   27.8370   37.1290 H   0  0  0  0  0  0  0  0  0  0  0  0
   34.3500   27.5410   38.6100 H   0  0  0  0  0  0  0  0  0  0  0  0
   33.1220   29.1000   37.5530 C   0  0  0  0  0  0  0  0  0  0  0  0
   32.1230   29.5040   38.4130 C   0  0  0  0  0  0  0  0  0  0  0  0
   30.9620   30.1030   37.9420 C   0  0  0  0  0  0  0  0  0  0  0  0
   30.7950   30.3010   36.5910 C   0  0  0  0  0  0  0  0  0  0  0  0
   29.6740   30.8910   36.1030 N   0  0  0  0  0  0  0  0  0  0  0  0
   29.5340   31.0820   34.7640 C   0  0  0  0  0  0  0  0  0  0  0  0
   30.5020   30.6990   33.8120 C   0  0  0  0  0  0  0  0  0  0  0  0
   31.6370   30.1030   34.2910 C   0  0  0  0  0  0  0  0  0  0  0  0
   31.7740   29.9100   35.6730 C   0  0  0  0  0  0  0  0  0  0  0  0
   32.9090   29.3200   36.1920 C   0  0  0  0  0  0  0  0  0  0  0  0
   32.2720   29.3400   39.4750 H   0  0  0  0  0  0  0  0  0  0  0  0
   30.1910   30.4120   38.6400 H   0  0  0  0  0  0  0  0  0  0  0  0
   28.6390   31.5550   34.3640 H   0  0  0  0  0  0  0  0  0  0  0  0
   30.3080   30.8890   32.7660 H   0  0  0  0  0  0  0  0  0  0  0  0
   32.4120   29.7880   33.6070 H   0  0  0  0  0  0  0  0  0  0  0  0
   33.6170   29.0390   35.4230 H   0  0  0  0  0  0  0  0  0  0  0  0
   35.7500   29.0270   40.7920 C   0  0  0  0  0  0  0  0  0  0  0  0
   36.3570   29.1000   39.4930 C   0  0  0  0  0  0  0  0  0  0  0  0
   37.7040   28.8650   39.4010 C   0  0  0  0  0  0  0  0  0  0  0  0
   38.3580   28.5810   40.5630 N   0  0  0  0  0  0  0  0  0  0  0  0
   37.7890   28.5140   41.7710 C   0  0  0  0  0  0  0  0  0  0  0  0
   36.4720   28.7400   41.8870 N   0  0  0  0  0  0  0  0  0  0  0  0
   34.6720   29.2190   40.8490 H   0  0  0  0  0  0  0  0  0  0  0  0
   38.1980   28.9100   38.4430 H   0  0  0  0  0  0  0  0  0  0  0  0
   38.6500   28.1860   42.9280 C   0  0  2  0  0  0  0  0  0  0  0  0
   39.8900   27.4460   42.7980 C   0  0  0  0  0  0  0  0  0  0  0  0
   38.7140   26.6660   43.2650 C   0  0  2  0  0  0  0  0  0  0  0  0
   38.4950   28.8400   43.8210 H   0  0  0  0  0  0  0  0  0  0  0  0
   40.7230   27.6850   43.5020 H   0  0  0  0  0  0  0  0  0  0  0  0
   40.2950   27.2820   41.7700 H   0  0  0  0  0  0  0  0  0  0  0  0
   38.6000   26.5010   44.3640 H   0  0  0  0  0  0  0  0  0  0  0  0
   38.1290   25.7090   42.3270 C   0  0  0  0  0  0  0  0  0  0  0  0
   36.9140   25.0930   42.1200 C   0  0  0  0  0  0  0  0  0  0  0  0
   36.0760   25.3150   42.7620 H   0  0  0  0  0  0  0  0  0  0  0  0
   36.9420   24.2320   41.0440 C   0  0  0  0  0  0  0  0  0  0  0  0
   36.0930   23.6470   40.7080 H   0  0  0  0  0  0  0  0  0  0  0  0
   38.2070   24.3420   40.6030 N   0  0  0  0  0  0  0  0  0  0  0  0
   38.5710   23.8000   39.7670 H   0  0  0  0  0  0  0  0  0  0  0  0
   38.8940   25.1800   41.3240 N   0  0  0  0  0  0  0  0  0  0  0  0
  1  4  1  6  0  0  0
  1 25  1  0  0  0  0
  2  6  1  0  0  0  0
  2  3  1  0  0  0  0
  2  1  1  0  0  0  0
  3  1  1  0  0  0  0
  3  7  1  1  0  0  0
  5  2  1  0  0  0  0
  8  3  1  0  0  0  0
  8  9  1  0  0  0  0
  9 18  1  0  0  0  0
 10  9  2  0  0  0  0
 10 19  1  0  0  0  0
 11 10  1  0  0  0  0
 12 11  1  0  0  0  0
 13 12  2  0  0  0  0
 14 15  2  0  0  0  0
 14 13  1  0  0  0  0
 15 16  1  0  0  0  0
 16 17  1  0  0  0  0
 16 11  2  0  0  0  0
 17  8  2  0  0  0  0
 20 13  1  0  0  0  0
 21 14  1  0  0  0  0
 22 15  1  0  0  0  0
 23 17  1  0  0  0  0
 24 30  1  0  0  0  0
 24 29  1  0  0  0  0
 25 24  2  0  0  0  0
 26 25  1  0  0  0  0
 26 27  2  0  0  0  0
 27 28  1  0  0  0  0
 28 29  2  0  0  0  0
 28 32  1  0  0  0  0
 31 26  1  0  0  0  0
 32 34  1  0  0  0  0
 32 35  1  1  0  0  0
 33 32  1  0  0  0  0
 33 34  1  0  0  0  0
 33 36  1  0  0  0  0
 34 38  1  1  0  0  0
 37 33  1  0  0  0  0
 39 34  1  0  0  0  0
 40 39  1  0  0  0  0
 40 41  1  0  0  0  0
 42 40  2  0  0  0  0
 43 42  1  0  0  0  0
 44 42  1  0  0  0  0
 44 46  1  0  0  0  0
 45 44  1  0  0  0  0
 46 39  2  0  0  0  0
M  END
>  <minimizedAffinity>
-5.93341732

$$$$

 OpenBabel03252503253D

 46 51  0  0  1  0  0  0  0  0999 V2000
   39.4690   27.7950   41.8700 C   0  0  1  0  0  0  0  0  0  0  0  0
   38.7400   27.7160   43.1340 C   0  0  0  0  0  0  0  0  0  0  0  0
   37.9490   27.7460   41.8800 C   0  0  2  0  0  0  0  0  0  0  0  0
   39.9710   26.9050   41.4530 H   0  0  0  0  0  0  0  0  0  0  0  0
   38.9460   26.8520   43.7520 H   0  0  0  0  0  0  0  0  0  0  0  0
   38.8080   28.6690   43.7550 H   0  0  0  0  0  0  0  0  0  0  0  0
   37.4350   28.6930   41.6190 H   0  0  0  0  0  0  0  0  0  0  0  0
   37.3830   26.4560   41.4040 C   0  0  0  0  0  0  0  0  0  0  0  0
   37.2910   25.3140   42.1700 C   0  0  0  0  0  0  0  0  0  0  0  0
   36.7500   24.1410   41.6580 C   0  0  0  0  0  0  0  0  0  0  0  0
   36.2920   24.1090   40.3610 C   0  0  0  0  0  0  0  0  0  0  0  0
   35.7510   22.9790   39.8380 N   0  0  0  0  0  0  0  0  0  0  0  0
   35.3000   22.9730   38.5560 C   0  0  0  0  0  0  0  0  0  0  0  0
   35.3550   24.0920   37.7000 C   0  0  0  0  0  0  0  0  0  0  0  0
   35.8990   25.2370   38.2150 C   0  0  0  0  0  0  0  0  0  0  0  0
   36.3610   25.2360   39.5390 C   0  0  0  0  0  0  0  0  0  0  0  0
   36.9080   26.3760   40.0940 C   0  0  0  0  0  0  0  0  0  0  0  0
   37.6570   25.3570   43.1900 H   0  0  0  0  0  0  0  0  0  0  0  0
   36.6880   23.2560   42.2830 H   0  0  0  0  0  0  0  0  0  0  0  0
   34.8630   22.0720   38.1280 H   0  0  0  0  0  0  0  0  0  0  0  0
   34.9730   23.9990   36.6930 H   0  0  0  0  0  0  0  0  0  0  0  0
   35.9670   26.1260   37.6040 H   0  0  0  0  0  0  0  0  0  0  0  0
   36.9330   27.2040   39.3980 H   0  0  0  0  0  0  0  0  0  0  0  0
   40.0450   30.2080   42.3250 C   0  0  0  0  0  0  0  0  0  0  0  0
   40.0910   29.0810   41.4370 C   0  0  0  0  0  0  0  0  0  0  0  0
   40.7020   29.2470   40.2210 C   0  0  0  0  0  0  0  0  0  0  0  0
   41.2170   30.4820   39.9580 N   0  0  0  0  0  0  0  0  0  0  0  0
   41.1710   31.5290   40.7880 C   0  0  0  0  0  0  0  0  0  0  0  0
   40.5790   31.3910   41.9830 N   0  0  0  0  0  0  0  0  0  0  0  0
   39.5520   30.0580   43.2930 H   0  0  0  0  0  0  0  0  0  0  0  0
   40.7590   28.4250   39.5260 H   0  0  0  0  0  0  0  0  0  0  0  0
   41.7870   32.7970   40.3410 C   0  0  2  0  0  0  0  0  0  0  0  0
   41.4060   34.0880   40.8800 C   0  0  0  0  0  0  0  0  0  0  0  0
   40.8200   33.7360   39.5600 C   0  0  2  0  0  0  0  0  0  0  0  0
   42.7900   32.6810   39.8600 H   0  0  0  0  0  0  0  0  0  0  0  0
   42.1890   34.8800   40.9560 H   0  0  0  0  0  0  0  0  0  0  0  0
   40.7590   34.1020   41.7900 H   0  0  0  0  0  0  0  0  0  0  0  0
   41.3160   34.1400   38.6440 H   0  0  0  0  0  0  0  0  0  0  0  0
   39.3950   33.4120   39.5240 C   0  0  0  0  0  0  0  0  0  0  0  0
   38.5510   32.5910   38.8070 C   0  0  0  0  0  0  0  0  0  0  0  0
   38.9450   31.9480   38.0360 H   0  0  0  0  0  0  0  0  0  0  0  0
   37.2390   32.7110   39.2120 C   0  0  0  0  0  0  0  0  0  0  0  0
   36.4140   32.1560   38.7800 H   0  0  0  0  0  0  0  0  0  0  0  0
   37.3080   33.6260   40.1950 N   0  0  0  0  0  0  0  0  0  0  0  0
   36.4560   33.9540   40.7320 H   0  0  0  0  0  0  0  0  0  0  0  0
   38.5310   34.0330   40.3830 N   0  0  0  0  0  0  0  0  0  0  0  0
  1  4  1  6  0  0  0
  1  3  1  0  0  0  0
  1  2  1  0  0  0  0
  2  5  1  0  0  0  0
  2  6  1  0  0  0  0
  3  7  1  6  0  0  0
  3  2  1  0  0  0  0
  8  3  1  0  0  0  0
  8  9  1  0  0  0  0
  9 18  1  0  0  0  0
 10  9  2  0  0  0  0
 10 19  1  0  0  0  0
 11 10  1  0  0  0  0
 12 11  1  0  0  0  0
 13 12  2  0  0  0  0
 14 15  2  0  0  0  0
 14 13  1  0  0  0  0
 15 16  1  0  0  0  0
 16 17  1  0  0  0  0
 16 11  2  0  0  0  0
 17  8  2  0  0  0  0
 20 13  1  0  0  0  0
 21 14  1  0  0  0  0
 22 15  1  0  0  0  0
 23 17  1  0  0  0  0
 24 30  1  0  0  0  0
 25  1  1  0  0  0  0
 25 24  2  0  0  0  0
 26 25  1  0  0  0  0
 27 26  2  0  0  0  0
 27 28  1  0  0  0  0
 28 29  2  0  0  0  0
 29 24  1  0  0  0  0
 31 26  1  0  0  0  0
 32 35  1  6  0  0  0
 32 28  1  0  0  0  0
 32 33  1  0  0  0  0
 33 36  1  0  0  0  0
 33 37  1  0  0  0  0
 34 38  1  6  0  0  0
 34 32  1  0  0  0  0
 34 33  1  0  0  0  0
 39 34  1  0  0  0  0
 39 46  2  0  0  0  0
 40 42  2  0  0  0  0
 40 39  1  0  0  0  0
 41 40  1  0  0  0  0
 42 44  1  0  0  0  0
 43 42  1  0  0  0  0
 44 46  1  0  0  0  0
 44 45  1  0  0  0  0
M  END
>  <minimizedAffinity>
-5.89012575

$$$$

 OpenBabel03252503253D

 46 51  0  0  1  0  0  0  0  0999 V2000
   39.0550   29.3610   41.6310 C   0  0  1  0  0  0  0  0  0  0  0  0
   38.2000   29.4540   42.8120 C   0  0  0  0  0  0  0  0  0  0  0  0
   37.5710   29.0400   41.5340 C   0  0  2  0  0  0  0  0  0  0  0  0
   39.7370   28.5030   41.4960 H   0  0  0  0  0  0  0  0  0  0  0  0
   38.4630   28.8150   43.6440 H   0  0  0  0  0  0  0  0  0  0  0  0
   38.0420   30.5240   43.1720 H   0  0  0  0  0  0  0  0  0  0  0  0
   36.9510   29.7880   41.0000 H   0  0  0  0  0  0  0  0  0  0  0  0
   37.2760   27.5930   41.3610 C   0  0  0  0  0  0  0  0  0  0  0  0
   37.3400   26.6570   42.3720 C   0  0  0  0  0  0  0  0  0  0  0  0
   37.0500   25.3190   42.1370 C   0  0  0  0  0  0  0  0  0  0  0  0
   36.6910   24.9080   40.8740 C   0  0  0  0  0  0  0  0  0  0  0  0
   36.3950   23.6090   40.6190 N   0  0  0  0  0  0  0  0  0  0  0  0
   36.0360   23.2280   39.3640 C   0  0  0  0  0  0  0  0  0  0  0  0
   35.9470   24.1140   38.2710 C   0  0  0  0  0  0  0  0  0  0  0  0
   36.2430   25.4270   38.5160 C   0  0  0  0  0  0  0  0  0  0  0  0
   36.6110   25.8120   39.8120 C   0  0  0  0  0  0  0  0  0  0  0  0
   36.9090   27.1310   40.0970 C   0  0  0  0  0  0  0  0  0  0  0  0
   37.6250   26.9980   43.3610 H   0  0  0  0  0  0  0  0  0  0  0  0
   37.1080   24.6020   42.9500 H   0  0  0  0  0  0  0  0  0  0  0  0
   35.7960   22.1870   39.1500 H   0  0  0  0  0  0  0  0  0  0  0  0
   35.6530   23.7250   37.3060 H   0  0  0  0  0  0  0  0  0  0  0  0
   36.1910   26.1520   37.7140 H   0  0  0  0  0  0  0  0  0  0  0  0
   36.8320   27.7690   39.2270 H   0  0  0  0  0  0  0  0  0  0  0  0
   40.3670   30.4700   39.7840 C   0  0  0  0  0  0  0  0  0  0  0  0
   39.5160   30.5970   40.9330 C   0  0  0  0  0  0  0  0  0  0  0  0
   39.1750   31.8610   41.3410 C   0  0  0  0  0  0  0  0  0  0  0  0
   39.6790   32.8980   40.6130 N   0  0  0  0  0  0  0  0  0  0  0  0
   40.4710   32.7740   39.5440 C   0  0  0  0  0  0  0  0  0  0  0  0
   40.8190   31.5480   39.1250 N   0  0  0  0  0  0  0  0  0  0  0  0
   40.6310   29.4520   39.4710 H   0  0  0  0  0  0  0  0  0  0  0  0
   38.5370   32.0000   42.2000 H   0  0  0  0  0  0  0  0  0  0  0  0
   40.9230   34.0090   38.8680 C   0  0  2  0  0  0  0  0  0  0  0  0
   42.1960   34.1070   38.1800 C   0  0  0  0  0  0  0  0  0  0  0  0
   42.1470   34.6950   39.5440 C   0  0  2  0  0  0  0  0  0  0  0  0
   40.1010   34.7170   38.5970 H   0  0  0  0  0  0  0  0  0  0  0  0
   42.2620   34.7690   37.2830 H   0  0  0  0  0  0  0  0  0  0  0  0
   42.7660   33.1630   38.0010 H   0  0  0  0  0  0  0  0  0  0  0  0
   41.9830   35.7970   39.6320 H   0  0  0  0  0  0  0  0  0  0  0  0
   42.8580   33.9860   40.6070 C   0  0  0  0  0  0  0  0  0  0  0  0
   43.7390   32.9320   40.7200 C   0  0  0  0  0  0  0  0  0  0  0  0
   44.0840   32.4160   39.8380 H   0  0  0  0  0  0  0  0  0  0  0  0
   44.0830   32.6780   42.0300 C   0  0  0  0  0  0  0  0  0  0  0  0
   44.7620   31.8930   42.3410 H   0  0  0  0  0  0  0  0  0  0  0  0
   43.3870   33.6070   42.7100 N   0  0  0  0  0  0  0  0  0  0  0  0
   43.4270   33.6910   43.7650 H   0  0  0  0  0  0  0  0  0  0  0  0
   42.6860   34.3580   41.9110 N   0  0  0  0  0  0  0  0  0  0  0  0
  1  4  1  6  0  0  0
  1  2  1  0  0  0  0
  2  6  1  0  0  0  0
  2  5  1  0  0  0  0
  3  7  1  6  0  0  0
  3  1  1  0  0  0  0
  3  2  1  0  0  0  0
  8  3  1  0  0  0  0
  8  9  1  0  0  0  0
  9 18  1  0  0  0  0
 10  9  2  0  0  0  0
 10 19  1  0  0  0  0
 11 10  1  0  0  0  0
 12 11  1  0  0  0  0
 13 12  2  0  0  0  0
 14 15  2  0  0  0  0
 14 13  1  0  0  0  0
 15 16  1  0  0  0  0
 16 17  1  0  0  0  0
 16 11  2  0  0  0  0
 17  8  2  0  0  0  0
 20 13  1  0  0  0  0
 21 14  1  0  0  0  0
 22 15  1  0  0  0  0
 23 17  1  0  0  0  0
 24 25  1  0  0  0  0
 25 26  2  0  0  0  0
 25  1  1  0  0  0  0
 26 31  1  0  0  0  0
 27 26  1  0  0  0  0
 28 27  2  0  0  0  0
 29 28  1  0  0  0  0
 29 24  2  0  0  0  0
 30 24  1  0  0  0  0
 32 35  1  6  0  0  0
 32 34  1  0  0  0  0
 32 28  1  0  0  0  0
 33 32  1  0  0  0  0
 33 34  1  0  0  0  0
 34 38  1  1  0  0  0
 34 39  1  0  0  0  0
 36 33  1  0  0  0  0
 37 33  1  0  0  0  0
 39 40  1  0  0  0  0
 39 46  2  0  0  0  0
 40 42  2  0  0  0  0
 41 40  1  0  0  0  0
 42 43  1  0  0  0  0
 42 44  1  0  0  0  0
 44 45  1  0  0  0  0
 46 44  1  0  0  0  0
M  END
>  <minimizedAffinity>
-5.78231812

$$$$

 OpenBabel03252503253D

 46 51  0  0  1  0  0  0  0  0999 V2000
   39.1180   28.0350   41.9220 C   0  0  1  0  0  0  0  0  0  0  0  0
   38.9400   27.4700   43.2570 C   0  0  0  0  0  0  0  0  0  0  0  0
   37.7940   27.4000   42.3190 C   0  0  2  0  0  0  0  0  0  0  0  0
   39.6940   27.4920   41.1530 H   0  0  0  0  0  0  0  0  0  0  0  0
   39.6090   26.6640   43.5280 H   0  0  0  0  0  0  0  0  0  0  0  0
   38.9180   28.2570   44.0810 H   0  0  0  0  0  0  0  0  0  0  0  0
   36.9530   28.1030   42.4810 H   0  0  0  0  0  0  0  0  0  0  0  0
   37.5320   26.0900   41.6640 C   0  0  0  0  0  0  0  0  0  0  0  0
   37.9280   24.8710   42.1720 C   0  0  0  0  0  0  0  0  0  0  0  0
   37.6480   23.6850   41.5060 C   0  0  0  0  0  0  0  0  0  0  0  0
   36.9630   23.7160   40.3130 C   0  0  0  0  0  0  0  0  0  0  0  0
   36.6690   22.5720   39.6440 N   0  0  0  0  0  0  0  0  0  0  0  0
   35.9860   22.6280   38.4710 C   0  0  0  0  0  0  0  0  0  0  0  0
   35.5450   23.8280   37.8760 C   0  0  0  0  0  0  0  0  0  0  0  0
   35.8350   24.9890   38.5400 C   0  0  0  0  0  0  0  0  0  0  0  0
   36.5390   24.9230   39.7510 C   0  0  0  0  0  0  0  0  0  0  0  0
   36.8420   26.0740   40.4520 C   0  0  0  0  0  0  0  0  0  0  0  0
   38.4670   24.8650   43.1140 H   0  0  0  0  0  0  0  0  0  0  0  0
   37.9700   22.7380   41.9270 H   0  0  0  0  0  0  0  0  0  0  0  0
   35.7450   21.7150   37.9270 H   0  0  0  0  0  0  0  0  0  0  0  0
   35.0070   23.7800   36.9400 H   0  0  0  0  0  0  0  0  0  0  0  0
   35.5210   25.9390   38.1310 H   0  0  0  0  0  0  0  0  0  0  0  0
   36.4890   26.9660   39.9530 H   0  0  0  0  0  0  0  0  0  0  0  0
   38.1450   30.0910   40.8320 C   0  0  0  0  0  0  0  0  0  0  0  0
   39.1130   29.5140   41.7220 C   0  0  0  0  0  0  0  0  0  0  0  0
   39.9990   30.3580   42.3400 C   0  0  0  0  0  0  0  0  0  0  0  0
   39.8830   31.6860   42.0540 N   0  0  0  0  0  0  0  0  0  0  0  0
   38.9800   32.2190   41.2240 C   0  0  0  0  0  0  0  0  0  0  0  0
   38.1030   31.4130   40.6070 N   0  0  0  0  0  0  0  0  0  0  0  0
   37.4450   29.4020   40.3450 H   0  0  0  0  0  0  0  0  0  0  0  0
   40.7410   29.9640   43.0160 H   0  0  0  0  0  0  0  0  0  0  0  0
   38.9930   33.6850   41.0330 C   0  0  2  0  0  0  0  0  0  0  0  0
   38.4830   34.3260   39.8360 C   0  0  0  0  0  0  0  0  0  0  0  0
   39.9600   34.1740   39.9140 C   0  0  2  0  0  0  0  0  0  0  0  0
   39.0630   34.2750   41.9800 H   0  0  0  0  0  0  0  0  0  0  0  0
   38.0130   35.3340   39.9350 H   0  0  0  0  0  0  0  0  0  0  0  0
   37.8970   33.7000   39.1190 H   0  0  0  0  0  0  0  0  0  0  0  0
   40.5560   35.0520   40.2640 H   0  0  0  0  0  0  0  0  0  0  0  0
   40.5800   33.1860   39.0330 C   0  0  0  0  0  0  0  0  0  0  0  0
   40.2320   32.4400   37.9280 C   0  0  0  0  0  0  0  0  0  0  0  0
   39.2510   32.5430   37.4910 H   0  0  0  0  0  0  0  0  0  0  0  0
   41.2580   31.6230   37.5050 C   0  0  0  0  0  0  0  0  0  0  0  0
   41.1940   30.9550   36.6540 H   0  0  0  0  0  0  0  0  0  0  0  0
   42.2400   31.8930   38.3840 N   0  0  0  0  0  0  0  0  0  0  0  0
   43.1890   31.4240   38.3420 H   0  0  0  0  0  0  0  0  0  0  0  0
   41.8670   32.7810   39.2580 N   0  0  0  0  0  0  0  0  0  0  0  0
  1  4  1  6  0  0  0
  1  3  1  0  0  0  0
  1  2  1  0  0  0  0
  2  5  1  0  0  0  0
  2  6  1  0  0  0  0
  3  7  1  1  0  0  0
  3  2  1  0  0  0  0
  8  9  1  0  0  0  0
  8  3  1  0  0  0  0
  9 18  1  0  0  0  0
 10 19  1  0  0  0  0
 10  9  2  0  0  0  0
 11 10  1  0  0  0  0
 12 11  2  0  0  0  0
 13 12  1  0  0  0  0
 14 13  2  0  0  0  0
 14 15  1  0  0  0  0
 15 16  2  0  0  0  0
 16 11  1  0  0  0  0
 16 17  1  0  0  0  0
 17  8  2  0  0  0  0
 20 13  1  0  0  0  0
 21 14  1  0  0  0  0
 22 15  1  0  0  0  0
 23 17  1  0  0  0  0
 24 25  1  0  0  0  0
 25  1  1  0  0  0  0
 25 26  2  0  0  0  0
 26 31  1  0  0  0  0
 27 26  1  0  0  0  0
 28 27  2  0  0  0  0
 29 24  2  0  0  0  0
 29 28  1  0  0  0  0
 30 24  1  0  0  0  0
 32 28  1  0  0  0  0
 32 35  1  1  0  0  0
 33 34  1  0  0  0  0
 33 36  1  0  0  0  0
 33 32  1  0  0  0  0
 34 38  1  1  0  0  0
 34 32  1  0  0  0  0
 37 33  1  0  0  0  0
 39 46  2  0  0  0  0
 39 34  1  0  0  0  0
 40 39  1  0  0  0  0
 41 40  1  0  0  0  0
 42 40  2  0  0  0  0
 42 44  1  0  0  0  0
 43 42  1  0  0  0  0
 44 46  1  0  0  0  0
 45 44  1  0  0  0  0
M  END
>  <minimizedAffinity>
-5.77263403

$$$$

 OpenBabel03252503253D

 46 51  0  0  1  0  0  0  0  0999 V2000
   37.6620   30.5840   40.1280 C   0  0  1  0  0  0  0  0  0  0  0  0
   36.7610   31.6680   40.5140 C   0  0  0  0  0  0  0  0  0  0  0  0
   38.1420   31.6910   41.0540 C   0  0  2  0  0  0  0  0  0  0  0  0
   38.1260   30.5680   39.1260 H   0  0  0  0  0  0  0  0  0  0  0  0
   36.3680   32.2730   39.7080 H   0  0  0  0  0  0  0  0  0  0  0  0
   35.9160   31.3300   41.2000 H   0  0  0  0  0  0  0  0  0  0  0  0
   38.2840   31.4020   42.1150 H   0  0  0  0  0  0  0  0  0  0  0  0
   39.1020   32.6340   40.4220 C   0  0  0  0  0  0  0  0  0  0  0  0
   39.0460   34.0060   40.5490 C   0  0  0  0  0  0  0  0  0  0  0  0
   39.9790   34.8280   39.9290 C   0  0  0  0  0  0  0  0  0  0  0  0
   40.9840   34.2720   39.1710 C   0  0  0  0  0  0  0  0  0  0  0  0
   41.9130   35.0500   38.5610 N   0  0  0  0  0  0  0  0  0  0  0  0
   42.9000   34.4770   37.8220 C   0  0  0  0  0  0  0  0  0  0  0  0
   43.0330   33.0850   37.6360 C   0  0  0  0  0  0  0  0  0  0  0  0
   42.1020   32.2900   38.2460 C   0  0  0  0  0  0  0  0  0  0  0  0
   41.0880   32.8880   39.0070 C   0  0  0  0  0  0  0  0  0  0  0  0
   40.1360   32.1150   39.6430 C   0  0  0  0  0  0  0  0  0  0  0  0
   38.2480   34.4270   41.1500 H   0  0  0  0  0  0  0  0  0  0  0  0
   39.9130   35.9050   40.0450 H   0  0  0  0  0  0  0  0  0  0  0  0
   43.6500   35.0930   37.3290 H   0  0  0  0  0  0  0  0  0  0  0  0
   43.8490   32.7150   37.0320 H   0  0  0  0  0  0  0  0  0  0  0  0
   42.1550   31.2150   38.1380 H   0  0  0  0  0  0  0  0  0  0  0  0
   40.2780   31.0570   39.4660 H   0  0  0  0  0  0  0  0  0  0  0  0
   38.6740   28.3920   40.8560 C   0  0  0  0  0  0  0  0  0  0  0  0
   37.5130   29.2270   40.7320 C   0  0  0  0  0  0  0  0  0  0  0  0
   36.3140   28.7280   41.1690 C   0  0  0  0  0  0  0  0  0  0  0  0
   36.3270   27.4680   41.6900 N   0  0  0  0  0  0  0  0  0  0  0  0
   37.4110   26.6930   41.8030 C   0  0  0  0  0  0  0  0  0  0  0  0
   38.5960   27.1590   41.3810 N   0  0  0  0  0  0  0  0  0  0  0  0
   39.6250   28.8060   40.5000 H   0  0  0  0  0  0  0  0  0  0  0  0
   35.4180   29.3250   41.0940 H   0  0  0  0  0  0  0  0  0  0  0  0
   37.2450   25.3500   42.3990 C   0  0  2  0  0  0  0  0  0  0  0  0
   38.1890   24.2710   42.1800 C   0  0  0  0  0  0  0  0  0  0  0  0
   36.9480   24.2250   41.3630 C   0  0  2  0  0  0  0  0  0  0  0  0
   36.5820   25.3210   43.2990 H   0  0  0  0  0  0  0  0  0  0  0  0
   38.3500   23.5350   43.0030 H   0  0  0  0  0  0  0  0  0  0  0  0
   39.1640   24.5220   41.6960 H   0  0  0  0  0  0  0  0  0  0  0  0
   36.1140   23.5710   41.7180 H   0  0  0  0  0  0  0  0  0  0  0  0
   37.0720   24.5250   39.9370 C   0  0  0  0  0  0  0  0  0  0  0  0
   38.0710   24.5970   38.9900 C   0  0  0  0  0  0  0  0  0  0  0  0
   39.0920   24.3730   39.2600 H   0  0  0  0  0  0  0  0  0  0  0  0
   37.5900   24.9570   37.7500 C   0  0  0  0  0  0  0  0  0  0  0  0
   38.2070   25.0710   36.8670 H   0  0  0  0  0  0  0  0  0  0  0  0
   36.2710   25.1030   37.9690 N   0  0  0  0  0  0  0  0  0  0  0  0
   35.5930   25.3820   37.2050 H   0  0  0  0  0  0  0  0  0  0  0  0
   35.9630   24.8590   39.2100 N   0  0  0  0  0  0  0  0  0  0  0  0
  1  4  1  6  0  0  0
  1  2  1  0  0  0  0
  1 25  1  0  0  0  0
  1  3  1  0  0  0  0
  2  3  1  0  0  0  0
  2  6  1  0  0  0  0
  3  7  1  1  0  0  0
  5  2  1  0  0  0  0
  8  9  1  0  0  0  0
  8  3  1  0  0  0  0
  9 18  1  0  0  0  0
 10 19  1  0  0  0  0
 10  9  2  0  0  0  0
 11 10  1  0  0  0  0
 12 11  2  0  0  0  0
 13 12  1  0  0  0  0
 14 13  2  0  0  0  0
 14 15  1  0  0  0  0
 15 16  2  0  0  0  0
 16 11  1  0  0  0  0
 16 17  1  0  0  0  0
 17  8  2  0  0  0  0
 20 13  1  0  0  0  0
 21 14  1  0  0  0  0
 22 15  1  0  0  0  0
 23 17  1  0  0  0  0
 24 29  1  0  0  0  0
 25 24  2  0  0  0  0
 25 26  1  0  0  0  0
 26 27  2  0  0  0  0
 27 28  1  0  0  0  0
 28 32  1  0  0  0  0
 29 28  2  0  0  0  0
 30 24  1  0  0  0  0
 31 26  1  0  0  0  0
 32 35  1  1  0  0  0
 33 32  1  0  0  0  0
 33 36  1  0  0  0  0
 34 38  1  1  0  0  0
 34 33  1  0  0  0  0
 34 32  1  0  0  0  0
 37 33  1  0  0  0  0
 39 34  1  0  0  0  0
 40 41  1  0  0  0  0
 40 39  1  0  0  0  0
 42 44  1  0  0  0  0
 42 40  2  0  0  0  0
 43 42  1  0  0  0  0
 44 46  1  0  0  0  0
 45 44  1  0  0  0  0
 46 39  2  0  0  0  0
M  END
>  <minimizedAffinity>
-5.75630283

$$$$
