
 OpenBabel03252509063D

 47 49  0  0  1  0  0  0  0  0999 V2000
   36.8300   29.0330   40.2500 N   0  0  0  0  0  0  0  0  0  0  0  0
   35.8340   28.1320   39.8150 C   0  0  0  0  0  0  0  0  0  0  0  0
   34.8980   28.6930   38.7610 C   0  0  0  0  0  0  0  0  0  0  0  0
   35.5510   29.6530   37.8080 C   0  0  0  0  0  0  0  0  0  0  0  0
   37.0280   29.7960   38.0700 C   0  0  0  0  0  0  0  0  0  0  0  0
   37.0950   30.2110   39.5940 C   0  0  2  0  0  0  0  0  0  0  0  0
   35.2070   27.6800   40.5850 H   0  0  0  0  0  0  0  0  0  0  0  0
   36.3590   27.2780   39.2940 H   0  0  0  0  0  0  0  0  0  0  0  0
   34.0000   29.1390   39.2570 H   0  0  0  0  0  0  0  0  0  0  0  0
   34.4830   27.8440   38.1660 H   0  0  0  0  0  0  0  0  0  0  0  0
   35.1020   30.6510   37.9670 H   0  0  0  0  0  0  0  0  0  0  0  0
   35.3530   29.3940   36.7470 H   0  0  0  0  0  0  0  0  0  0  0  0
   37.5930   28.8710   37.9170 H   0  0  0  0  0  0  0  0  0  0  0  0
   37.4330   30.6640   37.5330 H   0  0  0  0  0  0  0  0  0  0  0  0
   36.3750   31.0480   39.6870 H   0  0  0  0  0  0  0  0  0  0  0  0
   37.1160   28.9490   41.6630 C   0  0  0  0  0  0  0  0  0  0  0  0
   36.5520   29.7480   42.1800 H   0  0  0  0  0  0  0  0  0  0  0  0
   38.1940   29.1250   41.8240 H   0  0  0  0  0  0  0  0  0  0  0  0
   36.6340   27.6330   42.1620 C   0  0  0  0  0  0  0  0  0  0  0  0
   35.9070   27.7450   42.9970 H   0  0  0  0  0  0  0  0  0  0  0  0
   36.1230   27.0420   41.3660 H   0  0  0  0  0  0  0  0  0  0  0  0
   39.8320   26.6370   43.8640 C   0  0  0  0  0  0  0  0  0  0  0  0
   38.7280   27.3920   43.4330 C   0  0  0  0  0  0  0  0  0  0  0  0
   37.7860   26.8210   42.6040 C   0  0  0  0  0  0  0  0  0  0  0  0
   37.9820   25.5530   42.2540 N   0  0  0  0  0  0  0  0  0  0  0  0
   39.0330   24.8260   42.6620 C   0  0  0  0  0  0  0  0  0  0  0  0
   39.9700   25.3490   43.4690 N   0  0  0  0  0  0  0  0  0  0  0  0
   40.5570   27.1100   44.5140 H   0  0  0  0  0  0  0  0  0  0  0  0
   38.6370   28.4320   43.7650 H   0  0  0  0  0  0  0  0  0  0  0  0
   39.0280   23.8110   42.2770 H   0  0  0  0  0  0  0  0  0  0  0  0
   38.4100   30.6120   39.7170 O   0  0  0  0  0  0  0  0  0  0  0  0
   39.1190   32.0820   41.8080 O   0  0  0  0  0  0  0  0  0  0  0  0
   38.5710   32.1510   40.3800 P   0  0  2  0  0  0  0  0  0  0  0  0
   36.9840   32.7610   40.5310 O   0  0  0  0  0  0  0  0  0  0  0  0
   36.4700   32.6590   39.6970 H   0  0  0  0  0  0  0  0  0  0  0  0
   39.4330   33.1860   39.4060 O   0  0  0  0  0  0  0  0  0  0  0  0
   40.6740   33.4200   40.0030 C   0  0  0  0  0  0  0  0  0  0  0  0
   41.0130   32.5720   40.6310 H   0  0  0  0  0  0  0  0  0  0  0  0
   40.6630   34.3200   40.6490 H   0  0  0  0  0  0  0  0  0  0  0  0
   41.6340   33.6960   38.9000 C   0  0  0  0  0  0  0  0  0  0  0  0
   42.9130   34.2340   38.9420 C   0  0  0  0  0  0  0  0  0  0  0  0
   43.3930   34.5400   39.8830 H   0  0  0  0  0  0  0  0  0  0  0  0
   43.3700   34.2760   37.6340 C   0  0  0  0  0  0  0  0  0  0  0  0
   44.3670   34.6740   37.4760 H   0  0  0  0  0  0  0  0  0  0  0  0
   42.3930   33.7800   36.8500 N   0  0  0  0  0  0  0  0  0  0  0  0
   42.5630   33.7350   35.8160 H   0  0  0  0  0  0  0  0  0  0  0  0
   41.3560   33.4330   37.5980 N   0  0  0  0  0  0  0  0  0  0  0  0
  1 16  1  0  0  0  0
  2  1  1  0  0  0  0
  2  7  1  0  0  0  0
  3  9  1  0  0  0  0
  3  2  1  0  0  0  0
  4 11  1  0  0  0  0
  4  5  1  0  0  0  0
  4  3  1  0  0  0  0
  5  6  1  0  0  0  0
  6 15  1  1  0  0  0
  6 31  1  0  0  0  0
  6  1  1  0  0  0  0
  8  2  1  0  0  0  0
 10  3  1  0  0  0  0
 12  4  1  0  0  0  0
 13  5  1  0  0  0  0
 14  5  1  0  0  0  0
 16 18  1  0  0  0  0
 16 19  1  0  0  0  0
 16 17  1  0  0  0  0
 19 24  1  0  0  0  0
 19 20  1  0  0  0  0
 21 19  1  0  0  0  0
 22 28  1  0  0  0  0
 23 29  1  0  0  0  0
 23 22  2  0  0  0  0
 24 23  1  0  0  0  0
 25 24  2  0  0  0  0
 25 26  1  0  0  0  0
 26 27  2  0  0  0  0
 27 22  1  0  0  0  0
 30 26  1  0  0  0  0
 31 33  1  0  0  0  0
 33 34  1  0  0  0  0
 33 32  2  1  0  0  0
 35 34  1  0  0  0  0
 36 37  1  0  0  0  0
 36 33  1  0  0  0  0
 37 38  1  0  0  0  0
 37 39  1  0  0  0  0
 40 41  1  0  0  0  0
 40 37  1  0  0  0  0
 41 42  1  0  0  0  0
 43 41  2  0  0  0  0
 44 43  1  0  0  0  0
 45 47  1  0  0  0  0
 45 43  1  0  0  0  0
 46 45  1  0  0  0  0
 47 40  2  0  0  0  0
M  END
>  <minimizedAffinity>
-5.6508584

$$$$

 OpenBabel03252509063D

 47 49  0  0  1  0  0  0  0  0999 V2000
   37.4990   30.4940   41.6630 N   0  0  0  0  0  0  0  0  0  0  0  0
   37.3190   29.2790   42.3590 C   0  0  0  0  0  0  0  0  0  0  0  0
   38.5510   28.3940   42.4050 C   0  0  0  0  0  0  0  0  0  0  0  0
   39.8470   29.1500   42.4780 C   0  0  0  0  0  0  0  0  0  0  0  0
   39.6320   30.6390   42.5600 C   0  0  0  0  0  0  0  0  0  0  0  0
   38.7390   30.9540   41.2930 C   0  0  2  0  0  0  0  0  0  0  0  0
   36.4880   28.6470   42.0410 H   0  0  0  0  0  0  0  0  0  0  0  0
   37.1220   29.5380   43.4410 H   0  0  0  0  0  0  0  0  0  0  0  0
   38.5300   27.6780   41.5470 H   0  0  0  0  0  0  0  0  0  0  0  0
   38.4830   27.7380   43.3060 H   0  0  0  0  0  0  0  0  0  0  0  0
   40.4060   28.9600   41.5430 H   0  0  0  0  0  0  0  0  0  0  0  0
   40.4980   28.7910   43.3020 H   0  0  0  0  0  0  0  0  0  0  0  0
   39.1060   30.9590   43.4660 H   0  0  0  0  0  0  0  0  0  0  0  0
   40.5710   31.1760   42.3720 H   0  0  0  0  0  0  0  0  0  0  0  0
   39.2640   30.4590   40.4520 H   0  0  0  0  0  0  0  0  0  0  0  0
   36.3520   30.8950   40.8830 C   0  0  0  0  0  0  0  0  0  0  0  0
   36.7010   31.5490   40.0620 H   0  0  0  0  0  0  0  0  0  0  0  0
   35.6660   31.4770   41.5240 H   0  0  0  0  0  0  0  0  0  0  0  0
   35.7400   29.6770   40.2870 C   0  0  0  0  0  0  0  0  0  0  0  0
   36.1530   28.7440   40.7290 H   0  0  0  0  0  0  0  0  0  0  0  0
   34.6350   29.6430   40.4390 H   0  0  0  0  0  0  0  0  0  0  0  0
   35.2370   29.0180   36.6230 C   0  0  0  0  0  0  0  0  0  0  0  0
   35.0510   29.0270   38.0160 C   0  0  0  0  0  0  0  0  0  0  0  0
   35.9550   29.6810   38.8260 C   0  0  0  0  0  0  0  0  0  0  0  0
   36.9760   30.2830   38.2250 N   0  0  0  0  0  0  0  0  0  0  0  0
   37.1600   30.2790   36.8960 C   0  0  0  0  0  0  0  0  0  0  0  0
   36.3010   29.6530   36.0760 N   0  0  0  0  0  0  0  0  0  0  0  0
   34.5140   28.4970   36.0100 H   0  0  0  0  0  0  0  0  0  0  0  0
   34.1840   28.5070   38.4360 H   0  0  0  0  0  0  0  0  0  0  0  0
   38.0470   30.8220   36.5840 H   0  0  0  0  0  0  0  0  0  0  0  0
   38.8090   32.3320   41.2380 O   0  0  0  0  0  0  0  0  0  0  0  0
   40.0510   34.3030   39.9710 O   0  0  0  0  0  0  0  0  0  0  0  0
   39.4610   32.9010   39.7940 P   0  0  2  0  0  0  0  0  0  0  0  0
   38.1390   33.0950   38.7310 O   0  0  0  0  0  0  0  0  0  0  0  0
   37.5680   32.2920   38.7050 H   0  0  0  0  0  0  0  0  0  0  0  0
   40.5300   31.8320   39.1030 O   0  0  0  0  0  0  0  0  0  0  0  0
   40.6500   32.1440   37.7480 C   0  0  0  0  0  0  0  0  0  0  0  0
   39.8490   32.8220   37.3920 H   0  0  0  0  0  0  0  0  0  0  0  0
   40.6210   31.2410   37.1060 H   0  0  0  0  0  0  0  0  0  0  0  0
   41.9960   32.7540   37.5660 C   0  0  0  0  0  0  0  0  0  0  0  0
   43.2570   32.2020   37.7370 C   0  0  0  0  0  0  0  0  0  0  0  0
   43.4070   31.1590   38.0550 H   0  0  0  0  0  0  0  0  0  0  0  0
   44.1730   33.1980   37.4360 C   0  0  0  0  0  0  0  0  0  0  0  0
   45.2230   32.9400   37.5170 H   0  0  0  0  0  0  0  0  0  0  0  0
   43.4720   34.2990   37.0990 N   0  0  0  0  0  0  0  0  0  0  0  0
   44.0050   35.1640   36.8380 H   0  0  0  0  0  0  0  0  0  0  0  0
   42.1750   34.0410   37.1750 N   0  0  0  0  0  0  0  0  0  0  0  0
  1  2  1  0  0  0  0
  2  3  1  0  0  0  0
  2  8  1  0  0  0  0
  3  4  1  0  0  0  0
  3 10  1  0  0  0  0
  4  5  1  0  0  0  0
  4 12  1  0  0  0  0
  5 13  1  0  0  0  0
  6 15  1  6  0  0  0
  6  1  1  0  0  0  0
  6  5  1  0  0  0  0
  7  2  1  0  0  0  0
  9  3  1  0  0  0  0
 11  4  1  0  0  0  0
 14  5  1  0  0  0  0
 16 18  1  0  0  0  0
 16  1  1  0  0  0  0
 17 16  1  0  0  0  0
 19 21  1  0  0  0  0
 19 20  1  0  0  0  0
 19 16  1  0  0  0  0
 22 23  1  0  0  0  0
 23 29  1  0  0  0  0
 23 24  2  0  0  0  0
 24 19  1  0  0  0  0
 25 24  1  0  0  0  0
 26 25  2  0  0  0  0
 27 22  2  0  0  0  0
 27 26  1  0  0  0  0
 28 22  1  0  0  0  0
 30 26  1  0  0  0  0
 31  6  1  0  0  0  0
 33 32  2  1  0  0  0
 33 31  1  0  0  0  0
 34 33  1  0  0  0  0
 35 34  1  0  0  0  0
 36 33  1  0  0  0  0
 37 36  1  0  0  0  0
 38 37  1  0  0  0  0
 39 37  1  0  0  0  0
 40 41  1  0  0  0  0
 40 37  1  0  0  0  0
 41 42  1  0  0  0  0
 43 44  1  0  0  0  0
 43 41  2  0  0  0  0
 45 47  1  0  0  0  0
 45 43  1  0  0  0  0
 46 45  1  0  0  0  0
 47 40  2  0  0  0  0
M  END
>  <minimizedAffinity>
-5.35049725

$$$$

 OpenBabel03252509063D

 47 49  0  0  1  0  0  0  0  0999 V2000
   38.8410   28.7020   41.7990 N   0  0  0  0  0  0  0  0  0  0  0  0
   39.0210   27.9550   42.9840 C   0  0  0  0  0  0  0  0  0  0  0  0
   37.7500   27.7270   43.7800 C   0  0  0  0  0  0  0  0  0  0  0  0
   36.5180   27.5660   42.9370 C   0  0  0  0  0  0  0  0  0  0  0  0
   36.8300   27.5990   41.4630 C   0  0  0  0  0  0  0  0  0  0  0  0
   37.5990   28.9690   41.2790 C   0  0  2  0  0  0  0  0  0  0  0  0
   39.7730   28.3180   43.6870 H   0  0  0  0  0  0  0  0  0  0  0  0
   39.3490   26.9180   42.6790 H   0  0  0  0  0  0  0  0  0  0  0  0
   37.6350   28.5370   44.5420 H   0  0  0  0  0  0  0  0  0  0  0  0
   37.8750   26.7990   44.3890 H   0  0  0  0  0  0  0  0  0  0  0  0
   35.8510   28.4250   43.1400 H   0  0  0  0  0  0  0  0  0  0  0  0
   35.9380   26.6590   43.2060 H   0  0  0  0  0  0  0  0  0  0  0  0
   37.4680   26.7750   41.1300 H   0  0  0  0  0  0  0  0  0  0  0  0
   35.9100   27.7220   40.8760 H   0  0  0  0  0  0  0  0  0  0  0  0
   36.9570   29.7190   41.7830 H   0  0  0  0  0  0  0  0  0  0  0  0
   39.9200   29.6210   41.5200 C   0  0  0  0  0  0  0  0  0  0  0  0
   39.8730   29.8970   40.4490 H   0  0  0  0  0  0  0  0  0  0  0  0
   40.8830   29.1120   41.7040 H   0  0  0  0  0  0  0  0  0  0  0  0
   39.7150   30.8490   42.3330 C   0  0  0  0  0  0  0  0  0  0  0  0
   38.7670   30.8110   42.9130 H   0  0  0  0  0  0  0  0  0  0  0  0
   40.5380   31.0080   43.0710 H   0  0  0  0  0  0  0  0  0  0  0  0
   40.9410   33.5860   40.0700 C   0  0  0  0  0  0  0  0  0  0  0  0
   40.9150   32.4610   40.9130 C   0  0  0  0  0  0  0  0  0  0  0  0
   39.7200   32.0320   41.4500 C   0  0  0  0  0  0  0  0  0  0  0  0
   38.6320   32.7260   41.1290 N   0  0  0  0  0  0  0  0  0  0  0  0
   38.6500   33.8000   40.3250 C   0  0  0  0  0  0  0  0  0  0  0  0
   39.7950   34.2460   39.7840 N   0  0  0  0  0  0  0  0  0  0  0  0
   41.8930   33.9010   39.6630 H   0  0  0  0  0  0  0  0  0  0  0  0
   41.8550   31.9420   41.1310 H   0  0  0  0  0  0  0  0  0  0  0  0
   37.6690   34.2390   40.1740 H   0  0  0  0  0  0  0  0  0  0  0  0
   37.6070   29.1020   39.9040 O   0  0  0  0  0  0  0  0  0  0  0  0
   37.1020   31.2900   38.4920 O   0  0  0  0  0  0  0  0  0  0  0  0
   36.4540   30.1910   39.3400 P   0  0  2  0  0  0  0  0  0  0  0  0
   35.8450   30.9830   40.7240 O   0  0  0  0  0  0  0  0  0  0  0  0
   35.5850   30.3450   41.4280 H   0  0  0  0  0  0  0  0  0  0  0  0
   35.1850   29.4440   38.5700 O   0  0  0  0  0  0  0  0  0  0  0  0
   35.6500   28.2530   38.0090 C   0  0  0  0  0  0  0  0  0  0  0  0
   34.8830   27.4530   38.0060 H   0  0  0  0  0  0  0  0  0  0  0  0
   36.5330   27.8550   38.5480 H   0  0  0  0  0  0  0  0  0  0  0  0
   36.1020   28.5770   36.6290 C   0  0  0  0  0  0  0  0  0  0  0  0
   35.4320   29.2170   35.5960 C   0  0  0  0  0  0  0  0  0  0  0  0
   34.4000   29.5840   35.7000 H   0  0  0  0  0  0  0  0  0  0  0  0
   36.3080   29.2640   34.5220 C   0  0  0  0  0  0  0  0  0  0  0  0
   35.9460   29.7370   33.6150 H   0  0  0  0  0  0  0  0  0  0  0  0
   37.4550   28.6730   34.9120 N   0  0  0  0  0  0  0  0  0  0  0  0
   38.2410   28.6150   34.2200 H   0  0  0  0  0  0  0  0  0  0  0  0
   37.3380   28.2610   36.1650 N   0  0  0  0  0  0  0  0  0  0  0  0
  1  2  1  0  0  0  0
  2  7  1  0  0  0  0
  2  3  1  0  0  0  0
  3 10  1  0  0  0  0
  3  9  1  0  0  0  0
  4 11  1  0  0  0  0
  4 12  1  0  0  0  0
  4  3  1  0  0  0  0
  5  4  1  0  0  0  0
  6  5  1  0  0  0  0
  6 15  1  1  0  0  0
  6  1  1  0  0  0  0
  8  2  1  0  0  0  0
 13  5  1  0  0  0  0
 14  5  1  0  0  0  0
 16 18  1  0  0  0  0
 16  1  1  0  0  0  0
 16 19  1  0  0  0  0
 17 16  1  0  0  0  0
 19 20  1  0  0  0  0
 19 21  1  0  0  0  0
 22 23  1  0  0  0  0
 23 29  1  0  0  0  0
 23 24  2  0  0  0  0
 24 19  1  0  0  0  0
 25 24  1  0  0  0  0
 26 25  2  0  0  0  0
 27 22  2  0  0  0  0
 27 26  1  0  0  0  0
 28 22  1  0  0  0  0
 30 26  1  0  0  0  0
 31  6  1  0  0  0  0
 33 32  2  6  0  0  0
 33 31  1  0  0  0  0
 33 34  1  0  0  0  0
 34 35  1  0  0  0  0
 36 33  1  0  0  0  0
 37 39  1  0  0  0  0
 37 36  1  0  0  0  0
 38 37  1  0  0  0  0
 40 37  1  0  0  0  0
 41 42  1  0  0  0  0
 41 40  1  0  0  0  0
 43 45  1  0  0  0  0
 43 41  2  0  0  0  0
 44 43  1  0  0  0  0
 45 47  1  0  0  0  0
 46 45  1  0  0  0  0
 47 40  2  0  0  0  0
M  END
>  <minimizedAffinity>
-5.344697

$$$$

 OpenBabel03252509063D

 47 49  0  0  1  0  0  0  0  0999 V2000
   37.9660   26.7140   42.1220 N   0  0  0  0  0  0  0  0  0  0  0  0
   38.9920   25.9890   42.7660 C   0  0  0  0  0  0  0  0  0  0  0  0
   40.3050   26.7390   42.8920 C   0  0  0  0  0  0  0  0  0  0  0  0
   40.1500   28.2190   43.0960 C   0  0  0  0  0  0  0  0  0  0  0  0
   38.7040   28.6290   43.2000 C   0  0  0  0  0  0  0  0  0  0  0  0
   38.0610   28.0610   41.8710 C   0  0  2  0  0  0  0  0  0  0  0  0
   39.2280   25.0040   42.3610 H   0  0  0  0  0  0  0  0  0  0  0  0
   38.6640   25.8220   43.8340 H   0  0  0  0  0  0  0  0  0  0  0  0
   40.9570   26.5010   42.0150 H   0  0  0  0  0  0  0  0  0  0  0  0
   40.8660   26.3270   43.7650 H   0  0  0  0  0  0  0  0  0  0  0  0
   40.5620   28.7310   42.2060 H   0  0  0  0  0  0  0  0  0  0  0  0
   40.7380   28.5890   43.9610 H   0  0  0  0  0  0  0  0  0  0  0  0
   38.1870   28.2040   44.0670 H   0  0  0  0  0  0  0  0  0  0  0  0
   38.6040   29.7190   43.1070 H   0  0  0  0  0  0  0  0  0  0  0  0
   38.7370   28.4090   41.0650 H   0  0  0  0  0  0  0  0  0  0  0  0
   37.1350   25.9080   41.2590 C   0  0  0  0  0  0  0  0  0  0  0  0
   37.6340   25.8240   40.2750 H   0  0  0  0  0  0  0  0  0  0  0  0
   36.1650   26.4160   41.1140 H   0  0  0  0  0  0  0  0  0  0  0  0
   37.0270   24.5470   41.8490 C   0  0  0  0  0  0  0  0  0  0  0  0
   37.8840   24.3130   42.5180 H   0  0  0  0  0  0  0  0  0  0  0  0
   36.1000   24.4240   42.4580 H   0  0  0  0  0  0  0  0  0  0  0  0
   35.8040   22.6740   38.8300 C   0  0  0  0  0  0  0  0  0  0  0  0
   35.9020   23.6180   39.8670 C   0  0  0  0  0  0  0  0  0  0  0  0
   36.9440   23.5450   40.7670 C   0  0  0  0  0  0  0  0  0  0  0  0
   37.8200   22.5600   40.5940 N   0  0  0  0  0  0  0  0  0  0  0  0
   37.7330   21.6560   39.6070 C   0  0  0  0  0  0  0  0  0  0  0  0
   36.7320   21.6960   38.7120 N   0  0  0  0  0  0  0  0  0  0  0  0
   34.9750   22.7540   38.1380 H   0  0  0  0  0  0  0  0  0  0  0  0
   35.1390   24.4000   39.9420 H   0  0  0  0  0  0  0  0  0  0  0  0
   38.5360   20.9260   39.6210 H   0  0  0  0  0  0  0  0  0  0  0  0
   36.8350   28.6960   41.8600 O   0  0  0  0  0  0  0  0  0  0  0  0
   38.0670   30.7280   40.6800 O   0  0  0  0  0  0  0  0  0  0  0  0
   36.7500   29.9470   40.7360 P   0  0  2  0  0  0  0  0  0  0  0  0
   35.5950   31.0450   41.3480 O   0  0  0  0  0  0  0  0  0  0  0  0
   34.7610   30.5920   41.6110 H   0  0  0  0  0  0  0  0  0  0  0  0
   36.2380   29.4350   39.2400 O   0  0  0  0  0  0  0  0  0  0  0  0
   36.6490   30.3720   38.2900 C   0  0  0  0  0  0  0  0  0  0  0  0
   37.5470   30.9390   38.6090 H   0  0  0  0  0  0  0  0  0  0  0  0
   35.8570   31.1150   38.0670 H   0  0  0  0  0  0  0  0  0  0  0  0
   36.9000   29.6230   37.0290 C   0  0  0  0  0  0  0  0  0  0  0  0
   36.0950   29.4620   35.9100 C   0  0  0  0  0  0  0  0  0  0  0  0
   35.0950   29.9140   35.8330 H   0  0  0  0  0  0  0  0  0  0  0  0
   36.8060   28.6720   35.0190 C   0  0  0  0  0  0  0  0  0  0  0  0
   36.3220   28.4410   34.0760 H   0  0  0  0  0  0  0  0  0  0  0  0
   37.9880   28.3790   35.5960 N   0  0  0  0  0  0  0  0  0  0  0  0
   38.6640   27.7820   35.0610 H   0  0  0  0  0  0  0  0  0  0  0  0
   38.0500   28.9420   36.7930 N   0  0  0  0  0  0  0  0  0  0  0  0
  1  2  1  0  0  0  0
  2  3  1  0  0  0  0
  2  8  1  0  0  0  0
  3  4  1  0  0  0  0
  3 10  1  0  0  0  0
  4  5  1  0  0  0  0
  4 12  1  0  0  0  0
  5 13  1  0  0  0  0
  6 15  1  6  0  0  0
  6  1  1  0  0  0  0
  6  5  1  0  0  0  0
  7  2  1  0  0  0  0
  9  3  1  0  0  0  0
 11  4  1  0  0  0  0
 14  5  1  0  0  0  0
 16 19  1  0  0  0  0
 16  1  1  0  0  0  0
 17 16  1  0  0  0  0
 18 16  1  0  0  0  0
 19 21  1  0  0  0  0
 19 20  1  0  0  0  0
 22 23  1  0  0  0  0
 23 29  1  0  0  0  0
 23 24  2  0  0  0  0
 24 19  1  0  0  0  0
 25 24  1  0  0  0  0
 26 30  1  0  0  0  0
 26 25  2  0  0  0  0
 27 22  2  0  0  0  0
 27 26  1  0  0  0  0
 28 22  1  0  0  0  0
 31  6  1  0  0  0  0
 33 32  2  6  0  0  0
 33 34  1  0  0  0  0
 33 31  1  0  0  0  0
 34 35  1  0  0  0  0
 36 33  1  0  0  0  0
 37 38  1  0  0  0  0
 37 36  1  0  0  0  0
 39 37  1  0  0  0  0
 40 37  1  0  0  0  0
 41 40  1  0  0  0  0
 42 41  1  0  0  0  0
 43 45  1  0  0  0  0
 43 41  2  0  0  0  0
 44 43  1  0  0  0  0
 45 47  1  0  0  0  0
 46 45  1  0  0  0  0
 47 40  2  0  0  0  0
M  END
>  <minimizedAffinity>
-5.30652666

$$$$

 OpenBabel03252509063D

 47 49  0  0  1  0  0  0  0  0999 V2000
   36.3330   27.6090   39.3270 N   0  0  0  0  0  0  0  0  0  0  0  0
   35.6050   26.8300   38.4020 C   0  0  0  0  0  0  0  0  0  0  0  0
   34.5650   27.6040   37.6120 C   0  0  0  0  0  0  0  0  0  0  0  0
   34.9600   29.0190   37.3000 C   0  0  0  0  0  0  0  0  0  0  0  0
   36.3490   29.3420   37.7870 C   0  0  0  0  0  0  0  0  0  0  0  0
   36.2940   28.9820   39.3260 C   0  0  2  0  0  0  0  0  0  0  0  0
   35.1080   25.9400   38.7900 H   0  0  0  0  0  0  0  0  0  0  0  0
   36.3350   26.4680   37.6200 H   0  0  0  0  0  0  0  0  0  0  0  0
   33.5790   27.5480   38.1370 H   0  0  0  0  0  0  0  0  0  0  0  0
   34.3880   27.0730   36.6450 H   0  0  0  0  0  0  0  0  0  0  0  0
   34.2690   29.6930   37.8390 H   0  0  0  0  0  0  0  0  0  0  0  0
   34.8440   29.2610   36.2230 H   0  0  0  0  0  0  0  0  0  0  0  0
   37.1340   28.7520   37.3020 H   0  0  0  0  0  0  0  0  0  0  0  0
   36.5230   30.4260   37.7660 H   0  0  0  0  0  0  0  0  0  0  0  0
   35.3830   29.4910   39.6990 H   0  0  0  0  0  0  0  0  0  0  0  0
   36.6190   26.9270   40.5680 C   0  0  0  0  0  0  0  0  0  0  0  0
   35.7010   26.4010   40.8940 H   0  0  0  0  0  0  0  0  0  0  0  0
   36.8840   27.6730   41.3370 H   0  0  0  0  0  0  0  0  0  0  0  0
   37.6770   25.9130   40.3140 C   0  0  0  0  0  0  0  0  0  0  0  0
   37.2500   24.9290   40.0180 H   0  0  0  0  0  0  0  0  0  0  0  0
   38.3700   26.2230   39.4950 H   0  0  0  0  0  0  0  0  0  0  0  0
   39.2830   26.6230   43.6350 C   0  0  0  0  0  0  0  0  0  0  0  0
   38.4960   26.7510   42.4770 C   0  0  0  0  0  0  0  0  0  0  0  0
   38.5120   25.7570   41.5220 C   0  0  0  0  0  0  0  0  0  0  0  0
   39.2890   24.7060   41.7600 N   0  0  0  0  0  0  0  0  0  0  0  0
   40.0430   24.5760   42.8630 C   0  0  0  0  0  0  0  0  0  0  0  0
   40.0530   25.5240   43.8140 N   0  0  0  0  0  0  0  0  0  0  0  0
   39.2530   27.4190   44.3680 H   0  0  0  0  0  0  0  0  0  0  0  0
   37.8810   27.6490   42.3540 H   0  0  0  0  0  0  0  0  0  0  0  0
   40.6130   23.6530   42.8870 H   0  0  0  0  0  0  0  0  0  0  0  0
   37.4610   29.5560   39.7890 O   0  0  0  0  0  0  0  0  0  0  0  0
   37.6340   29.9910   42.4000 O   0  0  0  0  0  0  0  0  0  0  0  0
   37.2110   30.6200   41.0690 P   0  0  2  0  0  0  0  0  0  0  0  0
   35.5200   30.8260   41.1800 O   0  0  0  0  0  0  0  0  0  0  0  0
   35.1170   31.0380   40.3050 H   0  0  0  0  0  0  0  0  0  0  0  0
   37.8990   32.1110   40.8110 O   0  0  0  0  0  0  0  0  0  0  0  0
   37.4960   32.5700   39.5560 C   0  0  0  0  0  0  0  0  0  0  0  0
   37.1060   33.6070   39.5850 H   0  0  0  0  0  0  0  0  0  0  0  0
   36.7010   31.9360   39.1150 H   0  0  0  0  0  0  0  0  0  0  0  0
   38.6780   32.4600   38.6590 C   0  0  0  0  0  0  0  0  0  0  0  0
   40.0220   32.6880   38.9200 C   0  0  0  0  0  0  0  0  0  0  0  0
   40.3860   33.0040   39.9090 H   0  0  0  0  0  0  0  0  0  0  0  0
   40.7050   32.4390   37.7390 C   0  0  0  0  0  0  0  0  0  0  0  0
   41.7820   32.5700   37.7580 H   0  0  0  0  0  0  0  0  0  0  0  0
   39.7920   32.0770   36.8150 N   0  0  0  0  0  0  0  0  0  0  0  0
   40.1300   31.8490   35.8490 H   0  0  0  0  0  0  0  0  0  0  0  0
   38.5840   32.0880   37.3570 N   0  0  0  0  0  0  0  0  0  0  0  0
  1 16  1  0  0  0  0
  2  7  1  0  0  0  0
  2  1  1  0  0  0  0
  3  9  1  0  0  0  0
  3  2  1  0  0  0  0
  4  3  1  0  0  0  0
  4  5  1  0  0  0  0
  4 11  1  0  0  0  0
  5  6  1  0  0  0  0
  6  1  1  0  0  0  0
  6 15  1  1  0  0  0
  6 31  1  0  0  0  0
  8  2  1  0  0  0  0
 10  3  1  0  0  0  0
 12  4  1  0  0  0  0
 13  5  1  0  0  0  0
 14  5  1  0  0  0  0
 16 17  1  0  0  0  0
 16 18  1  0  0  0  0
 19 16  1  0  0  0  0
 19 24  1  0  0  0  0
 20 19  1  0  0  0  0
 21 19  1  0  0  0  0
 22 27  1  0  0  0  0
 22 28  1  0  0  0  0
 23 22  2  0  0  0  0
 24 25  2  0  0  0  0
 24 23  1  0  0  0  0
 25 26  1  0  0  0  0
 26 30  1  0  0  0  0
 26 27  2  0  0  0  0
 29 23  1  0  0  0  0
 31 33  1  0  0  0  0
 33 34  1  0  0  0  0
 33 32  2  1  0  0  0
 35 34  1  0  0  0  0
 36 33  1  0  0  0  0
 37 38  1  0  0  0  0
 37 36  1  0  0  0  0
 39 37  1  0  0  0  0
 40 41  1  0  0  0  0
 40 37  1  0  0  0  0
 41 42  1  0  0  0  0
 43 44  1  0  0  0  0
 43 41  2  0  0  0  0
 45 47  1  0  0  0  0
 45 43  1  0  0  0  0
 46 45  1  0  0  0  0
 47 40  2  0  0  0  0
M  END
>  <minimizedAffinity>
-5.30425215

$$$$

 OpenBabel03252509063D

 47 49  0  0  1  0  0  0  0  0999 V2000
   35.7270   29.3880   38.8730 N   0  0  0  0  0  0  0  0  0  0  0  0
   34.5960   28.6690   38.4270 C   0  0  0  0  0  0  0  0  0  0  0  0
   34.2180   28.9310   36.9800 C   0  0  0  0  0  0  0  0  0  0  0  0
   35.3900   29.1820   36.0760 C   0  0  0  0  0  0  0  0  0  0  0  0
   36.7050   29.0480   36.8000 C   0  0  0  0  0  0  0  0  0  0  0  0
   36.5630   30.0540   38.0120 C   0  0  2  0  0  0  0  0  0  0  0  0
   33.6830   28.7720   39.0150 H   0  0  0  0  0  0  0  0  0  0  0  0
   34.8650   27.5730   38.4500 H   0  0  0  0  0  0  0  0  0  0  0  0
   33.4660   29.7580   36.9340 H   0  0  0  0  0  0  0  0  0  0  0  0
   33.6660   28.0420   36.5920 H   0  0  0  0  0  0  0  0  0  0  0  0
   35.3280   30.2260   35.7180 H   0  0  0  0  0  0  0  0  0  0  0  0
   35.3640   28.5460   35.1670 H   0  0  0  0  0  0  0  0  0  0  0  0
   36.8970   28.0410   37.1810 H   0  0  0  0  0  0  0  0  0  0  0  0
   37.5220   29.4640   36.1950 H   0  0  0  0  0  0  0  0  0  0  0  0
   36.2140   30.9990   37.5500 H   0  0  0  0  0  0  0  0  0  0  0  0
   35.6180   29.8590   40.2350 C   0  0  0  0  0  0  0  0  0  0  0  0
   34.5870   30.2260   40.3940 H   0  0  0  0  0  0  0  0  0  0  0  0
   36.3150   30.7040   40.3800 H   0  0  0  0  0  0  0  0  0  0  0  0
   35.8560   28.7110   41.1490 C   0  0  0  0  0  0  0  0  0  0  0  0
   35.0910   28.6540   41.9550 H   0  0  0  0  0  0  0  0  0  0  0  0
   35.8330   27.7320   40.6130 H   0  0  0  0  0  0  0  0  0  0  0  0
   39.1350   27.7600   42.7200 C   0  0  0  0  0  0  0  0  0  0  0  0
   37.8510   27.6760   42.1520 C   0  0  0  0  0  0  0  0  0  0  0  0
   37.2040   28.8230   41.7420 C   0  0  0  0  0  0  0  0  0  0  0  0
   37.8520   29.9720   41.9090 N   0  0  0  0  0  0  0  0  0  0  0  0
   39.0770   30.0600   42.4490 C   0  0  0  0  0  0  0  0  0  0  0  0
   39.7370   28.9650   42.8600 N   0  0  0  0  0  0  0  0  0  0  0  0
   39.6190   26.8450   43.0340 H   0  0  0  0  0  0  0  0  0  0  0  0
   37.3830   26.6910   42.0480 H   0  0  0  0  0  0  0  0  0  0  0  0
   39.4480   31.0780   42.5060 H   0  0  0  0  0  0  0  0  0  0  0  0
   37.8640   30.1250   38.4700 O   0  0  0  0  0  0  0  0  0  0  0  0
   37.4890   32.7150   38.9020 O   0  0  0  0  0  0  0  0  0  0  0  0
   38.5030   31.6810   38.4040 P   0  0  2  0  0  0  0  0  0  0  0  0
   38.7250   32.0230   36.7460 O   0  0  0  0  0  0  0  0  0  0  0  0
   39.2040   31.2980   36.2820 H   0  0  0  0  0  0  0  0  0  0  0  0
   39.9780   31.8050   39.1610 O   0  0  0  0  0  0  0  0  0  0  0  0
   40.2110   33.1500   39.4510 C   0  0  0  0  0  0  0  0  0  0  0  0
   40.3590   33.3340   40.5340 H   0  0  0  0  0  0  0  0  0  0  0  0
   39.3750   33.8000   39.1230 H   0  0  0  0  0  0  0  0  0  0  0  0
   41.4050   33.5580   38.6630 C   0  0  0  0  0  0  0  0  0  0  0  0
   42.6110   34.1010   39.0840 C   0  0  0  0  0  0  0  0  0  0  0  0
   42.8290   34.3040   40.1430 H   0  0  0  0  0  0  0  0  0  0  0  0
   43.3790   34.2950   37.9460 C   0  0  0  0  0  0  0  0  0  0  0  0
   44.3680   34.7170   38.0880 H   0  0  0  0  0  0  0  0  0  0  0  0
   42.6480   33.8800   36.8920 N   0  0  0  0  0  0  0  0  0  0  0  0
   43.0730   33.9530   35.9360 H   0  0  0  0  0  0  0  0  0  0  0  0
   41.4720   33.4410   37.3130 N   0  0  0  0  0  0  0  0  0  0  0  0
  1 16  1  0  0  0  0
  2  8  1  0  0  0  0
  2  1  1  0  0  0  0
  2  7  1  0  0  0  0
  3  2  1  0  0  0  0
  4  5  1  0  0  0  0
  4  3  1  0  0  0  0
  5 13  1  0  0  0  0
  5  6  1  0  0  0  0
  6 15  1  6  0  0  0
  6 31  1  0  0  0  0
  6  1  1  0  0  0  0
  9  3  1  0  0  0  0
 10  3  1  0  0  0  0
 11  4  1  0  0  0  0
 12  4  1  0  0  0  0
 14  5  1  0  0  0  0
 16 18  1  0  0  0  0
 16 17  1  0  0  0  0
 16 19  1  0  0  0  0
 19 24  1  0  0  0  0
 19 20  1  0  0  0  0
 21 19  1  0  0  0  0
 22 27  1  0  0  0  0
 22 28  1  0  0  0  0
 23 22  2  0  0  0  0
 24 25  2  0  0  0  0
 24 23  1  0  0  0  0
 25 26  1  0  0  0  0
 26 30  1  0  0  0  0
 26 27  2  0  0  0  0
 29 23  1  0  0  0  0
 33 31  1  0  0  0  0
 33 32  2  1  0  0  0
 33 36  1  0  0  0  0
 34 33  1  0  0  0  0
 35 34  1  0  0  0  0
 36 37  1  0  0  0  0
 37 38  1  0  0  0  0
 39 37  1  0  0  0  0
 40 41  1  0  0  0  0
 40 37  1  0  0  0  0
 41 42  1  0  0  0  0
 43 44  1  0  0  0  0
 43 41  2  0  0  0  0
 45 47  1  0  0  0  0
 45 43  1  0  0  0  0
 46 45  1  0  0  0  0
 47 40  2  0  0  0  0
M  END
>  <minimizedAffinity>
-5.24782181

$$$$

 OpenBabel03252509063D

 47 49  0  0  1  0  0  0  0  0999 V2000
   33.9780   28.2280   37.8570 N   0  0  0  0  0  0  0  0  0  0  0  0
   33.9500   27.2820   36.8090 C   0  0  0  0  0  0  0  0  0  0  0  0
   35.3200   26.8600   36.3090 C   0  0  0  0  0  0  0  0  0  0  0  0
   36.3740   26.8110   37.3770 C   0  0  0  0  0  0  0  0  0  0  0  0
   35.8170   27.1290   38.7410 C   0  0  0  0  0  0  0  0  0  0  0  0
   35.1290   28.5380   38.5390 C   0  0  2  0  0  0  0  0  0  0  0  0
   33.3570   27.5370   35.9290 H   0  0  0  0  0  0  0  0  0  0  0  0
   33.5020   26.3330   37.2270 H   0  0  0  0  0  0  0  0  0  0  0  0
   35.6200   27.5100   35.4500 H   0  0  0  0  0  0  0  0  0  0  0  0
   35.2340   25.8410   35.8600 H   0  0  0  0  0  0  0  0  0  0  0  0
   37.1260   27.5900   37.1500 H   0  0  0  0  0  0  0  0  0  0  0  0
   36.9250   25.8480   37.3810 H   0  0  0  0  0  0  0  0  0  0  0  0
   35.0740   26.4060   39.0920 H   0  0  0  0  0  0  0  0  0  0  0  0
   36.6300   27.3220   39.4540 H   0  0  0  0  0  0  0  0  0  0  0  0
   35.8990   29.1550   38.0350 H   0  0  0  0  0  0  0  0  0  0  0  0
   32.9350   29.2240   37.7700 C   0  0  0  0  0  0  0  0  0  0  0  0
   33.3610   30.2000   38.0720 H   0  0  0  0  0  0  0  0  0  0  0  0
   32.1280   28.9630   38.4780 H   0  0  0  0  0  0  0  0  0  0  0  0
   32.4930   29.3210   36.3530 C   0  0  0  0  0  0  0  0  0  0  0  0
   33.3470   29.4950   35.6620 H   0  0  0  0  0  0  0  0  0  0  0  0
   31.9830   28.3910   36.0070 H   0  0  0  0  0  0  0  0  0  0  0  0
   30.4280   32.0740   34.8470 C   0  0  0  0  0  0  0  0  0  0  0  0
   31.3640   31.0360   34.9980 C   0  0  0  0  0  0  0  0  0  0  0  0
   31.5040   30.4090   36.2180 C   0  0  0  0  0  0  0  0  0  0  0  0
   30.7230   30.8330   37.2060 N   0  0  0  0  0  0  0  0  0  0  0  0
   29.8280   31.8230   37.0690 C   0  0  0  0  0  0  0  0  0  0  0  0
   29.6640   32.4570   35.8970 N   0  0  0  0  0  0  0  0  0  0  0  0
   30.3390   32.5500   33.8790 H   0  0  0  0  0  0  0  0  0  0  0  0
   31.9710   30.7430   34.1350 H   0  0  0  0  0  0  0  0  0  0  0  0
   29.2800   32.0350   37.9820 H   0  0  0  0  0  0  0  0  0  0  0  0
   34.8950   28.9240   39.8440 O   0  0  0  0  0  0  0  0  0  0  0  0
   36.7740   28.7850   41.7100 O   0  0  0  0  0  0  0  0  0  0  0  0
   36.2320   29.6480   40.5670 P   0  0  2  0  0  0  0  0  0  0  0  0
   35.6480   31.0700   41.3080 O   0  0  0  0  0  0  0  0  0  0  0  0
   35.0990   31.6070   40.6910 H   0  0  0  0  0  0  0  0  0  0  0  0
   37.4040   30.0780   39.4700 O   0  0  0  0  0  0  0  0  0  0  0  0
   37.8370   31.3700   39.7730 C   0  0  0  0  0  0  0  0  0  0  0  0
   38.2750   31.4470   40.7880 H   0  0  0  0  0  0  0  0  0  0  0  0
   37.0140   32.1100   39.7170 H   0  0  0  0  0  0  0  0  0  0  0  0
   38.8240   31.7480   38.7260 C   0  0  0  0  0  0  0  0  0  0  0  0
   40.1600   32.1050   38.8440 C   0  0  0  0  0  0  0  0  0  0  0  0
   40.6750   32.1500   39.8160 H   0  0  0  0  0  0  0  0  0  0  0  0
   40.6200   32.3600   37.5610 C   0  0  0  0  0  0  0  0  0  0  0  0
   41.6580   32.6570   37.4620 H   0  0  0  0  0  0  0  0  0  0  0  0
   39.5880   32.1590   36.7170 N   0  0  0  0  0  0  0  0  0  0  0  0
   39.7510   32.3070   35.6920 H   0  0  0  0  0  0  0  0  0  0  0  0
   38.5160   31.7950   37.4050 N   0  0  0  0  0  0  0  0  0  0  0  0
  1  6  1  0  0  0  0
  2  8  1  0  0  0  0
  2  1  1  0  0  0  0
  3  2  1  0  0  0  0
  3  4  1  0  0  0  0
  4 12  1  0  0  0  0
  4  5  1  0  0  0  0
  5 13  1  0  0  0  0
  5 14  1  0  0  0  0
  6 15  1  6  0  0  0
  6  5  1  0  0  0  0
  6 31  1  0  0  0  0
  7  2  1  0  0  0  0
  9  3  1  0  0  0  0
 10  3  1  0  0  0  0
 11  4  1  0  0  0  0
 16  1  1  0  0  0  0
 16 17  1  0  0  0  0
 16 18  1  0  0  0  0
 19 16  1  0  0  0  0
 20 19  1  0  0  0  0
 21 19  1  0  0  0  0
 22 23  2  0  0  0  0
 22 27  1  0  0  0  0
 23 24  1  0  0  0  0
 24 19  1  0  0  0  0
 24 25  2  0  0  0  0
 26 25  1  0  0  0  0
 26 30  1  0  0  0  0
 27 26  2  0  0  0  0
 28 22  1  0  0  0  0
 29 23  1  0  0  0  0
 31 33  1  0  0  0  0
 33 34  1  0  0  0  0
 33 32  2  1  0  0  0
 35 34  1  0  0  0  0
 36 37  1  0  0  0  0
 36 33  1  0  0  0  0
 37 38  1  0  0  0  0
 39 37  1  0  0  0  0
 40 41  1  0  0  0  0
 40 37  1  0  0  0  0
 41 42  1  0  0  0  0
 43 41  2  0  0  0  0
 44 43  1  0  0  0  0
 45 47  1  0  0  0  0
 45 43  1  0  0  0  0
 46 45  1  0  0  0  0
 47 40  2  0  0  0  0
M  END
>  <minimizedAffinity>
-5.15200138

$$$$

 OpenBabel03252509063D

 47 49  0  0  1  0  0  0  0  0999 V2000
   37.0240   26.7170   41.7010 N   0  0  0  0  0  0  0  0  0  0  0  0
   37.2250   25.3910   42.1420 C   0  0  0  0  0  0  0  0  0  0  0  0
   36.7060   24.3290   41.1910 C   0  0  0  0  0  0  0  0  0  0  0  0
   36.8240   24.6940   39.7390 C   0  0  0  0  0  0  0  0  0  0  0  0
   37.5040   26.0240   39.5420 C   0  0  0  0  0  0  0  0  0  0  0  0
   36.6370   27.0160   40.4170 C   0  0  2  0  0  0  0  0  0  0  0  0
   36.8470   25.1390   43.1340 H   0  0  0  0  0  0  0  0  0  0  0  0
   38.3400   25.2150   42.1750 H   0  0  0  0  0  0  0  0  0  0  0  0
   35.6590   24.0550   41.4720 H   0  0  0  0  0  0  0  0  0  0  0  0
   37.2850   23.3890   41.3590 H   0  0  0  0  0  0  0  0  0  0  0  0
   35.8020   24.7950   39.3280 H   0  0  0  0  0  0  0  0  0  0  0  0
   37.3150   23.8970   39.1430 H   0  0  0  0  0  0  0  0  0  0  0  0
   38.5420   26.0430   39.8880 H   0  0  0  0  0  0  0  0  0  0  0  0
   37.3670   26.3780   38.5110 H   0  0  0  0  0  0  0  0  0  0  0  0
   35.5910   26.8150   40.1130 H   0  0  0  0  0  0  0  0  0  0  0  0
   36.6780   27.6380   42.7590 C   0  0  0  0  0  0  0  0  0  0  0  0
   35.7800   27.2500   43.2770 H   0  0  0  0  0  0  0  0  0  0  0  0
   36.4270   28.6180   42.3160 H   0  0  0  0  0  0  0  0  0  0  0  0
   37.8020   27.6810   43.7310 C   0  0  0  0  0  0  0  0  0  0  0  0
   37.4850   28.0830   44.7180 H   0  0  0  0  0  0  0  0  0  0  0  0
   38.2360   26.6700   43.9190 H   0  0  0  0  0  0  0  0  0  0  0  0
   39.6660   30.6050   42.2840 C   0  0  0  0  0  0  0  0  0  0  0  0
   38.6370   29.8040   42.8100 C   0  0  0  0  0  0  0  0  0  0  0  0
   38.8990   28.5030   43.1810 C   0  0  0  0  0  0  0  0  0  0  0  0
   40.1450   28.0700   43.0180 N   0  0  0  0  0  0  0  0  0  0  0  0
   41.1330   28.8280   42.5180 C   0  0  0  0  0  0  0  0  0  0  0  0
   40.9140   30.0990   42.1450 N   0  0  0  0  0  0  0  0  0  0  0  0
   39.4320   31.6220   42.0000 H   0  0  0  0  0  0  0  0  0  0  0  0
   37.6350   30.2340   42.9140 H   0  0  0  0  0  0  0  0  0  0  0  0
   42.0840   28.3090   42.4570 H   0  0  0  0  0  0  0  0  0  0  0  0
   37.0990   28.2440   39.9870 O   0  0  0  0  0  0  0  0  0  0  0  0
   34.6000   29.1270   40.0850 O   0  0  0  0  0  0  0  0  0  0  0  0
   35.8990   29.1870   39.2770 P   0  0  2  0  0  0  0  0  0  0  0  0
   35.5420   28.4410   37.7840 O   0  0  0  0  0  0  0  0  0  0  0  0
   36.3570   28.2470   37.2650 H   0  0  0  0  0  0  0  0  0  0  0  0
   36.3980   30.7430   38.9720 O   0  0  0  0  0  0  0  0  0  0  0  0
   37.7900   30.7440   38.8600 C   0  0  0  0  0  0  0  0  0  0  0  0
   38.1370   30.4850   37.8390 H   0  0  0  0  0  0  0  0  0  0  0  0
   38.2660   30.0260   39.5570 H   0  0  0  0  0  0  0  0  0  0  0  0
   38.2520   32.1000   39.2620 C   0  0  0  0  0  0  0  0  0  0  0  0
   37.5910   33.0970   39.9660 C   0  0  0  0  0  0  0  0  0  0  0  0
   36.5610   32.9760   40.3340 H   0  0  0  0  0  0  0  0  0  0  0  0
   38.4730   34.1620   40.0710 C   0  0  0  0  0  0  0  0  0  0  0  0
   38.1180   35.0410   40.5990 H   0  0  0  0  0  0  0  0  0  0  0  0
   39.6130   33.8030   39.4490 N   0  0  0  0  0  0  0  0  0  0  0  0
   40.4030   34.4920   39.4270 H   0  0  0  0  0  0  0  0  0  0  0  0
   39.4880   32.5760   38.9650 N   0  0  0  0  0  0  0  0  0  0  0  0
  1  2  1  0  0  0  0
  1 16  1  0  0  0  0
  2  8  1  0  0  0  0
  2  7  1  0  0  0  0
  3 10  1  0  0  0  0
  3  9  1  0  0  0  0
  3  2  1  0  0  0  0
  4  3  1  0  0  0  0
  5  4  1  0  0  0  0
  5 13  1  0  0  0  0
  5  6  1  0  0  0  0
  6 15  1  6  0  0  0
  6  1  1  0  0  0  0
 11  4  1  0  0  0  0
 12  4  1  0  0  0  0
 14  5  1  0  0  0  0
 16 17  1  0  0  0  0
 16 19  1  0  0  0  0
 18 16  1  0  0  0  0
 19 21  1  0  0  0  0
 19 20  1  0  0  0  0
 22 23  1  0  0  0  0
 23 29  1  0  0  0  0
 23 24  2  0  0  0  0
 24 19  1  0  0  0  0
 25 24  1  0  0  0  0
 26 25  2  0  0  0  0
 27 22  2  0  0  0  0
 27 26  1  0  0  0  0
 28 22  1  0  0  0  0
 30 26  1  0  0  0  0
 31  6  1  0  0  0  0
 33 31  1  0  0  0  0
 33 32  2  1  0  0  0
 34 33  1  0  0  0  0
 35 34  1  0  0  0  0
 36 33  1  0  0  0  0
 37 36  1  0  0  0  0
 37 40  1  0  0  0  0
 37 39  1  0  0  0  0
 38 37  1  0  0  0  0
 40 41  1  0  0  0  0
 41 43  2  0  0  0  0
 41 42  1  0  0  0  0
 43 44  1  0  0  0  0
 45 43  1  0  0  0  0
 46 45  1  0  0  0  0
 47 40  2  0  0  0  0
 47 45  1  0  0  0  0
M  END
>  <minimizedAffinity>
-5.13606167

$$$$

 OpenBabel03252509063D

 47 49  0  0  1  0  0  0  0  0999 V2000
   37.4360   30.4890   39.5030 N   0  0  0  0  0  0  0  0  0  0  0  0
   36.7810   30.6920   38.2690 C   0  0  0  0  0  0  0  0  0  0  0  0
   35.8340   29.5740   37.8710 C   0  0  0  0  0  0  0  0  0  0  0  0
   35.1340   28.9220   39.0280 C   0  0  0  0  0  0  0  0  0  0  0  0
   35.4780   29.5750   40.3420 C   0  0  0  0  0  0  0  0  0  0  0  0
   37.0570   29.5070   40.3860 C   0  0  2  0  0  0  0  0  0  0  0  0
   37.4120   30.8940   37.4030 H   0  0  0  0  0  0  0  0  0  0  0  0
   36.1120   31.5930   38.3900 H   0  0  0  0  0  0  0  0  0  0  0  0
   36.3780   28.8320   37.2360 H   0  0  0  0  0  0  0  0  0  0  0  0
   35.0560   29.9950   37.1890 H   0  0  0  0  0  0  0  0  0  0  0  0
   35.4830   27.8750   39.0920 H   0  0  0  0  0  0  0  0  0  0  0  0
   34.0350   28.8690   38.8800 H   0  0  0  0  0  0  0  0  0  0  0  0
   35.1550   30.6190   40.4120 H   0  0  0  0  0  0  0  0  0  0  0  0
   35.1540   28.9460   41.1820 H   0  0  0  0  0  0  0  0  0  0  0  0
   37.2970   28.4520   40.1480 H   0  0  0  0  0  0  0  0  0  0  0  0
   38.8100   30.9360   39.5150 C   0  0  0  0  0  0  0  0  0  0  0  0
   39.4530   30.0770   39.7860 H   0  0  0  0  0  0  0  0  0  0  0  0
   38.9280   31.7160   40.2870 H   0  0  0  0  0  0  0  0  0  0  0  0
   39.1710   31.3800   38.1420 C   0  0  0  0  0  0  0  0  0  0  0  0
   39.5360   30.5380   37.5140 H   0  0  0  0  0  0  0  0  0  0  0  0
   38.3040   31.8320   37.6030 H   0  0  0  0  0  0  0  0  0  0  0  0
   41.1300   34.3470   39.3560 C   0  0  0  0  0  0  0  0  0  0  0  0
   40.1590   33.3350   39.2630 C   0  0  0  0  0  0  0  0  0  0  0  0
   40.2020   32.4350   38.2190 C   0  0  0  0  0  0  0  0  0  0  0  0
   41.1880   32.5790   37.3400 N   0  0  0  0  0  0  0  0  0  0  0  0
   42.1180   33.5420   37.4220 C   0  0  0  0  0  0  0  0  0  0  0  0
   42.1080   34.4370   38.4230 N   0  0  0  0  0  0  0  0  0  0  0  0
   41.0730   35.0410   40.1840 H   0  0  0  0  0  0  0  0  0  0  0  0
   39.3770   33.2820   40.0280 H   0  0  0  0  0  0  0  0  0  0  0  0
   42.8450   33.5070   36.6170 H   0  0  0  0  0  0  0  0  0  0  0  0
   37.3140   29.8360   41.7020 O   0  0  0  0  0  0  0  0  0  0  0  0
   37.1720   28.3110   43.8670 O   0  0  0  0  0  0  0  0  0  0  0  0
   37.9710   28.5620   42.5840 P   0  0  2  0  0  0  0  0  0  0  0  0
   39.5070   29.0960   43.1020 O   0  0  0  0  0  0  0  0  0  0  0  0
   40.0340   29.4750   42.3600 H   0  0  0  0  0  0  0  0  0  0  0  0
   38.1790   27.1870   41.6730 O   0  0  0  0  0  0  0  0  0  0  0  0
   38.3810   26.1110   42.5400 C   0  0  0  0  0  0  0  0  0  0  0  0
   37.7790   26.1910   43.4670 H   0  0  0  0  0  0  0  0  0  0  0  0
   39.4410   26.0160   42.8480 H   0  0  0  0  0  0  0  0  0  0  0  0
   38.0440   24.8780   41.7790 C   0  0  0  0  0  0  0  0  0  0  0  0
   36.9090   24.5630   41.0450 C   0  0  0  0  0  0  0  0  0  0  0  0
   36.0620   25.2570   40.9400 H   0  0  0  0  0  0  0  0  0  0  0  0
   37.1050   23.2880   40.5360 C   0  0  0  0  0  0  0  0  0  0  0  0
   36.3070   22.8750   39.9280 H   0  0  0  0  0  0  0  0  0  0  0  0
   38.3150   22.8690   40.9570 N   0  0  0  0  0  0  0  0  0  0  0  0
   38.6360   21.9140   40.6660 H   0  0  0  0  0  0  0  0  0  0  0  0
   38.8780   23.8110   41.6980 N   0  0  0  0  0  0  0  0  0  0  0  0
  1 16  1  0  0  0  0
  1  6  1  0  0  0  0
  2  8  1  0  0  0  0
  2  1  1  0  0  0  0
  3  2  1  0  0  0  0
  3  4  1  0  0  0  0
  4 11  1  0  0  0  0
  4  5  1  0  0  0  0
  5  6  1  0  0  0  0
  5 13  1  0  0  0  0
  5 14  1  0  0  0  0
  6 15  1  6  0  0  0
  6 31  1  0  0  0  0
  7  2  1  0  0  0  0
  9  3  1  0  0  0  0
 10  3  1  0  0  0  0
 12  4  1  0  0  0  0
 16 17  1  0  0  0  0
 16 18  1  0  0  0  0
 19 24  1  0  0  0  0
 19 16  1  0  0  0  0
 20 19  1  0  0  0  0
 21 19  1  0  0  0  0
 22 28  1  0  0  0  0
 23 22  1  0  0  0  0
 23 29  1  0  0  0  0
 24 23  2  0  0  0  0
 25 26  2  0  0  0  0
 25 24  1  0  0  0  0
 26 27  1  0  0  0  0
 27 22  2  0  0  0  0
 30 26  1  0  0  0  0
 31 33  1  0  0  0  0
 33 34  1  0  0  0  0
 33 32  2  1  0  0  0
 35 34  1  0  0  0  0
 36 37  1  0  0  0  0
 36 33  1  0  0  0  0
 37 39  1  0  0  0  0
 37 38  1  0  0  0  0
 40 37  1  0  0  0  0
 41 40  1  0  0  0  0
 42 41  1  0  0  0  0
 43 45  1  0  0  0  0
 43 41  2  0  0  0  0
 44 43  1  0  0  0  0
 45 47  1  0  0  0  0
 46 45  1  0  0  0  0
 47 40  2  0  0  0  0
M  END
>  <minimizedAffinity>
-5.07657623

$$$$
