
 OpenBabel03252508483D

 44 46  0  0  0  0  0  0  0  0999 V2000
   36.6900   27.3280   41.5050 C   0  0  0  0  0  0  0  0  0  0  0  0
   35.8300   26.6340   41.4630 H   0  0  0  0  0  0  0  0  0  0  0  0
   37.0070   27.4830   40.4480 H   0  0  0  0  0  0  0  0  0  0  0  0
   38.2950   25.4400   41.8940 C   0  0  0  0  0  0  0  0  0  0  0  0
   37.8290   26.7050   42.2420 C   0  0  0  0  0  0  0  0  0  0  0  0
   38.4380   27.3710   43.2810 C   0  0  0  0  0  0  0  0  0  0  0  0
   39.4790   26.7970   43.9510 C   0  0  0  0  0  0  0  0  0  0  0  0
   39.9620   25.5560   43.6350 C   0  0  0  0  0  0  0  0  0  0  0  0
   39.3220   24.9230   42.5870 C   0  0  0  0  0  0  0  0  0  0  0  0
   38.0300   28.3640   43.5130 H   0  0  0  0  0  0  0  0  0  0  0  0
   39.8750   27.4160   44.7470 H   0  0  0  0  0  0  0  0  0  0  0  0
   40.7810   25.1330   44.1820 H   0  0  0  0  0  0  0  0  0  0  0  0
   39.6610   23.9380   42.2920 H   0  0  0  0  0  0  0  0  0  0  0  0
   35.9150   23.4160   39.7760 C   0  0  0  0  0  0  0  0  0  0  0  0
   36.4920   23.9970   40.9220 C   0  0  0  0  0  0  0  0  0  0  0  0
   37.6120   24.7880   40.7900 C   0  0  0  0  0  0  0  0  0  0  0  0
   38.1120   24.9670   39.5300 N   0  0  0  0  0  0  0  0  0  0  0  0
   37.5490   24.4030   38.4320 C   0  0  0  0  0  0  0  0  0  0  0  0
   36.4460   23.6270   38.5790 N   0  0  0  0  0  0  0  0  0  0  0  0
   35.0390   22.8070   39.9550 H   0  0  0  0  0  0  0  0  0  0  0  0
   36.1320   23.8840   41.9410 H   0  0  0  0  0  0  0  0  0  0  0  0
   38.0360   24.6190   37.4910 H   0  0  0  0  0  0  0  0  0  0  0  0
   36.2460   28.5790   42.0320 N   0  0  0  0  0  0  0  0  0  0  0  0
   35.4600   28.5040   42.7160 H   0  0  0  0  0  0  0  0  0  0  0  0
   35.7790   29.6850   40.7950 S   0  0  0  0  0  0  0  0  0  0  0  0
   35.7580   31.0910   41.3140 O   0  0  0  0  0  0  0  0  0  0  0  0
   35.1460   31.7670   40.9310 H   0  0  0  0  0  0  0  0  0  0  0  0
   34.4600   29.3140   40.2180 O   0  0  0  0  0  0  0  0  0  0  0  0
   34.1610   28.3860   39.9860 H   0  0  0  0  0  0  0  0  0  0  0  0
   36.9460   29.5840   39.5770 O   0  0  0  0  0  0  0  0  0  0  0  0
   36.4160   30.1750   38.4360 C   0  0  0  0  0  0  0  0  0  0  0  0
   35.5700   30.8390   38.7660 H   0  0  0  0  0  0  0  0  0  0  0  0
   36.0490   29.4890   37.6760 H   0  0  0  0  0  0  0  0  0  0  0  0
   37.4880   31.0740   37.8020 C   0  0  0  0  0  0  0  0  0  0  0  0
   38.3880   30.4330   37.5720 H   0  0  0  0  0  0  0  0  0  0  0  0
   37.1160   31.5360   36.8910 H   0  0  0  0  0  0  0  0  0  0  0  0
   37.8730   32.0710   38.8340 C   0  0  0  0  0  0  0  0  0  0  0  0
   39.0550   32.3830   39.4470 C   0  0  0  0  0  0  0  0  0  0  0  0
   39.9630   31.8640   39.2140 H   0  0  0  0  0  0  0  0  0  0  0  0
   38.7690   33.4170   40.3300 C   0  0  0  0  0  0  0  0  0  0  0  0
   39.5120   33.8820   40.9660 H   0  0  0  0  0  0  0  0  0  0  0  0
   37.4560   33.7060   40.2400 N   0  0  0  0  0  0  0  0  0  0  0  0
   36.9230   34.4310   40.7680 H   0  0  0  0  0  0  0  0  0  0  0  0
   36.9470   32.9000   39.3500 N   0  0  0  0  0  0  0  0  0  0  0  0
  1 23  1  0  0  0  0
  1  5  1  0  0  0  0
  2  1  1  0  0  0  0
  3  1  1  0  0  0  0
  4  5  2  0  0  0  0
  4  9  1  0  0  0  0
  5  6  1  0  0  0  0
  6 10  1  0  0  0  0
  6  7  2  0  0  0  0
  7 11  1  0  0  0  0
  8  7  1  0  0  0  0
  8 12  1  0  0  0  0
  9  8  2  0  0  0  0
 13  9  1  0  0  0  0
 14 20  1  0  0  0  0
 14 15  1  0  0  0  0
 15 21  1  0  0  0  0
 16 15  2  0  0  0  0
 16  4  1  0  0  0  0
 17 16  1  0  0  0  0
 18 19  1  0  0  0  0
 18 17  2  0  0  0  0
 19 14  2  0  0  0  0
 22 18  1  0  0  0  0
 23 24  1  0  0  0  0
 25 26  1  0  0  0  0
 25 23  1  0  0  0  0
 27 26  1  0  0  0  0
 28 25  1  0  0  0  0
 29 28  1  0  0  0  0
 30 25  1  0  0  0  0
 31 32  1  0  0  0  0
 31 30  1  0  0  0  0
 33 31  1  0  0  0  0
 34 31  1  0  0  0  0
 34 37  1  0  0  0  0
 35 34  1  0  0  0  0
 36 34  1  0  0  0  0
 37 44  2  0  0  0  0
 37 38  1  0  0  0  0
 38 40  2  0  0  0  0
 39 38  1  0  0  0  0
 40 41  1  0  0  0  0
 42 40  1  0  0  0  0
 42 43  1  0  0  0  0
 44 42  1  0  0  0  0
M  END
>  <minimizedAffinity>
-6.29497099

$$$$

 OpenBabel03252508483D

 44 46  0  0  0  0  0  0  0  0999 V2000
   36.2360   30.6080   40.8580 C   0  0  0  0  0  0  0  0  0  0  0  0
   35.3500   31.2400   41.0660 H   0  0  0  0  0  0  0  0  0  0  0  0
   37.1180   31.2110   41.1750 H   0  0  0  0  0  0  0  0  0  0  0  0
   37.2200   31.0980   38.6050 C   0  0  0  0  0  0  0  0  0  0  0  0
   36.3570   30.3430   39.3950 C   0  0  0  0  0  0  0  0  0  0  0  0
   35.6150   29.3490   38.8000 C   0  0  0  0  0  0  0  0  0  0  0  0
   35.7300   29.1110   37.4610 C   0  0  0  0  0  0  0  0  0  0  0  0
   36.5680   29.8330   36.6560 C   0  0  0  0  0  0  0  0  0  0  0  0
   37.2930   30.8200   37.2920 C   0  0  0  0  0  0  0  0  0  0  0  0
   34.9510   28.7870   39.4700 H   0  0  0  0  0  0  0  0  0  0  0  0
   35.0970   28.3050   37.1090 H   0  0  0  0  0  0  0  0  0  0  0  0
   36.6340   29.6200   35.6070 H   0  0  0  0  0  0  0  0  0  0  0  0
   37.9740   31.4240   36.7050 H   0  0  0  0  0  0  0  0  0  0  0  0
   38.3370   34.3260   40.2080 C   0  0  0  0  0  0  0  0  0  0  0  0
   37.5120   33.4060   39.5340 C   0  0  0  0  0  0  0  0  0  0  0  0
   37.9760   32.1320   39.2880 C   0  0  0  0  0  0  0  0  0  0  0  0
   39.2370   31.8270   39.7220 N   0  0  0  0  0  0  0  0  0  0  0  0
   40.0240   32.7190   40.3710 C   0  0  0  0  0  0  0  0  0  0  0  0
   39.5520   33.9710   40.6040 N   0  0  0  0  0  0  0  0  0  0  0  0
   37.9080   35.3060   40.3660 H   0  0  0  0  0  0  0  0  0  0  0  0
   36.5070   33.6010   39.1720 H   0  0  0  0  0  0  0  0  0  0  0  0
   41.0010   32.3600   40.6630 H   0  0  0  0  0  0  0  0  0  0  0  0
   36.1690   29.4400   41.6780 N   0  0  0  0  0  0  0  0  0  0  0  0
   35.3390   29.4050   42.3110 H   0  0  0  0  0  0  0  0  0  0  0  0
   37.5870   29.2260   42.6340 S   0  0  0  0  0  0  0  0  0  0  0  0
   37.2440   29.1530   44.0910 O   0  0  0  0  0  0  0  0  0  0  0  0
   37.8860   29.4510   44.7820 H   0  0  0  0  0  0  0  0  0  0  0  0
   38.5730   30.3090   42.3760 O   0  0  0  0  0  0  0  0  0  0  0  0
   38.8130   30.6820   41.4770 H   0  0  0  0  0  0  0  0  0  0  0  0
   38.2750   27.7520   42.1740 O   0  0  0  0  0  0  0  0  0  0  0  0
   37.3060   27.0320   41.4860 C   0  0  0  0  0  0  0  0  0  0  0  0
   37.7970   26.5980   40.5720 H   0  0  0  0  0  0  0  0  0  0  0  0
   36.4270   27.5950   41.1800 H   0  0  0  0  0  0  0  0  0  0  0  0
   36.8470   25.8570   42.3640 C   0  0  0  0  0  0  0  0  0  0  0  0
   37.4690   25.8640   43.3060 H   0  0  0  0  0  0  0  0  0  0  0  0
   35.7930   25.9480   42.6120 H   0  0  0  0  0  0  0  0  0  0  0  0
   37.1530   24.6160   41.6080 C   0  0  0  0  0  0  0  0  0  0  0  0
   36.4890   23.9160   40.6380 C   0  0  0  0  0  0  0  0  0  0  0  0
   35.5360   24.2360   40.2680 H   0  0  0  0  0  0  0  0  0  0  0  0
   37.2980   22.8300   40.3260 C   0  0  0  0  0  0  0  0  0  0  0  0
   37.0370   22.0850   39.5840 H   0  0  0  0  0  0  0  0  0  0  0  0
   38.4070   22.8880   41.0900 N   0  0  0  0  0  0  0  0  0  0  0  0
   39.2110   22.2240   41.1000 H   0  0  0  0  0  0  0  0  0  0  0  0
   38.3010   23.9510   41.8380 N   0  0  0  0  0  0  0  0  0  0  0  0
  1  2  1  0  0  0  0
  1  3  1  0  0  0  0
  1 23  1  0  0  0  0
  4 16  1  0  0  0  0
  4  5  1  0  0  0  0
  5  1  1  0  0  0  0
  6  5  2  0  0  0  0
  6 10  1  0  0  0  0
  7  6  1  0  0  0  0
  8  9  1  0  0  0  0
  8  7  2  0  0  0  0
  9  4  2  0  0  0  0
 11  7  1  0  0  0  0
 12  8  1  0  0  0  0
 13  9  1  0  0  0  0
 14 20  1  0  0  0  0
 14 19  1  0  0  0  0
 15 14  2  0  0  0  0
 16 15  1  0  0  0  0
 16 17  2  0  0  0  0
 17 18  1  0  0  0  0
 18 19  2  0  0  0  0
 18 22  1  0  0  0  0
 21 15  1  0  0  0  0
 23 24  1  0  0  0  0
 23 25  1  0  0  0  0
 25 26  1  0  0  0  0
 26 27  1  0  0  0  0
 28 25  1  0  0  0  0
 29 28  1  0  0  0  0
 30 25  1  0  0  0  0
 31 30  1  0  0  0  0
 31 34  1  0  0  0  0
 32 31  1  0  0  0  0
 33 31  1  0  0  0  0
 34 36  1  0  0  0  0
 34 35  1  0  0  0  0
 37 44  2  0  0  0  0
 37 34  1  0  0  0  0
 38 37  1  0  0  0  0
 39 38  1  0  0  0  0
 40 38  2  0  0  0  0
 40 42  1  0  0  0  0
 41 40  1  0  0  0  0
 42 43  1  0  0  0  0
 42 44  1  0  0  0  0
M  END
>  <minimizedAffinity>
-6.20103645

$$$$

 OpenBabel03252508483D

 44 46  0  0  0  0  0  0  0  0999 V2000
   38.4090   30.7720   41.1440 C   0  0  0  0  0  0  0  0  0  0  0  0
   39.0040   30.5780   40.2310 H   0  0  0  0  0  0  0  0  0  0  0  0
   39.1200   31.2110   41.8820 H   0  0  0  0  0  0  0  0  0  0  0  0
   37.3850   28.4990   40.8740 C   0  0  0  0  0  0  0  0  0  0  0  0
   37.8870   29.4920   41.7100 C   0  0  0  0  0  0  0  0  0  0  0  0
   37.8940   29.2740   43.0680 C   0  0  0  0  0  0  0  0  0  0  0  0
   37.4150   28.1030   43.5790 C   0  0  0  0  0  0  0  0  0  0  0  0
   36.9150   27.1050   42.7870 C   0  0  0  0  0  0  0  0  0  0  0  0
   36.9270   27.3650   41.4310 C   0  0  0  0  0  0  0  0  0  0  0  0
   38.3000   30.0910   43.6790 H   0  0  0  0  0  0  0  0  0  0  0  0
   37.4720   28.0470   44.6600 H   0  0  0  0  0  0  0  0  0  0  0  0
   36.5460   26.1960   43.2220 H   0  0  0  0  0  0  0  0  0  0  0  0
   36.5430   26.6120   40.7550 H   0  0  0  0  0  0  0  0  0  0  0  0
   38.3460   28.7900   37.2360 C   0  0  0  0  0  0  0  0  0  0  0  0
   38.4390   28.4600   38.6020 C   0  0  0  0  0  0  0  0  0  0  0  0
   37.4050   28.7870   39.4510 C   0  0  0  0  0  0  0  0  0  0  0  0
   36.3240   29.4270   38.9100 N   0  0  0  0  0  0  0  0  0  0  0  0
   36.2430   29.7410   37.5930 C   0  0  0  0  0  0  0  0  0  0  0  0
   37.2710   29.4120   36.7700 N   0  0  0  0  0  0  0  0  0  0  0  0
   39.1950   28.5040   36.6300 H   0  0  0  0  0  0  0  0  0  0  0  0
   39.2740   27.9530   39.0770 H   0  0  0  0  0  0  0  0  0  0  0  0
   35.3380   30.2460   37.2850 H   0  0  0  0  0  0  0  0  0  0  0  0
   37.4100   31.7470   40.8430 N   0  0  0  0  0  0  0  0  0  0  0  0
   36.5670   31.3650   40.3590 H   0  0  0  0  0  0  0  0  0  0  0  0
   38.0280   33.0520   39.9000 S   0  0  0  0  0  0  0  0  0  0  0  0
   36.9860   34.1100   39.7030 O   0  0  0  0  0  0  0  0  0  0  0  0
   36.9870   34.6830   38.8970 H   0  0  0  0  0  0  0  0  0  0  0  0
   38.5440   32.5670   38.5930 O   0  0  0  0  0  0  0  0  0  0  0  0
   39.0940   31.7420   38.4480 H   0  0  0  0  0  0  0  0  0  0  0  0
   39.3130   33.7230   40.7690 O   0  0  0  0  0  0  0  0  0  0  0  0
   39.7920   34.8060   40.0430 C   0  0  0  0  0  0  0  0  0  0  0  0
   39.4250   35.7390   40.5530 H   0  0  0  0  0  0  0  0  0  0  0  0
   39.5000   34.8390   38.9960 H   0  0  0  0  0  0  0  0  0  0  0  0
   41.3270   34.8130   40.1200 C   0  0  0  0  0  0  0  0  0  0  0  0
   41.6690   35.8880   40.1180 H   0  0  0  0  0  0  0  0  0  0  0  0
   41.6710   34.3120   41.0210 H   0  0  0  0  0  0  0  0  0  0  0  0
   41.8180   34.1610   38.8790 C   0  0  0  0  0  0  0  0  0  0  0  0
   41.9340   32.8560   38.4830 C   0  0  0  0  0  0  0  0  0  0  0  0
   41.6410   32.0470   39.1200 H   0  0  0  0  0  0  0  0  0  0  0  0
   42.4670   32.8910   37.2000 C   0  0  0  0  0  0  0  0  0  0  0  0
   42.6770   32.0020   36.6160 H   0  0  0  0  0  0  0  0  0  0  0  0
   42.6590   34.1780   36.8500 N   0  0  0  0  0  0  0  0  0  0  0  0
   43.0440   34.5460   35.9530 H   0  0  0  0  0  0  0  0  0  0  0  0
   42.2680   34.9100   37.8560 N   0  0  0  0  0  0  0  0  0  0  0  0
  1  5  1  0  0  0  0
  1  3  1  0  0  0  0
  2  1  1  0  0  0  0
  4  9  2  0  0  0  0
  4  5  1  0  0  0  0
  5  6  2  0  0  0  0
  6  7  1  0  0  0  0
  6 10  1  0  0  0  0
  7 11  1  0  0  0  0
  8 12  1  0  0  0  0
  8  7  2  0  0  0  0
  9  8  1  0  0  0  0
 13  9  1  0  0  0  0
 14 15  1  0  0  0  0
 15 21  1  0  0  0  0
 15 16  2  0  0  0  0
 16  4  1  0  0  0  0
 17 16  1  0  0  0  0
 18 17  2  0  0  0  0
 19 14  2  0  0  0  0
 19 18  1  0  0  0  0
 20 14  1  0  0  0  0
 22 18  1  0  0  0  0
 23  1  1  0  0  0  0
 24 23  1  0  0  0  0
 25 30  1  0  0  0  0
 25 23  1  0  0  0  0
 26 25  1  0  0  0  0
 27 26  1  0  0  0  0
 28 25  1  0  0  0  0
 29 28  1  0  0  0  0
 31 34  1  0  0  0  0
 31 32  1  0  0  0  0
 31 30  1  0  0  0  0
 33 31  1  0  0  0  0
 34 36  1  0  0  0  0
 35 34  1  0  0  0  0
 37 34  1  0  0  0  0
 38 37  1  0  0  0  0
 38 39  1  0  0  0  0
 40 38  2  0  0  0  0
 41 40  1  0  0  0  0
 42 40  1  0  0  0  0
 42 44  1  0  0  0  0
 43 42  1  0  0  0  0
 44 37  2  0  0  0  0
M  END
>  <minimizedAffinity>
-6.00319195

$$$$

 OpenBabel03252508483D

 44 46  0  0  0  0  0  0  0  0999 V2000
   36.3990   31.1560   40.8400 C   0  0  0  0  0  0  0  0  0  0  0  0
   35.6690   31.9800   40.9510 H   0  0  0  0  0  0  0  0  0  0  0  0
   37.3670   31.5540   41.2250 H   0  0  0  0  0  0  0  0  0  0  0  0
   37.4950   31.5060   38.6120 C   0  0  0  0  0  0  0  0  0  0  0  0
   36.5830   30.8100   39.3990 C   0  0  0  0  0  0  0  0  0  0  0  0
   35.8510   29.7960   38.8250 C   0  0  0  0  0  0  0  0  0  0  0  0
   36.0220   29.4850   37.5080 C   0  0  0  0  0  0  0  0  0  0  0  0
   36.9100   30.1480   36.7050 C   0  0  0  0  0  0  0  0  0  0  0  0
   37.6230   31.1570   37.3210 C   0  0  0  0  0  0  0  0  0  0  0  0
   35.1460   29.2820   39.4920 H   0  0  0  0  0  0  0  0  0  0  0  0
   35.3910   28.6710   37.1700 H   0  0  0  0  0  0  0  0  0  0  0  0
   37.0200   29.8770   35.6730 H   0  0  0  0  0  0  0  0  0  0  0  0
   38.3410   31.7170   36.7340 H   0  0  0  0  0  0  0  0  0  0  0  0
   38.5330   34.7410   40.2550 C   0  0  0  0  0  0  0  0  0  0  0  0
   37.7140   33.7920   39.6130 C   0  0  0  0  0  0  0  0  0  0  0  0
   38.2380   32.5640   39.2730 C   0  0  0  0  0  0  0  0  0  0  0  0
   39.5490   32.3310   39.5850 N   0  0  0  0  0  0  0  0  0  0  0  0
   40.3290   33.2510   40.2040 C   0  0  0  0  0  0  0  0  0  0  0  0
   39.7980   34.4560   40.5310 N   0  0  0  0  0  0  0  0  0  0  0  0
   38.0550   35.6830   40.4900 H   0  0  0  0  0  0  0  0  0  0  0  0
   36.6700   33.9310   39.3450 H   0  0  0  0  0  0  0  0  0  0  0  0
   41.3490   32.9490   40.3970 H   0  0  0  0  0  0  0  0  0  0  0  0
   35.9950   30.0690   41.6730 N   0  0  0  0  0  0  0  0  0  0  0  0
   35.3490   30.3380   42.4490 H   0  0  0  0  0  0  0  0  0  0  0  0
   37.3360   29.2270   42.3550 S   0  0  0  0  0  0  0  0  0  0  0  0
   37.5180   27.8920   41.7000 O   0  0  0  0  0  0  0  0  0  0  0  0
   37.9140   27.1310   42.1930 H   0  0  0  0  0  0  0  0  0  0  0  0
   37.1790   29.0780   43.8260 O   0  0  0  0  0  0  0  0  0  0  0  0
   36.8560   29.7870   44.4570 H   0  0  0  0  0  0  0  0  0  0  0  0
   38.7100   30.1620   42.0530 O   0  0  0  0  0  0  0  0  0  0  0  0
   39.7040   29.3110   41.5850 C   0  0  0  0  0  0  0  0  0  0  0  0
   40.1870   29.8150   40.7030 H   0  0  0  0  0  0  0  0  0  0  0  0
   39.3740   28.3190   41.2860 H   0  0  0  0  0  0  0  0  0  0  0  0
   40.7770   29.1590   42.6740 C   0  0  0  0  0  0  0  0  0  0  0  0
   41.7750   29.4210   42.2170 H   0  0  0  0  0  0  0  0  0  0  0  0
   40.5680   29.8120   43.5170 H   0  0  0  0  0  0  0  0  0  0  0  0
   40.7970   27.7230   43.0540 C   0  0  0  0  0  0  0  0  0  0  0  0
   41.6400   26.6840   42.7660 C   0  0  0  0  0  0  0  0  0  0  0  0
   42.5020   26.8160   42.1430 H   0  0  0  0  0  0  0  0  0  0  0  0
   41.1220   25.5750   43.4230 C   0  0  0  0  0  0  0  0  0  0  0  0
   41.5750   24.5920   43.3840 H   0  0  0  0  0  0  0  0  0  0  0  0
   40.0060   25.9490   44.0800 N   0  0  0  0  0  0  0  0  0  0  0  0
   39.3810   25.3560   44.6670 H   0  0  0  0  0  0  0  0  0  0  0  0
   39.8340   27.2210   43.8480 N   0  0  0  0  0  0  0  0  0  0  0  0
  1  2  1  0  0  0  0
  1  3  1  0  0  0  0
  1 23  1  0  0  0  0
  4 16  1  0  0  0  0
  4  5  1  0  0  0  0
  5  1  1  0  0  0  0
  6  5  2  0  0  0  0
  6 10  1  0  0  0  0
  7  6  1  0  0  0  0
  8  9  1  0  0  0  0
  8  7  2  0  0  0  0
  9  4  2  0  0  0  0
 11  7  1  0  0  0  0
 12  8  1  0  0  0  0
 13  9  1  0  0  0  0
 14 20  1  0  0  0  0
 14 19  1  0  0  0  0
 15 14  2  0  0  0  0
 16 17  2  0  0  0  0
 16 15  1  0  0  0  0
 17 18  1  0  0  0  0
 18 22  1  0  0  0  0
 18 19  2  0  0  0  0
 21 15  1  0  0  0  0
 23 25  1  0  0  0  0
 23 24  1  0  0  0  0
 25 28  1  0  0  0  0
 26 27  1  0  0  0  0
 26 25  1  0  0  0  0
 28 29  1  0  0  0  0
 30 25  1  0  0  0  0
 31 30  1  0  0  0  0
 31 34  1  0  0  0  0
 32 31  1  0  0  0  0
 33 31  1  0  0  0  0
 34 37  1  0  0  0  0
 34 36  1  0  0  0  0
 35 34  1  0  0  0  0
 37 44  2  0  0  0  0
 38 37  1  0  0  0  0
 38 40  2  0  0  0  0
 39 38  1  0  0  0  0
 40 42  1  0  0  0  0
 41 40  1  0  0  0  0
 42 43  1  0  0  0  0
 44 42  1  0  0  0  0
M  END
>  <minimizedAffinity>
-6.00140953

$$$$

 OpenBabel03252508483D

 44 46  0  0  0  0  0  0  0  0999 V2000
   37.6340   28.3200   42.0270 C   0  0  0  0  0  0  0  0  0  0  0  0
   38.0880   28.8080   41.1430 H   0  0  0  0  0  0  0  0  0  0  0  0
   38.1220   28.7860   42.9140 H   0  0  0  0  0  0  0  0  0  0  0  0
   39.2710   26.4200   42.0030 C   0  0  0  0  0  0  0  0  0  0  0  0
   37.9510   26.8610   42.0390 C   0  0  0  0  0  0  0  0  0  0  0  0
   36.9420   25.9270   42.0840 C   0  0  0  0  0  0  0  0  0  0  0  0
   37.2380   24.5950   42.0940 C   0  0  0  0  0  0  0  0  0  0  0  0
   38.5230   24.1260   42.0600 C   0  0  0  0  0  0  0  0  0  0  0  0
   39.5040   25.0970   42.0150 C   0  0  0  0  0  0  0  0  0  0  0  0
   35.9210   26.3310   42.1090 H   0  0  0  0  0  0  0  0  0  0  0  0
   36.3620   23.9580   42.1300 H   0  0  0  0  0  0  0  0  0  0  0  0
   38.7200   23.0720   42.0690 H   0  0  0  0  0  0  0  0  0  0  0  0
   40.5410   24.7850   41.9870 H   0  0  0  0  0  0  0  0  0  0  0  0
   41.8350   29.0410   42.8960 C   0  0  0  0  0  0  0  0  0  0  0  0
   40.8510   28.0480   43.0650 C   0  0  0  0  0  0  0  0  0  0  0  0
   40.2910   27.4520   41.9570 C   0  0  0  0  0  0  0  0  0  0  0  0
   40.7320   27.8660   40.7290 N   0  0  0  0  0  0  0  0  0  0  0  0
   41.6810   28.8220   40.5760 C   0  0  0  0  0  0  0  0  0  0  0  0
   42.2220   29.4000   41.6790 N   0  0  0  0  0  0  0  0  0  0  0  0
   42.2290   29.4650   43.8100 H   0  0  0  0  0  0  0  0  0  0  0  0
   40.4700   27.6880   44.0160 H   0  0  0  0  0  0  0  0  0  0  0  0
   41.9460   29.0630   39.5560 H   0  0  0  0  0  0  0  0  0  0  0  0
   36.2410   28.6330   42.0610 N   0  0  0  0  0  0  0  0  0  0  0  0
   35.6120   27.8000   42.0310 H   0  0  0  0  0  0  0  0  0  0  0  0
   35.7770   29.7060   40.7930 S   0  0  0  0  0  0  0  0  0  0  0  0
   35.7790   31.1270   41.2680 O   0  0  0  0  0  0  0  0  0  0  0  0
   35.1730   31.7990   40.8690 H   0  0  0  0  0  0  0  0  0  0  0  0
   34.4470   29.3340   40.2420 O   0  0  0  0  0  0  0  0  0  0  0  0
   34.1340   28.4030   40.0420 H   0  0  0  0  0  0  0  0  0  0  0  0
   36.9300   29.5500   39.5680 O   0  0  0  0  0  0  0  0  0  0  0  0
   37.3230   30.8290   39.1950 C   0  0  0  0  0  0  0  0  0  0  0  0
   36.8230   31.5510   39.8990 H   0  0  0  0  0  0  0  0  0  0  0  0
   37.0890   31.1160   38.1730 H   0  0  0  0  0  0  0  0  0  0  0  0
   38.8400   30.9600   39.4010 C   0  0  0  0  0  0  0  0  0  0  0  0
   39.1430   30.2390   40.2140 H   0  0  0  0  0  0  0  0  0  0  0  0
   39.3760   30.7350   38.4830 H   0  0  0  0  0  0  0  0  0  0  0  0
   39.0860   32.3430   39.8830 C   0  0  0  0  0  0  0  0  0  0  0  0
   39.9270   33.3450   39.4820 C   0  0  0  0  0  0  0  0  0  0  0  0
   40.5970   33.2190   38.6550 H   0  0  0  0  0  0  0  0  0  0  0  0
   39.6890   34.4130   40.3380 C   0  0  0  0  0  0  0  0  0  0  0  0
   40.2090   35.3610   40.2700 H   0  0  0  0  0  0  0  0  0  0  0  0
   38.7350   34.0520   41.2190 N   0  0  0  0  0  0  0  0  0  0  0  0
   38.3290   34.6220   41.9920 H   0  0  0  0  0  0  0  0  0  0  0  0
   38.3930   32.8260   40.9310 N   0  0  0  0  0  0  0  0  0  0  0  0
  1  5  1  0  0  0  0
  1 23  1  0  0  0  0
  1  3  1  0  0  0  0
  2  1  1  0  0  0  0
  4  9  2  0  0  0  0
  4  5  1  0  0  0  0
  5  6  2  0  0  0  0
  6  7  1  0  0  0  0
  6 10  1  0  0  0  0
  7 11  1  0  0  0  0
  8 12  1  0  0  0  0
  8  7  2  0  0  0  0
  9  8  1  0  0  0  0
 13  9  1  0  0  0  0
 14 15  1  0  0  0  0
 14 20  1  0  0  0  0
 15 21  1  0  0  0  0
 16  4  1  0  0  0  0
 16 15  2  0  0  0  0
 17 16  1  0  0  0  0
 18 17  2  0  0  0  0
 18 19  1  0  0  0  0
 19 14  2  0  0  0  0
 22 18  1  0  0  0  0
 24 23  1  0  0  0  0
 25 26  1  0  0  0  0
 25 23  1  0  0  0  0
 27 26  1  0  0  0  0
 28 25  1  0  0  0  0
 29 28  1  0  0  0  0
 30 25  1  0  0  0  0
 31 34  1  0  0  0  0
 31 30  1  0  0  0  0
 31 32  1  0  0  0  0
 33 31  1  0  0  0  0
 34 37  1  0  0  0  0
 34 35  1  0  0  0  0
 36 34  1  0  0  0  0
 37 44  2  0  0  0  0
 38 37  1  0  0  0  0
 38 40  2  0  0  0  0
 39 38  1  0  0  0  0
 40 42  1  0  0  0  0
 41 40  1  0  0  0  0
 42 43  1  0  0  0  0
 44 42  1  0  0  0  0
M  END
>  <minimizedAffinity>
-5.80677509

$$$$

 OpenBabel03252508483D

 44 46  0  0  0  0  0  0  0  0999 V2000
   39.1940   31.1240   42.0260 C   0  0  0  0  0  0  0  0  0  0  0  0
   38.4570   31.0860   42.8510 H   0  0  0  0  0  0  0  0  0  0  0  0
   38.8010   30.4420   41.2370 H   0  0  0  0  0  0  0  0  0  0  0  0
   40.7130   29.2270   42.6460 C   0  0  0  0  0  0  0  0  0  0  0  0
   40.5140   30.5960   42.4800 C   0  0  0  0  0  0  0  0  0  0  0  0
   41.5580   31.4530   42.7430 C   0  0  0  0  0  0  0  0  0  0  0  0
   42.7620   30.9630   43.1580 C   0  0  0  0  0  0  0  0  0  0  0  0
   42.9920   29.6250   43.3310 C   0  0  0  0  0  0  0  0  0  0  0  0
   41.9190   28.8020   43.0560 C   0  0  0  0  0  0  0  0  0  0  0  0
   41.3450   32.5200   42.5970 H   0  0  0  0  0  0  0  0  0  0  0  0
   43.5040   31.7330   43.3340 H   0  0  0  0  0  0  0  0  0  0  0  0
   43.9510   29.2740   43.6590 H   0  0  0  0  0  0  0  0  0  0  0  0
   42.0430   27.7320   43.1750 H   0  0  0  0  0  0  0  0  0  0  0  0
   38.1800   26.9980   40.9550 C   0  0  0  0  0  0  0  0  0  0  0  0
   39.3170   27.8120   41.1210 C   0  0  0  0  0  0  0  0  0  0  0  0
   39.5760   28.3740   42.3520 C   0  0  0  0  0  0  0  0  0  0  0  0
   38.6960   28.1050   43.3640 N   0  0  0  0  0  0  0  0  0  0  0  0
   37.6030   27.3200   43.1950 C   0  0  0  0  0  0  0  0  0  0  0  0
   37.3630   26.7740   41.9760 N   0  0  0  0  0  0  0  0  0  0  0  0
   38.0400   26.5920   39.9630 H   0  0  0  0  0  0  0  0  0  0  0  0
   40.0430   28.0540   40.3500 H   0  0  0  0  0  0  0  0  0  0  0  0
   36.9840   27.1810   44.0700 H   0  0  0  0  0  0  0  0  0  0  0  0
   39.2270   32.4520   41.5000 N   0  0  0  0  0  0  0  0  0  0  0  0
   39.0100   33.1970   42.1980 H   0  0  0  0  0  0  0  0  0  0  0  0
   38.1690   32.6510   40.1530 S   0  0  0  0  0  0  0  0  0  0  0  0
   38.4310   33.9520   39.4560 O   0  0  0  0  0  0  0  0  0  0  0  0
   37.7100   34.4260   38.9730 H   0  0  0  0  0  0  0  0  0  0  0  0
   36.7460   32.5540   40.5730 O   0  0  0  0  0  0  0  0  0  0  0  0
   36.3690   31.8840   41.2150 H   0  0  0  0  0  0  0  0  0  0  0  0
   38.4990   31.3920   39.0750 O   0  0  0  0  0  0  0  0  0  0  0  0
   39.3240   31.8970   38.0780 C   0  0  0  0  0  0  0  0  0  0  0  0
   39.1630   33.0100   38.0430 H   0  0  0  0  0  0  0  0  0  0  0  0
   39.1670   31.4880   37.0830 H   0  0  0  0  0  0  0  0  0  0  0  0
   40.7880   31.6550   38.4770 C   0  0  0  0  0  0  0  0  0  0  0  0
   40.8210   31.4960   39.5940 H   0  0  0  0  0  0  0  0  0  0  0  0
   41.1900   30.7860   37.9640 H   0  0  0  0  0  0  0  0  0  0  0  0
   41.5280   32.9020   38.1580 C   0  0  0  0  0  0  0  0  0  0  0  0
   41.7970   34.0450   38.8610 C   0  0  0  0  0  0  0  0  0  0  0  0
   41.4510   34.1800   39.8660 H   0  0  0  0  0  0  0  0  0  0  0  0
   42.5410   34.8540   38.0110 C   0  0  0  0  0  0  0  0  0  0  0  0
   42.9070   35.8350   38.2880 H   0  0  0  0  0  0  0  0  0  0  0  0
   42.7060   34.2070   36.8400 N   0  0  0  0  0  0  0  0  0  0  0  0
   43.2160   34.5390   35.9930 H   0  0  0  0  0  0  0  0  0  0  0  0
   42.1010   33.0570   36.9490 N   0  0  0  0  0  0  0  0  0  0  0  0
  1  5  1  0  0  0  0
  1  2  1  0  0  0  0
  3  1  1  0  0  0  0
  4  9  1  0  0  0  0
  5  4  2  0  0  0  0
  5  6  1  0  0  0  0
  6  7  2  0  0  0  0
  7  8  1  0  0  0  0
  7 11  1  0  0  0  0
  8 12  1  0  0  0  0
  9 13  1  0  0  0  0
  9  8  2  0  0  0  0
 10  6  1  0  0  0  0
 14 15  2  0  0  0  0
 14 19  1  0  0  0  0
 15 16  1  0  0  0  0
 16  4  1  0  0  0  0
 16 17  2  0  0  0  0
 18 17  1  0  0  0  0
 18 22  1  0  0  0  0
 19 18  2  0  0  0  0
 20 14  1  0  0  0  0
 21 15  1  0  0  0  0
 23  1  1  0  0  0  0
 23 24  1  0  0  0  0
 25 28  1  0  0  0  0
 25 23  1  0  0  0  0
 26 25  1  0  0  0  0
 27 26  1  0  0  0  0
 28 29  1  0  0  0  0
 30 25  1  0  0  0  0
 31 34  1  0  0  0  0
 31 30  1  0  0  0  0
 32 31  1  0  0  0  0
 33 31  1  0  0  0  0
 34 35  1  0  0  0  0
 36 34  1  0  0  0  0
 37 34  1  0  0  0  0
 37 38  1  0  0  0  0
 38 39  1  0  0  0  0
 40 41  1  0  0  0  0
 40 38  2  0  0  0  0
 42 44  1  0  0  0  0
 42 40  1  0  0  0  0
 43 42  1  0  0  0  0
 44 37  2  0  0  0  0
M  END
>  <minimizedAffinity>
-5.56373644

$$$$

 OpenBabel03252508483D

 44 46  0  0  0  0  0  0  0  0999 V2000
   35.8690   28.7030   41.1550 C   0  0  0  0  0  0  0  0  0  0  0  0
   35.1270   28.0740   40.6270 H   0  0  0  0  0  0  0  0  0  0  0  0
   35.3300   29.1390   42.0280 H   0  0  0  0  0  0  0  0  0  0  0  0
   36.4160   29.6590   38.9020 C   0  0  0  0  0  0  0  0  0  0  0  0
   36.3190   29.8260   40.2810 C   0  0  0  0  0  0  0  0  0  0  0  0
   36.6470   31.0470   40.8240 C   0  0  0  0  0  0  0  0  0  0  0  0
   37.0580   32.0700   40.0200 C   0  0  0  0  0  0  0  0  0  0  0  0
   37.1650   31.9400   38.6620 C   0  0  0  0  0  0  0  0  0  0  0  0
   36.8260   30.7000   38.1590 C   0  0  0  0  0  0  0  0  0  0  0  0
   36.5530   31.1220   41.9150 H   0  0  0  0  0  0  0  0  0  0  0  0
   37.2880   32.9800   40.5610 H   0  0  0  0  0  0  0  0  0  0  0  0
   37.4910   32.7650   38.0590 H   0  0  0  0  0  0  0  0  0  0  0  0
   36.8910   30.5390   37.0900 H   0  0  0  0  0  0  0  0  0  0  0  0
   34.5940   26.7230   37.3840 C   0  0  0  0  0  0  0  0  0  0  0  0
   34.8280   28.0310   37.8520 C   0  0  0  0  0  0  0  0  0  0  0  0
   36.0560   28.3490   38.3880 C   0  0  0  0  0  0  0  0  0  0  0  0
   36.9990   27.3590   38.4360 N   0  0  0  0  0  0  0  0  0  0  0  0
   36.7650   26.1030   37.9820 C   0  0  0  0  0  0  0  0  0  0  0  0
   35.5490   25.8050   37.4570 N   0  0  0  0  0  0  0  0  0  0  0  0
   33.6080   26.5450   36.9770 H   0  0  0  0  0  0  0  0  0  0  0  0
   34.1130   28.8480   37.8360 H   0  0  0  0  0  0  0  0  0  0  0  0
   37.5880   25.4090   38.0740 H   0  0  0  0  0  0  0  0  0  0  0  0
   36.9170   27.8640   41.6440 N   0  0  0  0  0  0  0  0  0  0  0  0
   36.8080   26.8540   41.4020 H   0  0  0  0  0  0  0  0  0  0  0  0
   37.1190   27.9910   43.3510 S   0  0  0  0  0  0  0  0  0  0  0  0
   35.9350   27.4230   44.0730 O   0  0  0  0  0  0  0  0  0  0  0  0
   35.6680   27.7630   44.9630 H   0  0  0  0  0  0  0  0  0  0  0  0
   37.3580   29.4020   43.7560 O   0  0  0  0  0  0  0  0  0  0  0  0
   37.9560   30.0540   43.2860 H   0  0  0  0  0  0  0  0  0  0  0  0
   38.4810   27.0770   43.7570 O   0  0  0  0  0  0  0  0  0  0  0  0
   38.9780   26.5200   42.5850 C   0  0  0  0  0  0  0  0  0  0  0  0
   40.0000   26.9590   42.4140 H   0  0  0  0  0  0  0  0  0  0  0  0
   38.3750   26.6770   41.6940 H   0  0  0  0  0  0  0  0  0  0  0  0
   39.1550   25.0080   42.7920 C   0  0  0  0  0  0  0  0  0  0  0  0
   40.2180   24.7430   42.5230 H   0  0  0  0  0  0  0  0  0  0  0  0
   38.9500   24.7320   43.8230 H   0  0  0  0  0  0  0  0  0  0  0  0
   38.2450   24.3370   41.8290 C   0  0  0  0  0  0  0  0  0  0  0  0
   38.4280   23.3710   40.8770 C   0  0  0  0  0  0  0  0  0  0  0  0
   39.3890   22.9320   40.6990 H   0  0  0  0  0  0  0  0  0  0  0  0
   37.1830   23.1630   40.2970 C   0  0  0  0  0  0  0  0  0  0  0  0
   37.0060   22.4480   39.5020 H   0  0  0  0  0  0  0  0  0  0  0  0
   36.2910   23.9810   40.8890 N   0  0  0  0  0  0  0  0  0  0  0  0
   35.2720   24.0710   40.6860 H   0  0  0  0  0  0  0  0  0  0  0  0
   36.9400   24.6650   41.7910 N   0  0  0  0  0  0  0  0  0  0  0  0
  1 23  1  0  0  0  0
  1  3  1  0  0  0  0
  2  1  1  0  0  0  0
  4  5  1  0  0  0  0
  5  6  2  0  0  0  0
  5  1  1  0  0  0  0
  6 10  1  0  0  0  0
  7 11  1  0  0  0  0
  7  6  1  0  0  0  0
  8  7  2  0  0  0  0
  9  8  1  0  0  0  0
  9  4  2  0  0  0  0
 12  8  1  0  0  0  0
 13  9  1  0  0  0  0
 14 19  2  0  0  0  0
 14 15  1  0  0  0  0
 15 16  2  0  0  0  0
 16 17  1  0  0  0  0
 16  4  1  0  0  0  0
 18 22  1  0  0  0  0
 18 17  2  0  0  0  0
 19 18  1  0  0  0  0
 20 14  1  0  0  0  0
 21 15  1  0  0  0  0
 23 25  1  0  0  0  0
 24 23  1  0  0  0  0
 25 28  1  0  0  0  0
 25 30  1  0  0  0  0
 25 26  1  0  0  0  0
 26 27  1  0  0  0  0
 29 28  1  0  0  0  0
 31 34  1  0  0  0  0
 31 30  1  0  0  0  0
 32 31  1  0  0  0  0
 33 31  1  0  0  0  0
 34 36  1  0  0  0  0
 35 34  1  0  0  0  0
 37 34  1  0  0  0  0
 38 37  1  0  0  0  0
 39 38  1  0  0  0  0
 40 38  2  0  0  0  0
 40 42  1  0  0  0  0
 41 40  1  0  0  0  0
 42 44  1  0  0  0  0
 43 42  1  0  0  0  0
 44 37  2  0  0  0  0
M  END
>  <minimizedAffinity>
-5.56342745

$$$$

 OpenBabel03252508483D

 44 46  0  0  0  0  0  0  0  0999 V2000
   36.7630   30.8920   40.8400 C   0  0  0  0  0  0  0  0  0  0  0  0
   36.4110   30.4680   41.8010 H   0  0  0  0  0  0  0  0  0  0  0  0
   36.0800   31.7430   40.6160 H   0  0  0  0  0  0  0  0  0  0  0  0
   36.8670   28.5370   39.9830 C   0  0  0  0  0  0  0  0  0  0  0  0
   36.6250   29.8870   39.7450 C   0  0  0  0  0  0  0  0  0  0  0  0
   36.2560   30.2800   38.4790 C   0  0  0  0  0  0  0  0  0  0  0  0
   36.1310   29.3570   37.4810 C   0  0  0  0  0  0  0  0  0  0  0  0
   36.3610   28.0230   37.6800 C   0  0  0  0  0  0  0  0  0  0  0  0
   36.7290   27.6730   38.9640 C   0  0  0  0  0  0  0  0  0  0  0  0
   36.0780   31.3550   38.3470 H   0  0  0  0  0  0  0  0  0  0  0  0
   35.8360   29.7860   36.5300 H   0  0  0  0  0  0  0  0  0  0  0  0
   36.2540   27.3240   36.8740 H   0  0  0  0  0  0  0  0  0  0  0  0
   36.9250   26.6300   39.1810 H   0  0  0  0  0  0  0  0  0  0  0  0
   36.8650   27.4720   43.6040 C   0  0  0  0  0  0  0  0  0  0  0  0
   36.3740   27.7910   42.3230 C   0  0  0  0  0  0  0  0  0  0  0  0
   37.2530   28.1840   41.3380 C   0  0  0  0  0  0  0  0  0  0  0  0
   38.5790   28.2440   41.6650 N   0  0  0  0  0  0  0  0  0  0  0  0
   39.0440   27.9340   42.9000 C   0  0  0  0  0  0  0  0  0  0  0  0
   38.1640   27.5500   43.8600 N   0  0  0  0  0  0  0  0  0  0  0  0
   36.1180   27.1730   44.3270 H   0  0  0  0  0  0  0  0  0  0  0  0
   35.3320   27.7600   42.0170 H   0  0  0  0  0  0  0  0  0  0  0  0
   40.1130   28.0190   43.0360 H   0  0  0  0  0  0  0  0  0  0  0  0
   38.0830   31.4060   41.0210 N   0  0  0  0  0  0  0  0  0  0  0  0
   38.4130   31.4050   42.0120 H   0  0  0  0  0  0  0  0  0  0  0  0
   38.2580   33.0040   40.3970 S   0  0  0  0  0  0  0  0  0  0  0  0
   38.9480   33.8920   41.3870 O   0  0  0  0  0  0  0  0  0  0  0  0
   38.7700   34.8650   41.4100 H   0  0  0  0  0  0  0  0  0  0  0  0
   36.9390   33.5700   40.0070 O   0  0  0  0  0  0  0  0  0  0  0  0
   36.2130   33.0830   39.5180 H   0  0  0  0  0  0  0  0  0  0  0  0
   39.2240   32.8910   39.0160 O   0  0  0  0  0  0  0  0  0  0  0  0
   39.9630   31.7180   39.1130 C   0  0  0  0  0  0  0  0  0  0  0  0
   39.5870   31.0190   38.3160 H   0  0  0  0  0  0  0  0  0  0  0  0
   39.9190   31.2110   40.0740 H   0  0  0  0  0  0  0  0  0  0  0  0
   41.4330   32.0310   38.7950 C   0  0  0  0  0  0  0  0  0  0  0  0
   42.0240   31.0780   38.9140 H   0  0  0  0  0  0  0  0  0  0  0  0
   41.5370   32.4120   37.7830 H   0  0  0  0  0  0  0  0  0  0  0  0
   41.8930   33.0010   39.8220 C   0  0  0  0  0  0  0  0  0  0  0  0
   42.4260   34.2590   39.7570 C   0  0  0  0  0  0  0  0  0  0  0  0
   42.5940   34.7510   38.8200 H   0  0  0  0  0  0  0  0  0  0  0  0
   42.6520   34.6490   41.0720 C   0  0  0  0  0  0  0  0  0  0  0  0
   43.0740   35.6080   41.3460 H   0  0  0  0  0  0  0  0  0  0  0  0
   42.2630   33.6500   41.8880 N   0  0  0  0  0  0  0  0  0  0  0  0
   42.2990   33.6250   42.9300 H   0  0  0  0  0  0  0  0  0  0  0  0
   41.8170   32.6870   41.1290 N   0  0  0  0  0  0  0  0  0  0  0  0
  1 23  1  0  0  0  0
  1  2  1  0  0  0  0
  3  1  1  0  0  0  0
  4 16  1  0  0  0  0
  5  4  1  0  0  0  0
  5  1  1  0  0  0  0
  6  5  2  0  0  0  0
  7  8  2  0  0  0  0
  7  6  1  0  0  0  0
  8  9  1  0  0  0  0
  9 13  1  0  0  0  0
  9  4  2  0  0  0  0
 10  6  1  0  0  0  0
 11  7  1  0  0  0  0
 12  8  1  0  0  0  0
 14 19  1  0  0  0  0
 14 20  1  0  0  0  0
 15 14  2  0  0  0  0
 16 17  2  0  0  0  0
 16 15  1  0  0  0  0
 17 18  1  0  0  0  0
 18 22  1  0  0  0  0
 18 19  2  0  0  0  0
 21 15  1  0  0  0  0
 23 24  1  0  0  0  0
 25 23  1  0  0  0  0
 25 26  1  0  0  0  0
 26 27  1  0  0  0  0
 28 25  1  0  0  0  0
 29 28  1  0  0  0  0
 30 31  1  0  0  0  0
 30 25  1  0  0  0  0
 31 33  1  0  0  0  0
 32 31  1  0  0  0  0
 34 35  1  0  0  0  0
 34 31  1  0  0  0  0
 34 37  1  0  0  0  0
 36 34  1  0  0  0  0
 37 44  2  0  0  0  0
 38 37  1  0  0  0  0
 38 40  2  0  0  0  0
 39 38  1  0  0  0  0
 40 41  1  0  0  0  0
 40 42  1  0  0  0  0
 42 43  1  0  0  0  0
 44 42  1  0  0  0  0
M  END
>  <minimizedAffinity>
-5.5301013

$$$$

 OpenBabel03252508483D

 44 46  0  0  0  0  0  0  0  0999 V2000
   36.2230   31.0780   40.2990 C   0  0  0  0  0  0  0  0  0  0  0  0
   35.1620   31.2940   40.5310 H   0  0  0  0  0  0  0  0  0  0  0  0
   36.2870   31.0340   39.1870 H   0  0  0  0  0  0  0  0  0  0  0  0
   36.5290   28.6020   40.0460 C   0  0  0  0  0  0  0  0  0  0  0  0
   36.6160   29.7430   40.8390 C   0  0  0  0  0  0  0  0  0  0  0  0
   37.0690   29.6180   42.1320 C   0  0  0  0  0  0  0  0  0  0  0  0
   37.4260   28.3950   42.6200 C   0  0  0  0  0  0  0  0  0  0  0  0
   37.3540   27.2530   41.8690 C   0  0  0  0  0  0  0  0  0  0  0  0
   36.8940   27.4240   40.5780 C   0  0  0  0  0  0  0  0  0  0  0  0
   37.1170   30.5490   42.7120 H   0  0  0  0  0  0  0  0  0  0  0  0
   37.7670   28.4220   43.6490 H   0  0  0  0  0  0  0  0  0  0  0  0
   37.6430   26.3070   42.2840 H   0  0  0  0  0  0  0  0  0  0  0  0
   36.8150   26.5550   39.9370 H   0  0  0  0  0  0  0  0  0  0  0  0
   34.3850   28.8290   36.9490 C   0  0  0  0  0  0  0  0  0  0  0  0
   34.7390   28.6060   38.2930 C   0  0  0  0  0  0  0  0  0  0  0  0
   36.0440   28.7980   38.6920 C   0  0  0  0  0  0  0  0  0  0  0  0
   36.9390   29.2020   37.7400 N   0  0  0  0  0  0  0  0  0  0  0  0
   36.5890   29.4150   36.4480 C   0  0  0  0  0  0  0  0  0  0  0  0
   35.2990   29.2200   36.0710 N   0  0  0  0  0  0  0  0  0  0  0  0
   33.3440   28.6580   36.7080 H   0  0  0  0  0  0  0  0  0  0  0  0
   34.0650   28.2860   39.0830 H   0  0  0  0  0  0  0  0  0  0  0  0
   37.3860   29.7320   35.7900 H   0  0  0  0  0  0  0  0  0  0  0  0
   37.0240   32.1700   40.7540 N   0  0  0  0  0  0  0  0  0  0  0  0
   36.5420   32.8060   41.4280 H   0  0  0  0  0  0  0  0  0  0  0  0
   37.6340   33.1240   39.4540 S   0  0  0  0  0  0  0  0  0  0  0  0
   36.6830   34.2300   39.1100 O   0  0  0  0  0  0  0  0  0  0  0  0
   36.6320   34.5910   38.1900 H   0  0  0  0  0  0  0  0  0  0  0  0
   37.9200   32.2820   38.2630 O   0  0  0  0  0  0  0  0  0  0  0  0
   38.3630   31.3830   38.2720 H   0  0  0  0  0  0  0  0  0  0  0  0
   39.0830   33.8130   39.9860 O   0  0  0  0  0  0  0  0  0  0  0  0
   40.1160   32.9630   39.6090 C   0  0  0  0  0  0  0  0  0  0  0  0
   39.8210   32.4920   38.6310 H   0  0  0  0  0  0  0  0  0  0  0  0
   40.3630   32.1770   40.3180 H   0  0  0  0  0  0  0  0  0  0  0  0
   41.3780   33.8020   39.3550 C   0  0  0  0  0  0  0  0  0  0  0  0
   41.9610   33.3080   38.5240 H   0  0  0  0  0  0  0  0  0  0  0  0
   41.1170   34.8190   39.0760 H   0  0  0  0  0  0  0  0  0  0  0  0
   42.1880   33.7390   40.5980 C   0  0  0  0  0  0  0  0  0  0  0  0
   43.1770   34.5280   41.1190 C   0  0  0  0  0  0  0  0  0  0  0  0
   43.5230   35.4040   40.6090 H   0  0  0  0  0  0  0  0  0  0  0  0
   43.5430   33.9420   42.3250 C   0  0  0  0  0  0  0  0  0  0  0  0
   44.3110   34.3410   42.9750 H   0  0  0  0  0  0  0  0  0  0  0  0
   42.7910   32.8380   42.5090 N   0  0  0  0  0  0  0  0  0  0  0  0
   42.8170   32.1740   43.3130 H   0  0  0  0  0  0  0  0  0  0  0  0
   41.9980   32.7390   41.4780 N   0  0  0  0  0  0  0  0  0  0  0  0
  1  2  1  0  0  0  0
  1 23  1  0  0  0  0
  1  5  1  0  0  0  0
  3  1  1  0  0  0  0
  4  9  2  0  0  0  0
  4  5  1  0  0  0  0
  5  6  2  0  0  0  0
  6  7  1  0  0  0  0
  6 10  1  0  0  0  0
  7 11  1  0  0  0  0
  8 12  1  0  0  0  0
  8  7  2  0  0  0  0
  9  8  1  0  0  0  0
 13  9  1  0  0  0  0
 14 15  1  0  0  0  0
 15 16  2  0  0  0  0
 15 21  1  0  0  0  0
 16  4  1  0  0  0  0
 17 16  1  0  0  0  0
 18 17  2  0  0  0  0
 19 18  1  0  0  0  0
 19 14  2  0  0  0  0
 20 14  1  0  0  0  0
 22 18  1  0  0  0  0
 23 24  1  0  0  0  0
 25 30  1  0  0  0  0
 25 23  1  0  0  0  0
 26 25  1  0  0  0  0
 27 26  1  0  0  0  0
 28 29  1  0  0  0  0
 28 25  1  0  0  0  0
 31 30  1  0  0  0  0
 31 33  1  0  0  0  0
 32 31  1  0  0  0  0
 34 31  1  0  0  0  0
 34 37  1  0  0  0  0
 35 34  1  0  0  0  0
 36 34  1  0  0  0  0
 37 38  1  0  0  0  0
 37 44  2  0  0  0  0
 38 40  2  0  0  0  0
 39 38  1  0  0  0  0
 40 42  1  0  0  0  0
 40 41  1  0  0  0  0
 42 43  1  0  0  0  0
 44 42  1  0  0  0  0
M  END
>  <minimizedAffinity>
-5.42303467

$$$$
