
 OpenBabel03252508193D

 46 50  0  0  1  0  0  0  0  0999 V2000
   42.1980   29.9770   42.9330 C   0  0  0  0  0  0  0  0  0  0  0  0
   41.7210   29.8840   43.8850 H   0  0  0  0  0  0  0  0  0  0  0  0
   42.9940   30.7720   43.0720 H   0  0  0  0  0  0  0  0  0  0  0  0
   42.9250   28.8080   42.3650 C   0  0  1  0  0  0  0  0  0  0  0  0
   43.6480   27.9980   43.3890 C   0  0  0  0  0  0  0  0  0  0  0  0
   42.4960   27.4380   42.6910 C   0  0  1  0  0  0  0  0  0  0  0  0
   43.6250   29.0630   41.5220 H   0  0  0  0  0  0  0  0  0  0  0  0
   44.6650   27.5990   43.2030 H   0  0  0  0  0  0  0  0  0  0  0  0
   43.5130   28.2270   44.4780 H   0  0  0  0  0  0  0  0  0  0  0  0
   42.7410   26.6570   41.9390 H   0  0  0  0  0  0  0  0  0  0  0  0
   41.1640   27.2490   43.3380 C   0  0  2  0  0  0  0  0  0  0  0  0
   40.4680   25.9130   42.9870 C   0  0  0  0  0  0  0  0  0  0  0  0
   39.9480   27.1760   42.4280 C   0  0  1  0  0  0  0  0  0  0  0  0
   40.9110   27.5610   44.3470 H   0  0  0  0  0  0  0  0  0  0  0  0
   39.8640   25.4030   43.7320 H   0  0  0  0  0  0  0  0  0  0  0  0
   41.0430   25.2020   42.3470 H   0  0  0  0  0  0  0  0  0  0  0  0
   40.1290   27.2930   41.3260 H   0  0  0  0  0  0  0  0  0  0  0  0
   38.6330   27.6390   42.8820 C   0  0  0  0  0  0  0  0  0  0  0  0
   37.4930   26.8330   42.7960 C   0  0  0  0  0  0  0  0  0  0  0  0
   37.3760   25.8060   42.4120 H   0  0  0  0  0  0  0  0  0  0  0  0
   36.4180   27.5590   43.3050 C   0  0  0  0  0  0  0  0  0  0  0  0
   35.3920   27.1750   43.3630 H   0  0  0  0  0  0  0  0  0  0  0  0
   36.9090   28.7570   43.6790 N   0  0  0  0  0  0  0  0  0  0  0  0
   36.2800   29.4800   44.0940 H   0  0  0  0  0  0  0  0  0  0  0  0
   38.2160   28.7750   43.4180 N   0  0  0  0  0  0  0  0  0  0  0  0
   40.3200   31.2690   42.3430 C   0  0  0  0  0  3  0  0  0  0  0  0
   41.3040   30.6140   41.8930 C   0  0  0  0  0  3  0  0  0  0  0  0
   38.5230   33.5880   40.1100 C   0  0  0  0  0  0  0  0  0  0  0  0
   37.5150   32.7960   39.5820 C   0  0  0  0  0  0  0  0  0  0  0  0
   37.4810   31.5080   40.0050 C   0  0  0  0  0  0  0  0  0  0  0  0
   38.4010   31.0500   40.8980 N   0  0  0  0  0  0  0  0  0  0  0  0
   39.3670   31.8460   41.3900 C   0  0  0  0  0  0  0  0  0  0  0  0
   39.4020   33.1050   40.9790 N   0  0  0  0  0  0  0  0  0  0  0  0
   38.5670   34.6280   39.7820 H   0  0  0  0  0  0  0  0  0  0  0  0
   36.7900   33.1630   38.8760 H   0  0  0  0  0  0  0  0  0  0  0  0
   36.4770   30.5550   39.5380 C   0  0  0  0  0  0  0  0  0  0  0  0
   35.6000   29.8870   40.3410 C   0  0  0  0  0  0  0  0  0  0  0  0
   34.6570   28.9900   39.8880 C   0  0  0  0  0  0  0  0  0  0  0  0
   34.5630   28.7240   38.5370 C   0  0  0  0  0  0  0  0  0  0  0  0
   35.4160   29.3650   37.6790 C   0  0  0  0  0  0  0  0  0  0  0  0
   36.3450   30.2550   38.1860 C   0  0  0  0  0  0  0  0  0  0  0  0
   35.6430   30.0690   41.4160 H   0  0  0  0  0  0  0  0  0  0  0  0
   33.9870   28.4870   40.5610 H   0  0  0  0  0  0  0  0  0  0  0  0
   33.8430   28.0320   38.1340 H   0  0  0  0  0  0  0  0  0  0  0  0
   35.3720   29.1790   36.6000 H   0  0  0  0  0  0  0  0  0  0  0  0
   36.9910   30.7310   37.4590 H   0  0  0  0  0  0  0  0  0  0  0  0
  1  3  1  0  0  0  0
  1  2  1  0  0  0  0
  4  7  1  6  0  0  0
  4  6  1  0  0  0  0
  4  1  1  0  0  0  0
  4  5  1  0  0  0  0
  5  9  1  0  0  0  0
  6 10  1  6  0  0  0
  6 11  1  0  0  0  0
  6  5  1  0  0  0  0
  8  5  1  0  0  0  0
 11 14  1  1  0  0  0
 12 11  1  0  0  0  0
 12 15  1  0  0  0  0
 13 17  1  6  0  0  0
 13 18  1  0  0  0  0
 13 12  1  0  0  0  0
 13 11  1  0  0  0  0
 16 12  1  0  0  0  0
 18 25  2  0  0  0  0
 19 18  1  0  0  0  0
 19 21  2  0  0  0  0
 20 19  1  0  0  0  0
 21 22  1  0  0  0  0
 21 23  1  0  0  0  0
 23 24  1  0  0  0  0
 25 23  1  0  0  0  0
 27 26  2  0  0  0  0
 27  1  1  0  0  0  0
 28 33  1  0  0  0  0
 29 30  1  0  0  0  0
 29 28  2  0  0  0  0
 30 31  2  0  0  0  0
 31 32  1  0  0  0  0
 32 26  1  0  0  0  0
 33 32  2  0  0  0  0
 34 28  1  0  0  0  0
 35 29  1  0  0  0  0
 36 30  1  0  0  0  0
 36 37  1  0  0  0  0
 37 42  1  0  0  0  0
 38 37  2  0  0  0  0
 38 43  1  0  0  0  0
 39 38  1  0  0  0  0
 40 41  1  0  0  0  0
 40 39  2  0  0  0  0
 41 36  2  0  0  0  0
 44 39  1  0  0  0  0
 45 40  1  0  0  0  0
 46 41  1  0  0  0  0
M  END
>  <minimizedAffinity>
-6.19042063

$$$$

 OpenBabel03252508193D

 46 50  0  0  1  0  0  0  0  0999 V2000
   41.1710   31.8470   40.5430 C   0  0  0  0  0  0  0  0  0  0  0  0
   41.2550   31.4390   39.5580 H   0  0  0  0  0  0  0  0  0  0  0  0
   42.1830   31.6820   41.0240 H   0  0  0  0  0  0  0  0  0  0  0  0
   40.9060   33.3030   40.7070 C   0  0  1  0  0  0  0  0  0  0  0  0
   41.0250   34.0800   39.4380 C   0  0  0  0  0  0  0  0  0  0  0  0
   39.7250   33.9190   40.0800 C   0  0  1  0  0  0  0  0  0  0  0  0
   41.5190   33.7970   41.5110 H   0  0  0  0  0  0  0  0  0  0  0  0
   41.5160   35.0740   39.4090 H   0  0  0  0  0  0  0  0  0  0  0  0
   41.1770   33.5430   38.4670 H   0  0  0  0  0  0  0  0  0  0  0  0
   39.3310   34.8340   40.5720 H   0  0  0  0  0  0  0  0  0  0  0  0
   38.6600   33.0210   39.5460 C   0  0  2  0  0  0  0  0  0  0  0  0
   37.3100   33.7250   39.2710 C   0  0  0  0  0  0  0  0  0  0  0  0
   37.4310   32.7990   40.4140 C   0  0  1  0  0  0  0  0  0  0  0  0
   38.8220   32.2110   38.8400 H   0  0  0  0  0  0  0  0  0  0  0  0
   36.6960   33.4140   38.4310 H   0  0  0  0  0  0  0  0  0  0  0  0
   37.2790   34.8290   39.4330 H   0  0  0  0  0  0  0  0  0  0  0  0
   37.4160   33.3090   41.4140 H   0  0  0  0  0  0  0  0  0  0  0  0
   36.6820   31.5390   40.3610 C   0  0  0  0  0  0  0  0  0  0  0  0
   36.5900   30.7810   39.1900 C   0  0  0  0  0  0  0  0  0  0  0  0
   37.0160   30.9630   38.1890 H   0  0  0  0  0  0  0  0  0  0  0  0
   35.8180   29.6550   39.4700 C   0  0  0  0  0  0  0  0  0  0  0  0
   35.5770   28.8780   38.7340 H   0  0  0  0  0  0  0  0  0  0  0  0
   35.4650   29.7470   40.7680 N   0  0  0  0  0  0  0  0  0  0  0  0
   34.8760   29.0080   41.2100 H   0  0  0  0  0  0  0  0  0  0  0  0
   35.9890   30.8680   41.2660 N   0  0  0  0  0  0  0  0  0  0  0  0
   39.9300   29.8960   40.9880 C   0  0  0  0  0  3  0  0  0  0  0  0
   40.2660   31.0300   41.4370 C   0  0  0  0  0  3  0  0  0  0  0  0
   37.7680   28.6010   43.6790 C   0  0  0  0  0  0  0  0  0  0  0  0
   37.1990   27.4730   43.1080 C   0  0  0  0  0  0  0  0  0  0  0  0
   37.5730   27.1930   41.8350 C   0  0  0  0  0  0  0  0  0  0  0  0
   38.4580   27.9960   41.1820 N   0  0  0  0  0  0  0  0  0  0  0  0
   38.9900   29.0840   41.7660 C   0  0  0  0  0  0  0  0  0  0  0  0
   38.6280   29.3600   43.0100 N   0  0  0  0  0  0  0  0  0  0  0  0
   37.4810   28.8440   44.7040 H   0  0  0  0  0  0  0  0  0  0  0  0
   36.5010   26.8410   43.6290 H   0  0  0  0  0  0  0  0  0  0  0  0
   37.0590   26.0380   41.1030 C   0  0  0  0  0  0  0  0  0  0  0  0
   36.9350   24.7800   41.6140 C   0  0  0  0  0  0  0  0  0  0  0  0
   36.4480   23.6980   40.9130 C   0  0  0  0  0  0  0  0  0  0  0  0
   36.0490   23.8600   39.6010 C   0  0  0  0  0  0  0  0  0  0  0  0
   36.1490   25.1010   39.0310 C   0  0  0  0  0  0  0  0  0  0  0  0
   36.6450   26.1530   39.7800 C   0  0  0  0  0  0  0  0  0  0  0  0
   37.2410   24.6100   42.6480 H   0  0  0  0  0  0  0  0  0  0  0  0
   36.3700   22.7240   41.3600 H   0  0  0  0  0  0  0  0  0  0  0  0
   35.6630   23.0470   39.0110 H   0  0  0  0  0  0  0  0  0  0  0  0
   35.8430   25.2680   37.9920 H   0  0  0  0  0  0  0  0  0  0  0  0
   36.6990   27.1090   39.2740 H   0  0  0  0  0  0  0  0  0  0  0  0
  1  4  1  0  0  0  0
  1  3  1  0  0  0  0
  1 27  1  0  0  0  0
  2  1  1  0  0  0  0
  4  7  1  1  0  0  0
  5  6  1  0  0  0  0
  5  4  1  0  0  0  0
  6 10  1  1  0  0  0
  6  4  1  0  0  0  0
  8  5  1  0  0  0  0
  9  5  1  0  0  0  0
 11 14  1  6  0  0  0
 11  6  1  0  0  0  0
 11 13  1  0  0  0  0
 12 16  1  0  0  0  0
 12 11  1  0  0  0  0
 12 13  1  0  0  0  0
 13 17  1  1  0  0  0
 15 12  1  0  0  0  0
 18 13  1  0  0  0  0
 18 25  2  0  0  0  0
 19 21  2  0  0  0  0
 19 18  1  0  0  0  0
 20 19  1  0  0  0  0
 21 23  1  0  0  0  0
 22 21  1  0  0  0  0
 23 24  1  0  0  0  0
 23 25  1  0  0  0  0
 26 27  2  0  0  0  0
 26 32  1  0  0  0  0
 28 34  1  0  0  0  0
 29 35  1  0  0  0  0
 29 28  1  0  0  0  0
 30 29  2  0  0  0  0
 31 32  2  0  0  0  0
 31 30  1  0  0  0  0
 32 33  1  0  0  0  0
 33 28  2  0  0  0  0
 36 37  1  0  0  0  0
 36 30  1  0  0  0  0
 37 42  1  0  0  0  0
 38 43  1  0  0  0  0
 38 37  2  0  0  0  0
 39 38  1  0  0  0  0
 40 39  2  0  0  0  0
 40 41  1  0  0  0  0
 41 36  2  0  0  0  0
 44 39  1  0  0  0  0
 45 40  1  0  0  0  0
 46 41  1  0  0  0  0
M  END
>  <minimizedAffinity>
-6.17862368

$$$$

 OpenBabel03252508193D

 46 50  0  0  1  0  0  0  0  0999 V2000
   33.7240   28.6110   37.1290 C   0  0  0  0  0  0  0  0  0  0  0  0
   32.7640   28.8160   37.5530 H   0  0  0  0  0  0  0  0  0  0  0  0
   33.7920   27.4820   37.0680 H   0  0  0  0  0  0  0  0  0  0  0  0
   34.0270   29.0830   35.7500 C   0  0  1  0  0  0  0  0  0  0  0  0
   33.5350   28.1650   34.6810 C   0  0  0  0  0  0  0  0  0  0  0  0
   32.9360   29.4850   34.8470 C   0  0  1  0  0  0  0  0  0  0  0  0
   35.1120   29.3250   35.5710 H   0  0  0  0  0  0  0  0  0  0  0  0
   34.1470   27.9350   33.7860 H   0  0  0  0  0  0  0  0  0  0  0  0
   32.8960   27.2850   34.9520 H   0  0  0  0  0  0  0  0  0  0  0  0
   33.2020   30.2200   34.0560 H   0  0  0  0  0  0  0  0  0  0  0  0
   31.5780   29.6960   35.4280 C   0  0  2  0  0  0  0  0  0  0  0  0
   30.7470   30.7970   34.7270 C   0  0  0  0  0  0  0  0  0  0  0  0
   31.2950   31.0420   36.0750 C   0  0  1  0  0  0  0  0  0  0  0  0
   30.9320   28.9080   35.8060 H   0  0  0  0  0  0  0  0  0  0  0  0
   29.6710   30.6860   34.6300 H   0  0  0  0  0  0  0  0  0  0  0  0
   31.2070   31.2760   33.8300 H   0  0  0  0  0  0  0  0  0  0  0  0
   32.1370   31.7850   36.0940 H   0  0  0  0  0  0  0  0  0  0  0  0
   30.3500   31.1640   37.1900 C   0  0  0  0  0  0  0  0  0  0  0  0
   29.7830   30.0440   37.8060 C   0  0  0  0  0  0  0  0  0  0  0  0
   29.9220   28.9710   37.5970 H   0  0  0  0  0  0  0  0  0  0  0  0
   28.9380   30.4960   38.8180 C   0  0  0  0  0  0  0  0  0  0  0  0
   28.3560   29.8350   39.4720 H   0  0  0  0  0  0  0  0  0  0  0  0
   29.0040   31.8430   38.7980 N   0  0  0  0  0  0  0  0  0  0  0  0
   28.4470   32.4100   39.4740 H   0  0  0  0  0  0  0  0  0  0  0  0
   29.8430   32.2070   37.8280 N   0  0  0  0  0  0  0  0  0  0  0  0
   34.7000   28.5640   39.2710 C   0  0  0  0  0  3  0  0  0  0  0  0
   34.8590   28.9380   38.0740 C   0  0  0  0  0  3  0  0  0  0  0  0
   36.9050   30.4360   41.5580 C   0  0  0  0  0  0  0  0  0  0  0  0
   37.6760   29.4390   42.1360 C   0  0  0  0  0  0  0  0  0  0  0  0
   37.4210   28.1720   41.7250 C   0  0  0  0  0  0  0  0  0  0  0  0
   36.4550   27.9270   40.7980 N   0  0  0  0  0  0  0  0  0  0  0  0
   35.7250   28.9180   40.2580 C   0  0  0  0  0  0  0  0  0  0  0  0
   35.9710   30.1570   40.6560 N   0  0  0  0  0  0  0  0  0  0  0  0
   37.0940   31.4640   41.8750 H   0  0  0  0  0  0  0  0  0  0  0  0
   38.4390   29.6390   42.8680 H   0  0  0  0  0  0  0  0  0  0  0  0
   38.1530   27.0180   42.2420 C   0  0  0  0  0  0  0  0  0  0  0  0
   37.9090   25.7200   41.9020 C   0  0  0  0  0  0  0  0  0  0  0  0
   38.6070   24.6400   42.3960 C   0  0  0  0  0  0  0  0  0  0  0  0
   39.6300   24.8460   43.2990 C   0  0  0  0  0  0  0  0  0  0  0  0
   39.9250   26.1280   43.6790 C   0  0  0  0  0  0  0  0  0  0  0  0
   39.1930   27.1760   43.1530 C   0  0  0  0  0  0  0  0  0  0  0  0
   37.1060   25.5150   41.1910 H   0  0  0  0  0  0  0  0  0  0  0  0
   38.3760   23.6340   42.0980 H   0  0  0  0  0  0  0  0  0  0  0  0
   40.2050   24.0360   43.7140 H   0  0  0  0  0  0  0  0  0  0  0  0
   40.7300   26.3310   44.3950 H   0  0  0  0  0  0  0  0  0  0  0  0
   39.4720   28.1660   43.4920 H   0  0  0  0  0  0  0  0  0  0  0  0
  1  2  1  0  0  0  0
  1 27  1  0  0  0  0
  3  1  1  0  0  0  0
  4  7  1  6  0  0  0
  4  1  1  0  0  0  0
  5  6  1  0  0  0  0
  5  9  1  0  0  0  0
  5  4  1  0  0  0  0
  6 10  1  6  0  0  0
  6 11  1  0  0  0  0
  6  4  1  0  0  0  0
  8  5  1  0  0  0  0
 11 14  1  1  0  0  0
 11 13  1  0  0  0  0
 12 11  1  0  0  0  0
 12 13  1  0  0  0  0
 13 17  1  1  0  0  0
 13 18  1  0  0  0  0
 15 12  1  0  0  0  0
 16 12  1  0  0  0  0
 18 19  1  0  0  0  0
 18 25  2  0  0  0  0
 19 21  2  0  0  0  0
 20 19  1  0  0  0  0
 21 22  1  0  0  0  0
 23 21  1  0  0  0  0
 23 24  1  0  0  0  0
 25 23  1  0  0  0  0
 26 32  1  0  0  0  0
 27 26  2  0  0  0  0
 28 34  1  0  0  0  0
 28 29  1  0  0  0  0
 29 35  1  0  0  0  0
 30 29  2  0  0  0  0
 30 36  1  0  0  0  0
 31 30  1  0  0  0  0
 32 33  1  0  0  0  0
 32 31  2  0  0  0  0
 33 28  2  0  0  0  0
 36 41  1  0  0  0  0
 37 36  2  0  0  0  0
 37 38  1  0  0  0  0
 38 39  2  0  0  0  0
 39 40  1  0  0  0  0
 39 44  1  0  0  0  0
 40 45  1  0  0  0  0
 41 46  1  0  0  0  0
 41 40  2  0  0  0  0
 42 37  1  0  0  0  0
 43 38  1  0  0  0  0
M  END
>  <minimizedAffinity>
-6.01613283

$$$$

 OpenBabel03252508193D

 46 50  0  0  1  0  0  0  0  0999 V2000
   36.6130   28.6080   39.9430 C   0  0  0  0  0  0  0  0  0  0  0  0
   37.3820   28.9590   39.2890 H   0  0  0  0  0  0  0  0  0  0  0  0
   36.9080   27.5470   40.2110 H   0  0  0  0  0  0  0  0  0  0  0  0
   36.4070   29.2850   41.2530 C   0  0  1  0  0  0  0  0  0  0  0  0
   37.2620   28.7430   42.3490 C   0  0  0  0  0  0  0  0  0  0  0  0
   37.4820   30.0950   41.8480 C   0  0  1  0  0  0  0  0  0  0  0  0
   35.3340   29.3190   41.5930 H   0  0  0  0  0  0  0  0  0  0  0  0
   36.8650   28.5810   43.3710 H   0  0  0  0  0  0  0  0  0  0  0  0
   38.0540   27.9850   42.1160 H   0  0  0  0  0  0  0  0  0  0  0  0
   37.1610   30.9050   42.5370 H   0  0  0  0  0  0  0  0  0  0  0  0
   38.6450   30.4660   40.9890 C   0  0  2  0  0  0  0  0  0  0  0  0
   39.4420   31.6940   41.4890 C   0  0  0  0  0  0  0  0  0  0  0  0
   38.5950   31.8130   40.2870 C   0  0  1  0  0  0  0  0  0  0  0  0
   39.3020   29.7590   40.4890 H   0  0  0  0  0  0  0  0  0  0  0  0
   40.5200   31.7340   41.3560 H   0  0  0  0  0  0  0  0  0  0  0  0
   39.1190   32.1390   42.4600 H   0  0  0  0  0  0  0  0  0  0  0  0
   37.6730   32.4340   40.4420 H   0  0  0  0  0  0  0  0  0  0  0  0
   39.2590   32.0210   38.9960 C   0  0  0  0  0  0  0  0  0  0  0  0
   40.5700   32.5000   38.9050 C   0  0  0  0  0  0  0  0  0  0  0  0
   41.2800   32.7820   39.7000 H   0  0  0  0  0  0  0  0  0  0  0  0
   40.9010   32.5830   37.5550 C   0  0  0  0  0  0  0  0  0  0  0  0
   41.8730   32.9290   37.1810 H   0  0  0  0  0  0  0  0  0  0  0  0
   39.8170   32.1670   36.8690 N   0  0  0  0  0  0  0  0  0  0  0  0
   39.8290   32.1430   35.8250 H   0  0  0  0  0  0  0  0  0  0  0  0
   38.8660   31.8420   37.7450 N   0  0  0  0  0  0  0  0  0  0  0  0
   35.3780   28.0450   38.0200 C   0  0  0  0  0  3  0  0  0  0  0  0
   35.2960   28.3930   39.2330 C   0  0  0  0  0  3  0  0  0  0  0  0
   32.5860   26.6530   36.0540 C   0  0  0  0  0  0  0  0  0  0  0  0
   31.7840   27.7600   35.8230 C   0  0  0  0  0  0  0  0  0  0  0  0
   32.2220   28.9350   36.3380 C   0  0  0  0  0  0  0  0  0  0  0  0
   33.3880   28.9900   37.0400 N   0  0  0  0  0  0  0  0  0  0  0  0
   34.1410   27.8960   37.2470 C   0  0  0  0  0  0  0  0  0  0  0  0
   33.7160   26.7470   36.7450 N   0  0  0  0  0  0  0  0  0  0  0  0
   32.2510   25.6970   35.6470 H   0  0  0  0  0  0  0  0  0  0  0  0
   30.8640   27.7110   35.2670 H   0  0  0  0  0  0  0  0  0  0  0  0
   31.4860   30.1870   36.1750 C   0  0  0  0  0  0  0  0  0  0  0  0
   31.4740   30.9450   35.0410 C   0  0  0  0  0  0  0  0  0  0  0  0
   30.7740   32.1240   34.9000 C   0  0  0  0  0  0  0  0  0  0  0  0
   30.0230   32.6010   35.9550 C   0  0  0  0  0  0  0  0  0  0  0  0
   29.9950   31.8840   37.1210 C   0  0  0  0  0  0  0  0  0  0  0  0
   30.7150   30.7070   37.2100 C   0  0  0  0  0  0  0  0  0  0  0  0
   32.0560   30.6020   34.1840 H   0  0  0  0  0  0  0  0  0  0  0  0
   30.7960   32.6870   33.9850 H   0  0  0  0  0  0  0  0  0  0  0  0
   29.4600   33.5170   35.8940 H   0  0  0  0  0  0  0  0  0  0  0  0
   29.4110   32.2320   37.9800 H   0  0  0  0  0  0  0  0  0  0  0  0
   30.6530   30.1850   38.1570 H   0  0  0  0  0  0  0  0  0  0  0  0
  1  3  1  0  0  0  0
  1  4  1  0  0  0  0
  2  1  1  0  0  0  0
  4  7  1  1  0  0  0
  4  6  1  0  0  0  0
  4  5  1  0  0  0  0
  5  8  1  0  0  0  0
  6  5  1  0  0  0  0
  6 10  1  1  0  0  0
  9  5  1  0  0  0  0
 11 14  1  6  0  0  0
 11 12  1  0  0  0  0
 11  6  1  0  0  0  0
 12 16  1  0  0  0  0
 13 17  1  1  0  0  0
 13 11  1  0  0  0  0
 13 12  1  0  0  0  0
 15 12  1  0  0  0  0
 18 13  1  0  0  0  0
 19 18  1  0  0  0  0
 19 20  1  0  0  0  0
 21 19  2  0  0  0  0
 22 21  1  0  0  0  0
 23 21  1  0  0  0  0
 23 25  1  0  0  0  0
 24 23  1  0  0  0  0
 25 18  2  0  0  0  0
 26 27  2  0  0  0  0
 27  1  1  0  0  0  0
 28 33  1  0  0  0  0
 29 28  2  0  0  0  0
 29 30  1  0  0  0  0
 30 31  2  0  0  0  0
 31 32  1  0  0  0  0
 32 26  1  0  0  0  0
 33 32  2  0  0  0  0
 34 28  1  0  0  0  0
 35 29  1  0  0  0  0
 36 30  1  0  0  0  0
 36 41  1  0  0  0  0
 37 36  2  0  0  0  0
 38 37  1  0  0  0  0
 38 39  2  0  0  0  0
 39 40  1  0  0  0  0
 40 41  2  0  0  0  0
 40 45  1  0  0  0  0
 41 46  1  0  0  0  0
 42 37  1  0  0  0  0
 43 38  1  0  0  0  0
 44 39  1  0  0  0  0
M  END
>  <minimizedAffinity>
-5.95381212

$$$$

 OpenBabel03252508193D

 46 50  0  0  1  0  0  0  0  0999 V2000
   38.6700   28.7690   43.1530 C   0  0  0  0  0  0  0  0  0  0  0  0
   38.1670   29.4300   43.8260 H   0  0  0  0  0  0  0  0  0  0  0  0
   39.5580   28.3680   43.7320 H   0  0  0  0  0  0  0  0  0  0  0  0
   37.9630   27.5550   42.6580 C   0  0  1  0  0  0  0  0  0  0  0  0
   36.6770   27.2830   43.3640 C   0  0  0  0  0  0  0  0  0  0  0  0
   36.6720   27.6820   41.9610 C   0  0  1  0  0  0  0  0  0  0  0  0
   38.5930   26.6230   42.6490 H   0  0  0  0  0  0  0  0  0  0  0  0
   36.3800   26.2560   43.6570 H   0  0  0  0  0  0  0  0  0  0  0  0
   36.2750   28.0280   44.1000 H   0  0  0  0  0  0  0  0  0  0  0  0
   36.4210   26.8680   41.2460 H   0  0  0  0  0  0  0  0  0  0  0  0
   36.2470   29.0360   41.5000 C   0  0  2  0  0  0  0  0  0  0  0  0
   35.1440   29.0240   40.4160 C   0  0  0  0  0  0  0  0  0  0  0  0
   36.5230   29.4010   40.0500 C   0  0  1  0  0  0  0  0  0  0  0  0
   36.1500   29.9100   42.1390 H   0  0  0  0  0  0  0  0  0  0  0  0
   34.3860   29.8020   40.4030 H   0  0  0  0  0  0  0  0  0  0  0  0
   34.7320   28.0270   40.1320 H   0  0  0  0  0  0  0  0  0  0  0  0
   37.0520   28.6340   39.4240 H   0  0  0  0  0  0  0  0  0  0  0  0
   36.7750   30.7900   39.6530 C   0  0  0  0  0  0  0  0  0  0  0  0
   37.2690   31.1200   38.3860 C   0  0  0  0  0  0  0  0  0  0  0  0
   37.5360   30.4710   37.5360 H   0  0  0  0  0  0  0  0  0  0  0  0
   37.3940   32.5060   38.3260 C   0  0  0  0  0  0  0  0  0  0  0  0
   37.7610   33.0510   37.4470 H   0  0  0  0  0  0  0  0  0  0  0  0
   36.9870   32.9800   39.5210 N   0  0  0  0  0  0  0  0  0  0  0  0
   36.9930   34.0060   39.7140 H   0  0  0  0  0  0  0  0  0  0  0  0
   36.6280   31.9450   40.2810 N   0  0  0  0  0  0  0  0  0  0  0  0
   39.4390   30.7540   42.1480 C   0  0  0  0  0  3  0  0  0  0  0  0
   39.3490   29.5000   42.0160 C   0  0  0  0  0  3  0  0  0  0  0  0
   40.5600   33.5310   39.9970 C   0  0  0  0  0  0  0  0  0  0  0  0
   41.1390   32.8780   38.9200 C   0  0  0  0  0  0  0  0  0  0  0  0
   41.1240   31.5230   38.9620 C   0  0  0  0  0  0  0  0  0  0  0  0
   40.5650   30.8710   40.0190 N   0  0  0  0  0  0  0  0  0  0  0  0
   40.0130   31.5350   41.0480 C   0  0  0  0  0  0  0  0  0  0  0  0
   40.0250   32.8590   41.0100 N   0  0  0  0  0  0  0  0  0  0  0  0
   40.5620   34.6230   39.9820 H   0  0  0  0  0  0  0  0  0  0  0  0
   41.5790   33.3980   38.0870 H   0  0  0  0  0  0  0  0  0  0  0  0
   41.6950   30.6980   37.8990 C   0  0  0  0  0  0  0  0  0  0  0  0
   41.3870   29.3880   37.6750 C   0  0  0  0  0  0  0  0  0  0  0  0
   41.9320   28.6210   36.6680 C   0  0  0  0  0  0  0  0  0  0  0  0
   42.8550   29.1820   35.8080 C   0  0  0  0  0  0  0  0  0  0  0  0
   43.2040   30.4940   35.9820 C   0  0  0  0  0  0  0  0  0  0  0  0
   42.6270   31.2190   37.0080 C   0  0  0  0  0  0  0  0  0  0  0  0
   40.6620   28.9080   38.3340 H   0  0  0  0  0  0  0  0  0  0  0  0
   41.6580   27.5920   36.5320 H   0  0  0  0  0  0  0  0  0  0  0  0
   43.3090   28.6250   35.0060 H   0  0  0  0  0  0  0  0  0  0  0  0
   43.9340   30.9730   35.3190 H   0  0  0  0  0  0  0  0  0  0  0  0
   42.9440   32.2520   37.0940 H   0  0  0  0  0  0  0  0  0  0  0  0
  1  3  1  0  0  0  0
  1  2  1  0  0  0  0
  4  7  1  6  0  0  0
  4  1  1  0  0  0  0
  4  5  1  0  0  0  0
  5  8  1  0  0  0  0
  5  9  1  0  0  0  0
  6 10  1  6  0  0  0
  6  4  1  0  0  0  0
  6  5  1  0  0  0  0
 11  6  1  0  0  0  0
 11 14  1  1  0  0  0
 12 11  1  0  0  0  0
 13 17  1  6  0  0  0
 13 12  1  0  0  0  0
 13 11  1  0  0  0  0
 15 12  1  0  0  0  0
 16 12  1  0  0  0  0
 18 13  1  0  0  0  0
 18 25  2  0  0  0  0
 19 18  1  0  0  0  0
 20 19  1  0  0  0  0
 21 19  2  0  0  0  0
 21 23  1  0  0  0  0
 22 21  1  0  0  0  0
 23 24  1  0  0  0  0
 23 25  1  0  0  0  0
 27 26  2  0  0  0  0
 27  1  1  0  0  0  0
 28 33  1  0  0  0  0
 29 30  1  0  0  0  0
 29 28  2  0  0  0  0
 30 31  2  0  0  0  0
 31 32  1  0  0  0  0
 32 26  1  0  0  0  0
 33 32  2  0  0  0  0
 34 28  1  0  0  0  0
 35 29  1  0  0  0  0
 36 30  1  0  0  0  0
 37 36  1  0  0  0  0
 37 42  1  0  0  0  0
 38 37  2  0  0  0  0
 39 40  2  0  0  0  0
 39 38  1  0  0  0  0
 40 41  1  0  0  0  0
 41 46  1  0  0  0  0
 41 36  2  0  0  0  0
 43 38  1  0  0  0  0
 44 39  1  0  0  0  0
 45 40  1  0  0  0  0
M  END
>  <minimizedAffinity>
-5.85866928

$$$$

 OpenBabel03252508193D

 46 50  0  0  1  0  0  0  0  0999 V2000
   36.7570   25.2450   38.2400 C   0  0  0  0  0  0  0  0  0  0  0  0
   37.7900   25.2210   37.9630 H   0  0  0  0  0  0  0  0  0  0  0  0
   36.1840   25.2670   37.2630 H   0  0  0  0  0  0  0  0  0  0  0  0
   36.1780   24.0980   38.9930 C   0  0  1  0  0  0  0  0  0  0  0  0
   37.1510   22.9940   39.2420 C   0  0  0  0  0  0  0  0  0  0  0  0
   36.6470   23.7920   40.3540 C   0  0  1  0  0  0  0  0  0  0  0  0
   35.2360   23.6780   38.5440 H   0  0  0  0  0  0  0  0  0  0  0  0
   36.8600   21.9290   39.1390 H   0  0  0  0  0  0  0  0  0  0  0  0
   38.2300   23.1300   38.9730 H   0  0  0  0  0  0  0  0  0  0  0  0
   35.9240   23.2670   41.0150 H   0  0  0  0  0  0  0  0  0  0  0  0
   37.4740   24.8130   41.0640 C   0  0  2  0  0  0  0  0  0  0  0  0
   37.9530   24.3810   42.4700 C   0  0  0  0  0  0  0  0  0  0  0  0
   36.9040   25.4110   42.3400 C   0  0  1  0  0  0  0  0  0  0  0  0
   38.2060   25.4610   40.5900 H   0  0  0  0  0  0  0  0  0  0  0  0
   38.9280   24.6940   42.8320 H   0  0  0  0  0  0  0  0  0  0  0  0
   37.6960   23.3430   42.7900 H   0  0  0  0  0  0  0  0  0  0  0  0
   35.8840   25.0610   42.6550 H   0  0  0  0  0  0  0  0  0  0  0  0
   37.2310   26.7800   42.7480 C   0  0  0  0  0  0  0  0  0  0  0  0
   38.4500   27.3810   42.4170 C   0  0  0  0  0  0  0  0  0  0  0  0
   39.3070   26.9840   41.8480 H   0  0  0  0  0  0  0  0  0  0  0  0
   38.4480   28.6700   42.9470 C   0  0  0  0  0  0  0  0  0  0  0  0
   39.2810   29.3770   42.8430 H   0  0  0  0  0  0  0  0  0  0  0  0
   37.2640   28.8250   43.5720 N   0  0  0  0  0  0  0  0  0  0  0  0
   37.0320   29.7230   44.0510 H   0  0  0  0  0  0  0  0  0  0  0  0
   36.5680   27.6950   43.4380 N   0  0  0  0  0  0  0  0  0  0  0  0
   37.2090   27.4880   38.7950 C   0  0  0  0  0  3  0  0  0  0  0  0
   36.3520   26.5610   38.8640 C   0  0  0  0  0  3  0  0  0  0  0  0
   35.5940   30.1710   40.7400 C   0  0  0  0  0  0  0  0  0  0  0  0
   36.4980   31.2180   40.6410 C   0  0  0  0  0  0  0  0  0  0  0  0
   37.6180   30.9750   39.9160 C   0  0  0  0  0  0  0  0  0  0  0  0
   37.8130   29.7600   39.3330 N   0  0  0  0  0  0  0  0  0  0  0  0
   36.9160   28.7660   39.4500 C   0  0  0  0  0  0  0  0  0  0  0  0
   35.8200   29.0000   40.1570 N   0  0  0  0  0  0  0  0  0  0  0  0
   34.6850   30.3470   41.3200 H   0  0  0  0  0  0  0  0  0  0  0  0
   36.3380   32.1760   41.1030 H   0  0  0  0  0  0  0  0  0  0  0  0
   38.6590   31.9800   39.7210 C   0  0  0  0  0  0  0  0  0  0  0  0
   39.6990   31.8700   38.8440 C   0  0  0  0  0  0  0  0  0  0  0  0
   40.6750   32.8270   38.6680 C   0  0  0  0  0  0  0  0  0  0  0  0
   40.6320   33.9880   39.4120 C   0  0  0  0  0  0  0  0  0  0  0  0
   39.6120   34.1580   40.3100 C   0  0  0  0  0  0  0  0  0  0  0  0
   38.6580   33.1670   40.4470 C   0  0  0  0  0  0  0  0  0  0  0  0
   39.7690   30.9660   38.2370 H   0  0  0  0  0  0  0  0  0  0  0  0
   41.4750   32.6930   37.9640 H   0  0  0  0  0  0  0  0  0  0  0  0
   41.3710   34.7650   39.3120 H   0  0  0  0  0  0  0  0  0  0  0  0
   39.5450   35.0670   40.9190 H   0  0  0  0  0  0  0  0  0  0  0  0
   37.8760   33.3590   41.1720 H   0  0  0  0  0  0  0  0  0  0  0  0
  1 27  1  0  0  0  0
  1  4  1  0  0  0  0
  2  1  1  0  0  0  0
  3  1  1  0  0  0  0
  4  7  1  6  0  0  0
  4  5  1  0  0  0  0
  4  6  1  0  0  0  0
  5  6  1  0  0  0  0
  6 10  1  1  0  0  0
  6 11  1  0  0  0  0
  8  5  1  0  0  0  0
  9  5  1  0  0  0  0
 11 14  1  6  0  0  0
 11 13  1  0  0  0  0
 11 12  1  0  0  0  0
 12 16  1  0  0  0  0
 12 15  1  0  0  0  0
 13 12  1  0  0  0  0
 13 17  1  1  0  0  0
 13 18  1  0  0  0  0
 18 25  2  0  0  0  0
 19 18  1  0  0  0  0
 19 21  2  0  0  0  0
 20 19  1  0  0  0  0
 21 23  1  0  0  0  0
 22 21  1  0  0  0  0
 23 24  1  0  0  0  0
 25 23  1  0  0  0  0
 26 27  2  0  0  0  0
 26 32  1  0  0  0  0
 28 34  1  0  0  0  0
 29 28  1  0  0  0  0
 29 35  1  0  0  0  0
 30 29  2  0  0  0  0
 31 32  2  0  0  0  0
 31 30  1  0  0  0  0
 32 33  1  0  0  0  0
 33 28  2  0  0  0  0
 36 30  1  0  0  0  0
 36 41  1  0  0  0  0
 37 36  2  0  0  0  0
 38 37  1  0  0  0  0
 38 39  2  0  0  0  0
 39 40  1  0  0  0  0
 40 41  2  0  0  0  0
 40 45  1  0  0  0  0
 41 46  1  0  0  0  0
 42 37  1  0  0  0  0
 43 38  1  0  0  0  0
 44 39  1  0  0  0  0
M  END
>  <minimizedAffinity>
-5.84537077

$$$$

 OpenBabel03252508193D

 46 50  0  0  1  0  0  0  0  0999 V2000
   33.7140   28.6350   37.2170 C   0  0  0  0  0  0  0  0  0  0  0  0
   32.7660   28.8780   37.6470 H   0  0  0  0  0  0  0  0  0  0  0  0
   33.7460   27.5030   37.1800 H   0  0  0  0  0  0  0  0  0  0  0  0
   34.0160   29.0690   35.8250 C   0  0  1  0  0  0  0  0  0  0  0  0
   33.5200   28.1240   34.7830 C   0  0  0  0  0  0  0  0  0  0  0  0
   32.9250   29.4490   34.9130 C   0  0  1  0  0  0  0  0  0  0  0  0
   35.1010   29.3020   35.6380 H   0  0  0  0  0  0  0  0  0  0  0  0
   34.1290   27.8670   33.8930 H   0  0  0  0  0  0  0  0  0  0  0  0
   32.8790   27.2540   35.0780 H   0  0  0  0  0  0  0  0  0  0  0  0
   33.1910   30.1620   34.1020 H   0  0  0  0  0  0  0  0  0  0  0  0
   31.5690   29.6800   35.4910 C   0  0  2  0  0  0  0  0  0  0  0  0
   30.7450   30.7740   34.7710 C   0  0  0  0  0  0  0  0  0  0  0  0
   31.2950   31.0400   36.1150 C   0  0  1  0  0  0  0  0  0  0  0  0
   30.9170   28.9040   35.8830 H   0  0  0  0  0  0  0  0  0  0  0  0
   29.6680   30.6690   34.6760 H   0  0  0  0  0  0  0  0  0  0  0  0
   31.2080   31.2340   33.8650 H   0  0  0  0  0  0  0  0  0  0  0  0
   32.1420   31.7770   36.1200 H   0  0  0  0  0  0  0  0  0  0  0  0
   30.3510   31.1880   37.2270 C   0  0  0  0  0  0  0  0  0  0  0  0
   29.7780   30.0830   37.8650 C   0  0  0  0  0  0  0  0  0  0  0  0
   29.9120   29.0050   37.6760 H   0  0  0  0  0  0  0  0  0  0  0  0
   28.9370   30.5590   38.8680 C   0  0  0  0  0  0  0  0  0  0  0  0
   28.3510   29.9130   39.5350 H   0  0  0  0  0  0  0  0  0  0  0  0
   29.0100   31.9040   38.8220 N   0  0  0  0  0  0  0  0  0  0  0  0
   28.4560   32.4870   39.4880 H   0  0  0  0  0  0  0  0  0  0  0  0
   29.8510   32.2450   37.8450 N   0  0  0  0  0  0  0  0  0  0  0  0
   34.6880   28.6600   39.3610 C   0  0  0  0  0  3  0  0  0  0  0  0
   34.8700   28.9450   38.1420 C   0  0  0  0  0  3  0  0  0  0  0  0
   37.0030   28.6140   42.2300 C   0  0  0  0  0  0  0  0  0  0  0  0
   37.7400   29.7740   42.0570 C   0  0  0  0  0  0  0  0  0  0  0  0
   37.4220   30.5290   40.9760 C   0  0  0  0  0  0  0  0  0  0  0  0
   36.4300   30.1400   40.1280 N   0  0  0  0  0  0  0  0  0  0  0  0
   35.7350   29.0070   40.3270 C   0  0  0  0  0  0  0  0  0  0  0  0
   36.0420   28.2670   41.3810 N   0  0  0  0  0  0  0  0  0  0  0  0
   37.2430   27.9910   43.0950 H   0  0  0  0  0  0  0  0  0  0  0  0
   38.5230   30.0780   42.7300 H   0  0  0  0  0  0  0  0  0  0  0  0
   38.1100   31.7800   40.6630 C   0  0  0  0  0  0  0  0  0  0  0  0
   37.5120   32.8960   40.1560 C   0  0  0  0  0  0  0  0  0  0  0  0
   38.1720   34.0710   39.8650 C   0  0  0  0  0  0  0  0  0  0  0  0
   39.5310   34.1610   40.0890 C   0  0  0  0  0  0  0  0  0  0  0  0
   40.1880   33.0730   40.5980 C   0  0  0  0  0  0  0  0  0  0  0  0
   39.4780   31.9190   40.8720 C   0  0  0  0  0  0  0  0  0  0  0  0
   36.4380   32.8640   39.9640 H   0  0  0  0  0  0  0  0  0  0  0  0
   37.6560   34.9240   39.4660 H   0  0  0  0  0  0  0  0  0  0  0  0
   40.0910   35.0560   39.8780 H   0  0  0  0  0  0  0  0  0  0  0  0
   41.2670   33.1080   40.7880 H   0  0  0  0  0  0  0  0  0  0  0  0
   40.0530   31.0930   41.2730 H   0  0  0  0  0  0  0  0  0  0  0  0
  1  2  1  0  0  0  0
  1 27  1  0  0  0  0
  3  1  1  0  0  0  0
  4  7  1  6  0  0  0
  4  1  1  0  0  0  0
  5  6  1  0  0  0  0
  5  9  1  0  0  0  0
  5  4  1  0  0  0  0
  6 10  1  6  0  0  0
  6 11  1  0  0  0  0
  6  4  1  0  0  0  0
  8  5  1  0  0  0  0
 11 14  1  1  0  0  0
 11 13  1  0  0  0  0
 12 11  1  0  0  0  0
 12 13  1  0  0  0  0
 13 17  1  1  0  0  0
 13 18  1  0  0  0  0
 15 12  1  0  0  0  0
 16 12  1  0  0  0  0
 18 25  2  0  0  0  0
 18 19  1  0  0  0  0
 19 21  2  0  0  0  0
 20 19  1  0  0  0  0
 21 22  1  0  0  0  0
 23 21  1  0  0  0  0
 23 24  1  0  0  0  0
 25 23  1  0  0  0  0
 26 32  1  0  0  0  0
 27 26  2  0  0  0  0
 28 34  1  0  0  0  0
 29 28  1  0  0  0  0
 29 35  1  0  0  0  0
 30 29  2  0  0  0  0
 31 32  2  0  0  0  0
 31 30  1  0  0  0  0
 32 33  1  0  0  0  0
 33 28  2  0  0  0  0
 36 41  1  0  0  0  0
 36 30  1  0  0  0  0
 37 36  2  0  0  0  0
 38 39  2  0  0  0  0
 38 37  1  0  0  0  0
 39 40  1  0  0  0  0
 40 45  1  0  0  0  0
 40 41  2  0  0  0  0
 41 46  1  0  0  0  0
 42 37  1  0  0  0  0
 43 38  1  0  0  0  0
 44 39  1  0  0  0  0
M  END
>  <minimizedAffinity>
-5.82695103

$$$$

 OpenBabel03252508193D

 46 50  0  0  1  0  0  0  0  0999 V2000
   38.5690   25.3240   40.0900 C   0  0  0  0  0  0  0  0  0  0  0  0
   39.4930   25.4940   40.5990 H   0  0  0  0  0  0  0  0  0  0  0  0
   38.8060   24.5720   39.2760 H   0  0  0  0  0  0  0  0  0  0  0  0
   37.4260   24.7270   40.8350 C   0  0  1  0  0  0  0  0  0  0  0  0
   37.8000   24.1940   42.1770 C   0  0  0  0  0  0  0  0  0  0  0  0
   36.9320   25.3610   42.0680 C   0  0  1  0  0  0  0  0  0  0  0  0
   36.8580   23.9430   40.2610 H   0  0  0  0  0  0  0  0  0  0  0  0
   37.4000   23.2300   42.5520 H   0  0  0  0  0  0  0  0  0  0  0  0
   38.8310   24.3690   42.5800 H   0  0  0  0  0  0  0  0  0  0  0  0
   35.8660   25.1740   42.3210 H   0  0  0  0  0  0  0  0  0  0  0  0
   37.3880   26.7470   42.3830 C   0  0  2  0  0  0  0  0  0  0  0  0
   36.5680   27.4530   43.4890 C   0  0  0  0  0  0  0  0  0  0  0  0
   36.4250   27.8850   42.0850 C   0  0  1  0  0  0  0  0  0  0  0  0
   38.4240   27.0730   42.4040 H   0  0  0  0  0  0  0  0  0  0  0  0
   37.0600   28.1320   44.1800 H   0  0  0  0  0  0  0  0  0  0  0  0
   35.7710   26.8490   43.9840 H   0  0  0  0  0  0  0  0  0  0  0  0
   35.4380   27.6100   41.6250 H   0  0  0  0  0  0  0  0  0  0  0  0
   36.9150   29.2180   41.7220 C   0  0  0  0  0  0  0  0  0  0  0  0
   36.1230   30.1340   41.0220 C   0  0  0  0  0  0  0  0  0  0  0  0
   35.0900   30.0410   40.6480 H   0  0  0  0  0  0  0  0  0  0  0  0
   36.8740   31.2930   40.8360 C   0  0  0  0  0  0  0  0  0  0  0  0
   36.5060   32.1860   40.3150 H   0  0  0  0  0  0  0  0  0  0  0  0
   38.0730   31.0680   41.4090 N   0  0  0  0  0  0  0  0  0  0  0  0
   38.8130   31.8040   41.3950 H   0  0  0  0  0  0  0  0  0  0  0  0
   38.0670   29.8370   41.9220 N   0  0  0  0  0  0  0  0  0  0  0  0
   38.9400   27.4820   39.2250 C   0  0  0  0  0  3  0  0  0  0  0  0
   38.1200   26.5210   39.2820 C   0  0  0  0  0  3  0  0  0  0  0  0
   37.0740   29.9660   37.2390 C   0  0  0  0  0  0  0  0  0  0  0  0
   37.9040   31.0760   37.2670 C   0  0  0  0  0  0  0  0  0  0  0  0
   39.0650   30.9390   37.9540 C   0  0  0  0  0  0  0  0  0  0  0  0
   39.3680   29.7640   38.5720 N   0  0  0  0  0  0  0  0  0  0  0  0
   38.5390   28.7070   38.5260 C   0  0  0  0  0  0  0  0  0  0  0  0
   37.4040   28.8370   37.8550 N   0  0  0  0  0  0  0  0  0  0  0  0
   36.1340   30.0560   36.6910 H   0  0  0  0  0  0  0  0  0  0  0  0
   37.6600   32.0020   36.7760 H   0  0  0  0  0  0  0  0  0  0  0  0
   40.0410   32.0200   38.0700 C   0  0  0  0  0  0  0  0  0  0  0  0
   41.1040   32.2080   37.2360 C   0  0  0  0  0  0  0  0  0  0  0  0
   42.0170   33.2330   37.3560 C   0  0  0  0  0  0  0  0  0  0  0  0
   41.8790   34.1520   38.3760 C   0  0  0  0  0  0  0  0  0  0  0  0
   40.8300   34.0180   39.2460 C   0  0  0  0  0  0  0  0  0  0  0  0
   39.9430   32.9710   39.0810 C   0  0  0  0  0  0  0  0  0  0  0  0
   41.2480   31.5010   36.4170 H   0  0  0  0  0  0  0  0  0  0  0  0
   42.8400   33.3380   36.6730 H   0  0  0  0  0  0  0  0  0  0  0  0
   42.5660   34.9700   38.5120 H   0  0  0  0  0  0  0  0  0  0  0  0
   40.6890   34.7280   40.0680 H   0  0  0  0  0  0  0  0  0  0  0  0
   39.1340   32.9180   39.8000 H   0  0  0  0  0  0  0  0  0  0  0  0
  1  2  1  0  0  0  0
  1  4  1  0  0  0  0
  3  1  1  0  0  0  0
  4  7  1  6  0  0  0
  4  6  1  0  0  0  0
  4  5  1  0  0  0  0
  5  8  1  0  0  0  0
  5  9  1  0  0  0  0
  6  5  1  0  0  0  0
  6 10  1  1  0  0  0
  6 11  1  0  0  0  0
 11 14  1  6  0  0  0
 11 12  1  0  0  0  0
 12 16  1  0  0  0  0
 12 15  1  0  0  0  0
 13 17  1  6  0  0  0
 13 11  1  0  0  0  0
 13 12  1  0  0  0  0
 18 25  2  0  0  0  0
 18 13  1  0  0  0  0
 19 18  1  0  0  0  0
 20 19  1  0  0  0  0
 21 19  2  0  0  0  0
 21 23  1  0  0  0  0
 22 21  1  0  0  0  0
 23 25  1  0  0  0  0
 24 23  1  0  0  0  0
 26 27  2  0  0  0  0
 27  1  1  0  0  0  0
 28 29  2  0  0  0  0
 28 33  1  0  0  0  0
 29 30  1  0  0  0  0
 30 36  1  0  0  0  0
 30 31  2  0  0  0  0
 32 31  1  0  0  0  0
 32 26  1  0  0  0  0
 33 32  2  0  0  0  0
 34 28  1  0  0  0  0
 35 29  1  0  0  0  0
 36 41  1  0  0  0  0
 37 38  1  0  0  0  0
 37 36  2  0  0  0  0
 38 39  2  0  0  0  0
 39 44  1  0  0  0  0
 39 40  1  0  0  0  0
 40 45  1  0  0  0  0
 41 40  2  0  0  0  0
 41 46  1  0  0  0  0
 42 37  1  0  0  0  0
 43 38  1  0  0  0  0
M  END
>  <minimizedAffinity>
-5.81437302

$$$$

 OpenBabel03252508193D

 46 50  0  0  1  0  0  0  0  0999 V2000
   37.1670   26.2450   38.5710 C   0  0  0  0  0  0  0  0  0  0  0  0
   37.7150   27.1360   38.7930 H   0  0  0  0  0  0  0  0  0  0  0  0
   37.8910   25.5770   38.0120 H   0  0  0  0  0  0  0  0  0  0  0  0
   36.6620   25.4030   39.6910 C   0  0  1  0  0  0  0  0  0  0  0  0
   37.7450   24.7590   40.4900 C   0  0  0  0  0  0  0  0  0  0  0  0
   36.9120   25.7970   41.0870 C   0  0  1  0  0  0  0  0  0  0  0  0
   35.9070   24.6270   39.3830 H   0  0  0  0  0  0  0  0  0  0  0  0
   37.6670   23.7090   40.8370 H   0  0  0  0  0  0  0  0  0  0  0  0
   38.8160   25.0240   40.2940 H   0  0  0  0  0  0  0  0  0  0  0  0
   36.1790   25.4320   41.8380 H   0  0  0  0  0  0  0  0  0  0  0  0
   37.4030   27.1820   41.3540 C   0  0  2  0  0  0  0  0  0  0  0  0
   37.0260   27.7350   42.7480 C   0  0  0  0  0  0  0  0  0  0  0  0
   36.3590   28.2700   41.5450 C   0  0  1  0  0  0  0  0  0  0  0  0
   38.3620   27.5770   41.0300 H   0  0  0  0  0  0  0  0  0  0  0  0
   37.7140   28.3880   43.2780 H   0  0  0  0  0  0  0  0  0  0  0  0
   36.4890   27.0380   43.4350 H   0  0  0  0  0  0  0  0  0  0  0  0
   35.2820   27.9640   41.4510 H   0  0  0  0  0  0  0  0  0  0  0  0
   36.6330   29.6590   41.1670 C   0  0  0  0  0  0  0  0  0  0  0  0
   37.9080   30.2220   41.2890 C   0  0  0  0  0  0  0  0  0  0  0  0
   38.8490   29.7790   41.6520 H   0  0  0  0  0  0  0  0  0  0  0  0
   37.8340   31.5430   40.8500 C   0  0  0  0  0  0  0  0  0  0  0  0
   38.6880   32.2320   40.8320 H   0  0  0  0  0  0  0  0  0  0  0  0
   36.5540   31.7530   40.4810 N   0  0  0  0  0  0  0  0  0  0  0  0
   36.2550   32.6830   40.1150 H   0  0  0  0  0  0  0  0  0  0  0  0
   35.8710   30.6250   40.6800 N   0  0  0  0  0  0  0  0  0  0  0  0
   35.0380   27.0350   37.9490 C   0  0  0  0  0  3  0  0  0  0  0  0
   36.0880   26.4670   37.5340 C   0  0  0  0  0  3  0  0  0  0  0  0
   32.5560   26.5150   35.2730 C   0  0  0  0  0  0  0  0  0  0  0  0
   31.7810   27.6630   35.3370 C   0  0  0  0  0  0  0  0  0  0  0  0
   32.1320   28.5700   36.2820 C   0  0  0  0  0  0  0  0  0  0  0  0
   33.1900   28.3350   37.1060 N   0  0  0  0  0  0  0  0  0  0  0  0
   33.9200   27.2100   37.0170 C   0  0  0  0  0  0  0  0  0  0  0  0
   33.5810   26.3220   36.0950 N   0  0  0  0  0  0  0  0  0  0  0  0
   32.2900   25.7720   34.5180 H   0  0  0  0  0  0  0  0  0  0  0  0
   30.9460   27.8440   34.6820 H   0  0  0  0  0  0  0  0  0  0  0  0
   31.4110   29.8270   36.4680 C   0  0  0  0  0  0  0  0  0  0  0  0
   31.3200   30.8220   35.5390 C   0  0  0  0  0  0  0  0  0  0  0  0
   30.6360   32.0030   35.7270 C   0  0  0  0  0  0  0  0  0  0  0  0
   29.9870   32.2320   36.9230 C   0  0  0  0  0  0  0  0  0  0  0  0
   30.0410   31.2690   37.8960 C   0  0  0  0  0  0  0  0  0  0  0  0
   30.7410   30.1020   37.6560 C   0  0  0  0  0  0  0  0  0  0  0  0
   31.8200   30.6800   34.5800 H   0  0  0  0  0  0  0  0  0  0  0  0
   30.5940   32.7580   34.9640 H   0  0  0  0  0  0  0  0  0  0  0  0
   29.4400   33.1380   37.1190 H   0  0  0  0  0  0  0  0  0  0  0  0
   29.5390   31.4160   38.8590 H   0  0  0  0  0  0  0  0  0  0  0  0
   30.7480   29.3790   38.4630 H   0  0  0  0  0  0  0  0  0  0  0  0
  1  2  1  0  0  0  0
  1  4  1  0  0  0  0
  3  1  1  0  0  0  0
  4  7  1  6  0  0  0
  4  5  1  0  0  0  0
  4  6  1  0  0  0  0
  5  8  1  0  0  0  0
  5  6  1  0  0  0  0
  6 11  1  0  0  0  0
  6 10  1  1  0  0  0
  9  5  1  0  0  0  0
 11 14  1  6  0  0  0
 11 13  1  0  0  0  0
 11 12  1  0  0  0  0
 12 15  1  0  0  0  0
 12 16  1  0  0  0  0
 13 17  1  6  0  0  0
 13 12  1  0  0  0  0
 18 19  1  0  0  0  0
 18 13  1  0  0  0  0
 19 20  1  0  0  0  0
 21 19  2  0  0  0  0
 22 21  1  0  0  0  0
 23 25  1  0  0  0  0
 23 21  1  0  0  0  0
 24 23  1  0  0  0  0
 25 18  2  0  0  0  0
 27 26  2  0  0  0  0
 27  1  1  0  0  0  0
 28 29  2  0  0  0  0
 28 33  1  0  0  0  0
 29 30  1  0  0  0  0
 30 36  1  0  0  0  0
 30 31  2  0  0  0  0
 32 31  1  0  0  0  0
 32 26  1  0  0  0  0
 33 32  2  0  0  0  0
 34 28  1  0  0  0  0
 35 29  1  0  0  0  0
 36 41  1  0  0  0  0
 37 38  1  0  0  0  0
 37 36  2  0  0  0  0
 38 39  2  0  0  0  0
 39 44  1  0  0  0  0
 39 40  1  0  0  0  0
 40 45  1  0  0  0  0
 41 40  2  0  0  0  0
 41 46  1  0  0  0  0
 42 37  1  0  0  0  0
 43 38  1  0  0  0  0
M  END
>  <minimizedAffinity>
-5.7296958

$$$$
