
 OpenBabel03252509253D

 29 31  0  0  1  0  0  0  0  0999 V2000
   46.6230   35.1000   41.9350 C   0  0  1  0  0  0  0  0  0  0  0  0
   48.1530   35.3480   41.9440 C   0  0  0  0  0  0  0  0  0  0  0  0
   47.4190   34.1200   41.3170 C   0  0  2  0  0  0  0  0  0  0  0  0
   46.1090   35.9080   41.3980 H   0  0  0  0  0  0  0  0  0  0  0  0
   48.5670   36.0110   41.1660 H   0  0  0  0  0  0  0  0  0  0  0  0
   48.7210   35.1250   42.8510 H   0  0  0  0  0  0  0  0  0  0  0  0
   47.5900   33.1490   41.8710 H   0  0  0  0  0  0  0  0  0  0  0  0
   44.6730   35.3550   45.1220 C   0  0  0  0  0  0  0  0  0  0  0  0
   45.1430   35.6830   43.8220 C   0  0  0  0  0  0  0  0  0  0  0  0
   46.1100   34.8520   43.3290 C   0  0  0  0  0  0  0  0  0  0  0  0
   46.5830   33.7880   44.0470 N   0  0  0  0  0  0  0  0  0  0  0  0
   46.1050   33.5180   45.2790 C   0  0  0  0  0  0  0  0  0  0  0  0
   45.1460   34.3060   45.8170 N   0  0  0  0  0  0  0  0  0  0  0  0
   43.9050   35.9690   45.5740 H   0  0  0  0  0  0  0  0  0  0  0  0
   46.5130   32.6660   45.8060 H   0  0  0  0  0  0  0  0  0  0  0  0
   44.6580   36.8030   43.1160 N   0  0  0  0  0  0  0  0  0  0  0  0
   43.6810   37.0950   42.8370 H   0  0  0  0  0  0  0  0  0  0  0  0
   45.4800   37.4070   42.8560 H   0  0  0  0  0  0  0  0  0  0  0  0
   47.4620   33.9560   39.8150 C   0  0  0  0  0  0  0  0  0  0  0  0
   48.4520   33.5630   39.5390 H   0  0  0  0  0  0  0  0  0  0  0  0
   47.2960   34.9160   39.2840 H   0  0  0  0  0  0  0  0  0  0  0  0
   46.4380   32.9440   39.4810 C   0  0  0  0  0  0  0  0  0  0  0  0
   45.3420   33.0540   38.6340 C   0  0  0  0  0  0  0  0  0  0  0  0
   45.0700   33.9400   38.0710 H   0  0  0  0  0  0  0  0  0  0  0  0
   44.6470   31.8500   38.6210 C   0  0  0  0  0  0  0  0  0  0  0  0
   43.7520   31.6010   38.0680 H   0  0  0  0  0  0  0  0  0  0  0  0
   45.3540   31.0490   39.4670 N   0  0  0  0  0  0  0  0  0  0  0  0
   45.0400   30.0710   39.6390 H   0  0  0  0  0  0  0  0  0  0  0  0
   46.3900   31.6780   39.9670 N   0  0  0  0  0  0  0  0  0  0  0  0
  1  4  1  6  0  0  0
  1  2  1  0  0  0  0
  1 10  1  0  0  0  0
  2  6  1  0  0  0  0
  3  7  1  1  0  0  0
  3  1  1  0  0  0  0
  3  2  1  0  0  0  0
  5  2  1  0  0  0  0
  8 14  1  0  0  0  0
  8 13  1  0  0  0  0
  9  8  2  0  0  0  0
 10  9  1  0  0  0  0
 10 11  2  0  0  0  0
 11 12  1  0  0  0  0
 12 15  1  0  0  0  0
 12 13  2  0  0  0  0
 16  9  1  0  0  0  0
 17 16  1  0  0  0  0
 18 16  1  0  0  0  0
 19  3  1  0  0  0  0
 20 19  1  0  0  0  0
 21 19  1  0  0  0  0
 22 19  1  0  0  0  0
 22 29  2  0  0  0  0
 23 22  1  0  0  0  0
 24 23  1  0  0  0  0
 25 23  2  0  0  0  0
 25 27  1  0  0  0  0
 26 25  1  0  0  0  0
 27 28  1  0  0  0  0
 27 29  1  0  0  0  0
M  END
>  <minimizedAffinity>
-4.37306023

>  <minimizedRMSD>
0.892526209

$$$$
