
 OpenBabel03252509263D

 29 31  0  0  1  0  0  0  0  0999 V2000
   46.6940   35.1510   41.9470 C   0  0  1  0  0  0  0  0  0  0  0  0
   48.2320   35.3360   41.9700 C   0  0  0  0  0  0  0  0  0  0  0  0
   47.4530   34.1660   41.2910 C   0  0  2  0  0  0  0  0  0  0  0  0
   46.2150   36.0000   41.4430 H   0  0  0  0  0  0  0  0  0  0  0  0
   48.6760   36.0140   41.2210 H   0  0  0  0  0  0  0  0  0  0  0  0
   48.7880   35.0530   42.8680 H   0  0  0  0  0  0  0  0  0  0  0  0
   47.5820   33.1670   41.8040 H   0  0  0  0  0  0  0  0  0  0  0  0
   44.6890   35.3010   45.1070 C   0  0  0  0  0  0  0  0  0  0  0  0
   45.1700   35.6640   43.8200 C   0  0  0  0  0  0  0  0  0  0  0  0
   46.1660   34.8660   43.3280 C   0  0  0  0  0  0  0  0  0  0  0  0
   46.6560   33.8020   44.0360 N   0  0  0  0  0  0  0  0  0  0  0  0
   46.1660   33.4990   45.2550 C   0  0  0  0  0  0  0  0  0  0  0  0
   45.1780   34.2520   45.7920 N   0  0  0  0  0  0  0  0  0  0  0  0
   43.8980   35.8880   45.5570 H   0  0  0  0  0  0  0  0  0  0  0  0
   46.5870   32.6490   45.7750 H   0  0  0  0  0  0  0  0  0  0  0  0
   44.6670   36.7820   43.1250 N   0  0  0  0  0  0  0  0  0  0  0  0
   43.6880   37.0530   42.8360 H   0  0  0  0  0  0  0  0  0  0  0  0
   45.4770   37.4120   42.8880 H   0  0  0  0  0  0  0  0  0  0  0  0
   47.4950   34.0630   39.7830 C   0  0  0  0  0  0  0  0  0  0  0  0
   48.4970   33.7200   39.4890 H   0  0  0  0  0  0  0  0  0  0  0  0
   47.2900   35.0360   39.2910 H   0  0  0  0  0  0  0  0  0  0  0  0
   46.5090   33.0260   39.4130 C   0  0  0  0  0  0  0  0  0  0  0  0
   45.1350   33.1480   39.2380 C   0  0  0  0  0  0  0  0  0  0  0  0
   44.5660   34.0620   39.3550 H   0  0  0  0  0  0  0  0  0  0  0  0
   44.6050   31.9090   38.8920 C   0  0  0  0  0  0  0  0  0  0  0  0
   43.5730   31.6600   38.6860 H   0  0  0  0  0  0  0  0  0  0  0  0
   45.6860   31.0790   38.8690 N   0  0  0  0  0  0  0  0  0  0  0  0
   45.5600   30.0730   38.6310 H   0  0  0  0  0  0  0  0  0  0  0  0
   46.7880   31.7210   39.1700 N   0  0  0  0  0  0  0  0  0  0  0  0
  1  4  1  6  0  0  0
  1  2  1  0  0  0  0
  1 10  1  0  0  0  0
  2  6  1  0  0  0  0
  3  7  1  1  0  0  0
  3  1  1  0  0  0  0
  3  2  1  0  0  0  0
  5  2  1  0  0  0  0
  8 14  1  0  0  0  0
  8 13  1  0  0  0  0
  9  8  2  0  0  0  0
 10  9  1  0  0  0  0
 10 11  2  0  0  0  0
 11 12  1  0  0  0  0
 12 15  1  0  0  0  0
 12 13  2  0  0  0  0
 16  9  1  0  0  0  0
 17 16  1  0  0  0  0
 18 16  1  0  0  0  0
 19  3  1  0  0  0  0
 20 19  1  0  0  0  0
 21 19  1  0  0  0  0
 22 19  1  0  0  0  0
 23 24  1  0  0  0  0
 23 22  1  0  0  0  0
 25 23  2  0  0  0  0
 26 25  1  0  0  0  0
 27 25  1  0  0  0  0
 27 29  1  0  0  0  0
 28 27  1  0  0  0  0
 29 22  2  0  0  0  0
M  END
>  <minimizedAffinity>
-4.38173819

>  <minimizedRMSD>
0.907208264

$$$$
