
 OpenBabel03252509253D

 29 31  0  0  1  0  0  0  0  0999 V2000
   46.6080   35.1070   41.9410 C   0  0  1  0  0  0  0  0  0  0  0  0
   48.1500   35.2700   41.9410 C   0  0  0  0  0  0  0  0  0  0  0  0
   47.3440   34.0950   41.3000 C   0  0  2  0  0  0  0  0  0  0  0  0
   46.1360   35.9510   41.4220 H   0  0  0  0  0  0  0  0  0  0  0  0
   48.5940   35.9220   41.1690 H   0  0  0  0  0  0  0  0  0  0  0  0
   48.7130   35.0010   42.8390 H   0  0  0  0  0  0  0  0  0  0  0  0
   47.4660   33.1070   41.8360 H   0  0  0  0  0  0  0  0  0  0  0  0
   44.6630   35.3820   45.1290 C   0  0  0  0  0  0  0  0  0  0  0  0
   45.1350   35.7050   43.8280 C   0  0  0  0  0  0  0  0  0  0  0  0
   46.0940   34.8650   43.3350 C   0  0  0  0  0  0  0  0  0  0  0  0
   46.5580   33.7960   44.0530 N   0  0  0  0  0  0  0  0  0  0  0  0
   46.0780   33.5310   45.2850 C   0  0  0  0  0  0  0  0  0  0  0  0
   45.1260   34.3280   45.8240 N   0  0  0  0  0  0  0  0  0  0  0  0
   43.9000   36.0040   45.5810 H   0  0  0  0  0  0  0  0  0  0  0  0
   46.4770   32.6760   45.8130 H   0  0  0  0  0  0  0  0  0  0  0  0
   44.6600   36.8290   43.1220 N   0  0  0  0  0  0  0  0  0  0  0  0
   43.6870   37.1300   42.8440 H   0  0  0  0  0  0  0  0  0  0  0  0
   45.4880   37.4250   42.8610 H   0  0  0  0  0  0  0  0  0  0  0  0
   47.3660   33.9540   39.7950 C   0  0  0  0  0  0  0  0  0  0  0  0
   48.3460   33.5500   39.5010 H   0  0  0  0  0  0  0  0  0  0  0  0
   47.2080   34.9240   39.2820 H   0  0  0  0  0  0  0  0  0  0  0  0
   46.3220   32.9630   39.4590 C   0  0  0  0  0  0  0  0  0  0  0  0
   44.9670   33.1660   39.2190 C   0  0  0  0  0  0  0  0  0  0  0  0
   44.4620   34.1240   39.2460 H   0  0  0  0  0  0  0  0  0  0  0  0
   44.3630   31.9450   38.9400 C   0  0  0  0  0  0  0  0  0  0  0  0
   43.3230   31.7520   38.7100 H   0  0  0  0  0  0  0  0  0  0  0  0
   45.3810   31.0430   39.0210 N   0  0  0  0  0  0  0  0  0  0  0  0
   45.1920   30.0330   38.8500 H   0  0  0  0  0  0  0  0  0  0  0  0
   46.5150   31.6280   39.3210 N   0  0  0  0  0  0  0  0  0  0  0  0
  1  4  1  6  0  0  0
  1 10  1  0  0  0  0
  2  1  1  0  0  0  0
  2  6  1  0  0  0  0
  3  7  1  1  0  0  0
  3  2  1  0  0  0  0
  3  1  1  0  0  0  0
  5  2  1  0  0  0  0
  8 14  1  0  0  0  0
  8 13  1  0  0  0  0
  9  8  2  0  0  0  0
 10  9  1  0  0  0  0
 10 11  2  0  0  0  0
 11 12  1  0  0  0  0
 12 15  1  0  0  0  0
 12 13  2  0  0  0  0
 16  9  1  0  0  0  0
 17 16  1  0  0  0  0
 18 16  1  0  0  0  0
 19  3  1  0  0  0  0
 20 19  1  0  0  0  0
 21 19  1  0  0  0  0
 22 19  1  0  0  0  0
 23 24  1  0  0  0  0
 23 22  1  0  0  0  0
 25 27  1  0  0  0  0
 25 23  2  0  0  0  0
 26 25  1  0  0  0  0
 27 29  1  0  0  0  0
 28 27  1  0  0  0  0
 29 22  2  0  0  0  0
M  END
>  <minimizedAffinity>
-4.38162041

>  <minimizedRMSD>
0.847788215

$$$$
