
 OpenBabel03252505393D

 27 29  0  0  1  0  0  0  0  0999 V2000
   45.0810   34.0400   43.0630 C   0  0  1  0  0  0  0  0  0  0  0  0
   45.3760   35.4680   43.5520 C   0  0  0  0  0  0  0  0  0  0  0  0
   46.0550   34.8800   42.3640 C   0  0  1  0  0  0  0  0  0  0  0  0
   44.0570   33.8990   42.6440 H   0  0  0  0  0  0  0  0  0  0  0  0
   45.8940   35.5600   44.5190 H   0  0  0  0  0  0  0  0  0  0  0  0
   44.5340   36.1740   43.4180 H   0  0  0  0  0  0  0  0  0  0  0  0
   45.6970   35.2860   41.3750 H   0  0  0  0  0  0  0  0  0  0  0  0
   45.4650   32.9690   44.0120 C   0  0  0  0  0  0  0  0  0  0  0  0
   45.6490   31.6730   43.4710 C   0  0  0  0  0  0  0  0  0  0  0  0
   46.0260   30.6670   44.3380 C   0  0  0  0  0  0  0  0  0  0  0  0
   46.1950   30.9730   45.6580 N   0  0  0  0  0  0  0  0  0  0  0  0
   46.0100   32.2200   46.1360 C   0  0  0  0  0  0  0  0  0  0  0  0
   45.6430   33.2140   45.2970 N   0  0  0  0  0  0  0  0  0  0  0  0
   45.5170   31.3830   42.4360 H   0  0  0  0  0  0  0  0  0  0  0  0
   46.1830   29.6600   43.9920 H   0  0  0  0  0  0  0  0  0  0  0  0
   46.2470   32.3350   47.6020 C   0  0  0  0  0  0  0  0  0  0  0  0
   45.2710   33.0810   48.2130 F   0  0  0  0  0  0  0  0  0  0  0  0
   47.4900   32.9150   47.8510 F   0  0  0  0  0  0  0  0  0  0  0  0
   46.3180   31.0430   48.1470 F   0  0  0  0  0  0  0  0  0  0  0  0
   47.5190   34.8000   42.5360 C   0  0  0  0  0  0  0  0  0  0  0  0
   48.3710   35.5580   41.7370 C   0  0  0  0  0  0  0  0  0  0  0  0
   48.1370   36.2550   40.9330 H   0  0  0  0  0  0  0  0  0  0  0  0
   49.6680   35.3290   42.0870 C   0  0  0  0  0  0  0  0  0  0  0  0
   50.6250   35.7080   41.7240 H   0  0  0  0  0  0  0  0  0  0  0  0
   49.6180   34.4360   43.0920 N   0  0  0  0  0  0  0  0  0  0  0  0
   50.3960   34.0000   43.6380 H   0  0  0  0  0  0  0  0  0  0  0  0
   48.3730   34.1430   43.3360 N   0  0  0  0  0  0  0  0  0  0  0  0
  1  4  1  6  0  0  0
  1  2  1  0  0  0  0
  1  8  1  0  0  0  0
  2  5  1  0  0  0  0
  3  7  1  6  0  0  0
  3 20  1  0  0  0  0
  3  1  1  0  0  0  0
  3  2  1  0  0  0  0
  6  2  1  0  0  0  0
  8 13  1  0  0  0  0
  9  8  2  0  0  0  0
  9 10  1  0  0  0  0
 10 11  2  0  0  0  0
 11 12  1  0  0  0  0
 12 16  1  0  0  0  0
 13 12  2  0  0  0  0
 14  9  1  0  0  0  0
 15 10  1  0  0  0  0
 16 18  1  0  0  0  0
 16 19  1  0  0  0  0
 16 17  1  0  0  0  0
 20 27  2  0  0  0  0
 21 23  2  0  0  0  0
 21 20  1  0  0  0  0
 22 21  1  0  0  0  0
 23 25  1  0  0  0  0
 24 23  1  0  0  0  0
 25 27  1  0  0  0  0
 25 26  1  0  0  0  0
M  END
>  <minimizedAffinity>
-5.13659811

>  <minimizedRMSD>
1.70032787

$$$$
