
 OpenBabel03242522093D

 43 46  0  0  1  0  0  0  0  0999 V2000
   34.5300   28.7120   34.9970 C   0  0  0  0  0  0  0  0  0  0  0  0
   33.2760   29.2780   35.2800 C   0  0  0  0  0  0  0  0  0  0  0  0
   32.7470   29.1220   36.5760 C   0  0  0  0  0  0  0  0  0  0  0  0
   33.5060   28.4240   37.4550 N   0  0  0  0  0  0  0  0  0  0  0  0
   34.7120   27.8900   37.1540 C   0  0  0  0  0  0  0  0  0  0  0  0
   35.2170   28.0420   35.9090 N   0  0  0  0  0  0  0  0  0  0  0  0
   34.9110   28.8480   33.9960 H   0  0  0  0  0  0  0  0  0  0  0  0
   32.6880   29.8260   34.5770 H   0  0  0  0  0  0  0  0  0  0  0  0
   31.5020   29.6380   36.9930 N   0  0  0  0  0  0  0  0  0  0  0  0
   31.2270   29.8760   38.3980 C   0  0  0  0  0  0  0  0  0  0  0  0
   29.7550   29.9250   38.6740 C   0  0  0  0  0  0  0  0  0  0  0  0
   29.0260   30.7900   37.8340 N   0  0  0  0  0  0  0  0  0  0  0  0
   29.4300   30.8570   36.4680 C   0  0  2  0  0  0  0  0  0  0  0  0
   30.4880   29.9350   36.0220 C   0  0  0  0  0  0  0  0  0  0  0  0
   31.6950   30.8570   38.6680 H   0  0  0  0  0  0  0  0  0  0  0  0
   31.6600   29.0650   39.0330 H   0  0  0  0  0  0  0  0  0  0  0  0
   29.3810   28.8760   38.5010 H   0  0  0  0  0  0  0  0  0  0  0  0
   29.5920   30.1590   39.7280 H   0  0  0  0  0  0  0  0  0  0  0  0
   28.0210   30.7060   37.9940 H   0  0  0  0  0  0  0  0  0  0  0  0
   28.5220   30.6850   35.8450 H   0  0  0  0  0  0  0  0  0  0  0  0
   30.0990   28.9780   35.6270 H   0  0  0  0  0  0  0  0  0  0  0  0
   31.0250   30.3980   35.1440 H   0  0  0  0  0  0  0  0  0  0  0  0
   29.8940   32.2720   36.1930 C   0  0  0  0  0  0  0  0  0  0  0  0
   31.0930   32.2450   35.4830 F   0  0  0  0  0  0  0  0  0  0  0  0
   30.1840   32.8250   37.4290 F   0  0  0  0  0  0  0  0  0  0  0  0
   29.0040   33.0170   35.4890 F   0  0  0  0  0  0  0  0  0  0  0  0
   35.4630   27.1520   38.1660 C   0  0  0  0  0  0  0  0  0  0  0  0
   35.8380   25.8480   37.9270 C   0  0  0  0  0  0  0  0  0  0  0  0
   36.5490   25.1920   38.9180 C   0  0  0  0  0  0  0  0  0  0  0  0
   36.8230   25.8960   40.0620 C   0  0  0  0  0  0  0  0  0  0  0  0
   36.4580   27.1920   40.3140 C   0  0  0  0  0  0  0  0  0  0  0  0
   35.7630   27.8070   39.3250 N   0  0  0  0  0  0  0  0  0  0  0  0
   35.5960   25.3360   37.0050 H   0  0  0  0  0  0  0  0  0  0  0  0
   36.8830   24.1700   38.8140 H   0  0  0  0  0  0  0  0  0  0  0  0
   37.3820   25.3870   40.8440 H   0  0  0  0  0  0  0  0  0  0  0  0
   36.7790   27.8890   41.5530 C   0  0  0  0  0  0  0  0  0  0  0  0
   36.9790   27.2320   42.7530 C   0  0  0  0  0  0  0  0  0  0  0  0
   36.9430   26.1940   42.9940 H   0  0  0  0  0  0  0  0  0  0  0  0
   37.2590   28.2270   43.6790 C   0  0  0  0  0  0  0  0  0  0  0  0
   37.4730   28.0930   44.7450 H   0  0  0  0  0  0  0  0  0  0  0  0
   37.2250   29.4320   43.0430 N   0  0  0  0  0  0  0  0  0  0  0  0
   37.4010   30.3770   43.4970 H   0  0  0  0  0  0  0  0  0  0  0  0
   36.9350   29.2090   41.7620 N   0  0  0  0  0  0  0  0  0  0  0  0
  1  2  2  0  0  0  0
  1  6  1  0  0  0  0
  2  3  1  0  0  0  0
  3  9  1  0  0  0  0
  3  4  2  0  0  0  0
  5  4  1  0  0  0  0
  5 27  1  0  0  0  0
  6  5  2  0  0  0  0
  7  1  1  0  0  0  0
  8  2  1  0  0  0  0
  9 10  1  0  0  0  0
 10 15  1  0  0  0  0
 10 11  1  0  0  0  0
 10 16  1  0  0  0  0
 11 18  1  0  0  0  0
 12 19  1  0  0  0  0
 12 11  1  0  0  0  0
 13 20  1  6  0  0  0
 13 12  1  0  0  0  0
 14 13  1  0  0  0  0
 14  9  1  0  0  0  0
 17 11  1  0  0  0  0
 21 14  1  0  0  0  0
 22 14  1  0  0  0  0
 23 13  1  0  0  0  0
 23 25  1  0  0  0  0
 24 23  1  0  0  0  0
 26 23  1  0  0  0  0
 27 32  1  0  0  0  0
 28 27  2  0  0  0  0
 28 29  1  0  0  0  0
 29 30  2  0  0  0  0
 30 31  1  0  0  0  0
 30 35  1  0  0  0  0
 31 36  1  0  0  0  0
 32 31  2  0  0  0  0
 33 28  1  0  0  0  0
 34 29  1  0  0  0  0
 36 43  2  0  0  0  0
 36 37  1  0  0  0  0
 37 38  1  0  0  0  0
 37 39  2  0  0  0  0
 39 40  1  0  0  0  0
 41 42  1  0  0  0  0
 41 39  1  0  0  0  0
 43 41  1  0  0  0  0
M  END
>  <minimizedAffinity>
-6.22113562

$$$$

 OpenBabel03242522093D

 43 46  0  0  1  0  0  0  0  0999 V2000
   36.1310   29.4970   38.4460 C   0  0  0  0  0  0  0  0  0  0  0  0
   36.4520   28.3610   39.2070 C   0  0  0  0  0  0  0  0  0  0  0  0
   37.5310   28.4400   40.1090 C   0  0  0  0  0  0  0  0  0  0  0  0
   38.1810   29.6280   40.1660 N   0  0  0  0  0  0  0  0  0  0  0  0
   37.8490   30.7060   39.4200 C   0  0  0  0  0  0  0  0  0  0  0  0
   36.8130   30.6270   38.5550 N   0  0  0  0  0  0  0  0  0  0  0  0
   35.2990   29.4080   37.7630 H   0  0  0  0  0  0  0  0  0  0  0  0
   35.9300   27.4300   39.1520 H   0  0  0  0  0  0  0  0  0  0  0  0
   37.9580   27.3770   40.9320 N   0  0  0  0  0  0  0  0  0  0  0  0
   37.9050   27.4850   42.3780 C   0  0  0  0  0  0  0  0  0  0  0  0
   38.8370   26.5170   43.0410 C   0  0  0  0  0  0  0  0  0  0  0  0
   38.7130   25.1840   42.6020 N   0  0  0  0  0  0  0  0  0  0  0  0
   38.4520   24.9820   41.2150 C   0  0  2  0  0  0  0  0  0  0  0  0
   38.4530   26.1660   40.3390 C   0  0  0  0  0  0  0  0  0  0  0  0
   36.8510   27.2690   42.6910 H   0  0  0  0  0  0  0  0  0  0  0  0
   38.1940   28.5110   42.7120 H   0  0  0  0  0  0  0  0  0  0  0  0
   39.8740   26.8740   42.7830 H   0  0  0  0  0  0  0  0  0  0  0  0
   38.7270   26.5940   44.1250 H   0  0  0  0  0  0  0  0  0  0  0  0
   39.4380   24.5900   43.0060 H   0  0  0  0  0  0  0  0  0  0  0  0
   39.2110   24.2600   40.8360 H   0  0  0  0  0  0  0  0  0  0  0  0
   39.4420   26.3820   39.8920 H   0  0  0  0  0  0  0  0  0  0  0  0
   37.7880   25.9610   39.4520 H   0  0  0  0  0  0  0  0  0  0  0  0
   37.1010   24.3100   41.0930 C   0  0  0  0  0  0  0  0  0  0  0  0
   37.2720   22.9390   40.9030 F   0  0  0  0  0  0  0  0  0  0  0  0
   36.5360   24.7980   39.9270 F   0  0  0  0  0  0  0  0  0  0  0  0
   36.2970   24.4870   42.1720 F   0  0  0  0  0  0  0  0  0  0  0  0
   38.6070   31.9480   39.5460 C   0  0  0  0  0  0  0  0  0  0  0  0
   38.1080   32.9820   40.3080 C   0  0  0  0  0  0  0  0  0  0  0  0
   38.8650   34.1390   40.3970 C   0  0  0  0  0  0  0  0  0  0  0  0
   40.0550   34.1610   39.7160 C   0  0  0  0  0  0  0  0  0  0  0  0
   40.5640   33.1430   38.9560 C   0  0  0  0  0  0  0  0  0  0  0  0
   39.8000   32.0240   38.8880 N   0  0  0  0  0  0  0  0  0  0  0  0
   37.1600   32.9140   40.8260 H   0  0  0  0  0  0  0  0  0  0  0  0
   38.5490   34.9970   40.9720 H   0  0  0  0  0  0  0  0  0  0  0  0
   40.6540   35.0660   39.7820 H   0  0  0  0  0  0  0  0  0  0  0  0
   41.8390   33.2260   38.2540 C   0  0  0  0  0  0  0  0  0  0  0  0
   42.8410   32.2840   38.4050 C   0  0  0  0  0  0  0  0  0  0  0  0
   42.8830   31.4020   39.0020 H   0  0  0  0  0  0  0  0  0  0  0  0
   43.8770   32.7090   37.5850 C   0  0  0  0  0  0  0  0  0  0  0  0
   44.8450   32.2180   37.4400 H   0  0  0  0  0  0  0  0  0  0  0  0
   43.4960   33.8640   36.9710 N   0  0  0  0  0  0  0  0  0  0  0  0
   44.0840   34.4230   36.2830 H   0  0  0  0  0  0  0  0  0  0  0  0
   42.2650   34.1600   37.3850 N   0  0  0  0  0  0  0  0  0  0  0  0
  1  6  2  0  0  0  0
  1  2  1  0  0  0  0
  2  3  2  0  0  0  0
  3  4  1  0  0  0  0
  3  9  1  0  0  0  0
  5 27  1  0  0  0  0
  5  4  2  0  0  0  0
  6  5  1  0  0  0  0
  7  1  1  0  0  0  0
  8  2  1  0  0  0  0
  9 10  1  0  0  0  0
 10 15  1  0  0  0  0
 10 16  1  0  0  0  0
 10 11  1  0  0  0  0
 11 18  1  0  0  0  0
 12 19  1  0  0  0  0
 12 11  1  0  0  0  0
 13 20  1  6  0  0  0
 13 12  1  0  0  0  0
 14  9  1  0  0  0  0
 14 13  1  0  0  0  0
 17 11  1  0  0  0  0
 21 14  1  0  0  0  0
 22 14  1  0  0  0  0
 23 13  1  0  0  0  0
 23 26  1  0  0  0  0
 24 23  1  0  0  0  0
 25 23  1  0  0  0  0
 27 28  1  0  0  0  0
 28 29  2  0  0  0  0
 28 33  1  0  0  0  0
 29 34  1  0  0  0  0
 30 35  1  0  0  0  0
 30 29  1  0  0  0  0
 31 30  2  0  0  0  0
 32 31  1  0  0  0  0
 32 27  2  0  0  0  0
 36 37  1  0  0  0  0
 36 31  1  0  0  0  0
 37 38  1  0  0  0  0
 39 37  2  0  0  0  0
 40 39  1  0  0  0  0
 41 43  1  0  0  0  0
 41 39  1  0  0  0  0
 42 41  1  0  0  0  0
 43 36  2  0  0  0  0
M  END
>  <minimizedAffinity>
-6.16763449

$$$$

 OpenBabel03242522093D

 43 46  0  0  1  0  0  0  0  0999 V2000
   35.2340   28.8810   35.4050 C   0  0  0  0  0  0  0  0  0  0  0  0
   33.8370   28.8970   35.2580 C   0  0  0  0  0  0  0  0  0  0  0  0
   33.0450   29.1150   36.4010 C   0  0  0  0  0  0  0  0  0  0  0  0
   33.7100   29.2930   37.5680 N   0  0  0  0  0  0  0  0  0  0  0  0
   35.0580   29.2730   37.6800 C   0  0  0  0  0  0  0  0  0  0  0  0
   35.8160   29.0620   36.5800 N   0  0  0  0  0  0  0  0  0  0  0  0
   35.8160   28.7120   34.5110 H   0  0  0  0  0  0  0  0  0  0  0  0
   33.3260   28.7550   34.3300 H   0  0  0  0  0  0  0  0  0  0  0  0
   31.6350   29.1560   36.3940 N   0  0  0  0  0  0  0  0  0  0  0  0
   30.8560   27.9690   36.0910 C   0  0  0  0  0  0  0  0  0  0  0  0
   29.4690   28.3160   35.6430 C   0  0  0  0  0  0  0  0  0  0  0  0
   28.7790   29.2040   36.4910 N   0  0  0  0  0  0  0  0  0  0  0  0
   29.5420   30.2460   37.0940 C   0  0  2  0  0  0  0  0  0  0  0  0
   30.9520   30.3840   36.6900 C   0  0  0  0  0  0  0  0  0  0  0  0
   30.8080   27.3540   37.0260 H   0  0  0  0  0  0  0  0  0  0  0  0
   31.3340   27.3760   35.2750 H   0  0  0  0  0  0  0  0  0  0  0  0
   29.5940   28.8180   34.6410 H   0  0  0  0  0  0  0  0  0  0  0  0
   28.9020   27.3970   35.4770 H   0  0  0  0  0  0  0  0  0  0  0  0
   27.8850   29.4880   36.0870 H   0  0  0  0  0  0  0  0  0  0  0  0
   29.0170   31.2060   36.8840 H   0  0  0  0  0  0  0  0  0  0  0  0
   31.0990   31.0730   35.8380 H   0  0  0  0  0  0  0  0  0  0  0  0
   31.5250   30.8620   37.5350 H   0  0  0  0  0  0  0  0  0  0  0  0
   29.5020   30.0390   38.5940 C   0  0  0  0  0  0  0  0  0  0  0  0
   28.7570   28.8990   38.8930 F   0  0  0  0  0  0  0  0  0  0  0  0
   28.7940   31.1130   39.1080 F   0  0  0  0  0  0  0  0  0  0  0  0
   30.7250   29.9040   39.1650 F   0  0  0  0  0  0  0  0  0  0  0  0
   35.6900   29.4740   38.9800 C   0  0  0  0  0  0  0  0  0  0  0  0
   35.5200   28.5390   39.9780 C   0  0  0  0  0  0  0  0  0  0  0  0
   36.1420   28.7760   41.1940 C   0  0  0  0  0  0  0  0  0  0  0  0
   36.8790   29.9260   41.3050 C   0  0  0  0  0  0  0  0  0  0  0  0
   37.0580   30.8630   40.3240 C   0  0  0  0  0  0  0  0  0  0  0  0
   36.4370   30.6040   39.1460 N   0  0  0  0  0  0  0  0  0  0  0  0
   34.9260   27.6450   39.8390 H   0  0  0  0  0  0  0  0  0  0  0  0
   36.0610   28.0960   42.0290 H   0  0  0  0  0  0  0  0  0  0  0  0
   37.3710   30.1170   42.2570 H   0  0  0  0  0  0  0  0  0  0  0  0
   37.8570   32.0700   40.5030 C   0  0  0  0  0  0  0  0  0  0  0  0
   37.5880   33.2520   39.8360 C   0  0  0  0  0  0  0  0  0  0  0  0
   36.8270   33.4970   39.1310 H   0  0  0  0  0  0  0  0  0  0  0  0
   38.5550   34.1490   40.2680 C   0  0  0  0  0  0  0  0  0  0  0  0
   38.6680   35.1940   39.9590 H   0  0  0  0  0  0  0  0  0  0  0  0
   39.3660   33.5150   41.1610 N   0  0  0  0  0  0  0  0  0  0  0  0
   40.1970   33.9510   41.6610 H   0  0  0  0  0  0  0  0  0  0  0  0
   38.9300   32.2630   41.2900 N   0  0  0  0  0  0  0  0  0  0  0  0
  1  6  1  0  0  0  0
  2  1  2  0  0  0  0
  2  3  1  0  0  0  0
  3  4  2  0  0  0  0
  4  5  1  0  0  0  0
  5 27  1  0  0  0  0
  6  5  2  0  0  0  0
  7  1  1  0  0  0  0
  8  2  1  0  0  0  0
  9  3  1  0  0  0  0
  9 14  1  0  0  0  0
 10  9  1  0  0  0  0
 10 15  1  0  0  0  0
 11 10  1  0  0  0  0
 11 12  1  0  0  0  0
 12 13  1  0  0  0  0
 13 20  1  6  0  0  0
 13 23  1  0  0  0  0
 14 13  1  0  0  0  0
 14 22  1  0  0  0  0
 16 10  1  0  0  0  0
 17 11  1  0  0  0  0
 18 11  1  0  0  0  0
 19 12  1  0  0  0  0
 21 14  1  0  0  0  0
 23 24  1  0  0  0  0
 23 25  1  0  0  0  0
 23 26  1  0  0  0  0
 27 32  2  0  0  0  0
 27 28  1  0  0  0  0
 28 29  2  0  0  0  0
 29 30  1  0  0  0  0
 29 34  1  0  0  0  0
 30 35  1  0  0  0  0
 31 36  1  0  0  0  0
 31 30  2  0  0  0  0
 32 31  1  0  0  0  0
 33 28  1  0  0  0  0
 36 43  2  0  0  0  0
 37 39  2  0  0  0  0
 37 36  1  0  0  0  0
 38 37  1  0  0  0  0
 39 41  1  0  0  0  0
 40 39  1  0  0  0  0
 41 43  1  0  0  0  0
 41 42  1  0  0  0  0
M  END
>  <minimizedAffinity>
-6.1602025

$$$$

 OpenBabel03242522093D

 43 46  0  0  1  0  0  0  0  0999 V2000
   35.5650   29.3770   40.7510 C   0  0  0  0  0  0  0  0  0  0  0  0
   36.2400   28.2370   41.2160 C   0  0  0  0  0  0  0  0  0  0  0  0
   37.6210   28.3330   41.4740 C   0  0  0  0  0  0  0  0  0  0  0  0
   38.1920   29.5410   41.2460 N   0  0  0  0  0  0  0  0  0  0  0  0
   37.5150   30.6230   40.7970 C   0  0  0  0  0  0  0  0  0  0  0  0
   36.1900   30.5270   40.5500 N   0  0  0  0  0  0  0  0  0  0  0  0
   34.5060   29.2740   40.5610 H   0  0  0  0  0  0  0  0  0  0  0  0
   35.7760   27.2900   41.3910 H   0  0  0  0  0  0  0  0  0  0  0  0
   38.4170   27.2680   41.9440 N   0  0  0  0  0  0  0  0  0  0  0  0
   38.6420   27.0750   43.3650 C   0  0  0  0  0  0  0  0  0  0  0  0
   39.8700   26.2550   43.6250 C   0  0  0  0  0  0  0  0  0  0  0  0
   39.9350   25.0460   42.9060 N   0  0  0  0  0  0  0  0  0  0  0  0
   39.4410   25.0610   41.5690 C   0  0  2  0  0  0  0  0  0  0  0  0
   39.0180   26.3570   41.0110 C   0  0  0  0  0  0  0  0  0  0  0  0
   37.7430   26.5500   43.7760 H   0  0  0  0  0  0  0  0  0  0  0  0
   38.7770   28.0550   43.8840 H   0  0  0  0  0  0  0  0  0  0  0  0
   40.7360   26.9000   43.3020 H   0  0  0  0  0  0  0  0  0  0  0  0
   39.9720   26.0890   44.7000 H   0  0  0  0  0  0  0  0  0  0  0  0
   40.8340   24.5810   43.0390 H   0  0  0  0  0  0  0  0  0  0  0  0
   40.2380   24.6360   40.9160 H   0  0  0  0  0  0  0  0  0  0  0  0
   39.8270   26.8920   40.4800 H   0  0  0  0  0  0  0  0  0  0  0  0
   38.2410   26.1720   40.2140 H   0  0  0  0  0  0  0  0  0  0  0  0
   38.2610   24.1140   41.5020 C   0  0  0  0  0  0  0  0  0  0  0  0
   37.2360   24.6900   40.7530 F   0  0  0  0  0  0  0  0  0  0  0  0
   37.7850   24.0070   42.7970 F   0  0  0  0  0  0  0  0  0  0  0  0
   38.5540   22.9070   40.9560 F   0  0  0  0  0  0  0  0  0  0  0  0
   38.2130   31.8870   40.5790 C   0  0  0  0  0  0  0  0  0  0  0  0
   37.5180   32.9850   40.1220 C   0  0  0  0  0  0  0  0  0  0  0  0
   38.2250   34.1610   39.9320 C   0  0  0  0  0  0  0  0  0  0  0  0
   39.5660   34.1360   40.2140 C   0  0  0  0  0  0  0  0  0  0  0  0
   40.2720   33.0540   40.6690 C   0  0  0  0  0  0  0  0  0  0  0  0
   39.5510   31.9180   40.8450 N   0  0  0  0  0  0  0  0  0  0  0  0
   36.4560   32.9520   39.9140 H   0  0  0  0  0  0  0  0  0  0  0  0
   37.7590   35.0680   39.5770 H   0  0  0  0  0  0  0  0  0  0  0  0
   40.1280   35.0560   40.0680 H   0  0  0  0  0  0  0  0  0  0  0  0
   41.7010   33.0890   40.9520 C   0  0  0  0  0  0  0  0  0  0  0  0
   42.5480   34.0440   40.4190 C   0  0  0  0  0  0  0  0  0  0  0  0
   42.3520   34.8610   39.7630 H   0  0  0  0  0  0  0  0  0  0  0  0
   43.8070   33.7440   40.9180 C   0  0  0  0  0  0  0  0  0  0  0  0
   44.7410   34.2800   40.7170 H   0  0  0  0  0  0  0  0  0  0  0  0
   43.7040   32.6460   41.7190 N   0  0  0  0  0  0  0  0  0  0  0  0
   44.5070   32.1830   42.2420 H   0  0  0  0  0  0  0  0  0  0  0  0
   42.4280   32.2660   41.7290 N   0  0  0  0  0  0  0  0  0  0  0  0
  1  2  1  0  0  0  0
  2  8  1  0  0  0  0
  2  3  2  0  0  0  0
  3  9  1  0  0  0  0
  4  3  1  0  0  0  0
  5  4  2  0  0  0  0
  6  1  2  0  0  0  0
  6  5  1  0  0  0  0
  7  1  1  0  0  0  0
  9 10  1  0  0  0  0
 10 11  1  0  0  0  0
 10 15  1  0  0  0  0
 10 16  1  0  0  0  0
 11 18  1  0  0  0  0
 12 19  1  0  0  0  0
 12 11  1  0  0  0  0
 13 20  1  6  0  0  0
 13 12  1  0  0  0  0
 14 13  1  0  0  0  0
 14  9  1  0  0  0  0
 17 11  1  0  0  0  0
 21 14  1  0  0  0  0
 22 14  1  0  0  0  0
 23 13  1  0  0  0  0
 23 25  1  0  0  0  0
 24 23  1  0  0  0  0
 26 23  1  0  0  0  0
 27  5  1  0  0  0  0
 27 32  1  0  0  0  0
 28 27  2  0  0  0  0
 29 28  1  0  0  0  0
 29 30  2  0  0  0  0
 30 31  1  0  0  0  0
 31 32  2  0  0  0  0
 31 36  1  0  0  0  0
 33 28  1  0  0  0  0
 34 29  1  0  0  0  0
 35 30  1  0  0  0  0
 36 43  2  0  0  0  0
 37 39  2  0  0  0  0
 37 36  1  0  0  0  0
 38 37  1  0  0  0  0
 39 41  1  0  0  0  0
 40 39  1  0  0  0  0
 41 43  1  0  0  0  0
 41 42  1  0  0  0  0
M  END
>  <minimizedAffinity>
-6.14617872

$$$$

 OpenBabel03242522093D

 43 46  0  0  1  0  0  0  0  0999 V2000
   37.8960   31.9190   39.2340 C   0  0  0  0  0  0  0  0  0  0  0  0
   37.3590   31.5130   38.0020 C   0  0  0  0  0  0  0  0  0  0  0  0
   36.8800   30.1950   37.8800 C   0  0  0  0  0  0  0  0  0  0  0  0
   36.9800   29.4140   38.9830 N   0  0  0  0  0  0  0  0  0  0  0  0
   37.5030   29.8330   40.1590 C   0  0  0  0  0  0  0  0  0  0  0  0
   37.9620   31.0990   40.2720 N   0  0  0  0  0  0  0  0  0  0  0  0
   38.2550   32.9350   39.2980 H   0  0  0  0  0  0  0  0  0  0  0  0
   37.2860   32.1400   37.1390 H   0  0  0  0  0  0  0  0  0  0  0  0
   36.3180   29.6590   36.7020 N   0  0  0  0  0  0  0  0  0  0  0  0
   34.9360   29.2160   36.6700 C   0  0  0  0  0  0  0  0  0  0  0  0
   34.6890   28.2500   35.5520 C   0  0  0  0  0  0  0  0  0  0  0  0
   35.1400   28.6810   34.2890 N   0  0  0  0  0  0  0  0  0  0  0  0
   36.3650   29.4100   34.2540 C   0  0  2  0  0  0  0  0  0  0  0  0
   37.1150   29.5470   35.5140 C   0  0  0  0  0  0  0  0  0  0  0  0
   34.2970   30.1260   36.5300 H   0  0  0  0  0  0  0  0  0  0  0  0
   34.6590   28.7050   37.6230 H   0  0  0  0  0  0  0  0  0  0  0  0
   35.2620   27.3190   35.8270 H   0  0  0  0  0  0  0  0  0  0  0  0
   33.6300   27.9840   35.5300 H   0  0  0  0  0  0  0  0  0  0  0  0
   35.0430   27.9450   33.5870 H   0  0  0  0  0  0  0  0  0  0  0  0
   37.0220   28.9180   33.5010 H   0  0  0  0  0  0  0  0  0  0  0  0
   37.8580   28.7430   35.6730 H   0  0  0  0  0  0  0  0  0  0  0  0
   37.7340   30.4890   35.4660 H   0  0  0  0  0  0  0  0  0  0  0  0
   36.0600   30.7990   33.7350 C   0  0  0  0  0  0  0  0  0  0  0  0
   36.5200   30.9250   32.4250 F   0  0  0  0  0  0  0  0  0  0  0  0
   36.8210   31.6670   34.5010 F   0  0  0  0  0  0  0  0  0  0  0  0
   34.7410   31.1170   33.7500 F   0  0  0  0  0  0  0  0  0  0  0  0
   37.5720   28.9220   41.2980 C   0  0  0  0  0  0  0  0  0  0  0  0
   37.5300   29.4230   42.5810 C   0  0  0  0  0  0  0  0  0  0  0  0
   37.5980   28.5180   43.6270 C   0  0  0  0  0  0  0  0  0  0  0  0
   37.7030   27.1910   43.3000 C   0  0  0  0  0  0  0  0  0  0  0  0
   37.7460   26.6770   42.0310 C   0  0  0  0  0  0  0  0  0  0  0  0
   37.6770   27.5880   41.0280 N   0  0  0  0  0  0  0  0  0  0  0  0
   37.4470   30.4820   42.7860 H   0  0  0  0  0  0  0  0  0  0  0  0
   37.5720   28.8240   44.6630 H   0  0  0  0  0  0  0  0  0  0  0  0
   37.7560   26.4740   44.1160 H   0  0  0  0  0  0  0  0  0  0  0  0
   37.8580   25.2520   41.7450 C   0  0  0  0  0  0  0  0  0  0  0  0
   36.9900   24.5870   40.8990 C   0  0  0  0  0  0  0  0  0  0  0  0
   36.1510   24.9390   40.3430 H   0  0  0  0  0  0  0  0  0  0  0  0
   37.4200   23.2680   40.8880 C   0  0  0  0  0  0  0  0  0  0  0  0
   36.9780   22.4360   40.3290 H   0  0  0  0  0  0  0  0  0  0  0  0
   38.5080   23.1610   41.7020 N   0  0  0  0  0  0  0  0  0  0  0  0
   39.0550   22.2680   41.8900 H   0  0  0  0  0  0  0  0  0  0  0  0
   38.7580   24.3670   42.2100 N   0  0  0  0  0  0  0  0  0  0  0  0
  1  7  1  0  0  0  0
  1  6  1  0  0  0  0
  2  1  2  0  0  0  0
  3  2  1  0  0  0  0
  3  4  2  0  0  0  0
  4  5  1  0  0  0  0
  5  6  2  0  0  0  0
  5 27  1  0  0  0  0
  8  2  1  0  0  0  0
  9  3  1  0  0  0  0
 10  9  1  0  0  0  0
 10 16  1  0  0  0  0
 11 17  1  0  0  0  0
 11 10  1  0  0  0  0
 12 11  1  0  0  0  0
 13 20  1  6  0  0  0
 13 12  1  0  0  0  0
 13 14  1  0  0  0  0
 14 21  1  0  0  0  0
 14  9  1  0  0  0  0
 15 10  1  0  0  0  0
 18 11  1  0  0  0  0
 19 12  1  0  0  0  0
 22 14  1  0  0  0  0
 23 26  1  0  0  0  0
 23 13  1  0  0  0  0
 23 25  1  0  0  0  0
 24 23  1  0  0  0  0
 27 28  1  0  0  0  0
 28 33  1  0  0  0  0
 28 29  2  0  0  0  0
 29 34  1  0  0  0  0
 30 29  1  0  0  0  0
 30 35  1  0  0  0  0
 31 30  2  0  0  0  0
 32 27  2  0  0  0  0
 32 31  1  0  0  0  0
 36 31  1  0  0  0  0
 36 43  2  0  0  0  0
 37 36  1  0  0  0  0
 38 37  1  0  0  0  0
 39 37  2  0  0  0  0
 39 41  1  0  0  0  0
 40 39  1  0  0  0  0
 41 42  1  0  0  0  0
 41 43  1  0  0  0  0
M  END
>  <minimizedAffinity>
-6.14074564

$$$$

 OpenBabel03242522093D

 43 46  0  0  1  0  0  0  0  0999 V2000
   36.9460   30.9490   38.3000 C   0  0  0  0  0  0  0  0  0  0  0  0
   38.1180   31.6670   38.0120 C   0  0  0  0  0  0  0  0  0  0  0  0
   39.2390   31.4830   38.8440 C   0  0  0  0  0  0  0  0  0  0  0  0
   39.0890   30.6130   39.8720 N   0  0  0  0  0  0  0  0  0  0  0  0
   37.9460   29.9340   40.1250 C   0  0  0  0  0  0  0  0  0  0  0  0
   36.8720   30.1130   39.3250 N   0  0  0  0  0  0  0  0  0  0  0  0
   36.1020   31.1090   37.6450 H   0  0  0  0  0  0  0  0  0  0  0  0
   38.2220   32.3510   37.1980 H   0  0  0  0  0  0  0  0  0  0  0  0
   40.4750   32.1400   38.6680 N   0  0  0  0  0  0  0  0  0  0  0  0
   41.2870   32.5200   39.8100 C   0  0  0  0  0  0  0  0  0  0  0  0
   42.2540   33.6110   39.4640 C   0  0  0  0  0  0  0  0  0  0  0  0
   43.0320   33.3680   38.3150 N   0  0  0  0  0  0  0  0  0  0  0  0
   42.3890   32.7060   37.2280 C   0  0  2  0  0  0  0  0  0  0  0  0
   40.9450   32.4410   37.3450 C   0  0  0  0  0  0  0  0  0  0  0  0
   41.8480   31.6090   40.1390 H   0  0  0  0  0  0  0  0  0  0  0  0
   40.6480   32.8920   40.6470 H   0  0  0  0  0  0  0  0  0  0  0  0
   41.6210   34.5230   39.2690 H   0  0  0  0  0  0  0  0  0  0  0  0
   42.8790   33.8290   40.3320 H   0  0  0  0  0  0  0  0  0  0  0  0
   43.5940   34.1820   38.0660 H   0  0  0  0  0  0  0  0  0  0  0  0
   42.5650   33.3200   36.3150 H   0  0  0  0  0  0  0  0  0  0  0  0
   40.3150   33.2500   36.9320 H   0  0  0  0  0  0  0  0  0  0  0  0
   40.6890   31.5420   36.7140 H   0  0  0  0  0  0  0  0  0  0  0  0
   43.0930   31.3820   37.0130 C   0  0  0  0  0  0  0  0  0  0  0  0
   44.3080   31.5940   36.3640 F   0  0  0  0  0  0  0  0  0  0  0  0
   42.2990   30.6670   36.1320 F   0  0  0  0  0  0  0  0  0  0  0  0
   43.3420   30.6980   38.1580 F   0  0  0  0  0  0  0  0  0  0  0  0
   37.8730   29.0150   41.2570 C   0  0  0  0  0  0  0  0  0  0  0  0
   37.7910   29.5110   42.5400 C   0  0  0  0  0  0  0  0  0  0  0  0
   37.7230   28.5980   43.5800 C   0  0  0  0  0  0  0  0  0  0  0  0
   37.7440   27.2680   43.2460 C   0  0  0  0  0  0  0  0  0  0  0  0
   37.8260   26.7600   41.9780 C   0  0  0  0  0  0  0  0  0  0  0  0
   37.8910   27.6780   40.9820 N   0  0  0  0  0  0  0  0  0  0  0  0
   37.7770   30.5730   42.7500 H   0  0  0  0  0  0  0  0  0  0  0  0
   37.6560   28.9000   44.6150 H   0  0  0  0  0  0  0  0  0  0  0  0
   37.6910   26.5460   44.0580 H   0  0  0  0  0  0  0  0  0  0  0  0
   37.8440   25.3310   41.6850 C   0  0  0  0  0  0  0  0  0  0  0  0
   36.9020   24.7190   40.8790 C   0  0  0  0  0  0  0  0  0  0  0  0
   36.0610   25.1200   40.3620 H   0  0  0  0  0  0  0  0  0  0  0  0
   37.2570   23.3780   40.8460 C   0  0  0  0  0  0  0  0  0  0  0  0
   36.7440   22.5740   40.3070 H   0  0  0  0  0  0  0  0  0  0  0  0
   38.3730   23.2070   41.6100 N   0  0  0  0  0  0  0  0  0  0  0  0
   38.8770   22.2850   41.7730 H   0  0  0  0  0  0  0  0  0  0  0  0
   38.7130   24.3950   42.1070 N   0  0  0  0  0  0  0  0  0  0  0  0
  1  6  1  0  0  0  0
  2  1  2  0  0  0  0
  2  3  1  0  0  0  0
  3  4  2  0  0  0  0
  4  5  1  0  0  0  0
  5 27  1  0  0  0  0
  6  5  2  0  0  0  0
  7  1  1  0  0  0  0
  8  2  1  0  0  0  0
  9  3  1  0  0  0  0
  9 10  1  0  0  0  0
 10 15  1  0  0  0  0
 10 16  1  0  0  0  0
 11 10  1  0  0  0  0
 11 18  1  0  0  0  0
 12 11  1  0  0  0  0
 13 20  1  6  0  0  0
 13 14  1  0  0  0  0
 13 12  1  0  0  0  0
 14  9  1  0  0  0  0
 17 11  1  0  0  0  0
 19 12  1  0  0  0  0
 21 14  1  0  0  0  0
 22 14  1  0  0  0  0
 23 13  1  0  0  0  0
 23 26  1  0  0  0  0
 24 23  1  0  0  0  0
 25 23  1  0  0  0  0
 27 28  1  0  0  0  0
 28 33  1  0  0  0  0
 28 29  2  0  0  0  0
 29 34  1  0  0  0  0
 30 29  1  0  0  0  0
 30 35  1  0  0  0  0
 31 30  2  0  0  0  0
 32 27  2  0  0  0  0
 32 31  1  0  0  0  0
 36 31  1  0  0  0  0
 36 43  2  0  0  0  0
 37 36  1  0  0  0  0
 38 37  1  0  0  0  0
 39 37  2  0  0  0  0
 39 41  1  0  0  0  0
 40 39  1  0  0  0  0
 41 42  1  0  0  0  0
 41 43  1  0  0  0  0
M  END
>  <minimizedAffinity>
-6.13111305

$$$$

 OpenBabel03242522093D

 43 46  0  0  1  0  0  0  0  0999 V2000
   36.9540   31.9120   40.3410 C   0  0  0  0  0  0  0  0  0  0  0  0
   38.1490   32.6390   40.2160 C   0  0  0  0  0  0  0  0  0  0  0  0
   39.3410   32.0580   40.6910 C   0  0  0  0  0  0  0  0  0  0  0  0
   39.2310   30.8240   41.2390 N   0  0  0  0  0  0  0  0  0  0  0  0
   38.0650   30.1460   41.3460 C   0  0  0  0  0  0  0  0  0  0  0  0
   36.9230   30.7070   40.8900 N   0  0  0  0  0  0  0  0  0  0  0  0
   36.0570   32.3820   39.9680 H   0  0  0  0  0  0  0  0  0  0  0  0
   38.2210   33.6120   39.7810 H   0  0  0  0  0  0  0  0  0  0  0  0
   40.6070   32.6770   40.6270 N   0  0  0  0  0  0  0  0  0  0  0  0
   41.7360   32.1460   41.3700 C   0  0  0  0  0  0  0  0  0  0  0  0
   42.7980   33.1810   41.5800 C   0  0  0  0  0  0  0  0  0  0  0  0
   43.2000   33.8600   40.4130 N   0  0  0  0  0  0  0  0  0  0  0  0
   42.1850   34.1610   39.4580 C   0  0  2  0  0  0  0  0  0  0  0  0
   40.7920   33.8500   39.8200 C   0  0  0  0  0  0  0  0  0  0  0  0
   42.1520   31.2920   40.7770 H   0  0  0  0  0  0  0  0  0  0  0  0
   41.4150   31.7840   42.3770 H   0  0  0  0  0  0  0  0  0  0  0  0
   42.3460   33.9370   42.2840 H   0  0  0  0  0  0  0  0  0  0  0  0
   43.6490   32.7280   42.0930 H   0  0  0  0  0  0  0  0  0  0  0  0
   43.8450   34.6220   40.6280 H   0  0  0  0  0  0  0  0  0  0  0  0
   42.2580   35.2490   39.2280 H   0  0  0  0  0  0  0  0  0  0  0  0
   40.2670   34.6910   40.3100 H   0  0  0  0  0  0  0  0  0  0  0  0
   40.2030   33.6710   38.8740 H   0  0  0  0  0  0  0  0  0  0  0  0
   42.5160   33.4160   38.1820 C   0  0  0  0  0  0  0  0  0  0  0  0
   43.4240   34.1560   37.4260 F   0  0  0  0  0  0  0  0  0  0  0  0
   41.3410   33.3740   37.4500 F   0  0  0  0  0  0  0  0  0  0  0  0
   43.0440   32.1830   38.3850 F   0  0  0  0  0  0  0  0  0  0  0  0
   38.0400   28.8190   41.9530 C   0  0  0  0  0  0  0  0  0  0  0  0
   36.8350   28.2420   42.2940 C   0  0  0  0  0  0  0  0  0  0  0  0
   36.8650   26.9810   42.8660 C   0  0  0  0  0  0  0  0  0  0  0  0
   38.0960   26.4060   43.0480 C   0  0  0  0  0  0  0  0  0  0  0  0
   39.3010   26.9650   42.7150 C   0  0  0  0  0  0  0  0  0  0  0  0
   39.2390   28.2000   42.1570 N   0  0  0  0  0  0  0  0  0  0  0  0
   35.8890   28.7400   42.1290 H   0  0  0  0  0  0  0  0  0  0  0  0
   35.9680   26.4570   43.1630 H   0  0  0  0  0  0  0  0  0  0  0  0
   38.1260   25.4150   43.4960 H   0  0  0  0  0  0  0  0  0  0  0  0
   40.5800   26.3020   42.9330 C   0  0  0  0  0  0  0  0  0  0  0  0
   41.6900   26.9600   43.4300 C   0  0  0  0  0  0  0  0  0  0  0  0
   41.8250   27.9760   43.7230 H   0  0  0  0  0  0  0  0  0  0  0  0
   42.6930   26.0030   43.4920 C   0  0  0  0  0  0  0  0  0  0  0  0
   43.7230   26.1490   43.8360 H   0  0  0  0  0  0  0  0  0  0  0  0
   42.1880   24.8190   43.0450 N   0  0  0  0  0  0  0  0  0  0  0  0
   42.7250   23.9030   42.9780 H   0  0  0  0  0  0  0  0  0  0  0  0
   40.9130   25.0170   42.7130 N   0  0  0  0  0  0  0  0  0  0  0  0
  1  6  1  0  0  0  0
  2  1  2  0  0  0  0
  2  3  1  0  0  0  0
  3  4  2  0  0  0  0
  4  5  1  0  0  0  0
  5 27  1  0  0  0  0
  6  5  2  0  0  0  0
  7  1  1  0  0  0  0
  8  2  1  0  0  0  0
  9  3  1  0  0  0  0
  9 10  1  0  0  0  0
 10 11  1  0  0  0  0
 10 16  1  0  0  0  0
 11 18  1  0  0  0  0
 11 17  1  0  0  0  0
 12 19  1  0  0  0  0
 12 11  1  0  0  0  0
 13 20  1  6  0  0  0
 13 14  1  0  0  0  0
 13 12  1  0  0  0  0
 14 21  1  0  0  0  0
 14  9  1  0  0  0  0
 15 10  1  0  0  0  0
 22 14  1  0  0  0  0
 23 26  1  0  0  0  0
 23 13  1  0  0  0  0
 24 23  1  0  0  0  0
 25 23  1  0  0  0  0
 27 32  2  0  0  0  0
 27 28  1  0  0  0  0
 28 29  2  0  0  0  0
 29 30  1  0  0  0  0
 29 34  1  0  0  0  0
 30 35  1  0  0  0  0
 31 36  1  0  0  0  0
 31 30  2  0  0  0  0
 32 31  1  0  0  0  0
 33 28  1  0  0  0  0
 36 37  1  0  0  0  0
 37 39  2  0  0  0  0
 37 38  1  0  0  0  0
 39 40  1  0  0  0  0
 41 39  1  0  0  0  0
 42 41  1  0  0  0  0
 43 36  2  0  0  0  0
 43 41  1  0  0  0  0
M  END
>  <minimizedAffinity>
-6.12452221

$$$$

 OpenBabel03242522093D

 43 46  0  0  1  0  0  0  0  0999 V2000
   36.4150   30.6350   40.9370 C   0  0  0  0  0  0  0  0  0  0  0  0
   36.6920   29.3380   41.3970 C   0  0  0  0  0  0  0  0  0  0  0  0
   38.0370   28.9640   41.5840 C   0  0  0  0  0  0  0  0  0  0  0  0
   38.9680   29.9060   41.2960 N   0  0  0  0  0  0  0  0  0  0  0  0
   38.6710   31.1500   40.8540 C   0  0  0  0  0  0  0  0  0  0  0  0
   37.3790   31.5050   40.6750 N   0  0  0  0  0  0  0  0  0  0  0  0
   35.3760   30.8940   40.8030 H   0  0  0  0  0  0  0  0  0  0  0  0
   35.9480   28.6040   41.6200 H   0  0  0  0  0  0  0  0  0  0  0  0
   38.4540   27.6960   42.0400 N   0  0  0  0  0  0  0  0  0  0  0  0
   38.6780   27.4490   43.4530 C   0  0  0  0  0  0  0  0  0  0  0  0
   39.5700   26.2660   43.6740 C   0  0  0  0  0  0  0  0  0  0  0  0
   39.1860   25.1000   42.9830 N   0  0  0  0  0  0  0  0  0  0  0  0
   38.6540   25.2710   41.6720 C   0  0  2  0  0  0  0  0  0  0  0  0
   38.6610   26.6290   41.1020 C   0  0  0  0  0  0  0  0  0  0  0  0
   37.6780   27.2600   43.9210 H   0  0  0  0  0  0  0  0  0  0  0  0
   39.1620   28.3300   43.9400 H   0  0  0  0  0  0  0  0  0  0  0  0
   40.5840   26.5780   43.2920 H   0  0  0  0  0  0  0  0  0  0  0  0
   39.6690   26.0820   44.7460 H   0  0  0  0  0  0  0  0  0  0  0  0
   39.8820   24.3600   43.0840 H   0  0  0  0  0  0  0  0  0  0  0  0
   39.2240   24.5970   40.9910 H   0  0  0  0  0  0  0  0  0  0  0  0
   39.5730   26.8560   40.5190 H   0  0  0  0  0  0  0  0  0  0  0  0
   37.8250   26.7110   40.3500 H   0  0  0  0  0  0  0  0  0  0  0  0
   37.2230   24.7760   41.6870 C   0  0  0  0  0  0  0  0  0  0  0  0
   37.1950   23.4060   41.4300 F   0  0  0  0  0  0  0  0  0  0  0  0
   36.5970   25.3870   40.6130 F   0  0  0  0  0  0  0  0  0  0  0  0
   36.5750   24.9980   42.8580 F   0  0  0  0  0  0  0  0  0  0  0  0
   39.7400   32.1020   40.5680 C   0  0  0  0  0  0  0  0  0  0  0  0
   39.6580   32.9140   39.4570 C   0  0  0  0  0  0  0  0  0  0  0  0
   40.6980   33.8010   39.2310 C   0  0  0  0  0  0  0  0  0  0  0  0
   41.7290   33.8000   40.1340 C   0  0  0  0  0  0  0  0  0  0  0  0
   41.8250   33.0010   41.2420 C   0  0  0  0  0  0  0  0  0  0  0  0
   40.7920   32.1430   41.4360 N   0  0  0  0  0  0  0  0  0  0  0  0
   38.8200   32.8750   38.7740 H   0  0  0  0  0  0  0  0  0  0  0  0
   40.7140   34.4730   38.3850 H   0  0  0  0  0  0  0  0  0  0  0  0
   42.5480   34.4940   39.9630 H   0  0  0  0  0  0  0  0  0  0  0  0
   42.9500   33.0450   42.1690 C   0  0  0  0  0  0  0  0  0  0  0  0
   43.4200   31.9260   42.8310 C   0  0  0  0  0  0  0  0  0  0  0  0
   43.0920   30.9120   42.8060 H   0  0  0  0  0  0  0  0  0  0  0  0
   44.4800   32.3720   43.6070 C   0  0  0  0  0  0  0  0  0  0  0  0
   45.1060   31.7710   44.2760 H   0  0  0  0  0  0  0  0  0  0  0  0
   44.6290   33.7120   43.4070 N   0  0  0  0  0  0  0  0  0  0  0  0
   45.3630   34.3290   43.8670 H   0  0  0  0  0  0  0  0  0  0  0  0
   43.6990   34.1010   42.5360 N   0  0  0  0  0  0  0  0  0  0  0  0
  1  2  1  0  0  0  0
  2  3  2  0  0  0  0
  2  8  1  0  0  0  0
  3  9  1  0  0  0  0
  4  3  1  0  0  0  0
  5  4  2  0  0  0  0
  6  5  1  0  0  0  0
  6  1  2  0  0  0  0
  7  1  1  0  0  0  0
  9 10  1  0  0  0  0
 10 11  1  0  0  0  0
 10 15  1  0  0  0  0
 10 16  1  0  0  0  0
 11 18  1  0  0  0  0
 12 19  1  0  0  0  0
 12 11  1  0  0  0  0
 13 20  1  6  0  0  0
 13 23  1  0  0  0  0
 13 12  1  0  0  0  0
 14 13  1  0  0  0  0
 14  9  1  0  0  0  0
 17 11  1  0  0  0  0
 21 14  1  0  0  0  0
 22 14  1  0  0  0  0
 23 26  1  0  0  0  0
 24 23  1  0  0  0  0
 25 23  1  0  0  0  0
 27  5  1  0  0  0  0
 27 32  1  0  0  0  0
 28 27  2  0  0  0  0
 29 28  1  0  0  0  0
 29 30  2  0  0  0  0
 30 31  1  0  0  0  0
 31 32  2  0  0  0  0
 31 36  1  0  0  0  0
 33 28  1  0  0  0  0
 34 29  1  0  0  0  0
 35 30  1  0  0  0  0
 36 43  2  0  0  0  0
 36 37  1  0  0  0  0
 37 39  2  0  0  0  0
 38 37  1  0  0  0  0
 39 40  1  0  0  0  0
 41 39  1  0  0  0  0
 41 42  1  0  0  0  0
 43 41  1  0  0  0  0
M  END
>  <minimizedAffinity>
-6.01731968

$$$$

 OpenBabel03242522093D

 43 46  0  0  1  0  0  0  0  0999 V2000
   35.6150   28.3790   35.2810 C   0  0  0  0  0  0  0  0  0  0  0  0
   34.2920   28.6690   34.9090 C   0  0  0  0  0  0  0  0  0  0  0  0
   33.4310   29.2280   35.8740 C   0  0  0  0  0  0  0  0  0  0  0  0
   33.9630   29.4410   37.1020 N   0  0  0  0  0  0  0  0  0  0  0  0
   35.2420   29.1500   37.4320 C   0  0  0  0  0  0  0  0  0  0  0  0
   36.0660   28.6140   36.5040 N   0  0  0  0  0  0  0  0  0  0  0  0
   36.2520   27.9520   34.5210 H   0  0  0  0  0  0  0  0  0  0  0  0
   33.8860   28.4960   33.9360 H   0  0  0  0  0  0  0  0  0  0  0  0
   32.0830   29.5670   35.6340 N   0  0  0  0  0  0  0  0  0  0  0  0
   31.0990   29.5120   36.7000 C   0  0  0  0  0  0  0  0  0  0  0  0
   29.7050   29.4050   36.1630 C   0  0  0  0  0  0  0  0  0  0  0  0
   29.3760   30.3620   35.1830 N   0  0  0  0  0  0  0  0  0  0  0  0
   30.3990   30.7170   34.2560 C   0  0  2  0  0  0  0  0  0  0  0  0
   31.6690   29.9730   34.3210 C   0  0  0  0  0  0  0  0  0  0  0  0
   31.2030   30.4530   37.2980 H   0  0  0  0  0  0  0  0  0  0  0  0
   31.2740   28.6270   37.3580 H   0  0  0  0  0  0  0  0  0  0  0  0
   29.6430   28.3850   35.6880 H   0  0  0  0  0  0  0  0  0  0  0  0
   28.9950   29.4210   36.9930 H   0  0  0  0  0  0  0  0  0  0  0  0
   28.4560   30.1800   34.7770 H   0  0  0  0  0  0  0  0  0  0  0  0
   29.9730   30.6050   33.2320 H   0  0  0  0  0  0  0  0  0  0  0  0
   31.6920   29.0850   33.6630 H   0  0  0  0  0  0  0  0  0  0  0  0
   32.4950   30.6320   33.9250 H   0  0  0  0  0  0  0  0  0  0  0  0
   30.7060   32.1870   34.4490 C   0  0  0  0  0  0  0  0  0  0  0  0
   29.9020   32.9520   33.6050 F   0  0  0  0  0  0  0  0  0  0  0  0
   32.0080   32.3650   34.0120 F   0  0  0  0  0  0  0  0  0  0  0  0
   30.5210   32.6270   35.7190 F   0  0  0  0  0  0  0  0  0  0  0  0
   35.7300   29.4130   38.7820 C   0  0  0  0  0  0  0  0  0  0  0  0
   35.4410   28.5310   39.8010 C   0  0  0  0  0  0  0  0  0  0  0  0
   35.9280   28.8250   41.0640 C   0  0  0  0  0  0  0  0  0  0  0  0
   36.6620   29.9740   41.1990 C   0  0  0  0  0  0  0  0  0  0  0  0
   36.9580   30.8600   40.1990 C   0  0  0  0  0  0  0  0  0  0  0  0
   36.4680   30.5460   38.9740 N   0  0  0  0  0  0  0  0  0  0  0  0
   34.8560   27.6350   39.6410 H   0  0  0  0  0  0  0  0  0  0  0  0
   35.7480   28.1880   41.9180 H   0  0  0  0  0  0  0  0  0  0  0  0
   37.0480   30.2110   42.1890 H   0  0  0  0  0  0  0  0  0  0  0  0
   37.7460   32.0700   40.4050 C   0  0  0  0  0  0  0  0  0  0  0  0
   37.4610   33.2660   39.7720 C   0  0  0  0  0  0  0  0  0  0  0  0
   36.6940   33.5220   39.0780 H   0  0  0  0  0  0  0  0  0  0  0  0
   38.4220   34.1610   40.2210 C   0  0  0  0  0  0  0  0  0  0  0  0
   38.5230   35.2150   39.9390 H   0  0  0  0  0  0  0  0  0  0  0  0
   39.2450   33.5110   41.0920 N   0  0  0  0  0  0  0  0  0  0  0  0
   40.0750   33.9420   41.5980 H   0  0  0  0  0  0  0  0  0  0  0  0
   38.8220   32.2520   41.1910 N   0  0  0  0  0  0  0  0  0  0  0  0
  1  6  1  0  0  0  0
  2  1  2  0  0  0  0
  2  3  1  0  0  0  0
  3  4  2  0  0  0  0
  4  5  1  0  0  0  0
  5 27  1  0  0  0  0
  6  5  2  0  0  0  0
  7  1  1  0  0  0  0
  8  2  1  0  0  0  0
  9  3  1  0  0  0  0
  9 10  1  0  0  0  0
 10 15  1  0  0  0  0
 10 16  1  0  0  0  0
 11 10  1  0  0  0  0
 11 18  1  0  0  0  0
 12 11  1  0  0  0  0
 13 20  1  6  0  0  0
 13 14  1  0  0  0  0
 13 23  1  0  0  0  0
 13 12  1  0  0  0  0
 14  9  1  0  0  0  0
 17 11  1  0  0  0  0
 19 12  1  0  0  0  0
 21 14  1  0  0  0  0
 22 14  1  0  0  0  0
 23 26  1  0  0  0  0
 24 23  1  0  0  0  0
 25 23  1  0  0  0  0
 27 32  2  0  0  0  0
 27 28  1  0  0  0  0
 28 29  2  0  0  0  0
 29 30  1  0  0  0  0
 29 34  1  0  0  0  0
 30 35  1  0  0  0  0
 31 36  1  0  0  0  0
 31 30  2  0  0  0  0
 32 31  1  0  0  0  0
 33 28  1  0  0  0  0
 36 43  2  0  0  0  0
 37 39  2  0  0  0  0
 37 36  1  0  0  0  0
 38 37  1  0  0  0  0
 39 41  1  0  0  0  0
 40 39  1  0  0  0  0
 41 43  1  0  0  0  0
 41 42  1  0  0  0  0
M  END
>  <minimizedAffinity>
-6.00425673

$$$$
