
 OpenBabel03252508553D

 42 45  0  0  1  0  0  0  0  0999 V2000
   36.0080   27.4710   38.7560 C   0  0  0  0  0  0  0  0  0  0  0  0
   35.7610   26.7030   37.7830 O   0  0  0  0  0  0  0  0  0  0  0  0
   36.0310   28.7410   38.0470 N   0  0  0  0  0  0  0  0  0  0  0  0
   34.8020   29.0880   37.3740 C   0  0  0  0  0  0  0  0  0  0  0  0
   35.0410   28.7330   35.9040 C   0  0  0  0  0  0  0  0  0  0  0  0
   36.5030   29.0530   35.6150 C   0  0  0  0  0  0  0  0  0  0  0  0
   37.0050   30.1920   36.4750 C   0  0  0  0  0  0  0  0  0  0  0  0
   37.1290   29.7070   37.9290 C   0  0  1  0  0  0  0  0  0  0  0  0
   34.5660   30.1650   37.4700 H   0  0  0  0  0  0  0  0  0  0  0  0
   33.9220   28.5100   37.7110 H   0  0  0  0  0  0  0  0  0  0  0  0
   34.8500   27.6480   35.7440 H   0  0  0  0  0  0  0  0  0  0  0  0
   34.4400   29.3670   35.2290 H   0  0  0  0  0  0  0  0  0  0  0  0
   37.1020   28.1210   35.8130 H   0  0  0  0  0  0  0  0  0  0  0  0
   36.6430   29.3560   34.5430 H   0  0  0  0  0  0  0  0  0  0  0  0
   36.1690   30.9480   36.4790 H   0  0  0  0  0  0  0  0  0  0  0  0
   37.9450   30.5670   36.0850 H   0  0  0  0  0  0  0  0  0  0  0  0
   38.0890   29.2000   38.0060 H   0  0  0  0  0  0  0  0  0  0  0  0
   37.0290   30.8210   38.8760 C   0  0  0  0  0  0  0  0  0  0  0  0
   37.5010   32.1150   38.6290 C   0  0  0  0  0  0  0  0  0  0  0  0
   37.9980   32.4750   37.7170 H   0  0  0  0  0  0  0  0  0  0  0  0
   37.2450   32.9080   39.7240 C   0  0  0  0  0  0  0  0  0  0  0  0
   37.5170   33.9650   39.7830 H   0  0  0  0  0  0  0  0  0  0  0  0
   36.6240   32.1030   40.6290 N   0  0  0  0  0  0  0  0  0  0  0  0
   36.3040   32.4330   41.5760 H   0  0  0  0  0  0  0  0  0  0  0  0
   36.5120   30.8840   40.1030 N   0  0  0  0  0  0  0  0  0  0  0  0
   36.1910   27.1520   40.0670 O   0  0  0  0  0  0  0  0  0  0  0  0
   36.8330   26.0430   40.5560 C   0  0  0  0  0  0  0  0  0  0  0  0
   37.5930   26.1910   41.7250 C   0  0  0  0  0  0  0  0  0  0  0  0
   38.2390   25.0320   42.2000 C   0  0  0  0  0  0  0  0  0  0  0  0
   38.0940   23.8590   41.5140 N   0  0  0  0  0  0  0  0  0  0  0  0
   37.3560   23.7880   40.4090 C   0  0  0  0  0  0  0  0  0  0  0  0
   36.7260   24.8660   39.9270 N   0  0  0  0  0  0  0  0  0  0  0  0
   38.8050   25.2070   43.0970 H   0  0  0  0  0  0  0  0  0  0  0  0
   37.2980   22.8100   39.9320 H   0  0  0  0  0  0  0  0  0  0  0  0
   37.6850   27.4790   42.3800 C   0  0  0  0  0  0  0  0  0  0  0  0
   38.6770   28.4080   42.0860 C   0  0  0  0  0  0  0  0  0  0  0  0
   38.3860   29.4620   42.9260 C   0  0  0  0  0  0  0  0  0  0  0  0
   37.2990   29.1950   43.6770 N   0  0  0  0  0  0  0  0  0  0  0  0
   36.8910   27.9880   43.3290 N   0  0  0  0  0  0  0  0  0  0  0  0
   39.5040   28.3550   41.3680 H   0  0  0  0  0  0  0  0  0  0  0  0
   38.9370   30.3840   42.9930 H   0  0  0  0  0  0  0  0  0  0  0  0
   36.8910   29.8640   44.3970 H   0  0  0  0  0  0  0  0  0  0  0  0
  1 26  1  0  0  0  0
  2  1  2  0  0  0  0
  3  1  1  0  0  0  0
  4  9  1  0  0  0  0
  4 10  1  0  0  0  0
  4  3  1  0  0  0  0
  5  4  1  0  0  0  0
  6 13  1  0  0  0  0
  6  5  1  0  0  0  0
  6  7  1  0  0  0  0
  7 15  1  0  0  0  0
  7  8  1  0  0  0  0
  8 17  1  1  0  0  0
  8  3  1  0  0  0  0
  8 18  1  0  0  0  0
 11  5  1  0  0  0  0
 12  5  1  0  0  0  0
 14  6  1  0  0  0  0
 16  7  1  0  0  0  0
 18 25  2  0  0  0  0
 19 18  1  0  0  0  0
 19 21  2  0  0  0  0
 20 19  1  0  0  0  0
 21 22  1  0  0  0  0
 21 23  1  0  0  0  0
 23 24  1  0  0  0  0
 25 23  1  0  0  0  0
 26 27  1  0  0  0  0
 27 28  1  0  0  0  0
 28 29  2  0  0  0  0
 28 35  1  0  0  0  0
 29 33  1  0  0  0  0
 30 29  1  0  0  0  0
 31 30  2  0  0  0  0
 32 31  1  0  0  0  0
 32 27  2  0  0  0  0
 34 31  1  0  0  0  0
 35 39  2  0  0  0  0
 36 35  1  0  0  0  0
 36 37  2  0  0  0  0
 37 41  1  0  0  0  0
 37 38  1  0  0  0  0
 38 42  1  0  0  0  0
 39 38  1  0  0  0  0
 40 36  1  0  0  0  0
M  END
>  <minimizedAffinity>
-6.23738194

$$$$

 OpenBabel03252508553D

 42 45  0  0  1  0  0  0  0  0999 V2000
   37.9230   26.3560   38.8790 C   0  0  0  0  0  0  0  0  0  0  0  0
   38.0080   25.2100   38.3540 O   0  0  0  0  0  0  0  0  0  0  0  0
   37.9940   25.9730   40.2810 N   0  0  0  0  0  0  0  0  0  0  0  0
   39.2010   25.2820   40.6670 C   0  0  0  0  0  0  0  0  0  0  0  0
   38.8150   23.8020   40.7070 C   0  0  0  0  0  0  0  0  0  0  0  0
   37.3810   23.7430   41.2230 C   0  0  0  0  0  0  0  0  0  0  0  0
   37.0790   24.8930   42.1570 C   0  0  0  0  0  0  0  0  0  0  0  0
   37.0080   26.1960   41.3440 C   0  0  1  0  0  0  0  0  0  0  0  0
   39.5650   25.6060   41.6600 H   0  0  0  0  0  0  0  0  0  0  0  0
   40.0320   25.3840   39.9440 H   0  0  0  0  0  0  0  0  0  0  0  0
   38.8680   23.3710   39.6810 H   0  0  0  0  0  0  0  0  0  0  0  0
   39.4330   23.2390   41.4280 H   0  0  0  0  0  0  0  0  0  0  0  0
   36.6960   23.7730   40.3310 H   0  0  0  0  0  0  0  0  0  0  0  0
   37.1990   22.7930   41.7910 H   0  0  0  0  0  0  0  0  0  0  0  0
   37.9930   24.9930   42.8080 H   0  0  0  0  0  0  0  0  0  0  0  0
   36.1610   24.6990   42.7020 H   0  0  0  0  0  0  0  0  0  0  0  0
   36.0040   26.2470   40.9250 H   0  0  0  0  0  0  0  0  0  0  0  0
   37.3050   27.3650   42.1770 C   0  0  0  0  0  0  0  0  0  0  0  0
   38.4470   28.1620   42.0450 C   0  0  0  0  0  0  0  0  0  0  0  0
   39.2630   28.0340   41.3200 H   0  0  0  0  0  0  0  0  0  0  0  0
   38.4090   29.1690   42.9810 C   0  0  0  0  0  0  0  0  0  0  0  0
   39.1870   29.9290   43.0860 H   0  0  0  0  0  0  0  0  0  0  0  0
   37.2530   28.9850   43.6770 N   0  0  0  0  0  0  0  0  0  0  0  0
   36.9470   29.6090   44.4680 H   0  0  0  0  0  0  0  0  0  0  0  0
   36.6270   27.9190   43.1830 N   0  0  0  0  0  0  0  0  0  0  0  0
   37.8020   27.5660   38.2670 O   0  0  0  0  0  0  0  0  0  0  0  0
   36.9280   27.8890   37.2610 C   0  0  0  0  0  0  0  0  0  0  0  0
   35.9340   28.8370   37.5390 C   0  0  0  0  0  0  0  0  0  0  0  0
   35.0530   29.1460   36.4820 C   0  0  0  0  0  0  0  0  0  0  0  0
   35.2100   28.5200   35.2780 N   0  0  0  0  0  0  0  0  0  0  0  0
   36.1770   27.6270   35.0810 C   0  0  0  0  0  0  0  0  0  0  0  0
   37.0340   27.3080   36.0580 N   0  0  0  0  0  0  0  0  0  0  0  0
   34.3140   29.8770   36.7550 H   0  0  0  0  0  0  0  0  0  0  0  0
   36.2250   27.1810   34.0880 H   0  0  0  0  0  0  0  0  0  0  0  0
   35.8490   29.4460   38.8500 C   0  0  0  0  0  0  0  0  0  0  0  0
   36.6020   30.5550   39.2190 C   0  0  0  0  0  0  0  0  0  0  0  0
   36.2100   30.7870   40.5210 C   0  0  0  0  0  0  0  0  0  0  0  0
   35.2880   29.8870   40.9160 N   0  0  0  0  0  0  0  0  0  0  0  0
   35.0840   29.0840   39.8860 N   0  0  0  0  0  0  0  0  0  0  0  0
   37.3370   31.1320   38.6460 H   0  0  0  0  0  0  0  0  0  0  0  0
   36.5760   31.5740   41.1570 H   0  0  0  0  0  0  0  0  0  0  0  0
   34.8420   29.8720   41.8810 H   0  0  0  0  0  0  0  0  0  0  0  0
  1  3  1  0  0  0  0
  2  1  2  0  0  0  0
  3  4  1  0  0  0  0
  3  8  1  0  0  0  0
  4  5  1  0  0  0  0
  4  9  1  0  0  0  0
  5  6  1  0  0  0  0
  5 12  1  0  0  0  0
  6 14  1  0  0  0  0
  6  7  1  0  0  0  0
  7 16  1  0  0  0  0
  7 15  1  0  0  0  0
  8 17  1  6  0  0  0
  8  7  1  0  0  0  0
  8 18  1  0  0  0  0
 10  4  1  0  0  0  0
 11  5  1  0  0  0  0
 13  6  1  0  0  0  0
 18 25  2  0  0  0  0
 19 18  1  0  0  0  0
 19 21  2  0  0  0  0
 20 19  1  0  0  0  0
 21 22  1  0  0  0  0
 21 23  1  0  0  0  0
 23 24  1  0  0  0  0
 25 23  1  0  0  0  0
 26  1  1  0  0  0  0
 27 28  1  0  0  0  0
 27 26  1  0  0  0  0
 28 35  1  0  0  0  0
 29 33  1  0  0  0  0
 29 28  2  0  0  0  0
 30 29  1  0  0  0  0
 31 30  2  0  0  0  0
 31 32  1  0  0  0  0
 32 27  2  0  0  0  0
 34 31  1  0  0  0  0
 35 36  1  0  0  0  0
 35 39  2  0  0  0  0
 36 37  2  0  0  0  0
 37 38  1  0  0  0  0
 37 41  1  0  0  0  0
 38 42  1  0  0  0  0
 39 38  1  0  0  0  0
 40 36  1  0  0  0  0
M  END
>  <minimizedAffinity>
-5.86981201

$$$$

 OpenBabel03252508553D

 42 45  0  0  1  0  0  0  0  0999 V2000
   36.2410   26.8780   39.1020 C   0  0  0  0  0  0  0  0  0  0  0  0
   36.1880   25.8120   38.4250 O   0  0  0  0  0  0  0  0  0  0  0  0
   37.1860   26.4540   40.1240 N   0  0  0  0  0  0  0  0  0  0  0  0
   38.4820   26.0540   39.6310 C   0  0  0  0  0  0  0  0  0  0  0  0
   38.4450   24.5240   39.6140 C   0  0  0  0  0  0  0  0  0  0  0  0
   37.6240   24.0980   40.8270 C   0  0  0  0  0  0  0  0  0  0  0  0
   37.7460   25.0950   41.9580 C   0  0  0  0  0  0  0  0  0  0  0  0
   36.9950   26.3820   41.5770 C   0  0  1  0  0  0  0  0  0  0  0  0
   39.3020   26.4060   40.2850 H   0  0  0  0  0  0  0  0  0  0  0  0
   38.6970   26.3870   38.5980 H   0  0  0  0  0  0  0  0  0  0  0  0
   37.9540   24.1700   38.6800 H   0  0  0  0  0  0  0  0  0  0  0  0
   39.4520   24.0910   39.7460 H   0  0  0  0  0  0  0  0  0  0  0  0
   36.5520   24.0080   40.4990 H   0  0  0  0  0  0  0  0  0  0  0  0
   37.9720   23.1050   41.2170 H   0  0  0  0  0  0  0  0  0  0  0  0
   38.8360   25.3780   41.9860 H   0  0  0  0  0  0  0  0  0  0  0  0
   37.3730   24.6600   42.8790 H   0  0  0  0  0  0  0  0  0  0  0  0
   35.9460   26.2110   41.8130 H   0  0  0  0  0  0  0  0  0  0  0  0
   37.5280   27.5450   42.2920 C   0  0  0  0  0  0  0  0  0  0  0  0
   38.7480   28.1640   42.0000 C   0  0  0  0  0  0  0  0  0  0  0  0
   39.4630   27.8790   41.2150 H   0  0  0  0  0  0  0  0  0  0  0  0
   38.9380   29.2200   42.8600 C   0  0  0  0  0  0  0  0  0  0  0  0
   39.8190   29.8680   42.8380 H   0  0  0  0  0  0  0  0  0  0  0  0
   37.8440   29.2430   43.6690 N   0  0  0  0  0  0  0  0  0  0  0  0
   37.7040   29.9500   44.4370 H   0  0  0  0  0  0  0  0  0  0  0  0
   37.0340   28.2470   43.3120 N   0  0  0  0  0  0  0  0  0  0  0  0
   35.5850   28.0520   38.8940 O   0  0  0  0  0  0  0  0  0  0  0  0
   36.0300   29.3060   39.2260 C   0  0  0  0  0  0  0  0  0  0  0  0
   36.7180   30.0350   38.2470 C   0  0  0  0  0  0  0  0  0  0  0  0
   37.1610   31.3210   38.6210 C   0  0  0  0  0  0  0  0  0  0  0  0
   36.9030   31.7730   39.8850 N   0  0  0  0  0  0  0  0  0  0  0  0
   36.2420   31.0270   40.7680 C   0  0  0  0  0  0  0  0  0  0  0  0
   35.8050   29.8030   40.4500 N   0  0  0  0  0  0  0  0  0  0  0  0
   37.6810   31.8300   37.8310 H   0  0  0  0  0  0  0  0  0  0  0  0
   36.0830   31.4730   41.7490 H   0  0  0  0  0  0  0  0  0  0  0  0
   36.9420   29.4670   36.9340 C   0  0  0  0  0  0  0  0  0  0  0  0
   36.0690   29.6550   35.8690 C   0  0  0  0  0  0  0  0  0  0  0  0
   36.6630   28.9530   34.8410 C   0  0  0  0  0  0  0  0  0  0  0  0
   37.8120   28.3800   35.2490 N   0  0  0  0  0  0  0  0  0  0  0  0
   37.9620   28.7050   36.5210 N   0  0  0  0  0  0  0  0  0  0  0  0
   35.1280   30.2170   35.8170 H   0  0  0  0  0  0  0  0  0  0  0  0
   36.2800   28.8600   33.8400 H   0  0  0  0  0  0  0  0  0  0  0  0
   38.4400   27.7900   34.6260 H   0  0  0  0  0  0  0  0  0  0  0  0
  1  3  1  0  0  0  0
  2  1  2  0  0  0  0
  3  8  1  0  0  0  0
  4  3  1  0  0  0  0
  4  9  1  0  0  0  0
  5  4  1  0  0  0  0
  5 12  1  0  0  0  0
  5  6  1  0  0  0  0
  6 14  1  0  0  0  0
  6  7  1  0  0  0  0
  7 15  1  0  0  0  0
  7 16  1  0  0  0  0
  8 17  1  1  0  0  0
  8  7  1  0  0  0  0
  8 18  1  0  0  0  0
 10  4  1  0  0  0  0
 11  5  1  0  0  0  0
 13  6  1  0  0  0  0
 18 25  2  0  0  0  0
 19 18  1  0  0  0  0
 19 21  2  0  0  0  0
 20 19  1  0  0  0  0
 21 23  1  0  0  0  0
 22 21  1  0  0  0  0
 23 24  1  0  0  0  0
 25 23  1  0  0  0  0
 26  1  1  0  0  0  0
 26 27  1  0  0  0  0
 27 32  1  0  0  0  0
 28 29  1  0  0  0  0
 28 27  2  0  0  0  0
 29 30  2  0  0  0  0
 30 31  1  0  0  0  0
 31 34  1  0  0  0  0
 32 31  2  0  0  0  0
 33 29  1  0  0  0  0
 35 28  1  0  0  0  0
 36 35  1  0  0  0  0
 37 38  1  0  0  0  0
 37 36  2  0  0  0  0
 38 39  1  0  0  0  0
 39 35  2  0  0  0  0
 40 36  1  0  0  0  0
 41 37  1  0  0  0  0
 42 38  1  0  0  0  0
M  END
>  <minimizedAffinity>
-5.86694479

$$$$

 OpenBabel03252508553D

 42 45  0  0  1  0  0  0  0  0999 V2000
   40.3420   30.1720   42.1330 C   0  0  0  0  0  0  0  0  0  0  0  0
   41.3680   29.5160   42.4710 O   0  0  0  0  0  0  0  0  0  0  0  0
   39.4000   29.0710   41.9970 N   0  0  0  0  0  0  0  0  0  0  0  0
   39.1860   28.2960   43.1960 C   0  0  0  0  0  0  0  0  0  0  0  0
   40.0460   27.0420   43.0170 C   0  0  0  0  0  0  0  0  0  0  0  0
   39.9900   26.6880   41.5350 C   0  0  0  0  0  0  0  0  0  0  0  0
   38.6800   27.1150   40.9090 C   0  0  0  0  0  0  0  0  0  0  0  0
   38.6470   28.6490   40.8110 C   0  0  1  0  0  0  0  0  0  0  0  0
   38.1240   28.0130   43.3230 H   0  0  0  0  0  0  0  0  0  0  0  0
   39.5240   28.7950   44.1240 H   0  0  0  0  0  0  0  0  0  0  0  0
   41.0950   27.2600   43.3160 H   0  0  0  0  0  0  0  0  0  0  0  0
   39.6260   26.1800   43.5630 H   0  0  0  0  0  0  0  0  0  0  0  0
   40.8510   27.2050   41.0280 H   0  0  0  0  0  0  0  0  0  0  0  0
   40.0880   25.5810   41.3830 H   0  0  0  0  0  0  0  0  0  0  0  0
   37.8910   26.8440   41.6660 H   0  0  0  0  0  0  0  0  0  0  0  0
   38.5560   26.6380   39.9430 H   0  0  0  0  0  0  0  0  0  0  0  0
   39.1890   28.9140   39.9040 H   0  0  0  0  0  0  0  0  0  0  0  0
   37.2710   29.1550   40.7850 C   0  0  0  0  0  0  0  0  0  0  0  0
   36.2180   28.5490   40.0910 C   0  0  0  0  0  0  0  0  0  0  0  0
   36.2660   27.6340   39.4840 H   0  0  0  0  0  0  0  0  0  0  0  0
   35.0690   29.2820   40.2800 C   0  0  0  0  0  0  0  0  0  0  0  0
   34.1030   29.0180   39.8420 H   0  0  0  0  0  0  0  0  0  0  0  0
   35.4210   30.3240   41.0810 N   0  0  0  0  0  0  0  0  0  0  0  0
   34.7440   31.0640   41.4020 H   0  0  0  0  0  0  0  0  0  0  0  0
   36.7200   30.2230   41.3610 N   0  0  0  0  0  0  0  0  0  0  0  0
   40.2080   31.5160   41.9620 O   0  0  0  0  0  0  0  0  0  0  0  0
   41.0580   32.3390   41.2700 C   0  0  0  0  0  0  0  0  0  0  0  0
   40.5270   33.0800   40.2050 C   0  0  0  0  0  0  0  0  0  0  0  0
   41.4280   33.9170   39.5150 C   0  0  0  0  0  0  0  0  0  0  0  0
   42.7350   33.9580   39.9110 N   0  0  0  0  0  0  0  0  0  0  0  0
   43.1750   33.2280   40.9330 C   0  0  0  0  0  0  0  0  0  0  0  0
   42.3510   32.4220   41.6130 N   0  0  0  0  0  0  0  0  0  0  0  0
   40.9640   34.4570   38.7110 H   0  0  0  0  0  0  0  0  0  0  0  0
   44.2330   33.3280   41.1760 H   0  0  0  0  0  0  0  0  0  0  0  0
   39.1250   32.9660   39.8620 C   0  0  0  0  0  0  0  0  0  0  0  0
   38.6670   32.2020   38.7950 C   0  0  0  0  0  0  0  0  0  0  0  0
   37.2990   32.3800   38.8390 C   0  0  0  0  0  0  0  0  0  0  0  0
   36.9510   33.1920   39.8550 N   0  0  0  0  0  0  0  0  0  0  0  0
   38.0740   33.5360   40.4630 N   0  0  0  0  0  0  0  0  0  0  0  0
   39.2220   31.5920   38.0720 H   0  0  0  0  0  0  0  0  0  0  0  0
   36.5860   31.9410   38.1630 H   0  0  0  0  0  0  0  0  0  0  0  0
   35.9500   33.4710   40.0820 H   0  0  0  0  0  0  0  0  0  0  0  0
  1  2  2  0  0  0  0
  3  1  1  0  0  0  0
  3  4  1  0  0  0  0
  4  9  1  0  0  0  0
  4 10  1  0  0  0  0
  5  4  1  0  0  0  0
  5 11  1  0  0  0  0
  5 12  1  0  0  0  0
  6  5  1  0  0  0  0
  7  6  1  0  0  0  0
  7 15  1  0  0  0  0
  8 17  1  6  0  0  0
  8  7  1  0  0  0  0
  8  3  1  0  0  0  0
 13  6  1  0  0  0  0
 14  6  1  0  0  0  0
 16  7  1  0  0  0  0
 18  8  1  0  0  0  0
 18 25  2  0  0  0  0
 19 21  2  0  0  0  0
 19 18  1  0  0  0  0
 20 19  1  0  0  0  0
 21 23  1  0  0  0  0
 22 21  1  0  0  0  0
 23 25  1  0  0  0  0
 23 24  1  0  0  0  0
 26  1  1  0  0  0  0
 27 32  1  0  0  0  0
 27 26  1  0  0  0  0
 28 27  2  0  0  0  0
 29 30  2  0  0  0  0
 29 28  1  0  0  0  0
 30 31  1  0  0  0  0
 31 34  1  0  0  0  0
 31 32  2  0  0  0  0
 33 29  1  0  0  0  0
 35 28  1  0  0  0  0
 35 39  2  0  0  0  0
 36 37  2  0  0  0  0
 36 35  1  0  0  0  0
 37 38  1  0  0  0  0
 38 42  1  0  0  0  0
 38 39  1  0  0  0  0
 40 36  1  0  0  0  0
 41 37  1  0  0  0  0
M  END
>  <minimizedAffinity>
-5.86653662

$$$$

 OpenBabel03252508553D

 42 45  0  0  1  0  0  0  0  0999 V2000
   37.0840   28.0430   40.8560 C   0  0  0  0  0  0  0  0  0  0  0  0
   36.7700   26.9080   40.3990 O   0  0  0  0  0  0  0  0  0  0  0  0
   36.6050   28.8720   39.7600 N   0  0  0  0  0  0  0  0  0  0  0  0
   35.1920   28.7630   39.4840 C   0  0  0  0  0  0  0  0  0  0  0  0
   35.0950   27.8290   38.2760 C   0  0  0  0  0  0  0  0  0  0  0  0
   36.2990   28.1370   37.3930 C   0  0  0  0  0  0  0  0  0  0  0  0
   36.7290   29.5810   37.5220 C   0  0  0  0  0  0  0  0  0  0  0  0
   37.3620   29.7950   38.9070 C   0  0  1  0  0  0  0  0  0  0  0  0
   34.7400   29.7440   39.2420 H   0  0  0  0  0  0  0  0  0  0  0  0
   34.6040   28.3040   40.3010 H   0  0  0  0  0  0  0  0  0  0  0  0
   35.1340   26.7690   38.6160 H   0  0  0  0  0  0  0  0  0  0  0  0
   34.1970   28.0400   37.6690 H   0  0  0  0  0  0  0  0  0  0  0  0
   37.1350   27.4510   37.7040 H   0  0  0  0  0  0  0  0  0  0  0  0
   36.0600   27.9540   36.3120 H   0  0  0  0  0  0  0  0  0  0  0  0
   35.7710   30.1740   37.5340 H   0  0  0  0  0  0  0  0  0  0  0  0
   37.4060   29.8420   36.7170 H   0  0  0  0  0  0  0  0  0  0  0  0
   38.3990   29.4730   38.8280 H   0  0  0  0  0  0  0  0  0  0  0  0
   37.2620   31.1950   39.3330 C   0  0  0  0  0  0  0  0  0  0  0  0
   37.4100   32.2930   38.4790 C   0  0  0  0  0  0  0  0  0  0  0  0
   37.6150   32.2700   37.4000 H   0  0  0  0  0  0  0  0  0  0  0  0
   37.2560   33.4530   39.2030 C   0  0  0  0  0  0  0  0  0  0  0  0
   37.3250   34.4530   38.7660 H   0  0  0  0  0  0  0  0  0  0  0  0
   37.0180   33.0630   40.4850 N   0  0  0  0  0  0  0  0  0  0  0  0
   36.8580   33.7380   41.2770 H   0  0  0  0  0  0  0  0  0  0  0  0
   37.0270   31.7310   40.5300 N   0  0  0  0  0  0  0  0  0  0  0  0
   37.6930   28.3490   42.0350 O   0  0  0  0  0  0  0  0  0  0  0  0
   38.7700   27.7060   42.5890 C   0  0  0  0  0  0  0  0  0  0  0  0
   39.9840   28.4040   42.6530 C   0  0  0  0  0  0  0  0  0  0  0  0
   41.0700   27.7140   43.2290 C   0  0  0  0  0  0  0  0  0  0  0  0
   40.8860   26.4370   43.6790 N   0  0  0  0  0  0  0  0  0  0  0  0
   39.7040   25.8320   43.5870 C   0  0  0  0  0  0  0  0  0  0  0  0
   38.6490   26.4540   43.0480 N   0  0  0  0  0  0  0  0  0  0  0  0
   41.9720   28.2980   43.2510 H   0  0  0  0  0  0  0  0  0  0  0  0
   39.6540   24.8150   43.9740 H   0  0  0  0  0  0  0  0  0  0  0  0
   40.0780   29.7570   42.1480 C   0  0  0  0  0  0  0  0  0  0  0  0
   40.6240   30.0650   40.9070 C   0  0  0  0  0  0  0  0  0  0  0  0
   40.5130   31.4380   40.8400 C   0  0  0  0  0  0  0  0  0  0  0  0
   39.9420   31.9310   41.9580 N   0  0  0  0  0  0  0  0  0  0  0  0
   39.6870   30.8940   42.7360 N   0  0  0  0  0  0  0  0  0  0  0  0
   41.0500   29.4070   40.1390 H   0  0  0  0  0  0  0  0  0  0  0  0
   40.8310   32.0560   40.0200 H   0  0  0  0  0  0  0  0  0  0  0  0
   39.7560   32.9640   42.1280 H   0  0  0  0  0  0  0  0  0  0  0  0
  1 26  1  0  0  0  0
  2  1  2  0  0  0  0
  3  1  1  0  0  0  0
  4  3  1  0  0  0  0
  4 10  1  0  0  0  0
  5 11  1  0  0  0  0
  5  4  1  0  0  0  0
  6  7  1  0  0  0  0
  6 13  1  0  0  0  0
  6  5  1  0  0  0  0
  7 15  1  0  0  0  0
  7  8  1  0  0  0  0
  8 17  1  6  0  0  0
  8 18  1  0  0  0  0
  8  3  1  0  0  0  0
  9  4  1  0  0  0  0
 12  5  1  0  0  0  0
 14  6  1  0  0  0  0
 16  7  1  0  0  0  0
 18 25  2  0  0  0  0
 19 21  2  0  0  0  0
 19 18  1  0  0  0  0
 20 19  1  0  0  0  0
 21 23  1  0  0  0  0
 22 21  1  0  0  0  0
 23 25  1  0  0  0  0
 23 24  1  0  0  0  0
 26 27  1  0  0  0  0
 27 28  2  0  0  0  0
 27 32  1  0  0  0  0
 28 29  1  0  0  0  0
 29 33  1  0  0  0  0
 29 30  2  0  0  0  0
 31 30  1  0  0  0  0
 31 34  1  0  0  0  0
 32 31  2  0  0  0  0
 35 28  1  0  0  0  0
 35 39  2  0  0  0  0
 36 35  1  0  0  0  0
 37 36  2  0  0  0  0
 37 38  1  0  0  0  0
 38 42  1  0  0  0  0
 38 39  1  0  0  0  0
 40 36  1  0  0  0  0
 41 37  1  0  0  0  0
M  END
>  <minimizedAffinity>
-5.79138279

$$$$

 OpenBabel03252508553D

 42 45  0  0  1  0  0  0  0  0999 V2000
   36.2960   29.5560   40.4590 C   0  0  0  0  0  0  0  0  0  0  0  0
   35.3640   28.7070   40.5460 O   0  0  0  0  0  0  0  0  0  0  0  0
   37.2480   28.9470   41.3750 N   0  0  0  0  0  0  0  0  0  0  0  0
   37.6820   27.6190   41.0130 C   0  0  0  0  0  0  0  0  0  0  0  0
   36.8580   26.6780   41.8950 C   0  0  0  0  0  0  0  0  0  0  0  0
   36.6920   27.3800   43.2380 C   0  0  0  0  0  0  0  0  0  0  0  0
   37.8660   28.2820   43.5430 C   0  0  0  0  0  0  0  0  0  0  0  0
   37.8210   29.5010   42.6070 C   0  0  1  0  0  0  0  0  0  0  0  0
   38.7610   27.4680   41.2030 H   0  0  0  0  0  0  0  0  0  0  0  0
   37.4750   27.3460   39.9610 H   0  0  0  0  0  0  0  0  0  0  0  0
   35.8610   26.5050   41.4300 H   0  0  0  0  0  0  0  0  0  0  0  0
   37.3940   25.7340   42.0960 H   0  0  0  0  0  0  0  0  0  0  0  0
   35.7400   27.9790   43.1950 H   0  0  0  0  0  0  0  0  0  0  0  0
   36.6170   26.6340   44.0730 H   0  0  0  0  0  0  0  0  0  0  0  0
   38.7770   27.6970   43.2310 H   0  0  0  0  0  0  0  0  0  0  0  0
   37.8550   28.5680   44.5890 H   0  0  0  0  0  0  0  0  0  0  0  0
   37.1310   30.2140   43.0580 H   0  0  0  0  0  0  0  0  0  0  0  0
   39.1520   30.0840   42.4190 C   0  0  0  0  0  0  0  0  0  0  0  0
   40.0950   29.6230   41.4940 C   0  0  0  0  0  0  0  0  0  0  0  0
   39.9790   28.7830   40.7940 H   0  0  0  0  0  0  0  0  0  0  0  0
   41.2310   30.3930   41.5810 C   0  0  0  0  0  0  0  0  0  0  0  0
   42.1190   30.2370   40.9620 H   0  0  0  0  0  0  0  0  0  0  0  0
   40.9820   31.3150   42.5520 N   0  0  0  0  0  0  0  0  0  0  0  0
   41.6750   32.0500   42.8460 H   0  0  0  0  0  0  0  0  0  0  0  0
   39.7540   31.1080   43.0250 N   0  0  0  0  0  0  0  0  0  0  0  0
   36.3450   30.6930   39.7120 O   0  0  0  0  0  0  0  0  0  0  0  0
   37.3940   31.5730   39.6320 C   0  0  0  0  0  0  0  0  0  0  0  0
   38.3370   31.3740   38.6140 C   0  0  0  0  0  0  0  0  0  0  0  0
   39.4010   32.2970   38.5600 C   0  0  0  0  0  0  0  0  0  0  0  0
   39.4550   33.3070   39.4790 N   0  0  0  0  0  0  0  0  0  0  0  0
   38.5250   33.4390   40.4210 C   0  0  0  0  0  0  0  0  0  0  0  0
   37.4980   32.5840   40.5050 N   0  0  0  0  0  0  0  0  0  0  0  0
   40.0910   32.0930   37.7620 H   0  0  0  0  0  0  0  0  0  0  0  0
   38.6510   34.2760   41.1080 H   0  0  0  0  0  0  0  0  0  0  0  0
   38.1920   30.2710   37.6870 C   0  0  0  0  0  0  0  0  0  0  0  0
   38.9380   29.1020   37.7810 C   0  0  0  0  0  0  0  0  0  0  0  0
   38.4820   28.3470   36.7200 C   0  0  0  0  0  0  0  0  0  0  0  0
   37.5310   29.0080   36.0310 N   0  0  0  0  0  0  0  0  0  0  0  0
   37.3710   30.1720   36.6360 N   0  0  0  0  0  0  0  0  0  0  0  0
   39.7080   28.8110   38.5050 H   0  0  0  0  0  0  0  0  0  0  0  0
   38.8240   27.3620   36.4560 H   0  0  0  0  0  0  0  0  0  0  0  0
   37.0360   28.6200   35.1730 H   0  0  0  0  0  0  0  0  0  0  0  0
  1  2  2  0  0  0  0
  1  3  1  0  0  0  0
  3  8  1  0  0  0  0
  4  9  1  0  0  0  0
  4  3  1  0  0  0  0
  4  5  1  0  0  0  0
  5 12  1  0  0  0  0
  5  6  1  0  0  0  0
  6  7  1  0  0  0  0
  6 14  1  0  0  0  0
  7 16  1  0  0  0  0
  8 17  1  1  0  0  0
  8  7  1  0  0  0  0
 10  4  1  0  0  0  0
 11  5  1  0  0  0  0
 13  6  1  0  0  0  0
 15  7  1  0  0  0  0
 18  8  1  0  0  0  0
 18 25  2  0  0  0  0
 19 21  2  0  0  0  0
 19 18  1  0  0  0  0
 20 19  1  0  0  0  0
 21 23  1  0  0  0  0
 22 21  1  0  0  0  0
 23 24  1  0  0  0  0
 23 25  1  0  0  0  0
 26  1  1  0  0  0  0
 27 26  1  0  0  0  0
 27 32  1  0  0  0  0
 28 27  2  0  0  0  0
 29 28  1  0  0  0  0
 29 30  2  0  0  0  0
 30 31  1  0  0  0  0
 31 32  2  0  0  0  0
 31 34  1  0  0  0  0
 33 29  1  0  0  0  0
 35 36  1  0  0  0  0
 35 28  1  0  0  0  0
 36 40  1  0  0  0  0
 37 36  2  0  0  0  0
 38 39  1  0  0  0  0
 38 37  1  0  0  0  0
 39 35  2  0  0  0  0
 41 37  1  0  0  0  0
 42 38  1  0  0  0  0
M  END
>  <minimizedAffinity>
-5.78491783

$$$$

 OpenBabel03252508553D

 42 45  0  0  1  0  0  0  0  0999 V2000
   40.5940   29.7540   40.2460 C   0  0  0  0  0  0  0  0  0  0  0  0
   41.8300   29.6910   39.9910 O   0  0  0  0  0  0  0  0  0  0  0  0
   40.5810   29.0230   41.5040 N   0  0  0  0  0  0  0  0  0  0  0  0
   41.3880   29.5990   42.5540 C   0  0  0  0  0  0  0  0  0  0  0  0
   42.6770   28.7740   42.5620 C   0  0  0  0  0  0  0  0  0  0  0  0
   42.2740   27.3400   42.2370 C   0  0  0  0  0  0  0  0  0  0  0  0
   40.8740   27.0330   42.7190 C   0  0  0  0  0  0  0  0  0  0  0  0
   39.8630   27.7900   41.8420 C   0  0  1  0  0  0  0  0  0  0  0  0
   40.8910   29.5360   43.5410 H   0  0  0  0  0  0  0  0  0  0  0  0
   41.6740   30.6530   42.3790 H   0  0  0  0  0  0  0  0  0  0  0  0
   43.3740   29.1590   41.7830 H   0  0  0  0  0  0  0  0  0  0  0  0
   43.1400   28.7530   43.5640 H   0  0  0  0  0  0  0  0  0  0  0  0
   42.3400   27.2110   41.1220 H   0  0  0  0  0  0  0  0  0  0  0  0
   42.9660   26.6080   42.7320 H   0  0  0  0  0  0  0  0  0  0  0  0
   40.8020   27.5060   43.7390 H   0  0  0  0  0  0  0  0  0  0  0  0
   40.7030   25.9620   42.7100 H   0  0  0  0  0  0  0  0  0  0  0  0
   39.7100   27.1840   40.9500 H   0  0  0  0  0  0  0  0  0  0  0  0
   38.6050   28.0270   42.5560 C   0  0  0  0  0  0  0  0  0  0  0  0
   37.6210   27.0550   42.7690 C   0  0  0  0  0  0  0  0  0  0  0  0
   37.6470   26.0050   42.4450 H   0  0  0  0  0  0  0  0  0  0  0  0
   36.5770   27.6130   43.4700 C   0  0  0  0  0  0  0  0  0  0  0  0
   35.6800   27.0600   43.7640 H   0  0  0  0  0  0  0  0  0  0  0  0
   36.9220   28.9120   43.6800 N   0  0  0  0  0  0  0  0  0  0  0  0
   36.3130   29.5990   44.1950 H   0  0  0  0  0  0  0  0  0  0  0  0
   38.1180   29.1260   43.1310 N   0  0  0  0  0  0  0  0  0  0  0  0
   39.6040   30.3450   39.5210 O   0  0  0  0  0  0  0  0  0  0  0  0
   39.0780   31.5950   39.7260 C   0  0  0  0  0  0  0  0  0  0  0  0
   37.8470   31.8900   39.1240 C   0  0  0  0  0  0  0  0  0  0  0  0
   37.3330   33.1830   39.3550 C   0  0  0  0  0  0  0  0  0  0  0  0
   38.0450   34.0540   40.1300 N   0  0  0  0  0  0  0  0  0  0  0  0
   39.2110   33.7080   40.6730 C   0  0  0  0  0  0  0  0  0  0  0  0
   39.7300   32.4910   40.4780 N   0  0  0  0  0  0  0  0  0  0  0  0
   36.3900   33.3510   38.8690 H   0  0  0  0  0  0  0  0  0  0  0  0
   39.7050   34.4690   41.2760 H   0  0  0  0  0  0  0  0  0  0  0  0
   37.1680   30.8970   38.3180 C   0  0  0  0  0  0  0  0  0  0  0  0
   36.1990   30.0420   38.8290 C   0  0  0  0  0  0  0  0  0  0  0  0
   35.8340   29.2840   37.7350 C   0  0  0  0  0  0  0  0  0  0  0  0
   36.5300   29.6490   36.6410 N   0  0  0  0  0  0  0  0  0  0  0  0
   37.3320   30.6290   37.0170 N   0  0  0  0  0  0  0  0  0  0  0  0
   35.7950   29.9580   39.8440 H   0  0  0  0  0  0  0  0  0  0  0  0
   35.0970   28.5000   37.7310 H   0  0  0  0  0  0  0  0  0  0  0  0
   36.4150   29.2020   35.6830 H   0  0  0  0  0  0  0  0  0  0  0  0
  1  3  1  0  0  0  0
  2  1  2  0  0  0  0
  3  8  1  0  0  0  0
  3  4  1  0  0  0  0
  4  5  1  0  0  0  0
  4  9  1  0  0  0  0
  5 12  1  0  0  0  0
  6  5  1  0  0  0  0
  6  7  1  0  0  0  0
  6 14  1  0  0  0  0
  7 15  1  0  0  0  0
  8 17  1  6  0  0  0
  8 18  1  0  0  0  0
  8  7  1  0  0  0  0
 10  4  1  0  0  0  0
 11  5  1  0  0  0  0
 13  6  1  0  0  0  0
 16  7  1  0  0  0  0
 18 19  1  0  0  0  0
 18 25  2  0  0  0  0
 19 21  2  0  0  0  0
 20 19  1  0  0  0  0
 21 23  1  0  0  0  0
 21 22  1  0  0  0  0
 23 24  1  0  0  0  0
 25 23  1  0  0  0  0
 26 27  1  0  0  0  0
 26  1  1  0  0  0  0
 27 32  1  0  0  0  0
 28 29  1  0  0  0  0
 28 27  2  0  0  0  0
 29 30  2  0  0  0  0
 30 31  1  0  0  0  0
 31 34  1  0  0  0  0
 32 31  2  0  0  0  0
 33 29  1  0  0  0  0
 35 36  1  0  0  0  0
 35 28  1  0  0  0  0
 36 40  1  0  0  0  0
 37 36  2  0  0  0  0
 38 39  1  0  0  0  0
 38 37  1  0  0  0  0
 39 35  2  0  0  0  0
 41 37  1  0  0  0  0
 42 38  1  0  0  0  0
M  END
>  <minimizedAffinity>
-5.6406765

$$$$

 OpenBabel03252508553D

 42 45  0  0  1  0  0  0  0  0999 V2000
   37.6640   26.2870   38.7980 C   0  0  0  0  0  0  0  0  0  0  0  0
   37.8870   25.1320   38.3380 O   0  0  0  0  0  0  0  0  0  0  0  0
   37.8320   26.0060   40.2160 N   0  0  0  0  0  0  0  0  0  0  0  0
   39.1350   25.5100   40.5910 C   0  0  0  0  0  0  0  0  0  0  0  0
   38.9570   23.9960   40.7320 C   0  0  0  0  0  0  0  0  0  0  0  0
   37.5630   23.7780   41.3100 C   0  0  0  0  0  0  0  0  0  0  0  0
   37.1370   24.9330   42.1880 C   0  0  0  0  0  0  0  0  0  0  0  0
   36.8610   26.1610   41.3050 C   0  0  1  0  0  0  0  0  0  0  0  0
   39.4850   25.9420   41.5480 H   0  0  0  0  0  0  0  0  0  0  0  0
   39.9200   25.6770   39.8290 H   0  0  0  0  0  0  0  0  0  0  0  0
   39.0340   23.5130   39.7320 H   0  0  0  0  0  0  0  0  0  0  0  0
   39.6700   23.5690   41.4590 H   0  0  0  0  0  0  0  0  0  0  0  0
   36.8500   23.6600   40.4480 H   0  0  0  0  0  0  0  0  0  0  0  0
   37.5310   22.8490   41.9400 H   0  0  0  0  0  0  0  0  0  0  0  0
   38.0500   25.1960   42.7930 H   0  0  0  0  0  0  0  0  0  0  0  0
   36.2730   24.6520   42.7810 H   0  0  0  0  0  0  0  0  0  0  0  0
   35.8470   26.0500   40.9250 H   0  0  0  0  0  0  0  0  0  0  0  0
   37.0230   27.4100   42.0560 C   0  0  0  0  0  0  0  0  0  0  0  0
   37.7540   27.5310   43.2420 C   0  0  0  0  0  0  0  0  0  0  0  0
   38.2990   26.7330   43.7670 H   0  0  0  0  0  0  0  0  0  0  0  0
   37.7000   28.8340   43.6780 C   0  0  0  0  0  0  0  0  0  0  0  0
   38.1920   29.1910   44.5870 H   0  0  0  0  0  0  0  0  0  0  0  0
   36.9400   29.5000   42.7650 N   0  0  0  0  0  0  0  0  0  0  0  0
   36.7190   30.5270   42.8320 H   0  0  0  0  0  0  0  0  0  0  0  0
   36.5570   28.6370   41.8250 N   0  0  0  0  0  0  0  0  0  0  0  0
   37.3580   27.4290   38.1230 O   0  0  0  0  0  0  0  0  0  0  0  0
   37.5890   28.7140   38.5430 C   0  0  0  0  0  0  0  0  0  0  0  0
   36.5340   29.6310   38.4480 C   0  0  0  0  0  0  0  0  0  0  0  0
   36.8050   30.9420   38.8900 C   0  0  0  0  0  0  0  0  0  0  0  0
   38.0480   31.2400   39.3720 N   0  0  0  0  0  0  0  0  0  0  0  0
   39.0070   30.3190   39.4340 C   0  0  0  0  0  0  0  0  0  0  0  0
   38.7890   29.0630   39.0260 N   0  0  0  0  0  0  0  0  0  0  0  0
   35.9600   31.5990   38.7920 H   0  0  0  0  0  0  0  0  0  0  0  0
   39.9660   30.6490   39.8340 H   0  0  0  0  0  0  0  0  0  0  0  0
   35.2500   29.2180   37.9220 C   0  0  0  0  0  0  0  0  0  0  0  0
   34.9460   29.2400   36.5660 C   0  0  0  0  0  0  0  0  0  0  0  0
   33.6470   28.7750   36.5220 C   0  0  0  0  0  0  0  0  0  0  0  0
   33.1940   28.4930   37.7590 N   0  0  0  0  0  0  0  0  0  0  0  0
   34.1830   28.7680   38.5920 N   0  0  0  0  0  0  0  0  0  0  0  0
   35.5590   29.5440   35.7090 H   0  0  0  0  0  0  0  0  0  0  0  0
   33.0550   28.6480   35.6340 H   0  0  0  0  0  0  0  0  0  0  0  0
   32.2200   28.1210   37.9680 H   0  0  0  0  0  0  0  0  0  0  0  0
  1  3  1  0  0  0  0
  2  1  2  0  0  0  0
  3  4  1  0  0  0  0
  3  8  1  0  0  0  0
  4  5  1  0  0  0  0
  4  9  1  0  0  0  0
  5  6  1  0  0  0  0
  5 12  1  0  0  0  0
  6 14  1  0  0  0  0
  6  7  1  0  0  0  0
  7 16  1  0  0  0  0
  7 15  1  0  0  0  0
  8 17  1  6  0  0  0
  8 18  1  0  0  0  0
  8  7  1  0  0  0  0
 10  4  1  0  0  0  0
 11  5  1  0  0  0  0
 13  6  1  0  0  0  0
 18 19  1  0  0  0  0
 19 21  2  0  0  0  0
 19 20  1  0  0  0  0
 21 22  1  0  0  0  0
 23 24  1  0  0  0  0
 23 21  1  0  0  0  0
 25 18  2  0  0  0  0
 25 23  1  0  0  0  0
 26 27  1  0  0  0  0
 26  1  1  0  0  0  0
 27 32  1  0  0  0  0
 28 27  2  0  0  0  0
 28 29  1  0  0  0  0
 29 30  2  0  0  0  0
 30 31  1  0  0  0  0
 31 34  1  0  0  0  0
 32 31  2  0  0  0  0
 33 29  1  0  0  0  0
 35 28  1  0  0  0  0
 35 39  2  0  0  0  0
 36 35  1  0  0  0  0
 37 36  2  0  0  0  0
 37 38  1  0  0  0  0
 38 42  1  0  0  0  0
 38 39  1  0  0  0  0
 40 36  1  0  0  0  0
 41 37  1  0  0  0  0
M  END
>  <minimizedAffinity>
-5.63996506

$$$$

 OpenBabel03252508553D

 42 45  0  0  1  0  0  0  0  0999 V2000
   39.5720   30.0370   40.4660 C   0  0  0  0  0  0  0  0  0  0  0  0
   39.7810   30.9880   41.2720 O   0  0  0  0  0  0  0  0  0  0  0  0
   38.9960   30.7910   39.3640 N   0  0  0  0  0  0  0  0  0  0  0  0
   39.8550   31.8070   38.8020 C   0  0  0  0  0  0  0  0  0  0  0  0
   39.3680   33.1220   39.4160 C   0  0  0  0  0  0  0  0  0  0  0  0
   37.8540   33.0050   39.5430 C   0  0  0  0  0  0  0  0  0  0  0  0
   37.2720   32.1150   38.4680 C   0  0  0  0  0  0  0  0  0  0  0  0
   37.6680   30.6570   38.7540 C   0  0  1  0  0  0  0  0  0  0  0  0
   39.7780   31.8510   37.6990 H   0  0  0  0  0  0  0  0  0  0  0  0
   40.9220   31.6950   39.0700 H   0  0  0  0  0  0  0  0  0  0  0  0
   39.8250   33.2590   40.4220 H   0  0  0  0  0  0  0  0  0  0  0  0
   39.5640   33.9790   38.7480 H   0  0  0  0  0  0  0  0  0  0  0  0
   37.6280   32.5860   40.5620 H   0  0  0  0  0  0  0  0  0  0  0  0
   37.3650   34.0110   39.4450 H   0  0  0  0  0  0  0  0  0  0  0  0
   37.8190   32.3960   37.5240 H   0  0  0  0  0  0  0  0  0  0  0  0
   36.1960   32.2450   38.4170 H   0  0  0  0  0  0  0  0  0  0  0  0
   36.9540   30.2770   39.4820 H   0  0  0  0  0  0  0  0  0  0  0  0
   37.6700   29.8510   37.5290 C   0  0  0  0  0  0  0  0  0  0  0  0
   36.6540   29.8700   36.5680 C   0  0  0  0  0  0  0  0  0  0  0  0
   35.7350   30.4730   36.5880 H   0  0  0  0  0  0  0  0  0  0  0  0
   36.9730   28.9990   35.5520 C   0  0  0  0  0  0  0  0  0  0  0  0
   36.3400   28.8290   34.6770 H   0  0  0  0  0  0  0  0  0  0  0  0
   38.1730   28.4540   35.8940 N   0  0  0  0  0  0  0  0  0  0  0  0
   38.6770   27.7430   35.3030 H   0  0  0  0  0  0  0  0  0  0  0  0
   38.5560   28.9740   37.0590 N   0  0  0  0  0  0  0  0  0  0  0  0
   39.8290   28.7100   40.6310 O   0  0  0  0  0  0  0  0  0  0  0  0
   40.6960   28.1520   41.5350 C   0  0  0  0  0  0  0  0  0  0  0  0
   40.1760   27.7430   42.7700 C   0  0  0  0  0  0  0  0  0  0  0  0
   41.0940   27.1720   43.6760 C   0  0  0  0  0  0  0  0  0  0  0  0
   42.4050   27.0540   43.3100 N   0  0  0  0  0  0  0  0  0  0  0  0
   42.8340   27.4640   42.1180 C   0  0  0  0  0  0  0  0  0  0  0  0
   41.9930   28.0090   41.2310 N   0  0  0  0  0  0  0  0  0  0  0  0
   40.6390   26.8790   44.6040 H   0  0  0  0  0  0  0  0  0  0  0  0
   43.8960   27.3280   41.9160 H   0  0  0  0  0  0  0  0  0  0  0  0
   38.7680   27.9110   43.0650 C   0  0  0  0  0  0  0  0  0  0  0  0
   37.8300   26.9030   42.8760 C   0  0  0  0  0  0  0  0  0  0  0  0
   36.6470   27.4890   43.2760 C   0  0  0  0  0  0  0  0  0  0  0  0
   36.8490   28.7590   43.6770 N   0  0  0  0  0  0  0  0  0  0  0  0
   38.1430   28.9940   43.5420 N   0  0  0  0  0  0  0  0  0  0  0  0
   37.9580   25.8800   42.5030 H   0  0  0  0  0  0  0  0  0  0  0  0
   35.6800   27.0180   43.2750 H   0  0  0  0  0  0  0  0  0  0  0  0
   36.0800   29.4050   44.0280 H   0  0  0  0  0  0  0  0  0  0  0  0
  1 26  1  0  0  0  0
  1  2  2  0  0  0  0
  3  1  1  0  0  0  0
  4 10  1  0  0  0  0
  4  3  1  0  0  0  0
  4  5  1  0  0  0  0
  5  6  1  0  0  0  0
  5 11  1  0  0  0  0
  6 13  1  0  0  0  0
  7  8  1  0  0  0  0
  7  6  1  0  0  0  0
  8  3  1  0  0  0  0
  8 17  1  1  0  0  0
  9  4  1  0  0  0  0
 12  5  1  0  0  0  0
 14  6  1  0  0  0  0
 15  7  1  0  0  0  0
 16  7  1  0  0  0  0
 18  8  1  0  0  0  0
 19 20  1  0  0  0  0
 19 18  1  0  0  0  0
 21 23  1  0  0  0  0
 21 19  2  0  0  0  0
 22 21  1  0  0  0  0
 23 25  1  0  0  0  0
 24 23  1  0  0  0  0
 25 18  2  0  0  0  0
 26 27  1  0  0  0  0
 27 28  1  0  0  0  0
 28 35  1  0  0  0  0
 28 29  2  0  0  0  0
 29 33  1  0  0  0  0
 30 29  1  0  0  0  0
 31 30  2  0  0  0  0
 32 27  2  0  0  0  0
 32 31  1  0  0  0  0
 34 31  1  0  0  0  0
 35 39  2  0  0  0  0
 36 35  1  0  0  0  0
 36 37  2  0  0  0  0
 37 38  1  0  0  0  0
 38 42  1  0  0  0  0
 39 38  1  0  0  0  0
 40 36  1  0  0  0  0
 41 37  1  0  0  0  0
M  END
>  <minimizedAffinity>
-5.62780952

$$$$
