
 OpenBabel03252506073D

 29 31  0  0  0  0  0  0  0  0999 V2000
   45.1490   33.3450   41.0500 F   0  0  0  0  0  0  0  0  0  0  0  0
   46.3240   33.9650   40.8930 C   0  0  0  0  0  0  0  0  0  0  0  0
   46.8360   34.7390   41.9140 C   0  0  0  0  0  0  0  0  0  0  0  0
   48.0450   35.4080   41.8180 C   0  0  0  0  0  0  0  0  0  0  0  0
   48.7900   35.3040   40.6400 C   0  0  0  0  0  0  0  0  0  0  0  0
   48.2390   34.5180   39.6430 C   0  0  0  0  0  0  0  0  0  0  0  0
   47.0420   33.8520   39.7290 C   0  0  0  0  0  0  0  0  0  0  0  0
   48.4200   36.0140   42.6500 H   0  0  0  0  0  0  0  0  0  0  0  0
   49.7350   35.8110   40.5320 H   0  0  0  0  0  0  0  0  0  0  0  0
   48.8500   34.4650   38.7500 H   0  0  0  0  0  0  0  0  0  0  0  0
   45.4720   34.0380   45.2550 C   0  0  0  0  0  0  0  0  0  0  0  0
   44.6630   35.1720   45.4890 C   0  0  0  0  0  0  0  0  0  0  0  0
   44.5930   36.1720   44.4960 C   0  0  0  0  0  0  0  0  0  0  0  0
   45.3250   35.9590   43.3650 N   0  0  0  0  0  0  0  0  0  0  0  0
   46.0800   34.8750   43.1730 C   0  0  0  0  0  0  0  0  0  0  0  0
   46.1460   33.9290   44.1150 N   0  0  0  0  0  0  0  0  0  0  0  0
   44.1030   35.2890   46.4060 H   0  0  0  0  0  0  0  0  0  0  0  0
   43.9910   37.0500   44.6310 H   0  0  0  0  0  0  0  0  0  0  0  0
   45.5400   33.0360   46.2570 N   0  0  0  0  0  0  0  0  0  0  0  0
   44.8150   32.3630   46.6100 H   0  0  0  0  0  0  0  0  0  0  0  0
   46.5350   33.0800   46.6240 H   0  0  0  0  0  0  0  0  0  0  0  0
   46.5920   33.0680   38.6090 C   0  0  0  0  0  0  0  0  0  0  0  0
   46.1120   31.7920   38.5090 C   0  0  0  0  0  0  0  0  0  0  0  0
   45.9910   31.1220   39.3440 H   0  0  0  0  0  0  0  0  0  0  0  0
   45.8040   31.4690   37.2160 C   0  0  0  0  0  0  0  0  0  0  0  0
   45.4050   30.5410   36.8080 H   0  0  0  0  0  0  0  0  0  0  0  0
   46.1130   32.5990   36.5210 N   0  0  0  0  0  0  0  0  0  0  0  0
   45.9840   32.6690   35.4810 H   0  0  0  0  0  0  0  0  0  0  0  0
   46.5710   33.5280   37.3370 N   0  0  0  0  0  0  0  0  0  0  0  0
  2  1  1  0  0  0  0
  2  3  1  0  0  0  0
  3 15  1  0  0  0  0
  4  3  2  0  0  0  0
  4  8  1  0  0  0  0
  5  4  1  0  0  0  0
  6  7  1  0  0  0  0
  6  5  2  0  0  0  0
  7  2  2  0  0  0  0
  9  5  1  0  0  0  0
 10  6  1  0  0  0  0
 11 12  1  0  0  0  0
 11 19  1  0  0  0  0
 12 17  1  0  0  0  0
 13 18  1  0  0  0  0
 13 12  2  0  0  0  0
 14 13  1  0  0  0  0
 15 14  2  0  0  0  0
 15 16  1  0  0  0  0
 16 11  2  0  0  0  0
 19 20  1  0  0  0  0
 19 21  1  0  0  0  0
 22  7  1  0  0  0  0
 23 22  1  0  0  0  0
 23 24  1  0  0  0  0
 25 23  2  0  0  0  0
 26 25  1  0  0  0  0
 27 25  1  0  0  0  0
 27 29  1  0  0  0  0
 28 27  1  0  0  0  0
 29 22  2  0  0  0  0
M  END
>  <minimizedAffinity>
-5.8564167

>  <minimizedRMSD>
0.318863392

$$$$
