
 OpenBabel03252507243D

 26 28  0  0  0  0  0  0  0  0999 V2000
   45.6570   34.0040   45.5150 C   0  0  0  0  0  0  0  0  0  0  0  0
   44.7050   35.0030   45.7340 C   0  0  0  0  0  0  0  0  0  0  0  0
   44.4660   35.8990   44.6930 C   0  0  0  0  0  0  0  0  0  0  0  0
   45.1580   35.7730   43.5130 N   0  0  0  0  0  0  0  0  0  0  0  0
   46.0690   34.7820   43.3640 C   0  0  0  0  0  0  0  0  0  0  0  0
   46.3160   33.9180   44.3370 N   0  0  0  0  0  0  0  0  0  0  0  0
   44.2010   35.0400   46.6880 H   0  0  0  0  0  0  0  0  0  0  0  0
   43.7340   36.6820   44.8360 H   0  0  0  0  0  0  0  0  0  0  0  0
   46.7850   34.6790   42.0940 C   0  0  0  0  0  0  0  0  0  0  0  0
   47.9800   35.3450   41.9080 C   0  0  0  0  0  0  0  0  0  0  0  0
   48.7220   35.3030   40.7400 C   0  0  0  0  0  0  0  0  0  0  0  0
   48.1670   34.5230   39.7330 C   0  0  0  0  0  0  0  0  0  0  0  0
   46.9670   33.8490   39.9040 C   0  0  0  0  0  0  0  0  0  0  0  0
   46.2850   33.9340   41.0860 N   0  0  0  0  0  0  0  0  0  0  0  0
   48.3390   35.9350   42.7600 H   0  0  0  0  0  0  0  0  0  0  0  0
   49.6580   35.8400   40.6330 H   0  0  0  0  0  0  0  0  0  0  0  0
   48.7070   34.4580   38.7990 H   0  0  0  0  0  0  0  0  0  0  0  0
   46.6010   33.2620   39.0680 H   0  0  0  0  0  0  0  0  0  0  0  0
   46.0070   33.0010   46.5180 C   0  0  0  0  0  0  0  0  0  0  0  0
   45.2780   32.7930   47.6730 C   0  0  0  0  0  0  0  0  0  0  0  0
   44.3820   33.3030   48.0100 H   0  0  0  0  0  0  0  0  0  0  0  0
   45.8680   31.7680   48.4230 C   0  0  0  0  0  0  0  0  0  0  0  0
   45.6190   31.3090   49.3640 H   0  0  0  0  0  0  0  0  0  0  0  0
   46.9350   31.4270   47.6450 N   0  0  0  0  0  0  0  0  0  0  0  0
   47.6580   30.6860   47.8380 H   0  0  0  0  0  0  0  0  0  0  0  0
   47.0370   32.1220   46.5430 N   0  0  0  0  0  0  0  0  0  0  0  0
  1  2  1  0  0  0  0
  1 19  1  0  0  0  0
  2  7  1  0  0  0  0
  3  8  1  0  0  0  0
  3  2  2  0  0  0  0
  4  3  1  0  0  0  0
  5  4  2  0  0  0  0
  5  6  1  0  0  0  0
  6  1  2  0  0  0  0
  9  5  1  0  0  0  0
 10  9  1  0  0  0  0
 10 15  1  0  0  0  0
 11 10  2  0  0  0  0
 12 13  2  0  0  0  0
 12 11  1  0  0  0  0
 13 14  1  0  0  0  0
 14  9  2  0  0  0  0
 16 11  1  0  0  0  0
 17 12  1  0  0  0  0
 18 13  1  0  0  0  0
 19 26  2  0  0  0  0
 19 20  1  0  0  0  0
 20 21  1  0  0  0  0
 20 22  2  0  0  0  0
 22 23  1  0  0  0  0
 24 25  1  0  0  0  0
 24 22  1  0  0  0  0
 26 24  1  0  0  0  0
M  END
>  <minimizedAffinity>
-5.81086445

>  <minimizedRMSD>
0.403850585

$$$$
