
 OpenBabel03252508533D

 42 45  0  0  1  0  0  0  0  0999 V2000
   43.3210   34.4240   40.7530 C   0  0  0  0  0  0  0  0  0  0  0  0
   43.2380   35.6270   40.3740 O   0  0  0  0  0  0  0  0  0  0  0  0
   41.9610   33.9970   40.4620 N   0  0  0  0  0  0  0  0  0  0  0  0
   41.5670   34.1100   39.0780 C   0  0  0  0  0  0  0  0  0  0  0  0
   40.7410   35.3960   39.0040 C   0  0  0  0  0  0  0  0  0  0  0  0
   39.9600   35.4830   40.3110 C   0  0  0  0  0  0  0  0  0  0  0  0
   39.6480   34.1110   40.8660 C   0  0  0  0  0  0  0  0  0  0  0  0
   40.9470   33.4710   41.3830 C   0  0  1  0  0  0  0  0  0  0  0  0
   40.9570   33.2480   38.7490 H   0  0  0  0  0  0  0  0  0  0  0  0
   42.4130   34.2230   38.3740 H   0  0  0  0  0  0  0  0  0  0  0  0
   41.4190   36.2740   38.9070 H   0  0  0  0  0  0  0  0  0  0  0  0
   39.9940   35.3540   38.1920 H   0  0  0  0  0  0  0  0  0  0  0  0
   40.5830   36.0680   41.0420 H   0  0  0  0  0  0  0  0  0  0  0  0
   38.9820   36.0130   40.1580 H   0  0  0  0  0  0  0  0  0  0  0  0
   39.3430   33.4950   39.9730 H   0  0  0  0  0  0  0  0  0  0  0  0
   38.8910   34.1850   41.6380 H   0  0  0  0  0  0  0  0  0  0  0  0
   41.1080   33.8620   42.3860 H   0  0  0  0  0  0  0  0  0  0  0  0
   40.8620   32.0080   41.3810 C   0  0  0  0  0  0  0  0  0  0  0  0
   40.3890   31.2410   42.4510 C   0  0  0  0  0  0  0  0  0  0  0  0
   40.0230   31.6110   43.4190 H   0  0  0  0  0  0  0  0  0  0  0  0
   40.4450   29.9080   42.1140 C   0  0  0  0  0  0  0  0  0  0  0  0
   40.1310   29.1010   42.7810 H   0  0  0  0  0  0  0  0  0  0  0  0
   40.9490   29.8660   40.8500 N   0  0  0  0  0  0  0  0  0  0  0  0
   41.1090   28.9710   40.3190 H   0  0  0  0  0  0  0  0  0  0  0  0
   41.1840   31.1130   40.4460 N   0  0  0  0  0  0  0  0  0  0  0  0
   44.3940   33.7680   41.2740 O   0  0  0  0  0  0  0  0  0  0  0  0
   45.7140   34.1050   41.1160 C   0  0  0  0  0  0  0  0  0  0  0  0
   46.3570   34.7430   42.1860 C   0  0  0  0  0  0  0  0  0  0  0  0
   47.7130   35.0750   41.9910 C   0  0  0  0  0  0  0  0  0  0  0  0
   48.3100   34.7670   40.8010 N   0  0  0  0  0  0  0  0  0  0  0  0
   47.6400   34.1600   39.8240 C   0  0  0  0  0  0  0  0  0  0  0  0
   46.3520   33.8270   39.9720 N   0  0  0  0  0  0  0  0  0  0  0  0
   48.1520   35.5610   42.8430 H   0  0  0  0  0  0  0  0  0  0  0  0
   48.2000   33.9540   38.9130 H   0  0  0  0  0  0  0  0  0  0  0  0
   45.6360   35.0270   43.4100 C   0  0  0  0  0  0  0  0  0  0  0  0
   44.9880   36.2340   43.6420 C   0  0  0  0  0  0  0  0  0  0  0  0
   44.4490   36.0690   44.9020 C   0  0  0  0  0  0  0  0  0  0  0  0
   44.7480   34.8530   45.3990 N   0  0  0  0  0  0  0  0  0  0  0  0
   45.4680   34.2380   44.4770 N   0  0  0  0  0  0  0  0  0  0  0  0
   44.9010   37.1240   43.0080 H   0  0  0  0  0  0  0  0  0  0  0  0
   43.8670   36.7980   45.4370 H   0  0  0  0  0  0  0  0  0  0  0  0
   44.4380   34.5060   46.3550 H   0  0  0  0  0  0  0  0  0  0  0  0
  1 26  1  0  0  0  0
  2  1  2  0  0  0  0
  3  1  1  0  0  0  0
  3  8  1  0  0  0  0
  4  3  1  0  0  0  0
  5  4  1  0  0  0  0
  5  6  1  0  0  0  0
  6  7  1  0  0  0  0
  6 13  1  0  0  0  0
  7  8  1  0  0  0  0
  7 16  1  0  0  0  0
  8 17  1  1  0  0  0
  9  4  1  0  0  0  0
 10  4  1  0  0  0  0
 11  5  1  0  0  0  0
 12  5  1  0  0  0  0
 14  6  1  0  0  0  0
 15  7  1  0  0  0  0
 18  8  1  0  0  0  0
 18 19  1  0  0  0  0
 19 20  1  0  0  0  0
 21 19  2  0  0  0  0
 21 22  1  0  0  0  0
 23 21  1  0  0  0  0
 24 23  1  0  0  0  0
 25 23  1  0  0  0  0
 25 18  2  0  0  0  0
 27 26  1  0  0  0  0
 27 28  1  0  0  0  0
 28 35  1  0  0  0  0
 29 28  2  0  0  0  0
 29 33  1  0  0  0  0
 30 29  1  0  0  0  0
 31 32  1  0  0  0  0
 31 30  2  0  0  0  0
 32 27  2  0  0  0  0
 34 31  1  0  0  0  0
 35 36  1  0  0  0  0
 35 39  2  0  0  0  0
 36 37  2  0  0  0  0
 37 38  1  0  0  0  0
 37 41  1  0  0  0  0
 38 42  1  0  0  0  0
 39 38  1  0  0  0  0
 40 36  1  0  0  0  0
M  END
>  <minimizedAffinity>
-6.59022474

>  <minimizedRMSD>
0.290500343

$$$$
