
     RDKit          3D

 20 21  0  0  0  0  0  0  0  0999 V2000
   44.5649   36.0025   44.4978 C   0  0  0  0  0  0  0  0  0  0  0  0
   45.2987   35.9318   43.2950 C   0  0  0  0  0  0  0  0  0  0  0  0
   46.1949   34.8581   43.1696 C   0  0  0  0  0  0  0  0  0  0  0  0
   46.3011   33.9648   44.1969 N   0  0  0  0  0  0  0  0  0  0  0  0
   45.5745   34.0783   45.3287 C   0  0  0  0  0  0  0  0  0  0  0  0
   44.7039   35.1079   45.4688 N   0  0  0  0  0  0  0  0  0  0  0  0
   46.9639   34.7716   41.9262 C   0  0  0  0  0  0  0  0  0  0  0  0
   43.8899   36.8530   44.5354 H   0  0  0  0  0  0  0  0  0  0  0  0
   45.1804   36.6629   42.5099 H   0  0  0  0  0  0  0  0  0  0  0  0
   45.7418   33.3121   46.0751 H   0  0  0  0  0  0  0  0  0  0  0  0
   47.9228   34.2232   42.1586 H   0  0  0  0  0  0  0  0  0  0  0  0
   47.2907   35.7690   41.5702 H   0  0  0  0  0  0  0  0  0  0  0  0
   46.3134   33.9881   40.8562 C   0  0  0  0  0  0  0  0  0  0  0  0
   45.7359   34.6636   39.7868 C   0  0  0  0  0  0  0  0  0  0  0  0
   45.6701   35.7390   39.5783 H   0  0  0  0  0  0  0  0  0  0  0  0
   45.1788   33.7697   38.8900 C   0  0  0  0  0  0  0  0  0  0  0  0
   44.6595   33.9211   37.9679 H   0  0  0  0  0  0  0  0  0  0  0  0
   45.4427   32.5583   39.4570 N   0  0  0  0  0  0  0  0  0  0  0  0
   45.1984   31.5958   39.1133 H   0  0  0  0  0  0  0  0  0  0  0  0
   46.1105   32.6834   40.6146 N   0  0  0  0  0  0  0  0  0  0  0  0
  1  6  2  0
  2  1  1  0
  3  2  2  0
  3  4  1  0
  4  5  2  0
  5  6  1  0
  7  3  1  0
  1  8  1  0
  2  9  1  0
  5 10  1  0
  7 11  1  0
  7 12  1  0
 13 14  1  0
 14 15  1  0
 14 16  2  0
 16 17  1  0
 16 18  1  0
 18 19  1  0
 18 20  1  0
 20 13  2  0
  7 13  1  0
M  ISO  8   8  14   9  14  10  14  11   8  12   8  15  15  17  16  19   5
M  END
>  <DihAtoms>  (1) 
2,6,12,13

>  <DihDeg>  (1) 
89.9757804633366

$$$$
