
 OpenBabel03252506593D

 23 24  0  0  0  0  0  0  0  0999 V2000
   45.9490   32.6610   45.5760 C   0  0  0  0  0  0  0  0  0  0  0  0
   45.0580   32.2690   46.0680 H   0  0  0  0  0  0  0  0  0  0  0  0
   46.4050   31.8450   44.9890 H   0  0  0  0  0  0  0  0  0  0  0  0
   45.6750   33.8920   44.8320 C   0  0  0  0  0  0  0  0  0  0  0  0
   46.2300   34.1350   43.5820 C   0  0  0  0  0  0  0  0  0  0  0  0
   45.9320   35.3370   42.9090 C   0  0  0  0  0  0  0  0  0  0  0  0
   45.1010   36.1950   43.5500 N   0  0  0  0  0  0  0  0  0  0  0  0
   44.5720   35.9360   44.7690 C   0  0  0  0  0  0  0  0  0  0  0  0
   44.8670   34.7930   45.3880 N   0  0  0  0  0  0  0  0  0  0  0  0
   46.8830   33.4300   43.1110 H   0  0  0  0  0  0  0  0  0  0  0  0
   46.3550   35.5270   41.9520 H   0  0  0  0  0  0  0  0  0  0  0  0
   43.9110   36.6460   45.2500 H   0  0  0  0  0  0  0  0  0  0  0  0
   46.9120   32.9920   46.7030 C   0  0  0  0  0  0  0  0  0  0  0  0
   46.9750   34.0520   46.9460 H   0  0  0  0  0  0  0  0  0  0  0  0
   47.9030   32.5480   46.3980 H   0  0  0  0  0  0  0  0  0  0  0  0
   46.4910   32.1530   47.8740 C   0  0  0  0  0  0  0  0  0  0  0  0
   45.1610   31.9880   48.2030 C   0  0  0  0  0  0  0  0  0  0  0  0
   44.3030   32.4170   47.6890 H   0  0  0  0  0  0  0  0  0  0  0  0
   45.0670   31.1660   49.3210 C   0  0  0  0  0  0  0  0  0  0  0  0
   44.2300   30.8100   49.8690 H   0  0  0  0  0  0  0  0  0  0  0  0
   46.3620   30.8910   49.5920 N   0  0  0  0  0  0  0  0  0  0  0  0
   46.7440   30.3000   50.3610 H   0  0  0  0  0  0  0  0  0  0  0  0
   47.2300   31.4540   48.7600 N   0  0  0  0  0  0  0  0  0  0  0  0
  1  2  1  0  0  0  0
  1 13  1  0  0  0  0
  3  1  1  0  0  0  0
  4  9  1  0  0  0  0
  4  1  1  0  0  0  0
  5  4  2  0  0  0  0
  6  7  2  0  0  0  0
  6  5  1  0  0  0  0
  7  8  1  0  0  0  0
  8 12  1  0  0  0  0
  8  9  2  0  0  0  0
 10  5  1  0  0  0  0
 11  6  1  0  0  0  0
 13 14  1  0  0  0  0
 13 16  1  0  0  0  0
 15 13  1  0  0  0  0
 16 17  1  0  0  0  0
 16 23  2  0  0  0  0
 17 19  2  0  0  0  0
 18 17  1  0  0  0  0
 19 21  1  0  0  0  0
 19 20  1  0  0  0  0
 21 22  1  0  0  0  0
 23 21  1  0  0  0  0
M  END
>  <minimizedAffinity>
-4.58467197

>  <minimizedRMSD>
6.2207613

$$$$
