
 OpenBabel03252509283D

 20 21  0  0  0  0  0  0  0  0999 V2000
   47.4330   34.9200   41.9670 C   0  0  0  0  0  0  0  0  0  0  0  0
   48.3070   34.2720   42.2690 H   0  0  0  0  0  0  0  0  0  0  0  0
   47.8760   35.9180   41.7770 H   0  0  0  0  0  0  0  0  0  0  0  0
   44.6730   36.0050   44.2230 C   0  0  0  0  0  0  0  0  0  0  0  0
   45.5700   35.9980   43.1340 C   0  0  0  0  0  0  0  0  0  0  0  0
   46.4940   34.9410   43.0920 C   0  0  0  0  0  0  0  0  0  0  0  0
   46.4700   34.0040   44.0850 N   0  0  0  0  0  0  0  0  0  0  0  0
   45.5890   34.0580   45.1060 C   0  0  0  0  0  0  0  0  0  0  0  0
   44.6890   35.0700   45.1640 N   0  0  0  0  0  0  0  0  0  0  0  0
   43.9840   36.8460   44.2000 H   0  0  0  0  0  0  0  0  0  0  0  0
   45.5510   36.7620   42.3720 H   0  0  0  0  0  0  0  0  0  0  0  0
   45.6630   33.2610   45.8340 H   0  0  0  0  0  0  0  0  0  0  0  0
   46.8980   34.3070   40.7340 C   0  0  0  0  0  0  0  0  0  0  0  0
   47.7590   34.0950   39.6630 C   0  0  0  0  0  0  0  0  0  0  0  0
   48.8290   34.3130   39.5580 H   0  0  0  0  0  0  0  0  0  0  0  0
   47.0840   33.5170   38.6040 C   0  0  0  0  0  0  0  0  0  0  0  0
   47.4150   33.2150   37.6320 H   0  0  0  0  0  0  0  0  0  0  0  0
   45.8120   33.3950   39.0770 N   0  0  0  0  0  0  0  0  0  0  0  0
   44.9600   33.0030   38.6030 H   0  0  0  0  0  0  0  0  0  0  0  0
   45.6990   33.8590   40.3310 N   0  0  0  0  0  0  0  0  0  0  0  0
  1  2  1  0  0  0  0
  1  6  1  0  0  0  0
  3  1  1  0  0  0  0
  4  9  1  0  0  0  0
  5  4  2  0  0  0  0
  6  5  1  0  0  0  0
  6  7  2  0  0  0  0
  7  8  1  0  0  0  0
  8  9  2  0  0  0  0
  8 12  1  0  0  0  0
 10  4  1  0  0  0  0
 11  5  1  0  0  0  0
 13  1  1  0  0  0  0
 14 13  1  0  0  0  0
 15 14  1  0  0  0  0
 16 18  1  0  0  0  0
 16 14  2  0  0  0  0
 17 16  1  0  0  0  0
 18 20  1  0  0  0  0
 19 18  1  0  0  0  0
 20 13  2  0  0  0  0
M  END
>  <minimizedAffinity>
-3.94753981

>  <minimizedRMSD>
0.907176793

$$$$
