
 OpenBabel03252509173D

 24 26  0  0  0  0  0  0  0  0999 V2000
   36.9090   28.1390   40.7830 C   0  0  0  0  0  0  0  0  0  0  0  0
   35.7460   28.9570   40.7110 C   0  0  0  0  0  0  0  0  0  0  0  0
   35.9270   30.2820   40.5450 C   0  0  0  0  0  0  0  0  0  0  0  0
   37.2410   30.8150   40.4490 C   0  0  0  0  0  0  0  0  0  0  0  0
   38.2900   29.3160   40.6070 S   0  0  0  0  0  0  0  0  0  0  0  0
   34.7670   28.5060   40.7900 H   0  0  0  0  0  0  0  0  0  0  0  0
   35.1210   30.9910   40.4780 H   0  0  0  0  0  0  0  0  0  0  0  0
   37.0840   24.6770   42.0990 C   0  0  0  0  0  0  0  0  0  0  0  0
   36.7090   23.9540   40.9360 C   0  0  0  0  0  0  0  0  0  0  0  0
   36.4150   24.6810   39.7660 C   0  0  0  0  0  0  0  0  0  0  0  0
   36.5120   26.0410   39.8280 N   0  0  0  0  0  0  0  0  0  0  0  0
   36.8760   26.6800   40.9640 C   0  0  0  0  0  0  0  0  0  0  0  0
   37.1640   26.0060   42.1050 N   0  0  0  0  0  0  0  0  0  0  0  0
   37.3020   24.1030   42.9690 H   0  0  0  0  0  0  0  0  0  0  0  0
   36.6350   22.8760   40.8980 H   0  0  0  0  0  0  0  0  0  0  0  0
   36.1250   24.2080   38.8510 H   0  0  0  0  0  0  0  0  0  0  0  0
   37.6700   32.1490   40.2740 C   0  0  0  0  0  0  0  0  0  0  0  0
   38.6900   32.8360   40.8970 C   0  0  0  0  0  0  0  0  0  0  0  0
   39.2950   32.3580   41.6390 H   0  0  0  0  0  0  0  0  0  0  0  0
   38.6480   34.1100   40.3260 C   0  0  0  0  0  0  0  0  0  0  0  0
   39.3630   34.8750   40.6440 H   0  0  0  0  0  0  0  0  0  0  0  0
   37.6440   34.1590   39.4090 N   0  0  0  0  0  0  0  0  0  0  0  0
   37.4350   35.0170   38.8630 H   0  0  0  0  0  0  0  0  0  0  0  0
   37.0780   32.9790   39.3960 N   0  0  0  0  0  0  0  0  0  0  0  0
  1 12  1  0  0  0  0
  2  1  2  0  0  0  0
  2  6  1  0  0  0  0
  3  2  1  0  0  0  0
  4  3  2  0  0  0  0
  4  5  1  0  0  0  0
  5  1  1  0  0  0  0
  7  3  1  0  0  0  0
  8 13  1  0  0  0  0
  8 14  1  0  0  0  0
  9  8  2  0  0  0  0
 10 11  2  0  0  0  0
 10  9  1  0  0  0  0
 11 12  1  0  0  0  0
 12 13  2  0  0  0  0
 15  9  1  0  0  0  0
 16 10  1  0  0  0  0
 17  4  1  0  0  0  0
 17 18  1  0  0  0  0
 18 19  1  0  0  0  0
 20 21  1  0  0  0  0
 20 18  2  0  0  0  0
 22 20  1  0  0  0  0
 23 22  1  0  0  0  0
 24 22  1  0  0  0  0
 24 17  2  0  0  0  0
M  END
>  <minimizedAffinity>
-4.80812216

$$$$

 OpenBabel03252509173D

 24 26  0  0  0  0  0  0  0  0999 V2000
   38.2750   28.1420   41.8240 C   0  0  0  0  0  0  0  0  0  0  0  0
   36.9320   28.5850   41.6600 C   0  0  0  0  0  0  0  0  0  0  0  0
   36.7420   29.8590   41.2620 C   0  0  0  0  0  0  0  0  0  0  0  0
   37.8580   30.7040   41.0220 C   0  0  0  0  0  0  0  0  0  0  0  0
   39.2790   29.6010   41.3920 S   0  0  0  0  0  0  0  0  0  0  0  0
   36.1150   27.9050   41.8540 H   0  0  0  0  0  0  0  0  0  0  0  0
   35.7710   30.2970   41.1070 H   0  0  0  0  0  0  0  0  0  0  0  0
   38.5270   24.4760   42.3240 C   0  0  0  0  0  0  0  0  0  0  0  0
   39.5890   24.4300   43.2650 C   0  0  0  0  0  0  0  0  0  0  0  0
   40.1650   25.6470   43.6800 C   0  0  0  0  0  0  0  0  0  0  0  0
   39.6590   26.7970   43.1460 N   0  0  0  0  0  0  0  0  0  0  0  0
   38.6440   26.7840   42.2530 C   0  0  0  0  0  0  0  0  0  0  0  0
   38.0710   25.6280   41.8350 N   0  0  0  0  0  0  0  0  0  0  0  0
   38.1090   23.5420   42.0280 H   0  0  0  0  0  0  0  0  0  0  0  0
   39.9820   23.5130   43.6810 H   0  0  0  0  0  0  0  0  0  0  0  0
   40.9680   25.6950   44.3850 H   0  0  0  0  0  0  0  0  0  0  0  0
   37.9040   32.0520   40.6050 C   0  0  0  0  0  0  0  0  0  0  0  0
   38.8600   33.0170   40.8420 C   0  0  0  0  0  0  0  0  0  0  0  0
   39.7290   32.7910   41.4230 H   0  0  0  0  0  0  0  0  0  0  0  0
   38.3760   34.1520   40.1860 C   0  0  0  0  0  0  0  0  0  0  0  0
   38.9490   35.0840   40.2120 H   0  0  0  0  0  0  0  0  0  0  0  0
   37.1880   33.8560   39.5930 N   0  0  0  0  0  0  0  0  0  0  0  0
   36.6520   34.5580   39.0490 H   0  0  0  0  0  0  0  0  0  0  0  0
   36.9300   32.6000   39.8560 N   0  0  0  0  0  0  0  0  0  0  0  0
  1 12  1  0  0  0  0
  2  1  2  0  0  0  0
  2  6  1  0  0  0  0
  3  2  1  0  0  0  0
  4  3  2  0  0  0  0
  4  5  1  0  0  0  0
  5  1  1  0  0  0  0
  7  3  1  0  0  0  0
  8  9  1  0  0  0  0
  9 10  2  0  0  0  0
  9 15  1  0  0  0  0
 10 16  1  0  0  0  0
 11 10  1  0  0  0  0
 12 11  2  0  0  0  0
 13 12  1  0  0  0  0
 13  8  2  0  0  0  0
 14  8  1  0  0  0  0
 17 18  1  0  0  0  0
 17  4  1  0  0  0  0
 18 19  1  0  0  0  0
 20 21  1  0  0  0  0
 20 18  2  0  0  0  0
 22 24  1  0  0  0  0
 22 20  1  0  0  0  0
 23 22  1  0  0  0  0
 24 17  2  0  0  0  0
M  END
>  <minimizedAffinity>
-4.79029322

$$$$

 OpenBabel03252509173D

 24 26  0  0  0  0  0  0  0  0999 V2000
   38.4860   28.0640   41.7420 C   0  0  0  0  0  0  0  0  0  0  0  0
   39.1520   28.9230   42.6610 C   0  0  0  0  0  0  0  0  0  0  0  0
   39.1260   30.2460   42.4050 C   0  0  0  0  0  0  0  0  0  0  0  0
   38.4510   30.7360   41.2550 C   0  0  0  0  0  0  0  0  0  0  0  0
   37.8090   29.1970   40.4850 S   0  0  0  0  0  0  0  0  0  0  0  0
   39.6520   28.5030   43.5230 H   0  0  0  0  0  0  0  0  0  0  0  0
   39.5950   30.9850   43.0320 H   0  0  0  0  0  0  0  0  0  0  0  0
   39.1560   24.4980   42.5090 C   0  0  0  0  0  0  0  0  0  0  0  0
   37.9840   23.9070   41.9670 C   0  0  0  0  0  0  0  0  0  0  0  0
   37.0270   24.7500   41.3710 C   0  0  0  0  0  0  0  0  0  0  0  0
   37.2920   26.0900   41.3520 N   0  0  0  0  0  0  0  0  0  0  0  0
   38.4270   26.6000   41.8830 C   0  0  0  0  0  0  0  0  0  0  0  0
   39.3650   25.8120   42.4630 N   0  0  0  0  0  0  0  0  0  0  0  0
   39.8630   23.8370   42.9540 H   0  0  0  0  0  0  0  0  0  0  0  0
   37.7840   22.8450   41.9880 H   0  0  0  0  0  0  0  0  0  0  0  0
   36.1190   24.3810   40.9410 H   0  0  0  0  0  0  0  0  0  0  0  0
   38.2900   32.0600   40.7900 C   0  0  0  0  0  0  0  0  0  0  0  0
   39.2010   33.0940   40.7430 C   0  0  0  0  0  0  0  0  0  0  0  0
   40.2010   32.9550   41.0940 H   0  0  0  0  0  0  0  0  0  0  0  0
   38.4850   34.1590   40.1890 C   0  0  0  0  0  0  0  0  0  0  0  0
   38.9750   35.1250   40.0350 H   0  0  0  0  0  0  0  0  0  0  0  0
   37.2120   33.7570   39.9260 N   0  0  0  0  0  0  0  0  0  0  0  0
   36.5060   34.3940   39.5100 H   0  0  0  0  0  0  0  0  0  0  0  0
   37.1220   32.5040   40.2920 N   0  0  0  0  0  0  0  0  0  0  0  0
  1 12  1  0  0  0  0
  1  2  2  0  0  0  0
  2  6  1  0  0  0  0
  3  2  1  0  0  0  0
  3  7  1  0  0  0  0
  4  3  2  0  0  0  0
  5  4  1  0  0  0  0
  5  1  1  0  0  0  0
  8 14  1  0  0  0  0
  9 15  1  0  0  0  0
  9  8  2  0  0  0  0
 10  9  1  0  0  0  0
 11 10  2  0  0  0  0
 11 12  1  0  0  0  0
 12 13  2  0  0  0  0
 13  8  1  0  0  0  0
 16 10  1  0  0  0  0
 17  4  1  0  0  0  0
 18 17  1  0  0  0  0
 18 19  1  0  0  0  0
 20 18  2  0  0  0  0
 21 20  1  0  0  0  0
 22 20  1  0  0  0  0
 22 24  1  0  0  0  0
 23 22  1  0  0  0  0
 24 17  2  0  0  0  0
M  END
>  <minimizedAffinity>
-4.70576954

$$$$

 OpenBabel03252509173D

 24 26  0  0  0  0  0  0  0  0999 V2000
   37.9620   29.9730   41.2020 C   0  0  0  0  0  0  0  0  0  0  0  0
   36.8270   29.3180   41.7560 C   0  0  0  0  0  0  0  0  0  0  0  0
   36.9840   28.0440   42.1690 C   0  0  0  0  0  0  0  0  0  0  0  0
   38.2470   27.4060   42.0430 C   0  0  0  0  0  0  0  0  0  0  0  0
   39.2820   28.7180   41.2810 S   0  0  0  0  0  0  0  0  0  0  0  0
   35.8860   29.8450   41.8320 H   0  0  0  0  0  0  0  0  0  0  0  0
   36.1950   27.4550   42.6030 H   0  0  0  0  0  0  0  0  0  0  0  0
   37.1550   33.1850   39.5320 C   0  0  0  0  0  0  0  0  0  0  0  0
   38.2420   33.9760   39.9860 C   0  0  0  0  0  0  0  0  0  0  0  0
   39.1930   33.3790   40.8370 C   0  0  0  0  0  0  0  0  0  0  0  0
   39.0040   32.0680   41.1690 N   0  0  0  0  0  0  0  0  0  0  0  0
   37.9490   31.3590   40.7070 C   0  0  0  0  0  0  0  0  0  0  0  0
   37.0190   31.9080   39.8870 N   0  0  0  0  0  0  0  0  0  0  0  0
   36.4520   33.6620   38.8900 H   0  0  0  0  0  0  0  0  0  0  0  0
   38.3820   35.0140   39.7170 H   0  0  0  0  0  0  0  0  0  0  0  0
   40.0390   33.9090   41.2210 H   0  0  0  0  0  0  0  0  0  0  0  0
   38.6450   26.0990   42.4020 C   0  0  0  0  0  0  0  0  0  0  0  0
   39.7480   25.6770   43.1120 C   0  0  0  0  0  0  0  0  0  0  0  0
   40.4600   26.3830   43.4820 H   0  0  0  0  0  0  0  0  0  0  0  0
   39.6190   24.2860   43.1570 C   0  0  0  0  0  0  0  0  0  0  0  0
   40.3730   23.6840   43.6710 H   0  0  0  0  0  0  0  0  0  0  0  0
   38.4860   23.9180   42.4980 N   0  0  0  0  0  0  0  0  0  0  0  0
   38.1960   22.9260   42.4100 H   0  0  0  0  0  0  0  0  0  0  0  0
   37.9240   25.0160   42.0590 N   0  0  0  0  0  0  0  0  0  0  0  0
  1  5  1  0  0  0  0
  1  2  2  0  0  0  0
  2  6  1  0  0  0  0
  2  3  1  0  0  0  0
  3  7  1  0  0  0  0
  4  3  2  0  0  0  0
  4 17  1  0  0  0  0
  5  4  1  0  0  0  0
  8 13  2  0  0  0  0
  8  9  1  0  0  0  0
  9 10  2  0  0  0  0
 10 11  1  0  0  0  0
 10 16  1  0  0  0  0
 12 11  2  0  0  0  0
 12  1  1  0  0  0  0
 13 12  1  0  0  0  0
 14  8  1  0  0  0  0
 15  9  1  0  0  0  0
 17 18  1  0  0  0  0
 18 20  2  0  0  0  0
 18 19  1  0  0  0  0
 20 21  1  0  0  0  0
 22 20  1  0  0  0  0
 23 22  1  0  0  0  0
 24 17  2  0  0  0  0
 24 22  1  0  0  0  0
M  END
>  <minimizedAffinity>
-4.69539404

$$$$

 OpenBabel03252509173D

 24 26  0  0  0  0  0  0  0  0999 V2000
   38.5080   30.1180   41.4720 C   0  0  0  0  0  0  0  0  0  0  0  0
   38.6520   29.7250   42.8320 C   0  0  0  0  0  0  0  0  0  0  0  0
   38.5510   28.4110   43.1150 C   0  0  0  0  0  0  0  0  0  0  0  0
   38.3100   27.4760   42.0730 C   0  0  0  0  0  0  0  0  0  0  0  0
   38.2210   28.5510   40.5860 S   0  0  0  0  0  0  0  0  0  0  0  0
   38.8350   30.4740   43.5910 H   0  0  0  0  0  0  0  0  0  0  0  0
   38.6440   28.0050   44.1070 H   0  0  0  0  0  0  0  0  0  0  0  0
   39.5560   33.5880   40.6900 C   0  0  0  0  0  0  0  0  0  0  0  0
   38.3990   34.0450   40.0060 C   0  0  0  0  0  0  0  0  0  0  0  0
   37.3230   33.1490   39.8440 C   0  0  0  0  0  0  0  0  0  0  0  0
   37.4660   31.8940   40.3620 N   0  0  0  0  0  0  0  0  0  0  0  0
   38.5910   31.5110   41.0070 C   0  0  0  0  0  0  0  0  0  0  0  0
   39.6420   32.3510   41.1760 N   0  0  0  0  0  0  0  0  0  0  0  0
   40.3540   34.2860   40.7990 H   0  0  0  0  0  0  0  0  0  0  0  0
   38.2970   35.0410   39.6000 H   0  0  0  0  0  0  0  0  0  0  0  0
   36.4190   33.4190   39.3410 H   0  0  0  0  0  0  0  0  0  0  0  0
   38.1700   26.0720   42.1260 C   0  0  0  0  0  0  0  0  0  0  0  0
   37.1540   25.2680   41.6540 C   0  0  0  0  0  0  0  0  0  0  0  0
   36.3060   25.6950   41.1620 H   0  0  0  0  0  0  0  0  0  0  0  0
   37.5550   23.9720   41.9880 C   0  0  0  0  0  0  0  0  0  0  0  0
   36.9210   23.1190   41.7260 H   0  0  0  0  0  0  0  0  0  0  0  0
   38.7550   24.0230   42.6280 N   0  0  0  0  0  0  0  0  0  0  0  0
   39.2380   23.1690   42.9650 H   0  0  0  0  0  0  0  0  0  0  0  0
   39.1000   25.2840   42.6970 N   0  0  0  0  0  0  0  0  0  0  0  0
  1  2  2  0  0  0  0
  2  3  1  0  0  0  0
  2  6  1  0  0  0  0
  3  7  1  0  0  0  0
  4 17  1  0  0  0  0
  4  3  2  0  0  0  0
  5  1  1  0  0  0  0
  5  4  1  0  0  0  0
  8 14  1  0  0  0  0
  8 13  1  0  0  0  0
  9  8  2  0  0  0  0
 10  9  1  0  0  0  0
 10 11  2  0  0  0  0
 11 12  1  0  0  0  0
 12 13  2  0  0  0  0
 12  1  1  0  0  0  0
 15  9  1  0  0  0  0
 16 10  1  0  0  0  0
 17 24  2  0  0  0  0
 18 20  2  0  0  0  0
 18 17  1  0  0  0  0
 19 18  1  0  0  0  0
 20 22  1  0  0  0  0
 21 20  1  0  0  0  0
 22 24  1  0  0  0  0
 22 23  1  0  0  0  0
M  END
>  <minimizedAffinity>
-4.69493961

$$$$

 OpenBabel03252509173D

 24 26  0  0  0  0  0  0  0  0999 V2000
   37.3460   28.0780   40.9530 C   0  0  0  0  0  0  0  0  0  0  0  0
   36.1190   28.7970   40.9170 C   0  0  0  0  0  0  0  0  0  0  0  0
   36.1840   30.1320   40.7440 C   0  0  0  0  0  0  0  0  0  0  0  0
   37.4460   30.7700   40.6040 C   0  0  0  0  0  0  0  0  0  0  0  0
   38.6190   29.3640   40.7300 S   0  0  0  0  0  0  0  0  0  0  0  0
   35.1830   28.2670   41.0270 H   0  0  0  0  0  0  0  0  0  0  0  0
   35.3200   30.7720   40.7020 H   0  0  0  0  0  0  0  0  0  0  0  0
   36.9230   24.3990   40.7610 C   0  0  0  0  0  0  0  0  0  0  0  0
   37.8760   23.9920   41.7320 C   0  0  0  0  0  0  0  0  0  0  0  0
   38.6130   24.9890   42.4010 C   0  0  0  0  0  0  0  0  0  0  0  0
   38.3600   26.2890   42.0690 N   0  0  0  0  0  0  0  0  0  0  0  0
   37.4390   26.6210   41.1350 C   0  0  0  0  0  0  0  0  0  0  0  0
   36.7150   25.6830   40.4760 N   0  0  0  0  0  0  0  0  0  0  0  0
   36.3800   23.6250   40.2710 H   0  0  0  0  0  0  0  0  0  0  0  0
   38.0690   22.9600   41.9870 H   0  0  0  0  0  0  0  0  0  0  0  0
   39.3480   24.7630   43.1440 H   0  0  0  0  0  0  0  0  0  0  0  0
   37.7580   32.1350   40.4150 C   0  0  0  0  0  0  0  0  0  0  0  0
   38.8180   32.8720   40.8970 C   0  0  0  0  0  0  0  0  0  0  0  0
   39.5600   32.4160   41.5180 H   0  0  0  0  0  0  0  0  0  0  0  0
   38.6070   34.1560   40.3870 C   0  0  0  0  0  0  0  0  0  0  0  0
   39.3140   34.9580   40.6180 H   0  0  0  0  0  0  0  0  0  0  0  0
   37.4700   34.1610   39.6390 N   0  0  0  0  0  0  0  0  0  0  0  0
   37.1250   35.0160   39.1650 H   0  0  0  0  0  0  0  0  0  0  0  0
   36.9840   32.9460   39.6710 N   0  0  0  0  0  0  0  0  0  0  0  0
  1 12  1  0  0  0  0
  2  1  2  0  0  0  0
  2  6  1  0  0  0  0
  3  2  1  0  0  0  0
  4  5  1  0  0  0  0
  4  3  2  0  0  0  0
  5  1  1  0  0  0  0
  7  3  1  0  0  0  0
  8  9  1  0  0  0  0
  9 15  1  0  0  0  0
  9 10  2  0  0  0  0
 10 16  1  0  0  0  0
 11 10  1  0  0  0  0
 12 11  2  0  0  0  0
 13  8  2  0  0  0  0
 13 12  1  0  0  0  0
 14  8  1  0  0  0  0
 17  4  1  0  0  0  0
 17 18  1  0  0  0  0
 18 19  1  0  0  0  0
 20 21  1  0  0  0  0
 20 18  2  0  0  0  0
 22 24  1  0  0  0  0
 22 20  1  0  0  0  0
 23 22  1  0  0  0  0
 24 17  2  0  0  0  0
M  END
>  <minimizedAffinity>
-4.58012152

$$$$

 OpenBabel03252509173D

 24 26  0  0  0  0  0  0  0  0999 V2000
   37.5320   29.9760   40.7800 C   0  0  0  0  0  0  0  0  0  0  0  0
   36.2660   29.4270   41.1280 C   0  0  0  0  0  0  0  0  0  0  0  0
   36.2090   28.1030   41.3770 C   0  0  0  0  0  0  0  0  0  0  0  0
   37.3840   27.3110   41.2890 C   0  0  0  0  0  0  0  0  0  0  0  0
   38.6600   28.5450   40.8160 S   0  0  0  0  0  0  0  0  0  0  0  0
   35.3980   30.0700   41.1830 H   0  0  0  0  0  0  0  0  0  0  0  0
   35.3050   27.5850   41.6490 H   0  0  0  0  0  0  0  0  0  0  0  0
   37.3120   33.4620   39.5360 C   0  0  0  0  0  0  0  0  0  0  0  0
   38.4770   34.0090   40.1350 C   0  0  0  0  0  0  0  0  0  0  0  0
   39.2760   33.1660   40.9310 C   0  0  0  0  0  0  0  0  0  0  0  0
   38.8750   31.8690   41.0730 N   0  0  0  0  0  0  0  0  0  0  0  0
   37.7550   31.3990   40.4790 C   0  0  0  0  0  0  0  0  0  0  0  0
   36.9660   32.1880   39.7080 N   0  0  0  0  0  0  0  0  0  0  0  0
   36.7260   34.1220   38.9390 H   0  0  0  0  0  0  0  0  0  0  0  0
   38.7850   35.0390   40.0160 H   0  0  0  0  0  0  0  0  0  0  0  0
   40.1680   33.5040   41.4150 H   0  0  0  0  0  0  0  0  0  0  0  0
   37.5670   25.9270   41.5030 C   0  0  0  0  0  0  0  0  0  0  0  0
   36.9390   24.8530   40.9100 C   0  0  0  0  0  0  0  0  0  0  0  0
   36.1880   25.0050   40.1640 H   0  0  0  0  0  0  0  0  0  0  0  0
   37.5220   23.7350   41.5130 C   0  0  0  0  0  0  0  0  0  0  0  0
   37.2040   22.7300   41.2230 H   0  0  0  0  0  0  0  0  0  0  0  0
   38.4500   24.1470   42.4200 N   0  0  0  0  0  0  0  0  0  0  0  0
   39.0050   23.4770   42.9850 H   0  0  0  0  0  0  0  0  0  0  0  0
   38.4580   25.4550   42.3940 N   0  0  0  0  0  0  0  0  0  0  0  0
  1  5  1  0  0  0  0
  1  2  2  0  0  0  0
  2  6  1  0  0  0  0
  2  3  1  0  0  0  0
  3  7  1  0  0  0  0
  4  3  2  0  0  0  0
  4 17  1  0  0  0  0
  5  4  1  0  0  0  0
  8 13  2  0  0  0  0
  8  9  1  0  0  0  0
  9 10  2  0  0  0  0
 10 11  1  0  0  0  0
 10 16  1  0  0  0  0
 12  1  1  0  0  0  0
 12 11  2  0  0  0  0
 13 12  1  0  0  0  0
 14  8  1  0  0  0  0
 15  9  1  0  0  0  0
 17 24  2  0  0  0  0
 18 17  1  0  0  0  0
 18 20  2  0  0  0  0
 19 18  1  0  0  0  0
 20 22  1  0  0  0  0
 21 20  1  0  0  0  0
 22 23  1  0  0  0  0
 24 22  1  0  0  0  0
M  END
>  <minimizedAffinity>
-4.51051521

$$$$

 OpenBabel03252509173D

 24 26  0  0  0  0  0  0  0  0999 V2000
   38.8860   30.0320   40.7330 C   0  0  0  0  0  0  0  0  0  0  0  0
   38.1880   30.6820   39.6770 C   0  0  0  0  0  0  0  0  0  0  0  0
   38.8780   31.5610   38.9230 C   0  0  0  0  0  0  0  0  0  0  0  0
   40.2500   31.8080   39.1950 C   0  0  0  0  0  0  0  0  0  0  0  0
   40.5760   30.7090   40.6300 S   0  0  0  0  0  0  0  0  0  0  0  0
   37.1430   30.4610   39.5080 H   0  0  0  0  0  0  0  0  0  0  0  0
   38.4500   32.1070   38.1000 H   0  0  0  0  0  0  0  0  0  0  0  0
   37.7110   28.1020   43.6730 C   0  0  0  0  0  0  0  0  0  0  0  0
   37.0090   27.0580   43.0150 C   0  0  0  0  0  0  0  0  0  0  0  0
   36.9710   27.0640   41.6070 C   0  0  0  0  0  0  0  0  0  0  0  0
   37.6170   28.0810   40.9650 N   0  0  0  0  0  0  0  0  0  0  0  0
   38.2720   29.0510   41.6410 C   0  0  0  0  0  0  0  0  0  0  0  0
   38.3250   29.0710   42.9960 N   0  0  0  0  0  0  0  0  0  0  0  0
   37.7240   28.0720   44.7380 H   0  0  0  0  0  0  0  0  0  0  0  0
   36.5010   26.2570   43.5350 H   0  0  0  0  0  0  0  0  0  0  0  0
   36.4630   26.3120   41.0400 H   0  0  0  0  0  0  0  0  0  0  0  0
   41.1640   32.6710   38.5500 C   0  0  0  0  0  0  0  0  0  0  0  0
   42.0000   33.6290   39.0830 C   0  0  0  0  0  0  0  0  0  0  0  0
   42.0180   33.8090   40.1370 H   0  0  0  0  0  0  0  0  0  0  0  0
   42.6660   34.1610   37.9770 C   0  0  0  0  0  0  0  0  0  0  0  0
   43.4040   34.9570   38.1140 H   0  0  0  0  0  0  0  0  0  0  0  0
   42.2330   33.5360   36.8480 N   0  0  0  0  0  0  0  0  0  0  0  0
   42.5990   33.7780   35.9080 H   0  0  0  0  0  0  0  0  0  0  0  0
   41.3400   32.6530   37.2160 N   0  0  0  0  0  0  0  0  0  0  0  0
  1 12  1  0  0  0  0
  2  1  2  0  0  0  0
  3  4  2  0  0  0  0
  3  2  1  0  0  0  0
  4  5  1  0  0  0  0
  5  1  1  0  0  0  0
  6  2  1  0  0  0  0
  7  3  1  0  0  0  0
  8 14  1  0  0  0  0
  9 15  1  0  0  0  0
  9  8  1  0  0  0  0
 10  9  2  0  0  0  0
 11 10  1  0  0  0  0
 11 12  2  0  0  0  0
 12 13  1  0  0  0  0
 13  8  2  0  0  0  0
 16 10  1  0  0  0  0
 17 18  1  0  0  0  0
 17  4  1  0  0  0  0
 18 19  1  0  0  0  0
 20 21  1  0  0  0  0
 20 18  2  0  0  0  0
 22 24  1  0  0  0  0
 22 20  1  0  0  0  0
 23 22  1  0  0  0  0
 24 17  2  0  0  0  0
M  END
>  <minimizedAffinity>
-4.31968737

$$$$

 OpenBabel03252509173D

 24 26  0  0  0  0  0  0  0  0999 V2000
   36.9190   26.7790   39.7150 C   0  0  0  0  0  0  0  0  0  0  0  0
   35.9920   27.3330   38.7880 C   0  0  0  0  0  0  0  0  0  0  0  0
   35.9520   28.6760   38.6760 C   0  0  0  0  0  0  0  0  0  0  0  0
   36.8140   29.4820   39.4670 C   0  0  0  0  0  0  0  0  0  0  0  0
   37.7470   28.2330   40.4380 S   0  0  0  0  0  0  0  0  0  0  0  0
   35.3570   26.6790   38.2080 H   0  0  0  0  0  0  0  0  0  0  0  0
   35.2910   29.2000   38.0080 H   0  0  0  0  0  0  0  0  0  0  0  0
   36.4980   23.0990   39.8950 C   0  0  0  0  0  0  0  0  0  0  0  0
   37.7090   22.7460   40.5460 C   0  0  0  0  0  0  0  0  0  0  0  0
   38.6070   23.7760   40.8890 C   0  0  0  0  0  0  0  0  0  0  0  0
   38.2480   25.0550   40.5710 N   0  0  0  0  0  0  0  0  0  0  0  0
   37.0800   25.3350   39.9510 C   0  0  0  0  0  0  0  0  0  0  0  0
   36.1970   24.3640   39.6090 N   0  0  0  0  0  0  0  0  0  0  0  0
   35.8380   22.3000   39.6480 H   0  0  0  0  0  0  0  0  0  0  0  0
   37.9830   21.7290   40.7920 H   0  0  0  0  0  0  0  0  0  0  0  0
   39.5390   23.5900   41.3800 H   0  0  0  0  0  0  0  0  0  0  0  0
   36.9500   30.8870   39.5200 C   0  0  0  0  0  0  0  0  0  0  0  0
   37.2200   31.7860   38.5110 C   0  0  0  0  0  0  0  0  0  0  0  0
   37.3640   31.4490   37.5060 H   0  0  0  0  0  0  0  0  0  0  0  0
   37.2360   33.0280   39.1490 C   0  0  0  0  0  0  0  0  0  0  0  0
   37.4310   33.9370   38.5720 H   0  0  0  0  0  0  0  0  0  0  0  0
   36.9840   32.8560   40.4760 N   0  0  0  0  0  0  0  0  0  0  0  0
   36.9490   33.6520   41.1390 H   0  0  0  0  0  0  0  0  0  0  0  0
   36.8170   31.5720   40.6700 N   0  0  0  0  0  0  0  0  0  0  0  0
  1 12  1  0  0  0  0
  1  5  1  0  0  0  0
  2  1  2  0  0  0  0
  3  2  1  0  0  0  0
  3  4  2  0  0  0  0
  4 17  1  0  0  0  0
  4  5  1  0  0  0  0
  6  2  1  0  0  0  0
  7  3  1  0  0  0  0
  8  9  1  0  0  0  0
  9 15  1  0  0  0  0
  9 10  2  0  0  0  0
 10 16  1  0  0  0  0
 11 10  1  0  0  0  0
 12 11  2  0  0  0  0
 13  8  2  0  0  0  0
 13 12  1  0  0  0  0
 14  8  1  0  0  0  0
 17 24  2  0  0  0  0
 18 20  2  0  0  0  0
 18 17  1  0  0  0  0
 19 18  1  0  0  0  0
 20 22  1  0  0  0  0
 21 20  1  0  0  0  0
 22 24  1  0  0  0  0
 22 23  1  0  0  0  0
M  END
>  <minimizedAffinity>
-4.22800207

$$$$
