
 OpenBabel03252508243D

 40 44  0  0  1  0  0  0  0  0999 V2000
   46.2470   33.0560   46.6100 C   0  0  1  0  0  0  0  0  0  0  0  0
   45.3070   32.6820   47.6760 C   0  0  0  0  0  0  0  0  0  0  0  0
   45.7940   31.6810   46.5560 C   0  0  2  0  0  0  0  0  0  0  0  0
   47.1830   33.4330   47.1610 H   0  0  0  0  0  0  0  0  0  0  0  0
   44.2410   32.9580   47.6470 H   0  0  0  0  0  0  0  0  0  0  0  0
   45.6150   32.2890   48.6600 H   0  0  0  0  0  0  0  0  0  0  0  0
   44.8170   31.3570   46.0880 H   0  0  0  0  0  0  0  0  0  0  0  0
   46.5890   30.5060   46.9300 C   0  0  0  0  0  0  0  0  0  0  0  0
   47.8890   30.4740   47.3140 C   0  0  0  0  0  0  0  0  0  0  0  0
   48.6380   29.3260   47.5410 C   0  0  0  0  0  0  0  0  0  0  0  0
   47.9790   28.1020   47.3550 C   0  0  0  0  0  0  0  0  0  0  0  0
   46.6400   28.1040   46.9640 C   0  0  0  0  0  0  0  0  0  0  0  0
   46.0160   26.8750   46.8570 C   0  0  0  0  0  0  0  0  0  0  0  0
   44.6640   26.8340   46.5420 C   0  0  0  0  0  0  0  0  0  0  0  0
   43.9540   28.0000   46.3420 C   0  0  0  0  0  0  0  0  0  0  0  0
   44.6240   29.1950   46.4600 C   0  0  0  0  0  0  0  0  0  0  0  0
   45.9720   29.2900   46.7630 C   0  0  0  0  0  0  0  0  0  0  0  0
   48.3620   31.4410   47.4460 H   0  0  0  0  0  0  0  0  0  0  0  0
   49.6740   29.3760   47.8470 H   0  0  0  0  0  0  0  0  0  0  0  0
   48.5190   27.1810   47.5170 H   0  0  0  0  0  0  0  0  0  0  0  0
   46.6050   25.9750   47.0230 H   0  0  0  0  0  0  0  0  0  0  0  0
   44.2790   25.8120   46.4820 H   0  0  0  0  0  0  0  0  0  0  0  0
   42.9380   27.7650   46.1160 H   0  0  0  0  0  0  0  0  0  0  0  0
   43.8680   29.9180   46.3500 H   0  0  0  0  0  0  0  0  0  0  0  0
   44.4450   35.7010   44.7700 C   0  0  0  0  0  0  0  0  0  0  0  0
   45.0940   35.6770   43.4880 C   0  0  0  0  0  0  0  0  0  0  0  0
   46.1600   34.7350   43.3060 C   0  0  0  0  0  0  0  0  0  0  0  0
   46.5050   33.9300   44.3180 N   0  0  0  0  0  0  0  0  0  0  0  0
   45.8450   34.0000   45.5270 C   0  0  0  0  0  0  0  0  0  0  0  0
   44.8510   34.8560   45.7410 N   0  0  0  0  0  0  0  0  0  0  0  0
   43.6490   36.4200   44.8710 H   0  0  0  0  0  0  0  0  0  0  0  0
   44.8220   36.3170   42.6790 H   0  0  0  0  0  0  0  0  0  0  0  0
   46.8420   34.6800   42.0200 C   0  0  0  0  0  0  0  0  0  0  0  0
   48.1160   35.1310   41.7660 C   0  0  0  0  0  0  0  0  0  0  0  0
   48.8360   35.5940   42.4310 H   0  0  0  0  0  0  0  0  0  0  0  0
   48.3750   34.8860   40.4140 C   0  0  0  0  0  0  0  0  0  0  0  0
   49.2530   35.0880   39.8130 H   0  0  0  0  0  0  0  0  0  0  0  0
   47.2610   34.3030   39.9040 N   0  0  0  0  0  0  0  0  0  0  0  0
   47.0340   33.9660   38.9530 H   0  0  0  0  0  0  0  0  0  0  0  0
   46.3690   34.1890   40.8610 N   0  0  0  0  0  0  0  0  0  0  0  0
  1  4  1  1  0  0  0
  1  2  1  0  0  0  0
  2  6  1  0  0  0  0
  3  7  1  6  0  0  0
  3  1  1  0  0  0  0
  3  8  1  0  0  0  0
  3  2  1  0  0  0  0
  5  2  1  0  0  0  0
  8  9  1  0  0  0  0
  9 18  1  0  0  0  0
  9 10  2  0  0  0  0
 10 19  1  0  0  0  0
 11 20  1  0  0  0  0
 11 10  1  0  0  0  0
 12 11  2  0  0  0  0
 13 12  1  0  0  0  0
 13 21  1  0  0  0  0
 14 13  2  0  0  0  0
 15 16  2  0  0  0  0
 15 14  1  0  0  0  0
 16 17  1  0  0  0  0
 17  8  2  0  0  0  0
 17 12  1  0  0  0  0
 22 14  1  0  0  0  0
 23 15  1  0  0  0  0
 24 16  1  0  0  0  0
 25 31  1  0  0  0  0
 25 30  1  0  0  0  0
 26 25  2  0  0  0  0
 27 26  1  0  0  0  0
 27 28  2  0  0  0  0
 28 29  1  0  0  0  0
 29 30  2  0  0  0  0
 29  1  1  0  0  0  0
 32 26  1  0  0  0  0
 33 27  1  0  0  0  0
 34 33  1  0  0  0  0
 34 35  1  0  0  0  0
 36 34  2  0  0  0  0
 37 36  1  0  0  0  0
 38 36  1  0  0  0  0
 38 40  1  0  0  0  0
 39 38  1  0  0  0  0
 40 33  2  0  0  0  0
M  END
>  <minimizedAffinity>
-6.42886019

>  <minimizedRMSD>
1.74443066

$$$$
