
 OpenBabel03252504363D

 22 23  0  0  0  0  0  0  0  0999 V2000
   45.0160   37.5570   43.2120 C   0  0  0  0  0  0  0  0  0  0  0  0
   45.4200   38.3900   44.1640 C   0  0  0  0  0  0  0  0  0  0  0  0
   45.0850   36.1120   43.5280 C   0  0  0  0  0  0  0  0  0  0  0  0
   45.2810   35.1690   42.4950 C   0  0  0  0  0  0  0  0  0  0  0  0
   45.3410   33.8300   42.8450 C   0  0  0  0  0  0  0  0  0  0  0  0
   45.2100   33.5080   44.1460 N   0  0  0  0  0  0  0  0  0  0  0  0
   45.0210   34.4220   45.1370 C   0  0  0  0  0  0  0  0  0  0  0  0
   44.9630   35.7080   44.8040 N   0  0  0  0  0  0  0  0  0  0  0  0
   45.3750   35.5220   41.4790 H   0  0  0  0  0  0  0  0  0  0  0  0
   45.4900   33.0790   42.0820 H   0  0  0  0  0  0  0  0  0  0  0  0
   44.9280   34.0500   46.1530 H   0  0  0  0  0  0  0  0  0  0  0  0
   45.3710   39.8540   43.9090 C   0  0  0  0  0  0  0  0  0  0  0  0
   46.4010   40.1320   43.5630 H   0  0  0  0  0  0  0  0  0  0  0  0
   44.7040   40.0180   43.0390 H   0  0  0  0  0  0  0  0  0  0  0  0
   44.9350   40.6100   45.0880 C   0  0  0  0  0  0  0  0  0  0  0  0
   44.3460   41.8490   45.2240 C   0  0  0  0  0  0  0  0  0  0  0  0
   44.1100   42.4910   44.3770 H   0  0  0  0  0  0  0  0  0  0  0  0
   44.1210   42.1290   46.5630 C   0  0  0  0  0  0  0  0  0  0  0  0
   43.6850   42.9990   46.9940 H   0  0  0  0  0  0  0  0  0  0  0  0
   44.5830   41.0360   47.2130 N   0  0  0  0  0  0  0  0  0  0  0  0
   44.5940   40.8540   48.2430 H   0  0  0  0  0  0  0  0  0  0  0  0
   45.0520   40.1590   46.3650 N   0  0  0  0  0  0  0  0  0  0  0  0
  1  3  1  0  0  0  0
  1  2  2  0  0  0  0
  3  8  1  0  0  0  0
  4  5  1  0  0  0  0
  4  3  2  0  0  0  0
  5  6  2  0  0  0  0
  6  7  1  0  0  0  0
  7 11  1  0  0  0  0
  8  7  2  0  0  0  0
  9  4  1  0  0  0  0
 10  5  1  0  0  0  0
 12  2  1  0  0  0  0
 12 15  1  0  0  0  0
 13 12  1  0  0  0  0
 14 12  1  0  0  0  0
 15 16  1  0  0  0  0
 15 22  2  0  0  0  0
 16 18  2  0  0  0  0
 17 16  1  0  0  0  0
 18 19  1  0  0  0  0
 18 20  1  0  0  0  0
 20 21  1  0  0  0  0
 22 20  1  0  0  0  0
M  END
>  <minimizedAffinity>
-4.09041643

>  <minimizedRMSD>
1.8524307

$$$$
