
 OpenBabel03252508203D

 33 35  0  0  0  0  0  0  0  0999 V2000
   42.2750   35.2680   40.5940 C   0  0  0  0  0  0  0  0  0  0  0  0
   41.1500   36.0070   40.9520 C   0  0  0  0  0  0  0  0  0  0  0  0
   39.8590   35.8050   40.4780 C   0  0  0  0  0  0  0  0  0  0  0  0
   39.7320   34.7660   39.5730 C   0  0  0  0  0  0  0  0  0  0  0  0
   40.8250   34.0240   39.2050 C   0  0  0  0  0  0  0  0  0  0  0  0
   42.1050   34.2380   39.6870 C   0  0  0  0  0  0  0  0  0  0  0  0
   41.3400   36.8060   41.6690 H   0  0  0  0  0  0  0  0  0  0  0  0
   39.1060   36.4650   40.8580 H   0  0  0  0  0  0  0  0  0  0  0  0
   38.7350   34.6030   39.2000 H   0  0  0  0  0  0  0  0  0  0  0  0
   40.5480   33.2540   38.4910 H   0  0  0  0  0  0  0  0  0  0  0  0
   43.1040   33.3290   39.1520 C   0  0  0  0  0  0  0  0  0  0  0  0
   43.5480   32.0780   39.4820 C   0  0  0  0  0  0  0  0  0  0  0  0
   43.2000   31.4760   40.2980 H   0  0  0  0  0  0  0  0  0  0  0  0
   44.5080   31.6040   38.6560 C   0  0  0  0  0  0  0  0  0  0  0  0
   45.0370   30.6730   38.6650 H   0  0  0  0  0  0  0  0  0  0  0  0
   44.6650   32.6020   37.7770 N   0  0  0  0  0  0  0  0  0  0  0  0
   45.3110   32.6830   36.9450 H   0  0  0  0  0  0  0  0  0  0  0  0
   43.8490   33.5800   38.0840 N   0  0  0  0  0  0  0  0  0  0  0  0
   43.6120   35.5370   41.1110 C   0  0  0  0  0  0  0  0  0  0  0  0
   43.6230   36.6020   41.4320 H   0  0  0  0  0  0  0  0  0  0  0  0
   44.4190   35.3150   40.3970 H   0  0  0  0  0  0  0  0  0  0  0  0
   43.8700   34.7800   42.4300 C   0  0  0  0  0  0  0  0  0  0  0  0
   43.7960   35.5430   43.2130 H   0  0  0  0  0  0  0  0  0  0  0  0
   43.1640   33.9580   42.5360 H   0  0  0  0  0  0  0  0  0  0  0  0
   47.6480   34.6860   42.5240 C   0  0  0  0  0  0  0  0  0  0  0  0
   46.3230   35.2040   42.5660 C   0  0  0  0  0  0  0  0  0  0  0  0
   45.2830   34.3050   42.3930 C   0  0  0  0  0  0  0  0  0  0  0  0
   45.6200   32.9870   42.1950 N   0  0  0  0  0  0  0  0  0  0  0  0
   46.8630   32.5330   42.1600 C   0  0  0  0  0  0  0  0  0  0  0  0
   47.8860   33.3760   42.3240 N   0  0  0  0  0  0  0  0  0  0  0  0
   48.4420   35.4110   42.6630 H   0  0  0  0  0  0  0  0  0  0  0  0
   46.1540   36.2580   42.7290 H   0  0  0  0  0  0  0  0  0  0  0  0
   47.0830   31.4880   42.0010 H   0  0  0  0  0  0  0  0  0  0  0  0
  1  2  1  0  0  0  0
  1 19  1  0  0  0  0
  2  7  1  0  0  0  0
  3  8  1  0  0  0  0
  3  2  2  0  0  0  0
  4  3  1  0  0  0  0
  5  4  2  0  0  0  0
  5  6  1  0  0  0  0
  6  1  2  0  0  0  0
  9  4  1  0  0  0  0
 10  5  1  0  0  0  0
 11 12  1  0  0  0  0
 11  6  1  0  0  0  0
 12 13  1  0  0  0  0
 14 15  1  0  0  0  0
 14 12  2  0  0  0  0
 16 18  1  0  0  0  0
 16 14  1  0  0  0  0
 17 16  1  0  0  0  0
 18 11  2  0  0  0  0
 19 20  1  0  0  0  0
 19 22  1  0  0  0  0
 21 19  1  0  0  0  0
 22 24  1  0  0  0  0
 22 23  1  0  0  0  0
 25 26  1  0  0  0  0
 25 31  1  0  0  0  0
 26 32  1  0  0  0  0
 27 22  1  0  0  0  0
 27 26  2  0  0  0  0
 28 27  1  0  0  0  0
 29 28  2  0  0  0  0
 29 30  1  0  0  0  0
 30 25  2  0  0  0  0
 33 29  1  0  0  0  0
M  END
>  <minimizedAffinity>
-4.35101175

>  <minimizedRMSD>
6.47396231

$$$$
