
 OpenBabel03252505373D

 32 34  0  0  0  0  0  0  0  0999 V2000
   39.5580   31.7520   38.8530 C   0  0  0  0  0  0  0  0  0  0  0  0
   39.1330   30.5360   39.4400 C   0  0  0  0  0  0  0  0  0  0  0  0
   38.6120   30.5700   40.7110 C   0  0  0  0  0  0  0  0  0  0  0  0
   38.5330   31.7670   41.3400 N   0  0  0  0  0  0  0  0  0  0  0  0
   38.9540   32.9160   40.7450 C   0  0  0  0  0  0  0  0  0  0  0  0
   39.4620   32.9050   39.5090 N   0  0  0  0  0  0  0  0  0  0  0  0
   38.8740   34.1600   41.4430 N   0  0  0  0  0  0  0  0  0  0  0  0
   39.9700   31.7400   37.8490 H   0  0  0  0  0  0  0  0  0  0  0  0
   39.7650   34.7320   41.3760 H   0  0  0  0  0  0  0  0  0  0  0  0
   38.0550   34.5240   41.9790 H   0  0  0  0  0  0  0  0  0  0  0  0
   38.1410   29.4170   41.4170 C   0  0  0  0  0  0  0  0  0  0  0  0
   39.0580   28.7140   42.1960 C   0  0  0  0  0  0  0  0  0  0  0  0
   38.7160   27.5840   42.9340 C   0  0  0  0  0  0  0  0  0  0  0  0
   37.4050   27.1320   42.8960 C   0  0  0  0  0  0  0  0  0  0  0  0
   36.5010   27.8160   42.1340 C   0  0  0  0  0  0  0  0  0  0  0  0
   36.8520   28.9520   41.3950 C   0  0  0  0  0  0  0  0  0  0  0  0
   40.1000   29.0200   42.2650 H   0  0  0  0  0  0  0  0  0  0  0  0
   39.4450   27.0550   43.5330 H   0  0  0  0  0  0  0  0  0  0  0  0
   37.0890   26.2680   43.4460 H   0  0  0  0  0  0  0  0  0  0  0  0
   35.4620   27.4810   42.0880 H   0  0  0  0  0  0  0  0  0  0  0  0
   35.8620   29.6780   40.5880 C   0  0  0  0  0  0  0  0  0  0  0  0
   35.7640   30.9720   41.0890 F   0  0  0  0  0  0  0  0  0  0  0  0
   34.6420   29.0400   40.6750 F   0  0  0  0  0  0  0  0  0  0  0  0
   36.1680   29.7460   39.2510 F   0  0  0  0  0  0  0  0  0  0  0  0
   39.3240   29.3280   38.6540 C   0  0  0  0  0  0  0  0  0  0  0  0
   39.8080   28.0410   38.7340 C   0  0  0  0  0  0  0  0  0  0  0  0
   40.2010   27.8040   39.7370 H   0  0  0  0  0  0  0  0  0  0  0  0
   39.6390   27.4540   37.5020 C   0  0  0  0  0  0  0  0  0  0  0  0
   39.9840   26.4210   37.4240 H   0  0  0  0  0  0  0  0  0  0  0  0
   39.0630   28.3640   36.6860 N   0  0  0  0  0  0  0  0  0  0  0  0
   38.8560   28.0960   35.7020 H   0  0  0  0  0  0  0  0  0  0  0  0
   38.8750   29.4860   37.3770 N   0  0  0  0  0  0  0  0  0  0  0  0
  1  2  2  0  0  0  0
  1  6  1  0  0  0  0
  2  3  1  0  0  0  0
  3  4  2  0  0  0  0
  3 11  1  0  0  0  0
  5  4  1  0  0  0  0
  5  7  1  0  0  0  0
  6  5  2  0  0  0  0
  7 10  1  0  0  0  0
  8  1  1  0  0  0  0
  9  7  1  0  0  0  0
 11 12  1  0  0  0  0
 12 17  1  0  0  0  0
 12 13  2  0  0  0  0
 13 18  1  0  0  0  0
 14 13  1  0  0  0  0
 14 19  1  0  0  0  0
 15 14  2  0  0  0  0
 16 11  2  0  0  0  0
 16 15  1  0  0  0  0
 20 15  1  0  0  0  0
 21 23  1  0  0  0  0
 21 22  1  0  0  0  0
 21 16  1  0  0  0  0
 24 21  1  0  0  0  0
 25 26  1  0  0  0  0
 25  2  1  0  0  0  0
 26 27  1  0  0  0  0
 28 26  2  0  0  0  0
 29 28  1  0  0  0  0
 30 32  1  0  0  0  0
 30 28  1  0  0  0  0
 31 30  1  0  0  0  0
 32 25  2  0  0  0  0
M  END
>  <minimizedAffinity>
-5.74452209

$$$$

 OpenBabel03252505373D

 32 34  0  0  0  0  0  0  0  0999 V2000
   37.4560   27.9210   39.0180 C   0  0  0  0  0  0  0  0  0  0  0  0
   38.0820   29.0440   39.6090 C   0  0  0  0  0  0  0  0  0  0  0  0
   38.6590   29.9800   38.7840 C   0  0  0  0  0  0  0  0  0  0  0  0
   38.6010   29.7790   37.4460 N   0  0  0  0  0  0  0  0  0  0  0  0
   37.9920   28.6850   36.9140 C   0  0  0  0  0  0  0  0  0  0  0  0
   37.4230   27.7640   37.6980 N   0  0  0  0  0  0  0  0  0  0  0  0
   37.9640   28.4930   35.4980 N   0  0  0  0  0  0  0  0  0  0  0  0
   36.9940   27.1750   39.6580 H   0  0  0  0  0  0  0  0  0  0  0  0
   38.2290   27.5080   35.2080 H   0  0  0  0  0  0  0  0  0  0  0  0
   37.7180   29.2060   34.7760 H   0  0  0  0  0  0  0  0  0  0  0  0
   39.3180   31.1630   39.2490 C   0  0  0  0  0  0  0  0  0  0  0  0
   40.6590   31.0560   39.6160 C   0  0  0  0  0  0  0  0  0  0  0  0
   41.4070   32.1370   40.0740 C   0  0  0  0  0  0  0  0  0  0  0  0
   40.7960   33.3800   40.1730 C   0  0  0  0  0  0  0  0  0  0  0  0
   39.4820   33.4910   39.8160 C   0  0  0  0  0  0  0  0  0  0  0  0
   38.7360   32.3990   39.3550 C   0  0  0  0  0  0  0  0  0  0  0  0
   41.1920   30.1090   39.5600 H   0  0  0  0  0  0  0  0  0  0  0  0
   42.4470   32.0310   40.3520 H   0  0  0  0  0  0  0  0  0  0  0  0
   41.3270   34.2440   40.5190 H   0  0  0  0  0  0  0  0  0  0  0  0
   38.9780   34.4580   39.8840 H   0  0  0  0  0  0  0  0  0  0  0  0
   37.3260   32.5420   38.9690 C   0  0  0  0  0  0  0  0  0  0  0  0
   37.2330   32.3310   37.5970 F   0  0  0  0  0  0  0  0  0  0  0  0
   36.8900   33.8120   39.2860 F   0  0  0  0  0  0  0  0  0  0  0  0
   36.4780   31.6710   39.6080 F   0  0  0  0  0  0  0  0  0  0  0  0
   38.1000   29.0960   41.0610 C   0  0  0  0  0  0  0  0  0  0  0  0
   38.9450   29.0050   42.1440 C   0  0  0  0  0  0  0  0  0  0  0  0
   39.9920   28.8310   41.8450 H   0  0  0  0  0  0  0  0  0  0  0  0
   38.1860   29.1670   43.2810 C   0  0  0  0  0  0  0  0  0  0  0  0
   38.7370   29.1160   44.2230 H   0  0  0  0  0  0  0  0  0  0  0  0
   36.9040   29.3520   42.8990 N   0  0  0  0  0  0  0  0  0  0  0  0
   36.1780   29.4930   43.6310 H   0  0  0  0  0  0  0  0  0  0  0  0
   36.8530   29.3100   41.5690 N   0  0  0  0  0  0  0  0  0  0  0  0
  1  2  1  0  0  0  0
  1  8  1  0  0  0  0
  2 25  1  0  0  0  0
  3 11  1  0  0  0  0
  3  2  2  0  0  0  0
  4  3  1  0  0  0  0
  5  4  2  0  0  0  0
  5  6  1  0  0  0  0
  6  1  2  0  0  0  0
  7  5  1  0  0  0  0
  9  7  1  0  0  0  0
 10  7  1  0  0  0  0
 11 16  2  0  0  0  0
 11 12  1  0  0  0  0
 12 13  2  0  0  0  0
 13 14  1  0  0  0  0
 13 18  1  0  0  0  0
 14 19  1  0  0  0  0
 15 20  1  0  0  0  0
 15 14  2  0  0  0  0
 16 15  1  0  0  0  0
 17 12  1  0  0  0  0
 21 23  1  0  0  0  0
 21 16  1  0  0  0  0
 21 24  1  0  0  0  0
 22 21  1  0  0  0  0
 25 32  2  0  0  0  0
 25 26  1  0  0  0  0
 26 28  2  0  0  0  0
 27 26  1  0  0  0  0
 28 29  1  0  0  0  0
 30 28  1  0  0  0  0
 30 31  1  0  0  0  0
 32 30  1  0  0  0  0
M  END
>  <minimizedAffinity>
-5.63637114

$$$$

 OpenBabel03252505373D

 32 34  0  0  0  0  0  0  0  0999 V2000
   39.2970   31.2360   40.2570 C   0  0  0  0  0  0  0  0  0  0  0  0
   38.6560   29.9770   40.1980 C   0  0  0  0  0  0  0  0  0  0  0  0
   38.2930   29.4840   38.9660 C   0  0  0  0  0  0  0  0  0  0  0  0
   38.5670   30.2320   37.8700 N   0  0  0  0  0  0  0  0  0  0  0  0
   39.1830   31.4410   37.9670 C   0  0  0  0  0  0  0  0  0  0  0  0
   39.5460   31.9370   39.1540 N   0  0  0  0  0  0  0  0  0  0  0  0
   39.4410   32.2140   36.7930 N   0  0  0  0  0  0  0  0  0  0  0  0
   39.5900   31.6360   41.2230 H   0  0  0  0  0  0  0  0  0  0  0  0
   39.1650   33.2320   36.8970 H   0  0  0  0  0  0  0  0  0  0  0  0
   39.8550   31.8700   35.8980 H   0  0  0  0  0  0  0  0  0  0  0  0
   37.6450   28.2240   38.7640 C   0  0  0  0  0  0  0  0  0  0  0  0
   38.4390   27.0780   38.7660 C   0  0  0  0  0  0  0  0  0  0  0  0
   37.9220   25.7980   38.5890 C   0  0  0  0  0  0  0  0  0  0  0  0
   36.5550   25.6490   38.4010 C   0  0  0  0  0  0  0  0  0  0  0  0
   35.7710   26.7670   38.3980 C   0  0  0  0  0  0  0  0  0  0  0  0
   36.2980   28.0520   38.5770 C   0  0  0  0  0  0  0  0  0  0  0  0
   39.5170   27.1320   38.9070 H   0  0  0  0  0  0  0  0  0  0  0  0
   38.5580   24.9230   38.5940 H   0  0  0  0  0  0  0  0  0  0  0  0
   36.1060   24.6850   38.2610 H   0  0  0  0  0  0  0  0  0  0  0  0
   34.6920   26.6770   38.2530 H   0  0  0  0  0  0  0  0  0  0  0  0
   35.4360   29.2410   38.5790 C   0  0  0  0  0  0  0  0  0  0  0  0
   34.1130   28.8140   38.6320 F   0  0  0  0  0  0  0  0  0  0  0  0
   35.6570   29.9690   37.4280 F   0  0  0  0  0  0  0  0  0  0  0  0
   35.6650   30.0990   39.6280 F   0  0  0  0  0  0  0  0  0  0  0  0
   38.3910   29.3150   41.4650 C   0  0  0  0  0  0  0  0  0  0  0  0
   38.8300   28.2890   42.2710 C   0  0  0  0  0  0  0  0  0  0  0  0
   39.6870   27.7500   41.8320 H   0  0  0  0  0  0  0  0  0  0  0  0
   38.0340   28.2680   43.3930 C   0  0  0  0  0  0  0  0  0  0  0  0
   38.2740   27.4930   44.1230 H   0  0  0  0  0  0  0  0  0  0  0  0
   37.1270   29.2630   43.2740 N   0  0  0  0  0  0  0  0  0  0  0  0
   36.4330   29.4030   44.0360 H   0  0  0  0  0  0  0  0  0  0  0  0
   37.3420   29.8900   42.1190 N   0  0  0  0  0  0  0  0  0  0  0  0
  1  8  1  0  0  0  0
  2  1  1  0  0  0  0
  2 25  1  0  0  0  0
  3  2  2  0  0  0  0
  4  5  2  0  0  0  0
  4  3  1  0  0  0  0
  5  6  1  0  0  0  0
  6  1  2  0  0  0  0
  7  9  1  0  0  0  0
  7  5  1  0  0  0  0
 10  7  1  0  0  0  0
 11 12  1  0  0  0  0
 11  3  1  0  0  0  0
 12 17  1  0  0  0  0
 13 18  1  0  0  0  0
 13 12  2  0  0  0  0
 14 13  1  0  0  0  0
 15 14  2  0  0  0  0
 15 16  1  0  0  0  0
 16 21  1  0  0  0  0
 16 11  2  0  0  0  0
 19 14  1  0  0  0  0
 20 15  1  0  0  0  0
 21 22  1  0  0  0  0
 21 24  1  0  0  0  0
 23 21  1  0  0  0  0
 25 32  2  0  0  0  0
 25 26  1  0  0  0  0
 26 28  2  0  0  0  0
 27 26  1  0  0  0  0
 28 29  1  0  0  0  0
 30 28  1  0  0  0  0
 30 31  1  0  0  0  0
 32 30  1  0  0  0  0
M  END
>  <minimizedAffinity>
-5.52671099

$$$$

 OpenBabel03252505373D

 32 34  0  0  0  0  0  0  0  0999 V2000
   37.7460   30.7730   38.0880 C   0  0  0  0  0  0  0  0  0  0  0  0
   37.8130   29.7950   39.1080 C   0  0  0  0  0  0  0  0  0  0  0  0
   37.5760   30.1850   40.4050 C   0  0  0  0  0  0  0  0  0  0  0  0
   37.2920   31.4880   40.6420 N   0  0  0  0  0  0  0  0  0  0  0  0
   37.2380   32.4010   39.6340 C   0  0  0  0  0  0  0  0  0  0  0  0
   37.4630   32.0430   38.3660 N   0  0  0  0  0  0  0  0  0  0  0  0
   36.9540   33.7720   39.9190 N   0  0  0  0  0  0  0  0  0  0  0  0
   37.9290   30.4780   37.0590 H   0  0  0  0  0  0  0  0  0  0  0  0
   37.6130   34.4430   39.4290 H   0  0  0  0  0  0  0  0  0  0  0  0
   36.1940   34.1370   40.5350 H   0  0  0  0  0  0  0  0  0  0  0  0
   37.6070   29.2980   41.5290 C   0  0  0  0  0  0  0  0  0  0  0  0
   36.4820   28.5080   41.7620 C   0  0  0  0  0  0  0  0  0  0  0  0
   36.3980   27.6030   42.8170 C   0  0  0  0  0  0  0  0  0  0  0  0
   37.4790   27.4780   43.6780 C   0  0  0  0  0  0  0  0  0  0  0  0
   38.5840   28.2500   43.4560 C   0  0  0  0  0  0  0  0  0  0  0  0
   38.6610   29.1570   42.3930 C   0  0  0  0  0  0  0  0  0  0  0  0
   35.6050   28.5620   41.1210 H   0  0  0  0  0  0  0  0  0  0  0  0
   35.5160   26.9990   42.9780 H   0  0  0  0  0  0  0  0  0  0  0  0
   37.4660   26.7960   44.5050 H   0  0  0  0  0  0  0  0  0  0  0  0
   39.4480   28.1690   44.1190 H   0  0  0  0  0  0  0  0  0  0  0  0
   39.8620   29.9720   42.1660 C   0  0  0  0  0  0  0  0  0  0  0  0
   40.9050   29.4170   42.9000 F   0  0  0  0  0  0  0  0  0  0  0  0
   39.6230   31.2670   42.5820 F   0  0  0  0  0  0  0  0  0  0  0  0
   40.2450   30.0550   40.8490 F   0  0  0  0  0  0  0  0  0  0  0  0
   38.1730   28.4470   38.7010 C   0  0  0  0  0  0  0  0  0  0  0  0
   39.2150   27.5470   38.7110 C   0  0  0  0  0  0  0  0  0  0  0  0
   40.1190   27.9590   39.1900 H   0  0  0  0  0  0  0  0  0  0  0  0
   38.7780   26.3930   38.1020 C   0  0  0  0  0  0  0  0  0  0  0  0
   39.5120   25.5880   38.0410 H   0  0  0  0  0  0  0  0  0  0  0  0
   37.4930   26.5860   37.7280 N   0  0  0  0  0  0  0  0  0  0  0  0
   36.9900   25.8130   37.2470 H   0  0  0  0  0  0  0  0  0  0  0  0
   37.1320   27.8160   38.0870 N   0  0  0  0  0  0  0  0  0  0  0  0
  1  6  2  0  0  0  0
  1  2  1  0  0  0  0
  2  3  2  0  0  0  0
  3  4  1  0  0  0  0
  3 11  1  0  0  0  0
  5  7  1  0  0  0  0
  5  4  2  0  0  0  0
  6  5  1  0  0  0  0
  7 10  1  0  0  0  0
  8  1  1  0  0  0  0
  9  7  1  0  0  0  0
 11 12  2  0  0  0  0
 11 16  1  0  0  0  0
 12 13  1  0  0  0  0
 13 18  1  0  0  0  0
 13 14  2  0  0  0  0
 14 19  1  0  0  0  0
 15 14  1  0  0  0  0
 15 20  1  0  0  0  0
 16 15  2  0  0  0  0
 17 12  1  0  0  0  0
 21 16  1  0  0  0  0
 21 23  1  0  0  0  0
 21 22  1  0  0  0  0
 24 21  1  0  0  0  0
 25 26  1  0  0  0  0
 25  2  1  0  0  0  0
 26 27  1  0  0  0  0
 28 26  2  0  0  0  0
 29 28  1  0  0  0  0
 30 32  1  0  0  0  0
 30 28  1  0  0  0  0
 31 30  1  0  0  0  0
 32 25  2  0  0  0  0
M  END
>  <minimizedAffinity>
-5.39819098

$$$$

 OpenBabel03252505373D

 32 34  0  0  0  0  0  0  0  0999 V2000
   37.0320   32.4310   38.8630 C   0  0  0  0  0  0  0  0  0  0  0  0
   37.2750   31.0390   38.9400 C   0  0  0  0  0  0  0  0  0  0  0  0
   38.1320   30.5770   39.9110 C   0  0  0  0  0  0  0  0  0  0  0  0
   38.7020   31.4790   40.7450 N   0  0  0  0  0  0  0  0  0  0  0  0
   38.4460   32.8110   40.6390 C   0  0  0  0  0  0  0  0  0  0  0  0
   37.6140   33.2810   39.7040 N   0  0  0  0  0  0  0  0  0  0  0  0
   39.0780   33.7390   41.5230 N   0  0  0  0  0  0  0  0  0  0  0  0
   36.3560   32.8090   38.1020 H   0  0  0  0  0  0  0  0  0  0  0  0
   39.4830   34.5810   41.0220 H   0  0  0  0  0  0  0  0  0  0  0  0
   39.1650   33.6530   42.5600 H   0  0  0  0  0  0  0  0  0  0  0  0
   38.4600   29.1970   40.1010 C   0  0  0  0  0  0  0  0  0  0  0  0
   39.5030   28.6670   39.3420 C   0  0  0  0  0  0  0  0  0  0  0  0
   39.9180   27.3420   39.4460 C   0  0  0  0  0  0  0  0  0  0  0  0
   39.2690   26.5060   40.3440 C   0  0  0  0  0  0  0  0  0  0  0  0
   38.2470   27.0190   41.0910 C   0  0  0  0  0  0  0  0  0  0  0  0
   37.8350   28.3520   40.9810 C   0  0  0  0  0  0  0  0  0  0  0  0
   40.0480   29.2730   38.6220 H   0  0  0  0  0  0  0  0  0  0  0  0
   40.7300   26.9530   38.8470 H   0  0  0  0  0  0  0  0  0  0  0  0
   39.5500   25.4790   40.4640 H   0  0  0  0  0  0  0  0  0  0  0  0
   37.7210   26.3820   41.8050 H   0  0  0  0  0  0  0  0  0  0  0  0
   36.7380   28.8860   41.7990 C   0  0  0  0  0  0  0  0  0  0  0  0
   37.2800   29.7850   42.7130 F   0  0  0  0  0  0  0  0  0  0  0  0
   36.1140   27.8490   42.4640 F   0  0  0  0  0  0  0  0  0  0  0  0
   35.7590   29.5260   41.0790 F   0  0  0  0  0  0  0  0  0  0  0  0
   36.6230   30.2040   37.9450 C   0  0  0  0  0  0  0  0  0  0  0  0
   35.5970   29.3000   37.7850 C   0  0  0  0  0  0  0  0  0  0  0  0
   35.0510   29.1160   38.7250 H   0  0  0  0  0  0  0  0  0  0  0  0
   35.5860   28.9090   36.4660 C   0  0  0  0  0  0  0  0  0  0  0  0
   34.8130   28.1850   36.1980 H   0  0  0  0  0  0  0  0  0  0  0  0
   36.5860   29.5620   35.8330 N   0  0  0  0  0  0  0  0  0  0  0  0
   36.7330   29.3910   34.8170 H   0  0  0  0  0  0  0  0  0  0  0  0
   37.2060   30.3370   36.7200 N   0  0  0  0  0  0  0  0  0  0  0  0
  1  2  2  0  0  0  0
  1  6  1  0  0  0  0
  2  3  1  0  0  0  0
  3 11  1  0  0  0  0
  3  4  2  0  0  0  0
  5  4  1  0  0  0  0
  5  7  1  0  0  0  0
  6  5  2  0  0  0  0
  7 10  1  0  0  0  0
  8  1  1  0  0  0  0
  9  7  1  0  0  0  0
 11 16  1  0  0  0  0
 12 13  1  0  0  0  0
 12 11  2  0  0  0  0
 13 14  2  0  0  0  0
 14 19  1  0  0  0  0
 14 15  1  0  0  0  0
 15 20  1  0  0  0  0
 16 15  2  0  0  0  0
 16 21  1  0  0  0  0
 17 12  1  0  0  0  0
 18 13  1  0  0  0  0
 21 23  1  0  0  0  0
 21 22  1  0  0  0  0
 24 21  1  0  0  0  0
 25  2  1  0  0  0  0
 26 25  1  0  0  0  0
 26 27  1  0  0  0  0
 28 26  2  0  0  0  0
 29 28  1  0  0  0  0
 30 28  1  0  0  0  0
 30 32  1  0  0  0  0
 31 30  1  0  0  0  0
 32 25  2  0  0  0  0
M  END
>  <minimizedAffinity>
-5.37182045

$$$$

 OpenBabel03252505373D

 32 34  0  0  0  0  0  0  0  0999 V2000
   37.4190   30.4960   37.3620 C   0  0  0  0  0  0  0  0  0  0  0  0
   37.9410   30.3450   38.6690 C   0  0  0  0  0  0  0  0  0  0  0  0
   38.1900   29.0750   39.1330 C   0  0  0  0  0  0  0  0  0  0  0  0
   37.9210   28.0300   38.3140 N   0  0  0  0  0  0  0  0  0  0  0  0
   37.4170   28.2130   37.0640 C   0  0  0  0  0  0  0  0  0  0  0  0
   37.1700   29.4400   36.5930 N   0  0  0  0  0  0  0  0  0  0  0  0
   37.1270   27.0880   36.2320 N   0  0  0  0  0  0  0  0  0  0  0  0
   37.2190   31.4930   36.9830 H   0  0  0  0  0  0  0  0  0  0  0  0
   36.1750   27.1490   35.7680 H   0  0  0  0  0  0  0  0  0  0  0  0
   37.7440   26.2630   36.0600 H   0  0  0  0  0  0  0  0  0  0  0  0
   38.7210   28.7840   40.4290 C   0  0  0  0  0  0  0  0  0  0  0  0
   40.1070   28.7930   40.5790 C   0  0  0  0  0  0  0  0  0  0  0  0
   40.7390   28.5340   41.7920 C   0  0  0  0  0  0  0  0  0  0  0  0
   39.9600   28.2510   42.9060 C   0  0  0  0  0  0  0  0  0  0  0  0
   38.6010   28.2400   42.7650 C   0  0  0  0  0  0  0  0  0  0  0  0
   37.9730   28.5020   41.5420 C   0  0  0  0  0  0  0  0  0  0  0  0
   40.7700   29.0070   39.7430 H   0  0  0  0  0  0  0  0  0  0  0  0
   41.8170   28.5470   41.8860 H   0  0  0  0  0  0  0  0  0  0  0  0
   40.3960   28.0450   43.8630 H   0  0  0  0  0  0  0  0  0  0  0  0
   37.9660   28.0210   43.6260 H   0  0  0  0  0  0  0  0  0  0  0  0
   36.5100   28.4930   41.4150 C   0  0  0  0  0  0  0  0  0  0  0  0
   36.0800   29.8100   41.2880 F   0  0  0  0  0  0  0  0  0  0  0  0
   35.9540   27.9160   42.5390 F   0  0  0  0  0  0  0  0  0  0  0  0
   36.0440   27.7720   40.3410 F   0  0  0  0  0  0  0  0  0  0  0  0
   38.1340   31.5620   39.4410 C   0  0  0  0  0  0  0  0  0  0  0  0
   39.0860   32.2670   40.1440 C   0  0  0  0  0  0  0  0  0  0  0  0
   40.0650   31.7590   40.1460 H   0  0  0  0  0  0  0  0  0  0  0  0
   38.4880   33.4080   40.6280 C   0  0  0  0  0  0  0  0  0  0  0  0
   39.1360   34.0650   41.2110 H   0  0  0  0  0  0  0  0  0  0  0  0
   37.1970   33.3990   40.2280 N   0  0  0  0  0  0  0  0  0  0  0  0
   36.5820   34.1920   40.5030 H   0  0  0  0  0  0  0  0  0  0  0  0
   36.9860   32.2940   39.5170 N   0  0  0  0  0  0  0  0  0  0  0  0
  1  2  1  0  0  0  0
  2  3  2  0  0  0  0
  2 25  1  0  0  0  0
  3 11  1  0  0  0  0
  4  3  1  0  0  0  0
  5  4  2  0  0  0  0
  6  5  1  0  0  0  0
  6  1  2  0  0  0  0
  7  5  1  0  0  0  0
  8  1  1  0  0  0  0
  9  7  1  0  0  0  0
 10  7  1  0  0  0  0
 11 12  2  0  0  0  0
 11 16  1  0  0  0  0
 12 13  1  0  0  0  0
 13 18  1  0  0  0  0
 13 14  2  0  0  0  0
 14 19  1  0  0  0  0
 15 14  1  0  0  0  0
 15 20  1  0  0  0  0
 16 15  2  0  0  0  0
 17 12  1  0  0  0  0
 21 16  1  0  0  0  0
 21 23  1  0  0  0  0
 22 21  1  0  0  0  0
 24 21  1  0  0  0  0
 25 32  2  0  0  0  0
 25 26  1  0  0  0  0
 26 27  1  0  0  0  0
 26 28  2  0  0  0  0
 28 29  1  0  0  0  0
 30 31  1  0  0  0  0
 30 28  1  0  0  0  0
 32 30  1  0  0  0  0
M  END
>  <minimizedAffinity>
-5.22953558

$$$$

 OpenBabel03252505373D

 32 34  0  0  0  0  0  0  0  0999 V2000
   37.1930   28.0920   38.6290 C   0  0  0  0  0  0  0  0  0  0  0  0
   37.6250   29.2840   39.2580 C   0  0  0  0  0  0  0  0  0  0  0  0
   37.9360   30.3650   38.4680 C   0  0  0  0  0  0  0  0  0  0  0  0
   37.8160   30.2340   37.1250 N   0  0  0  0  0  0  0  0  0  0  0  0
   37.4000   29.0710   36.5560 C   0  0  0  0  0  0  0  0  0  0  0  0
   37.0900   28.0080   37.3050 N   0  0  0  0  0  0  0  0  0  0  0  0
   37.3020   28.9590   35.1340 N   0  0  0  0  0  0  0  0  0  0  0  0
   36.9420   27.2310   39.2410 H   0  0  0  0  0  0  0  0  0  0  0  0
   37.7360   28.0680   34.7570 H   0  0  0  0  0  0  0  0  0  0  0  0
   36.8630   29.6470   34.4830 H   0  0  0  0  0  0  0  0  0  0  0  0
   38.3780   31.6290   38.9750 C   0  0  0  0  0  0  0  0  0  0  0  0
   37.4060   32.5330   39.4000 C   0  0  0  0  0  0  0  0  0  0  0  0
   37.7140   33.7870   39.9190 C   0  0  0  0  0  0  0  0  0  0  0  0
   39.0470   34.1610   40.0190 C   0  0  0  0  0  0  0  0  0  0  0  0
   40.0040   33.2800   39.6040 C   0  0  0  0  0  0  0  0  0  0  0  0
   39.6870   32.0200   39.0840 C   0  0  0  0  0  0  0  0  0  0  0  0
   36.3450   32.2970   39.3450 H   0  0  0  0  0  0  0  0  0  0  0  0
   36.9420   34.4730   40.2430 H   0  0  0  0  0  0  0  0  0  0  0  0
   39.3380   35.1150   40.4120 H   0  0  0  0  0  0  0  0  0  0  0  0
   41.0600   33.5500   39.6730 H   0  0  0  0  0  0  0  0  0  0  0  0
   40.7330   31.0840   38.6500 C   0  0  0  0  0  0  0  0  0  0  0  0
   41.9630   31.5990   39.0450 F   0  0  0  0  0  0  0  0  0  0  0  0
   40.6900   30.9520   37.2770 F   0  0  0  0  0  0  0  0  0  0  0  0
   40.6010   29.8170   39.1640 F   0  0  0  0  0  0  0  0  0  0  0  0
   37.7440   29.2530   40.7060 C   0  0  0  0  0  0  0  0  0  0  0  0
   38.6590   29.0810   41.7210 C   0  0  0  0  0  0  0  0  0  0  0  0
   39.6770   28.8970   41.3390 H   0  0  0  0  0  0  0  0  0  0  0  0
   37.9860   29.1980   42.9150 C   0  0  0  0  0  0  0  0  0  0  0  0
   38.5990   29.0820   43.8110 H   0  0  0  0  0  0  0  0  0  0  0  0
   36.6860   29.4370   42.6350 N   0  0  0  0  0  0  0  0  0  0  0  0
   36.0170   29.5560   43.4230 H   0  0  0  0  0  0  0  0  0  0  0  0
   36.5420   29.4700   41.3120 N   0  0  0  0  0  0  0  0  0  0  0  0
  1  8  1  0  0  0  0
  1  2  1  0  0  0  0
  2 25  1  0  0  0  0
  3 11  1  0  0  0  0
  3  2  2  0  0  0  0
  4  3  1  0  0  0  0
  5  4  2  0  0  0  0
  5  6  1  0  0  0  0
  6  1  2  0  0  0  0
  7  5  1  0  0  0  0
  9  7  1  0  0  0  0
 10  7  1  0  0  0  0
 11 16  2  0  0  0  0
 11 12  1  0  0  0  0
 12 13  2  0  0  0  0
 13 14  1  0  0  0  0
 13 18  1  0  0  0  0
 14 19  1  0  0  0  0
 15 20  1  0  0  0  0
 15 14  2  0  0  0  0
 16 15  1  0  0  0  0
 17 12  1  0  0  0  0
 21 22  1  0  0  0  0
 21 16  1  0  0  0  0
 21 24  1  0  0  0  0
 23 21  1  0  0  0  0
 25 32  2  0  0  0  0
 25 26  1  0  0  0  0
 26 28  2  0  0  0  0
 27 26  1  0  0  0  0
 28 29  1  0  0  0  0
 30 28  1  0  0  0  0
 30 31  1  0  0  0  0
 32 30  1  0  0  0  0
M  END
>  <minimizedAffinity>
-5.16675282

$$$$

 OpenBabel03252505373D

 32 34  0  0  0  0  0  0  0  0999 V2000
   37.3970   30.8070   39.5040 C   0  0  0  0  0  0  0  0  0  0  0  0
   37.4180   29.4170   39.7710 C   0  0  0  0  0  0  0  0  0  0  0  0
   38.3100   28.9430   40.7030 C   0  0  0  0  0  0  0  0  0  0  0  0
   39.1270   29.8310   41.3190 N   0  0  0  0  0  0  0  0  0  0  0  0
   39.0800   31.1610   41.0350 C   0  0  0  0  0  0  0  0  0  0  0  0
   38.2180   31.6430   40.1330 N   0  0  0  0  0  0  0  0  0  0  0  0
   39.9680   32.0690   41.6890 N   0  0  0  0  0  0  0  0  0  0  0  0
   36.6960   31.1950   38.7710 H   0  0  0  0  0  0  0  0  0  0  0  0
   40.4340   32.7480   41.0200 H   0  0  0  0  0  0  0  0  0  0  0  0
   40.1780   32.1100   42.7110 H   0  0  0  0  0  0  0  0  0  0  0  0
   38.4310   27.5650   41.0710 C   0  0  0  0  0  0  0  0  0  0  0  0
   39.3750   26.7940   40.3940 C   0  0  0  0  0  0  0  0  0  0  0  0
   39.5900   25.4460   40.6690 C   0  0  0  0  0  0  0  0  0  0  0  0
   38.8330   24.8370   41.6610 C   0  0  0  0  0  0  0  0  0  0  0  0
   37.9060   25.5870   42.3280 C   0  0  0  0  0  0  0  0  0  0  0  0
   37.6960   26.9420   42.0460 C   0  0  0  0  0  0  0  0  0  0  0  0
   39.9970   27.2150   39.6070 H   0  0  0  0  0  0  0  0  0  0  0  0
   40.3280   24.8670   40.1310 H   0  0  0  0  0  0  0  0  0  0  0  0
   38.9590   23.8020   41.9130 H   0  0  0  0  0  0  0  0  0  0  0  0
   37.2990   25.1310   43.1130 H   0  0  0  0  0  0  0  0  0  0  0  0
   36.7000   27.7330   42.7800 C   0  0  0  0  0  0  0  0  0  0  0  0
   37.3690   28.7500   43.4550 F   0  0  0  0  0  0  0  0  0  0  0  0
   36.0400   26.9190   43.6790 F   0  0  0  0  0  0  0  0  0  0  0  0
   35.7310   28.2950   41.9850 F   0  0  0  0  0  0  0  0  0  0  0  0
   36.5100   28.5880   38.9960 C   0  0  0  0  0  0  0  0  0  0  0  0
   36.4260   27.3760   38.3470 C   0  0  0  0  0  0  0  0  0  0  0  0
   37.3630   26.7990   38.4170 H   0  0  0  0  0  0  0  0  0  0  0  0
   35.1640   27.2770   37.8080 C   0  0  0  0  0  0  0  0  0  0  0  0
   34.9600   26.3550   37.2600 H   0  0  0  0  0  0  0  0  0  0  0  0
   34.4910   28.4060   38.1220 N   0  0  0  0  0  0  0  0  0  0  0  0
   33.5090   28.5120   37.7950 H   0  0  0  0  0  0  0  0  0  0  0  0
   35.2980   29.1900   38.8340 N   0  0  0  0  0  0  0  0  0  0  0  0
  1  2  2  0  0  0  0
  1  6  1  0  0  0  0
  2  3  1  0  0  0  0
  3 11  1  0  0  0  0
  3  4  2  0  0  0  0
  5  4  1  0  0  0  0
  5  7  1  0  0  0  0
  6  5  2  0  0  0  0
  7 10  1  0  0  0  0
  8  1  1  0  0  0  0
  9  7  1  0  0  0  0
 11 16  1  0  0  0  0
 12 13  1  0  0  0  0
 12 11  2  0  0  0  0
 13 14  2  0  0  0  0
 14 19  1  0  0  0  0
 14 15  1  0  0  0  0
 15 20  1  0  0  0  0
 16 15  2  0  0  0  0
 16 21  1  0  0  0  0
 17 12  1  0  0  0  0
 18 13  1  0  0  0  0
 21 22  1  0  0  0  0
 21 23  1  0  0  0  0
 24 21  1  0  0  0  0
 25  2  1  0  0  0  0
 26 27  1  0  0  0  0
 26 25  1  0  0  0  0
 28 30  1  0  0  0  0
 28 26  2  0  0  0  0
 29 28  1  0  0  0  0
 30 32  1  0  0  0  0
 31 30  1  0  0  0  0
 32 25  2  0  0  0  0
M  END
>  <minimizedAffinity>
-5.16030121

$$$$

 OpenBabel03252505373D

 32 34  0  0  0  0  0  0  0  0999 V2000
   35.9540   28.9900   37.8450 C   0  0  0  0  0  0  0  0  0  0  0  0
   36.8540   29.2980   38.8930 C   0  0  0  0  0  0  0  0  0  0  0  0
   37.4890   28.2620   39.5360 C   0  0  0  0  0  0  0  0  0  0  0  0
   37.2200   26.9970   39.1350 N   0  0  0  0  0  0  0  0  0  0  0  0
   36.3460   26.7380   38.1250 C   0  0  0  0  0  0  0  0  0  0  0  0
   35.7190   27.7310   37.4850 N   0  0  0  0  0  0  0  0  0  0  0  0
   36.0690   25.3910   37.7380 N   0  0  0  0  0  0  0  0  0  0  0  0
   35.4470   29.7980   37.3280 H   0  0  0  0  0  0  0  0  0  0  0  0
   35.0330   25.1960   37.6240 H   0  0  0  0  0  0  0  0  0  0  0  0
   36.7680   24.6330   37.5710 H   0  0  0  0  0  0  0  0  0  0  0  0
   38.4250   28.4340   40.6050 C   0  0  0  0  0  0  0  0  0  0  0  0
   39.7200   28.8330   40.2760 C   0  0  0  0  0  0  0  0  0  0  0  0
   40.7130   29.0410   41.2290 C   0  0  0  0  0  0  0  0  0  0  0  0
   40.4070   28.8430   42.5690 C   0  0  0  0  0  0  0  0  0  0  0  0
   39.1400   28.4520   42.8980 C   0  0  0  0  0  0  0  0  0  0  0  0
   38.1470   28.2450   41.9340 C   0  0  0  0  0  0  0  0  0  0  0  0
   40.0190   29.0020   39.2440 H   0  0  0  0  0  0  0  0  0  0  0  0
   41.7110   29.3510   40.9510 H   0  0  0  0  0  0  0  0  0  0  0  0
   41.1350   28.9910   43.3420 H   0  0  0  0  0  0  0  0  0  0  0  0
   38.8740   28.2910   43.9450 H   0  0  0  0  0  0  0  0  0  0  0  0
   36.7880   27.8330   42.3100 C   0  0  0  0  0  0  0  0  0  0  0  0
   36.6400   28.0320   43.6790 F   0  0  0  0  0  0  0  0  0  0  0  0
   36.6110   26.4990   42.0000 F   0  0  0  0  0  0  0  0  0  0  0  0
   35.7920   28.5160   41.6560 F   0  0  0  0  0  0  0  0  0  0  0  0
   37.0040   30.7030   39.2350 C   0  0  0  0  0  0  0  0  0  0  0  0
   36.8880   31.5860   40.2850 C   0  0  0  0  0  0  0  0  0  0  0  0
   36.5680   31.0900   41.2160 H   0  0  0  0  0  0  0  0  0  0  0  0
   37.2180   32.8370   39.8160 C   0  0  0  0  0  0  0  0  0  0  0  0
   37.1680   33.6420   40.5520 H   0  0  0  0  0  0  0  0  0  0  0  0
   37.5300   32.7180   38.5070 N   0  0  0  0  0  0  0  0  0  0  0  0
   37.8080   33.5710   37.9780 H   0  0  0  0  0  0  0  0  0  0  0  0
   37.4020   31.4400   38.1600 N   0  0  0  0  0  0  0  0  0  0  0  0
  1  2  1  0  0  0  0
  2 25  1  0  0  0  0
  2  3  2  0  0  0  0
  3 11  1  0  0  0  0
  4  3  1  0  0  0  0
  5  4  2  0  0  0  0
  6  1  2  0  0  0  0
  6  5  1  0  0  0  0
  7  5  1  0  0  0  0
  8  1  1  0  0  0  0
  9  7  1  0  0  0  0
 10  7  1  0  0  0  0
 11 16  1  0  0  0  0
 12 11  2  0  0  0  0
 12 13  1  0  0  0  0
 13 14  2  0  0  0  0
 14 15  1  0  0  0  0
 14 19  1  0  0  0  0
 15 20  1  0  0  0  0
 16 21  1  0  0  0  0
 16 15  2  0  0  0  0
 17 12  1  0  0  0  0
 18 13  1  0  0  0  0
 21 22  1  0  0  0  0
 23 21  1  0  0  0  0
 24 21  1  0  0  0  0
 25 26  1  0  0  0  0
 26 27  1  0  0  0  0
 28 26  2  0  0  0  0
 28 29  1  0  0  0  0
 30 28  1  0  0  0  0
 31 30  1  0  0  0  0
 32 30  1  0  0  0  0
 32 25  2  0  0  0  0
M  END
>  <minimizedAffinity>
-5.14447308

$$$$
