
 OpenBabel03252504433D

 44 47  0  0  0  0  0  0  0  0999 V2000
   37.5300   31.7340   40.2630 C   0  0  0  0  0  0  0  0  0  0  0  0
   37.2150   32.5960   39.2560 C   0  0  0  0  0  0  0  0  0  0  0  0
   38.3680   33.1040   38.8220 N   0  0  0  0  0  0  0  0  0  0  0  0
   39.4000   32.6050   39.5060 C   0  0  0  0  0  0  0  0  0  0  0  0
   38.8690   31.7440   40.4120 N   0  0  0  0  0  0  0  0  0  0  0  0
   40.8090   32.8410   39.4080 N   0  0  0  0  0  0  0  0  0  0  0  0
   41.5880   31.9900   38.4890 C   0  0  0  0  0  0  0  0  0  0  0  0
   41.8610   32.8740   37.2760 C   0  0  0  0  0  0  0  0  0  0  0  0
   42.3670   34.2340   37.7300 C   0  0  0  0  0  0  0  0  0  0  0  0
   42.8380   34.1370   39.1760 C   0  0  0  0  0  0  0  0  0  0  0  0
   41.6660   33.7850   40.0540 C   0  0  0  0  0  0  0  0  0  0  0  0
   36.2240   32.8330   38.8720 H   0  0  0  0  0  0  0  0  0  0  0  0
   38.4800   33.8010   38.0510 H   0  0  0  0  0  0  0  0  0  0  0  0
   40.9530   31.1390   38.1160 H   0  0  0  0  0  0  0  0  0  0  0  0
   42.5170   31.6270   38.9390 H   0  0  0  0  0  0  0  0  0  0  0  0
   40.9520   32.9510   36.6530 H   0  0  0  0  0  0  0  0  0  0  0  0
   42.6430   32.3580   36.6780 H   0  0  0  0  0  0  0  0  0  0  0  0
   43.2570   34.5390   37.1290 H   0  0  0  0  0  0  0  0  0  0  0  0
   41.5240   34.9310   37.6710 H   0  0  0  0  0  0  0  0  0  0  0  0
   43.6500   33.3720   39.2510 H   0  0  0  0  0  0  0  0  0  0  0  0
   43.2840   35.1260   39.4090 H   0  0  0  0  0  0  0  0  0  0  0  0
   42.0260   33.2890   40.9980 H   0  0  0  0  0  0  0  0  0  0  0  0
   41.1330   34.7230   40.3130 H   0  0  0  0  0  0  0  0  0  0  0  0
   36.5690   30.9160   41.0690 C   0  0  0  0  0  0  0  0  0  0  0  0
   36.3500   31.3850   42.0650 H   0  0  0  0  0  0  0  0  0  0  0  0
   35.6290   30.8550   40.4920 H   0  0  0  0  0  0  0  0  0  0  0  0
   37.1790   28.9480   42.4260 C   0  0  0  0  0  3  0  0  0  0  0  0
   37.0800   29.5350   41.2460 C   0  0  0  0  0  3  0  0  0  0  0  0
   37.7030   27.5750   42.4610 C   0  0  0  0  0  0  0  0  0  0  0  0
   36.8650   26.4600   42.2120 C   0  0  0  0  0  0  0  0  0  0  0  0
   37.4570   25.2040   42.2670 C   0  0  0  0  0  0  0  0  0  0  0  0
   38.7610   25.0920   42.5480 N   0  0  0  0  0  0  0  0  0  0  0  0
   39.5410   26.1710   42.7820 C   0  0  0  0  0  0  0  0  0  0  0  0
   39.0240   27.3870   42.7400 N   0  0  0  0  0  0  0  0  0  0  0  0
   35.8190   26.6440   41.9930 H   0  0  0  0  0  0  0  0  0  0  0  0
   36.8070   24.3590   42.0750 H   0  0  0  0  0  0  0  0  0  0  0  0
   40.9570   25.9560   43.0800 C   0  0  0  0  0  0  0  0  0  0  0  0
   41.8530   26.9100   43.5530 C   0  0  0  0  0  0  0  0  0  0  0  0
   41.6200   27.9450   43.7650 H   0  0  0  0  0  0  0  0  0  0  0  0
   43.0530   26.2410   43.6790 C   0  0  0  0  0  0  0  0  0  0  0  0
   43.9520   26.7630   44.0410 H   0  0  0  0  0  0  0  0  0  0  0  0
   42.8890   24.9460   43.3000 N   0  0  0  0  0  0  0  0  0  0  0  0
   43.7220   24.3210   43.3460 H   0  0  0  0  0  0  0  0  0  0  0  0
   41.6090   24.7860   42.9380 N   0  0  0  0  0  0  0  0  0  0  0  0
  1  5  1  0  0  0  0
  1 24  1  0  0  0  0
  2  1  2  0  0  0  0
  3  2  1  0  0  0  0
  3  4  1  0  0  0  0
  4  5  2  0  0  0  0
  6  4  1  0  0  0  0
  6 11  1  0  0  0  0
  7 15  1  0  0  0  0
  7  6  1  0  0  0  0
  8  9  1  0  0  0  0
  8  7  1  0  0  0  0
  9 10  1  0  0  0  0
 10 20  1  0  0  0  0
 10 21  1  0  0  0  0
 10 11  1  0  0  0  0
 11 23  1  0  0  0  0
 11 22  1  0  0  0  0
 12  2  1  0  0  0  0
 13  3  1  0  0  0  0
 14  7  1  0  0  0  0
 16  8  1  0  0  0  0
 17  8  1  0  0  0  0
 18  9  1  0  0  0  0
 19  9  1  0  0  0  0
 24 28  1  0  0  0  0
 24 25  1  0  0  0  0
 26 24  1  0  0  0  0
 27 29  1  0  0  0  0
 28 27  2  0  0  0  0
 29 34  1  0  0  0  0
 30 31  1  0  0  0  0
 30 29  2  0  0  0  0
 31 32  2  0  0  0  0
 32 33  1  0  0  0  0
 33 37  1  0  0  0  0
 34 33  2  0  0  0  0
 35 30  1  0  0  0  0
 36 31  1  0  0  0  0
 37 38  1  0  0  0  0
 38 40  2  0  0  0  0
 38 39  1  0  0  0  0
 40 41  1  0  0  0  0
 42 43  1  0  0  0  0
 42 40  1  0  0  0  0
 44 37  2  0  0  0  0
 44 42  1  0  0  0  0
M  END
>  <minimizedAffinity>
-6.1413641

$$$$

 OpenBabel03252504433D

 44 47  0  0  0  0  0  0  0  0999 V2000
   37.9620   31.8310   40.5940 C   0  0  0  0  0  0  0  0  0  0  0  0
   36.7110   31.3840   40.2890 C   0  0  0  0  0  0  0  0  0  0  0  0
   36.6250   30.1460   40.7760 N   0  0  0  0  0  0  0  0  0  0  0  0
   37.7620   29.7860   41.3760 C   0  0  0  0  0  0  0  0  0  0  0  0
   38.6010   30.8480   41.2590 N   0  0  0  0  0  0  0  0  0  0  0  0
   38.1470   28.5760   42.0360 N   0  0  0  0  0  0  0  0  0  0  0  0
   37.8760   28.4640   43.4820 C   0  0  0  0  0  0  0  0  0  0  0  0
   36.6630   27.5460   43.5830 C   0  0  0  0  0  0  0  0  0  0  0  0
   36.8700   26.3170   42.7100 C   0  0  0  0  0  0  0  0  0  0  0  0
   38.3490   26.1880   42.3680 C   0  0  0  0  0  0  0  0  0  0  0  0
   38.7740   27.3840   41.5580 C   0  0  0  0  0  0  0  0  0  0  0  0
   35.9290   31.9200   39.7550 H   0  0  0  0  0  0  0  0  0  0  0  0
   35.7920   29.5180   40.7120 H   0  0  0  0  0  0  0  0  0  0  0  0
   37.5480   29.4590   43.8930 H   0  0  0  0  0  0  0  0  0  0  0  0
   38.7300   28.0660   44.0390 H   0  0  0  0  0  0  0  0  0  0  0  0
   35.7460   28.1010   43.3150 H   0  0  0  0  0  0  0  0  0  0  0  0
   36.5820   27.2440   44.6490 H   0  0  0  0  0  0  0  0  0  0  0  0
   36.5950   25.3910   43.2690 H   0  0  0  0  0  0  0  0  0  0  0  0
   36.2990   26.4740   41.7890 H   0  0  0  0  0  0  0  0  0  0  0  0
   38.9420   26.1030   43.3120 H   0  0  0  0  0  0  0  0  0  0  0  0
   38.4440   25.2270   41.8220 H   0  0  0  0  0  0  0  0  0  0  0  0
   39.8830   27.5470   41.6630 H   0  0  0  0  0  0  0  0  0  0  0  0
   38.5330   27.1850   40.4930 H   0  0  0  0  0  0  0  0  0  0  0  0
   38.5360   33.1720   40.2560 C   0  0  0  0  0  0  0  0  0  0  0  0
   37.8820   33.7420   39.5450 H   0  0  0  0  0  0  0  0  0  0  0  0
   38.6130   33.7400   41.2000 H   0  0  0  0  0  0  0  0  0  0  0  0
   40.9730   33.5610   40.2710 C   0  0  0  0  0  3  0  0  0  0  0  0
   39.9050   33.0290   39.7030 C   0  0  0  0  0  3  0  0  0  0  0  0
   42.2710   33.3430   39.6180 C   0  0  0  0  0  0  0  0  0  0  0  0
   43.4340   34.0320   40.0410 C   0  0  0  0  0  0  0  0  0  0  0  0
   44.6130   33.7540   39.3590 C   0  0  0  0  0  0  0  0  0  0  0  0
   44.6110   32.8720   38.3530 N   0  0  0  0  0  0  0  0  0  0  0  0
   43.4870   32.2250   37.9670 C   0  0  0  0  0  0  0  0  0  0  0  0
   42.3410   32.4550   38.5850 N   0  0  0  0  0  0  0  0  0  0  0  0
   43.3440   34.7310   40.8650 H   0  0  0  0  0  0  0  0  0  0  0  0
   45.4950   34.2870   39.6910 H   0  0  0  0  0  0  0  0  0  0  0  0
   43.5760   31.2760   36.8580 C   0  0  0  0  0  0  0  0  0  0  0  0
   42.5820   30.3900   36.4500 C   0  0  0  0  0  0  0  0  0  0  0  0
   41.6050   30.2860   36.9030 H   0  0  0  0  0  0  0  0  0  0  0  0
   43.1260   29.7120   35.3790 C   0  0  0  0  0  0  0  0  0  0  0  0
   42.5490   28.9380   34.8520 H   0  0  0  0  0  0  0  0  0  0  0  0
   44.3870   30.1670   35.1510 N   0  0  0  0  0  0  0  0  0  0  0  0
   44.9190   29.7380   34.3630 H   0  0  0  0  0  0  0  0  0  0  0  0
   44.6470   31.1170   36.0580 N   0  0  0  0  0  0  0  0  0  0  0  0
  1  5  1  0  0  0  0
  2  1  2  0  0  0  0
  2  3  1  0  0  0  0
  3  4  1  0  0  0  0
  4  6  1  0  0  0  0
  5  4  2  0  0  0  0
  6  7  1  0  0  0  0
  7  8  1  0  0  0  0
  7 14  1  0  0  0  0
  7 15  1  0  0  0  0
  8 17  1  0  0  0  0
  9 18  1  0  0  0  0
  9  8  1  0  0  0  0
 10  9  1  0  0  0  0
 10 20  1  0  0  0  0
 11 22  1  0  0  0  0
 11  6  1  0  0  0  0
 11 10  1  0  0  0  0
 12  2  1  0  0  0  0
 13  3  1  0  0  0  0
 16  8  1  0  0  0  0
 19  9  1  0  0  0  0
 21 10  1  0  0  0  0
 23 11  1  0  0  0  0
 24  1  1  0  0  0  0
 24 26  1  0  0  0  0
 25 24  1  0  0  0  0
 28 24  1  0  0  0  0
 28 27  2  0  0  0  0
 29 30  1  0  0  0  0
 29 27  1  0  0  0  0
 30 35  1  0  0  0  0
 31 36  1  0  0  0  0
 31 30  2  0  0  0  0
 32 31  1  0  0  0  0
 33 32  2  0  0  0  0
 33 34  1  0  0  0  0
 34 29  2  0  0  0  0
 37 33  1  0  0  0  0
 38 37  1  0  0  0  0
 38 39  1  0  0  0  0
 40 38  2  0  0  0  0
 41 40  1  0  0  0  0
 42 40  1  0  0  0  0
 42 44  1  0  0  0  0
 43 42  1  0  0  0  0
 44 37  2  0  0  0  0
M  END
>  <minimizedAffinity>
-5.98767185

$$$$

 OpenBabel03252504433D

 44 47  0  0  0  0  0  0  0  0999 V2000
   37.5100   31.0630   37.8330 C   0  0  0  0  0  0  0  0  0  0  0  0
   37.7100   31.6130   36.6020 C   0  0  0  0  0  0  0  0  0  0  0  0
   38.8670   32.2710   36.6670 N   0  0  0  0  0  0  0  0  0  0  0  0
   39.4120   32.1660   37.8810 C   0  0  0  0  0  0  0  0  0  0  0  0
   38.5560   31.4060   38.6120 N   0  0  0  0  0  0  0  0  0  0  0  0
   40.6270   32.6900   38.4260 N   0  0  0  0  0  0  0  0  0  0  0  0
   41.8470   31.8710   38.3010 C   0  0  0  0  0  0  0  0  0  0  0  0
   42.6490   32.5320   37.1840 C   0  0  0  0  0  0  0  0  0  0  0  0
   42.7130   34.0340   37.4130 C   0  0  0  0  0  0  0  0  0  0  0  0
   42.3440   34.3380   38.8600 C   0  0  0  0  0  0  0  0  0  0  0  0
   40.9200   33.9130   39.1050 C   0  0  0  0  0  0  0  0  0  0  0  0
   37.0620   31.5370   35.7300 H   0  0  0  0  0  0  0  0  0  0  0  0
   39.3120   32.8060   35.8870 H   0  0  0  0  0  0  0  0  0  0  0  0
   41.5870   30.8410   37.9290 H   0  0  0  0  0  0  0  0  0  0  0  0
   42.4190   31.8250   39.2340 H   0  0  0  0  0  0  0  0  0  0  0  0
   42.2120   32.2750   36.2030 H   0  0  0  0  0  0  0  0  0  0  0  0
   43.6710   32.0980   37.2280 H   0  0  0  0  0  0  0  0  0  0  0  0
   43.7560   34.4060   37.2700 H   0  0  0  0  0  0  0  0  0  0  0  0
   41.9750   34.4960   36.7480 H   0  0  0  0  0  0  0  0  0  0  0  0
   43.0520   33.8070   39.5430 H   0  0  0  0  0  0  0  0  0  0  0  0
   42.5070   35.4280   38.9850 H   0  0  0  0  0  0  0  0  0  0  0  0
   40.7610   33.7110   40.2010 H   0  0  0  0  0  0  0  0  0  0  0  0
   40.2510   34.7380   38.7840 H   0  0  0  0  0  0  0  0  0  0  0  0
   36.3430   30.2280   38.2580 C   0  0  0  0  0  0  0  0  0  0  0  0
   35.4900   30.8550   38.6290 H   0  0  0  0  0  0  0  0  0  0  0  0
   36.0070   29.6630   37.3710 H   0  0  0  0  0  0  0  0  0  0  0  0
   36.3930   29.3370   40.5580 C   0  0  0  0  0  3  0  0  0  0  0  0
   36.7530   29.2460   39.2900 C   0  0  0  0  0  3  0  0  0  0  0  0
   36.8690   28.2950   41.4790 C   0  0  0  0  0  0  0  0  0  0  0  0
   37.2050   28.5950   42.8220 C   0  0  0  0  0  0  0  0  0  0  0  0
   37.6440   27.5390   43.6110 C   0  0  0  0  0  0  0  0  0  0  0  0
   37.7330   26.3090   43.0910 N   0  0  0  0  0  0  0  0  0  0  0  0
   37.4060   26.0460   41.8060 C   0  0  0  0  0  0  0  0  0  0  0  0
   36.9830   27.0180   41.0150 N   0  0  0  0  0  0  0  0  0  0  0  0
   37.1030   29.6210   43.1580 H   0  0  0  0  0  0  0  0  0  0  0  0
   37.8990   27.7800   44.6360 H   0  0  0  0  0  0  0  0  0  0  0  0
   37.5330   24.6720   41.3210 C   0  0  0  0  0  0  0  0  0  0  0  0
   36.6540   24.0170   40.4630 C   0  0  0  0  0  0  0  0  0  0  0  0
   35.7540   24.4400   40.0370 H   0  0  0  0  0  0  0  0  0  0  0  0
   37.1900   22.7560   40.2980 C   0  0  0  0  0  0  0  0  0  0  0  0
   36.6910   22.0130   39.6570 H   0  0  0  0  0  0  0  0  0  0  0  0
   38.3360   22.6550   41.0220 N   0  0  0  0  0  0  0  0  0  0  0  0
   38.8490   21.7480   40.9880 H   0  0  0  0  0  0  0  0  0  0  0  0
   38.5330   23.8280   41.6390 N   0  0  0  0  0  0  0  0  0  0  0  0
  1 24  1  0  0  0  0
  1  5  1  0  0  0  0
  2  3  1  0  0  0  0
  2  1  2  0  0  0  0
  3  4  1  0  0  0  0
  4  6  1  0  0  0  0
  4  5  2  0  0  0  0
  6 11  1  0  0  0  0
  7  6  1  0  0  0  0
  7 15  1  0  0  0  0
  8 17  1  0  0  0  0
  8  9  1  0  0  0  0
  8  7  1  0  0  0  0
  9 10  1  0  0  0  0
 10 21  1  0  0  0  0
 10 11  1  0  0  0  0
 10 20  1  0  0  0  0
 11 22  1  0  0  0  0
 12  2  1  0  0  0  0
 13  3  1  0  0  0  0
 14  7  1  0  0  0  0
 16  8  1  0  0  0  0
 18  9  1  0  0  0  0
 19  9  1  0  0  0  0
 23 11  1  0  0  0  0
 24 25  1  0  0  0  0
 24 28  1  0  0  0  0
 26 24  1  0  0  0  0
 27 29  1  0  0  0  0
 28 27  2  0  0  0  0
 29 30  1  0  0  0  0
 30 35  1  0  0  0  0
 30 31  2  0  0  0  0
 31 36  1  0  0  0  0
 32 31  1  0  0  0  0
 33 32  2  0  0  0  0
 34 29  2  0  0  0  0
 34 33  1  0  0  0  0
 37 44  2  0  0  0  0
 37 33  1  0  0  0  0
 38 37  1  0  0  0  0
 39 38  1  0  0  0  0
 40 38  2  0  0  0  0
 40 42  1  0  0  0  0
 41 40  1  0  0  0  0
 42 44  1  0  0  0  0
 43 42  1  0  0  0  0
M  END
>  <minimizedAffinity>
-5.97757196

$$$$

 OpenBabel03252504433D

 44 47  0  0  0  0  0  0  0  0999 V2000
   37.5100   31.4850   40.4970 C   0  0  0  0  0  0  0  0  0  0  0  0
   37.1390   32.4240   39.5800 C   0  0  0  0  0  0  0  0  0  0  0  0
   38.2670   32.9580   39.1130 N   0  0  0  0  0  0  0  0  0  0  0  0
   39.3360   32.4040   39.6890 C   0  0  0  0  0  0  0  0  0  0  0  0
   38.8560   31.4780   40.5590 N   0  0  0  0  0  0  0  0  0  0  0  0
   40.7370   32.6400   39.5180 N   0  0  0  0  0  0  0  0  0  0  0  0
   41.4480   31.8590   38.4890 C   0  0  0  0  0  0  0  0  0  0  0  0
   41.6510   32.8320   37.3310 C   0  0  0  0  0  0  0  0  0  0  0  0
   42.1980   34.1510   37.8540 C   0  0  0  0  0  0  0  0  0  0  0  0
   42.7590   33.9410   39.2550 C   0  0  0  0  0  0  0  0  0  0  0  0
   41.6430   33.5290   40.1780 C   0  0  0  0  0  0  0  0  0  0  0  0
   36.1280   32.6930   39.2810 H   0  0  0  0  0  0  0  0  0  0  0  0
   38.3360   33.7110   38.3920 H   0  0  0  0  0  0  0  0  0  0  0  0
   40.7820   31.0410   38.0940 H   0  0  0  0  0  0  0  0  0  0  0  0
   42.4000   31.4580   38.8500 H   0  0  0  0  0  0  0  0  0  0  0  0
   40.7050   32.9600   36.7760 H   0  0  0  0  0  0  0  0  0  0  0  0
   42.3890   32.3600   36.6470 H   0  0  0  0  0  0  0  0  0  0  0  0
   43.0510   34.4970   37.2220 H   0  0  0  0  0  0  0  0  0  0  0  0
   41.3590   34.8540   37.9030 H   0  0  0  0  0  0  0  0  0  0  0  0
   43.5670   33.1690   39.2190 H   0  0  0  0  0  0  0  0  0  0  0  0
   43.2280   34.9080   39.5340 H   0  0  0  0  0  0  0  0  0  0  0  0
   42.0580   32.9600   41.0560 H   0  0  0  0  0  0  0  0  0  0  0  0
   41.1360   34.4460   40.5420 H   0  0  0  0  0  0  0  0  0  0  0  0
   36.5950   30.6120   41.2980 C   0  0  0  0  0  0  0  0  0  0  0  0
   36.3140   31.0840   42.2770 H   0  0  0  0  0  0  0  0  0  0  0  0
   35.6780   30.4660   40.7000 H   0  0  0  0  0  0  0  0  0  0  0  0
   37.6200   28.8630   42.7050 C   0  0  0  0  0  3  0  0  0  0  0  0
   37.2070   29.2800   41.5210 C   0  0  0  0  0  3  0  0  0  0  0  0
   38.2090   27.5190   42.7860 C   0  0  0  0  0  0  0  0  0  0  0  0
   39.2710   27.2320   43.6790 C   0  0  0  0  0  0  0  0  0  0  0  0
   39.7570   25.9300   43.6800 C   0  0  0  0  0  0  0  0  0  0  0  0
   39.2230   25.0170   42.8610 N   0  0  0  0  0  0  0  0  0  0  0  0
   38.2090   25.3140   42.0170 C   0  0  0  0  0  0  0  0  0  0  0  0
   37.7110   26.5390   41.9790 N   0  0  0  0  0  0  0  0  0  0  0  0
   39.6430   28.0350   44.3060 H   0  0  0  0  0  0  0  0  0  0  0  0
   40.5690   25.7230   44.3660 H   0  0  0  0  0  0  0  0  0  0  0  0
   37.6840   24.2530   41.1570 C   0  0  0  0  0  0  0  0  0  0  0  0
   38.3850   23.1410   40.7010 C   0  0  0  0  0  0  0  0  0  0  0  0
   39.4190   22.9110   40.9240 H   0  0  0  0  0  0  0  0  0  0  0  0
   37.4790   22.4380   39.9330 C   0  0  0  0  0  0  0  0  0  0  0  0
   37.7700   21.4980   39.4410 H   0  0  0  0  0  0  0  0  0  0  0  0
   36.2890   23.0950   39.9260 N   0  0  0  0  0  0  0  0  0  0  0  0
   35.5080   22.6730   39.3800 H   0  0  0  0  0  0  0  0  0  0  0  0
   36.4280   24.1980   40.6750 N   0  0  0  0  0  0  0  0  0  0  0  0
  1  5  1  0  0  0  0
  1 24  1  0  0  0  0
  2  1  2  0  0  0  0
  3  2  1  0  0  0  0
  3  4  1  0  0  0  0
  4  5  2  0  0  0  0
  6  4  1  0  0  0  0
  6 11  1  0  0  0  0
  7 15  1  0  0  0  0
  7  6  1  0  0  0  0
  8  9  1  0  0  0  0
  8  7  1  0  0  0  0
  9 19  1  0  0  0  0
  9 10  1  0  0  0  0
 10 21  1  0  0  0  0
 10 11  1  0  0  0  0
 11 23  1  0  0  0  0
 11 22  1  0  0  0  0
 12  2  1  0  0  0  0
 13  3  1  0  0  0  0
 14  7  1  0  0  0  0
 16  8  1  0  0  0  0
 17  8  1  0  0  0  0
 18  9  1  0  0  0  0
 20 10  1  0  0  0  0
 24 28  1  0  0  0  0
 24 25  1  0  0  0  0
 26 24  1  0  0  0  0
 27 29  1  0  0  0  0
 28 27  2  0  0  0  0
 29 30  1  0  0  0  0
 30 31  2  0  0  0  0
 30 35  1  0  0  0  0
 31 36  1  0  0  0  0
 32 31  1  0  0  0  0
 33 32  2  0  0  0  0
 34 33  1  0  0  0  0
 34 29  2  0  0  0  0
 37 33  1  0  0  0  0
 38 39  1  0  0  0  0
 38 37  1  0  0  0  0
 40 38  2  0  0  0  0
 41 40  1  0  0  0  0
 42 40  1  0  0  0  0
 42 44  1  0  0  0  0
 43 42  1  0  0  0  0
 44 37  2  0  0  0  0
M  END
>  <minimizedAffinity>
-5.85916996

$$$$

 OpenBabel03252504433D

 44 47  0  0  0  0  0  0  0  0999 V2000
   36.5930   28.4210   38.0150 C   0  0  0  0  0  0  0  0  0  0  0  0
   35.7860   27.3370   37.8440 C   0  0  0  0  0  0  0  0  0  0  0  0
   36.2090   26.4140   38.7070 N   0  0  0  0  0  0  0  0  0  0  0  0
   37.2470   26.8600   39.4180 C   0  0  0  0  0  0  0  0  0  0  0  0
   37.4870   28.1230   38.9800 N   0  0  0  0  0  0  0  0  0  0  0  0
   38.0300   26.2450   40.4460 N   0  0  0  0  0  0  0  0  0  0  0  0
   37.5820   26.4070   41.8420 C   0  0  0  0  0  0  0  0  0  0  0  0
   36.9550   25.0650   42.2090 C   0  0  0  0  0  0  0  0  0  0  0  0
   37.8780   23.9310   41.7910 C   0  0  0  0  0  0  0  0  0  0  0  0
   39.2750   24.4860   41.5450 C   0  0  0  0  0  0  0  0  0  0  0  0
   39.2240   25.4610   40.3980 C   0  0  0  0  0  0  0  0  0  0  0  0
   34.9570   27.2330   37.1460 H   0  0  0  0  0  0  0  0  0  0  0  0
   35.8020   25.4590   38.8320 H   0  0  0  0  0  0  0  0  0  0  0  0
   36.7510   27.1640   41.8980 H   0  0  0  0  0  0  0  0  0  0  0  0
   38.4030   26.6660   42.5190 H   0  0  0  0  0  0  0  0  0  0  0  0
   35.9520   24.9800   41.7540 H   0  0  0  0  0  0  0  0  0  0  0  0
   36.8300   25.0660   43.3140 H   0  0  0  0  0  0  0  0  0  0  0  0
   37.9770   23.1850   42.6160 H   0  0  0  0  0  0  0  0  0  0  0  0
   37.4830   23.5190   40.8560 H   0  0  0  0  0  0  0  0  0  0  0  0
   39.6510   24.9730   42.4790 H   0  0  0  0  0  0  0  0  0  0  0  0
   39.9140   23.6010   41.3450 H   0  0  0  0  0  0  0  0  0  0  0  0
   40.0810   26.1870   40.4700 H   0  0  0  0  0  0  0  0  0  0  0  0
   39.3080   24.8880   39.4510 H   0  0  0  0  0  0  0  0  0  0  0  0
   36.5140   29.7180   37.2710 C   0  0  0  0  0  0  0  0  0  0  0  0
   36.6710   29.5800   36.1690 H   0  0  0  0  0  0  0  0  0  0  0  0
   35.5020   30.1270   37.4370 H   0  0  0  0  0  0  0  0  0  0  0  0
   37.1660   31.6210   38.7010 C   0  0  0  0  0  3  0  0  0  0  0  0
   37.4890   30.6930   37.8170 C   0  0  0  0  0  3  0  0  0  0  0  0
   38.2300   32.5250   39.1600 C   0  0  0  0  0  0  0  0  0  0  0  0
   38.0280   33.4090   40.2480 C   0  0  0  0  0  0  0  0  0  0  0  0
   39.0980   34.2220   40.6040 C   0  0  0  0  0  0  0  0  0  0  0  0
   40.2490   34.1460   39.9270 N   0  0  0  0  0  0  0  0  0  0  0  0
   40.4190   33.2930   38.8910 C   0  0  0  0  0  0  0  0  0  0  0  0
   39.4310   32.4990   38.5140 N   0  0  0  0  0  0  0  0  0  0  0  0
   37.0610   33.4040   40.7390 H   0  0  0  0  0  0  0  0  0  0  0  0
   38.9320   34.8940   41.4370 H   0  0  0  0  0  0  0  0  0  0  0  0
   41.7120   33.2760   38.2070 C   0  0  0  0  0  0  0  0  0  0  0  0
   42.5290   32.1640   38.0180 C   0  0  0  0  0  0  0  0  0  0  0  0
   42.3130   31.1590   38.3530 H   0  0  0  0  0  0  0  0  0  0  0  0
   43.6250   32.6410   37.3290 C   0  0  0  0  0  0  0  0  0  0  0  0
   44.4450   31.9650   37.0420 H   0  0  0  0  0  0  0  0  0  0  0  0
   43.4780   33.9750   37.1140 N   0  0  0  0  0  0  0  0  0  0  0  0
   44.2400   34.4670   36.6000 H   0  0  0  0  0  0  0  0  0  0  0  0
   42.3090   34.3480   37.6530 N   0  0  0  0  0  0  0  0  0  0  0  0
  1  5  1  0  0  0  0
  2  1  2  0  0  0  0
  2  3  1  0  0  0  0
  3 13  1  0  0  0  0
  3  4  1  0  0  0  0
  4  6  1  0  0  0  0
  5  4  2  0  0  0  0
  6  7  1  0  0  0  0
  7 14  1  0  0  0  0
  7  8  1  0  0  0  0
  7 15  1  0  0  0  0
  8 17  1  0  0  0  0
  9  8  1  0  0  0  0
  9 18  1  0  0  0  0
 10  9  1  0  0  0  0
 10 20  1  0  0  0  0
 11  6  1  0  0  0  0
 11 22  1  0  0  0  0
 11 10  1  0  0  0  0
 12  2  1  0  0  0  0
 16  8  1  0  0  0  0
 19  9  1  0  0  0  0
 21 10  1  0  0  0  0
 23 11  1  0  0  0  0
 24 26  1  0  0  0  0
 24 28  1  0  0  0  0
 24  1  1  0  0  0  0
 25 24  1  0  0  0  0
 27 29  1  0  0  0  0
 28 27  2  0  0  0  0
 29 30  1  0  0  0  0
 30 31  2  0  0  0  0
 30 35  1  0  0  0  0
 31 36  1  0  0  0  0
 32 31  1  0  0  0  0
 33 32  2  0  0  0  0
 34 33  1  0  0  0  0
 34 29  2  0  0  0  0
 37 33  1  0  0  0  0
 38 37  1  0  0  0  0
 38 39  1  0  0  0  0
 40 38  2  0  0  0  0
 41 40  1  0  0  0  0
 42 40  1  0  0  0  0
 42 44  1  0  0  0  0
 43 42  1  0  0  0  0
 44 37  2  0  0  0  0
M  END
>  <minimizedAffinity>
-5.82758808

$$$$

 OpenBabel03252504433D

 44 47  0  0  0  0  0  0  0  0999 V2000
   38.3350   27.1110   43.0060 C   0  0  0  0  0  0  0  0  0  0  0  0
   39.3010   26.2360   43.4050 C   0  0  0  0  0  0  0  0  0  0  0  0
   39.2170   25.1870   42.5870 N   0  0  0  0  0  0  0  0  0  0  0  0
   38.2450   25.3540   41.6890 C   0  0  0  0  0  0  0  0  0  0  0  0
   37.6910   26.5660   41.9550 N   0  0  0  0  0  0  0  0  0  0  0  0
   37.7800   24.5180   40.6230 N   0  0  0  0  0  0  0  0  0  0  0  0
   38.4130   24.6740   39.3000 C   0  0  0  0  0  0  0  0  0  0  0  0
   39.3440   23.4730   39.1690 C   0  0  0  0  0  0  0  0  0  0  0  0
   38.6070   22.2010   39.5580 C   0  0  0  0  0  0  0  0  0  0  0  0
   37.1060   22.4650   39.5370 C   0  0  0  0  0  0  0  0  0  0  0  0
   36.7730   23.5050   40.5730 C   0  0  0  0  0  0  0  0  0  0  0  0
   40.0060   26.3570   44.2250 H   0  0  0  0  0  0  0  0  0  0  0  0
   39.8200   24.3330   42.6220 H   0  0  0  0  0  0  0  0  0  0  0  0
   39.0760   25.5840   39.2920 H   0  0  0  0  0  0  0  0  0  0  0  0
   37.6810   24.7070   38.4870 H   0  0  0  0  0  0  0  0  0  0  0  0
   40.2540   23.6330   39.7740 H   0  0  0  0  0  0  0  0  0  0  0  0
   39.6480   23.4230   38.1010 H   0  0  0  0  0  0  0  0  0  0  0  0
   38.7950   21.3960   38.8080 H   0  0  0  0  0  0  0  0  0  0  0  0
   38.9140   21.9470   40.5790 H   0  0  0  0  0  0  0  0  0  0  0  0
   36.8020   22.7960   38.5130 H   0  0  0  0  0  0  0  0  0  0  0  0
   36.6300   21.4810   39.7290 H   0  0  0  0  0  0  0  0  0  0  0  0
   35.8140   24.0280   40.3010 H   0  0  0  0  0  0  0  0  0  0  0  0
   36.6470   22.9940   41.5500 H   0  0  0  0  0  0  0  0  0  0  0  0
   38.0330   28.4440   43.6180 C   0  0  0  0  0  0  0  0  0  0  0  0
   37.1140   28.4120   44.2610 H   0  0  0  0  0  0  0  0  0  0  0  0
   38.8970   28.7160   44.2490 H   0  0  0  0  0  0  0  0  0  0  0  0
   38.9310   30.0210   41.9470 C   0  0  0  0  0  3  0  0  0  0  0  0
   37.8960   29.4810   42.5670 C   0  0  0  0  0  3  0  0  0  0  0  0
   38.6550   31.0400   40.9240 C   0  0  0  0  0  0  0  0  0  0  0  0
   37.3350   31.4770   40.6550 C   0  0  0  0  0  0  0  0  0  0  0  0
   37.1810   32.4450   39.6700 C   0  0  0  0  0  0  0  0  0  0  0  0
   38.2540   32.9190   39.0260 N   0  0  0  0  0  0  0  0  0  0  0  0
   39.5060   32.4870   39.3000 C   0  0  0  0  0  0  0  0  0  0  0  0
   39.7040   31.5670   40.2290 N   0  0  0  0  0  0  0  0  0  0  0  0
   36.5240   31.0380   41.2260 H   0  0  0  0  0  0  0  0  0  0  0  0
   36.1670   32.7710   39.4730 H   0  0  0  0  0  0  0  0  0  0  0  0
   40.6210   33.0600   38.5470 C   0  0  0  0  0  0  0  0  0  0  0  0
   41.3800   34.1680   38.9150 C   0  0  0  0  0  0  0  0  0  0  0  0
   41.2450   34.7560   39.8130 H   0  0  0  0  0  0  0  0  0  0  0  0
   42.3030   34.3210   37.9000 C   0  0  0  0  0  0  0  0  0  0  0  0
   43.0430   35.1340   37.9320 H   0  0  0  0  0  0  0  0  0  0  0  0
   42.1100   33.3530   36.9660 N   0  0  0  0  0  0  0  0  0  0  0  0
   42.7420   33.3500   36.1370 H   0  0  0  0  0  0  0  0  0  0  0  0
   41.0830   32.5930   37.3720 N   0  0  0  0  0  0  0  0  0  0  0  0
  1  2  2  0  0  0  0
  1 24  1  0  0  0  0
  2 12  1  0  0  0  0
  3 13  1  0  0  0  0
  3  2  1  0  0  0  0
  4  5  2  0  0  0  0
  4  3  1  0  0  0  0
  5  1  1  0  0  0  0
  6  4  1  0  0  0  0
  7  6  1  0  0  0  0
  8  7  1  0  0  0  0
  8  9  1  0  0  0  0
  8 16  1  0  0  0  0
  9 19  1  0  0  0  0
 10  9  1  0  0  0  0
 10 21  1  0  0  0  0
 10 11  1  0  0  0  0
 11  6  1  0  0  0  0
 11 23  1  0  0  0  0
 14  7  1  0  0  0  0
 15  7  1  0  0  0  0
 17  8  1  0  0  0  0
 18  9  1  0  0  0  0
 20 10  1  0  0  0  0
 22 11  1  0  0  0  0
 24 26  1  0  0  0  0
 24 25  1  0  0  0  0
 27 28  2  0  0  0  0
 28 24  1  0  0  0  0
 29 27  1  0  0  0  0
 30 29  1  0  0  0  0
 30 35  1  0  0  0  0
 31 30  2  0  0  0  0
 32 33  2  0  0  0  0
 32 31  1  0  0  0  0
 33 34  1  0  0  0  0
 34 29  2  0  0  0  0
 36 31  1  0  0  0  0
 37 38  1  0  0  0  0
 37 33  1  0  0  0  0
 38 39  1  0  0  0  0
 40 41  1  0  0  0  0
 40 38  2  0  0  0  0
 42 44  1  0  0  0  0
 42 40  1  0  0  0  0
 43 42  1  0  0  0  0
 44 37  2  0  0  0  0
M  END
>  <minimizedAffinity>
-5.80730343

$$$$

 OpenBabel03252504433D

 44 47  0  0  0  0  0  0  0  0999 V2000
   38.1070   32.8090   39.9700 C   0  0  0  0  0  0  0  0  0  0  0  0
   38.2960   34.1580   39.9290 C   0  0  0  0  0  0  0  0  0  0  0  0
   39.5740   34.3490   39.6020 N   0  0  0  0  0  0  0  0  0  0  0  0
   40.2050   33.1850   39.4330 C   0  0  0  0  0  0  0  0  0  0  0  0
   39.2790   32.2180   39.6660 N   0  0  0  0  0  0  0  0  0  0  0  0
   41.5590   32.8800   39.0840 N   0  0  0  0  0  0  0  0  0  0  0  0
   41.8890   32.7510   37.6520 C   0  0  0  0  0  0  0  0  0  0  0  0
   42.6160   34.0450   37.3010 C   0  0  0  0  0  0  0  0  0  0  0  0
   43.6820   34.3400   38.3450 C   0  0  0  0  0  0  0  0  0  0  0  0
   43.9700   33.0720   39.1390 C   0  0  0  0  0  0  0  0  0  0  0  0
   42.7260   32.6610   39.8820 C   0  0  0  0  0  0  0  0  0  0  0  0
   37.5600   34.9360   40.1230 H   0  0  0  0  0  0  0  0  0  0  0  0
   40.0460   35.2740   39.4860 H   0  0  0  0  0  0  0  0  0  0  0  0
   40.9470   32.7460   37.0360 H   0  0  0  0  0  0  0  0  0  0  0  0
   42.5070   31.8720   37.4420 H   0  0  0  0  0  0  0  0  0  0  0  0
   41.8880   34.8710   37.2000 H   0  0  0  0  0  0  0  0  0  0  0  0
   43.0900   33.8830   36.3090 H   0  0  0  0  0  0  0  0  0  0  0  0
   44.6420   34.6260   37.8510 H   0  0  0  0  0  0  0  0  0  0  0  0
   43.2760   35.1030   39.0170 H   0  0  0  0  0  0  0  0  0  0  0  0
   44.3140   32.2680   38.4430 H   0  0  0  0  0  0  0  0  0  0  0  0
   44.8190   33.3270   39.8070 H   0  0  0  0  0  0  0  0  0  0  0  0
   42.7540   31.5580   40.1030 H   0  0  0  0  0  0  0  0  0  0  0  0
   42.6890   33.2250   40.8360 H   0  0  0  0  0  0  0  0  0  0  0  0
   36.8300   32.0980   40.2940 C   0  0  0  0  0  0  0  0  0  0  0  0
   36.1090   32.7580   40.8440 H   0  0  0  0  0  0  0  0  0  0  0  0
   36.3730   31.7970   39.3350 H   0  0  0  0  0  0  0  0  0  0  0  0
   36.6600   29.6720   40.7130 C   0  0  0  0  0  3  0  0  0  0  0  0
   37.1020   30.8650   41.0710 C   0  0  0  0  0  3  0  0  0  0  0  0
   37.0020   28.5310   41.5740 C   0  0  0  0  0  0  0  0  0  0  0  0
   37.2940   28.7070   42.9490 C   0  0  0  0  0  0  0  0  0  0  0  0
   37.6050   27.5640   43.6760 C   0  0  0  0  0  0  0  0  0  0  0  0
   37.6190   26.3710   43.0720 N   0  0  0  0  0  0  0  0  0  0  0  0
   37.3370   26.2270   41.7570 C   0  0  0  0  0  0  0  0  0  0  0  0
   37.0340   27.2850   41.0220 N   0  0  0  0  0  0  0  0  0  0  0  0
   37.2590   29.7120   43.3550 H   0  0  0  0  0  0  0  0  0  0  0  0
   37.8270   27.7110   44.7260 H   0  0  0  0  0  0  0  0  0  0  0  0
   37.3750   24.8840   41.1780 C   0  0  0  0  0  0  0  0  0  0  0  0
   36.9940   24.5330   39.8860 C   0  0  0  0  0  0  0  0  0  0  0  0
   36.6170   25.2120   39.1330 H   0  0  0  0  0  0  0  0  0  0  0  0
   37.2080   23.1720   39.8080 C   0  0  0  0  0  0  0  0  0  0  0  0
   36.9880   22.6210   38.8820 H   0  0  0  0  0  0  0  0  0  0  0  0
   37.6930   22.7240   40.9960 N   0  0  0  0  0  0  0  0  0  0  0  0
   37.9010   21.7060   41.0780 H   0  0  0  0  0  0  0  0  0  0  0  0
   37.7900   23.7760   41.8200 N   0  0  0  0  0  0  0  0  0  0  0  0
  1 24  1  0  0  0  0
  2  1  2  0  0  0  0
  2 12  1  0  0  0  0
  3  2  1  0  0  0  0
  4  3  1  0  0  0  0
  4  5  2  0  0  0  0
  5  1  1  0  0  0  0
  6  4  1  0  0  0  0
  6 11  1  0  0  0  0
  7  6  1  0  0  0  0
  8  7  1  0  0  0  0
  8  9  1  0  0  0  0
  9 19  1  0  0  0  0
  9 10  1  0  0  0  0
 10 21  1  0  0  0  0
 10 11  1  0  0  0  0
 11 22  1  0  0  0  0
 11 23  1  0  0  0  0
 13  3  1  0  0  0  0
 14  7  1  0  0  0  0
 15  7  1  0  0  0  0
 16  8  1  0  0  0  0
 17  8  1  0  0  0  0
 18  9  1  0  0  0  0
 20 10  1  0  0  0  0
 24 25  1  0  0  0  0
 24 28  1  0  0  0  0
 26 24  1  0  0  0  0
 27 28  2  0  0  0  0
 27 29  1  0  0  0  0
 29 30  1  0  0  0  0
 30 35  1  0  0  0  0
 30 31  2  0  0  0  0
 31 36  1  0  0  0  0
 32 31  1  0  0  0  0
 33 32  2  0  0  0  0
 34 29  2  0  0  0  0
 34 33  1  0  0  0  0
 37 33  1  0  0  0  0
 37 44  2  0  0  0  0
 38 37  1  0  0  0  0
 39 38  1  0  0  0  0
 40 38  2  0  0  0  0
 40 42  1  0  0  0  0
 41 40  1  0  0  0  0
 42 43  1  0  0  0  0
 42 44  1  0  0  0  0
M  END
>  <minimizedAffinity>
-5.80704594

$$$$

 OpenBabel03252504433D

 44 47  0  0  0  0  0  0  0  0999 V2000
   38.4760   28.0850   42.9140 C   0  0  0  0  0  0  0  0  0  0  0  0
   37.3150   28.6960   43.2830 C   0  0  0  0  0  0  0  0  0  0  0  0
   37.2450   29.8260   42.5790 N   0  0  0  0  0  0  0  0  0  0  0  0
   38.3060   29.9610   41.7810 C   0  0  0  0  0  0  0  0  0  0  0  0
   39.0790   28.8640   41.9940 N   0  0  0  0  0  0  0  0  0  0  0  0
   38.6740   30.9880   40.8540 N   0  0  0  0  0  0  0  0  0  0  0  0
   38.2080   30.8570   39.4610 C   0  0  0  0  0  0  0  0  0  0  0  0
   37.0570   31.8510   39.3390 C   0  0  0  0  0  0  0  0  0  0  0  0
   37.4700   33.1940   39.9220 C   0  0  0  0  0  0  0  0  0  0  0  0
   38.9880   33.2440   40.0410 C   0  0  0  0  0  0  0  0  0  0  0  0
   39.4430   32.1830   41.0080 C   0  0  0  0  0  0  0  0  0  0  0  0
   36.5830   28.3430   44.0060 H   0  0  0  0  0  0  0  0  0  0  0  0
   36.4740   30.5300   42.6260 H   0  0  0  0  0  0  0  0  0  0  0  0
   37.7570   29.8390   39.2960 H   0  0  0  0  0  0  0  0  0  0  0  0
   38.9980   31.0650   38.7330 H   0  0  0  0  0  0  0  0  0  0  0  0
   36.1530   31.4430   39.8240 H   0  0  0  0  0  0  0  0  0  0  0  0
   36.8450   31.9590   38.2530 H   0  0  0  0  0  0  0  0  0  0  0  0
   37.1810   34.0240   39.2330 H   0  0  0  0  0  0  0  0  0  0  0  0
   37.0270   33.2640   40.9210 H   0  0  0  0  0  0  0  0  0  0  0  0
   39.4440   33.0990   39.0300 H   0  0  0  0  0  0  0  0  0  0  0  0
   39.2250   34.2760   40.3730 H   0  0  0  0  0  0  0  0  0  0  0  0
   40.5110   31.9000   40.7950 H   0  0  0  0  0  0  0  0  0  0  0  0
   39.3710   32.5960   42.0350 H   0  0  0  0  0  0  0  0  0  0  0  0
   39.0010   26.7810   43.4300 C   0  0  0  0  0  0  0  0  0  0  0  0
   40.1020   26.8260   43.6420 H   0  0  0  0  0  0  0  0  0  0  0  0
   38.4670   26.5660   44.3730 H   0  0  0  0  0  0  0  0  0  0  0  0
   37.4690   25.3020   42.1840 C   0  0  0  0  0  3  0  0  0  0  0  0
   38.6990   25.6840   42.4800 C   0  0  0  0  0  3  0  0  0  0  0  0
   37.3090   24.2000   41.2250 C   0  0  0  0  0  0  0  0  0  0  0  0
   38.3580   23.2800   40.9780 C   0  0  0  0  0  0  0  0  0  0  0  0
   38.1060   22.2740   40.0530 C   0  0  0  0  0  0  0  0  0  0  0  0
   36.9160   22.2090   39.4440 N   0  0  0  0  0  0  0  0  0  0  0  0
   35.9300   23.0990   39.6960 C   0  0  0  0  0  0  0  0  0  0  0  0
   36.1210   24.0740   40.5680 N   0  0  0  0  0  0  0  0  0  0  0  0
   39.2890   23.4090   41.5170 H   0  0  0  0  0  0  0  0  0  0  0  0
   38.9150   21.5770   39.8730 H   0  0  0  0  0  0  0  0  0  0  0  0
   34.6600   22.9520   38.9840 C   0  0  0  0  0  0  0  0  0  0  0  0
   33.7240   21.9390   39.1710 C   0  0  0  0  0  0  0  0  0  0  0  0
   33.8110   21.1200   39.8720 H   0  0  0  0  0  0  0  0  0  0  0  0
   32.7070   22.2260   38.2830 C   0  0  0  0  0  0  0  0  0  0  0  0
   31.8200   21.5770   38.2160 H   0  0  0  0  0  0  0  0  0  0  0  0
   33.0150   23.3570   37.5950 N   0  0  0  0  0  0  0  0  0  0  0  0
   32.3280   23.6910   36.8850 H   0  0  0  0  0  0  0  0  0  0  0  0
   34.2060   23.7880   38.0320 N   0  0  0  0  0  0  0  0  0  0  0  0
  1  2  2  0  0  0  0
  1 24  1  0  0  0  0
  2 12  1  0  0  0  0
  3 13  1  0  0  0  0
  3  2  1  0  0  0  0
  4  5  2  0  0  0  0
  4  3  1  0  0  0  0
  5  1  1  0  0  0  0
  6 11  1  0  0  0  0
  6  4  1  0  0  0  0
  7  6  1  0  0  0  0
  8  7  1  0  0  0  0
  8 16  1  0  0  0  0
  8  9  1  0  0  0  0
  9 10  1  0  0  0  0
  9 19  1  0  0  0  0
 10 21  1  0  0  0  0
 10 11  1  0  0  0  0
 11 23  1  0  0  0  0
 14  7  1  0  0  0  0
 15  7  1  0  0  0  0
 17  8  1  0  0  0  0
 18  9  1  0  0  0  0
 20 10  1  0  0  0  0
 22 11  1  0  0  0  0
 24 25  1  0  0  0  0
 24 26  1  0  0  0  0
 27 28  2  0  0  0  0
 28 24  1  0  0  0  0
 29 27  1  0  0  0  0
 30 29  1  0  0  0  0
 30 35  1  0  0  0  0
 31 30  2  0  0  0  0
 32 33  2  0  0  0  0
 32 31  1  0  0  0  0
 33 34  1  0  0  0  0
 34 29  2  0  0  0  0
 36 31  1  0  0  0  0
 37 38  1  0  0  0  0
 37 33  1  0  0  0  0
 38 39  1  0  0  0  0
 40 38  2  0  0  0  0
 41 40  1  0  0  0  0
 42 44  1  0  0  0  0
 42 40  1  0  0  0  0
 43 42  1  0  0  0  0
 44 37  2  0  0  0  0
M  END
>  <minimizedAffinity>
-5.75766945

$$$$

 OpenBabel03252504433D

 44 47  0  0  0  0  0  0  0  0999 V2000
   38.4460   32.7690   39.9110 C   0  0  0  0  0  0  0  0  0  0  0  0
   38.7860   34.0620   40.1750 C   0  0  0  0  0  0  0  0  0  0  0  0
   40.0640   34.1950   39.8180 N   0  0  0  0  0  0  0  0  0  0  0  0
   40.5500   33.0480   39.3390 C   0  0  0  0  0  0  0  0  0  0  0  0
   39.5300   32.1520   39.3990 N   0  0  0  0  0  0  0  0  0  0  0  0
   41.8450   32.7000   38.8390 N   0  0  0  0  0  0  0  0  0  0  0  0
   42.1000   32.8870   37.3980 C   0  0  0  0  0  0  0  0  0  0  0  0
   42.9550   34.1470   37.3130 C   0  0  0  0  0  0  0  0  0  0  0  0
   44.0900   34.0720   38.3230 C   0  0  0  0  0  0  0  0  0  0  0  0
   44.2630   32.6280   38.7770 C   0  0  0  0  0  0  0  0  0  0  0  0
   43.0110   32.1790   39.4830 C   0  0  0  0  0  0  0  0  0  0  0  0
   38.1520   34.8410   40.5950 H   0  0  0  0  0  0  0  0  0  0  0  0
   40.6330   35.0680   39.8910 H   0  0  0  0  0  0  0  0  0  0  0  0
   41.1400   33.1260   36.8620 H   0  0  0  0  0  0  0  0  0  0  0  0
   42.6050   32.0270   36.9460 H   0  0  0  0  0  0  0  0  0  0  0  0
   42.3230   35.0420   37.4560 H   0  0  0  0  0  0  0  0  0  0  0  0
   43.3680   34.1810   36.2810 H   0  0  0  0  0  0  0  0  0  0  0  0
   45.0550   34.3700   37.8480 H   0  0  0  0  0  0  0  0  0  0  0  0
   43.8010   34.6880   39.1810 H   0  0  0  0  0  0  0  0  0  0  0  0
   44.4850   31.9840   37.8900 H   0  0  0  0  0  0  0  0  0  0  0  0
   45.1610   32.6280   39.4280 H   0  0  0  0  0  0  0  0  0  0  0  0
   42.9220   31.0580   39.4370 H   0  0  0  0  0  0  0  0  0  0  0  0
   43.0770   32.4980   40.5440 H   0  0  0  0  0  0  0  0  0  0  0  0
   37.1110   32.1330   40.1430 C   0  0  0  0  0  0  0  0  0  0  0  0
   37.0940   31.5220   41.0840 H   0  0  0  0  0  0  0  0  0  0  0  0
   36.3740   32.9500   40.2390 H   0  0  0  0  0  0  0  0  0  0  0  0
   36.2810   30.0630   39.0880 C   0  0  0  0  0  3  0  0  0  0  0  0
   36.7170   31.3050   38.9780 C   0  0  0  0  0  3  0  0  0  0  0  0
   35.9240   29.3530   37.8520 C   0  0  0  0  0  0  0  0  0  0  0  0
   35.2660   28.0990   37.8850 C   0  0  0  0  0  0  0  0  0  0  0  0
   34.9720   27.5120   36.6600 C   0  0  0  0  0  0  0  0  0  0  0  0
   35.3110   28.1300   35.5230 N   0  0  0  0  0  0  0  0  0  0  0  0
   35.9400   29.3270   35.5160 C   0  0  0  0  0  0  0  0  0  0  0  0
   36.2410   29.9270   36.6560 N   0  0  0  0  0  0  0  0  0  0  0  0
   35.0290   27.6710   38.8520 H   0  0  0  0  0  0  0  0  0  0  0  0
   34.4680   26.5540   36.6980 H   0  0  0  0  0  0  0  0  0  0  0  0
   36.2730   29.9320   34.2270 C   0  0  0  0  0  0  0  0  0  0  0  0
   36.3200   31.2940   33.9440 C   0  0  0  0  0  0  0  0  0  0  0  0
   36.1140   32.0920   34.6450 H   0  0  0  0  0  0  0  0  0  0  0  0
   36.6760   31.3700   32.6130 C   0  0  0  0  0  0  0  0  0  0  0  0
   36.7890   32.3450   32.1160 H   0  0  0  0  0  0  0  0  0  0  0  0
   36.8370   30.1140   32.1170 N   0  0  0  0  0  0  0  0  0  0  0  0
   37.1090   30.0230   31.1150 H   0  0  0  0  0  0  0  0  0  0  0  0
   36.5890   29.2500   33.1100 N   0  0  0  0  0  0  0  0  0  0  0  0
  1 24  1  0  0  0  0
  1  2  2  0  0  0  0
  2 12  1  0  0  0  0
  3 13  1  0  0  0  0
  3  2  1  0  0  0  0
  4  5  2  0  0  0  0
  4  3  1  0  0  0  0
  5  1  1  0  0  0  0
  6  4  1  0  0  0  0
  6 11  1  0  0  0  0
  7  6  1  0  0  0  0
  8  7  1  0  0  0  0
  8 16  1  0  0  0  0
  8  9  1  0  0  0  0
  9 10  1  0  0  0  0
  9 19  1  0  0  0  0
 10 21  1  0  0  0  0
 10 11  1  0  0  0  0
 11 23  1  0  0  0  0
 14  7  1  0  0  0  0
 15  7  1  0  0  0  0
 17  8  1  0  0  0  0
 18  9  1  0  0  0  0
 20 10  1  0  0  0  0
 22 11  1  0  0  0  0
 24 26  1  0  0  0  0
 24 25  1  0  0  0  0
 28 27  2  0  0  0  0
 28 24  1  0  0  0  0
 29 30  1  0  0  0  0
 29 27  1  0  0  0  0
 30 35  1  0  0  0  0
 31 36  1  0  0  0  0
 31 30  2  0  0  0  0
 32 31  1  0  0  0  0
 33 32  2  0  0  0  0
 33 34  1  0  0  0  0
 34 29  2  0  0  0  0
 37 33  1  0  0  0  0
 38 37  1  0  0  0  0
 38 39  1  0  0  0  0
 40 38  2  0  0  0  0
 41 40  1  0  0  0  0
 42 40  1  0  0  0  0
 42 44  1  0  0  0  0
 43 42  1  0  0  0  0
 44 37  2  0  0  0  0
M  END
>  <minimizedAffinity>
-5.55825186

$$$$
