
 OpenBabel03252502423D

 23 24  0  0  0  0  0  0  0  0999 V2000
   35.5820   28.8620   40.8550 C   0  0  0  0  0  0  0  0  0  0  0  0
   35.3060   29.7500   41.4390 H   0  0  0  0  0  0  0  0  0  0  0  0
   34.7280   28.1960   40.6400 H   0  0  0  0  0  0  0  0  0  0  0  0
   37.9630   26.1050   41.8040 C   0  0  0  0  0  0  0  0  0  0  0  0
   37.0240   26.8670   41.0950 C   0  0  0  0  0  0  0  0  0  0  0  0
   36.5750   28.0710   41.6190 C   0  0  0  0  0  0  0  0  0  0  0  0
   37.0900   28.4410   42.8160 N   0  0  0  0  0  0  0  0  0  0  0  0
   37.9940   27.6950   43.4870 C   0  0  0  0  0  0  0  0  0  0  0  0
   38.4280   26.5400   42.9900 N   0  0  0  0  0  0  0  0  0  0  0  0
   38.2450   25.1890   41.3100 H   0  0  0  0  0  0  0  0  0  0  0  0
   36.6300   26.5560   40.1500 H   0  0  0  0  0  0  0  0  0  0  0  0
   38.3860   28.0300   44.4540 H   0  0  0  0  0  0  0  0  0  0  0  0
   36.2040   29.2490   39.5190 C   0  0  0  0  0  0  0  0  0  0  0  0
   35.4450   29.1070   38.7390 H   0  0  0  0  0  0  0  0  0  0  0  0
   37.1130   28.6470   39.3910 H   0  0  0  0  0  0  0  0  0  0  0  0
   36.5780   30.6970   39.6510 C   0  0  0  0  0  0  0  0  0  0  0  0
   37.0530   31.4200   38.5520 C   0  0  0  0  0  0  0  0  0  0  0  0
   37.2020   31.0650   37.5480 H   0  0  0  0  0  0  0  0  0  0  0  0
   37.2690   32.6830   39.1150 C   0  0  0  0  0  0  0  0  0  0  0  0
   37.6500   33.5100   38.5140 H   0  0  0  0  0  0  0  0  0  0  0  0
   36.9500   32.6950   40.4150 N   0  0  0  0  0  0  0  0  0  0  0  0
   37.0050   33.4890   41.0880 H   0  0  0  0  0  0  0  0  0  0  0  0
   36.5220   31.4700   40.7510 N   0  0  0  0  0  0  0  0  0  0  0  0
  1  2  1  0  0  0  0
  1  6  1  0  0  0  0
  3  1  1  0  0  0  0
  4  9  1  0  0  0  0
  5  6  1  0  0  0  0
  5  4  2  0  0  0  0
  6  7  2  0  0  0  0
  7  8  1  0  0  0  0
  8 12  1  0  0  0  0
  9  8  2  0  0  0  0
 10  4  1  0  0  0  0
 11  5  1  0  0  0  0
 13 16  1  0  0  0  0
 13  1  1  0  0  0  0
 14 13  1  0  0  0  0
 15 13  1  0  0  0  0
 16 23  2  0  0  0  0
 17 19  2  0  0  0  0
 17 16  1  0  0  0  0
 18 17  1  0  0  0  0
 19 21  1  0  0  0  0
 20 19  1  0  0  0  0
 21 23  1  0  0  0  0
 21 22  1  0  0  0  0
M  END
>  <minimizedAffinity>
-4.26204348

$$$$

 OpenBabel03252502423D

 23 24  0  0  0  0  0  0  0  0999 V2000
   38.0140   28.4080   43.5050 C   0  0  0  0  0  0  0  0  0  0  0  0
   38.2760   28.6250   44.5490 H   0  0  0  0  0  0  0  0  0  0  0  0
   36.9360   28.5220   43.2910 H   0  0  0  0  0  0  0  0  0  0  0  0
   39.9380   25.1750   43.3990 C   0  0  0  0  0  0  0  0  0  0  0  0
   39.5760   26.5000   43.6800 C   0  0  0  0  0  0  0  0  0  0  0  0
   38.3790   27.0060   43.1970 C   0  0  0  0  0  0  0  0  0  0  0  0
   37.6150   26.1610   42.4640 N   0  0  0  0  0  0  0  0  0  0  0  0
   37.9770   24.8860   42.2010 C   0  0  0  0  0  0  0  0  0  0  0  0
   39.1240   24.3960   42.6610 N   0  0  0  0  0  0  0  0  0  0  0  0
   40.8860   24.8810   43.8200 H   0  0  0  0  0  0  0  0  0  0  0  0
   40.1950   27.1500   44.2620 H   0  0  0  0  0  0  0  0  0  0  0  0
   37.3310   24.2350   41.6020 H   0  0  0  0  0  0  0  0  0  0  0  0
   38.7660   29.3210   42.5440 C   0  0  0  0  0  0  0  0  0  0  0  0
   39.3270   28.6870   41.8460 H   0  0  0  0  0  0  0  0  0  0  0  0
   39.3840   29.9990   43.1470 H   0  0  0  0  0  0  0  0  0  0  0  0
   37.7100   30.1110   41.8260 C   0  0  0  0  0  0  0  0  0  0  0  0
   38.0560   31.1550   40.9630 C   0  0  0  0  0  0  0  0  0  0  0  0
   39.0430   31.5040   40.7180 H   0  0  0  0  0  0  0  0  0  0  0  0
   36.7990   31.5960   40.5310 C   0  0  0  0  0  0  0  0  0  0  0  0
   36.7030   32.4240   39.8290 H   0  0  0  0  0  0  0  0  0  0  0  0
   35.8170   30.8770   41.0890 N   0  0  0  0  0  0  0  0  0  0  0  0
   34.7880   30.9740   40.9560 H   0  0  0  0  0  0  0  0  0  0  0  0
   36.3740   29.9580   41.8890 N   0  0  0  0  0  0  0  0  0  0  0  0
  1  2  1  0  0  0  0
  3  1  1  0  0  0  0
  4  5  1  0  0  0  0
  4 10  1  0  0  0  0
  5 11  1  0  0  0  0
  6  1  1  0  0  0  0
  6  5  2  0  0  0  0
  7  6  1  0  0  0  0
  8  7  2  0  0  0  0
  8  9  1  0  0  0  0
  9  4  2  0  0  0  0
 12  8  1  0  0  0  0
 13 15  1  0  0  0  0
 13  1  1  0  0  0  0
 14 13  1  0  0  0  0
 16 23  2  0  0  0  0
 16 13  1  0  0  0  0
 17 16  1  0  0  0  0
 18 17  1  0  0  0  0
 19 17  2  0  0  0  0
 19 21  1  0  0  0  0
 20 19  1  0  0  0  0
 21 23  1  0  0  0  0
 22 21  1  0  0  0  0
M  END
>  <minimizedAffinity>
-4.24677896

$$$$

 OpenBabel03252502423D

 23 24  0  0  0  0  0  0  0  0999 V2000
   36.1900   30.3320   40.9830 C   0  0  0  0  0  0  0  0  0  0  0  0
   36.1060   31.1520   41.7100 H   0  0  0  0  0  0  0  0  0  0  0  0
   35.2150   30.0070   40.5770 H   0  0  0  0  0  0  0  0  0  0  0  0
   37.2170   26.7810   41.6910 C   0  0  0  0  0  0  0  0  0  0  0  0
   36.6450   27.9040   41.0770 C   0  0  0  0  0  0  0  0  0  0  0  0
   36.8030   29.1580   41.6480 C   0  0  0  0  0  0  0  0  0  0  0  0
   37.5210   29.2170   42.7940 N   0  0  0  0  0  0  0  0  0  0  0  0
   38.0660   28.1250   43.3750 C   0  0  0  0  0  0  0  0  0  0  0  0
   37.9190   26.9200   42.8320 N   0  0  0  0  0  0  0  0  0  0  0  0
   37.0360   25.8560   41.1670 H   0  0  0  0  0  0  0  0  0  0  0  0
   36.0810   27.8340   40.1700 H   0  0  0  0  0  0  0  0  0  0  0  0
   38.6400   28.2160   44.3030 H   0  0  0  0  0  0  0  0  0  0  0  0
   37.0670   30.7260   39.8020 C   0  0  0  0  0  0  0  0  0  0  0  0
   36.4200   30.8340   38.9220 H   0  0  0  0  0  0  0  0  0  0  0  0
   37.8530   29.9650   39.7050 H   0  0  0  0  0  0  0  0  0  0  0  0
   37.6880   32.0410   40.1790 C   0  0  0  0  0  0  0  0  0  0  0  0
   37.3660   33.2120   39.4870 C   0  0  0  0  0  0  0  0  0  0  0  0
   36.6880   33.3200   38.6600 H   0  0  0  0  0  0  0  0  0  0  0  0
   38.1500   34.1610   40.1540 C   0  0  0  0  0  0  0  0  0  0  0  0
   38.1380   35.2100   39.8580 H   0  0  0  0  0  0  0  0  0  0  0  0
   38.8590   33.5950   41.1390 N   0  0  0  0  0  0  0  0  0  0  0  0
   39.5240   34.0500   41.8010 H   0  0  0  0  0  0  0  0  0  0  0  0
   38.5760   32.2860   41.1600 N   0  0  0  0  0  0  0  0  0  0  0  0
  1  6  1  0  0  0  0
  1  2  1  0  0  0  0
  3  1  1  0  0  0  0
  4  9  1  0  0  0  0
  5  6  1  0  0  0  0
  5  4  2  0  0  0  0
  6  7  2  0  0  0  0
  7  8  1  0  0  0  0
  8 12  1  0  0  0  0
  9  8  2  0  0  0  0
 10  4  1  0  0  0  0
 11  5  1  0  0  0  0
 13 16  1  0  0  0  0
 13  1  1  0  0  0  0
 14 13  1  0  0  0  0
 15 13  1  0  0  0  0
 16 23  2  0  0  0  0
 17 19  2  0  0  0  0
 17 16  1  0  0  0  0
 18 17  1  0  0  0  0
 19 21  1  0  0  0  0
 20 19  1  0  0  0  0
 21 23  1  0  0  0  0
 21 22  1  0  0  0  0
M  END
>  <minimizedAffinity>
-4.12713289

$$$$

 OpenBabel03252502423D

 23 24  0  0  0  0  0  0  0  0999 V2000
   39.5880   30.8890   42.3170 C   0  0  0  0  0  0  0  0  0  0  0  0
   40.5980   31.0870   42.7010 H   0  0  0  0  0  0  0  0  0  0  0  0
   38.8300   31.5970   42.6960 H   0  0  0  0  0  0  0  0  0  0  0  0
   37.4060   27.9960   43.3330 C   0  0  0  0  0  0  0  0  0  0  0  0
   37.8220   29.2750   42.9380 C   0  0  0  0  0  0  0  0  0  0  0  0
   39.1690   29.5300   42.7330 C   0  0  0  0  0  0  0  0  0  0  0  0
   40.0210   28.4960   42.9340 N   0  0  0  0  0  0  0  0  0  0  0  0
   39.6050   27.2680   43.3150 C   0  0  0  0  0  0  0  0  0  0  0  0
   38.3140   27.0170   43.5130 N   0  0  0  0  0  0  0  0  0  0  0  0
   36.3400   27.9030   43.4650 H   0  0  0  0  0  0  0  0  0  0  0  0
   37.1320   30.0780   42.7850 H   0  0  0  0  0  0  0  0  0  0  0  0
   40.3260   26.4580   43.4670 H   0  0  0  0  0  0  0  0  0  0  0  0
   39.5520   30.9560   40.7950 C   0  0  0  0  0  0  0  0  0  0  0  0
   39.1270   30.0140   40.4260 H   0  0  0  0  0  0  0  0  0  0  0  0
   40.5720   31.1690   40.4490 H   0  0  0  0  0  0  0  0  0  0  0  0
   38.6590   32.1170   40.4620 C   0  0  0  0  0  0  0  0  0  0  0  0
   39.1900   33.3910   40.2360 C   0  0  0  0  0  0  0  0  0  0  0  0
   40.2240   33.6850   40.2680 H   0  0  0  0  0  0  0  0  0  0  0  0
   38.0360   34.1370   39.9690 C   0  0  0  0  0  0  0  0  0  0  0  0
   38.0940   35.2020   39.7440 H   0  0  0  0  0  0  0  0  0  0  0  0
   36.9400   33.3710   40.0340 N   0  0  0  0  0  0  0  0  0  0  0  0
   35.9470   33.6490   39.8820 H   0  0  0  0  0  0  0  0  0  0  0  0
   37.3190   32.1230   40.3380 N   0  0  0  0  0  0  0  0  0  0  0  0
  1  3  1  0  0  0  0
  1  2  1  0  0  0  0
  1  6  1  0  0  0  0
  4 10  1  0  0  0  0
  4  9  1  0  0  0  0
  5  4  2  0  0  0  0
  6  7  2  0  0  0  0
  6  5  1  0  0  0  0
  7  8  1  0  0  0  0
  8 12  1  0  0  0  0
  8  9  2  0  0  0  0
 11  5  1  0  0  0  0
 13  1  1  0  0  0  0
 14 13  1  0  0  0  0
 15 13  1  0  0  0  0
 16 13  1  0  0  0  0
 17 18  1  0  0  0  0
 17 16  1  0  0  0  0
 19 21  1  0  0  0  0
 19 17  2  0  0  0  0
 20 19  1  0  0  0  0
 21 23  1  0  0  0  0
 22 21  1  0  0  0  0
 23 16  2  0  0  0  0
M  END
>  <minimizedAffinity>
-4.01729059

$$$$

 OpenBabel03252502423D

 23 24  0  0  0  0  0  0  0  0999 V2000
   37.7680   28.0360   43.3880 C   0  0  0  0  0  0  0  0  0  0  0  0
   37.2590   28.3020   44.3250 H   0  0  0  0  0  0  0  0  0  0  0  0
   38.7760   27.6110   43.5430 H   0  0  0  0  0  0  0  0  0  0  0  0
   39.3220   31.0640   41.7800 C   0  0  0  0  0  0  0  0  0  0  0  0
   39.1510   29.9090   42.5550 C   0  0  0  0  0  0  0  0  0  0  0  0
   37.9280   29.2560   42.5620 C   0  0  0  0  0  0  0  0  0  0  0  0
   36.9490   29.7940   41.7960 N   0  0  0  0  0  0  0  0  0  0  0  0
   37.1280   30.9090   41.0540 C   0  0  0  0  0  0  0  0  0  0  0  0
   38.2990   31.5390   41.0440 N   0  0  0  0  0  0  0  0  0  0  0  0
   40.3090   31.4930   41.8450 H   0  0  0  0  0  0  0  0  0  0  0  0
   39.9390   29.5000   43.1530 H   0  0  0  0  0  0  0  0  0  0  0  0
   36.3100   31.3130   40.4490 H   0  0  0  0  0  0  0  0  0  0  0  0
   36.9630   27.0190   42.5900 C   0  0  0  0  0  0  0  0  0  0  0  0
   36.8140   27.4230   41.5800 H   0  0  0  0  0  0  0  0  0  0  0  0
   36.0380   26.8190   43.1460 H   0  0  0  0  0  0  0  0  0  0  0  0
   37.8040   25.7750   42.5550 C   0  0  0  0  0  0  0  0  0  0  0  0
   39.1470   25.8050   42.9400 C   0  0  0  0  0  0  0  0  0  0  0  0
   39.7120   26.6520   43.2850 H   0  0  0  0  0  0  0  0  0  0  0  0
   39.5260   24.4700   42.7550 C   0  0  0  0  0  0  0  0  0  0  0  0
   40.5420   24.1370   42.9690 H   0  0  0  0  0  0  0  0  0  0  0  0
   38.5010   23.7350   42.3050 N   0  0  0  0  0  0  0  0  0  0  0  0
   38.4840   22.7170   42.0790 H   0  0  0  0  0  0  0  0  0  0  0  0
   37.4350   24.5360   42.1800 N   0  0  0  0  0  0  0  0  0  0  0  0
  1  3  1  0  0  0  0
  1  2  1  0  0  0  0
  4 10  1  0  0  0  0
  4  5  1  0  0  0  0
  5  6  2  0  0  0  0
  5 11  1  0  0  0  0
  6  1  1  0  0  0  0
  7  6  1  0  0  0  0
  8  7  2  0  0  0  0
  9  8  1  0  0  0  0
  9  4  2  0  0  0  0
 12  8  1  0  0  0  0
 13 15  1  0  0  0  0
 13  1  1  0  0  0  0
 14 13  1  0  0  0  0
 16 13  1  0  0  0  0
 16 17  1  0  0  0  0
 17 18  1  0  0  0  0
 19 17  2  0  0  0  0
 19 20  1  0  0  0  0
 21 19  1  0  0  0  0
 22 21  1  0  0  0  0
 23 21  1  0  0  0  0
 23 16  2  0  0  0  0
M  END
>  <minimizedAffinity>
-4.01404428

$$$$

 OpenBabel03252502423D

 23 24  0  0  0  0  0  0  0  0999 V2000
   35.8770   29.8720   40.4110 C   0  0  0  0  0  0  0  0  0  0  0  0
   34.8440   30.0230   40.7500 H   0  0  0  0  0  0  0  0  0  0  0  0
   35.9570   29.2000   39.5370 H   0  0  0  0  0  0  0  0  0  0  0  0
   37.0490   27.4000   42.9960 C   0  0  0  0  0  0  0  0  0  0  0  0
   36.3180   27.9940   41.9580 C   0  0  0  0  0  0  0  0  0  0  0  0
   36.6620   29.2610   41.5090 C   0  0  0  0  0  0  0  0  0  0  0  0
   37.7130   29.8570   42.1210 N   0  0  0  0  0  0  0  0  0  0  0  0
   38.4080   29.2710   43.1210 C   0  0  0  0  0  0  0  0  0  0  0  0
   38.0820   28.0570   43.5560 N   0  0  0  0  0  0  0  0  0  0  0  0
   36.7000   26.4160   43.2690 H   0  0  0  0  0  0  0  0  0  0  0  0
   35.4910   27.5050   41.4880 H   0  0  0  0  0  0  0  0  0  0  0  0
   39.2520   29.7880   43.5910 H   0  0  0  0  0  0  0  0  0  0  0  0
   36.5340   31.1920   40.0300 C   0  0  0  0  0  0  0  0  0  0  0  0
   37.4260   31.3190   40.6570 H   0  0  0  0  0  0  0  0  0  0  0  0
   35.7780   31.9810   40.1400 H   0  0  0  0  0  0  0  0  0  0  0  0
   36.9070   31.0560   38.5820 C   0  0  0  0  0  0  0  0  0  0  0  0
   36.4860   29.9530   37.8320 C   0  0  0  0  0  0  0  0  0  0  0  0
   35.8890   29.1240   38.1640 H   0  0  0  0  0  0  0  0  0  0  0  0
   37.0460   30.2310   36.5790 C   0  0  0  0  0  0  0  0  0  0  0  0
   36.9060   29.5530   35.7370 H   0  0  0  0  0  0  0  0  0  0  0  0
   37.7260   31.3840   36.5980 N   0  0  0  0  0  0  0  0  0  0  0  0
   38.2430   31.8440   35.8190 H   0  0  0  0  0  0  0  0  0  0  0  0
   37.6430   31.8980   37.8330 N   0  0  0  0  0  0  0  0  0  0  0  0
  1  2  1  0  0  0  0
  1  6  1  0  0  0  0
  3  1  1  0  0  0  0
  4 10  1  0  0  0  0
  4  9  1  0  0  0  0
  5  4  2  0  0  0  0
  6  5  1  0  0  0  0
  6  7  2  0  0  0  0
  7  8  1  0  0  0  0
  8  9  2  0  0  0  0
  8 12  1  0  0  0  0
 11  5  1  0  0  0  0
 13 15  1  0  0  0  0
 13  1  1  0  0  0  0
 13 14  1  0  0  0  0
 16 13  1  0  0  0  0
 17 18  1  0  0  0  0
 17 16  1  0  0  0  0
 19 21  1  0  0  0  0
 19 17  2  0  0  0  0
 20 19  1  0  0  0  0
 21 23  1  0  0  0  0
 22 21  1  0  0  0  0
 23 16  2  0  0  0  0
M  END
>  <minimizedAffinity>
-3.98489714

$$$$

 OpenBabel03252502423D

 23 24  0  0  0  0  0  0  0  0999 V2000
   36.3450   30.7420   40.2000 C   0  0  0  0  0  0  0  0  0  0  0  0
   35.2860   30.9660   40.3850 H   0  0  0  0  0  0  0  0  0  0  0  0
   36.5260   30.2510   39.2270 H   0  0  0  0  0  0  0  0  0  0  0  0
   36.6480   27.7220   42.4260 C   0  0  0  0  0  0  0  0  0  0  0  0
   36.1980   28.6050   41.4350 C   0  0  0  0  0  0  0  0  0  0  0  0
   36.8360   29.8230   41.2540 C   0  0  0  0  0  0  0  0  0  0  0  0
   37.8830   30.0870   42.0710 N   0  0  0  0  0  0  0  0  0  0  0  0
   38.3050   29.2250   43.0240 C   0  0  0  0  0  0  0  0  0  0  0  0
   37.6970   28.0560   43.2010 N   0  0  0  0  0  0  0  0  0  0  0  0
   36.0840   26.8040   42.4840 H   0  0  0  0  0  0  0  0  0  0  0  0
   35.3680   28.3760   40.7990 H   0  0  0  0  0  0  0  0  0  0  0  0
   39.1560   29.4770   43.6650 H   0  0  0  0  0  0  0  0  0  0  0  0
   37.1930   32.0070   40.2350 C   0  0  0  0  0  0  0  0  0  0  0  0
   37.8270   31.9640   41.1300 H   0  0  0  0  0  0  0  0  0  0  0  0
   36.5080   32.8650   40.1980 H   0  0  0  0  0  0  0  0  0  0  0  0
   38.0220   31.9740   38.9840 C   0  0  0  0  0  0  0  0  0  0  0  0
   39.4190   31.9680   39.0470 C   0  0  0  0  0  0  0  0  0  0  0  0
   40.0360   31.9860   39.9270 H   0  0  0  0  0  0  0  0  0  0  0  0
   39.7640   31.9360   37.6900 C   0  0  0  0  0  0  0  0  0  0  0  0
   40.8080   31.9230   37.3750 H   0  0  0  0  0  0  0  0  0  0  0  0
   38.6730   31.9230   36.9140 N   0  0  0  0  0  0  0  0  0  0  0  0
   38.6200   31.8990   35.8730 H   0  0  0  0  0  0  0  0  0  0  0  0
   37.5940   31.9460   37.7080 N   0  0  0  0  0  0  0  0  0  0  0  0
  1 13  1  0  0  0  0
  1  2  1  0  0  0  0
  1  6  1  0  0  0  0
  3  1  1  0  0  0  0
  4 10  1  0  0  0  0
  4  9  1  0  0  0  0
  5  4  2  0  0  0  0
  6  5  1  0  0  0  0
  6  7  2  0  0  0  0
  7  8  1  0  0  0  0
  8  9  2  0  0  0  0
  8 12  1  0  0  0  0
 11  5  1  0  0  0  0
 13 14  1  0  0  0  0
 15 13  1  0  0  0  0
 16 17  1  0  0  0  0
 16 13  1  0  0  0  0
 17 18  1  0  0  0  0
 19 17  2  0  0  0  0
 20 19  1  0  0  0  0
 21 19  1  0  0  0  0
 21 23  1  0  0  0  0
 22 21  1  0  0  0  0
 23 16  2  0  0  0  0
M  END
>  <minimizedAffinity>
-3.95888066

$$$$

 OpenBabel03252502423D

 23 24  0  0  0  0  0  0  0  0999 V2000
   37.9820   28.2800   42.9210 C   0  0  0  0  0  0  0  0  0  0  0  0
   38.0150   28.5900   43.9750 H   0  0  0  0  0  0  0  0  0  0  0  0
   38.9220   27.8140   42.5730 H   0  0  0  0  0  0  0  0  0  0  0  0
   36.2470   30.7670   40.6920 C   0  0  0  0  0  0  0  0  0  0  0  0
   36.4940   29.6460   41.4970 C   0  0  0  0  0  0  0  0  0  0  0  0
   37.7420   29.4710   42.0740 C   0  0  0  0  0  0  0  0  0  0  0  0
   38.6700   30.4240   41.8140 N   0  0  0  0  0  0  0  0  0  0  0  0
   38.4170   31.4990   41.0350 C   0  0  0  0  0  0  0  0  0  0  0  0
   37.2220   31.6720   40.4790 N   0  0  0  0  0  0  0  0  0  0  0  0
   35.2460   30.8080   40.2930 H   0  0  0  0  0  0  0  0  0  0  0  0
   35.7460   28.9050   41.6890 H   0  0  0  0  0  0  0  0  0  0  0  0
   39.1960   32.2470   40.8490 H   0  0  0  0  0  0  0  0  0  0  0  0
   36.8600   27.2810   42.6730 C   0  0  0  0  0  0  0  0  0  0  0  0
   36.3390   27.5800   41.7540 H   0  0  0  0  0  0  0  0  0  0  0  0
   36.2300   27.2600   43.5730 H   0  0  0  0  0  0  0  0  0  0  0  0
   37.5330   25.9490   42.5030 C   0  0  0  0  0  0  0  0  0  0  0  0
   38.9120   25.8120   42.6900 C   0  0  0  0  0  0  0  0  0  0  0  0
   39.6170   26.5780   42.9590 H   0  0  0  0  0  0  0  0  0  0  0  0
   39.0980   24.4480   42.4370 C   0  0  0  0  0  0  0  0  0  0  0  0
   40.0880   23.9940   42.4980 H   0  0  0  0  0  0  0  0  0  0  0  0
   37.9400   23.8500   42.1320 N   0  0  0  0  0  0  0  0  0  0  0  0
   37.7700   22.8480   41.9000 H   0  0  0  0  0  0  0  0  0  0  0  0
   36.9690   24.7730   42.1720 N   0  0  0  0  0  0  0  0  0  0  0  0
  1  2  1  0  0  0  0
  3  1  1  0  0  0  0
  4  5  1  0  0  0  0
  5 11  1  0  0  0  0
  5  6  2  0  0  0  0
  6  1  1  0  0  0  0
  7  6  1  0  0  0  0
  8  7  2  0  0  0  0
  9  4  2  0  0  0  0
  9  8  1  0  0  0  0
 10  4  1  0  0  0  0
 12  8  1  0  0  0  0
 13  1  1  0  0  0  0
 13 15  1  0  0  0  0
 14 13  1  0  0  0  0
 16 13  1  0  0  0  0
 16 17  1  0  0  0  0
 17 18  1  0  0  0  0
 19 20  1  0  0  0  0
 19 17  2  0  0  0  0
 21 23  1  0  0  0  0
 21 19  1  0  0  0  0
 22 21  1  0  0  0  0
 23 16  2  0  0  0  0
M  END
>  <minimizedAffinity>
-3.92861772

$$$$

 OpenBabel03252502423D

 23 24  0  0  0  0  0  0  0  0999 V2000
   37.8140   33.1860   40.0570 C   0  0  0  0  0  0  0  0  0  0  0  0
   37.5660   34.2160   39.7670 H   0  0  0  0  0  0  0  0  0  0  0  0
   37.2530   32.8320   40.9400 H   0  0  0  0  0  0  0  0  0  0  0  0
   41.1020   31.8900   41.3520 C   0  0  0  0  0  0  0  0  0  0  0  0
   39.7410   31.9780   41.0260 C   0  0  0  0  0  0  0  0  0  0  0  0
   39.2550   33.1120   40.3920 C   0  0  0  0  0  0  0  0  0  0  0  0
   40.1540   34.0880   40.1210 N   0  0  0  0  0  0  0  0  0  0  0  0
   41.4640   33.9880   40.4420 C   0  0  0  0  0  0  0  0  0  0  0  0
   41.9350   32.9040   41.0500 N   0  0  0  0  0  0  0  0  0  0  0  0
   41.3760   30.9690   41.8420 H   0  0  0  0  0  0  0  0  0  0  0  0
   39.0480   31.1940   41.2490 H   0  0  0  0  0  0  0  0  0  0  0  0
   42.1580   34.8010   40.2060 H   0  0  0  0  0  0  0  0  0  0  0  0
   37.5360   32.2100   38.9210 C   0  0  0  0  0  0  0  0  0  0  0  0
   38.4940   31.7810   38.6020 H   0  0  0  0  0  0  0  0  0  0  0  0
   36.9940   32.7580   38.1390 H   0  0  0  0  0  0  0  0  0  0  0  0
   36.6400   31.1550   39.5040 C   0  0  0  0  0  0  0  0  0  0  0  0
   36.1620   30.1030   38.7160 C   0  0  0  0  0  0  0  0  0  0  0  0
   36.3550   29.9230   37.6740 H   0  0  0  0  0  0  0  0  0  0  0  0
   35.3920   29.3850   39.6390 C   0  0  0  0  0  0  0  0  0  0  0  0
   34.8620   28.4780   39.3460 H   0  0  0  0  0  0  0  0  0  0  0  0
   35.4200   29.9630   40.8460 N   0  0  0  0  0  0  0  0  0  0  0  0
   34.9460   29.6560   41.7220 H   0  0  0  0  0  0  0  0  0  0  0  0
   36.1900   31.0570   40.7680 N   0  0  0  0  0  0  0  0  0  0  0  0
  1  6  1  0  0  0  0
  1  3  1  0  0  0  0
  2  1  1  0  0  0  0
  4 10  1  0  0  0  0
  5 11  1  0  0  0  0
  5  4  2  0  0  0  0
  6  5  1  0  0  0  0
  7  6  2  0  0  0  0
  7  8  1  0  0  0  0
  8  9  2  0  0  0  0
  9  4  1  0  0  0  0
 12  8  1  0  0  0  0
 13 16  1  0  0  0  0
 13  1  1  0  0  0  0
 14 13  1  0  0  0  0
 15 13  1  0  0  0  0
 16 23  2  0  0  0  0
 17 16  1  0  0  0  0
 17 19  2  0  0  0  0
 18 17  1  0  0  0  0
 19 21  1  0  0  0  0
 20 19  1  0  0  0  0
 21 22  1  0  0  0  0
 23 21  1  0  0  0  0
M  END
>  <minimizedAffinity>
-3.7646749

$$$$
