
 OpenBabel03252507553D

 43 46  0  0  1  0  0  0  0  0999 V2000
   47.0910   34.8030   42.1420 C   0  0  2  0  0  0  0  0  0  0  0  0
   46.2830   34.3820   40.9100 C   0  0  0  0  0  0  0  0  0  0  0  0
   47.4750   34.1710   39.9500 C   0  0  0  0  0  0  0  0  0  0  0  0
   48.5520   33.5800   40.8050 C   0  0  1  0  0  0  0  0  0  0  0  0
   48.0410   33.6390   42.2120 C   0  0  0  0  0  0  0  0  0  0  0  0
   47.5380   35.7760   41.9090 H   0  0  0  0  0  0  0  0  0  0  0  0
   45.6340   35.1860   40.5540 H   0  0  0  0  0  0  0  0  0  0  0  0
   45.7990   33.4120   41.0840 H   0  0  0  0  0  0  0  0  0  0  0  0
   47.7610   35.2050   39.6030 H   0  0  0  0  0  0  0  0  0  0  0  0
   47.2050   33.5280   39.1040 H   0  0  0  0  0  0  0  0  0  0  0  0
   49.4850   34.2100   40.7750 H   0  0  0  0  0  0  0  0  0  0  0  0
   47.4630   32.7430   42.4270 H   0  0  0  0  0  0  0  0  0  0  0  0
   48.8540   33.8340   42.9420 H   0  0  0  0  0  0  0  0  0  0  0  0
   44.5150   35.8670   44.6760 C   0  0  0  0  0  0  0  0  0  0  0  0
   45.2560   35.8800   43.4990 C   0  0  0  0  0  0  0  0  0  0  0  0
   46.2140   34.8850   43.3460 C   0  0  0  0  0  0  0  0  0  0  0  0
   46.4050   33.9250   44.3460 N   0  0  0  0  0  0  0  0  0  0  0  0
   45.6510   33.9650   45.4770 C   0  0  0  0  0  0  0  0  0  0  0  0
   44.7100   34.9330   45.6380 N   0  0  0  0  0  0  0  0  0  0  0  0
   43.7600   36.6300   44.8250 H   0  0  0  0  0  0  0  0  0  0  0  0
   45.1230   36.6120   42.7140 H   0  0  0  0  0  0  0  0  0  0  0  0
   45.8020   33.2220   46.2470 H   0  0  0  0  0  0  0  0  0  0  0  0
   48.8780   32.1360   40.5030 C   0  0  2  0  0  0  0  0  0  0  0  0
   49.1930   31.2960   41.6480 C   0  0  0  0  0  0  0  0  0  0  0  0
   50.2390   31.6130   40.6250 C   0  0  1  0  0  0  0  0  0  0  0  0
   48.2530   31.7100   39.6970 H   0  0  0  0  0  0  0  0  0  0  0  0
   49.3760   31.7990   42.6410 H   0  0  0  0  0  0  0  0  0  0  0  0
   48.8740   30.2440   41.7800 H   0  0  0  0  0  0  0  0  0  0  0  0
   51.0120   32.3720   40.7150 H   0  0  0  0  0  0  0  0  0  0  0  0
   50.6150   30.5620   39.7520 O   0  0  0  0  0  0  0  0  0  0  0  0
   51.5060   31.9260   37.7170 O   0  0  0  0  0  0  0  0  0  0  0  0
   51.9540   31.0660   38.8720 P   0  0  1  0  0  0  0  0  0  0  0  0
   52.9770   32.0240   39.8600 O   0  0  0  0  0  0  0  0  0  0  0  0
   53.6860   31.4720   40.2490 H   0  0  0  0  0  0  0  0  0  0  0  0
   52.8910   29.8290   38.2740 O   0  0  0  0  0  0  0  0  0  0  0  0
   53.9430   30.0040   37.3920 C   0  0  0  0  0  0  0  0  0  0  0  0
   55.2160   30.5660   37.5200 C   0  0  0  0  0  0  0  0  0  0  0  0
   55.5390   30.9740   38.4630 H   0  0  0  0  0  0  0  0  0  0  0  0
   55.8550   30.4740   36.3080 C   0  0  0  0  0  0  0  0  0  0  0  0
   56.8620   30.8320   36.1140 H   0  0  0  0  0  0  0  0  0  0  0  0
   54.9880   29.8730   35.4700 N   0  0  0  0  0  0  0  0  0  0  0  0
   55.2360   29.6840   34.4750 H   0  0  0  0  0  0  0  0  0  0  0  0
   53.8530   29.5890   36.0960 N   0  0  0  0  0  0  0  0  0  0  0  0
  1  6  1  6  0  0  0
  1  5  1  0  0  0  0
  1 16  1  0  0  0  0
  2  8  1  0  0  0  0
  2  1  1  0  0  0  0
  3  4  1  0  0  0  0
  3  2  1  0  0  0  0
  4 11  1  6  0  0  0
  4  5  1  0  0  0  0
  5 12  1  0  0  0  0
  5 13  1  0  0  0  0
  7  2  1  0  0  0  0
  9  3  1  0  0  0  0
 10  3  1  0  0  0  0
 14 20  1  0  0  0  0
 14 19  1  0  0  0  0
 15 14  2  0  0  0  0
 16 15  1  0  0  0  0
 16 17  2  0  0  0  0
 17 18  1  0  0  0  0
 18 19  2  0  0  0  0
 18 22  1  0  0  0  0
 21 15  1  0  0  0  0
 23 26  1  6  0  0  0
 23 25  1  0  0  0  0
 23  4  1  0  0  0  0
 23 24  1  0  0  0  0
 24 28  1  0  0  0  0
 24 27  1  0  0  0  0
 25 29  1  1  0  0  0
 25 24  1  0  0  0  0
 30 25  1  0  0  0  0
 32 31  2  6  0  0  0
 32 30  1  0  0  0  0
 32 33  1  0  0  0  0
 33 34  1  0  0  0  0
 35 32  1  0  0  0  0
 36 37  1  0  0  0  0
 36 35  1  0  0  0  0
 37 38  1  0  0  0  0
 39 37  2  0  0  0  0
 40 39  1  0  0  0  0
 41 43  1  0  0  0  0
 41 39  1  0  0  0  0
 42 41  1  0  0  0  0
 43 36  2  0  0  0  0
M  END
>  <minimizedAffinity>
-5.17471981

>  <minimizedRMSD>
2.23330402

$$$$
