REMARK  Name = 
REMARK  4 active torsions:
REMARK  status: ('A' for Active; 'I' for Inactive)
REMARK    1  A    between atoms: C_1  and  C_4
REMARK    2  A    between atoms: C_1  and  C_8
REMARK    3  A    between atoms: C_8  and  C_9
REMARK    4  A    between atoms: C_14  and  C_26
REMARK                            x       y       z     vdW  Elec       q    Type
REMARK                         _______ _______ _______ _____ _____    ______ ____
ROOT
ATOM      1  C   UNL     1      46.050  34.394  41.479  0.00  0.00    +0.000 A 
ATOM      2  C   UNL     1      46.630  34.045  40.262  0.00  0.00    +0.000 A 
ATOM      3  C   UNL     1      47.922  34.361  39.856  0.00  0.00    +0.000 A 
ATOM      4  C   UNL     1      48.656  35.086  40.778  0.00  0.00    +0.000 A 
ATOM      5  C   UNL     1      48.107  35.441  41.983  0.00  0.00    +0.000 A 
ATOM      6  C   UNL     1      46.818  35.118  42.373  0.00  0.00    +0.000 A 
ATOM      7  H   UNL     1      45.982  33.475  39.596  0.00  0.00    +0.000 HD
ATOM      8  H   UNL     1      48.211  34.014  38.885  0.00  0.00    +0.000 HD
ATOM      9  H   UNL     1      49.658  35.335  40.471  0.00  0.00    +0.000 HD
ATOM     10  H   UNL     1      48.817  36.004  42.582  0.00  0.00    +0.000 HD
ENDROOT
BRANCH   6  11
ATOM     11  C   UNL     1      46.454  35.604  43.693  0.00  0.00    +0.000 A 
ATOM     12  C   UNL     1      46.448  35.069  44.952  0.00  0.00    +0.000 A 
ATOM     13  H   UNL     1      46.740  34.073  45.219  0.00  0.00    +0.000 HD
ATOM     14  C   UNL     1      46.038  35.932  45.909  0.00  0.00    +0.000 A 
ATOM     15  H   UNL     1      45.931  35.799  46.966  0.00  0.00    +0.000 HD
ATOM     16  N   UNL     1      45.780  37.047  45.215  0.00  0.00    +0.000 N 
ATOM     17  H   UNL     1      45.433  37.990  45.543  0.00  0.00    +0.000 HD
ATOM     18  N   UNL     1      46.026  36.833  43.946  0.00  0.00    +0.000 NA
ENDBRANCH   6  11
BRANCH   1  19
ATOM     19  C   UNL     1      44.681  34.050  41.845  0.00  0.00    +0.000 C 
ATOM     20  H   UNL     1      44.180  34.998  42.140  0.00  0.00    +0.000 HD
ATOM     21  H   UNL     1      44.609  33.285  42.633  0.00  0.00    +0.000 HD
BRANCH  19  22
ATOM     22  C   UNL     1      43.864  33.600  40.616  0.00  0.00    +0.000 C 
ATOM     23  H   UNL     1      44.018  34.388  39.870  0.00  0.00    +0.000 HD
ATOM     24  H   UNL     1      44.182  32.610  40.295  0.00  0.00    +0.000 HD
BRANCH  22  27
ATOM     25  C   UNL     1      40.379  34.792  41.469  0.00  0.00    +0.000 A 
ATOM     26  C   UNL     1      41.750  34.835  41.089  0.00  0.00    +0.000 A 
ATOM     27  C   UNL     1      42.426  33.628  41.012  0.00  0.00    +0.000 A 
ATOM     28  N   UNL     1      41.715  32.490  41.309  0.00  0.00    +0.000 NA
ATOM     29  C   UNL     1      40.438  32.480  41.660  0.00  0.00    +0.000 A 
ATOM     30  N   UNL     1      39.760  33.628  41.743  0.00  0.00    +0.000 NA
ATOM     31  H   UNL     1      39.874  35.750  41.521  0.00  0.00    +0.000 HD
ATOM     32  H   UNL     1      42.227  35.779  40.873  0.00  0.00    +0.000 HD
ATOM     33  H   UNL     1      39.917  31.562  41.886  0.00  0.00    +0.000 HD
ENDBRANCH  22  27
ENDBRANCH  19  22
ENDBRANCH   1  19
TORSDOF 4
