
     RDKit          3D

 30 33  0  0  0  0  0  0  0  0999 V2000
   47.2247   31.3721   45.0950 C   0  0  0  0  0  0  0  0  0  0  0  0
   46.8853   32.7007   45.0970 C   0  0  0  0  0  0  0  0  0  0  0  0
   46.2763   33.3226   46.1851 C   0  0  0  0  0  0  0  0  0  0  0  0
   45.9931   32.5713   47.3319 C   0  0  0  0  0  0  0  0  0  0  0  0
   45.4319   32.8067   48.5426 N   0  0  0  0  0  0  0  0  0  0  0  0
   45.4328   31.6512   49.2518 C   0  0  0  0  0  0  0  0  0  0  0  0
   45.9984   30.7024   48.4696 N   0  0  0  0  0  0  0  0  0  0  0  0
   46.3534   31.2362   47.2835 C   0  0  0  0  0  0  0  0  0  0  0  0
   46.9519   30.6069   46.2251 C   0  0  0  0  0  0  0  0  0  0  0  0
   46.5245   35.2090   42.4229 C   0  0  0  0  0  0  0  0  0  0  0  0
   47.7117   35.0564   41.7079 C   0  0  0  0  0  0  0  0  0  0  0  0
   48.6327   34.0952   42.1432 C   0  0  0  0  0  0  0  0  0  0  0  0
   48.3131   33.3558   43.2522 N   0  0  0  0  0  0  0  0  0  0  0  0
   47.1606   33.5197   43.9278 C   0  0  0  0  0  0  0  0  0  0  0  0
   46.2746   34.4459   43.5073 N   0  0  0  0  0  0  0  0  0  0  0  0
   47.6957   30.9390   44.2238 H   0  0  0  0  0  0  0  0  0  0  0  0
   46.0054   34.3721   46.1934 H   0  0  0  0  0  0  0  0  0  0  0  0
   45.0752   33.7709   48.8107 H   0  0  0  0  0  0  0  0  0  0  0  0
   45.0172   31.6576   50.2518 H   0  0  0  0  0  0  0  0  0  0  0  0
   45.8302   35.9626   42.0608 H   0  0  0  0  0  0  0  0  0  0  0  0
   47.9846   35.6279   40.8312 H   0  0  0  0  0  0  0  0  0  0  0  0
   49.5792   33.8752   41.6885 H   0  0  0  0  0  0  0  0  0  0  0  0
   47.2963   29.1903   46.2654 C   0  0  0  0  0  0  0  0  0  0  0  0
   47.0667   28.3515   47.3363 C   0  0  0  0  0  0  0  0  0  0  0  0
   46.6071   28.6636   48.2543 H   0  0  0  0  0  0  0  0  0  0  0  0
   47.5335   27.1033   46.9775 C   0  0  0  0  0  0  0  0  0  0  0  0
   47.4649   26.2664   47.6584 H   0  0  0  0  0  0  0  0  0  0  0  0
   48.0278   27.2138   45.7155 N   0  0  0  0  0  0  0  0  0  0  0  0
   48.4373   26.3536   45.2559 H   0  0  0  0  0  0  0  0  0  0  0  0
   47.8826   28.4721   45.2915 N   0  0  0  0  0  0  0  0  0  0  0  0
  1  2  2  0
  1  9  1  0
  2  3  1  0
  3  4  2  0
  4  5  1  0
  5  6  1  0
  7  6  2  0
  8  4  1  0
  8  7  1  0
  9  8  2  0
 10 15  2  0
 11 12  2  0
 11 10  1  0
 12 13  1  0
 13 14  2  0
 14  2  1  0
 15 14  1  0
  1 16  1  0
  3 17  1  0
  5 18  1  0
  6 19  1  0
 10 20  1  0
 11 21  1  0
 12 22  1  0
 23 24  1  0
 24 25  1  0
 24 26  2  0
 26 27  1  0
 26 28  1  0
 28 29  1  0
 28 30  1  0
 30 23  2  0
  9 23  1  0
M  ISO  8  16  14  17  14  18   9  19  14  20  14  21  14  22  14  25  15
M  ISO  2  27  16  29   5
M  END
>  <DihAtoms>  (1) 
0,8,22,23

>  <DihDeg>  (1) 
0.0013322603610198141

$$$$
