
 OpenBabel03252507043D

 46 49  0  0  0  0  0  0  0  0999 V2000
   42.2320   33.6020   40.9410 C   0  0  0  0  0  0  0  0  0  0  0  0
   42.3450   34.1460   41.9390 H   0  0  0  0  0  0  0  0  0  0  0  0
   42.2660   32.5290   41.2310 H   0  0  0  0  0  0  0  0  0  0  0  0
   41.1170   33.9250   40.2770 N   0  0  0  0  0  0  0  0  0  0  0  0
   40.3370   35.1160   40.4090 C   0  0  0  0  0  0  0  0  0  0  0  0
   40.7650   35.8120   39.1130 C   0  0  0  0  0  0  0  0  0  0  0  0
   40.4350   35.0610   37.9150 C   0  0  0  0  0  0  0  0  0  0  0  0
   40.3020   33.6250   37.9980 C   0  0  0  0  0  0  0  0  0  0  0  0
   40.6890   32.9220   39.2740 C   0  0  0  0  0  0  0  0  0  0  0  0
   40.7840   35.7580   41.2140 H   0  0  0  0  0  0  0  0  0  0  0  0
   39.2720   35.0270   40.5370 H   0  0  0  0  0  0  0  0  0  0  0  0
   40.3530   36.8390   39.0640 H   0  0  0  0  0  0  0  0  0  0  0  0
   41.8750   35.9170   39.1900 H   0  0  0  0  0  0  0  0  0  0  0  0
   39.4820   35.4630   37.4760 H   0  0  0  0  0  0  0  0  0  0  0  0
   41.2000   35.2870   37.1190 H   0  0  0  0  0  0  0  0  0  0  0  0
   39.9770   32.9970   37.2230 H   0  0  0  0  0  0  0  0  0  0  0  0
   40.6350   31.2130   39.4840 S   0  0  0  0  0  0  0  0  0  0  0  0
   39.1690   30.6460   40.2670 C   0  0  0  0  0  0  0  0  0  0  0  0
   38.2630   29.7010   40.6810 C   0  0  0  0  0  0  0  0  0  0  0  0
   38.6350   28.7320   40.4080 H   0  0  0  0  0  0  0  0  0  0  0  0
   37.1790   30.2570   41.3230 C   0  0  0  0  0  0  0  0  0  0  0  0
   36.4070   29.5970   41.6900 H   0  0  0  0  0  0  0  0  0  0  0  0
   37.4350   31.5750   41.2980 N   0  0  0  0  0  0  0  0  0  0  0  0
   36.6490   32.1170   41.7760 H   0  0  0  0  0  0  0  0  0  0  0  0
   38.5960   31.8200   40.6830 N   0  0  0  0  0  0  0  0  0  0  0  0
   43.4810   33.9170   40.2040 C   0  0  0  0  0  0  0  0  0  0  0  0
   43.9410   32.9740   39.8320 H   0  0  0  0  0  0  0  0  0  0  0  0
   43.3460   34.6140   39.3530 H   0  0  0  0  0  0  0  0  0  0  0  0
   44.4400   34.5070   41.1580 C   0  0  0  0  0  0  0  0  0  0  0  0
   44.0480   35.4970   42.0290 C   0  0  0  0  0  0  0  0  0  0  0  0
   44.9960   36.0230   42.8890 C   0  0  0  0  0  0  0  0  0  0  0  0
   46.2690   35.5350   42.8320 N   0  0  0  0  0  0  0  0  0  0  0  0
   46.6140   34.5750   41.9780 C   0  0  0  0  0  0  0  0  0  0  0  0
   45.6830   34.0840   41.1580 N   0  0  0  0  0  0  0  0  0  0  0  0
   43.1140   35.9910   42.2350 H   0  0  0  0  0  0  0  0  0  0  0  0
   44.8700   36.8100   43.6420 H   0  0  0  0  0  0  0  0  0  0  0  0
   47.9920   34.0930   42.0090 C   0  0  0  0  0  0  0  0  0  0  0  0
   48.3080   32.8250   41.5270 C   0  0  0  0  0  0  0  0  0  0  0  0
   49.6010   32.3820   41.5640 C   0  0  0  0  0  0  0  0  0  0  0  0
   50.5000   33.2700   42.0940 C   0  0  0  0  0  0  0  0  0  0  0  0
   50.2470   34.5390   42.5880 C   0  0  0  0  0  0  0  0  0  0  0  0
   48.9410   34.9070   42.5180 N   0  0  0  0  0  0  0  0  0  0  0  0
   47.5280   32.1870   41.1230 H   0  0  0  0  0  0  0  0  0  0  0  0
   49.9260   31.4150   41.2110 H   0  0  0  0  0  0  0  0  0  0  0  0
   51.5560   32.9620   42.1470 H   0  0  0  0  0  0  0  0  0  0  0  0
   51.0190   35.1720   42.9890 H   0  0  0  0  0  0  0  0  0  0  0  0
  1  3  1  0  0  0  0
  1  2  1  0  0  0  0
  4  5  1  0  0  0  0
  4  1  1  0  0  0  0
  5 11  1  0  0  0  0
  5 10  1  0  0  0  0
  6 13  1  0  0  0  0
  6  5  1  0  0  0  0
  7  8  1  0  0  0  0
  7  6  1  0  0  0  0
  8  9  2  0  0  0  0
  9 17  1  0  0  0  0
  9  4  1  0  0  0  0
 12  6  1  0  0  0  0
 14  7  1  0  0  0  0
 15  7  1  0  0  0  0
 16  8  1  0  0  0  0
 17 18  1  0  0  0  0
 18 19  1  0  0  0  0
 18 25  2  0  0  0  0
 19 21  2  0  0  0  0
 20 19  1  0  0  0  0
 21 22  1  0  0  0  0
 23 21  1  0  0  0  0
 23 24  1  0  0  0  0
 25 23  1  0  0  0  0
 26  1  1  0  0  0  0
 26 29  1  0  0  0  0
 27 26  1  0  0  0  0
 28 26  1  0  0  0  0
 29 34  2  0  0  0  0
 29 30  1  0  0  0  0
 30 35  1  0  0  0  0
 30 31  2  0  0  0  0
 31 36  1  0  0  0  0
 32 31  1  0  0  0  0
 33 37  1  0  0  0  0
 33 32  2  0  0  0  0
 34 33  1  0  0  0  0
 37 42  1  0  0  0  0
 38 39  1  0  0  0  0
 38 37  2  0  0  0  0
 39 40  2  0  0  0  0
 40 45  1  0  0  0  0
 40 41  1  0  0  0  0
 41 46  1  0  0  0  0
 42 41  2  0  0  0  0
 43 38  1  0  0  0  0
 44 39  1  0  0  0  0
M  END
>  <minimizedAffinity>
-6.05352592

>  <minimizedRMSD>
4.01724005

$$$$
