
 OpenBabel03242521203D

 25 27  0  0  0  0  0  0  0  0999 V2000
   37.5050   28.3850   41.6300 C   0  0  0  0  0  0  0  0  0  0  0  0
   36.2090   28.1900   41.2440 C   0  0  0  0  0  0  0  0  0  0  0  0
   35.4360   29.1700   40.6840 C   0  0  0  0  0  0  0  0  0  0  0  0
   36.0340   30.3950   40.5220 N   0  0  0  0  0  0  0  0  0  0  0  0
   37.3020   30.5740   40.9040 C   0  0  0  0  0  0  0  0  0  0  0  0
   38.0850   29.6200   41.4590 N   0  0  0  0  0  0  0  0  0  0  0  0
   35.7460   27.2220   41.3750 H   0  0  0  0  0  0  0  0  0  0  0  0
   34.4100   28.9930   40.3840 H   0  0  0  0  0  0  0  0  0  0  0  0
   40.0250   26.6870   43.6720 C   0  0  0  0  0  0  0  0  0  0  0  0
   39.8030   25.3440   43.3390 C   0  0  0  0  0  0  0  0  0  0  0  0
   38.7940   25.0030   42.4170 C   0  0  0  0  0  0  0  0  0  0  0  0
   38.0670   26.0320   41.8840 N   0  0  0  0  0  0  0  0  0  0  0  0
   38.3080   27.3180   42.2270 C   0  0  0  0  0  0  0  0  0  0  0  0
   39.2720   27.6430   43.1070 N   0  0  0  0  0  0  0  0  0  0  0  0
   40.7860   26.9880   44.3700 H   0  0  0  0  0  0  0  0  0  0  0  0
   40.4050   24.5910   43.7910 H   0  0  0  0  0  0  0  0  0  0  0  0
   38.6010   23.9750   42.1420 H   0  0  0  0  0  0  0  0  0  0  0  0
   37.9920   31.8610   40.7550 C   0  0  0  0  0  0  0  0  0  0  0  0
   37.5160   32.8820   39.9580 C   0  0  0  0  0  0  0  0  0  0  0  0
   36.6290   32.9380   39.3430 H   0  0  0  0  0  0  0  0  0  0  0  0
   38.4060   33.9410   40.0500 C   0  0  0  0  0  0  0  0  0  0  0  0
   38.4420   34.9320   39.6060 H   0  0  0  0  0  0  0  0  0  0  0  0
   39.3940   33.5360   40.8960 N   0  0  0  0  0  0  0  0  0  0  0  0
   40.2390   34.1030   41.1900 H   0  0  0  0  0  0  0  0  0  0  0  0
   39.1360   32.2860   41.3150 N   0  0  0  0  0  0  0  0  0  0  0  0
  1 13  1  0  0  0  0
  2  7  1  0  0  0  0
  2  1  2  0  0  0  0
  3  2  1  0  0  0  0
  4  3  2  0  0  0  0
  4  5  1  0  0  0  0
  5  6  2  0  0  0  0
  6  1  1  0  0  0  0
  8  3  1  0  0  0  0
  9 15  1  0  0  0  0
 10  9  1  0  0  0  0
 10 16  1  0  0  0  0
 11 10  2  0  0  0  0
 12 13  2  0  0  0  0
 12 11  1  0  0  0  0
 13 14  1  0  0  0  0
 14  9  2  0  0  0  0
 17 11  1  0  0  0  0
 18  5  1  0  0  0  0
 18 25  2  0  0  0  0
 19 21  2  0  0  0  0
 19 18  1  0  0  0  0
 20 19  1  0  0  0  0
 21 23  1  0  0  0  0
 22 21  1  0  0  0  0
 23 24  1  0  0  0  0
 23 25  1  0  0  0  0
M  END
>  <minimizedAffinity>
-5.0249238

$$$$

 OpenBabel03242521203D

 25 27  0  0  0  0  0  0  0  0999 V2000
   37.2210   27.0440   41.5290 C   0  0  0  0  0  0  0  0  0  0  0  0
   37.6650   26.8270   42.8040 C   0  0  0  0  0  0  0  0  0  0  0  0
   38.0670   27.8310   43.6410 C   0  0  0  0  0  0  0  0  0  0  0  0
   38.0060   29.1040   43.1330 N   0  0  0  0  0  0  0  0  0  0  0  0
   37.5700   29.3050   41.8860 C   0  0  0  0  0  0  0  0  0  0  0  0
   37.1670   28.3280   41.0400 N   0  0  0  0  0  0  0  0  0  0  0  0
   37.7100   25.8200   43.1950 H   0  0  0  0  0  0  0  0  0  0  0  0
   38.4150   27.6350   44.6480 H   0  0  0  0  0  0  0  0  0  0  0  0
   36.4220   23.6690   40.3600 C   0  0  0  0  0  0  0  0  0  0  0  0
   36.0170   23.9140   39.0410 C   0  0  0  0  0  0  0  0  0  0  0  0
   36.0120   25.2290   38.5360 C   0  0  0  0  0  0  0  0  0  0  0  0
   36.4140   26.2210   39.3880 N   0  0  0  0  0  0  0  0  0  0  0  0
   36.7980   25.9500   40.6560 C   0  0  0  0  0  0  0  0  0  0  0  0
   36.8040   24.6940   41.1360 N   0  0  0  0  0  0  0  0  0  0  0  0
   36.4400   22.6790   40.7810 H   0  0  0  0  0  0  0  0  0  0  0  0
   35.7150   23.0950   38.4310 H   0  0  0  0  0  0  0  0  0  0  0  0
   35.7040   25.4460   37.5220 H   0  0  0  0  0  0  0  0  0  0  0  0
   37.4820   30.6450   41.2920 C   0  0  0  0  0  0  0  0  0  0  0  0
   38.5810   31.4580   41.1040 C   0  0  0  0  0  0  0  0  0  0  0  0
   39.6250   31.2920   41.3320 H   0  0  0  0  0  0  0  0  0  0  0  0
   38.1400   32.6380   40.5250 C   0  0  0  0  0  0  0  0  0  0  0  0
   38.6400   33.5480   40.2040 H   0  0  0  0  0  0  0  0  0  0  0  0
   36.7920   32.5100   40.3780 N   0  0  0  0  0  0  0  0  0  0  0  0
   36.1360   33.2310   39.9650 H   0  0  0  0  0  0  0  0  0  0  0  0
   36.4070   31.3090   40.8410 N   0  0  0  0  0  0  0  0  0  0  0  0
  1  2  1  0  0  0  0
  2  7  1  0  0  0  0
  2  3  2  0  0  0  0
  3  8  1  0  0  0  0
  4  3  1  0  0  0  0
  5  4  2  0  0  0  0
  6  1  2  0  0  0  0
  6  5  1  0  0  0  0
  9 15  1  0  0  0  0
  9 14  1  0  0  0  0
 10  9  2  0  0  0  0
 11 10  1  0  0  0  0
 11 12  2  0  0  0  0
 12 13  1  0  0  0  0
 13 14  2  0  0  0  0
 13  1  1  0  0  0  0
 16 10  1  0  0  0  0
 17 11  1  0  0  0  0
 18  5  1  0  0  0  0
 19 18  1  0  0  0  0
 19 20  1  0  0  0  0
 21 19  2  0  0  0  0
 22 21  1  0  0  0  0
 23 21  1  0  0  0  0
 23 25  1  0  0  0  0
 24 23  1  0  0  0  0
 25 18  2  0  0  0  0
M  END
>  <minimizedAffinity>
-4.91657734

$$$$

 OpenBabel03242521203D

 25 27  0  0  0  0  0  0  0  0999 V2000
   38.6060   27.8090   41.7120 C   0  0  0  0  0  0  0  0  0  0  0  0
   39.7440   27.8270   42.4680 C   0  0  0  0  0  0  0  0  0  0  0  0
   40.4260   28.9730   42.7740 C   0  0  0  0  0  0  0  0  0  0  0  0
   39.9040   30.1400   42.2740 N   0  0  0  0  0  0  0  0  0  0  0  0
   38.7910   30.1100   41.5360 C   0  0  0  0  0  0  0  0  0  0  0  0
   38.1000   28.9900   41.2210 N   0  0  0  0  0  0  0  0  0  0  0  0
   40.1480   26.9030   42.8570 H   0  0  0  0  0  0  0  0  0  0  0  0
   41.3260   28.9640   43.3760 H   0  0  0  0  0  0  0  0  0  0  0  0
   37.2680   24.4180   42.0450 C   0  0  0  0  0  0  0  0  0  0  0  0
   36.5910   24.2590   40.8290 C   0  0  0  0  0  0  0  0  0  0  0  0
   36.5820   25.3040   39.8830 C   0  0  0  0  0  0  0  0  0  0  0  0
   37.2550   26.4470   40.2170 N   0  0  0  0  0  0  0  0  0  0  0  0
   37.8990   26.5680   41.4000 C   0  0  0  0  0  0  0  0  0  0  0  0
   37.9070   25.5700   42.3020 N   0  0  0  0  0  0  0  0  0  0  0  0
   37.2980   23.6450   42.7920 H   0  0  0  0  0  0  0  0  0  0  0  0
   36.0860   23.3430   40.6320 H   0  0  0  0  0  0  0  0  0  0  0  0
   36.0670   25.2080   38.9370 H   0  0  0  0  0  0  0  0  0  0  0  0
   38.1870   31.3270   40.9760 C   0  0  0  0  0  0  0  0  0  0  0  0
   38.9200   32.4540   40.6630 C   0  0  0  0  0  0  0  0  0  0  0  0
   39.9780   32.6530   40.7560 H   0  0  0  0  0  0  0  0  0  0  0  0
   38.0420   33.4020   40.1620 C   0  0  0  0  0  0  0  0  0  0  0  0
   38.1640   34.4180   39.7940 H   0  0  0  0  0  0  0  0  0  0  0  0
   36.8060   32.8280   40.1830 N   0  0  0  0  0  0  0  0  0  0  0  0
   35.9010   33.2780   39.8670 H   0  0  0  0  0  0  0  0  0  0  0  0
   36.9050   31.5820   40.6740 N   0  0  0  0  0  0  0  0  0  0  0  0
  1  2  1  0  0  0  0
  2  3  2  0  0  0  0
  2  7  1  0  0  0  0
  3  8  1  0  0  0  0
  4  3  1  0  0  0  0
  5  4  2  0  0  0  0
  6  5  1  0  0  0  0
  6  1  2  0  0  0  0
  9 14  1  0  0  0  0
  9 15  1  0  0  0  0
 10  9  2  0  0  0  0
 11 12  2  0  0  0  0
 11 10  1  0  0  0  0
 12 13  1  0  0  0  0
 13  1  1  0  0  0  0
 13 14  2  0  0  0  0
 16 10  1  0  0  0  0
 17 11  1  0  0  0  0
 18  5  1  0  0  0  0
 19 20  1  0  0  0  0
 19 18  1  0  0  0  0
 21 23  1  0  0  0  0
 21 19  2  0  0  0  0
 22 21  1  0  0  0  0
 23 25  1  0  0  0  0
 24 23  1  0  0  0  0
 25 18  2  0  0  0  0
M  END
>  <minimizedAffinity>
-4.69148636

$$$$

 OpenBabel03242521203D

 25 27  0  0  0  0  0  0  0  0999 V2000
   37.3480   29.5700   40.0140 C   0  0  0  0  0  0  0  0  0  0  0  0
   36.3800   29.3720   39.0690 C   0  0  0  0  0  0  0  0  0  0  0  0
   36.3680   30.0120   37.8600 C   0  0  0  0  0  0  0  0  0  0  0  0
   37.3980   30.8890   37.6290 N   0  0  0  0  0  0  0  0  0  0  0  0
   38.3380   31.0750   38.5600 C   0  0  0  0  0  0  0  0  0  0  0  0
   38.3710   30.4540   39.7610 N   0  0  0  0  0  0  0  0  0  0  0  0
   35.5730   28.6800   39.2610 H   0  0  0  0  0  0  0  0  0  0  0  0
   35.5910   29.8390   37.1260 H   0  0  0  0  0  0  0  0  0  0  0  0
   36.9270   26.9160   42.4990 C   0  0  0  0  0  0  0  0  0  0  0  0
   37.3050   27.5690   43.6790 C   0  0  0  0  0  0  0  0  0  0  0  0
   37.7080   28.9190   43.6420 C   0  0  0  0  0  0  0  0  0  0  0  0
   37.7060   29.5320   42.4200 N   0  0  0  0  0  0  0  0  0  0  0  0
   37.3350   28.8720   41.2990 C   0  0  0  0  0  0  0  0  0  0  0  0
   36.9500   27.5840   41.3360 N   0  0  0  0  0  0  0  0  0  0  0  0
   36.6130   25.8870   42.4860 H   0  0  0  0  0  0  0  0  0  0  0  0
   37.2850   27.0330   44.5990 H   0  0  0  0  0  0  0  0  0  0  0  0
   38.0050   29.4470   44.5380 H   0  0  0  0  0  0  0  0  0  0  0  0
   39.4620   32.0000   38.3660 C   0  0  0  0  0  0  0  0  0  0  0  0
   39.9470   32.8160   39.3690 C   0  0  0  0  0  0  0  0  0  0  0  0
   39.6310   32.9290   40.3960 H   0  0  0  0  0  0  0  0  0  0  0  0
   41.0000   33.5490   38.8450 C   0  0  0  0  0  0  0  0  0  0  0  0
   41.6680   34.3010   39.2560 H   0  0  0  0  0  0  0  0  0  0  0  0
   41.1250   33.1620   37.5440 N   0  0  0  0  0  0  0  0  0  0  0  0
   41.8370   33.5250   36.8490 H   0  0  0  0  0  0  0  0  0  0  0  0
   40.1980   32.2310   37.2670 N   0  0  0  0  0  0  0  0  0  0  0  0
  1 13  1  0  0  0  0
  2  7  1  0  0  0  0
  2  1  2  0  0  0  0
  3  2  1  0  0  0  0
  4  3  2  0  0  0  0
  4  5  1  0  0  0  0
  5  6  2  0  0  0  0
  6  1  1  0  0  0  0
  8  3  1  0  0  0  0
  9 10  1  0  0  0  0
 10 16  1  0  0  0  0
 11 10  2  0  0  0  0
 11 17  1  0  0  0  0
 12 11  1  0  0  0  0
 13 14  1  0  0  0  0
 13 12  2  0  0  0  0
 14  9  2  0  0  0  0
 15  9  1  0  0  0  0
 18  5  1  0  0  0  0
 18 19  1  0  0  0  0
 19 20  1  0  0  0  0
 21 22  1  0  0  0  0
 21 19  2  0  0  0  0
 23 21  1  0  0  0  0
 24 23  1  0  0  0  0
 25 23  1  0  0  0  0
 25 18  2  0  0  0  0
M  END
>  <minimizedAffinity>
-4.68308496

$$$$

 OpenBabel03242521203D

 25 27  0  0  0  0  0  0  0  0999 V2000
   37.4920   28.8900   41.3120 C   0  0  0  0  0  0  0  0  0  0  0  0
   37.4530   29.3070   42.6130 C   0  0  0  0  0  0  0  0  0  0  0  0
   37.5060   28.4500   43.6790 C   0  0  0  0  0  0  0  0  0  0  0  0
   37.6010   27.1150   43.3780 N   0  0  0  0  0  0  0  0  0  0  0  0
   37.6370   26.7180   42.1030 C   0  0  0  0  0  0  0  0  0  0  0  0
   37.5870   27.5460   41.0330 N   0  0  0  0  0  0  0  0  0  0  0  0
   37.3790   30.3610   42.8390 H   0  0  0  0  0  0  0  0  0  0  0  0
   37.4750   28.8040   44.7020 H   0  0  0  0  0  0  0  0  0  0  0  0
   37.6800   30.2230   37.9080 C   0  0  0  0  0  0  0  0  0  0  0  0
   37.3280   31.5640   38.1080 C   0  0  0  0  0  0  0  0  0  0  0  0
   37.0230   32.0290   39.4030 C   0  0  0  0  0  0  0  0  0  0  0  0
   37.0900   31.1160   40.4200 N   0  0  0  0  0  0  0  0  0  0  0  0
   37.4330   29.8280   40.1920 C   0  0  0  0  0  0  0  0  0  0  0  0
   37.7250   29.3860   38.9560 N   0  0  0  0  0  0  0  0  0  0  0  0
   37.9210   29.8300   36.9350 H   0  0  0  0  0  0  0  0  0  0  0  0
   37.2950   32.2220   37.2720 H   0  0  0  0  0  0  0  0  0  0  0  0
   36.7480   33.0580   39.5860 H   0  0  0  0  0  0  0  0  0  0  0  0
   37.7390   25.3030   41.7230 C   0  0  0  0  0  0  0  0  0  0  0  0
   36.8330   24.6820   40.8870 C   0  0  0  0  0  0  0  0  0  0  0  0
   35.9530   25.0700   40.3920 H   0  0  0  0  0  0  0  0  0  0  0  0
   37.2270   23.3610   40.7440 C   0  0  0  0  0  0  0  0  0  0  0  0
   36.8270   22.5140   40.1920 H   0  0  0  0  0  0  0  0  0  0  0  0
   38.3570   23.2170   41.4920 N   0  0  0  0  0  0  0  0  0  0  0  0
   38.9230   22.3290   41.6060 H   0  0  0  0  0  0  0  0  0  0  0  0
   38.6560   24.3890   42.0750 N   0  0  0  0  0  0  0  0  0  0  0  0
  1  2  1  0  0  0  0
  2  7  1  0  0  0  0
  2  3  2  0  0  0  0
  3  8  1  0  0  0  0
  4  3  1  0  0  0  0
  5  4  2  0  0  0  0
  6  1  2  0  0  0  0
  6  5  1  0  0  0  0
  9 10  2  0  0  0  0
  9 14  1  0  0  0  0
 10 11  1  0  0  0  0
 11 17  1  0  0  0  0
 11 12  2  0  0  0  0
 13 12  1  0  0  0  0
 13  1  1  0  0  0  0
 14 13  2  0  0  0  0
 15  9  1  0  0  0  0
 16 10  1  0  0  0  0
 18 25  2  0  0  0  0
 18  5  1  0  0  0  0
 19 18  1  0  0  0  0
 20 19  1  0  0  0  0
 21 19  2  0  0  0  0
 21 23  1  0  0  0  0
 22 21  1  0  0  0  0
 23 24  1  0  0  0  0
 23 25  1  0  0  0  0
M  END
>  <minimizedAffinity>
-4.66813183

$$$$

 OpenBabel03242521203D

 25 27  0  0  0  0  0  0  0  0999 V2000
   36.7900   28.5750   39.7960 C   0  0  0  0  0  0  0  0  0  0  0  0
   36.1370   28.6160   38.5960 C   0  0  0  0  0  0  0  0  0  0  0  0
   36.0410   29.7460   37.8300 C   0  0  0  0  0  0  0  0  0  0  0  0
   36.6450   30.8710   38.3330 N   0  0  0  0  0  0  0  0  0  0  0  0
   37.2800   30.8190   39.5070 C   0  0  0  0  0  0  0  0  0  0  0  0
   37.3880   29.7140   40.2810 N   0  0  0  0  0  0  0  0  0  0  0  0
   35.6640   27.7250   38.2080 H   0  0  0  0  0  0  0  0  0  0  0  0
   35.5190   29.7540   36.8810 H   0  0  0  0  0  0  0  0  0  0  0  0
   36.8550   25.0230   40.6770 C   0  0  0  0  0  0  0  0  0  0  0  0
   37.0300   25.0780   42.0660 C   0  0  0  0  0  0  0  0  0  0  0  0
   37.1280   26.3240   42.7170 C   0  0  0  0  0  0  0  0  0  0  0  0
   37.0440   27.4410   41.9330 N   0  0  0  0  0  0  0  0  0  0  0  0
   36.8750   27.3520   40.5940 C   0  0  0  0  0  0  0  0  0  0  0  0
   36.7810   26.1630   39.9740 N   0  0  0  0  0  0  0  0  0  0  0  0
   36.7750   24.0920   40.1450 H   0  0  0  0  0  0  0  0  0  0  0  0
   37.0880   24.1700   42.6190 H   0  0  0  0  0  0  0  0  0  0  0  0
   37.2640   26.3950   43.7880 H   0  0  0  0  0  0  0  0  0  0  0  0
   37.9450   31.9910   40.0920 C   0  0  0  0  0  0  0  0  0  0  0  0
   37.7040   33.2820   39.6680 C   0  0  0  0  0  0  0  0  0  0  0  0
   37.0450   33.6570   38.8980 H   0  0  0  0  0  0  0  0  0  0  0  0
   38.4910   34.1310   40.4300 C   0  0  0  0  0  0  0  0  0  0  0  0
   38.6300   35.2090   40.4510 H   0  0  0  0  0  0  0  0  0  0  0  0
   39.1860   33.3360   41.2920 N   0  0  0  0  0  0  0  0  0  0  0  0
   39.8830   33.6610   42.0200 H   0  0  0  0  0  0  0  0  0  0  0  0
   38.8500   32.0530   41.0810 N   0  0  0  0  0  0  0  0  0  0  0  0
  1  6  1  0  0  0  0
  1 13  1  0  0  0  0
  2  1  2  0  0  0  0
  3  4  2  0  0  0  0
  3  2  1  0  0  0  0
  4  5  1  0  0  0  0
  5 18  1  0  0  0  0
  5  6  2  0  0  0  0
  7  2  1  0  0  0  0
  8  3  1  0  0  0  0
  9 10  1  0  0  0  0
 10 16  1  0  0  0  0
 10 11  2  0  0  0  0
 11 17  1  0  0  0  0
 12 11  1  0  0  0  0
 13 12  2  0  0  0  0
 14 13  1  0  0  0  0
 14  9  2  0  0  0  0
 15  9  1  0  0  0  0
 18 25  2  0  0  0  0
 19 18  1  0  0  0  0
 19 21  2  0  0  0  0
 20 19  1  0  0  0  0
 21 22  1  0  0  0  0
 21 23  1  0  0  0  0
 23 24  1  0  0  0  0
 25 23  1  0  0  0  0
M  END
>  <minimizedAffinity>
-4.58355713

$$$$

 OpenBabel03242521203D

 25 27  0  0  0  0  0  0  0  0999 V2000
   37.7300   30.3190   40.6380 C   0  0  0  0  0  0  0  0  0  0  0  0
   36.8770   31.3870   40.6430 C   0  0  0  0  0  0  0  0  0  0  0  0
   37.0330   32.4780   39.8320 C   0  0  0  0  0  0  0  0  0  0  0  0
   38.1160   32.4540   38.9880 N   0  0  0  0  0  0  0  0  0  0  0  0
   38.9430   31.4050   38.9920 C   0  0  0  0  0  0  0  0  0  0  0  0
   38.8080   30.3160   39.7850 N   0  0  0  0  0  0  0  0  0  0  0  0
   36.0280   31.3960   41.3110 H   0  0  0  0  0  0  0  0  0  0  0  0
   36.3450   33.3130   39.8520 H   0  0  0  0  0  0  0  0  0  0  0  0
   37.5870   28.2740   43.6710 C   0  0  0  0  0  0  0  0  0  0  0  0
   37.1870   27.0330   43.1580 C   0  0  0  0  0  0  0  0  0  0  0  0
   36.9620   26.8790   41.7760 C   0  0  0  0  0  0  0  0  0  0  0  0
   37.1520   27.9830   40.9900 N   0  0  0  0  0  0  0  0  0  0  0  0
   37.5380   29.1660   41.5180 C   0  0  0  0  0  0  0  0  0  0  0  0
   37.7540   29.3120   42.8380 N   0  0  0  0  0  0  0  0  0  0  0  0
   37.7690   28.4310   44.7200 H   0  0  0  0  0  0  0  0  0  0  0  0
   37.0570   26.2140   43.8250 H   0  0  0  0  0  0  0  0  0  0  0  0
   36.6530   25.9320   41.3530 H   0  0  0  0  0  0  0  0  0  0  0  0
   40.1150   31.3260   38.1110 C   0  0  0  0  0  0  0  0  0  0  0  0
   40.8120   32.4380   37.6840 C   0  0  0  0  0  0  0  0  0  0  0  0
   40.6540   33.4880   37.8900 H   0  0  0  0  0  0  0  0  0  0  0  0
   41.8490   32.0020   36.8750 C   0  0  0  0  0  0  0  0  0  0  0  0
   42.6390   32.5110   36.3280 H   0  0  0  0  0  0  0  0  0  0  0  0
   41.7540   30.6440   36.8320 N   0  0  0  0  0  0  0  0  0  0  0  0
   42.3940   29.9880   36.3010 H   0  0  0  0  0  0  0  0  0  0  0  0
   40.7100   30.2480   37.5780 N   0  0  0  0  0  0  0  0  0  0  0  0
  1  2  1  0  0  0  0
  1 13  1  0  0  0  0
  2  7  1  0  0  0  0
  3  8  1  0  0  0  0
  3  2  2  0  0  0  0
  4  5  2  0  0  0  0
  4  3  1  0  0  0  0
  5  6  1  0  0  0  0
  6  1  2  0  0  0  0
  9 15  1  0  0  0  0
 10  9  1  0  0  0  0
 10 16  1  0  0  0  0
 11 10  2  0  0  0  0
 12 13  2  0  0  0  0
 12 11  1  0  0  0  0
 13 14  1  0  0  0  0
 14  9  2  0  0  0  0
 17 11  1  0  0  0  0
 18  5  1  0  0  0  0
 19 20  1  0  0  0  0
 19 18  1  0  0  0  0
 21 19  2  0  0  0  0
 22 21  1  0  0  0  0
 23 21  1  0  0  0  0
 23 25  1  0  0  0  0
 24 23  1  0  0  0  0
 25 18  2  0  0  0  0
M  END
>  <minimizedAffinity>
-4.5151763

$$$$

 OpenBabel03242521203D

 25 27  0  0  0  0  0  0  0  0999 V2000
   39.0580   31.1160   38.9930 C   0  0  0  0  0  0  0  0  0  0  0  0
   38.3380   32.2690   38.8440 C   0  0  0  0  0  0  0  0  0  0  0  0
   37.2590   32.5870   39.6230 C   0  0  0  0  0  0  0  0  0  0  0  0
   36.9190   31.6730   40.5890 N   0  0  0  0  0  0  0  0  0  0  0  0
   37.6290   30.5500   40.7250 C   0  0  0  0  0  0  0  0  0  0  0  0
   38.6990   30.2140   39.9670 N   0  0  0  0  0  0  0  0  0  0  0  0
   38.6140   32.9820   38.0810 H   0  0  0  0  0  0  0  0  0  0  0  0
   36.7040   33.5070   39.4880 H   0  0  0  0  0  0  0  0  0  0  0  0
   41.4830   29.1990   37.0330 C   0  0  0  0  0  0  0  0  0  0  0  0
   42.3380   30.2090   36.5730 C   0  0  0  0  0  0  0  0  0  0  0  0
   42.0980   31.5520   36.9240 C   0  0  0  0  0  0  0  0  0  0  0  0
   41.0130   31.8010   37.7180 N   0  0  0  0  0  0  0  0  0  0  0  0
   40.2070   30.8020   38.1450 C   0  0  0  0  0  0  0  0  0  0  0  0
   40.4370   29.5200   37.8090 N   0  0  0  0  0  0  0  0  0  0  0  0
   41.6330   28.1620   36.7870 H   0  0  0  0  0  0  0  0  0  0  0  0
   43.1660   29.9470   35.9570 H   0  0  0  0  0  0  0  0  0  0  0  0
   42.7420   32.3510   36.5830 H   0  0  0  0  0  0  0  0  0  0  0  0
   37.3110   29.5380   41.7400 C   0  0  0  0  0  0  0  0  0  0  0  0
   38.0370   29.3850   42.9040 C   0  0  0  0  0  0  0  0  0  0  0  0
   38.9000   29.9240   43.2690 H   0  0  0  0  0  0  0  0  0  0  0  0
   37.4660   28.3480   43.6250 C   0  0  0  0  0  0  0  0  0  0  0  0
   37.6960   27.8840   44.5820 H   0  0  0  0  0  0  0  0  0  0  0  0
   36.4140   27.9010   42.8840 N   0  0  0  0  0  0  0  0  0  0  0  0
   35.7570   27.1120   43.1420 H   0  0  0  0  0  0  0  0  0  0  0  0
   36.3300   28.6220   41.7540 N   0  0  0  0  0  0  0  0  0  0  0  0
  1  6  1  0  0  0  0
  2  1  2  0  0  0  0
  2  3  1  0  0  0  0
  3  4  2  0  0  0  0
  4  5  1  0  0  0  0
  5 18  1  0  0  0  0
  6  5  2  0  0  0  0
  7  2  1  0  0  0  0
  8  3  1  0  0  0  0
  9 14  1  0  0  0  0
 10 11  1  0  0  0  0
 10  9  2  0  0  0  0
 11 12  2  0  0  0  0
 12 13  1  0  0  0  0
 13  1  1  0  0  0  0
 14 13  2  0  0  0  0
 15  9  1  0  0  0  0
 16 10  1  0  0  0  0
 17 11  1  0  0  0  0
 18 25  2  0  0  0  0
 18 19  1  0  0  0  0
 19 20  1  0  0  0  0
 19 21  2  0  0  0  0
 21 22  1  0  0  0  0
 23 24  1  0  0  0  0
 23 21  1  0  0  0  0
 25 23  1  0  0  0  0
M  END
>  <minimizedAffinity>
-4.51091146

$$$$

 OpenBabel03242521203D

 25 27  0  0  0  0  0  0  0  0999 V2000
   37.2130   29.9220   40.1110 C   0  0  0  0  0  0  0  0  0  0  0  0
   37.2220   31.2840   40.2280 C   0  0  0  0  0  0  0  0  0  0  0  0
   37.1760   32.1310   39.1550 C   0  0  0  0  0  0  0  0  0  0  0  0
   37.1210   31.5400   37.9180 N   0  0  0  0  0  0  0  0  0  0  0  0
   37.1130   30.2080   37.8150 C   0  0  0  0  0  0  0  0  0  0  0  0
   37.1570   29.3500   38.8620 N   0  0  0  0  0  0  0  0  0  0  0  0
   37.2660   31.7400   41.2070 H   0  0  0  0  0  0  0  0  0  0  0  0
   37.1840   33.2080   39.2720 H   0  0  0  0  0  0  0  0  0  0  0  0
   37.6420   28.7790   43.5620 C   0  0  0  0  0  0  0  0  0  0  0  0
   37.3610   27.4110   43.4450 C   0  0  0  0  0  0  0  0  0  0  0  0
   37.0230   26.8640   42.1910 C   0  0  0  0  0  0  0  0  0  0  0  0
   36.9870   27.7250   41.1290 N   0  0  0  0  0  0  0  0  0  0  0  0
   37.2630   29.0400   41.2770 C   0  0  0  0  0  0  0  0  0  0  0  0
   37.5870   29.5610   42.4740 N   0  0  0  0  0  0  0  0  0  0  0  0
   37.9040   29.2340   44.5010 H   0  0  0  0  0  0  0  0  0  0  0  0
   37.4070   26.7960   44.3130 H   0  0  0  0  0  0  0  0  0  0  0  0
   36.8010   25.8120   42.0730 H   0  0  0  0  0  0  0  0  0  0  0  0
   37.0540   29.5210   36.5190 C   0  0  0  0  0  0  0  0  0  0  0  0
   36.3810   30.0310   35.4270 C   0  0  0  0  0  0  0  0  0  0  0  0
   35.8180   30.9470   35.3140 H   0  0  0  0  0  0  0  0  0  0  0  0
   36.5310   29.1340   34.3810 C   0  0  0  0  0  0  0  0  0  0  0  0
   36.1820   29.1160   33.3520 H   0  0  0  0  0  0  0  0  0  0  0  0
   37.2860   28.1070   34.8640 N   0  0  0  0  0  0  0  0  0  0  0  0
   37.5920   27.2480   34.3260 H   0  0  0  0  0  0  0  0  0  0  0  0
   37.5950   28.3500   36.1480 N   0  0  0  0  0  0  0  0  0  0  0  0
  1  2  1  0  0  0  0
  1 13  1  0  0  0  0
  2  7  1  0  0  0  0
  3  8  1  0  0  0  0
  3  2  2  0  0  0  0
  4  3  1  0  0  0  0
  5  4  2  0  0  0  0
  5  6  1  0  0  0  0
  6  1  2  0  0  0  0
  9 15  1  0  0  0  0
 10  9  1  0  0  0  0
 10 16  1  0  0  0  0
 11 10  2  0  0  0  0
 12 13  2  0  0  0  0
 12 11  1  0  0  0  0
 13 14  1  0  0  0  0
 14  9  2  0  0  0  0
 17 11  1  0  0  0  0
 18  5  1  0  0  0  0
 19 18  1  0  0  0  0
 20 19  1  0  0  0  0
 21 23  1  0  0  0  0
 21 19  2  0  0  0  0
 22 21  1  0  0  0  0
 23 25  1  0  0  0  0
 24 23  1  0  0  0  0
 25 18  2  0  0  0  0
M  END
>  <minimizedAffinity>
-4.47708941

$$$$
