
 OpenBabel03242514223D

 33 36  0  0  0  0  0  0  0  0999 V2000
   44.7570   33.1630   41.1020 Cl  0  0  0  0  0  0  0  0  0  0  0  0
   46.2970   33.9630   40.8970 C   0  0  0  0  0  0  0  0  0  0  0  0
   46.8100   34.7000   41.9110 C   0  0  0  0  0  0  0  0  0  0  0  0
   48.0480   35.3510   41.7630 C   0  0  0  0  0  0  0  0  0  0  0  0
   48.6880   35.1990   40.5660 C   0  0  0  0  0  0  0  0  0  0  0  0
   48.1500   34.4390   39.5340 C   0  0  0  0  0  0  0  0  0  0  0  0
   46.9470   33.8180   39.7050 C   0  0  0  0  0  0  0  0  0  0  0  0
   48.4860   35.9470   42.5510 H   0  0  0  0  0  0  0  0  0  0  0  0
   49.6510   35.6550   40.3390 H   0  0  0  0  0  0  0  0  0  0  0  0
   48.6690   34.3280   38.5910 H   0  0  0  0  0  0  0  0  0  0  0  0
   46.3590   33.0130   38.6370 C   0  0  0  0  0  0  0  0  0  0  0  0
   45.3770   33.3670   37.7930 N   0  0  0  0  0  0  0  0  0  0  0  0
   45.1360   32.3350   36.9680 C   0  0  0  0  0  0  0  0  0  0  0  0
   45.9660   31.3220   37.2870 N   0  0  0  0  0  0  0  0  0  0  0  0
   46.7140   31.7440   38.3120 N   0  0  0  0  0  0  0  0  0  0  0  0
   44.3670   32.4290   36.2070 H   0  0  0  0  0  0  0  0  0  0  0  0
   45.9850   30.0680   36.6150 C   0  0  0  0  0  0  0  0  0  0  0  0
   44.9960   29.1170   36.8390 C   0  0  0  0  0  0  0  0  0  0  0  0
   44.1070   29.1080   37.4860 H   0  0  0  0  0  0  0  0  0  0  0  0
   45.3150   28.0270   36.0340 C   0  0  0  0  0  0  0  0  0  0  0  0
   44.8050   27.0740   35.9070 H   0  0  0  0  0  0  0  0  0  0  0  0
   46.4490   28.3280   35.3610 N   0  0  0  0  0  0  0  0  0  0  0  0
   46.9410   27.7010   34.6720 H   0  0  0  0  0  0  0  0  0  0  0  0
   46.8530   29.5610   35.7120 N   0  0  0  0  0  0  0  0  0  0  0  0
   45.5960   34.0290   45.3190 C   0  0  0  0  0  0  0  0  0  0  0  0
   44.7240   35.0960   45.5340 C   0  0  0  0  0  0  0  0  0  0  0  0
   44.5510   36.0370   44.5270 C   0  0  0  0  0  0  0  0  0  0  0  0
   45.2450   35.8640   43.3800 N   0  0  0  0  0  0  0  0  0  0  0  0
   46.0840   34.8330   43.1780 C   0  0  0  0  0  0  0  0  0  0  0  0
   46.2590   33.9170   44.1470 N   0  0  0  0  0  0  0  0  0  0  0  0
   45.6880   33.3360   46.1320 H   0  0  0  0  0  0  0  0  0  0  0  0
   44.1520   35.2690   46.4360 H   0  0  0  0  0  0  0  0  0  0  0  0
   43.9180   36.9090   44.5430 H   0  0  0  0  0  0  0  0  0  0  0  0
  2  1  1  0  0  0  0
  2  3  1  0  0  0  0
  3 29  1  0  0  0  0
  4  3  2  0  0  0  0
  4  8  1  0  0  0  0
  5  4  1  0  0  0  0
  6  7  1  0  0  0  0
  6  5  2  0  0  0  0
  7  2  2  0  0  0  0
  9  5  1  0  0  0  0
 10  6  1  0  0  0  0
 11  7  1  0  0  0  0
 12 11  1  0  0  0  0
 13 14  1  0  0  0  0
 13 12  2  0  0  0  0
 14 15  1  0  0  0  0
 15 11  2  0  0  0  0
 16 13  1  0  0  0  0
 17 18  1  0  0  0  0
 17 14  1  0  0  0  0
 18 19  1  0  0  0  0
 20 18  2  0  0  0  0
 21 20  1  0  0  0  0
 22 24  1  0  0  0  0
 22 20  1  0  0  0  0
 23 22  1  0  0  0  0
 24 17  2  0  0  0  0
 25 26  1  0  0  0  0
 25 31  1  0  0  0  0
 26 32  1  0  0  0  0
 27 33  1  0  0  0  0
 27 26  2  0  0  0  0
 28 27  1  0  0  0  0
 29 28  2  0  0  0  0
 29 30  1  0  0  0  0
 30 25  2  0  0  0  0
M  END
>  <minimizedAffinity>
-5.68721771

>  <minimizedRMSD>
0.250447959

$$$$
