
 OpenBabel03252505513D

 24 25  0  0  0  0  0  0  0  0999 V2000
   44.6670   35.4400   45.0930 C   0  0  0  0  0  0  0  0  0  0  0  0
   45.5190   34.9950   44.0760 C   0  0  0  0  0  0  0  0  0  0  0  0
   46.2570   33.8430   44.3160 C   0  0  0  0  0  0  0  0  0  0  0  0
   46.1340   33.2000   45.4980 N   0  0  0  0  0  0  0  0  0  0  0  0
   45.2960   33.6700   46.4540 C   0  0  0  0  0  0  0  0  0  0  0  0
   44.5680   34.7680   46.2710 N   0  0  0  0  0  0  0  0  0  0  0  0
   44.0530   36.3320   44.9890 H   0  0  0  0  0  0  0  0  0  0  0  0
   46.8980   33.5240   43.5280 H   0  0  0  0  0  0  0  0  0  0  0  0
   45.5540   35.8090   42.8170 C   0  0  0  0  0  0  0  0  0  0  0  0
   45.2070   37.0850   43.1820 F   0  0  0  0  0  0  0  0  0  0  0  0
   44.5910   35.2790   41.9750 F   0  0  0  0  0  0  0  0  0  0  0  0
   46.8130   35.7090   42.2850 F   0  0  0  0  0  0  0  0  0  0  0  0
   45.1480   33.0330   47.6750 O   0  0  0  0  0  0  0  0  0  0  0  0
   46.2000   32.3830   48.3400 C   0  0  0  0  0  0  0  0  0  0  0  0
   46.1760   32.6320   49.4040 H   0  0  0  0  0  0  0  0  0  0  0  0
   47.1510   32.7750   47.9230 H   0  0  0  0  0  0  0  0  0  0  0  0
   46.1380   30.9040   48.1450 C   0  0  0  0  0  0  0  0  0  0  0  0
   44.9750   30.1900   47.9660 C   0  0  0  0  0  0  0  0  0  0  0  0
   43.9790   30.6330   47.9480 H   0  0  0  0  0  0  0  0  0  0  0  0
   45.2140   28.8470   47.8100 C   0  0  0  0  0  0  0  0  0  0  0  0
   44.4640   28.0850   47.6560 H   0  0  0  0  0  0  0  0  0  0  0  0
   46.5650   28.7700   47.9020 N   0  0  0  0  0  0  0  0  0  0  0  0
   47.1030   27.8570   47.8250 H   0  0  0  0  0  0  0  0  0  0  0  0
   47.0940   29.9670   48.0960 N   0  0  0  0  0  0  0  0  0  0  0  0
  1  6  1  0  0  0  0
  2  3  1  0  0  0  0
  2  1  2  0  0  0  0
  3  4  2  0  0  0  0
  4  5  1  0  0  0  0
  5 13  1  0  0  0  0
  6  5  2  0  0  0  0
  7  1  1  0  0  0  0
  8  3  1  0  0  0  0
  9 10  1  0  0  0  0
  9  2  1  0  0  0  0
 11  9  1  0  0  0  0
 12  9  1  0  0  0  0
 13 14  1  0  0  0  0
 14 15  1  0  0  0  0
 16 14  1  0  0  0  0
 17 14  1  0  0  0  0
 18 17  1  0  0  0  0
 19 18  1  0  0  0  0
 20 22  1  0  0  0  0
 20 18  2  0  0  0  0
 21 20  1  0  0  0  0
 22 24  1  0  0  0  0
 23 22  1  0  0  0  0
 24 17  2  0  0  0  0
M  END
>  <minimizedAffinity>
-4.91906071

>  <minimizedRMSD>
0.919135332

$$$$
