
     RDKit          3D

 43 46  0  0  0  0  0  0  0  0999 V2000
   47.0753   34.8267   41.9603 C   0  0  2  0  0  0  0  0  0  0  0  0
   46.3125   34.2035   40.7871 C   0  0  0  0  0  0  0  0  0  0  0  0
   47.5173   34.0245   39.8358 C   0  0  0  0  0  0  0  0  0  0  0  0
   48.6538   33.6391   40.7308 C   0  0  1  0  0  0  0  0  0  0  0  0
   48.1443   33.7828   42.1324 C   0  0  0  0  0  0  0  0  0  0  0  0
   44.5133   35.9573   44.4798 C   0  0  0  0  0  0  0  0  0  0  0  0
   45.2552   35.9468   43.3037 C   0  0  0  0  0  0  0  0  0  0  0  0
   46.1969   34.9352   43.1623 C   0  0  0  0  0  0  0  0  0  0  0  0
   46.3724   33.9824   44.1715 N   0  0  0  0  0  0  0  0  0  0  0  0
   45.6167   34.0451   45.3007 C   0  0  0  0  0  0  0  0  0  0  0  0
   44.6915   35.0293   45.4519 N   0  0  0  0  0  0  0  0  0  0  0  0
   49.1314   32.2147   40.5680 C   0  0  2  0  0  0  0  0  0  0  0  0
   49.7604   31.6117   41.7321 C   0  0  0  0  0  0  0  0  0  0  0  0
   50.5543   31.8849   40.4933 C   0  0  1  0  0  0  0  0  0  0  0  0
   50.9227   30.7607   39.7126 O   0  0  0  0  0  0  0  0  0  0  0  0
   52.0224   30.1957   37.4181 O   0  0  0  0  0  0  0  0  0  0  0  0
   51.8712   31.2991   38.4338 P   0  0  1  0  0  0  0  0  0  0  0  0
   51.1031   32.6180   37.6515 O   0  0  0  0  0  0  0  0  0  0  0  0
   53.3866   31.8224   38.8732 O   0  0  0  0  0  0  0  0  0  0  0  0
   47.4153   35.8137   41.6269 H   0  0  0  0  0  0  0  0  0  0  0  0
   45.5796   34.8944   40.3625 H   0  0  0  0  0  0  0  0  0  0  0  0
   45.9355   33.2087   41.0617 H   0  0  0  0  0  0  0  0  0  0  0  0
   47.6900   35.0441   39.3854 H   0  0  0  0  0  0  0  0  0  0  0  0
   47.3152   33.2758   39.0613 H   0  0  0  0  0  0  0  0  0  0  0  0
   49.5141   34.3581   40.6262 H   0  0  0  0  0  0  0  0  0  0  0  0
   47.6647   32.8567   42.4416 H   0  0  0  0  0  0  0  0  0  0  0  0
   48.9326   34.1349   42.8277 H   0  0  0  0  0  0  0  0  0  0  0  0
   43.7700   36.7330   44.6210 H   0  0  0  0  0  0  0  0  0  0  0  0
   45.1352   36.6735   42.5121 H   0  0  0  0  0  0  0  0  0  0  0  0
   45.7552   33.3073   46.0791 H   0  0  0  0  0  0  0  0  0  0  0  0
   48.4447   31.5948   39.9620 H   0  0  0  0  0  0  0  0  0  0  0  0
   50.0371   32.2837   42.5944 H   0  0  0  0  0  0  0  0  0  0  0  0
   49.6271   30.5634   42.0632 H   0  0  0  0  0  0  0  0  0  0  0  0
   51.2113   32.7348   40.3288 H   0  0  0  0  0  0  0  0  0  0  0  0
   51.4442   33.4654   38.0039 H   0  0  0  0  0  0  0  0  0  0  0  0
   54.1643   31.2258   39.8524 C   0  0  0  0  0  0  0  0  0  0  0  0
   54.0998   29.9927   40.5059 C   0  0  0  0  0  0  0  0  0  0  0  0
   53.3186   29.2902   40.2681 H   0  0  0  0  0  0  0  0  0  0  0  0
   55.1395   29.9200   41.3998 C   0  0  0  0  0  0  0  0  0  0  0  0
   55.3367   29.0711   42.0477 H   0  0  0  0  0  0  0  0  0  0  0  0
   55.8132   31.0811   41.2869 N   0  0  0  0  0  0  0  0  0  0  0  0
   56.6579   31.2784   41.8662 H   0  0  0  0  0  0  0  0  0  0  0  0
   55.2488   31.8639   40.3758 N   0  0  0  0  0  0  0  0  0  0  0  0
  1  5  1  0
  1  8  1  0
  2  1  1  0
  3  4  1  0
  3  2  1  0
  4  5  1  0
  6 11  2  0
  7  6  1  0
  8  7  2  0
  8  9  1  0
  9 10  2  0
 10 11  1  0
 12  4  1  0
 12 13  1  0
 14 12  1  0
 14 13  1  0
 15 14  1  0
 16 17  2  0
 17 19  1  1
 17 15  1  0
 18 17  1  0
  1 20  1  6
  2 21  1  0
  2 22  1  0
  3 23  1  0
  3 24  1  0
  4 25  1  1
  5 26  1  0
  5 27  1  0
  6 28  1  0
  7 29  1  0
 10 30  1  0
 12 31  1  6
 13 32  1  0
 13 33  1  0
 14 34  1  1
 18 35  1  0
 36 37  1  0
 37 38  1  0
 37 39  2  0
 39 40  1  0
 39 41  1  0
 41 42  1  0
 41 43  1  0
 43 36  2  0
 19 36  1  0
M  ISO  8  20  13  21  13  22  13  23  13  24  13  25  13  26  13  27  13
M  ISO  8  28  14  29  14  30  14  31  13  32  13  33  13  34  13  35   3
M  ISO  3  38  15  40  16  42   5
M  END
>  <DihAtoms>  (1) 
16,18,35,36

>  <DihDeg>  (1) 
-0.0008938090142315723

$$$$
