
 OpenBabel03252505363D

 32 34  0  0  0  0  0  0  0  0999 V2000
   46.1470   31.8980   45.7140 C   0  0  0  0  0  0  0  0  0  0  0  0
   46.3950   32.8640   44.7110 C   0  0  0  0  0  0  0  0  0  0  0  0
   47.3520   32.5930   43.7620 C   0  0  0  0  0  0  0  0  0  0  0  0
   48.0130   31.4120   43.8370 N   0  0  0  0  0  0  0  0  0  0  0  0
   47.7480   30.5080   44.8180 C   0  0  0  0  0  0  0  0  0  0  0  0
   46.8200   30.7510   45.7490 N   0  0  0  0  0  0  0  0  0  0  0  0
   48.4760   29.2790   44.8810 N   0  0  0  0  0  0  0  0  0  0  0  0
   45.3920   32.0990   46.4680 H   0  0  0  0  0  0  0  0  0  0  0  0
   48.8240   29.0510   45.8560 H   0  0  0  0  0  0  0  0  0  0  0  0
   48.6760   28.6320   44.0860 H   0  0  0  0  0  0  0  0  0  0  0  0
   47.6970   33.4790   42.6930 C   0  0  0  0  0  0  0  0  0  0  0  0
   48.6860   34.4320   42.9330 C   0  0  0  0  0  0  0  0  0  0  0  0
   49.1120   35.3410   41.9680 C   0  0  0  0  0  0  0  0  0  0  0  0
   48.5290   35.3030   40.7090 C   0  0  0  0  0  0  0  0  0  0  0  0
   47.5590   34.3720   40.4670 C   0  0  0  0  0  0  0  0  0  0  0  0
   47.1360   33.4600   41.4420 C   0  0  0  0  0  0  0  0  0  0  0  0
   49.1790   34.5100   43.9000 H   0  0  0  0  0  0  0  0  0  0  0  0
   49.8820   36.0710   42.1770 H   0  0  0  0  0  0  0  0  0  0  0  0
   48.8210   35.9800   39.9310 H   0  0  0  0  0  0  0  0  0  0  0  0
   47.0860   34.3210   39.4850 H   0  0  0  0  0  0  0  0  0  0  0  0
   46.0970   32.4620   41.1590 C   0  0  0  0  0  0  0  0  0  0  0  0
   45.8100   32.5120   39.7990 F   0  0  0  0  0  0  0  0  0  0  0  0
   44.9670   32.7540   41.8960 F   0  0  0  0  0  0  0  0  0  0  0  0
   46.4500   31.1750   41.4870 F   0  0  0  0  0  0  0  0  0  0  0  0
   45.6350   34.1010   44.7910 C   0  0  0  0  0  0  0  0  0  0  0  0
   45.2110   35.1700   44.0340 C   0  0  0  0  0  0  0  0  0  0  0  0
   45.5480   35.1010   42.9860 H   0  0  0  0  0  0  0  0  0  0  0  0
   44.4830   36.0010   44.8550 C   0  0  0  0  0  0  0  0  0  0  0  0
   44.0830   36.8980   44.3780 H   0  0  0  0  0  0  0  0  0  0  0  0
   44.4640   35.4490   46.0880 N   0  0  0  0  0  0  0  0  0  0  0  0
   43.9540   35.9420   46.8500 H   0  0  0  0  0  0  0  0  0  0  0  0
   45.1540   34.3120   46.0490 N   0  0  0  0  0  0  0  0  0  0  0  0
  1  6  1  0  0  0  0
  1  8  1  0  0  0  0
  2 25  1  0  0  0  0
  2  1  2  0  0  0  0
  3  4  2  0  0  0  0
  3  2  1  0  0  0  0
  4  5  1  0  0  0  0
  5  7  1  0  0  0  0
  5  6  2  0  0  0  0
  7  9  1  0  0  0  0
 10  7  1  0  0  0  0
 11 12  1  0  0  0  0
 11  3  1  0  0  0  0
 12 17  1  0  0  0  0
 13 18  1  0  0  0  0
 13 12  2  0  0  0  0
 14 13  1  0  0  0  0
 15 14  2  0  0  0  0
 15 16  1  0  0  0  0
 16 11  2  0  0  0  0
 19 14  1  0  0  0  0
 20 15  1  0  0  0  0
 21 16  1  0  0  0  0
 21 24  1  0  0  0  0
 21 23  1  0  0  0  0
 22 21  1  0  0  0  0
 25 32  2  0  0  0  0
 26 25  1  0  0  0  0
 26 28  2  0  0  0  0
 27 26  1  0  0  0  0
 28 30  1  0  0  0  0
 29 28  1  0  0  0  0
 30 31  1  0  0  0  0
 32 30  1  0  0  0  0
M  END
>  <minimizedAffinity>
-5.94773865

>  <minimizedRMSD>
3.48150253

$$$$
