
 OpenBabel03252508203D

 33 35  0  0  0  0  0  0  0  0999 V2000
   46.1830   34.0420   41.0240 C   0  0  0  0  0  0  0  0  0  0  0  0
   47.0550   34.0130   39.9390 C   0  0  0  0  0  0  0  0  0  0  0  0
   48.2950   34.6410   39.8750 C   0  0  0  0  0  0  0  0  0  0  0  0
   48.6470   35.3420   41.0140 C   0  0  0  0  0  0  0  0  0  0  0  0
   47.8050   35.3840   42.0960 C   0  0  0  0  0  0  0  0  0  0  0  0
   46.5730   34.7530   42.1440 C   0  0  0  0  0  0  0  0  0  0  0  0
   46.6990   33.4390   39.0840 H   0  0  0  0  0  0  0  0  0  0  0  0
   48.8410   34.5170   38.9620 H   0  0  0  0  0  0  0  0  0  0  0  0
   49.6060   35.8310   40.9720 H   0  0  0  0  0  0  0  0  0  0  0  0
   48.2360   35.9750   42.8990 H   0  0  0  0  0  0  0  0  0  0  0  0
   45.8550   34.9420   43.3930 C   0  0  0  0  0  0  0  0  0  0  0  0
   44.9670   35.8680   43.8680 C   0  0  0  0  0  0  0  0  0  0  0  0
   44.6050   36.7280   43.3400 H   0  0  0  0  0  0  0  0  0  0  0  0
   44.5300   35.6110   45.1220 C   0  0  0  0  0  0  0  0  0  0  0  0
   43.8450   36.1500   45.7430 H   0  0  0  0  0  0  0  0  0  0  0  0
   45.1720   34.4810   45.4370 N   0  0  0  0  0  0  0  0  0  0  0  0
   45.1440   33.9030   46.3210 H   0  0  0  0  0  0  0  0  0  0  0  0
   45.9270   34.1160   44.4280 N   0  0  0  0  0  0  0  0  0  0  0  0
   44.8840   33.3790   41.0290 C   0  0  0  0  0  0  0  0  0  0  0  0
   44.3020   33.8210   41.8670 H   0  0  0  0  0  0  0  0  0  0  0  0
   44.9440   32.2820   41.1040 H   0  0  0  0  0  0  0  0  0  0  0  0
   44.0480   33.7650   39.7920 C   0  0  0  0  0  0  0  0  0  0  0  0
   44.5400   34.6560   39.3850 H   0  0  0  0  0  0  0  0  0  0  0  0
   43.9930   32.9270   39.0990 H   0  0  0  0  0  0  0  0  0  0  0  0
   41.2580   35.6360   41.5270 C   0  0  0  0  0  0  0  0  0  0  0  0
   42.5710   35.2940   41.0940 C   0  0  0  0  0  0  0  0  0  0  0  0
   42.7020   34.1780   40.2840 C   0  0  0  0  0  0  0  0  0  0  0  0
   41.5530   33.4940   39.9660 N   0  0  0  0  0  0  0  0  0  0  0  0
   40.3430   33.8360   40.3830 C   0  0  0  0  0  0  0  0  0  0  0  0
   40.1850   34.9070   41.1650 N   0  0  0  0  0  0  0  0  0  0  0  0
   41.1840   36.5140   42.1590 H   0  0  0  0  0  0  0  0  0  0  0  0
   43.4170   35.8920   41.3950 H   0  0  0  0  0  0  0  0  0  0  0  0
   39.4660   33.2690   40.1100 H   0  0  0  0  0  0  0  0  0  0  0  0
  1 19  1  0  0  0  0
  1  6  1  0  0  0  0
  2  1  2  0  0  0  0
  3  2  1  0  0  0  0
  3  4  2  0  0  0  0
  4  5  1  0  0  0  0
  5  6  2  0  0  0  0
  5 10  1  0  0  0  0
  6 11  1  0  0  0  0
  7  2  1  0  0  0  0
  8  3  1  0  0  0  0
  9  4  1  0  0  0  0
 11 12  1  0  0  0  0
 11 18  2  0  0  0  0
 12 14  2  0  0  0  0
 13 12  1  0  0  0  0
 14 16  1  0  0  0  0
 14 15  1  0  0  0  0
 16 17  1  0  0  0  0
 18 16  1  0  0  0  0
 19 21  1  0  0  0  0
 19 20  1  0  0  0  0
 22 27  1  0  0  0  0
 22 19  1  0  0  0  0
 23 22  1  0  0  0  0
 24 22  1  0  0  0  0
 25 31  1  0  0  0  0
 26 32  1  0  0  0  0
 26 25  2  0  0  0  0
 27 26  1  0  0  0  0
 28 27  2  0  0  0  0
 28 29  1  0  0  0  0
 29 30  2  0  0  0  0
 30 25  1  0  0  0  0
 33 29  1  0  0  0  0
M  END
>  <minimizedAffinity>
-5.72572994

>  <minimizedRMSD>
1.1284591

$$$$
