REMARK  Name = 
REMARK  2 active torsions:
REMARK  status: ('A' for Active; 'I' for Inactive)
REMARK    1  A    between atoms: C_2  and  C_14
REMARK    2  A    between atoms: C_9  and  C_23
REMARK                            x       y       z     vdW  Elec       q    Type
REMARK                         _______ _______ _______ _____ _____    ______ ____
ROOT
ATOM      1  C   UNL     1      47.225  31.372  45.095  0.00  0.00    +0.000 A 
ATOM      2  C   UNL     1      46.885  32.701  45.097  0.00  0.00    +0.000 A 
ATOM      3  C   UNL     1      46.276  33.323  46.185  0.00  0.00    +0.000 A 
ATOM      4  C   UNL     1      45.993  32.571  47.332  0.00  0.00    +0.000 A 
ATOM      5  N   UNL     1      45.432  32.807  48.543  0.00  0.00    +0.000 N 
ATOM      6  C   UNL     1      45.433  31.651  49.252  0.00  0.00    +0.000 A 
ATOM      7  N   UNL     1      45.998  30.702  48.470  0.00  0.00    +0.000 NA
ATOM      8  C   UNL     1      46.353  31.236  47.283  0.00  0.00    +0.000 A 
ATOM      9  C   UNL     1      46.952  30.607  46.225  0.00  0.00    +0.000 A 
ATOM     10  H   UNL     1      47.696  30.939  44.224  0.00  0.00    +0.000 HD
ATOM     11  H   UNL     1      46.005  34.372  46.193  0.00  0.00    +0.000 HD
ATOM     12  H   UNL     1      45.075  33.771  48.811  0.00  0.00    +0.000 HD
ATOM     13  H   UNL     1      45.017  31.658  50.252  0.00  0.00    +0.000 HD
ENDROOT
BRANCH   2  18
ATOM     14  C   UNL     1      46.525  35.209  42.423  0.00  0.00    +0.000 A 
ATOM     15  C   UNL     1      47.712  35.056  41.708  0.00  0.00    +0.000 A 
ATOM     16  C   UNL     1      48.633  34.095  42.143  0.00  0.00    +0.000 A 
ATOM     17  N   UNL     1      48.313  33.356  43.252  0.00  0.00    +0.000 NA
ATOM     18  C   UNL     1      47.161  33.520  43.928  0.00  0.00    +0.000 A 
ATOM     19  N   UNL     1      46.275  34.446  43.507  0.00  0.00    +0.000 NA
ATOM     20  H   UNL     1      45.830  35.963  42.061  0.00  0.00    +0.000 HD
ATOM     21  H   UNL     1      47.985  35.628  40.831  0.00  0.00    +0.000 HD
ATOM     22  H   UNL     1      49.579  33.875  41.688  0.00  0.00    +0.000 HD
ENDBRANCH   2  18
BRANCH   9  23
ATOM     23  C   UNL     1      47.296  29.190  46.265  0.00  0.00    +0.000 A 
ATOM     24  C   UNL     1      46.818  28.287  47.192  0.00  0.00    +0.000 A 
ATOM     25  H   UNL     1      46.138  28.542  47.981  0.00  0.00    +0.000 HD
ATOM     26  C   UNL     1      47.378  27.063  46.887  0.00  0.00    +0.000 A 
ATOM     27  H   UNL     1      47.153  26.186  47.477  0.00  0.00    +0.000 HD
ATOM     28  N   UNL     1      48.172  27.251  45.799  0.00  0.00    +0.000 N 
ATOM     29  H   UNL     1      48.697  26.421  45.407  0.00  0.00    +0.000 HD
ATOM     30  N   UNL     1      48.119  28.534  45.429  0.00  0.00    +0.000 NA
ENDBRANCH   9  23
TORSDOF 2
