
 OpenBabel03242518183D

 22 23  0  0  0  0  0  0  0  0999 V2000
   38.7460   30.1610   37.7920 C   0  0  0  0  0  0  0  0  0  0  0  0
   38.5980   31.5460   37.6530 C   0  0  0  0  0  0  0  0  0  0  0  0
   37.5200   32.1190   38.2970 C   0  0  0  0  0  0  0  0  0  0  0  0
   36.6750   31.3630   39.0110 N   0  0  0  0  0  0  0  0  0  0  0  0
   36.8480   30.0200   39.1250 C   0  0  0  0  0  0  0  0  0  0  0  0
   37.8930   29.4170   38.5080 N   0  0  0  0  0  0  0  0  0  0  0  0
   39.5690   29.6460   37.3120 H   0  0  0  0  0  0  0  0  0  0  0  0
   37.4300   33.1720   38.1770 H   0  0  0  0  0  0  0  0  0  0  0  0
   39.5790   32.1960   36.8640 N   0  0  0  0  0  0  0  0  0  0  0  0
   40.5740   32.1690   37.2230 H   0  0  0  0  0  0  0  0  0  0  0  0
   39.3410   32.6870   35.9560 H   0  0  0  0  0  0  0  0  0  0  0  0
   35.9390   29.1410   39.9040 C   0  0  0  0  0  0  0  0  0  0  0  0
   34.9280   29.5970   39.9460 H   0  0  0  0  0  0  0  0  0  0  0  0
   35.8700   28.1950   39.2990 H   0  0  0  0  0  0  0  0  0  0  0  0
   36.4740   28.8580   41.2600 C   0  0  0  0  0  0  0  0  0  0  0  0
   36.6190   27.7050   41.9800 C   0  0  0  0  0  0  0  0  0  0  0  0
   36.3220   26.7390   41.5960 H   0  0  0  0  0  0  0  0  0  0  0  0
   37.1820   28.0240   43.2050 C   0  0  0  0  0  0  0  0  0  0  0  0
   37.4170   27.3240   43.9890 H   0  0  0  0  0  0  0  0  0  0  0  0
   37.3660   29.3570   43.2000 N   0  0  0  0  0  0  0  0  0  0  0  0
   37.7730   29.9390   43.9710 H   0  0  0  0  0  0  0  0  0  0  0  0
   36.9430   29.8450   42.0420 N   0  0  0  0  0  0  0  0  0  0  0  0
  1  6  1  0  0  0  0
  2  1  2  0  0  0  0
  2  3  1  0  0  0  0
  3  4  2  0  0  0  0
  4  5  1  0  0  0  0
  5 12  1  0  0  0  0
  6  5  2  0  0  0  0
  7  1  1  0  0  0  0
  8  3  1  0  0  0  0
  9 10  1  0  0  0  0
  9  2  1  0  0  0  0
 11  9  1  0  0  0  0
 12 13  1  0  0  0  0
 12 15  1  0  0  0  0
 14 12  1  0  0  0  0
 15 16  1  0  0  0  0
 15 22  2  0  0  0  0
 16 18  2  0  0  0  0
 17 16  1  0  0  0  0
 18 19  1  0  0  0  0
 20 18  1  0  0  0  0
 20 21  1  0  0  0  0
 22 20  1  0  0  0  0
M  END
>  <minimizedAffinity>
-4.39739609

$$$$

 OpenBabel03242518183D

 22 23  0  0  0  0  0  0  0  0999 V2000
   37.4640   31.5710   37.9200 C   0  0  0  0  0  0  0  0  0  0  0  0
   38.8090   31.2790   37.6650 C   0  0  0  0  0  0  0  0  0  0  0  0
   39.2900   30.0910   38.1780 C   0  0  0  0  0  0  0  0  0  0  0  0
   38.4870   29.2790   38.8800 N   0  0  0  0  0  0  0  0  0  0  0  0
   37.1850   29.5940   39.1090 C   0  0  0  0  0  0  0  0  0  0  0  0
   36.6720   30.7510   38.6240 N   0  0  0  0  0  0  0  0  0  0  0  0
   37.0210   32.4870   37.5480 H   0  0  0  0  0  0  0  0  0  0  0  0
   40.3140   29.8920   37.9710 H   0  0  0  0  0  0  0  0  0  0  0  0
   39.5170   32.2430   36.9080 N   0  0  0  0  0  0  0  0  0  0  0  0
   39.1900   32.4030   35.9140 H   0  0  0  0  0  0  0  0  0  0  0  0
   40.3370   32.7850   37.3050 H   0  0  0  0  0  0  0  0  0  0  0  0
   36.2570   28.7280   39.8800 C   0  0  0  0  0  0  0  0  0  0  0  0
   35.2180   29.1030   39.7660 H   0  0  0  0  0  0  0  0  0  0  0  0
   36.3210   27.7230   39.3770 H   0  0  0  0  0  0  0  0  0  0  0  0
   36.6540   28.6260   41.3070 C   0  0  0  0  0  0  0  0  0  0  0  0
   36.7490   27.5730   42.1720 C   0  0  0  0  0  0  0  0  0  0  0  0
   36.5150   26.5580   41.8810 H   0  0  0  0  0  0  0  0  0  0  0  0
   37.1740   28.0540   43.4000 C   0  0  0  0  0  0  0  0  0  0  0  0
   37.3420   27.4610   44.2830 H   0  0  0  0  0  0  0  0  0  0  0  0
   37.3280   29.3830   43.2510 N   0  0  0  0  0  0  0  0  0  0  0  0
   37.6400   30.0660   43.9820 H   0  0  0  0  0  0  0  0  0  0  0  0
   37.0170   29.7140   42.0060 N   0  0  0  0  0  0  0  0  0  0  0  0
  1  6  1  0  0  0  0
  2  1  2  0  0  0  0
  2  3  1  0  0  0  0
  3  4  2  0  0  0  0
  4  5  1  0  0  0  0
  5 12  1  0  0  0  0
  6  5  2  0  0  0  0
  7  1  1  0  0  0  0
  8  3  1  0  0  0  0
  9 11  1  0  0  0  0
  9  2  1  0  0  0  0
 10  9  1  0  0  0  0
 12 15  1  0  0  0  0
 13 12  1  0  0  0  0
 14 12  1  0  0  0  0
 15 22  2  0  0  0  0
 15 16  1  0  0  0  0
 16 18  2  0  0  0  0
 17 16  1  0  0  0  0
 18 19  1  0  0  0  0
 20 18  1  0  0  0  0
 20 21  1  0  0  0  0
 22 20  1  0  0  0  0
M  END
>  <minimizedAffinity>
-4.37712431

$$$$

 OpenBabel03242518183D

 22 23  0  0  0  0  0  0  0  0999 V2000
   39.2470   32.1060   39.0480 C   0  0  0  0  0  0  0  0  0  0  0  0
   38.9190   31.8700   37.7070 C   0  0  0  0  0  0  0  0  0  0  0  0
   37.6830   31.3050   37.4650 C   0  0  0  0  0  0  0  0  0  0  0  0
   36.8610   31.0080   38.4810 N   0  0  0  0  0  0  0  0  0  0  0  0
   37.2120   31.2500   39.7720 C   0  0  0  0  0  0  0  0  0  0  0  0
   38.4160   31.8030   40.0540 N   0  0  0  0  0  0  0  0  0  0  0  0
   40.2020   32.5470   39.3090 H   0  0  0  0  0  0  0  0  0  0  0  0
   37.4570   31.1370   36.4400 H   0  0  0  0  0  0  0  0  0  0  0  0
   39.9000   32.2430   36.7560 N   0  0  0  0  0  0  0  0  0  0  0  0
   40.1350   33.2730   36.6920 H   0  0  0  0  0  0  0  0  0  0  0  0
   40.3840   31.5350   36.1340 H   0  0  0  0  0  0  0  0  0  0  0  0
   36.3360   30.9380   40.9300 C   0  0  0  0  0  0  0  0  0  0  0  0
   36.4010   31.7580   41.6750 H   0  0  0  0  0  0  0  0  0  0  0  0
   35.2940   30.9340   40.5060 H   0  0  0  0  0  0  0  0  0  0  0  0
   36.6630   29.6200   41.5290 C   0  0  0  0  0  0  0  0  0  0  0  0
   36.2540   28.3450   41.2530 C   0  0  0  0  0  0  0  0  0  0  0  0
   35.5530   28.1200   40.4610 H   0  0  0  0  0  0  0  0  0  0  0  0
   36.8830   27.4830   42.1360 C   0  0  0  0  0  0  0  0  0  0  0  0
   36.7610   26.4150   42.1650 H   0  0  0  0  0  0  0  0  0  0  0  0
   37.6580   28.2520   42.9250 N   0  0  0  0  0  0  0  0  0  0  0  0
   38.2760   27.9280   43.7070 H   0  0  0  0  0  0  0  0  0  0  0  0
   37.5210   29.5180   42.5580 N   0  0  0  0  0  0  0  0  0  0  0  0
  1  7  1  0  0  0  0
  1  6  1  0  0  0  0
  2  1  2  0  0  0  0
  3  2  1  0  0  0  0
  3  4  2  0  0  0  0
  4  5  1  0  0  0  0
  5  6  2  0  0  0  0
  5 12  1  0  0  0  0
  8  3  1  0  0  0  0
  9  2  1  0  0  0  0
 10  9  1  0  0  0  0
 11  9  1  0  0  0  0
 12 15  1  0  0  0  0
 12 13  1  0  0  0  0
 14 12  1  0  0  0  0
 15 22  2  0  0  0  0
 16 15  1  0  0  0  0
 16 18  2  0  0  0  0
 17 16  1  0  0  0  0
 18 19  1  0  0  0  0
 18 20  1  0  0  0  0
 20 21  1  0  0  0  0
 22 20  1  0  0  0  0
M  END
>  <minimizedAffinity>
-4.29188967

$$$$

 OpenBabel03242518183D

 22 23  0  0  0  0  0  0  0  0999 V2000
   40.1940   30.7800   38.8010 C   0  0  0  0  0  0  0  0  0  0  0  0
   39.7450   32.0410   38.3880 C   0  0  0  0  0  0  0  0  0  0  0  0
   39.2270   32.8620   39.3690 C   0  0  0  0  0  0  0  0  0  0  0  0
   39.1690   32.4480   40.6420 N   0  0  0  0  0  0  0  0  0  0  0  0
   39.6130   31.2170   41.0080 C   0  0  0  0  0  0  0  0  0  0  0  0
   40.1290   30.3780   40.0770 N   0  0  0  0  0  0  0  0  0  0  0  0
   40.6100   30.0850   38.0830 H   0  0  0  0  0  0  0  0  0  0  0  0
   38.8940   33.8140   39.0310 H   0  0  0  0  0  0  0  0  0  0  0  0
   39.8780   32.3220   37.0060 N   0  0  0  0  0  0  0  0  0  0  0  0
   40.8630   32.3610   36.6210 H   0  0  0  0  0  0  0  0  0  0  0  0
   39.0410   32.4870   36.3790 H   0  0  0  0  0  0  0  0  0  0  0  0
   39.5700   30.7130   42.4040 C   0  0  0  0  0  0  0  0  0  0  0  0
   40.5740   30.3400   42.6950 H   0  0  0  0  0  0  0  0  0  0  0  0
   39.3420   31.6210   43.0280 H   0  0  0  0  0  0  0  0  0  0  0  0
   38.5230   29.6760   42.5840 C   0  0  0  0  0  0  0  0  0  0  0  0
   38.5190   28.4550   43.1990 C   0  0  0  0  0  0  0  0  0  0  0  0
   39.3930   28.0490   43.6900 H   0  0  0  0  0  0  0  0  0  0  0  0
   37.2560   27.9020   43.0640 C   0  0  0  0  0  0  0  0  0  0  0  0
   36.9460   26.9450   43.4450 H   0  0  0  0  0  0  0  0  0  0  0  0
   36.5250   28.7970   42.3730 N   0  0  0  0  0  0  0  0  0  0  0  0
   35.5200   28.7050   42.0910 H   0  0  0  0  0  0  0  0  0  0  0  0
   37.2840   29.8470   42.0920 N   0  0  0  0  0  0  0  0  0  0  0  0
  1  6  1  0  0  0  0
  2  1  2  0  0  0  0
  2  3  1  0  0  0  0
  3  4  2  0  0  0  0
  4  5  1  0  0  0  0
  5 12  1  0  0  0  0
  6  5  2  0  0  0  0
  7  1  1  0  0  0  0
  8  3  1  0  0  0  0
  9  2  1  0  0  0  0
 10  9  1  0  0  0  0
 11  9  1  0  0  0  0
 12 15  1  0  0  0  0
 12 13  1  0  0  0  0
 12 14  1  0  0  0  0
 15 16  1  0  0  0  0
 16 17  1  0  0  0  0
 18 16  2  0  0  0  0
 18 19  1  0  0  0  0
 20 18  1  0  0  0  0
 21 20  1  0  0  0  0
 22 20  1  0  0  0  0
 22 15  2  0  0  0  0
M  END
>  <minimizedAffinity>
-4.20241594

$$$$

 OpenBabel03242518183D

 22 23  0  0  0  0  0  0  0  0999 V2000
   37.4790   26.0900   40.7660 C   0  0  0  0  0  0  0  0  0  0  0  0
   37.9060   26.0910   42.1000 C   0  0  0  0  0  0  0  0  0  0  0  0
   37.4370   27.1160   42.8960 C   0  0  0  0  0  0  0  0  0  0  0  0
   36.6170   28.0480   42.3910 N   0  0  0  0  0  0  0  0  0  0  0  0
   36.2220   28.0180   41.0910 C   0  0  0  0  0  0  0  0  0  0  0  0
   36.6600   27.0290   40.2740 N   0  0  0  0  0  0  0  0  0  0  0  0
   37.8100   25.3160   40.0850 H   0  0  0  0  0  0  0  0  0  0  0  0
   37.7740   27.0950   43.9050 H   0  0  0  0  0  0  0  0  0  0  0  0
   38.7710   25.0340   42.4720 N   0  0  0  0  0  0  0  0  0  0  0  0
   38.3740   24.0540   42.4240 H   0  0  0  0  0  0  0  0  0  0  0  0
   39.7690   25.2020   42.7840 H   0  0  0  0  0  0  0  0  0  0  0  0
   35.3160   29.0270   40.4870 C   0  0  0  0  0  0  0  0  0  0  0  0
   34.8070   28.5870   39.6040 H   0  0  0  0  0  0  0  0  0  0  0  0
   34.5390   29.2210   41.2770 H   0  0  0  0  0  0  0  0  0  0  0  0
   36.0370   30.2780   40.1410 C   0  0  0  0  0  0  0  0  0  0  0  0
   36.6330   30.7210   38.9930 C   0  0  0  0  0  0  0  0  0  0  0  0
   36.6520   30.1340   38.0850 H   0  0  0  0  0  0  0  0  0  0  0  0
   37.1620   31.9790   39.2330 C   0  0  0  0  0  0  0  0  0  0  0  0
   37.6930   32.5830   38.5180 H   0  0  0  0  0  0  0  0  0  0  0  0
   36.8750   32.2700   40.5160 N   0  0  0  0  0  0  0  0  0  0  0  0
   37.1270   33.1450   41.0340 H   0  0  0  0  0  0  0  0  0  0  0  0
   36.2080   31.2550   41.0470 N   0  0  0  0  0  0  0  0  0  0  0  0
  1  2  1  0  0  0  0
  2  9  1  0  0  0  0
  2  3  2  0  0  0  0
  3  8  1  0  0  0  0
  4  3  1  0  0  0  0
  5  4  2  0  0  0  0
  6  1  2  0  0  0  0
  6  5  1  0  0  0  0
  7  1  1  0  0  0  0
  9 11  1  0  0  0  0
 10  9  1  0  0  0  0
 12  5  1  0  0  0  0
 12 14  1  0  0  0  0
 13 12  1  0  0  0  0
 15 12  1  0  0  0  0
 15 22  2  0  0  0  0
 16 18  2  0  0  0  0
 16 15  1  0  0  0  0
 17 16  1  0  0  0  0
 18 20  1  0  0  0  0
 19 18  1  0  0  0  0
 20 21  1  0  0  0  0
 20 22  1  0  0  0  0
M  END
>  <minimizedAffinity>
-4.14467239

$$$$

 OpenBabel03242518183D

 22 23  0  0  0  0  0  0  0  0999 V2000
   38.3420   29.9400   41.8760 C   0  0  0  0  0  0  0  0  0  0  0  0
   36.9630   29.7950   41.6810 C   0  0  0  0  0  0  0  0  0  0  0  0
   36.3230   30.8180   41.0120 C   0  0  0  0  0  0  0  0  0  0  0  0
   37.0120   31.8840   40.5820 N   0  0  0  0  0  0  0  0  0  0  0  0
   38.3510   31.9940   40.7880 C   0  0  0  0  0  0  0  0  0  0  0  0
   39.0180   31.0120   41.4420 N   0  0  0  0  0  0  0  0  0  0  0  0
   38.9070   29.1750   42.3940 H   0  0  0  0  0  0  0  0  0  0  0  0
   35.2770   30.6840   40.8760 H   0  0  0  0  0  0  0  0  0  0  0  0
   36.3890   28.6080   42.1980 N   0  0  0  0  0  0  0  0  0  0  0  0
   36.7150   27.6960   41.7710 H   0  0  0  0  0  0  0  0  0  0  0  0
   35.6670   28.6180   42.9730 H   0  0  0  0  0  0  0  0  0  0  0  0
   39.1570   33.1550   40.3320 C   0  0  0  0  0  0  0  0  0  0  0  0
   38.5050   34.0490   40.2470 H   0  0  0  0  0  0  0  0  0  0  0  0
   39.8910   33.3370   41.1640 H   0  0  0  0  0  0  0  0  0  0  0  0
   39.8670   32.8670   39.0600 C   0  0  0  0  0  0  0  0  0  0  0  0
   41.1610   33.0450   38.6570 C   0  0  0  0  0  0  0  0  0  0  0  0
   41.9170   33.4730   39.3010 H   0  0  0  0  0  0  0  0  0  0  0  0
   41.2770   32.5960   37.3510 C   0  0  0  0  0  0  0  0  0  0  0  0
   42.1780   32.6070   36.7620 H   0  0  0  0  0  0  0  0  0  0  0  0
   40.0560   32.1560   36.9940 N   0  0  0  0  0  0  0  0  0  0  0  0
   39.7800   31.7460   36.0690 H   0  0  0  0  0  0  0  0  0  0  0  0
   39.2250   32.3200   38.0140 N   0  0  0  0  0  0  0  0  0  0  0  0
  1  7  1  0  0  0  0
  2  1  1  0  0  0  0
  2  9  1  0  0  0  0
  3  2  2  0  0  0  0
  4  5  2  0  0  0  0
  4  3  1  0  0  0  0
  5  6  1  0  0  0  0
  6  1  2  0  0  0  0
  8  3  1  0  0  0  0
  9 11  1  0  0  0  0
 10  9  1  0  0  0  0
 12  5  1  0  0  0  0
 12 14  1  0  0  0  0
 13 12  1  0  0  0  0
 15 12  1  0  0  0  0
 16 15  1  0  0  0  0
 16 17  1  0  0  0  0
 18 16  2  0  0  0  0
 19 18  1  0  0  0  0
 20 18  1  0  0  0  0
 20 22  1  0  0  0  0
 21 20  1  0  0  0  0
 22 15  2  0  0  0  0
M  END
>  <minimizedAffinity>
-4.13058567

$$$$

 OpenBabel03242518183D

 22 23  0  0  0  0  0  0  0  0999 V2000
   38.9210   24.8470   40.7380 C   0  0  0  0  0  0  0  0  0  0  0  0
   37.9740   23.9990   41.3240 C   0  0  0  0  0  0  0  0  0  0  0  0
   37.0580   24.5900   42.1700 C   0  0  0  0  0  0  0  0  0  0  0  0
   37.0970   25.9100   42.4000 N   0  0  0  0  0  0  0  0  0  0  0  0
   38.0310   26.7050   41.8140 C   0  0  0  0  0  0  0  0  0  0  0  0
   38.9500   26.1650   40.9770 N   0  0  0  0  0  0  0  0  0  0  0  0
   39.6700   24.4500   40.0640 H   0  0  0  0  0  0  0  0  0  0  0  0
   36.3480   23.9260   42.6030 H   0  0  0  0  0  0  0  0  0  0  0  0
   38.0710   22.6300   40.9750 N   0  0  0  0  0  0  0  0  0  0  0  0
   37.9080   22.3840   39.9590 H   0  0  0  0  0  0  0  0  0  0  0  0
   38.2950   21.8780   41.6870 H   0  0  0  0  0  0  0  0  0  0  0  0
   38.1160   28.1700   42.0380 C   0  0  0  0  0  0  0  0  0  0  0  0
   38.1940   28.3760   43.1260 H   0  0  0  0  0  0  0  0  0  0  0  0
   39.0840   28.4760   41.5550 H   0  0  0  0  0  0  0  0  0  0  0  0
   36.9720   28.8890   41.4210 C   0  0  0  0  0  0  0  0  0  0  0  0
   36.0240   28.5180   40.5090 C   0  0  0  0  0  0  0  0  0  0  0  0
   35.9920   27.5290   40.0740 H   0  0  0  0  0  0  0  0  0  0  0  0
   35.1860   29.5990   40.2870 C   0  0  0  0  0  0  0  0  0  0  0  0
   34.3430   29.6120   39.6180 H   0  0  0  0  0  0  0  0  0  0  0  0
   35.6420   30.5960   41.0670 N   0  0  0  0  0  0  0  0  0  0  0  0
   35.2450   31.5630   41.1500 H   0  0  0  0  0  0  0  0  0  0  0  0
   36.7030   30.1670   41.7370 N   0  0  0  0  0  0  0  0  0  0  0  0
  1  6  2  0  0  0  0
  1  2  1  0  0  0  0
  2  3  2  0  0  0  0
  3  4  1  0  0  0  0
  3  8  1  0  0  0  0
  5 12  1  0  0  0  0
  5  4  2  0  0  0  0
  6  5  1  0  0  0  0
  7  1  1  0  0  0  0
  9  2  1  0  0  0  0
  9 11  1  0  0  0  0
 10  9  1  0  0  0  0
 12 13  1  0  0  0  0
 14 12  1  0  0  0  0
 15 22  2  0  0  0  0
 15 12  1  0  0  0  0
 16 15  1  0  0  0  0
 17 16  1  0  0  0  0
 18 16  2  0  0  0  0
 18 20  1  0  0  0  0
 19 18  1  0  0  0  0
 20 21  1  0  0  0  0
 20 22  1  0  0  0  0
M  END
>  <minimizedAffinity>
-4.12171221

$$$$

 OpenBabel03242518183D

 22 23  0  0  0  0  0  0  0  0999 V2000
   38.5410   31.7120   40.9970 C   0  0  0  0  0  0  0  0  0  0  0  0
   37.2140   31.9300   40.6050 C   0  0  0  0  0  0  0  0  0  0  0  0
   36.3010   30.9550   40.9490 C   0  0  0  0  0  0  0  0  0  0  0  0
   36.6930   29.8650   41.6250 N   0  0  0  0  0  0  0  0  0  0  0  0
   37.9890   29.6840   41.9890 C   0  0  0  0  0  0  0  0  0  0  0  0
   38.9190   30.6170   41.6700 N   0  0  0  0  0  0  0  0  0  0  0  0
   39.3090   32.4370   40.7590 H   0  0  0  0  0  0  0  0  0  0  0  0
   35.3010   31.1440   40.6420 H   0  0  0  0  0  0  0  0  0  0  0  0
   36.9690   33.1330   39.8990 N   0  0  0  0  0  0  0  0  0  0  0  0
   37.1400   34.0370   40.4240 H   0  0  0  0  0  0  0  0  0  0  0  0
   36.6320   33.1420   38.8950 H   0  0  0  0  0  0  0  0  0  0  0  0
   38.4710   28.4950   42.7360 C   0  0  0  0  0  0  0  0  0  0  0  0
   39.5730   28.5530   42.8560 H   0  0  0  0  0  0  0  0  0  0  0  0
   38.0050   28.5910   43.7560 H   0  0  0  0  0  0  0  0  0  0  0  0
   38.0520   27.2280   42.0860 C   0  0  0  0  0  0  0  0  0  0  0  0
   37.1940   26.2310   42.4580 C   0  0  0  0  0  0  0  0  0  0  0  0
   36.6480   26.2530   43.3910 H   0  0  0  0  0  0  0  0  0  0  0  0
   37.1800   25.2710   41.4590 C   0  0  0  0  0  0  0  0  0  0  0  0
   36.5980   24.3660   41.4660 H   0  0  0  0  0  0  0  0  0  0  0  0
   38.0270   25.7060   40.5070 N   0  0  0  0  0  0  0  0  0  0  0  0
   38.2610   25.2260   39.6050 H   0  0  0  0  0  0  0  0  0  0  0  0
   38.5410   26.8680   40.8870 N   0  0  0  0  0  0  0  0  0  0  0  0
  1  6  1  0  0  0  0
  2  3  1  0  0  0  0
  2  1  2  0  0  0  0
  3  4  2  0  0  0  0
  4  5  1  0  0  0  0
  5 12  1  0  0  0  0
  6  5  2  0  0  0  0
  7  1  1  0  0  0  0
  8  3  1  0  0  0  0
  9 10  1  0  0  0  0
  9  2  1  0  0  0  0
 11  9  1  0  0  0  0
 12 13  1  0  0  0  0
 12 14  1  0  0  0  0
 15 16  1  0  0  0  0
 15 12  1  0  0  0  0
 16 17  1  0  0  0  0
 18 19  1  0  0  0  0
 18 16  2  0  0  0  0
 20 22  1  0  0  0  0
 20 18  1  0  0  0  0
 21 20  1  0  0  0  0
 22 15  2  0  0  0  0
M  END
>  <minimizedAffinity>
-4.09019423

$$$$

 OpenBabel03242518183D

 22 23  0  0  0  0  0  0  0  0999 V2000
   37.1470   25.2260   42.1730 C   0  0  0  0  0  0  0  0  0  0  0  0
   38.3980   24.6000   42.2410 C   0  0  0  0  0  0  0  0  0  0  0  0
   39.4210   25.3270   42.8130 C   0  0  0  0  0  0  0  0  0  0  0  0
   39.2000   26.5680   43.2700 N   0  0  0  0  0  0  0  0  0  0  0  0
   37.9730   27.1470   43.1880 C   0  0  0  0  0  0  0  0  0  0  0  0
   36.9400   26.4670   42.6330 N   0  0  0  0  0  0  0  0  0  0  0  0
   36.3000   24.7120   41.7350 H   0  0  0  0  0  0  0  0  0  0  0  0
   40.3600   24.8300   42.8540 H   0  0  0  0  0  0  0  0  0  0  0  0
   38.4600   23.2870   41.7120 N   0  0  0  0  0  0  0  0  0  0  0  0
   37.8770   22.5490   42.1980 H   0  0  0  0  0  0  0  0  0  0  0  0
   39.0580   23.0430   40.8720 H   0  0  0  0  0  0  0  0  0  0  0  0
   37.6800   28.5160   43.6800 C   0  0  0  0  0  0  0  0  0  0  0  0
   36.5950   28.6080   43.8980 H   0  0  0  0  0  0  0  0  0  0  0  0
   38.2380   28.5950   44.6530 H   0  0  0  0  0  0  0  0  0  0  0  0
   38.1410   29.5560   42.7250 C   0  0  0  0  0  0  0  0  0  0  0  0
   39.3350   30.1990   42.5570 C   0  0  0  0  0  0  0  0  0  0  0  0
   40.1950   30.0000   43.1800 H   0  0  0  0  0  0  0  0  0  0  0  0
   39.2070   31.0870   41.5000 C   0  0  0  0  0  0  0  0  0  0  0  0
   39.9810   31.7360   41.1300 H   0  0  0  0  0  0  0  0  0  0  0  0
   37.9430   30.9610   41.0530 N   0  0  0  0  0  0  0  0  0  0  0  0
   37.5020   31.4840   40.2600 H   0  0  0  0  0  0  0  0  0  0  0  0
   37.3170   30.0510   41.7860 N   0  0  0  0  0  0  0  0  0  0  0  0
  1  2  2  0  0  0  0
  1  6  1  0  0  0  0
  2  3  1  0  0  0  0
  3  8  1  0  0  0  0
  3  4  2  0  0  0  0
  5  4  1  0  0  0  0
  5 12  1  0  0  0  0
  6  5  2  0  0  0  0
  7  1  1  0  0  0  0
  9 10  1  0  0  0  0
  9  2  1  0  0  0  0
 11  9  1  0  0  0  0
 12 13  1  0  0  0  0
 12 14  1  0  0  0  0
 15 12  1  0  0  0  0
 16 15  1  0  0  0  0
 16 17  1  0  0  0  0
 18 16  2  0  0  0  0
 19 18  1  0  0  0  0
 20 18  1  0  0  0  0
 20 22  1  0  0  0  0
 21 20  1  0  0  0  0
 22 15  2  0  0  0  0
M  END
>  <minimizedAffinity>
-3.99752903

$$$$
