
 OpenBabel03252503003D

 21 22  0  0  0  0  0  0  0  0999 V2000
   36.8940   29.0090   41.9520 C   0  0  0  0  0  0  0  0  0  0  0  0
   35.8370   29.0270   42.3350 H   0  0  0  0  0  0  0  0  0  0  0  0
   36.9410   28.2590   41.1630 H   0  0  0  0  0  0  0  0  0  0  0  0
   37.2050   30.3470   41.3820 C   0  0  0  0  0  0  0  0  0  0  0  0
   38.3800   31.0500   41.2200 C   0  0  0  0  0  0  0  0  0  0  0  0
   39.3290   30.6520   41.5330 H   0  0  0  0  0  0  0  0  0  0  0  0
   38.0860   32.2620   40.6260 C   0  0  0  0  0  0  0  0  0  0  0  0
   38.7790   33.0360   40.3670 H   0  0  0  0  0  0  0  0  0  0  0  0
   36.7540   32.2780   40.4360 N   0  0  0  0  0  0  0  0  0  0  0  0
   36.1490   33.0130   40.0160 H   0  0  0  0  0  0  0  0  0  0  0  0
   36.2460   31.1630   40.8760 N   0  0  0  0  0  0  0  0  0  0  0  0
   38.0830   28.6630   43.2590 S   0  0  0  0  0  0  0  0  0  0  0  0
   39.8940   26.5670   43.6790 C   0  0  0  0  0  0  0  0  0  0  0  0
   38.6800   26.9760   43.1360 C   0  0  0  0  0  0  0  0  0  0  0  0
   37.8810   26.0530   42.4670 C   0  0  0  0  0  0  0  0  0  0  0  0
   38.3370   24.7550   42.3720 N   0  0  0  0  0  0  0  0  0  0  0  0
   39.5120   24.4130   42.9110 C   0  0  0  0  0  0  0  0  0  0  0  0
   40.2970   25.2840   43.5590 N   0  0  0  0  0  0  0  0  0  0  0  0
   40.4570   27.3440   44.1830 H   0  0  0  0  0  0  0  0  0  0  0  0
   36.9250   26.2980   42.0190 H   0  0  0  0  0  0  0  0  0  0  0  0
   39.8720   23.3910   42.8360 H   0  0  0  0  0  0  0  0  0  0  0  0
  1  2  1  0  0  0  0
  1 12  1  0  0  0  0
  3  1  1  0  0  0  0
  4  1  1  0  0  0  0
  5  4  1  0  0  0  0
  5  6  1  0  0  0  0
  7  5  2  0  0  0  0
  8  7  1  0  0  0  0
  9  7  1  0  0  0  0
  9 11  1  0  0  0  0
 10  9  1  0  0  0  0
 11  4  2  0  0  0  0
 13 19  1  0  0  0  0
 14 12  1  0  0  0  0
 14 13  2  0  0  0  0
 15 14  1  0  0  0  0
 16 15  2  0  0  0  0
 16 17  1  0  0  0  0
 17 18  2  0  0  0  0
 18 13  1  0  0  0  0
 20 15  1  0  0  0  0
 21 17  1  0  0  0  0
M  END
>  <minimizedAffinity>
-4.03879642

$$$$

 OpenBabel03252503003D

 21 22  0  0  0  0  0  0  0  0999 V2000
   36.4070   29.4920   39.1380 C   0  0  0  0  0  0  0  0  0  0  0  0
   35.7340   29.4050   38.2410 H   0  0  0  0  0  0  0  0  0  0  0  0
   37.3170   28.9340   38.9190 H   0  0  0  0  0  0  0  0  0  0  0  0
   36.7410   30.9280   39.3310 C   0  0  0  0  0  0  0  0  0  0  0  0
   37.2160   31.9050   38.4820 C   0  0  0  0  0  0  0  0  0  0  0  0
   37.4250   31.7070   37.4460 H   0  0  0  0  0  0  0  0  0  0  0  0
   37.3480   33.0800   39.1970 C   0  0  0  0  0  0  0  0  0  0  0  0
   37.6940   34.0230   38.8270 H   0  0  0  0  0  0  0  0  0  0  0  0
   36.9560   32.8040   40.4540 N   0  0  0  0  0  0  0  0  0  0  0  0
   36.9090   33.4230   41.2900 H   0  0  0  0  0  0  0  0  0  0  0  0
   36.6030   31.5530   40.5280 N   0  0  0  0  0  0  0  0  0  0  0  0
   35.6150   28.8910   40.6400 S   0  0  0  0  0  0  0  0  0  0  0  0
   37.1520   26.7410   41.5680 C   0  0  0  0  0  0  0  0  0  0  0  0
   36.8130   28.0840   41.7020 C   0  0  0  0  0  0  0  0  0  0  0  0
   37.4190   28.8490   42.6950 C   0  0  0  0  0  0  0  0  0  0  0  0
   38.3420   28.2300   43.5130 N   0  0  0  0  0  0  0  0  0  0  0  0
   38.6310   26.9360   43.3420 C   0  0  0  0  0  0  0  0  0  0  0  0
   38.0610   26.1800   42.3940 N   0  0  0  0  0  0  0  0  0  0  0  0
   36.6360   26.2140   40.7730 H   0  0  0  0  0  0  0  0  0  0  0  0
   37.2070   29.8990   42.8590 H   0  0  0  0  0  0  0  0  0  0  0  0
   39.3580   26.4480   43.9870 H   0  0  0  0  0  0  0  0  0  0  0  0
  1  4  1  0  0  0  0
  1 12  1  0  0  0  0
  2  1  1  0  0  0  0
  3  1  1  0  0  0  0
  4 11  2  0  0  0  0
  5  7  2  0  0  0  0
  5  4  1  0  0  0  0
  6  5  1  0  0  0  0
  7  9  1  0  0  0  0
  8  7  1  0  0  0  0
  9 11  1  0  0  0  0
  9 10  1  0  0  0  0
 12 14  1  0  0  0  0
 13 14  2  0  0  0  0
 13 18  1  0  0  0  0
 14 15  1  0  0  0  0
 15 20  1  0  0  0  0
 15 16  2  0  0  0  0
 17 16  1  0  0  0  0
 17 21  1  0  0  0  0
 18 17  2  0  0  0  0
 19 13  1  0  0  0  0
M  END
>  <minimizedAffinity>
-4.03489351

$$$$

 OpenBabel03252503003D

 21 22  0  0  0  0  0  0  0  0999 V2000
   36.6700   30.5930   38.8600 C   0  0  0  0  0  0  0  0  0  0  0  0
   35.7740   30.9890   38.3090 H   0  0  0  0  0  0  0  0  0  0  0  0
   36.6820   29.5110   38.7290 H   0  0  0  0  0  0  0  0  0  0  0  0
   37.8900   31.1800   38.2460 C   0  0  0  0  0  0  0  0  0  0  0  0
   39.1960   31.2950   38.6740 C   0  0  0  0  0  0  0  0  0  0  0  0
   39.5170   30.9220   39.6310 H   0  0  0  0  0  0  0  0  0  0  0  0
   39.9240   31.9370   37.6900 C   0  0  0  0  0  0  0  0  0  0  0  0
   40.9670   32.1790   37.7160 H   0  0  0  0  0  0  0  0  0  0  0  0
   39.0620   32.1980   36.6910 N   0  0  0  0  0  0  0  0  0  0  0  0
   39.2220   32.6680   35.7770 H   0  0  0  0  0  0  0  0  0  0  0  0
   37.8810   31.7570   37.0180 N   0  0  0  0  0  0  0  0  0  0  0  0
   36.6460   31.0410   40.6050 S   0  0  0  0  0  0  0  0  0  0  0  0
   36.3840   28.4570   41.6530 C   0  0  0  0  0  0  0  0  0  0  0  0
   37.1150   29.6410   41.6210 C   0  0  0  0  0  0  0  0  0  0  0  0
   38.2620   29.7600   42.4010 C   0  0  0  0  0  0  0  0  0  0  0  0
   38.6250   28.6830   43.1830 N   0  0  0  0  0  0  0  0  0  0  0  0
   37.8870   27.5680   43.1780 C   0  0  0  0  0  0  0  0  0  0  0  0
   36.7800   27.4300   42.4350 N   0  0  0  0  0  0  0  0  0  0  0  0
   35.5050   28.4420   41.0170 H   0  0  0  0  0  0  0  0  0  0  0  0
   38.8810   30.6500   42.4280 H   0  0  0  0  0  0  0  0  0  0  0  0
   38.1720   26.7200   43.7940 H   0  0  0  0  0  0  0  0  0  0  0  0
  1 12  1  0  0  0  0
  2  1  1  0  0  0  0
  3  1  1  0  0  0  0
  4  5  1  0  0  0  0
  4  1  1  0  0  0  0
  5  6  1  0  0  0  0
  7  8  1  0  0  0  0
  7  5  2  0  0  0  0
  9 11  1  0  0  0  0
  9  7  1  0  0  0  0
 10  9  1  0  0  0  0
 11  4  2  0  0  0  0
 12 14  1  0  0  0  0
 13 18  1  0  0  0  0
 14 13  2  0  0  0  0
 14 15  1  0  0  0  0
 15 20  1  0  0  0  0
 15 16  2  0  0  0  0
 17 16  1  0  0  0  0
 17 21  1  0  0  0  0
 18 17  2  0  0  0  0
 19 13  1  0  0  0  0
M  END
>  <minimizedAffinity>
-3.95001078

$$$$

 OpenBabel03252503003D

 21 22  0  0  0  0  0  0  0  0999 V2000
   39.9420   31.0560   40.8560 C   0  0  0  0  0  0  0  0  0  0  0  0
   39.7100   30.2190   40.1420 H   0  0  0  0  0  0  0  0  0  0  0  0
   40.9860   31.3320   40.7060 H   0  0  0  0  0  0  0  0  0  0  0  0
   39.0700   32.2120   40.5180 C   0  0  0  0  0  0  0  0  0  0  0  0
   39.3330   33.4870   40.0660 C   0  0  0  0  0  0  0  0  0  0  0  0
   40.3360   33.8320   39.8840 H   0  0  0  0  0  0  0  0  0  0  0  0
   38.1330   34.1550   39.9170 C   0  0  0  0  0  0  0  0  0  0  0  0
   37.9940   35.1630   39.5820 H   0  0  0  0  0  0  0  0  0  0  0  0
   37.1690   33.2860   40.2750 N   0  0  0  0  0  0  0  0  0  0  0  0
   36.1360   33.4080   40.3000 H   0  0  0  0  0  0  0  0  0  0  0  0
   37.7180   32.1580   40.6240 N   0  0  0  0  0  0  0  0  0  0  0  0
   39.6280   30.5930   42.5680 S   0  0  0  0  0  0  0  0  0  0  0  0
   37.2650   29.0930   42.4520 C   0  0  0  0  0  0  0  0  0  0  0  0
   38.6440   29.0970   42.6450 C   0  0  0  0  0  0  0  0  0  0  0  0
   39.3040   27.8990   42.9070 C   0  0  0  0  0  0  0  0  0  0  0  0
   38.5490   26.7460   42.9660 N   0  0  0  0  0  0  0  0  0  0  0  0
   37.2260   26.7970   42.7740 C   0  0  0  0  0  0  0  0  0  0  0  0
   36.5700   27.9370   42.5200 N   0  0  0  0  0  0  0  0  0  0  0  0
   36.8260   30.0640   42.2530 H   0  0  0  0  0  0  0  0  0  0  0  0
   40.3730   27.8250   43.0670 H   0  0  0  0  0  0  0  0  0  0  0  0
   36.6310   25.8890   42.8210 H   0  0  0  0  0  0  0  0  0  0  0  0
  1 12  1  0  0  0  0
  2  1  1  0  0  0  0
  3  1  1  0  0  0  0
  4 11  2  0  0  0  0
  4  1  1  0  0  0  0
  5  4  1  0  0  0  0
  6  5  1  0  0  0  0
  7  5  2  0  0  0  0
  7  9  1  0  0  0  0
  8  7  1  0  0  0  0
  9 10  1  0  0  0  0
  9 11  1  0  0  0  0
 12 14  1  0  0  0  0
 13 18  2  0  0  0  0
 13 14  1  0  0  0  0
 14 15  2  0  0  0  0
 15 16  1  0  0  0  0
 15 20  1  0  0  0  0
 17 21  1  0  0  0  0
 17 16  2  0  0  0  0
 18 17  1  0  0  0  0
 19 13  1  0  0  0  0
M  END
>  <minimizedAffinity>
-3.87642431

$$$$

 OpenBabel03252503003D

 21 22  0  0  0  0  0  0  0  0999 V2000
   38.8940   27.1940   43.0420 C   0  0  0  0  0  0  0  0  0  0  0  0
   39.4620   26.9990   43.9920 H   0  0  0  0  0  0  0  0  0  0  0  0
   39.6020   27.5920   42.3150 H   0  0  0  0  0  0  0  0  0  0  0  0
   38.3540   25.9000   42.5490 C   0  0  0  0  0  0  0  0  0  0  0  0
   37.1920   25.5550   41.8920 C   0  0  0  0  0  0  0  0  0  0  0  0
   36.4470   26.2870   41.6290 H   0  0  0  0  0  0  0  0  0  0  0  0
   37.2010   24.1910   41.6720 C   0  0  0  0  0  0  0  0  0  0  0  0
   36.4430   23.6130   41.1850 H   0  0  0  0  0  0  0  0  0  0  0  0
   38.3550   23.7320   42.1900 N   0  0  0  0  0  0  0  0  0  0  0  0
   38.7320   22.7630   42.2250 H   0  0  0  0  0  0  0  0  0  0  0  0
   39.0220   24.7280   42.6990 N   0  0  0  0  0  0  0  0  0  0  0  0
   37.5130   28.3220   43.2960 S   0  0  0  0  0  0  0  0  0  0  0  0
   36.5650   30.2210   41.4690 C   0  0  0  0  0  0  0  0  0  0  0  0
   37.6440   29.7350   42.2010 C   0  0  0  0  0  0  0  0  0  0  0  0
   38.8840   30.3580   42.0920 C   0  0  0  0  0  0  0  0  0  0  0  0
   38.9870   31.4460   41.2500 N   0  0  0  0  0  0  0  0  0  0  0  0
   37.9190   31.8730   40.5680 C   0  0  0  0  0  0  0  0  0  0  0  0
   36.7160   31.2900   40.6580 N   0  0  0  0  0  0  0  0  0  0  0  0
   35.6340   29.6820   41.6080 H   0  0  0  0  0  0  0  0  0  0  0  0
   39.7680   30.0360   42.6300 H   0  0  0  0  0  0  0  0  0  0  0  0
   38.0000   32.7300   39.9050 H   0  0  0  0  0  0  0  0  0  0  0  0
  1 12  1  0  0  0  0
  1  2  1  0  0  0  0
  3  1  1  0  0  0  0
  4 11  2  0  0  0  0
  4  1  1  0  0  0  0
  5  4  1  0  0  0  0
  6  5  1  0  0  0  0
  7  5  2  0  0  0  0
  7  9  1  0  0  0  0
  8  7  1  0  0  0  0
  9 10  1  0  0  0  0
  9 11  1  0  0  0  0
 13 19  1  0  0  0  0
 13 14  1  0  0  0  0
 14 12  1  0  0  0  0
 15 14  2  0  0  0  0
 15 20  1  0  0  0  0
 16 15  1  0  0  0  0
 17 18  1  0  0  0  0
 17 16  2  0  0  0  0
 18 13  2  0  0  0  0
 21 17  1  0  0  0  0
M  END
>  <minimizedAffinity>
-3.83096743

$$$$

 OpenBabel03252503003D

 21 22  0  0  0  0  0  0  0  0999 V2000
   37.8380   28.8290   40.1750 C   0  0  0  0  0  0  0  0  0  0  0  0
   38.9500   28.9910   40.1880 H   0  0  0  0  0  0  0  0  0  0  0  0
   37.6390   27.9850   39.5150 H   0  0  0  0  0  0  0  0  0  0  0  0
   37.4010   28.4920   41.5560 C   0  0  0  0  0  0  0  0  0  0  0  0
   36.9240   27.3350   42.1350 C   0  0  0  0  0  0  0  0  0  0  0  0
   36.7990   26.4260   41.5720 H   0  0  0  0  0  0  0  0  0  0  0  0
   36.6690   27.5870   43.4690 C   0  0  0  0  0  0  0  0  0  0  0  0
   36.2910   26.8940   44.1930 H   0  0  0  0  0  0  0  0  0  0  0  0
   36.9910   28.8760   43.6800 N   0  0  0  0  0  0  0  0  0  0  0  0
   36.9410   29.4430   44.5510 H   0  0  0  0  0  0  0  0  0  0  0  0
   37.4160   29.3980   42.5660 N   0  0  0  0  0  0  0  0  0  0  0  0
   36.9440   30.3010   39.6450 S   0  0  0  0  0  0  0  0  0  0  0  0
   37.4470   33.0420   39.9250 C   0  0  0  0  0  0  0  0  0  0  0  0
   37.9740   31.7580   39.8180 C   0  0  0  0  0  0  0  0  0  0  0  0
   39.3540   31.5780   39.8470 C   0  0  0  0  0  0  0  0  0  0  0  0
   40.1480   32.6980   39.9820 N   0  0  0  0  0  0  0  0  0  0  0  0
   39.5910   33.9100   40.0800 C   0  0  0  0  0  0  0  0  0  0  0  0
   38.2660   34.1080   40.0540 N   0  0  0  0  0  0  0  0  0  0  0  0
   36.3640   33.0990   39.8940 H   0  0  0  0  0  0  0  0  0  0  0  0
   39.8360   30.6100   39.7700 H   0  0  0  0  0  0  0  0  0  0  0  0
   40.2160   34.7930   40.1850 H   0  0  0  0  0  0  0  0  0  0  0  0
  1  2  1  0  0  0  0
  1  4  1  0  0  0  0
  3  1  1  0  0  0  0
  4  5  1  0  0  0  0
  4 11  2  0  0  0  0
  5  7  2  0  0  0  0
  6  5  1  0  0  0  0
  7  9  1  0  0  0  0
  7  8  1  0  0  0  0
  9 10  1  0  0  0  0
 11  9  1  0  0  0  0
 12 14  1  0  0  0  0
 12  1  1  0  0  0  0
 13 18  1  0  0  0  0
 14 15  1  0  0  0  0
 14 13  2  0  0  0  0
 15 16  2  0  0  0  0
 16 17  1  0  0  0  0
 17 21  1  0  0  0  0
 18 17  2  0  0  0  0
 19 13  1  0  0  0  0
 20 15  1  0  0  0  0
M  END
>  <minimizedAffinity>
-3.81671357

$$$$

 OpenBabel03252503003D

 21 22  0  0  0  0  0  0  0  0999 V2000
   39.1100   29.3370   41.8100 C   0  0  0  0  0  0  0  0  0  0  0  0
   39.4140   28.6870   40.9440 H   0  0  0  0  0  0  0  0  0  0  0  0
   39.9690   29.9550   42.0700 H   0  0  0  0  0  0  0  0  0  0  0  0
   37.9890   30.2070   41.3670 C   0  0  0  0  0  0  0  0  0  0  0  0
   37.9240   31.3120   40.5450 C   0  0  0  0  0  0  0  0  0  0  0  0
   38.7990   31.7210   40.0700 H   0  0  0  0  0  0  0  0  0  0  0  0
   36.6100   31.7330   40.4800 C   0  0  0  0  0  0  0  0  0  0  0  0
   36.2280   32.5650   39.9250 H   0  0  0  0  0  0  0  0  0  0  0  0
   35.9030   30.8880   41.2520 N   0  0  0  0  0  0  0  0  0  0  0  0
   34.8840   30.8680   41.4610 H   0  0  0  0  0  0  0  0  0  0  0  0
   36.7080   30.0030   41.7660 N   0  0  0  0  0  0  0  0  0  0  0  0
   38.5490   28.3680   43.2200 S   0  0  0  0  0  0  0  0  0  0  0  0
   37.0740   26.1590   42.3290 C   0  0  0  0  0  0  0  0  0  0  0  0
   38.3040   26.6550   42.7500 C   0  0  0  0  0  0  0  0  0  0  0  0
   39.4030   25.8020   42.8130 C   0  0  0  0  0  0  0  0  0  0  0  0
   39.2170   24.4840   42.4500 N   0  0  0  0  0  0  0  0  0  0  0  0
   38.0130   24.0580   42.0530 C   0  0  0  0  0  0  0  0  0  0  0  0
   36.9420   24.8610   41.9840 N   0  0  0  0  0  0  0  0  0  0  0  0
   36.2690   26.8860   42.3070 H   0  0  0  0  0  0  0  0  0  0  0  0
   40.3900   26.1160   43.1300 H   0  0  0  0  0  0  0  0  0  0  0  0
   37.8670   23.0200   41.7680 H   0  0  0  0  0  0  0  0  0  0  0  0
  1  3  1  0  0  0  0
  1 12  1  0  0  0  0
  2  1  1  0  0  0  0
  4 11  2  0  0  0  0
  4  1  1  0  0  0  0
  5  4  1  0  0  0  0
  6  5  1  0  0  0  0
  7  5  2  0  0  0  0
  7  9  1  0  0  0  0
  8  7  1  0  0  0  0
  9 10  1  0  0  0  0
  9 11  1  0  0  0  0
 13 14  1  0  0  0  0
 14 15  2  0  0  0  0
 14 12  1  0  0  0  0
 15 20  1  0  0  0  0
 16 15  1  0  0  0  0
 17 16  2  0  0  0  0
 18 17  1  0  0  0  0
 18 13  2  0  0  0  0
 19 13  1  0  0  0  0
 21 17  1  0  0  0  0
M  END
>  <minimizedAffinity>
-3.78524637

$$$$

 OpenBabel03252503003D

 21 22  0  0  0  0  0  0  0  0999 V2000
   37.3030   32.1430   38.7300 C   0  0  0  0  0  0  0  0  0  0  0  0
   38.1690   31.6420   38.2170 H   0  0  0  0  0  0  0  0  0  0  0  0
   36.6330   32.5120   37.9540 H   0  0  0  0  0  0  0  0  0  0  0  0
   36.5960   31.1240   39.5510 C   0  0  0  0  0  0  0  0  0  0  0  0
   36.0130   29.9120   39.2480 C   0  0  0  0  0  0  0  0  0  0  0  0
   36.0050   29.5180   38.2470 H   0  0  0  0  0  0  0  0  0  0  0  0
   35.4930   29.3740   40.4100 C   0  0  0  0  0  0  0  0  0  0  0  0
   34.9760   28.4420   40.5120 H   0  0  0  0  0  0  0  0  0  0  0  0
   35.7650   30.2550   41.3900 N   0  0  0  0  0  0  0  0  0  0  0  0
   35.5400   30.2150   42.4050 H   0  0  0  0  0  0  0  0  0  0  0  0
   36.4060   31.2700   40.8870 N   0  0  0  0  0  0  0  0  0  0  0  0
   37.8380   33.4730   39.8210 S   0  0  0  0  0  0  0  0  0  0  0  0
   40.5530   34.1590   39.7680 C   0  0  0  0  0  0  0  0  0  0  0  0
   39.5730   33.2880   40.2340 C   0  0  0  0  0  0  0  0  0  0  0  0
   39.9340   32.2250   41.0560 C   0  0  0  0  0  0  0  0  0  0  0  0
   41.2680   32.0810   41.3760 N   0  0  0  0  0  0  0  0  0  0  0  0
   42.1710   32.9460   40.9020 C   0  0  0  0  0  0  0  0  0  0  0  0
   41.8470   33.9770   40.1100 N   0  0  0  0  0  0  0  0  0  0  0  0
   40.1920   34.9610   39.1340 H   0  0  0  0  0  0  0  0  0  0  0  0
   39.2270   31.5070   41.4560 H   0  0  0  0  0  0  0  0  0  0  0  0
   43.2220   32.8330   41.1530 H   0  0  0  0  0  0  0  0  0  0  0  0
  1  4  1  0  0  0  0
  1 12  1  0  0  0  0
  2  1  1  0  0  0  0
  3  1  1  0  0  0  0
  4 11  2  0  0  0  0
  5  4  1  0  0  0  0
  5  7  2  0  0  0  0
  6  5  1  0  0  0  0
  7  8  1  0  0  0  0
  7  9  1  0  0  0  0
  9 10  1  0  0  0  0
 11  9  1  0  0  0  0
 12 14  1  0  0  0  0
 13 18  2  0  0  0  0
 13 14  1  0  0  0  0
 14 15  2  0  0  0  0
 15 16  1  0  0  0  0
 15 20  1  0  0  0  0
 17 21  1  0  0  0  0
 17 16  2  0  0  0  0
 18 17  1  0  0  0  0
 19 13  1  0  0  0  0
M  END
>  <minimizedAffinity>
-3.78258276

$$$$

 OpenBabel03252503003D

 21 22  0  0  0  0  0  0  0  0999 V2000
   39.3700   27.1830   42.2870 C   0  0  0  0  0  0  0  0  0  0  0  0
   40.3200   26.9030   42.8180 H   0  0  0  0  0  0  0  0  0  0  0  0
   39.6440   27.5270   41.2890 H   0  0  0  0  0  0  0  0  0  0  0  0
   38.5220   25.9670   42.1760 C   0  0  0  0  0  0  0  0  0  0  0  0
   37.1910   25.7730   41.8750 C   0  0  0  0  0  0  0  0  0  0  0  0
   36.5310   26.5940   41.6570 H   0  0  0  0  0  0  0  0  0  0  0  0
   36.9270   24.4180   41.9140 C   0  0  0  0  0  0  0  0  0  0  0  0
   35.9860   23.9400   41.7270 H   0  0  0  0  0  0  0  0  0  0  0  0
   38.0860   23.8140   42.2330 N   0  0  0  0  0  0  0  0  0  0  0  0
   38.3000   22.8040   42.3590 H   0  0  0  0  0  0  0  0  0  0  0  0
   39.0110   24.7180   42.3850 N   0  0  0  0  0  0  0  0  0  0  0  0
   38.4390   28.4410   43.1790 S   0  0  0  0  0  0  0  0  0  0  0  0
   38.7840   30.7880   41.6900 C   0  0  0  0  0  0  0  0  0  0  0  0
   37.9320   29.7540   42.0700 C   0  0  0  0  0  0  0  0  0  0  0  0
   36.6310   29.7220   41.5780 C   0  0  0  0  0  0  0  0  0  0  0  0
   36.2390   30.7310   40.7230 N   0  0  0  0  0  0  0  0  0  0  0  0
   37.0970   31.7020   40.3900 C   0  0  0  0  0  0  0  0  0  0  0  0
   38.3540   31.7530   40.8500 N   0  0  0  0  0  0  0  0  0  0  0  0
   39.7810   30.7420   42.1150 H   0  0  0  0  0  0  0  0  0  0  0  0
   35.9120   28.9510   41.8290 H   0  0  0  0  0  0  0  0  0  0  0  0
   36.7880   32.4980   39.7170 H   0  0  0  0  0  0  0  0  0  0  0  0
  1  2  1  0  0  0  0
  1 12  1  0  0  0  0
  3  1  1  0  0  0  0
  4  1  1  0  0  0  0
  4 11  2  0  0  0  0
  5  7  2  0  0  0  0
  5  4  1  0  0  0  0
  6  5  1  0  0  0  0
  7  9  1  0  0  0  0
  8  7  1  0  0  0  0
  9 10  1  0  0  0  0
  9 11  1  0  0  0  0
 13 14  1  0  0  0  0
 13 19  1  0  0  0  0
 14 12  1  0  0  0  0
 15 20  1  0  0  0  0
 15 14  2  0  0  0  0
 16 15  1  0  0  0  0
 17 16  2  0  0  0  0
 17 18  1  0  0  0  0
 18 13  2  0  0  0  0
 21 17  1  0  0  0  0
M  END
>  <minimizedAffinity>
-3.66770887

$$$$
