
 OpenBabel03252505163D

 24 26  0  0  0  0  0  0  0  0999 V2000
   35.5310   29.5010   40.0300 C   0  0  0  0  0  0  0  0  0  0  0  0
   35.7780   28.5740   41.0670 C   0  0  0  0  0  0  0  0  0  0  0  0
   36.7940   28.9030   41.9470 C   0  0  0  0  0  0  0  0  0  0  0  0
   37.5020   30.0700   41.7940 N   0  0  0  0  0  0  0  0  0  0  0  0
   37.2320   30.9390   40.7780 C   0  0  0  0  0  0  0  0  0  0  0  0
   36.2480   30.6380   39.9120 N   0  0  0  0  0  0  0  0  0  0  0  0
   34.7310   29.2140   39.3590 H   0  0  0  0  0  0  0  0  0  0  0  0
   35.2350   27.6720   41.1910 H   0  0  0  0  0  0  0  0  0  0  0  0
   37.1180   28.0000   43.1020 C   0  0  0  0  0  0  0  0  0  0  0  0
   37.4030   26.5710   42.6870 C   0  0  0  0  0  0  0  0  0  0  0  0
   38.4900   27.5280   43.2480 C   0  0  0  0  0  0  0  0  0  0  0  0
   36.4420   28.1320   43.9690 H   0  0  0  0  0  0  0  0  0  0  0  0
   37.0860   25.7900   43.4150 H   0  0  0  0  0  0  0  0  0  0  0  0
   37.4480   26.3060   41.6270 H   0  0  0  0  0  0  0  0  0  0  0  0
   38.8610   27.3050   44.2710 H   0  0  0  0  0  0  0  0  0  0  0  0
   39.2870   27.7590   42.5170 H   0  0  0  0  0  0  0  0  0  0  0  0
   38.0240   32.1590   40.6780 C   0  0  0  0  0  0  0  0  0  0  0  0
   37.7300   33.2530   39.8930 C   0  0  0  0  0  0  0  0  0  0  0  0
   36.8670   33.3520   39.2450 H   0  0  0  0  0  0  0  0  0  0  0  0
   38.7570   34.1610   40.1210 C   0  0  0  0  0  0  0  0  0  0  0  0
   38.8620   35.1290   39.6800 H   0  0  0  0  0  0  0  0  0  0  0  0
   39.6280   33.6210   41.0100 N   0  0  0  0  0  0  0  0  0  0  0  0
   40.4950   34.0200   41.3960 H   0  0  0  0  0  0  0  0  0  0  0  0
   39.1680   32.4040   41.3380 N   0  0  0  0  0  0  0  0  0  0  0  0
  1  2  1  0  0  0  0
  2  8  1  0  0  0  0
  2  3  2  0  0  0  0
  3  9  1  0  0  0  0
  4  3  1  0  0  0  0
  5  4  2  0  0  0  0
  6  1  2  0  0  0  0
  6  5  1  0  0  0  0
  7  1  1  0  0  0  0
  9 11  1  0  0  0  0
  9 12  1  0  0  0  0
 10  9  1  0  0  0  0
 10 11  1  0  0  0  0
 10 13  1  0  0  0  0
 11 15  1  0  0  0  0
 14 10  1  0  0  0  0
 16 11  1  0  0  0  0
 17  5  1  0  0  0  0
 17 24  2  0  0  0  0
 18 20  2  0  0  0  0
 18 17  1  0  0  0  0
 19 18  1  0  0  0  0
 20 22  1  0  0  0  0
 21 20  1  0  0  0  0
 22 24  1  0  0  0  0
 22 23  1  0  0  0  0
M  END
>  <minimizedAffinity>
-4.74573946

$$$$

 OpenBabel03252505163D

 24 26  0  0  0  0  0  0  0  0999 V2000
   36.3860   27.2190   38.8630 C   0  0  0  0  0  0  0  0  0  0  0  0
   36.5860   26.5520   40.0920 C   0  0  0  0  0  0  0  0  0  0  0  0
   36.9040   27.3530   41.1740 C   0  0  0  0  0  0  0  0  0  0  0  0
   37.0100   28.7150   41.0300 N   0  0  0  0  0  0  0  0  0  0  0  0
   36.8080   29.3210   39.8250 C   0  0  0  0  0  0  0  0  0  0  0  0
   36.4990   28.5610   38.7610 N   0  0  0  0  0  0  0  0  0  0  0  0
   36.1400   26.5640   38.0370 H   0  0  0  0  0  0  0  0  0  0  0  0
   36.5060   25.5010   40.2100 H   0  0  0  0  0  0  0  0  0  0  0  0
   37.1080   26.7460   42.5330 C   0  0  0  0  0  0  0  0  0  0  0  0
   37.9870   27.5830   43.4390 C   0  0  0  0  0  0  0  0  0  0  0  0
   36.4670   27.3800   43.6790 C   0  0  0  0  0  0  0  0  0  0  0  0
   37.3280   25.6610   42.5030 H   0  0  0  0  0  0  0  0  0  0  0  0
   38.6250   27.0080   44.1490 H   0  0  0  0  0  0  0  0  0  0  0  0
   38.3310   28.5690   43.1140 H   0  0  0  0  0  0  0  0  0  0  0  0
   36.1850   26.7410   44.5410 H   0  0  0  0  0  0  0  0  0  0  0  0
   35.8850   28.3170   43.6000 H   0  0  0  0  0  0  0  0  0  0  0  0
   36.9370   30.7710   39.7470 C   0  0  0  0  0  0  0  0  0  0  0  0
   37.3220   31.4900   38.6370 C   0  0  0  0  0  0  0  0  0  0  0  0
   37.5810   31.0720   37.6710 H   0  0  0  0  0  0  0  0  0  0  0  0
   37.3010   32.8230   39.0310 C   0  0  0  0  0  0  0  0  0  0  0  0
   37.5430   33.6710   38.4270 H   0  0  0  0  0  0  0  0  0  0  0  0
   36.9160   32.8880   40.3290 N   0  0  0  0  0  0  0  0  0  0  0  0
   36.7960   33.7140   40.9330 H   0  0  0  0  0  0  0  0  0  0  0  0
   36.6990   31.6320   40.7500 N   0  0  0  0  0  0  0  0  0  0  0  0
  1  2  1  0  0  0  0
  2  8  1  0  0  0  0
  2  3  2  0  0  0  0
  3  9  1  0  0  0  0
  4  3  1  0  0  0  0
  5  4  2  0  0  0  0
  6  1  2  0  0  0  0
  6  5  1  0  0  0  0
  7  1  1  0  0  0  0
  9 10  1  0  0  0  0
  9 11  1  0  0  0  0
 10 11  1  0  0  0  0
 10 13  1  0  0  0  0
 11 15  1  0  0  0  0
 12  9  1  0  0  0  0
 14 10  1  0  0  0  0
 16 11  1  0  0  0  0
 17  5  1  0  0  0  0
 17 24  2  0  0  0  0
 18 20  2  0  0  0  0
 18 17  1  0  0  0  0
 19 18  1  0  0  0  0
 20 22  1  0  0  0  0
 21 20  1  0  0  0  0
 22 24  1  0  0  0  0
 22 23  1  0  0  0  0
M  END
>  <minimizedAffinity>
-4.68917704

$$$$

 OpenBabel03252505163D

 24 26  0  0  0  0  0  0  0  0999 V2000
   39.6410   27.4110   43.4000 C   0  0  0  0  0  0  0  0  0  0  0  0
   39.4410   26.0230   43.2310 C   0  0  0  0  0  0  0  0  0  0  0  0
   38.3340   25.6540   42.4870 C   0  0  0  0  0  0  0  0  0  0  0  0
   37.4980   26.6060   41.9570 N   0  0  0  0  0  0  0  0  0  0  0  0
   37.7270   27.9380   42.1420 C   0  0  0  0  0  0  0  0  0  0  0  0
   38.7970   28.3170   42.8620 N   0  0  0  0  0  0  0  0  0  0  0  0
   40.5150   27.6660   43.9860 H   0  0  0  0  0  0  0  0  0  0  0  0
   40.0820   25.2830   43.6380 H   0  0  0  0  0  0  0  0  0  0  0  0
   38.0470   24.2030   42.2250 C   0  0  0  0  0  0  0  0  0  0  0  0
   36.9410   23.9830   41.2120 C   0  0  0  0  0  0  0  0  0  0  0  0
   38.4300   23.6440   40.9330 C   0  0  0  0  0  0  0  0  0  0  0  0
   37.9970   23.5890   43.1450 H   0  0  0  0  0  0  0  0  0  0  0  0
   36.3090   23.0820   41.3840 H   0  0  0  0  0  0  0  0  0  0  0  0
   36.5000   24.8350   40.6870 H   0  0  0  0  0  0  0  0  0  0  0  0
   38.6890   22.5660   40.8860 H   0  0  0  0  0  0  0  0  0  0  0  0
   38.8710   24.2520   40.1210 H   0  0  0  0  0  0  0  0  0  0  0  0
   36.7980   28.8920   41.5490 C   0  0  0  0  0  0  0  0  0  0  0  0
   35.8270   28.6020   40.6150 C   0  0  0  0  0  0  0  0  0  0  0  0
   35.6240   27.6230   40.1970 H   0  0  0  0  0  0  0  0  0  0  0  0
   35.1950   29.8100   40.3480 C   0  0  0  0  0  0  0  0  0  0  0  0
   34.3860   29.9710   39.6680 H   0  0  0  0  0  0  0  0  0  0  0  0
   35.7730   30.7800   41.0980 N   0  0  0  0  0  0  0  0  0  0  0  0
   35.5520   31.7850   41.1460 H   0  0  0  0  0  0  0  0  0  0  0  0
   36.7450   30.2060   41.8220 N   0  0  0  0  0  0  0  0  0  0  0  0
  1  7  1  0  0  0  0
  2  1  1  0  0  0  0
  2  8  1  0  0  0  0
  3  2  2  0  0  0  0
  4  5  2  0  0  0  0
  4  3  1  0  0  0  0
  5  6  1  0  0  0  0
  6  1  2  0  0  0  0
  9  3  1  0  0  0  0
  9 12  1  0  0  0  0
 10 13  1  0  0  0  0
 10  9  1  0  0  0  0
 11 10  1  0  0  0  0
 11  9  1  0  0  0  0
 14 10  1  0  0  0  0
 15 11  1  0  0  0  0
 16 11  1  0  0  0  0
 17 24  2  0  0  0  0
 17  5  1  0  0  0  0
 18 17  1  0  0  0  0
 19 18  1  0  0  0  0
 20 18  2  0  0  0  0
 20 22  1  0  0  0  0
 21 20  1  0  0  0  0
 22 23  1  0  0  0  0
 22 24  1  0  0  0  0
M  END
>  <minimizedAffinity>
-4.62202644

$$$$

 OpenBabel03252505163D

 24 26  0  0  0  0  0  0  0  0999 V2000
   41.0580   29.4560   42.2610 C   0  0  0  0  0  0  0  0  0  0  0  0
   40.3050   28.4450   42.8980 C   0  0  0  0  0  0  0  0  0  0  0  0
   38.9300   28.6020   42.8700 C   0  0  0  0  0  0  0  0  0  0  0  0
   38.3620   29.6870   42.2490 N   0  0  0  0  0  0  0  0  0  0  0  0
   39.1260   30.6420   41.6450 C   0  0  0  0  0  0  0  0  0  0  0  0
   40.4630   30.5090   41.6610 N   0  0  0  0  0  0  0  0  0  0  0  0
   42.1300   29.3040   42.3020 H   0  0  0  0  0  0  0  0  0  0  0  0
   40.7370   27.6050   43.3790 H   0  0  0  0  0  0  0  0  0  0  0  0
   38.0370   27.5680   43.4930 C   0  0  0  0  0  0  0  0  0  0  0  0
   36.5900   27.6820   43.0570 C   0  0  0  0  0  0  0  0  0  0  0  0
   37.5130   26.5030   42.6450 C   0  0  0  0  0  0  0  0  0  0  0  0
   38.2120   27.4290   44.5780 H   0  0  0  0  0  0  0  0  0  0  0  0
   35.8360   27.4020   43.8280 H   0  0  0  0  0  0  0  0  0  0  0  0
   36.3040   28.4050   42.2880 H   0  0  0  0  0  0  0  0  0  0  0  0
   37.2950   25.5210   43.1130 H   0  0  0  0  0  0  0  0  0  0  0  0
   37.6980   26.4550   41.5560 H   0  0  0  0  0  0  0  0  0  0  0  0
   38.4530   31.7670   41.0050 C   0  0  0  0  0  0  0  0  0  0  0  0
   39.0330   32.9710   40.6680 C   0  0  0  0  0  0  0  0  0  0  0  0
   40.0700   33.2420   40.8340 H   0  0  0  0  0  0  0  0  0  0  0  0
   38.0190   33.7240   40.0890 C   0  0  0  0  0  0  0  0  0  0  0  0
   38.1010   34.7180   39.7050 H   0  0  0  0  0  0  0  0  0  0  0  0
   36.8780   32.9890   40.0850 N   0  0  0  0  0  0  0  0  0  0  0  0
   35.9440   33.2400   39.7340 H   0  0  0  0  0  0  0  0  0  0  0  0
   37.1600   31.8030   40.6460 N   0  0  0  0  0  0  0  0  0  0  0  0
  1  7  1  0  0  0  0
  1  2  1  0  0  0  0
  2  8  1  0  0  0  0
  3  2  2  0  0  0  0
  3  9  1  0  0  0  0
  4  3  1  0  0  0  0
  5  6  1  0  0  0  0
  5  4  2  0  0  0  0
  6  1  2  0  0  0  0
  9 12  1  0  0  0  0
 10  9  1  0  0  0  0
 10 13  1  0  0  0  0
 11 10  1  0  0  0  0
 11 15  1  0  0  0  0
 11  9  1  0  0  0  0
 14 10  1  0  0  0  0
 16 11  1  0  0  0  0
 17  5  1  0  0  0  0
 18 19  1  0  0  0  0
 18 17  1  0  0  0  0
 20 18  2  0  0  0  0
 21 20  1  0  0  0  0
 22 20  1  0  0  0  0
 22 24  1  0  0  0  0
 23 22  1  0  0  0  0
 24 17  2  0  0  0  0
M  END
>  <minimizedAffinity>
-4.60228014

$$$$

 OpenBabel03252505163D

 24 26  0  0  0  0  0  0  0  0999 V2000
   37.6880   28.4400   43.4920 C   0  0  0  0  0  0  0  0  0  0  0  0
   37.5110   27.1180   43.0260 C   0  0  0  0  0  0  0  0  0  0  0  0
   37.2230   26.9810   41.6790 C   0  0  0  0  0  0  0  0  0  0  0  0
   37.1230   28.0860   40.8700 N   0  0  0  0  0  0  0  0  0  0  0  0
   37.3020   29.3470   41.3590 C   0  0  0  0  0  0  0  0  0  0  0  0
   37.5830   29.5010   42.6640 N   0  0  0  0  0  0  0  0  0  0  0  0
   37.9110   28.5120   44.5490 H   0  0  0  0  0  0  0  0  0  0  0  0
   37.5870   26.2610   43.6460 H   0  0  0  0  0  0  0  0  0  0  0  0
   37.0440   25.6170   41.0770 C   0  0  0  0  0  0  0  0  0  0  0  0
   38.2660   24.7330   41.2180 C   0  0  0  0  0  0  0  0  0  0  0  0
   36.9350   24.4730   41.9740 C   0  0  0  0  0  0  0  0  0  0  0  0
   36.5650   25.6350   40.0790 H   0  0  0  0  0  0  0  0  0  0  0  0
   38.4410   24.0230   40.3780 H   0  0  0  0  0  0  0  0  0  0  0  0
   39.1290   25.0760   41.7970 H   0  0  0  0  0  0  0  0  0  0  0  0
   36.3410   23.5980   41.6370 H   0  0  0  0  0  0  0  0  0  0  0  0
   37.0340   24.5580   43.0730 H   0  0  0  0  0  0  0  0  0  0  0  0
   37.1810   30.4730   40.4400 C   0  0  0  0  0  0  0  0  0  0  0  0
   37.3010   30.4140   39.0690 C   0  0  0  0  0  0  0  0  0  0  0  0
   37.5010   29.5210   38.4890 H   0  0  0  0  0  0  0  0  0  0  0  0
   37.1120   31.7170   38.6230 C   0  0  0  0  0  0  0  0  0  0  0  0
   37.1350   32.0540   37.6090 H   0  0  0  0  0  0  0  0  0  0  0  0
   36.8880   32.5170   39.6950 N   0  0  0  0  0  0  0  0  0  0  0  0
   36.7120   33.5310   39.7260 H   0  0  0  0  0  0  0  0  0  0  0  0
   36.9340   31.7450   40.7920 N   0  0  0  0  0  0  0  0  0  0  0  0
  1  7  1  0  0  0  0
  2  1  1  0  0  0  0
  2  8  1  0  0  0  0
  3  2  2  0  0  0  0
  4  5  2  0  0  0  0
  4  3  1  0  0  0  0
  5  6  1  0  0  0  0
  6  1  2  0  0  0  0
  9 10  1  0  0  0  0
  9  3  1  0  0  0  0
  9 11  1  0  0  0  0
 10 14  1  0  0  0  0
 10 11  1  0  0  0  0
 11 16  1  0  0  0  0
 12  9  1  0  0  0  0
 13 10  1  0  0  0  0
 15 11  1  0  0  0  0
 17 24  2  0  0  0  0
 17  5  1  0  0  0  0
 18 17  1  0  0  0  0
 19 18  1  0  0  0  0
 20 18  2  0  0  0  0
 20 22  1  0  0  0  0
 21 20  1  0  0  0  0
 22 23  1  0  0  0  0
 22 24  1  0  0  0  0
M  END
>  <minimizedAffinity>
-4.39273453

$$$$

 OpenBabel03252505163D

 24 26  0  0  0  0  0  0  0  0999 V2000
   38.2170   28.6770   43.2560 C   0  0  0  0  0  0  0  0  0  0  0  0
   37.4150   29.5520   42.4900 C   0  0  0  0  0  0  0  0  0  0  0  0
   36.7090   28.9750   41.4490 C   0  0  0  0  0  0  0  0  0  0  0  0
   36.8020   27.6270   41.2020 N   0  0  0  0  0  0  0  0  0  0  0  0
   37.5880   26.8160   41.9670 C   0  0  0  0  0  0  0  0  0  0  0  0
   38.2820   27.3570   42.9830 N   0  0  0  0  0  0  0  0  0  0  0  0
   38.7560   29.1600   44.0620 H   0  0  0  0  0  0  0  0  0  0  0  0
   37.3380   30.5930   42.6750 H   0  0  0  0  0  0  0  0  0  0  0  0
   35.8040   29.8130   40.5910 C   0  0  0  0  0  0  0  0  0  0  0  0
   35.9830   29.5640   39.1070 C   0  0  0  0  0  0  0  0  0  0  0  0
   34.7080   29.1530   39.8910 C   0  0  0  0  0  0  0  0  0  0  0  0
   35.7520   30.8730   40.9070 H   0  0  0  0  0  0  0  0  0  0  0  0
   35.8310   30.4520   38.4520 H   0  0  0  0  0  0  0  0  0  0  0  0
   36.6520   28.7710   38.7600 H   0  0  0  0  0  0  0  0  0  0  0  0
   33.7910   29.7420   39.6820 H   0  0  0  0  0  0  0  0  0  0  0  0
   34.5470   28.0590   39.9200 H   0  0  0  0  0  0  0  0  0  0  0  0
   37.6380   25.3940   41.6460 C   0  0  0  0  0  0  0  0  0  0  0  0
   36.9360   24.7670   40.6410 C   0  0  0  0  0  0  0  0  0  0  0  0
   36.2510   25.2470   39.9530 H   0  0  0  0  0  0  0  0  0  0  0  0
   37.2980   23.4270   40.7150 C   0  0  0  0  0  0  0  0  0  0  0  0
   36.9490   22.6360   40.0870 H   0  0  0  0  0  0  0  0  0  0  0  0
   38.1840   23.2700   41.7290 N   0  0  0  0  0  0  0  0  0  0  0  0
   38.6520   22.4140   42.0580 H   0  0  0  0  0  0  0  0  0  0  0  0
   38.3800   24.4750   42.2850 N   0  0  0  0  0  0  0  0  0  0  0  0
  1  7  1  0  0  0  0
  2  8  1  0  0  0  0
  2  1  2  0  0  0  0
  3  2  1  0  0  0  0
  4  3  2  0  0  0  0
  4  5  1  0  0  0  0
  5  6  2  0  0  0  0
  6  1  1  0  0  0  0
  9 12  1  0  0  0  0
  9  3  1  0  0  0  0
 10 11  1  0  0  0  0
 10  9  1  0  0  0  0
 11 16  1  0  0  0  0
 11  9  1  0  0  0  0
 13 10  1  0  0  0  0
 14 10  1  0  0  0  0
 15 11  1  0  0  0  0
 17  5  1  0  0  0  0
 17 24  2  0  0  0  0
 18 20  2  0  0  0  0
 18 17  1  0  0  0  0
 19 18  1  0  0  0  0
 20 22  1  0  0  0  0
 21 20  1  0  0  0  0
 22 23  1  0  0  0  0
 22 24  1  0  0  0  0
M  END
>  <minimizedAffinity>
-4.31420374

$$$$

 OpenBabel03252505163D

 24 26  0  0  0  0  0  0  0  0999 V2000
   37.0470   28.4050   38.9390 C   0  0  0  0  0  0  0  0  0  0  0  0
   37.0400   27.5160   40.0350 C   0  0  0  0  0  0  0  0  0  0  0  0
   37.3550   28.0640   41.2660 C   0  0  0  0  0  0  0  0  0  0  0  0
   37.6540   29.4000   41.3800 N   0  0  0  0  0  0  0  0  0  0  0  0
   37.6490   30.2270   40.2950 C   0  0  0  0  0  0  0  0  0  0  0  0
   37.3450   29.7130   39.0910 N   0  0  0  0  0  0  0  0  0  0  0  0
   36.7960   27.9440   37.9910 H   0  0  0  0  0  0  0  0  0  0  0  0
   36.8100   26.4840   39.9540 H   0  0  0  0  0  0  0  0  0  0  0  0
   37.3480   27.2110   42.5010 C   0  0  0  0  0  0  0  0  0  0  0  0
   38.1210   27.8160   43.6550 C   0  0  0  0  0  0  0  0  0  0  0  0
   36.5760   27.6650   43.6520 C   0  0  0  0  0  0  0  0  0  0  0  0
   37.5320   26.1380   42.2980 H   0  0  0  0  0  0  0  0  0  0  0  0
   38.6330   27.0850   44.3220 H   0  0  0  0  0  0  0  0  0  0  0  0
   38.5410   28.8220   43.5680 H   0  0  0  0  0  0  0  0  0  0  0  0
   36.1550   26.8980   44.3360 H   0  0  0  0  0  0  0  0  0  0  0  0
   36.0430   28.6340   43.6750 H   0  0  0  0  0  0  0  0  0  0  0  0
   37.9760   31.6340   40.4930 C   0  0  0  0  0  0  0  0  0  0  0  0
   37.4890   32.6890   39.7520 C   0  0  0  0  0  0  0  0  0  0  0  0
   36.7970   32.6120   38.9220 H   0  0  0  0  0  0  0  0  0  0  0  0
   38.0710   33.8270   40.2980 C   0  0  0  0  0  0  0  0  0  0  0  0
   37.9240   34.8360   39.9760 H   0  0  0  0  0  0  0  0  0  0  0  0
   38.8740   33.4560   41.3260 N   0  0  0  0  0  0  0  0  0  0  0  0
   39.4520   34.0420   41.9440 H   0  0  0  0  0  0  0  0  0  0  0  0
   38.8050   32.1200   41.4310 N   0  0  0  0  0  0  0  0  0  0  0  0
  1  6  2  0  0  0  0
  1  2  1  0  0  0  0
  2  3  2  0  0  0  0
  3  4  1  0  0  0  0
  3  9  1  0  0  0  0
  5 17  1  0  0  0  0
  5  4  2  0  0  0  0
  6  5  1  0  0  0  0
  7  1  1  0  0  0  0
  8  2  1  0  0  0  0
  9 11  1  0  0  0  0
  9 10  1  0  0  0  0
 10 13  1  0  0  0  0
 11 10  1  0  0  0  0
 11 16  1  0  0  0  0
 11 15  1  0  0  0  0
 12  9  1  0  0  0  0
 14 10  1  0  0  0  0
 17 24  2  0  0  0  0
 18 20  2  0  0  0  0
 18 17  1  0  0  0  0
 19 18  1  0  0  0  0
 20 22  1  0  0  0  0
 21 20  1  0  0  0  0
 22 24  1  0  0  0  0
 22 23  1  0  0  0  0
M  END
>  <minimizedAffinity>
-4.30277729

$$$$

 OpenBabel03252505163D

 24 26  0  0  0  0  0  0  0  0999 V2000
   36.8870   27.0340   41.9610 C   0  0  0  0  0  0  0  0  0  0  0  0
   38.0230   26.6190   42.6900 C   0  0  0  0  0  0  0  0  0  0  0  0
   39.0000   27.5790   42.8920 C   0  0  0  0  0  0  0  0  0  0  0  0
   38.8420   28.8510   42.4000 N   0  0  0  0  0  0  0  0  0  0  0  0
   37.7280   29.2120   41.7010 C   0  0  0  0  0  0  0  0  0  0  0  0
   36.7680   28.2950   41.4940 N   0  0  0  0  0  0  0  0  0  0  0  0
   36.1430   26.2600   41.8200 H   0  0  0  0  0  0  0  0  0  0  0  0
   38.1510   25.6380   43.0720 H   0  0  0  0  0  0  0  0  0  0  0  0
   40.2350   27.2490   43.6790 C   0  0  0  0  0  0  0  0  0  0  0  0
   41.2750   26.4920   42.8780 C   0  0  0  0  0  0  0  0  0  0  0  0
   41.4700   27.9560   43.3590 C   0  0  0  0  0  0  0  0  0  0  0  0
   40.0220   26.8610   44.6950 H   0  0  0  0  0  0  0  0  0  0  0  0
   41.8790   25.7550   43.4550 H   0  0  0  0  0  0  0  0  0  0  0  0
   41.1240   26.3170   41.8090 H   0  0  0  0  0  0  0  0  0  0  0  0
   42.2100   28.1120   44.1710 H   0  0  0  0  0  0  0  0  0  0  0  0
   41.5500   28.6810   42.5270 H   0  0  0  0  0  0  0  0  0  0  0  0
   37.6300   30.5820   41.2090 C   0  0  0  0  0  0  0  0  0  0  0  0
   38.6820   31.4490   41.0150 C   0  0  0  0  0  0  0  0  0  0  0  0
   39.7260   31.2280   41.2010 H   0  0  0  0  0  0  0  0  0  0  0  0
   38.1120   32.6250   40.5410 C   0  0  0  0  0  0  0  0  0  0  0  0
   38.6280   33.5240   40.2790 H   0  0  0  0  0  0  0  0  0  0  0  0
   36.7690   32.4570   40.4600 N   0  0  0  0  0  0  0  0  0  0  0  0
   36.0470   33.1230   40.1500 H   0  0  0  0  0  0  0  0  0  0  0  0
   36.4920   31.2100   40.8690 N   0  0  0  0  0  0  0  0  0  0  0  0
  1  2  1  0  0  0  0
  2  3  2  0  0  0  0
  2  8  1  0  0  0  0
  3  9  1  0  0  0  0
  4  3  1  0  0  0  0
  5  4  2  0  0  0  0
  6  5  1  0  0  0  0
  6  1  2  0  0  0  0
  7  1  1  0  0  0  0
  9 12  1  0  0  0  0
 10 11  1  0  0  0  0
 10 13  1  0  0  0  0
 10  9  1  0  0  0  0
 11  9  1  0  0  0  0
 11 15  1  0  0  0  0
 14 10  1  0  0  0  0
 16 11  1  0  0  0  0
 17  5  1  0  0  0  0
 18 19  1  0  0  0  0
 18 17  1  0  0  0  0
 20 18  2  0  0  0  0
 21 20  1  0  0  0  0
 22 20  1  0  0  0  0
 22 24  1  0  0  0  0
 23 22  1  0  0  0  0
 24 17  2  0  0  0  0
M  END
>  <minimizedAffinity>
-4.26382923

$$$$

 OpenBabel03252505163D

 24 26  0  0  0  0  0  0  0  0999 V2000
   36.6630   31.4530   40.4950 C   0  0  0  0  0  0  0  0  0  0  0  0
   36.1210   30.2320   40.9540 C   0  0  0  0  0  0  0  0  0  0  0  0
   36.9690   29.4320   41.6990 C   0  0  0  0  0  0  0  0  0  0  0  0
   38.2570   29.8320   41.9610 N   0  0  0  0  0  0  0  0  0  0  0  0
   38.7420   31.0200   41.5000 C   0  0  0  0  0  0  0  0  0  0  0  0
   37.9350   31.8120   40.7740 N   0  0  0  0  0  0  0  0  0  0  0  0
   35.9740   32.0550   39.9150 H   0  0  0  0  0  0  0  0  0  0  0  0
   35.1280   29.9180   40.7550 H   0  0  0  0  0  0  0  0  0  0  0  0
   36.4830   28.1260   42.2590 C   0  0  0  0  0  0  0  0  0  0  0  0
   37.5220   27.0250   42.2050 C   0  0  0  0  0  0  0  0  0  0  0  0
   37.0330   27.6700   43.5300 C   0  0  0  0  0  0  0  0  0  0  0  0
   35.4630   27.8540   41.9230 H   0  0  0  0  0  0  0  0  0  0  0  0
   37.1210   25.9990   42.0410 H   0  0  0  0  0  0  0  0  0  0  0  0
   38.5390   27.2450   41.8690 H   0  0  0  0  0  0  0  0  0  0  0  0
   36.3940   27.0360   44.1800 H   0  0  0  0  0  0  0  0  0  0  0  0
   37.8310   28.2130   44.0710 H   0  0  0  0  0  0  0  0  0  0  0  0
   40.1200   31.3790   41.8180 C   0  0  0  0  0  0  0  0  0  0  0  0
   40.9800   30.6570   42.6160 C   0  0  0  0  0  0  0  0  0  0  0  0
   40.7460   29.7240   43.1160 H   0  0  0  0  0  0  0  0  0  0  0  0
   42.1680   31.3780   42.6290 C   0  0  0  0  0  0  0  0  0  0  0  0
   43.0660   31.1190   43.1490 H   0  0  0  0  0  0  0  0  0  0  0  0
   42.0140   32.4870   41.8640 N   0  0  0  0  0  0  0  0  0  0  0  0
   42.6910   33.2350   41.6580 H   0  0  0  0  0  0  0  0  0  0  0  0
   40.7640   32.4720   41.3780 N   0  0  0  0  0  0  0  0  0  0  0  0
  1  6  2  0  0  0  0
  1  2  1  0  0  0  0
  2  3  2  0  0  0  0
  3  4  1  0  0  0  0
  3  9  1  0  0  0  0
  5 17  1  0  0  0  0
  5  4  2  0  0  0  0
  6  5  1  0  0  0  0
  7  1  1  0  0  0  0
  8  2  1  0  0  0  0
  9 11  1  0  0  0  0
 10  9  1  0  0  0  0
 10 11  1  0  0  0  0
 11 16  1  0  0  0  0
 11 15  1  0  0  0  0
 12  9  1  0  0  0  0
 13 10  1  0  0  0  0
 14 10  1  0  0  0  0
 17 18  1  0  0  0  0
 18 20  2  0  0  0  0
 18 19  1  0  0  0  0
 20 21  1  0  0  0  0
 22 20  1  0  0  0  0
 23 22  1  0  0  0  0
 24 17  2  0  0  0  0
 24 22  1  0  0  0  0
M  END
>  <minimizedAffinity>
-4.13954639

$$$$
