
 OpenBabel03252507223D

 46 49  0  0  1  0  0  0  0  0999 V2000
   47.3340   33.7150   42.8370 C   0  0  0  0  0  0  0  0  0  0  0  0
   48.4540   33.5350   43.4300 O   0  0  0  0  0  0  0  0  0  0  0  0
   47.0390   33.1920   41.5480 N   0  0  0  0  0  0  0  0  0  0  0  0
   45.8280   32.5260   41.0500 C   0  0  0  0  0  0  0  0  0  0  0  0
   45.3770   33.1950   39.7610 C   0  0  0  0  0  0  0  0  0  0  0  0
   46.4170   33.0690   38.6890 C   0  0  0  0  0  0  0  0  0  0  0  0
   47.7120   32.5730   39.3050 C   0  0  0  0  0  0  0  0  0  0  0  0
   48.0600   33.3130   40.5450 C   0  0  2  0  0  0  0  0  0  0  0  0
   45.9790   31.4480   40.9270 H   0  0  0  0  0  0  0  0  0  0  0  0
   45.0130   32.7360   41.7950 H   0  0  0  0  0  0  0  0  0  0  0  0
   45.1190   34.2420   40.0190 H   0  0  0  0  0  0  0  0  0  0  0  0
   44.4520   32.6450   39.4490 H   0  0  0  0  0  0  0  0  0  0  0  0
   46.1350   32.4390   37.8420 H   0  0  0  0  0  0  0  0  0  0  0  0
   46.5800   34.1050   38.2690 H   0  0  0  0  0  0  0  0  0  0  0  0
   48.5420   32.6340   38.5790 H   0  0  0  0  0  0  0  0  0  0  0  0
   47.5610   31.4770   39.4780 H   0  0  0  0  0  0  0  0  0  0  0  0
   48.1040   34.3960   40.2780 H   0  0  0  0  0  0  0  0  0  0  0  0
   45.9420   35.7240   42.9570 C   0  0  0  0  0  0  0  0  0  0  0  0
   46.3250   34.4910   43.5240 C   0  0  0  0  0  0  0  0  0  0  0  0
   45.7460   34.0500   44.7000 C   0  0  0  0  0  0  0  0  0  0  0  0
   44.8110   34.8430   45.2700 N   0  0  0  0  0  0  0  0  0  0  0  0
   44.4260   36.0380   44.7400 C   0  0  0  0  0  0  0  0  0  0  0  0
   45.0040   36.4570   43.5860 N   0  0  0  0  0  0  0  0  0  0  0  0
   46.3990   36.0590   42.0390 H   0  0  0  0  0  0  0  0  0  0  0  0
   43.6870   36.6570   45.1970 H   0  0  0  0  0  0  0  0  0  0  0  0
   46.1600   32.7870   45.2510 C   0  0  0  0  0  0  0  0  0  0  0  0
   45.8050   31.6220   44.6600 C   0  0  0  0  0  0  0  0  0  0  0  0
   46.2200   30.4280   45.2150 C   0  0  0  0  0  0  0  0  0  0  0  0
   46.9960   30.3640   46.3710 C   0  0  0  0  0  0  0  0  0  0  0  0
   47.3360   31.5960   46.9420 C   0  0  0  0  0  0  0  0  0  0  0  0
   46.9140   32.7240   46.3740 N   0  0  0  0  0  0  0  0  0  0  0  0
   45.2060   31.5440   43.7620 H   0  0  0  0  0  0  0  0  0  0  0  0
   45.9700   29.4530   44.7930 H   0  0  0  0  0  0  0  0  0  0  0  0
   47.3520   29.4890   46.8560 H   0  0  0  0  0  0  0  0  0  0  0  0
   47.9360   31.7330   47.8450 H   0  0  0  0  0  0  0  0  0  0  0  0
   49.4370   32.9520   41.0070 C   0  0  0  0  0  0  0  0  0  0  0  0
   49.7880   33.4380   41.9150 H   0  0  0  0  0  0  0  0  0  0  0  0
   50.1000   33.3910   40.2090 H   0  0  0  0  0  0  0  0  0  0  0  0
   49.7120   31.4910   40.9500 C   0  0  0  0  0  0  0  0  0  0  0  0
   50.7460   31.0440   40.1520 C   0  0  0  0  0  0  0  0  0  0  0  0
   51.4790   31.5290   39.4940 H   0  0  0  0  0  0  0  0  0  0  0  0
   50.7720   29.6550   40.2930 C   0  0  0  0  0  0  0  0  0  0  0  0
   51.4260   28.9130   39.8410 H   0  0  0  0  0  0  0  0  0  0  0  0
   49.7720   29.3110   41.1550 N   0  0  0  0  0  0  0  0  0  0  0  0
   49.5530   28.3300   41.4490 H   0  0  0  0  0  0  0  0  0  0  0  0
   49.1580   30.4330   41.5290 N   0  0  0  0  0  0  0  0  0  0  0  0
  1  2  2  0  0  0  0
  1 19  1  0  0  0  0
  3  1  1  0  0  0  0
  4  3  1  0  0  0  0
  4 10  1  0  0  0  0
  5 11  1  0  0  0  0
  5  4  1  0  0  0  0
  6  7  1  0  0  0  0
  6  5  1  0  0  0  0
  7 16  1  0  0  0  0
  7  8  1  0  0  0  0
  8 17  1  6  0  0  0
  8 36  1  0  0  0  0
  8  3  1  0  0  0  0
  9  4  1  0  0  0  0
 12  5  1  0  0  0  0
 13  6  1  0  0  0  0
 14  6  1  0  0  0  0
 15  7  1  0  0  0  0
 18 19  2  0  0  0  0
 18 23  1  0  0  0  0
 19 20  1  0  0  0  0
 20 26  1  0  0  0  0
 20 21  2  0  0  0  0
 22 25  1  0  0  0  0
 22 21  1  0  0  0  0
 23 22  2  0  0  0  0
 24 18  1  0  0  0  0
 26 31  1  0  0  0  0
 27 28  1  0  0  0  0
 27 26  2  0  0  0  0
 28 29  2  0  0  0  0
 29 34  1  0  0  0  0
 29 30  1  0  0  0  0
 30 35  1  0  0  0  0
 31 30  2  0  0  0  0
 32 27  1  0  0  0  0
 33 28  1  0  0  0  0
 36 37  1  0  0  0  0
 38 36  1  0  0  0  0
 39 36  1  0  0  0  0
 39 46  2  0  0  0  0
 40 42  2  0  0  0  0
 40 39  1  0  0  0  0
 41 40  1  0  0  0  0
 42 44  1  0  0  0  0
 43 42  1  0  0  0  0
 44 45  1  0  0  0  0
 44 46  1  0  0  0  0
M  END
>  <minimizedAffinity>
-4.87046814

>  <minimizedRMSD>
0.524362862

$$$$
