
 OpenBabel03252500293D

 27 29  0  0  1  0  0  0  0  0999 V2000
   45.5690   33.4600   41.8410 C   0  0  1  0  0  0  0  0  0  0  0  0
   45.5070   34.2210   40.6160 C   0  0  0  0  0  0  0  0  0  0  0  0
   46.8560   33.8920   41.1330 C   0  0  1  0  0  0  0  0  0  0  0  0
   45.3740   32.3540   41.8200 H   0  0  0  0  0  0  0  0  0  0  0  0
   45.2140   35.3070   40.6930 H   0  0  0  0  0  0  0  0  0  0  0  0
   45.1370   33.7860   39.6520 H   0  0  0  0  0  0  0  0  0  0  0  0
   47.3770   33.0810   40.5480 H   0  0  0  0  0  0  0  0  0  0  0  0
   44.5760   35.3060   43.2370 C   0  0  0  0  0  0  0  0  0  0  0  0
   45.2740   34.0620   43.1670 C   0  0  0  0  0  0  0  0  0  0  0  0
   45.6690   33.4600   44.3480 C   0  0  0  0  0  0  0  0  0  0  0  0
   45.3610   34.1010   45.5140 N   0  0  0  0  0  0  0  0  0  0  0  0
   44.6970   35.2790   45.5540 C   0  0  0  0  0  0  0  0  0  0  0  0
   44.2900   35.9070   44.4120 N   0  0  0  0  0  0  0  0  0  0  0  0
   44.2470   35.8140   42.3390 H   0  0  0  0  0  0  0  0  0  0  0  0
   46.2000   32.5200   44.3430 H   0  0  0  0  0  0  0  0  0  0  0  0
   44.4900   35.7260   46.5150 H   0  0  0  0  0  0  0  0  0  0  0  0
   47.7160   34.9150   41.7640 C   0  0  0  0  0  0  0  0  0  0  0  0
   47.9410   35.7930   41.1200 H   0  0  0  0  0  0  0  0  0  0  0  0
   47.3610   35.2710   42.7650 H   0  0  0  0  0  0  0  0  0  0  0  0
   49.0610   34.2830   42.0090 C   0  0  0  0  0  0  0  0  0  0  0  0
   49.4670   33.0280   41.6090 C   0  0  0  0  0  0  0  0  0  0  0  0
   48.8060   32.3750   41.0590 H   0  0  0  0  0  0  0  0  0  0  0  0
   50.7660   32.8090   42.0200 C   0  0  0  0  0  0  0  0  0  0  0  0
   51.3560   31.9210   41.8550 H   0  0  0  0  0  0  0  0  0  0  0  0
   51.1130   33.9530   42.6650 N   0  0  0  0  0  0  0  0  0  0  0  0
   52.0520   34.1410   43.1160 H   0  0  0  0  0  0  0  0  0  0  0  0
   50.1110   34.8260   42.6620 N   0  0  0  0  0  0  0  0  0  0  0  0
  1  4  1  6  0  0  0
  1  9  1  0  0  0  0
  2  5  1  0  0  0  0
  2  3  1  0  0  0  0
  2  1  1  0  0  0  0
  3  7  1  6  0  0  0
  3 17  1  0  0  0  0
  3  1  1  0  0  0  0
  6  2  1  0  0  0  0
  8 13  1  0  0  0  0
  9  8  2  0  0  0  0
  9 10  1  0  0  0  0
 10 11  2  0  0  0  0
 11 12  1  0  0  0  0
 12 16  1  0  0  0  0
 13 12  2  0  0  0  0
 14  8  1  0  0  0  0
 15 10  1  0  0  0  0
 17 20  1  0  0  0  0
 17 19  1  0  0  0  0
 18 17  1  0  0  0  0
 20 27  2  0  0  0  0
 21 20  1  0  0  0  0
 21 23  2  0  0  0  0
 22 21  1  0  0  0  0
 23 25  1  0  0  0  0
 24 23  1  0  0  0  0
 25 26  1  0  0  0  0
 27 25  1  0  0  0  0
M  END
>  <minimizedAffinity>
-4.76907015

>  <minimizedRMSD>
2.14883208

$$$$
