
 OpenBabel03252507223D

 46 49  0  0  1  0  0  0  0  0999 V2000
   47.3300   33.4820   43.0110 C   0  0  0  0  0  0  0  0  0  0  0  0
   48.4860   33.4350   43.5610 O   0  0  0  0  0  0  0  0  0  0  0  0
   46.9930   32.7530   41.8380 N   0  0  0  0  0  0  0  0  0  0  0  0
   45.7870   31.9770   41.5180 C   0  0  0  0  0  0  0  0  0  0  0  0
   45.2440   32.4200   40.1690 C   0  0  0  0  0  0  0  0  0  0  0  0
   46.2330   32.1610   39.0730 C   0  0  0  0  0  0  0  0  0  0  0  0
   47.5770   31.8100   39.6850 C   0  0  0  0  0  0  0  0  0  0  0  0
   47.9560   32.7480   40.7720 C   0  0  2  0  0  0  0  0  0  0  0  0
   45.9750   30.8990   41.5560 H   0  0  0  0  0  0  0  0  0  0  0  0
   45.0020   32.2760   42.2670 H   0  0  0  0  0  0  0  0  0  0  0  0
   44.9560   33.4860   40.2750 H   0  0  0  0  0  0  0  0  0  0  0  0
   44.3280   31.7980   39.9980 H   0  0  0  0  0  0  0  0  0  0  0  0
   45.9350   31.3960   38.3510 H   0  0  0  0  0  0  0  0  0  0  0  0
   46.3320   33.1220   38.4880 H   0  0  0  0  0  0  0  0  0  0  0  0
   48.3660   31.7840   38.9110 H   0  0  0  0  0  0  0  0  0  0  0  0
   47.4800   30.7510   40.0330 H   0  0  0  0  0  0  0  0  0  0  0  0
   47.9420   33.7760   40.3380 H   0  0  0  0  0  0  0  0  0  0  0  0
   45.9280   35.4860   42.9330 C   0  0  0  0  0  0  0  0  0  0  0  0
   46.3260   34.3230   43.6240 C   0  0  0  0  0  0  0  0  0  0  0  0
   45.7660   34.0090   44.8500 C   0  0  0  0  0  0  0  0  0  0  0  0
   44.8350   34.8550   45.3440 N   0  0  0  0  0  0  0  0  0  0  0  0
   44.4350   35.9840   44.6940 C   0  0  0  0  0  0  0  0  0  0  0  0
   44.9940   36.2780   43.4920 N   0  0  0  0  0  0  0  0  0  0  0  0
   46.3700   35.7210   41.9780 H   0  0  0  0  0  0  0  0  0  0  0  0
   43.6990   36.6460   45.0920 H   0  0  0  0  0  0  0  0  0  0  0  0
   46.1970   32.8150   45.5280 C   0  0  0  0  0  0  0  0  0  0  0  0
   45.8530   31.5910   45.0630 C   0  0  0  0  0  0  0  0  0  0  0  0
   46.2820   30.4660   45.7380 C   0  0  0  0  0  0  0  0  0  0  0  0
   47.0620   30.5320   46.8920 C   0  0  0  0  0  0  0  0  0  0  0  0
   47.3900   31.8200   47.3300 C   0  0  0  0  0  0  0  0  0  0  0  0
   46.9540   32.8780   46.6480 N   0  0  0  0  0  0  0  0  0  0  0  0
   45.2530   31.4140   44.1810 H   0  0  0  0  0  0  0  0  0  0  0  0
   46.0420   29.4490   45.4210 H   0  0  0  0  0  0  0  0  0  0  0  0
   47.4290   29.7170   47.4640 H   0  0  0  0  0  0  0  0  0  0  0  0
   47.9900   32.0580   48.2110 H   0  0  0  0  0  0  0  0  0  0  0  0
   49.3680   32.5090   41.2060 C   0  0  0  0  0  0  0  0  0  0  0  0
   49.7170   33.0840   42.0630 H   0  0  0  0  0  0  0  0  0  0  0  0
   49.9740   32.9270   40.3530 H   0  0  0  0  0  0  0  0  0  0  0  0
   49.7350   31.0680   41.2470 C   0  0  0  0  0  0  0  0  0  0  0  0
   49.3730   30.3260   42.3530 C   0  0  0  0  0  0  0  0  0  0  0  0
   48.8400   30.5420   43.2870 H   0  0  0  0  0  0  0  0  0  0  0  0
   49.8400   29.0300   42.1190 C   0  0  0  0  0  0  0  0  0  0  0  0
   49.7690   28.1340   42.7320 H   0  0  0  0  0  0  0  0  0  0  0  0
   50.4590   29.0300   40.9030 N   0  0  0  0  0  0  0  0  0  0  0  0
   50.9060   28.1900   40.4650 H   0  0  0  0  0  0  0  0  0  0  0  0
   50.3770   30.2650   40.4080 N   0  0  0  0  0  0  0  0  0  0  0  0
  1  2  2  0  0  0  0
  1 19  1  0  0  0  0
  3  1  1  0  0  0  0
  4  9  1  0  0  0  0
  4  3  1  0  0  0  0
  4 10  1  0  0  0  0
  5 11  1  0  0  0  0
  5  4  1  0  0  0  0
  6  7  1  0  0  0  0
  6  5  1  0  0  0  0
  7 16  1  0  0  0  0
  7  8  1  0  0  0  0
  8 17  1  6  0  0  0
  8 36  1  0  0  0  0
  8  3  1  0  0  0  0
 12  5  1  0  0  0  0
 13  6  1  0  0  0  0
 14  6  1  0  0  0  0
 15  7  1  0  0  0  0
 18 23  2  0  0  0  0
 18 19  1  0  0  0  0
 19 20  2  0  0  0  0
 20 21  1  0  0  0  0
 20 26  1  0  0  0  0
 22 25  1  0  0  0  0
 22 21  2  0  0  0  0
 23 22  1  0  0  0  0
 24 18  1  0  0  0  0
 26 31  1  0  0  0  0
 27 26  2  0  0  0  0
 27 28  1  0  0  0  0
 28 29  2  0  0  0  0
 29 30  1  0  0  0  0
 29 34  1  0  0  0  0
 30 35  1  0  0  0  0
 31 30  2  0  0  0  0
 32 27  1  0  0  0  0
 33 28  1  0  0  0  0
 36 39  1  0  0  0  0
 36 37  1  0  0  0  0
 38 36  1  0  0  0  0
 39 40  1  0  0  0  0
 40 41  1  0  0  0  0
 42 40  2  0  0  0  0
 42 43  1  0  0  0  0
 44 42  1  0  0  0  0
 45 44  1  0  0  0  0
 46 44  1  0  0  0  0
 46 39  2  0  0  0  0
M  END
>  <minimizedAffinity>
-4.7467556

>  <minimizedRMSD>
0.713574588

$$$$
