REMARK  Name = 
REMARK  4 active torsions:
REMARK  status: ('A' for Active; 'I' for Inactive)
REMARK    1  A    between atoms: C_1  and  C_10
REMARK    2  A    between atoms: C_8  and  C_21
REMARK    3  A    between atoms: C_11  and  C_15
REMARK    4  A    between atoms: C_21  and  C_39
REMARK                            x       y       z     vdW  Elec       q    Type
REMARK                         _______ _______ _______ _____ _____    ______ ____
ROOT
ATOM      1  C   UNL     1      47.318  33.624  42.836  0.00  0.00    +0.000 C 
ATOM      2  O   UNL     1      48.424  33.404  43.443  0.00  0.00    +0.000 OA
ATOM      3  N   UNL     1      47.022  33.115  41.542  0.00  0.00    +0.000 N 
ATOM      4  C   UNL     1      45.795  32.492  41.026  0.00  0.00    +0.000 C 
ATOM      5  C   UNL     1      45.384  33.180  39.734  0.00  0.00    +0.000 C 
ATOM      6  C   UNL     1      46.433  33.021  38.675  0.00  0.00    +0.000 C 
ATOM      7  C   UNL     1      47.702  32.478  39.306  0.00  0.00    +0.000 C 
ATOM      8  C   UNL     1      48.059  33.203  40.552  0.00  0.00    +0.000 C 
ATOM      9  H   UNL     1      45.910  31.410  40.902  0.00  0.00    +0.000 HD
ATOM     10  H   UNL     1      44.978  32.729  41.762  0.00  0.00    +0.000 HD
ATOM     11  H   UNL     1      45.159  34.235  39.992  0.00  0.00    +0.000 HD
ATOM     12  H   UNL     1      44.445  32.663  39.408  0.00  0.00    +0.000 HD
ATOM     13  H   UNL     1      46.140  32.403  37.822  0.00  0.00    +0.000 HD
ATOM     14  H   UNL     1      46.637  34.051  38.260  0.00  0.00    +0.000 HD
ATOM     15  H   UNL     1      48.543  32.513  38.590  0.00  0.00    +0.000 HD
ATOM     16  H   UNL     1      47.511  31.388  39.473  0.00  0.00    +0.000 HD
ATOM     17  H   UNL     1      48.144  34.284  40.289  0.00  0.00    +0.000 HD
ENDROOT
BRANCH   1  19
ATOM     18  C   UNL     1      45.962  35.659  42.920  0.00  0.00    +0.000 A 
ATOM     19  C   UNL     1      46.328  34.433  43.512  0.00  0.00    +0.000 A 
ATOM     20  C   UNL     1      45.750  34.028  44.702  0.00  0.00    +0.000 A 
ATOM     21  N   UNL     1      44.834  34.850  45.261  0.00  0.00    +0.000 NA
ATOM     22  C   UNL     1      44.465  36.040  44.707  0.00  0.00    +0.000 A 
ATOM     23  N   UNL     1      45.042  36.422  43.539  0.00  0.00    +0.000 NA
ATOM     24  H   UNL     1      46.418  35.965  41.992  0.00  0.00    +0.000 HD
ATOM     25  H   UNL     1      43.741  36.682  45.155  0.00  0.00    +0.000 HD
BRANCH  20  26
ATOM     26  C   UNL     1      46.147  32.771  45.279  0.00  0.00    +0.000 A 
ATOM     27  C   UNL     1      45.770  31.599  44.714  0.00  0.00    +0.000 A 
ATOM     28  C   UNL     1      46.168  30.411  45.293  0.00  0.00    +0.000 A 
ATOM     29  C   UNL     1      46.949  30.360  46.447  0.00  0.00    +0.000 A 
ATOM     30  C   UNL     1      47.311  31.598  46.990  0.00  0.00    +0.000 A 
ATOM     31  N   UNL     1      46.905  32.720  46.399  0.00  0.00    +0.000 NA
ATOM     32  H   UNL     1      45.166  31.512  43.821  0.00  0.00    +0.000 HD
ATOM     33  H   UNL     1      45.901  29.431  44.893  0.00  0.00    +0.000 HD
ATOM     34  H   UNL     1      47.293  29.490  46.949  0.00  0.00    +0.000 HD
ATOM     35  H   UNL     1      47.917  31.745  47.887  0.00  0.00    +0.000 HD
ENDBRANCH  20  26
ENDBRANCH   1  19
BRANCH   8  36
ATOM     36  C   UNL     1      49.417  32.793  41.030  0.00  0.00    +0.000 C 
ATOM     37  H   UNL     1      49.942  33.502  41.668  0.00  0.00    +0.000 HD
ATOM     38  H   UNL     1      50.033  32.792  40.087  0.00  0.00    +0.000 HD
BRANCH  36  39
ATOM     39  C   UNL     1      49.472  31.385  41.507  0.00  0.00    +0.000 A 
ATOM     40  C   UNL     1      49.841  31.146  42.816  0.00  0.00    +0.000 A 
ATOM     41  H   UNL     1      50.127  31.778  43.666  0.00  0.00    +0.000 HD
ATOM     42  C   UNL     1      49.806  29.759  42.981  0.00  0.00    +0.000 A 
ATOM     43  H   UNL     1      50.025  29.148  43.853  0.00  0.00    +0.000 HD
ATOM     44  N   UNL     1      49.426  29.214  41.789  0.00  0.00    +0.000 N 
ATOM     45  H   UNL     1      49.314  28.186  41.615  0.00  0.00    +0.000 HD
ATOM     46  N   UNL     1      49.234  30.214  40.931  0.00  0.00    +0.000 NA
ENDBRANCH  36  39
ENDBRANCH   8  36
TORSDOF 4
