
 OpenBabel03242522263D

 37 40  0  0  0  0  0  0  0  0999 V2000
   44.6050   34.9110   41.2380 F   0  0  0  0  0  0  0  0  0  0  0  0
   44.8930   34.0120   40.2460 C   0  0  0  0  0  0  0  0  0  0  0  0
   46.1390   33.4740   40.1720 C   0  0  0  0  0  0  0  0  0  0  0  0
   46.3180   32.5060   39.2090 C   0  0  0  0  0  0  0  0  0  0  0  0
   45.3120   32.0970   38.3620 C   0  0  0  0  0  0  0  0  0  0  0  0
   44.1060   32.6880   38.5060 C   0  0  0  0  0  0  0  0  0  0  0  0
   43.8640   33.6500   39.4380 C   0  0  0  0  0  0  0  0  0  0  0  0
   47.3690   32.1340   39.2380 H   0  0  0  0  0  0  0  0  0  0  0  0
   45.7190   31.3350   37.7130 H   0  0  0  0  0  0  0  0  0  0  0  0
   43.5670   32.1550   37.7800 H   0  0  0  0  0  0  0  0  0  0  0  0
   42.4970   34.1300   39.5630 C   0  0  0  0  0  0  0  0  0  0  0  0
   42.1210   35.2840   38.8680 C   0  0  0  0  0  0  0  0  0  0  0  0
   40.8920   35.8330   39.1080 C   0  0  0  0  0  0  0  0  0  0  0  0
   40.0360   35.2550   40.0240 C   0  0  0  0  0  0  0  0  0  0  0  0
   40.4620   34.0960   40.6900 C   0  0  0  0  0  0  0  0  0  0  0  0
   41.6840   33.5310   40.4610 C   0  0  0  0  0  0  0  0  0  0  0  0
   42.6370   35.8620   38.1500 H   0  0  0  0  0  0  0  0  0  0  0  0
   40.5070   36.7370   38.6130 H   0  0  0  0  0  0  0  0  0  0  0  0
   39.0470   35.7280   40.2000 H   0  0  0  0  0  0  0  0  0  0  0  0
   39.6830   33.7590   41.3800 H   0  0  0  0  0  0  0  0  0  0  0  0
   41.7380   32.3220   41.2210 C   0  0  0  0  0  0  0  0  0  0  0  0
   42.7060   31.7440   42.0770 C   0  0  0  0  0  0  0  0  0  0  0  0
   43.6630   32.2290   42.2180 H   0  0  0  0  0  0  0  0  0  0  0  0
   42.0750   30.5850   42.5470 C   0  0  0  0  0  0  0  0  0  0  0  0
   42.6040   29.9480   43.2300 H   0  0  0  0  0  0  0  0  0  0  0  0
   40.8510   30.4860   42.0190 N   0  0  0  0  0  0  0  0  0  0  0  0
   40.1690   29.7130   42.2050 H   0  0  0  0  0  0  0  0  0  0  0  0
   40.6230   31.5130   41.2200 N   0  0  0  0  0  0  0  0  0  0  0  0
   49.0730   35.4180   41.5390 C   0  0  0  0  0  0  0  0  0  0  0  0
   48.0810   34.9640   40.6760 C   0  0  0  0  0  0  0  0  0  0  0  0
   47.1740   33.9530   41.0600 C   0  0  0  0  0  0  0  0  0  0  0  0
   47.3310   33.4650   42.2970 N   0  0  0  0  0  0  0  0  0  0  0  0
   48.2980   33.9170   43.1170 C   0  0  0  0  0  0  0  0  0  0  0  0
   49.1580   34.8800   42.7440 N   0  0  0  0  0  0  0  0  0  0  0  0
   49.6570   36.1930   41.0450 H   0  0  0  0  0  0  0  0  0  0  0  0
   47.9030   35.3240   39.6520 H   0  0  0  0  0  0  0  0  0  0  0  0
   48.3760   33.4840   44.1060 H   0  0  0  0  0  0  0  0  0  0  0  0
  2  1  1  0  0  0  0
  3  2  1  0  0  0  0
  3 31  1  0  0  0  0
  4  8  1  0  0  0  0
  4  3  2  0  0  0  0
  5  6  2  0  0  0  0
  5  4  1  0  0  0  0
  6  7  1  0  0  0  0
  7 11  1  0  0  0  0
  7  2  2  0  0  0  0
  9  5  1  0  0  0  0
 10  6  1  0  0  0  0
 11 16  1  0  0  0  0
 12 13  1  0  0  0  0
 12 11  2  0  0  0  0
 13 14  2  0  0  0  0
 14 19  1  0  0  0  0
 14 15  1  0  0  0  0
 15 20  1  0  0  0  0
 16 15  2  0  0  0  0
 16 21  1  0  0  0  0
 17 12  1  0  0  0  0
 18 13  1  0  0  0  0
 21 22  1  0  0  0  0
 22 23  1  0  0  0  0
 22 24  2  0  0  0  0
 24 25  1  0  0  0  0
 26 27  1  0  0  0  0
 26 24  1  0  0  0  0
 28 21  2  0  0  0  0
 28 26  1  0  0  0  0
 29 34  1  0  0  0  0
 30 31  1  0  0  0  0
 30 29  2  0  0  0  0
 31 32  2  0  0  0  0
 32 33  1  0  0  0  0
 33 37  1  0  0  0  0
 34 33  2  0  0  0  0
 35 29  1  0  0  0  0
 36 30  1  0  0  0  0
M  END
>  <minimizedAffinity>
-5.60510635

>  <minimizedRMSD>
6.19750929

$$$$
