
     RDKit          3D

 46 49  0  0  0  0  0  0  0  0999 V2000
   47.3176   33.6244   42.8359 C   0  0  0  0  0  0  0  0  0  0  0  0
   48.4243   33.4044   43.4426 O   0  0  0  0  0  0  0  0  0  0  0  0
   47.0223   33.1148   41.5419 N   0  0  0  0  0  0  0  0  0  0  0  0
   45.7953   32.4915   41.0259 C   0  0  0  0  0  0  0  0  0  0  0  0
   45.3843   33.1797   39.7342 C   0  0  0  0  0  0  0  0  0  0  0  0
   46.4326   33.0210   38.6754 C   0  0  0  0  0  0  0  0  0  0  0  0
   47.7019   32.4778   39.3059 C   0  0  0  0  0  0  0  0  0  0  0  0
   48.0586   33.2030   40.5520 C   0  0  2  0  0  0  0  0  0  0  0  0
   45.9621   35.6586   42.9201 C   0  0  0  0  0  0  0  0  0  0  0  0
   46.3276   34.4331   43.5120 C   0  0  0  0  0  0  0  0  0  0  0  0
   45.7502   34.0284   44.7018 C   0  0  0  0  0  0  0  0  0  0  0  0
   44.8342   34.8501   45.2606 N   0  0  0  0  0  0  0  0  0  0  0  0
   44.4651   36.0396   44.7066 C   0  0  0  0  0  0  0  0  0  0  0  0
   45.0416   36.4216   43.5387 N   0  0  0  0  0  0  0  0  0  0  0  0
   46.1467   32.7709   45.2787 C   0  0  0  0  0  0  0  0  0  0  0  0
   45.7700   31.5985   44.7140 C   0  0  0  0  0  0  0  0  0  0  0  0
   46.1676   30.4106   45.2932 C   0  0  0  0  0  0  0  0  0  0  0  0
   46.9485   30.3601   46.4468 C   0  0  0  0  0  0  0  0  0  0  0  0
   47.3107   31.5976   46.9905 C   0  0  0  0  0  0  0  0  0  0  0  0
   46.9050   32.7202   46.3989 N   0  0  0  0  0  0  0  0  0  0  0  0
   49.4167   32.7933   41.0304 C   0  0  0  0  0  0  0  0  0  0  0  0
   45.9104   31.4104   40.9022 H   0  0  0  0  0  0  0  0  0  0  0  0
   44.9781   32.7286   41.7623 H   0  0  0  0  0  0  0  0  0  0  0  0
   45.1593   34.2348   39.9922 H   0  0  0  0  0  0  0  0  0  0  0  0
   44.4454   32.6630   39.4081 H   0  0  0  0  0  0  0  0  0  0  0  0
   46.1399   32.4029   37.8222 H   0  0  0  0  0  0  0  0  0  0  0  0
   46.6369   34.0509   38.2598 H   0  0  0  0  0  0  0  0  0  0  0  0
   48.5434   32.5126   38.5899 H   0  0  0  0  0  0  0  0  0  0  0  0
   47.5110   31.3883   39.4732 H   0  0  0  0  0  0  0  0  0  0  0  0
   48.1437   34.2841   40.2895 H   0  0  0  0  0  0  0  0  0  0  0  0
   46.4180   35.9655   41.9921 H   0  0  0  0  0  0  0  0  0  0  0  0
   43.7409   36.6822   45.1548 H   0  0  0  0  0  0  0  0  0  0  0  0
   45.1661   31.5116   43.8212 H   0  0  0  0  0  0  0  0  0  0  0  0
   45.9011   29.4314   44.8926 H   0  0  0  0  0  0  0  0  0  0  0  0
   47.2926   29.4902   46.9492 H   0  0  0  0  0  0  0  0  0  0  0  0
   47.9166   31.7452   47.8869 H   0  0  0  0  0  0  0  0  0  0  0  0
   49.9420   33.5017   41.6683 H   0  0  0  0  0  0  0  0  0  0  0  0
   50.0327   32.7922   40.0866 H   0  0  0  0  0  0  0  0  0  0  0  0
   49.4724   31.3852   41.5073 C   0  0  0  0  0  0  0  0  0  0  0  0
   48.3349   30.8296   42.0585 C   0  0  0  0  0  0  0  0  0  0  0  0
   47.3162   31.1875   42.2519 H   0  0  0  0  0  0  0  0  0  0  0  0
   48.6749   29.5216   42.4112 C   0  0  0  0  0  0  0  0  0  0  0  0
   48.0774   28.7386   42.8731 H   0  0  0  0  0  0  0  0  0  0  0  0
   49.9819   29.3304   42.0691 N   0  0  0  0  0  0  0  0  0  0  0  0
   50.5100   28.4376   42.2171 H   0  0  0  0  0  0  0  0  0  0  0  0
   50.4277   30.4648   41.5313 N   0  0  0  0  0  0  0  0  0  0  0  0
  1  2  2  0
  1 10  1  0
  3  1  1  0
  4  3  1  0
  5  4  1  0
  6  7  1  0
  6  5  1  0
  7  8  1  0
  8 21  1  0
  8  3  1  0
  9 10  2  0
  9 14  1  0
 10 11  1  0
 11 12  2  0
 11 15  1  0
 13 12  1  0
 14 13  2  0
 15 20  1  0
 16 15  2  0
 16 17  1  0
 17 18  2  0
 18 19  1  0
 20 19  2  0
  4 22  1  0
  4 23  1  0
  5 24  1  0
  5 25  1  0
  6 26  1  0
  6 27  1  0
  7 28  1  0
  7 29  1  0
  8 30  1  6
  9 31  1  0
 13 32  1  0
 16 33  1  0
 17 34  1  0
 18 35  1  0
 19 36  1  0
 21 37  1  0
 21 38  1  0
 39 40  1  0
 40 41  1  0
 40 42  2  0
 42 43  1  0
 42 44  1  0
 44 45  1  0
 44 46  1  0
 46 39  2  0
 21 39  1  0
M  ISO  8  22  13  23  13  24  13  25  13  26  13  27  13  28  13  29  13
M  ISO  8  30  13  31  14  32  14  33  14  34  14  35  14  36  14  37   8
M  ISO  4  38   8  41  15  43  16  45   5
M  END
>  <DihAtoms>  (1) 
7,20,38,39

>  <DihDeg>  (1) 
-179.99905533444854

$$$$
