
 OpenBabel03252506463D

 41 44  0  0  1  0  0  0  0  0999 V2000
   49.4770   33.5110   41.2430 N   0  0  1  0  0  0  0  0  0  0  0  0
   50.5820   32.9310   41.9620 C   0  0  0  0  0  0  0  0  0  0  0  0
   51.0520   31.6350   41.3630 C   0  0  0  0  0  0  0  0  0  0  0  0
   49.9720   30.5940   41.5840 C   0  0  0  0  0  0  0  0  0  0  0  0
   48.6060   31.2040   41.4120 C   0  0  0  0  0  0  0  0  0  0  0  0
   48.7310   32.4760   40.6130 C   0  0  2  0  0  0  0  0  0  0  0  0
   51.4090   33.6530   42.0220 H   0  0  0  0  0  0  0  0  0  0  0  0
   50.2700   32.7130   43.0230 H   0  0  0  0  0  0  0  0  0  0  0  0
   51.3910   31.7150   40.3340 H   0  0  0  0  0  0  0  0  0  0  0  0
   51.9160   31.3100   41.9740 H   0  0  0  0  0  0  0  0  0  0  0  0
   50.1630   29.7760   40.8550 H   0  0  0  0  0  0  0  0  0  0  0  0
   50.0830   30.1740   42.6060 H   0  0  0  0  0  0  0  0  0  0  0  0
   47.9010   30.5570   40.8850 H   0  0  0  0  0  0  0  0  0  0  0  0
   48.2470   31.4990   42.4260 H   0  0  0  0  0  0  0  0  0  0  0  0
   47.6840   32.8730   40.4960 H   0  0  0  0  0  0  0  0  0  0  0  0
   47.3330   34.7760   41.9250 C   0  0  1  0  0  0  0  0  0  0  0  0
   48.4760   35.7150   41.7890 C   0  0  0  0  0  0  0  0  0  0  0  0
   48.7190   34.2970   42.1600 C   0  0  2  0  0  0  0  0  0  0  0  0
   46.8170   34.5300   40.9610 H   0  0  0  0  0  0  0  0  0  0  0  0
   48.7780   36.0470   40.7580 H   0  0  0  0  0  0  0  0  0  0  0  0
   48.5900   36.5260   42.5340 H   0  0  0  0  0  0  0  0  0  0  0  0
   48.9720   34.1150   43.2350 H   0  0  0  0  0  0  0  0  0  0  0  0
   45.4950   35.9970   43.1310 C   0  0  0  0  0  0  0  0  0  0  0  0
   46.4090   34.9410   43.0520 C   0  0  0  0  0  0  0  0  0  0  0  0
   46.3980   34.0120   44.1090 C   0  0  0  0  0  0  0  0  0  0  0  0
   45.5220   34.1750   45.1340 N   0  0  0  0  0  0  0  0  0  0  0  0
   44.6540   35.2200   45.1630 C   0  0  0  0  0  0  0  0  0  0  0  0
   44.6330   36.1370   44.1620 N   0  0  0  0  0  0  0  0  0  0  0  0
   45.5290   36.7000   42.2950 H   0  0  0  0  0  0  0  0  0  0  0  0
   47.0900   33.1750   44.0980 H   0  0  0  0  0  0  0  0  0  0  0  0
   43.9830   35.3010   46.0060 H   0  0  0  0  0  0  0  0  0  0  0  0
   49.1570   32.1550   39.2620 N   0  0  0  0  0  0  0  0  0  0  0  0
   49.8360   31.4840   38.7800 H   0  0  0  0  0  0  0  0  0  0  0  0
   48.4180   33.0090   38.3590 C   0  0  0  0  0  0  0  0  0  0  0  0
   48.4850   34.2340   37.7300 C   0  0  0  0  0  0  0  0  0  0  0  0
   49.3620   34.7890   37.9560 H   0  0  0  0  0  0  0  0  0  0  0  0
   47.3860   34.3980   36.9770 N   0  0  0  0  0  0  0  0  0  0  0  0
   47.2610   35.2770   36.4220 H   0  0  0  0  0  0  0  0  0  0  0  0
   46.6000   33.3150   37.0930 C   0  0  0  0  0  0  0  0  0  0  0  0
   45.6650   33.2580   36.5590 H   0  0  0  0  0  0  0  0  0  0  0  0
   47.2380   32.4610   37.9450 N   0  0  0  0  0  0  0  0  0  0  0  0
  1  2  1  1  0  0  0
  1 18  1  0  0  0  0
  2  7  1  0  0  0  0
  2  8  1  0  0  0  0
  3  4  1  0  0  0  0
  3  2  1  0  0  0  0
  3 10  1  0  0  0  0
  4 12  1  0  0  0  0
  5  4  1  0  0  0  0
  5 14  1  0  0  0  0
  6 15  1  6  0  0  0
  6  1  1  0  0  0  0
  6  5  1  0  0  0  0
  9  3  1  0  0  0  0
 11  4  1  0  0  0  0
 13  5  1  0  0  0  0
 16 19  1  6  0  0  0
 16 18  1  0  0  0  0
 16 24  1  0  0  0  0
 17 16  1  0  0  0  0
 17 18  1  0  0  0  0
 17 21  1  0  0  0  0
 18 22  1  1  0  0  0
 20 17  1  0  0  0  0
 23 28  1  0  0  0  0
 24 23  2  0  0  0  0
 24 25  1  0  0  0  0
 25 26  2  0  0  0  0
 26 27  1  0  0  0  0
 27 31  1  0  0  0  0
 28 27  2  0  0  0  0
 29 23  1  0  0  0  0
 30 25  1  0  0  0  0
 32  6  1  0  0  0  0
 33 32  1  0  0  0  0
 34 32  1  0  0  0  0
 35 36  1  0  0  0  0
 35 34  2  0  0  0  0
 37 39  1  0  0  0  0
 37 35  1  0  0  0  0
 38 37  1  0  0  0  0
 39 41  2  0  0  0  0
 40 39  1  0  0  0  0
 41 34  1  0  0  0  0
M  END
>  <minimizedAffinity>
-5.53626156

>  <minimizedRMSD>
2.84494805

$$$$
