
 OpenBabel03242521103D

 18 19  0  0  0  0  0  0  0  0999 V2000
   44.5340   35.6360   45.0270 C   0  0  0  0  0  0  0  0  0  0  0  0
   44.9380   36.0090   43.7160 C   0  0  0  0  0  0  0  0  0  0  0  0
   45.9010   35.2070   43.0780 C   0  0  0  0  0  0  0  0  0  0  0  0
   46.3920   34.1220   43.7470 N   0  0  0  0  0  0  0  0  0  0  0  0
   45.9780   33.8070   44.9910 C   0  0  0  0  0  0  0  0  0  0  0  0
   45.0640   34.5540   45.6170 N   0  0  0  0  0  0  0  0  0  0  0  0
   43.7970   36.2410   45.5270 H   0  0  0  0  0  0  0  0  0  0  0  0
   44.5280   36.8800   43.2090 H   0  0  0  0  0  0  0  0  0  0  0  0
   46.2370   35.4590   42.0730 H   0  0  0  0  0  0  0  0  0  0  0  0
   46.7820   32.3490   45.6170 S   0  0  0  0  0  0  0  0  0  0  0  0
   46.3240   32.0030   47.3040 C   0  0  0  0  0  0  0  0  0  0  0  0
   47.3340   31.7130   48.1740 C   0  0  0  0  0  0  0  0  0  0  0  0
   48.4010   31.6290   48.1240 H   0  0  0  0  0  0  0  0  0  0  0  0
   46.7740   31.4830   49.3980 N   0  0  0  0  0  0  0  0  0  0  0  0
   47.2020   31.2300   50.3280 H   0  0  0  0  0  0  0  0  0  0  0  0
   45.4320   31.6330   49.2730 C   0  0  0  0  0  0  0  0  0  0  0  0
   44.6330   31.5450   49.9720 H   0  0  0  0  0  0  0  0  0  0  0  0
   45.1750   31.9480   47.9970 N   0  0  0  0  0  0  0  0  0  0  0  0
  1  7  1  0  0  0  0
  1  6  1  0  0  0  0
  2  1  2  0  0  0  0
  3  2  1  0  0  0  0
  3  4  2  0  0  0  0
  4  5  1  0  0  0  0
  5 10  1  0  0  0  0
  5  6  2  0  0  0  0
  8  2  1  0  0  0  0
  9  3  1  0  0  0  0
 10 11  1  0  0  0  0
 11 18  1  0  0  0  0
 11 12  2  0  0  0  0
 12 14  1  0  0  0  0
 13 12  1  0  0  0  0
 14 15  1  0  0  0  0
 16 14  1  0  0  0  0
 16 17  1  0  0  0  0
 18 16  2  0  0  0  0
M  END
>  <minimizedAffinity>
-4.35589027

>  <minimizedRMSD>
1.49862564

$$$$
