
 OpenBabel03242520033D

 24 26  0  0  0  0  0  0  0  0999 V2000
   37.7810   28.0840   41.5720 C   0  0  0  0  0  0  0  0  0  0  0  0
   38.5850   28.5040   42.6350 C   0  0  0  0  0  0  0  0  0  0  0  0
   38.7690   29.8460   42.5360 C   0  0  0  0  0  0  0  0  0  0  0  0
   38.0960   30.2420   41.4450 N   0  0  0  0  0  0  0  0  0  0  0  0
   37.5010   29.1800   40.8630 N   0  0  0  0  0  0  0  0  0  0  0  0
   38.9680   27.8120   43.3830 H   0  0  0  0  0  0  0  0  0  0  0  0
   39.3530   30.4540   43.2270 H   0  0  0  0  0  0  0  0  0  0  0  0
   37.0210   24.5310   42.1150 C   0  0  0  0  0  0  0  0  0  0  0  0
   36.5540   24.1320   40.8530 C   0  0  0  0  0  0  0  0  0  0  0  0
   36.5030   25.0870   39.8230 C   0  0  0  0  0  0  0  0  0  0  0  0
   36.9120   26.3570   40.1070 N   0  0  0  0  0  0  0  0  0  0  0  0
   37.3560   26.7140   41.3230 C   0  0  0  0  0  0  0  0  0  0  0  0
   37.4080   25.8040   42.3170 N   0  0  0  0  0  0  0  0  0  0  0  0
   37.1030   23.8820   42.9760 H   0  0  0  0  0  0  0  0  0  0  0  0
   36.2590   23.1130   40.7390 H   0  0  0  0  0  0  0  0  0  0  0  0
   36.1450   24.7820   38.8550 H   0  0  0  0  0  0  0  0  0  0  0  0
   38.0020   31.5710   40.9440 C   0  0  0  0  0  0  0  0  0  0  0  0
   36.9300   32.1180   40.2840 C   0  0  0  0  0  0  0  0  0  0  0  0
   35.9870   31.6490   40.0310 H   0  0  0  0  0  0  0  0  0  0  0  0
   37.2100   33.4050   39.9610 N   0  0  0  0  0  0  0  0  0  0  0  0
   36.6650   34.1380   39.4680 H   0  0  0  0  0  0  0  0  0  0  0  0
   38.4460   33.6620   40.4160 C   0  0  0  0  0  0  0  0  0  0  0  0
   39.0560   34.5480   40.3770 H   0  0  0  0  0  0  0  0  0  0  0  0
   38.9190   32.5390   41.0130 N   0  0  0  0  0  0  0  0  0  0  0  0
  1  2  1  0  0  0  0
  2  6  1  0  0  0  0
  3  2  2  0  0  0  0
  3  7  1  0  0  0  0
  4  3  1  0  0  0  0
  5  4  1  0  0  0  0
  5  1  2  0  0  0  0
  8 13  1  0  0  0  0
  8 14  1  0  0  0  0
  9  8  2  0  0  0  0
 10 11  2  0  0  0  0
 10  9  1  0  0  0  0
 11 12  1  0  0  0  0
 12  1  1  0  0  0  0
 12 13  2  0  0  0  0
 15  9  1  0  0  0  0
 16 10  1  0  0  0  0
 17 24  1  0  0  0  0
 17  4  1  0  0  0  0
 18 17  2  0  0  0  0
 19 18  1  0  0  0  0
 20 18  1  0  0  0  0
 20 22  1  0  0  0  0
 21 20  1  0  0  0  0
 22 24  2  0  0  0  0
 23 22  1  0  0  0  0
M  END
>  <minimizedAffinity>
-4.7338357

$$$$

 OpenBabel03242520033D

 24 26  0  0  0  0  0  0  0  0999 V2000
   38.0050   29.3690   41.9110 C   0  0  0  0  0  0  0  0  0  0  0  0
   38.0690   29.1670   43.2920 C   0  0  0  0  0  0  0  0  0  0  0  0
   38.0470   27.8310   43.5360 C   0  0  0  0  0  0  0  0  0  0  0  0
   37.9730   27.2280   42.3400 N   0  0  0  0  0  0  0  0  0  0  0  0
   37.9470   28.1540   41.3600 N   0  0  0  0  0  0  0  0  0  0  0  0
   38.1240   29.9930   43.9990 H   0  0  0  0  0  0  0  0  0  0  0  0
   38.0860   27.3710   44.5230 H   0  0  0  0  0  0  0  0  0  0  0  0
   36.9500   32.1950   39.8140 C   0  0  0  0  0  0  0  0  0  0  0  0
   38.0030   33.1060   39.9920 C   0  0  0  0  0  0  0  0  0  0  0  0
   39.0710   32.7420   40.8320 C   0  0  0  0  0  0  0  0  0  0  0  0
   39.0240   31.5180   41.4320 N   0  0  0  0  0  0  0  0  0  0  0  0
   38.0040   30.6640   41.2450 C   0  0  0  0  0  0  0  0  0  0  0  0
   36.9760   31.0050   40.4410 N   0  0  0  0  0  0  0  0  0  0  0  0
   36.0820   32.3710   39.1930 H   0  0  0  0  0  0  0  0  0  0  0  0
   37.9410   34.0370   39.4750 H   0  0  0  0  0  0  0  0  0  0  0  0
   39.8790   33.4390   40.9690 H   0  0  0  0  0  0  0  0  0  0  0  0
   37.9260   25.8250   42.1000 C   0  0  0  0  0  0  0  0  0  0  0  0
   38.8240   24.8920   42.5560 C   0  0  0  0  0  0  0  0  0  0  0  0
   39.7070   25.0490   43.1630 H   0  0  0  0  0  0  0  0  0  0  0  0
   38.4500   23.6610   42.1250 N   0  0  0  0  0  0  0  0  0  0  0  0
   38.8620   22.7180   42.2560 H   0  0  0  0  0  0  0  0  0  0  0  0
   37.3280   23.8230   41.4060 C   0  0  0  0  0  0  0  0  0  0  0  0
   36.7010   23.1200   40.8850 H   0  0  0  0  0  0  0  0  0  0  0  0
   37.0180   25.1440   41.3980 N   0  0  0  0  0  0  0  0  0  0  0  0
  1  2  1  0  0  0  0
  2  3  2  0  0  0  0
  2  6  1  0  0  0  0
  3  7  1  0  0  0  0
  4  3  1  0  0  0  0
  5  1  2  0  0  0  0
  5  4  1  0  0  0  0
  8  9  2  0  0  0  0
  8 13  1  0  0  0  0
  9 10  1  0  0  0  0
 10 16  1  0  0  0  0
 10 11  2  0  0  0  0
 12 11  1  0  0  0  0
 12  1  1  0  0  0  0
 13 12  2  0  0  0  0
 14  8  1  0  0  0  0
 15  9  1  0  0  0  0
 17  4  1  0  0  0  0
 17 18  2  0  0  0  0
 18 19  1  0  0  0  0
 20 21  1  0  0  0  0
 20 18  1  0  0  0  0
 22 20  1  0  0  0  0
 23 22  1  0  0  0  0
 24 22  2  0  0  0  0
 24 17  1  0  0  0  0
M  END
>  <minimizedAffinity>
-4.56301355

$$$$

 OpenBabel03242520033D

 24 26  0  0  0  0  0  0  0  0999 V2000
   36.7990   28.5050   40.8870 C   0  0  0  0  0  0  0  0  0  0  0  0
   35.6560   29.2950   40.7500 C   0  0  0  0  0  0  0  0  0  0  0  0
   36.0310   30.6000   40.7210 C   0  0  0  0  0  0  0  0  0  0  0  0
   37.3680   30.6130   40.8370 N   0  0  0  0  0  0  0  0  0  0  0  0
   37.8310   29.3500   40.9370 N   0  0  0  0  0  0  0  0  0  0  0  0
   34.6570   28.8670   40.6840 H   0  0  0  0  0  0  0  0  0  0  0  0
   35.3540   31.4490   40.6210 H   0  0  0  0  0  0  0  0  0  0  0  0
   37.1210   25.0970   42.2200 C   0  0  0  0  0  0  0  0  0  0  0  0
   36.8520   24.3100   41.0890 C   0  0  0  0  0  0  0  0  0  0  0  0
   36.5620   24.9560   39.8750 C   0  0  0  0  0  0  0  0  0  0  0  0
   36.5570   26.3200   39.8610 N   0  0  0  0  0  0  0  0  0  0  0  0
   36.8180   27.0510   40.9580 C   0  0  0  0  0  0  0  0  0  0  0  0
   37.0970   26.4380   42.1260 N   0  0  0  0  0  0  0  0  0  0  0  0
   37.3550   24.7060   43.2010 H   0  0  0  0  0  0  0  0  0  0  0  0
   36.8820   23.2500   41.2090 H   0  0  0  0  0  0  0  0  0  0  0  0
   36.3550   24.3530   39.0070 H   0  0  0  0  0  0  0  0  0  0  0  0
   38.2060   31.7640   40.8550 C   0  0  0  0  0  0  0  0  0  0  0  0
   39.4630   31.8470   41.4000 C   0  0  0  0  0  0  0  0  0  0  0  0
   40.0300   31.0720   41.9010 H   0  0  0  0  0  0  0  0  0  0  0  0
   39.9460   33.1020   41.2260 N   0  0  0  0  0  0  0  0  0  0  0  0
   40.8430   33.5510   41.4930 H   0  0  0  0  0  0  0  0  0  0  0  0
   39.0000   33.7990   40.5780 C   0  0  0  0  0  0  0  0  0  0  0  0
   38.9640   34.8210   40.2410 H   0  0  0  0  0  0  0  0  0  0  0  0
   37.9440   32.9740   40.3570 N   0  0  0  0  0  0  0  0  0  0  0  0
  1  5  2  0  0  0  0
  1 12  1  0  0  0  0
  2  1  1  0  0  0  0
  3  2  2  0  0  0  0
  3  4  1  0  0  0  0
  4 17  1  0  0  0  0
  4  5  1  0  0  0  0
  6  2  1  0  0  0  0
  7  3  1  0  0  0  0
  8 14  1  0  0  0  0
  9 15  1  0  0  0  0
  9  8  2  0  0  0  0
 10  9  1  0  0  0  0
 11 10  2  0  0  0  0
 11 12  1  0  0  0  0
 12 13  2  0  0  0  0
 13  8  1  0  0  0  0
 16 10  1  0  0  0  0
 17 18  2  0  0  0  0
 18 19  1  0  0  0  0
 20 18  1  0  0  0  0
 20 21  1  0  0  0  0
 22 20  1  0  0  0  0
 23 22  1  0  0  0  0
 24 22  2  0  0  0  0
 24 17  1  0  0  0  0
M  END
>  <minimizedAffinity>
-4.55935192

$$$$

 OpenBabel03242520033D

 24 26  0  0  0  0  0  0  0  0999 V2000
   39.0660   29.6060   41.4460 C   0  0  0  0  0  0  0  0  0  0  0  0
   39.7030   30.5640   42.2390 C   0  0  0  0  0  0  0  0  0  0  0  0
   40.2650   31.4960   41.4270 C   0  0  0  0  0  0  0  0  0  0  0  0
   39.9810   31.1230   40.1690 N   0  0  0  0  0  0  0  0  0  0  0  0
   39.2590   29.9840   40.1800 N   0  0  0  0  0  0  0  0  0  0  0  0
   39.7090   30.5080   43.3260 H   0  0  0  0  0  0  0  0  0  0  0  0
   40.8280   32.3660   41.7620 H   0  0  0  0  0  0  0  0  0  0  0  0
   38.1950   26.1120   42.1750 C   0  0  0  0  0  0  0  0  0  0  0  0
   36.9870   26.2480   42.8770 C   0  0  0  0  0  0  0  0  0  0  0  0
   36.4790   27.5410   43.0950 C   0  0  0  0  0  0  0  0  0  0  0  0
   37.1920   28.5990   42.6110 N   0  0  0  0  0  0  0  0  0  0  0  0
   38.3460   28.4420   41.9410 C   0  0  0  0  0  0  0  0  0  0  0  0
   38.8400   27.2050   41.7270 N   0  0  0  0  0  0  0  0  0  0  0  0
   38.6750   25.1690   41.9510 H   0  0  0  0  0  0  0  0  0  0  0  0
   36.5110   25.3550   43.2120 H   0  0  0  0  0  0  0  0  0  0  0  0
   35.5530   27.6460   43.6330 H   0  0  0  0  0  0  0  0  0  0  0  0
   40.3670   31.8010   38.9780 C   0  0  0  0  0  0  0  0  0  0  0  0
   39.6770   31.8160   37.7910 C   0  0  0  0  0  0  0  0  0  0  0  0
   38.7400   31.3280   37.5520 H   0  0  0  0  0  0  0  0  0  0  0  0
   40.3550   32.5670   36.8870 N   0  0  0  0  0  0  0  0  0  0  0  0
   40.1630   32.8140   35.8970 H   0  0  0  0  0  0  0  0  0  0  0  0
   41.4590   33.0170   37.5030 C   0  0  0  0  0  0  0  0  0  0  0  0
   42.2690   33.6390   37.1620 H   0  0  0  0  0  0  0  0  0  0  0  0
   41.4560   32.5450   38.7750 N   0  0  0  0  0  0  0  0  0  0  0  0
  1 12  1  0  0  0  0
  1  2  1  0  0  0  0
  2  6  1  0  0  0  0
  3  7  1  0  0  0  0
  3  2  2  0  0  0  0
  4  5  1  0  0  0  0
  4  3  1  0  0  0  0
  5  1  2  0  0  0  0
  8  9  1  0  0  0  0
  9 10  2  0  0  0  0
  9 15  1  0  0  0  0
 10 16  1  0  0  0  0
 11 10  1  0  0  0  0
 12 11  2  0  0  0  0
 13 12  1  0  0  0  0
 13  8  2  0  0  0  0
 14  8  1  0  0  0  0
 17  4  1  0  0  0  0
 18 17  2  0  0  0  0
 19 18  1  0  0  0  0
 20 22  1  0  0  0  0
 20 18  1  0  0  0  0
 21 20  1  0  0  0  0
 22 24  2  0  0  0  0
 23 22  1  0  0  0  0
 24 17  1  0  0  0  0
M  END
>  <minimizedAffinity>
-4.296947

$$$$

 OpenBabel03242520033D

 24 26  0  0  0  0  0  0  0  0999 V2000
   37.4720   30.6270   40.6980 C   0  0  0  0  0  0  0  0  0  0  0  0
   36.0770   30.5560   40.6430 C   0  0  0  0  0  0  0  0  0  0  0  0
   35.7020   29.2620   40.8170 C   0  0  0  0  0  0  0  0  0  0  0  0
   36.8330   28.5570   40.9740 N   0  0  0  0  0  0  0  0  0  0  0  0
   37.9000   29.3790   40.9030 N   0  0  0  0  0  0  0  0  0  0  0  0
   35.4550   31.4350   40.4840 H   0  0  0  0  0  0  0  0  0  0  0  0
   34.6740   28.8990   40.8230 H   0  0  0  0  0  0  0  0  0  0  0  0
   40.3460   32.9150   40.6490 C   0  0  0  0  0  0  0  0  0  0  0  0
   39.7490   34.1320   40.2860 C   0  0  0  0  0  0  0  0  0  0  0  0
   38.3620   34.1600   40.0600 C   0  0  0  0  0  0  0  0  0  0  0  0
   37.6670   32.9950   40.2060 N   0  0  0  0  0  0  0  0  0  0  0  0
   38.2620   31.8420   40.5550 C   0  0  0  0  0  0  0  0  0  0  0  0
   39.5920   31.8080   40.7740 N   0  0  0  0  0  0  0  0  0  0  0  0
   41.4010   32.7800   40.8460 H   0  0  0  0  0  0  0  0  0  0  0  0
   40.3850   34.9840   40.1990 H   0  0  0  0  0  0  0  0  0  0  0  0
   37.9030   35.0920   39.7810 H   0  0  0  0  0  0  0  0  0  0  0  0
   36.9330   27.1530   41.1870 C   0  0  0  0  0  0  0  0  0  0  0  0
   36.8810   26.1780   40.2210 C   0  0  0  0  0  0  0  0  0  0  0  0
   36.7580   26.2980   39.1520 H   0  0  0  0  0  0  0  0  0  0  0  0
   37.0110   24.9610   40.8050 N   0  0  0  0  0  0  0  0  0  0  0  0
   37.0210   23.9960   40.4200 H   0  0  0  0  0  0  0  0  0  0  0  0
   37.1420   25.1710   42.1240 C   0  0  0  0  0  0  0  0  0  0  0  0
   37.2680   24.4940   42.9510 H   0  0  0  0  0  0  0  0  0  0  0  0
   37.0940   26.5090   42.3450 N   0  0  0  0  0  0  0  0  0  0  0  0
  1  5  2  0  0  0  0
  2  1  1  0  0  0  0
  2  3  2  0  0  0  0
  3  7  1  0  0  0  0
  3  4  1  0  0  0  0
  4 17  1  0  0  0  0
  5  4  1  0  0  0  0
  6  2  1  0  0  0  0
  8 13  1  0  0  0  0
  8 14  1  0  0  0  0
  9  8  2  0  0  0  0
 10 11  2  0  0  0  0
 10  9  1  0  0  0  0
 11 12  1  0  0  0  0
 12  1  1  0  0  0  0
 12 13  2  0  0  0  0
 15  9  1  0  0  0  0
 16 10  1  0  0  0  0
 17 24  1  0  0  0  0
 18 20  1  0  0  0  0
 18 17  2  0  0  0  0
 19 18  1  0  0  0  0
 20 22  1  0  0  0  0
 21 20  1  0  0  0  0
 22 24  2  0  0  0  0
 22 23  1  0  0  0  0
M  END
>  <minimizedAffinity>
-4.27853298

$$$$

 OpenBabel03242520033D

 24 26  0  0  0  0  0  0  0  0999 V2000
   38.3610   29.5350   40.2170 C   0  0  0  0  0  0  0  0  0  0  0  0
   37.9770   29.3060   38.8930 C   0  0  0  0  0  0  0  0  0  0  0  0
   38.6100   30.2050   38.0960 C   0  0  0  0  0  0  0  0  0  0  0  0
   39.3630   30.9660   38.9060 N   0  0  0  0  0  0  0  0  0  0  0  0
   39.2130   30.5630   40.1840 N   0  0  0  0  0  0  0  0  0  0  0  0
   37.2790   28.5170   38.6180 H   0  0  0  0  0  0  0  0  0  0  0  0
   38.5080   30.2700   37.0130 H   0  0  0  0  0  0  0  0  0  0  0  0
   37.4820   28.6780   43.6790 C   0  0  0  0  0  0  0  0  0  0  0  0
   37.0290   27.3550   43.5510 C   0  0  0  0  0  0  0  0  0  0  0  0
   37.0290   26.7660   42.2750 C   0  0  0  0  0  0  0  0  0  0  0  0
   37.4710   27.5160   41.2240 N   0  0  0  0  0  0  0  0  0  0  0  0
   37.9000   28.7800   41.3730 C   0  0  0  0  0  0  0  0  0  0  0  0
   37.9030   29.3520   42.5940 N   0  0  0  0  0  0  0  0  0  0  0  0
   37.5260   29.2270   44.6100 H   0  0  0  0  0  0  0  0  0  0  0  0
   36.7060   26.8590   44.4380 H   0  0  0  0  0  0  0  0  0  0  0  0
   36.6820   25.7530   42.1760 H   0  0  0  0  0  0  0  0  0  0  0  0
   40.2050   32.0450   38.5130 C   0  0  0  0  0  0  0  0  0  0  0  0
   40.6960   32.2760   37.2520 C   0  0  0  0  0  0  0  0  0  0  0  0
   40.5350   31.6960   36.3520 H   0  0  0  0  0  0  0  0  0  0  0  0
   41.4600   33.3970   37.2660 N   0  0  0  0  0  0  0  0  0  0  0  0
   41.9940   33.8900   36.5250 H   0  0  0  0  0  0  0  0  0  0  0  0
   41.4490   33.8620   38.5250 C   0  0  0  0  0  0  0  0  0  0  0  0
   41.9170   34.7180   38.9790 H   0  0  0  0  0  0  0  0  0  0  0  0
   40.6810   33.0310   39.2760 N   0  0  0  0  0  0  0  0  0  0  0  0
  1 12  1  0  0  0  0
  2  1  1  0  0  0  0
  3  2  2  0  0  0  0
  3  4  1  0  0  0  0
  4  5  1  0  0  0  0
  5  1  2  0  0  0  0
  6  2  1  0  0  0  0
  7  3  1  0  0  0  0
  8 14  1  0  0  0  0
  9  8  1  0  0  0  0
  9 15  1  0  0  0  0
 10  9  2  0  0  0  0
 11 12  2  0  0  0  0
 11 10  1  0  0  0  0
 12 13  1  0  0  0  0
 13  8  2  0  0  0  0
 16 10  1  0  0  0  0
 17  4  1  0  0  0  0
 17 24  1  0  0  0  0
 18 20  1  0  0  0  0
 18 17  2  0  0  0  0
 19 18  1  0  0  0  0
 20 22  1  0  0  0  0
 21 20  1  0  0  0  0
 22 23  1  0  0  0  0
 22 24  2  0  0  0  0
M  END
>  <minimizedAffinity>
-4.24623728

$$$$

 OpenBabel03242520033D

 24 26  0  0  0  0  0  0  0  0999 V2000
   37.8110   31.6700   39.2320 C   0  0  0  0  0  0  0  0  0  0  0  0
   37.8640   32.7960   40.0580 C   0  0  0  0  0  0  0  0  0  0  0  0
   39.0300   33.4510   39.8230 C   0  0  0  0  0  0  0  0  0  0  0  0
   39.6770   32.7490   38.8800 N   0  0  0  0  0  0  0  0  0  0  0  0
   38.9420   31.6750   38.5230 N   0  0  0  0  0  0  0  0  0  0  0  0
   37.0640   33.0450   40.7530 H   0  0  0  0  0  0  0  0  0  0  0  0
   39.3490   34.3670   40.3200 H   0  0  0  0  0  0  0  0  0  0  0  0
   35.0950   29.4440   40.3110 C   0  0  0  0  0  0  0  0  0  0  0  0
   34.6630   28.8920   39.0950 C   0  0  0  0  0  0  0  0  0  0  0  0
   35.3090   29.2880   37.9110 C   0  0  0  0  0  0  0  0  0  0  0  0
   36.3250   30.1930   38.0080 N   0  0  0  0  0  0  0  0  0  0  0  0
   36.7200   30.7070   39.1850 C   0  0  0  0  0  0  0  0  0  0  0  0
   36.1060   30.3310   40.3260 N   0  0  0  0  0  0  0  0  0  0  0  0
   34.6710   29.2100   41.2790 H   0  0  0  0  0  0  0  0  0  0  0  0
   33.8600   28.1920   39.1310 H   0  0  0  0  0  0  0  0  0  0  0  0
   34.9790   28.8660   36.9780 H   0  0  0  0  0  0  0  0  0  0  0  0
   40.9470   33.0590   38.3150 C   0  0  0  0  0  0  0  0  0  0  0  0
   41.5350   32.4330   37.2440 C   0  0  0  0  0  0  0  0  0  0  0  0
   41.1500   31.6140   36.6490 H   0  0  0  0  0  0  0  0  0  0  0  0
   42.7410   33.0030   36.9990 N   0  0  0  0  0  0  0  0  0  0  0  0
   43.4740   32.8140   36.2870 H   0  0  0  0  0  0  0  0  0  0  0  0
   42.9070   33.9750   37.9080 C   0  0  0  0  0  0  0  0  0  0  0  0
   43.7110   34.6700   38.0790 H   0  0  0  0  0  0  0  0  0  0  0  0
   41.8080   34.0010   38.7050 N   0  0  0  0  0  0  0  0  0  0  0  0
  1  2  1  0  0  0  0
  2  6  1  0  0  0  0
  3  2  2  0  0  0  0
  3  7  1  0  0  0  0
  4  3  1  0  0  0  0
  5  4  1  0  0  0  0
  5  1  2  0  0  0  0
  8 13  1  0  0  0  0
  8 14  1  0  0  0  0
  9 15  1  0  0  0  0
  9  8  2  0  0  0  0
 10 11  2  0  0  0  0
 10  9  1  0  0  0  0
 11 12  1  0  0  0  0
 12  1  1  0  0  0  0
 12 13  2  0  0  0  0
 16 10  1  0  0  0  0
 17 24  1  0  0  0  0
 17  4  1  0  0  0  0
 18 17  2  0  0  0  0
 19 18  1  0  0  0  0
 20 18  1  0  0  0  0
 20 22  1  0  0  0  0
 21 20  1  0  0  0  0
 22 23  1  0  0  0  0
 22 24  2  0  0  0  0
M  END
>  <minimizedAffinity>
-4.22855139

$$$$

 OpenBabel03242520033D

 24 26  0  0  0  0  0  0  0  0999 V2000
   37.5770   27.9920   40.2020 C   0  0  0  0  0  0  0  0  0  0  0  0
   36.4170   28.7630   40.0890 C   0  0  0  0  0  0  0  0  0  0  0  0
   36.7060   29.8800   39.3720 C   0  0  0  0  0  0  0  0  0  0  0  0
   38.0070   29.7990   39.0520 N   0  0  0  0  0  0  0  0  0  0  0  0
   38.5320   28.6610   39.5520 N   0  0  0  0  0  0  0  0  0  0  0  0
   35.4700   28.4570   40.5310 H   0  0  0  0  0  0  0  0  0  0  0  0
   35.9970   30.6690   39.1210 H   0  0  0  0  0  0  0  0  0  0  0  0
   38.7550   25.3710   42.4900 C   0  0  0  0  0  0  0  0  0  0  0  0
   37.8720   24.3160   42.2110 C   0  0  0  0  0  0  0  0  0  0  0  0
   36.8770   24.5120   41.2380 C   0  0  0  0  0  0  0  0  0  0  0  0
   36.8220   25.7240   40.6140 N   0  0  0  0  0  0  0  0  0  0  0  0
   37.6800   26.7180   40.8990 C   0  0  0  0  0  0  0  0  0  0  0  0
   38.6380   26.5380   41.8310 N   0  0  0  0  0  0  0  0  0  0  0  0
   39.5560   25.3290   43.2160 H   0  0  0  0  0  0  0  0  0  0  0  0
   38.0040   23.4090   42.7570 H   0  0  0  0  0  0  0  0  0  0  0  0
   36.2000   23.7040   41.0240 H   0  0  0  0  0  0  0  0  0  0  0  0
   38.7550   30.7490   38.3000 C   0  0  0  0  0  0  0  0  0  0  0  0
   38.2680   31.5720   37.3150 C   0  0  0  0  0  0  0  0  0  0  0  0
   37.2540   31.6460   36.9420 H   0  0  0  0  0  0  0  0  0  0  0  0
   39.2770   32.3360   36.8300 N   0  0  0  0  0  0  0  0  0  0  0  0
   39.3110   33.0660   36.0920 H   0  0  0  0  0  0  0  0  0  0  0  0
   40.3860   31.9950   37.5040 C   0  0  0  0  0  0  0  0  0  0  0  0
   41.4020   32.3460   37.4420 H   0  0  0  0  0  0  0  0  0  0  0  0
   40.0560   31.0280   38.3970 N   0  0  0  0  0  0  0  0  0  0  0  0
  1 12  1  0  0  0  0
  2  1  1  0  0  0  0
  2  6  1  0  0  0  0
  3  2  2  0  0  0  0
  4  3  1  0  0  0  0
  4  5  1  0  0  0  0
  5  1  2  0  0  0  0
  7  3  1  0  0  0  0
  8 14  1  0  0  0  0
  9  8  1  0  0  0  0
  9 15  1  0  0  0  0
 10  9  2  0  0  0  0
 11 12  2  0  0  0  0
 11 10  1  0  0  0  0
 12 13  1  0  0  0  0
 13  8  2  0  0  0  0
 16 10  1  0  0  0  0
 17 24  1  0  0  0  0
 17  4  1  0  0  0  0
 18 17  2  0  0  0  0
 19 18  1  0  0  0  0
 20 18  1  0  0  0  0
 20 22  1  0  0  0  0
 21 20  1  0  0  0  0
 22 24  2  0  0  0  0
 23 22  1  0  0  0  0
M  END
>  <minimizedAffinity>
-4.10539818

$$$$

 OpenBabel03242520033D

 24 26  0  0  0  0  0  0  0  0999 V2000
   38.2760   29.2540   41.6540 C   0  0  0  0  0  0  0  0  0  0  0  0
   37.5430   28.8140   42.7590 C   0  0  0  0  0  0  0  0  0  0  0  0
   38.2320   27.8150   43.3680 C   0  0  0  0  0  0  0  0  0  0  0  0
   39.3590   27.6450   42.6590 N   0  0  0  0  0  0  0  0  0  0  0  0
   39.3860   28.5120   41.6260 N   0  0  0  0  0  0  0  0  0  0  0  0
   36.5800   29.2470   43.0280 H   0  0  0  0  0  0  0  0  0  0  0  0
   37.9070   27.2770   44.2590 H   0  0  0  0  0  0  0  0  0  0  0  0
   36.8640   30.9660   38.7270 C   0  0  0  0  0  0  0  0  0  0  0  0
   37.1180   32.3140   39.0210 C   0  0  0  0  0  0  0  0  0  0  0  0
   37.7750   32.6280   40.2240 C   0  0  0  0  0  0  0  0  0  0  0  0
   38.1300   31.5980   41.0450 N   0  0  0  0  0  0  0  0  0  0  0  0
   37.8750   30.3150   40.7410 C   0  0  0  0  0  0  0  0  0  0  0  0
   37.2460   30.0060   39.5880 N   0  0  0  0  0  0  0  0  0  0  0  0
   36.3680   30.6130   37.8320 H   0  0  0  0  0  0  0  0  0  0  0  0
   36.7990   33.0410   38.3080 H   0  0  0  0  0  0  0  0  0  0  0  0
   37.9700   33.6610   40.4500 H   0  0  0  0  0  0  0  0  0  0  0  0
   40.3920   26.7030   42.9250 C   0  0  0  0  0  0  0  0  0  0  0  0
   40.3350   25.3490   42.7050 C   0  0  0  0  0  0  0  0  0  0  0  0
   39.5160   24.7680   42.2990 H   0  0  0  0  0  0  0  0  0  0  0  0
   41.5090   24.7830   43.0810 N   0  0  0  0  0  0  0  0  0  0  0  0
   41.8490   23.8020   43.0710 H   0  0  0  0  0  0  0  0  0  0  0  0
   42.2940   25.7740   43.5330 C   0  0  0  0  0  0  0  0  0  0  0  0
   43.2960   25.7750   43.9260 H   0  0  0  0  0  0  0  0  0  0  0  0
   41.6040   26.9380   43.4340 N   0  0  0  0  0  0  0  0  0  0  0  0
  1  2  1  0  0  0  0
  2  6  1  0  0  0  0
  2  3  2  0  0  0  0
  3  7  1  0  0  0  0
  4 17  1  0  0  0  0
  4  3  1  0  0  0  0
  5  1  2  0  0  0  0
  5  4  1  0  0  0  0
  8  9  2  0  0  0  0
  8 13  1  0  0  0  0
  9 10  1  0  0  0  0
 10 16  1  0  0  0  0
 10 11  2  0  0  0  0
 12 11  1  0  0  0  0
 12  1  1  0  0  0  0
 13 12  2  0  0  0  0
 14  8  1  0  0  0  0
 15  9  1  0  0  0  0
 17 24  1  0  0  0  0
 18 17  2  0  0  0  0
 18 20  1  0  0  0  0
 19 18  1  0  0  0  0
 20 22  1  0  0  0  0
 21 20  1  0  0  0  0
 22 23  1  0  0  0  0
 24 22  2  0  0  0  0
M  END
>  <minimizedAffinity>
-4.09515619

$$$$
