
 OpenBabel03252501353D

 24 25  0  0  0  0  0  0  0  0999 V2000
   44.2730   35.1090   42.5250 C   0  0  0  0  0  0  0  0  0  0  0  0
   44.2080   33.8370   42.6140 O   0  0  0  0  0  0  0  0  0  0  0  0
   45.1430   35.6920   43.4960 N   0  0  0  0  0  0  0  0  0  0  0  0
   45.2990   36.7060   43.5250 H   0  0  0  0  0  0  0  0  0  0  0  0
   45.6850   34.6270   44.3300 C   0  0  0  0  0  0  0  0  0  0  0  0
   45.2880   34.3630   45.6160 C   0  0  0  0  0  0  0  0  0  0  0  0
   45.9270   33.2970   46.2430 C   0  0  0  0  0  0  0  0  0  0  0  0
   46.8600   32.6290   45.5540 N   0  0  0  0  0  0  0  0  0  0  0  0
   47.2240   32.9170   44.2940 C   0  0  0  0  0  0  0  0  0  0  0  0
   46.6230   33.9470   43.6530 N   0  0  0  0  0  0  0  0  0  0  0  0
   45.6170   33.0870   47.2550 H   0  0  0  0  0  0  0  0  0  0  0  0
   47.9910   32.3100   43.8280 H   0  0  0  0  0  0  0  0  0  0  0  0
   44.2850   35.1820   46.1700 N   0  0  0  0  0  0  0  0  0  0  0  0
   43.3110   34.9490   45.8330 H   0  0  0  0  0  0  0  0  0  0  0  0
   44.8680   35.8110   46.7870 H   0  0  0  0  0  0  0  0  0  0  0  0
   43.5870   35.9100   41.5900 O   0  0  0  0  0  0  0  0  0  0  0  0
   42.4710   35.3670   40.9590 C   0  0  0  0  0  0  0  0  0  0  0  0
   42.1050   34.7370   39.7920 C   0  0  0  0  0  0  0  0  0  0  0  0
   42.9190   34.5900   39.0930 H   0  0  0  0  0  0  0  0  0  0  0  0
   40.7840   34.4860   39.8810 N   0  0  0  0  0  0  0  0  0  0  0  0
   40.3320   33.9980   39.0540 H   0  0  0  0  0  0  0  0  0  0  0  0
   40.3080   34.9310   41.0550 C   0  0  0  0  0  0  0  0  0  0  0  0
   39.2670   34.8300   41.3330 H   0  0  0  0  0  0  0  0  0  0  0  0
   41.3440   35.4740   41.7210 N   0  0  0  0  0  0  0  0  0  0  0  0
  1  2  2  0  0  0  0
  1  3  1  0  0  0  0
  3  4  1  0  0  0  0
  3  5  1  0  0  0  0
  5  6  1  0  0  0  0
  6 13  1  0  0  0  0
  6  7  2  0  0  0  0
  7 11  1  0  0  0  0
  8  7  1  0  0  0  0
  9  8  2  0  0  0  0
 10  9  1  0  0  0  0
 10  5  2  0  0  0  0
 12  9  1  0  0  0  0
 13 15  1  0  0  0  0
 14 13  1  0  0  0  0
 16  1  1  0  0  0  0
 17 16  1  0  0  0  0
 17 24  1  0  0  0  0
 18 20  1  0  0  0  0
 18 17  2  0  0  0  0
 19 18  1  0  0  0  0
 20 22  1  0  0  0  0
 21 20  1  0  0  0  0
 22 23  1  0  0  0  0
 22 24  2  0  0  0  0
M  END
>  <minimizedAffinity>
-4.87841749

>  <minimizedRMSD>
0.392573416

$$$$
