
 OpenBabel03252501593D

 35 37  0  0  0  0  0  0  0  0999 V2000
   44.4150   35.9020   45.2410 C   0  0  0  0  0  0  0  0  0  0  0  0
   45.1720   35.9250   44.0640 C   0  0  0  0  0  0  0  0  0  0  0  0
   46.0780   34.9330   43.8310 C   0  0  0  0  0  0  0  0  0  0  0  0
   46.2170   33.9380   44.7660 N   0  0  0  0  0  0  0  0  0  0  0  0
   45.4760   33.9260   45.9050 C   0  0  0  0  0  0  0  0  0  0  0  0
   44.5780   34.9010   46.1460 N   0  0  0  0  0  0  0  0  0  0  0  0
   43.6480   36.4900   45.6480 H   0  0  0  0  0  0  0  0  0  0  0  0
   45.7480   33.0570   46.4930 H   0  0  0  0  0  0  0  0  0  0  0  0
   46.8350   34.9510   42.6170 C   0  0  0  0  0  0  0  0  0  0  0  0
   48.0200   35.5720   42.3560 C   0  0  0  0  0  0  0  0  0  0  0  0
   48.5970   35.4660   41.1030 C   0  0  0  0  0  0  0  0  0  0  0  0
   47.9900   34.7390   40.1090 C   0  0  0  0  0  0  0  0  0  0  0  0
   46.8050   34.1070   40.3410 C   0  0  0  0  0  0  0  0  0  0  0  0
   46.2470   34.2270   41.5980 C   0  0  0  0  0  0  0  0  0  0  0  0
   48.4400   36.1280   43.1880 H   0  0  0  0  0  0  0  0  0  0  0  0
   49.5380   35.9910   40.9820 H   0  0  0  0  0  0  0  0  0  0  0  0
   48.5490   34.7420   39.1860 H   0  0  0  0  0  0  0  0  0  0  0  0
   46.3560   33.5440   39.5360 H   0  0  0  0  0  0  0  0  0  0  0  0
   45.2940   33.6840   41.6870 H   0  0  0  0  0  0  0  0  0  0  0  0
   44.8860   37.0350   43.1310 C   0  0  0  0  0  0  0  0  0  0  0  0
   43.8740   37.0040   42.6880 H   0  0  0  0  0  0  0  0  0  0  0  0
   45.6080   36.9030   42.2900 H   0  0  0  0  0  0  0  0  0  0  0  0
   45.1470   38.2610   43.8530 N   0  0  0  0  0  0  0  0  0  0  0  0
   45.1020   38.8870   45.1250 C   0  0  0  0  0  0  0  0  0  0  0  0
   45.8070   40.0160   45.5740 C   0  0  0  0  0  0  0  0  0  0  0  0
   46.5260   40.5770   44.9960 H   0  0  0  0  0  0  0  0  0  0  0  0
   45.3640   40.1790   46.8330 N   0  0  0  0  0  0  0  0  0  0  0  0
   45.7280   40.9730   47.4370 H   0  0  0  0  0  0  0  0  0  0  0  0
   44.4540   39.2580   47.1950 C   0  0  0  0  0  0  0  0  0  0  0  0
   43.9890   39.2430   48.1820 H   0  0  0  0  0  0  0  0  0  0  0  0
   44.2830   38.4470   46.1370 N   0  0  0  0  0  0  0  0  0  0  0  0
   45.6490   39.3060   42.9560 C   0  0  0  0  0  0  0  0  0  0  0  0
   46.9820   39.2820   42.7900 F   0  0  0  0  0  0  0  0  0  0  0  0
   45.3270   40.5710   43.4440 F   0  0  0  0  0  0  0  0  0  0  0  0
   45.0230   39.1670   41.7470 F   0  0  0  0  0  0  0  0  0  0  0  0
  1  7  1  0  0  0  0
  1  6  1  0  0  0  0
  2  1  2  0  0  0  0
  3  2  1  0  0  0  0
  3  4  2  0  0  0  0
  4  5  1  0  0  0  0
  5  6  2  0  0  0  0
  5  8  1  0  0  0  0
  9  3  1  0  0  0  0
 10  9  1  0  0  0  0
 10 15  1  0  0  0  0
 11 10  2  0  0  0  0
 12 13  2  0  0  0  0
 12 11  1  0  0  0  0
 13 14  1  0  0  0  0
 14 19  1  0  0  0  0
 14  9  2  0  0  0  0
 16 11  1  0  0  0  0
 17 12  1  0  0  0  0
 18 13  1  0  0  0  0
 20 23  1  0  0  0  0
 20  2  1  0  0  0  0
 21 20  1  0  0  0  0
 22 20  1  0  0  0  0
 23 24  1  0  0  0  0
 24 25  2  0  0  0  0
 24 31  1  0  0  0  0
 25 27  1  0  0  0  0
 26 25  1  0  0  0  0
 27 29  1  0  0  0  0
 27 28  1  0  0  0  0
 29 30  1  0  0  0  0
 31 29  2  0  0  0  0
 32 34  1  0  0  0  0
 32 23  1  0  0  0  0
 33 32  1  0  0  0  0
 35 32  1  0  0  0  0
M  END
>  <minimizedAffinity>
0.649955571

>  <minimizedRMSD>
0.855557263

$$$$
