
 OpenBabel03252505103D

 43 46  0  0  1  0  0  0  0  0999 V2000
   44.5680   35.5720   44.6070 C   0  0  0  0  0  0  0  0  0  0  0  0
   45.2440   35.6000   43.3680 C   0  0  0  0  0  0  0  0  0  0  0  0
   46.3470   34.7100   43.1880 C   0  0  0  0  0  0  0  0  0  0  0  0
   46.6820   33.8880   44.2150 N   0  0  0  0  0  0  0  0  0  0  0  0
   46.0200   33.8870   45.3750 C   0  0  0  0  0  0  0  0  0  0  0  0
   44.9560   34.7300   45.5800 N   0  0  0  0  0  0  0  0  0  0  0  0
   43.7290   36.2310   44.7810 H   0  0  0  0  0  0  0  0  0  0  0  0
   44.9330   36.2800   42.5800 H   0  0  0  0  0  0  0  0  0  0  0  0
   46.4380   32.9640   46.4720 C   0  0  2  0  0  0  0  0  0  0  0  0
   46.9540   31.7340   45.7540 C   0  0  0  0  0  0  0  0  0  0  0  0
   46.0790   30.5550   45.7740 C   0  0  0  0  0  0  0  0  0  0  0  0
   45.8050   30.2880   47.2550 C   0  0  0  0  0  0  0  0  0  0  0  0
   45.0120   31.3600   47.8600 C   0  0  0  0  0  0  0  0  0  0  0  0
   45.3860   32.7260   47.4170 C   0  0  0  0  0  0  0  0  0  0  0  0
   47.2940   33.4750   46.9630 H   0  0  0  0  0  0  0  0  0  0  0  0
   47.9170   31.4400   46.2440 H   0  0  0  0  0  0  0  0  0  0  0  0
   47.2430   31.9300   44.6980 H   0  0  0  0  0  0  0  0  0  0  0  0
   46.6310   29.6900   45.4080 H   0  0  0  0  0  0  0  0  0  0  0  0
   45.1280   30.6720   45.2240 H   0  0  0  0  0  0  0  0  0  0  0  0
   45.1830   29.3940   47.2750 H   0  0  0  0  0  0  0  0  0  0  0  0
   46.7910   30.1200   47.7360 H   0  0  0  0  0  0  0  0  0  0  0  0
   44.2200   31.3560   48.5570 H   0  0  0  0  0  0  0  0  0  0  0  0
   44.6890   33.8680   47.9320 N   0  0  0  0  0  0  0  0  0  0  0  0
   43.6730   33.7530   47.6520 H   0  0  0  0  0  0  0  0  0  0  0  0
   45.3060   34.5300   48.4450 H   0  0  0  0  0  0  0  0  0  0  0  0
   47.0580   34.7150   41.9270 C   0  0  0  0  0  0  0  0  0  0  0  0
   48.1760   35.4610   41.8090 C   0  0  0  0  0  0  0  0  0  0  0  0
   48.8200   35.4240   40.5640 C   0  0  0  0  0  0  0  0  0  0  0  0
   48.2480   34.6310   39.5860 C   0  0  0  0  0  0  0  0  0  0  0  0
   47.1240   33.8840   39.7080 C   0  0  0  0  0  0  0  0  0  0  0  0
   46.5310   33.9500   40.9380 N   0  0  0  0  0  0  0  0  0  0  0  0
   48.5780   36.0640   42.6130 H   0  0  0  0  0  0  0  0  0  0  0  0
   49.7200   36.0080   40.4300 H   0  0  0  0  0  0  0  0  0  0  0  0
   48.8100   34.6640   38.6630 H   0  0  0  0  0  0  0  0  0  0  0  0
   46.6090   33.1140   38.6860 O   0  0  0  0  0  0  0  0  0  0  0  0
   47.1890   32.9480   37.4610 C   0  0  0  0  0  0  0  0  0  0  0  0
   46.2390   32.8210   36.4410 C   0  0  0  0  0  0  0  0  0  0  0  0
   45.1560   32.8140   36.3350 H   0  0  0  0  0  0  0  0  0  0  0  0
   46.8970   32.6580   35.2570 N   0  0  0  0  0  0  0  0  0  0  0  0
   46.6650   32.5280   34.2560 H   0  0  0  0  0  0  0  0  0  0  0  0
   48.2160   32.6900   35.5730 C   0  0  0  0  0  0  0  0  0  0  0  0
   49.1180   32.6030   34.9600 H   0  0  0  0  0  0  0  0  0  0  0  0
   48.4040   32.8630   36.8930 N   0  0  0  0  0  0  0  0  0  0  0  0
  1  7  1  0  0  0  0
  1  6  1  0  0  0  0
  2  1  2  0  0  0  0
  3  2  1  0  0  0  0
  3  4  2  0  0  0  0
  4  5  1  0  0  0  0
  5  6  2  0  0  0  0
  5  9  1  0  0  0  0
  8  2  1  0  0  0  0
  9 15  1  1  0  0  0
  9 14  1  0  0  0  0
 10 11  1  0  0  0  0
 10 16  1  0  0  0  0
 10  9  1  0  0  0  0
 11 12  1  0  0  0  0
 12 20  1  0  0  0  0
 12 21  1  0  0  0  0
 12 13  1  0  0  0  0
 13 22  1  0  0  0  0
 14 13  2  0  0  0  0
 14 23  1  0  0  0  0
 17 10  1  0  0  0  0
 18 11  1  0  0  0  0
 19 11  1  0  0  0  0
 23 25  1  0  0  0  0
 24 23  1  0  0  0  0
 26  3  1  0  0  0  0
 27 26  1  0  0  0  0
 27 32  1  0  0  0  0
 28 27  2  0  0  0  0
 29 30  2  0  0  0  0
 29 28  1  0  0  0  0
 30 31  1  0  0  0  0
 31 26  2  0  0  0  0
 33 28  1  0  0  0  0
 34 29  1  0  0  0  0
 35 30  1  0  0  0  0
 36 35  1  0  0  0  0
 37 36  2  0  0  0  0
 38 37  1  0  0  0  0
 39 41  1  0  0  0  0
 39 37  1  0  0  0  0
 40 39  1  0  0  0  0
 41 43  2  0  0  0  0
 42 41  1  0  0  0  0
 43 36  1  0  0  0  0
M  END
>  <minimizedAffinity>
-7.34171104

>  <minimizedRMSD>
0.142043278

$$$$
