
 OpenBabel03242522283D

 37 40  0  0  0  0  0  0  0  0999 V2000
   39.2990   28.2050   40.3590 F   0  0  0  0  0  0  0  0  0  0  0  0
   38.4460   28.0160   41.4090 C   0  0  0  0  0  0  0  0  0  0  0  0
   38.8990   27.9530   42.6920 C   0  0  0  0  0  0  0  0  0  0  0  0
   37.9650   27.7670   43.6790 C   0  0  0  0  0  0  0  0  0  0  0  0
   36.6140   27.6500   43.4210 C   0  0  0  0  0  0  0  0  0  0  0  0
   36.2240   27.7260   42.1100 C   0  0  0  0  0  0  0  0  0  0  0  0
   37.1130   27.9030   41.0890 C   0  0  0  0  0  0  0  0  0  0  0  0
   38.4540   27.7280   44.6710 H   0  0  0  0  0  0  0  0  0  0  0  0
   36.0750   27.5120   44.3390 H   0  0  0  0  0  0  0  0  0  0  0  0
   35.1640   27.6730   42.1970 H   0  0  0  0  0  0  0  0  0  0  0  0
   36.5880   27.9050   39.7430 C   0  0  0  0  0  0  0  0  0  0  0  0
   36.2600   26.6810   39.1590 C   0  0  0  0  0  0  0  0  0  0  0  0
   35.7570   26.7310   37.8730 C   0  0  0  0  0  0  0  0  0  0  0  0
   35.5830   27.9480   37.1750 C   0  0  0  0  0  0  0  0  0  0  0  0
   35.9380   29.1510   37.8320 C   0  0  0  0  0  0  0  0  0  0  0  0
   36.4410   29.1200   39.1240 C   0  0  0  0  0  0  0  0  0  0  0  0
   36.3390   25.6940   39.5140 H   0  0  0  0  0  0  0  0  0  0  0  0
   35.4590   25.8360   37.3050 H   0  0  0  0  0  0  0  0  0  0  0  0
   35.1800   27.9090   36.1540 H   0  0  0  0  0  0  0  0  0  0  0  0
   35.7590   29.9960   37.1920 H   0  0  0  0  0  0  0  0  0  0  0  0
   36.6030   30.4870   39.5330 C   0  0  0  0  0  0  0  0  0  0  0  0
   36.4150   31.1220   40.7770 C   0  0  0  0  0  0  0  0  0  0  0  0
   36.0650   30.5970   41.6440 H   0  0  0  0  0  0  0  0  0  0  0  0
   36.7750   32.4140   40.5230 N   0  0  0  0  0  0  0  0  0  0  0  0
   36.7370   33.1360   41.2740 H   0  0  0  0  0  0  0  0  0  0  0  0
   37.1470   32.5470   39.2440 C   0  0  0  0  0  0  0  0  0  0  0  0
   37.4770   33.5070   38.8190 H   0  0  0  0  0  0  0  0  0  0  0  0
   37.0490   31.3500   38.5960 N   0  0  0  0  0  0  0  0  0  0  0  0
   42.5370   27.3980   43.5690 C   0  0  0  0  0  0  0  0  0  0  0  0
   41.1720   27.1480   43.3670 C   0  0  0  0  0  0  0  0  0  0  0  0
   40.3320   28.1440   42.9270 C   0  0  0  0  0  0  0  0  0  0  0  0
   40.9360   29.3500   42.7150 N   0  0  0  0  0  0  0  0  0  0  0  0
   42.2320   29.5810   42.9090 C   0  0  0  0  0  0  0  0  0  0  0  0
   43.0320   28.6050   43.3360 N   0  0  0  0  0  0  0  0  0  0  0  0
   43.0550   26.5020   43.9190 H   0  0  0  0  0  0  0  0  0  0  0  0
   40.7050   26.1910   43.5380 H   0  0  0  0  0  0  0  0  0  0  0  0
   42.6700   30.5450   42.7310 H   0  0  0  0  0  0  0  0  0  0  0  0
  1  2  1  0  0  0  0
  2  3  1  0  0  0  0
  3 31  1  0  0  0  0
  3  4  2  0  0  0  0
  4  8  1  0  0  0  0
  5  4  1  0  0  0  0
  5  9  1  0  0  0  0
  6 10  1  0  0  0  0
  6  5  2  0  0  0  0
  7  2  2  0  0  0  0
  7  6  1  0  0  0  0
 11  7  1  0  0  0  0
 12 17  1  0  0  0  0
 12 11  1  0  0  0  0
 13 12  2  0  0  0  0
 14 15  2  0  0  0  0
 14 13  1  0  0  0  0
 15 16  1  0  0  0  0
 16 21  1  0  0  0  0
 16 11  2  0  0  0  0
 18 13  1  0  0  0  0
 19 14  1  0  0  0  0
 20 15  1  0  0  0  0
 21 22  2  0  0  0  0
 22 23  1  0  0  0  0
 24 22  1  0  0  0  0
 24 25  1  0  0  0  0
 26 24  1  0  0  0  0
 27 26  1  0  0  0  0
 28 26  2  0  0  0  0
 28 21  1  0  0  0  0
 29 35  1  0  0  0  0
 30 36  1  0  0  0  0
 30 29  1  0  0  0  0
 31 30  2  0  0  0  0
 32 33  2  0  0  0  0
 32 31  1  0  0  0  0
 33 34  1  0  0  0  0
 34 29  2  0  0  0  0
 37 33  1  0  0  0  0
M  END
>  <minimizedAffinity>
-6.2613883

$$$$

 OpenBabel03242522283D

 37 40  0  0  0  0  0  0  0  0999 V2000
   38.2160   28.1730   39.8230 F   0  0  0  0  0  0  0  0  0  0  0  0
   37.7890   28.0430   41.1140 C   0  0  0  0  0  0  0  0  0  0  0  0
   37.7250   29.1140   41.9540 C   0  0  0  0  0  0  0  0  0  0  0  0
   37.2780   28.8850   43.2310 C   0  0  0  0  0  0  0  0  0  0  0  0
   36.8940   27.6370   43.6780 C   0  0  0  0  0  0  0  0  0  0  0  0
   36.9770   26.6030   42.7820 C   0  0  0  0  0  0  0  0  0  0  0  0
   37.4230   26.7760   41.5030 C   0  0  0  0  0  0  0  0  0  0  0  0
   37.2780   29.8250   43.8140 H   0  0  0  0  0  0  0  0  0  0  0  0
   36.5810   27.6940   44.7040 H   0  0  0  0  0  0  0  0  0  0  0  0
   36.5730   25.7960   43.3470 H   0  0  0  0  0  0  0  0  0  0  0  0
   37.5250   25.6000   40.6700 C   0  0  0  0  0  0  0  0  0  0  0  0
   36.4960   25.3390   39.7650 C   0  0  0  0  0  0  0  0  0  0  0  0
   36.6380   24.2070   38.9850 C   0  0  0  0  0  0  0  0  0  0  0  0
   37.7580   23.3500   39.0920 C   0  0  0  0  0  0  0  0  0  0  0  0
   38.7630   23.6790   40.0330 C   0  0  0  0  0  0  0  0  0  0  0  0
   38.6390   24.8130   40.8210 C   0  0  0  0  0  0  0  0  0  0  0  0
   35.5960   25.8450   39.5660 H   0  0  0  0  0  0  0  0  0  0  0  0
   35.8970   23.8940   38.2340 H   0  0  0  0  0  0  0  0  0  0  0  0
   37.8010   22.4670   38.4400 H   0  0  0  0  0  0  0  0  0  0  0  0
   39.5510   22.9490   40.0120 H   0  0  0  0  0  0  0  0  0  0  0  0
   39.8500   24.9160   41.5840 C   0  0  0  0  0  0  0  0  0  0  0  0
   40.1840   24.4670   42.8780 C   0  0  0  0  0  0  0  0  0  0  0  0
   39.4800   23.9670   43.5130 H   0  0  0  0  0  0  0  0  0  0  0  0
   41.4930   24.8350   43.0060 N   0  0  0  0  0  0  0  0  0  0  0  0
   42.0220   24.6300   43.8800 H   0  0  0  0  0  0  0  0  0  0  0  0
   41.9110   25.4480   41.8910 C   0  0  0  0  0  0  0  0  0  0  0  0
   42.9360   25.8300   41.7740 H   0  0  0  0  0  0  0  0  0  0  0  0
   40.8980   25.5140   40.9790 N   0  0  0  0  0  0  0  0  0  0  0  0
   37.6130   32.4900   40.2520 C   0  0  0  0  0  0  0  0  0  0  0  0
   37.2060   31.2380   40.7350 C   0  0  0  0  0  0  0  0  0  0  0  0
   38.0830   30.4300   41.4210 C   0  0  0  0  0  0  0  0  0  0  0  0
   39.3360   30.9490   41.5790 N   0  0  0  0  0  0  0  0  0  0  0  0
   39.7150   32.1390   41.1190 C   0  0  0  0  0  0  0  0  0  0  0  0
   38.8540   32.9090   40.4550 N   0  0  0  0  0  0  0  0  0  0  0  0
   36.7970   32.9980   39.7320 H   0  0  0  0  0  0  0  0  0  0  0  0
   36.2140   30.8380   40.6040 H   0  0  0  0  0  0  0  0  0  0  0  0
   40.7120   32.5120   41.2630 H   0  0  0  0  0  0  0  0  0  0  0  0
  1  2  1  0  0  0  0
  2  7  2  0  0  0  0
  2  3  1  0  0  0  0
  3  4  2  0  0  0  0
  4  5  1  0  0  0  0
  4  8  1  0  0  0  0
  5  9  1  0  0  0  0
  6 10  1  0  0  0  0
  6  5  2  0  0  0  0
  7  6  1  0  0  0  0
 11 16  1  0  0  0  0
 11  7  1  0  0  0  0
 12 11  2  0  0  0  0
 13 14  2  0  0  0  0
 13 12  1  0  0  0  0
 14 15  1  0  0  0  0
 15 16  2  0  0  0  0
 16 21  1  0  0  0  0
 17 12  1  0  0  0  0
 18 13  1  0  0  0  0
 19 14  1  0  0  0  0
 20 15  1  0  0  0  0
 21 22  2  0  0  0  0
 22 24  1  0  0  0  0
 22 23  1  0  0  0  0
 24 25  1  0  0  0  0
 26 24  1  0  0  0  0
 27 26  1  0  0  0  0
 28 21  1  0  0  0  0
 28 26  2  0  0  0  0
 29 34  2  0  0  0  0
 29 30  1  0  0  0  0
 30 31  2  0  0  0  0
 31 32  1  0  0  0  0
 31  3  1  0  0  0  0
 33 37  1  0  0  0  0
 33 32  2  0  0  0  0
 34 33  1  0  0  0  0
 35 29  1  0  0  0  0
 36 30  1  0  0  0  0
M  END
>  <minimizedAffinity>
-6.01646662

$$$$

 OpenBabel03242522283D

 37 40  0  0  0  0  0  0  0  0999 V2000
   39.1500   27.9630   40.2130 F   0  0  0  0  0  0  0  0  0  0  0  0
   38.3850   27.8730   41.3410 C   0  0  0  0  0  0  0  0  0  0  0  0
   37.3050   27.0430   41.4050 C   0  0  0  0  0  0  0  0  0  0  0  0
   36.6020   27.0180   42.5830 C   0  0  0  0  0  0  0  0  0  0  0  0
   36.9480   27.7810   43.6800 C   0  0  0  0  0  0  0  0  0  0  0  0
   38.0470   28.5910   43.5510 C   0  0  0  0  0  0  0  0  0  0  0  0
   38.7760   28.6600   42.3990 C   0  0  0  0  0  0  0  0  0  0  0  0
   35.7510   26.3160   42.5100 H   0  0  0  0  0  0  0  0  0  0  0  0
   36.2620   27.6010   44.4850 H   0  0  0  0  0  0  0  0  0  0  0  0
   38.1250   29.0040   44.5290 H   0  0  0  0  0  0  0  0  0  0  0  0
   39.8760   29.5960   42.3630 C   0  0  0  0  0  0  0  0  0  0  0  0
   41.1140   29.1810   42.8530 C   0  0  0  0  0  0  0  0  0  0  0  0
   42.1380   30.1070   42.7940 C   0  0  0  0  0  0  0  0  0  0  0  0
   41.9540   31.4070   42.2710 C   0  0  0  0  0  0  0  0  0  0  0  0
   40.6690   31.7570   41.7910 C   0  0  0  0  0  0  0  0  0  0  0  0
   39.6300   30.8400   41.8390 C   0  0  0  0  0  0  0  0  0  0  0  0
   41.4250   28.2750   43.2890 H   0  0  0  0  0  0  0  0  0  0  0  0
   43.1610   29.9010   43.1470 H   0  0  0  0  0  0  0  0  0  0  0  0
   42.8140   32.0900   42.2580 H   0  0  0  0  0  0  0  0  0  0  0  0
   40.6670   32.7680   41.4250 H   0  0  0  0  0  0  0  0  0  0  0  0
   38.5070   31.4590   41.1950 C   0  0  0  0  0  0  0  0  0  0  0  0
   37.1360   31.1270   41.1760 C   0  0  0  0  0  0  0  0  0  0  0  0
   36.7470   30.2630   41.6770 H   0  0  0  0  0  0  0  0  0  0  0  0
   36.5860   32.1250   40.4240 N   0  0  0  0  0  0  0  0  0  0  0  0
   35.5620   32.1460   40.2330 H   0  0  0  0  0  0  0  0  0  0  0  0
   37.5360   32.9810   40.0270 C   0  0  0  0  0  0  0  0  0  0  0  0
   37.3170   33.8640   39.4070 H   0  0  0  0  0  0  0  0  0  0  0  0
   38.7550   32.5860   40.4970 N   0  0  0  0  0  0  0  0  0  0  0  0
   35.9910   25.7610   38.0980 C   0  0  0  0  0  0  0  0  0  0  0  0
   36.2330   26.6150   39.1840 C   0  0  0  0  0  0  0  0  0  0  0  0
   37.0100   26.2050   40.2420 C   0  0  0  0  0  0  0  0  0  0  0  0
   37.5040   24.9370   40.1310 N   0  0  0  0  0  0  0  0  0  0  0  0
   37.2720   24.1310   39.0970 C   0  0  0  0  0  0  0  0  0  0  0  0
   36.5150   24.5440   38.0810 N   0  0  0  0  0  0  0  0  0  0  0  0
   35.3560   26.2430   37.3500 H   0  0  0  0  0  0  0  0  0  0  0  0
   35.8370   27.6150   39.2610 H   0  0  0  0  0  0  0  0  0  0  0  0
   37.6780   23.1390   39.0480 H   0  0  0  0  0  0  0  0  0  0  0  0
  1  2  1  0  0  0  0
  2  3  2  0  0  0  0
  2  7  1  0  0  0  0
  3  4  1  0  0  0  0
  4  5  2  0  0  0  0
  5  9  1  0  0  0  0
  6  5  1  0  0  0  0
  6 10  1  0  0  0  0
  7  6  2  0  0  0  0
  8  4  1  0  0  0  0
 11  7  1  0  0  0  0
 11 12  1  0  0  0  0
 12 17  1  0  0  0  0
 13 12  2  0  0  0  0
 13 18  1  0  0  0  0
 14 13  1  0  0  0  0
 15 16  1  0  0  0  0
 15 14  2  0  0  0  0
 16 11  2  0  0  0  0
 19 14  1  0  0  0  0
 20 15  1  0  0  0  0
 21 16  1  0  0  0  0
 22 21  2  0  0  0  0
 22 23  1  0  0  0  0
 24 22  1  0  0  0  0
 25 24  1  0  0  0  0
 26 24  1  0  0  0  0
 26 28  2  0  0  0  0
 27 26  1  0  0  0  0
 28 21  1  0  0  0  0
 29 30  1  0  0  0  0
 30 36  1  0  0  0  0
 30 31  2  0  0  0  0
 31  3  1  0  0  0  0
 32 31  1  0  0  0  0
 33 32  2  0  0  0  0
 34 29  2  0  0  0  0
 34 33  1  0  0  0  0
 35 29  1  0  0  0  0
 37 33  1  0  0  0  0
M  END
>  <minimizedAffinity>
-5.9060874

$$$$

 OpenBabel03242522283D

 37 40  0  0  0  0  0  0  0  0999 V2000
   38.8340   28.0540   40.0640 F   0  0  0  0  0  0  0  0  0  0  0  0
   38.2090   27.9810   41.2760 C   0  0  0  0  0  0  0  0  0  0  0  0
   38.1820   29.0450   42.1280 C   0  0  0  0  0  0  0  0  0  0  0  0
   37.5250   28.8770   43.3210 C   0  0  0  0  0  0  0  0  0  0  0  0
   36.9010   27.6970   43.6740 C   0  0  0  0  0  0  0  0  0  0  0  0
   36.9620   26.6680   42.7700 C   0  0  0  0  0  0  0  0  0  0  0  0
   37.6090   26.7800   41.5740 C   0  0  0  0  0  0  0  0  0  0  0  0
   37.5770   29.8020   43.9240 H   0  0  0  0  0  0  0  0  0  0  0  0
   36.4540   27.7940   44.6450 H   0  0  0  0  0  0  0  0  0  0  0  0
   36.3660   25.9270   43.2490 H   0  0  0  0  0  0  0  0  0  0  0  0
   37.6580   25.6070   40.7320 C   0  0  0  0  0  0  0  0  0  0  0  0
   36.5880   25.3650   39.8710 C   0  0  0  0  0  0  0  0  0  0  0  0
   36.6800   24.2350   39.0810 C   0  0  0  0  0  0  0  0  0  0  0  0
   37.7900   23.3620   39.1350 C   0  0  0  0  0  0  0  0  0  0  0  0
   38.8390   23.6720   40.0330 C   0  0  0  0  0  0  0  0  0  0  0  0
   38.7660   24.8040   40.8310 C   0  0  0  0  0  0  0  0  0  0  0  0
   35.6870   25.8850   39.7140 H   0  0  0  0  0  0  0  0  0  0  0  0
   35.9030   23.9370   38.3600 H   0  0  0  0  0  0  0  0  0  0  0  0
   37.7930   22.4820   38.4780 H   0  0  0  0  0  0  0  0  0  0  0  0
   39.6160   22.9310   39.9750 H   0  0  0  0  0  0  0  0  0  0  0  0
   40.0110   24.8860   41.5420 C   0  0  0  0  0  0  0  0  0  0  0  0
   40.3540   24.5690   42.8720 C   0  0  0  0  0  0  0  0  0  0  0  0
   39.6330   24.2180   43.5840 H   0  0  0  0  0  0  0  0  0  0  0  0
   41.6930   24.8260   42.9160 N   0  0  0  0  0  0  0  0  0  0  0  0
   42.2360   24.6810   43.7950 H   0  0  0  0  0  0  0  0  0  0  0  0
   42.1210   25.2570   41.7230 C   0  0  0  0  0  0  0  0  0  0  0  0
   43.1710   25.5240   41.5300 H   0  0  0  0  0  0  0  0  0  0  0  0
   41.0830   25.3050   40.8380 N   0  0  0  0  0  0  0  0  0  0  0  0
   40.6340   31.8590   41.5170 C   0  0  0  0  0  0  0  0  0  0  0  0
   40.1010   30.6440   41.9720 C   0  0  0  0  0  0  0  0  0  0  0  0
   38.8010   30.2960   41.6880 C   0  0  0  0  0  0  0  0  0  0  0  0
   38.1120   31.2140   40.9490 N   0  0  0  0  0  0  0  0  0  0  0  0
   38.6240   32.3650   40.5200 C   0  0  0  0  0  0  0  0  0  0  0  0
   39.8850   32.6870   40.8040 N   0  0  0  0  0  0  0  0  0  0  0  0
   41.6750   31.9760   41.8310 H   0  0  0  0  0  0  0  0  0  0  0  0
   40.6560   29.9260   42.5550 H   0  0  0  0  0  0  0  0  0  0  0  0
   38.0480   33.0620   39.9410 H   0  0  0  0  0  0  0  0  0  0  0  0
  1  2  1  0  0  0  0
  2  7  2  0  0  0  0
  2  3  1  0  0  0  0
  3  4  2  0  0  0  0
  4  5  1  0  0  0  0
  4  8  1  0  0  0  0
  5  9  1  0  0  0  0
  6 10  1  0  0  0  0
  6  5  2  0  0  0  0
  7  6  1  0  0  0  0
 11 16  1  0  0  0  0
 11  7  1  0  0  0  0
 12 11  2  0  0  0  0
 13 14  2  0  0  0  0
 13 12  1  0  0  0  0
 14 15  1  0  0  0  0
 15 16  2  0  0  0  0
 16 21  1  0  0  0  0
 17 12  1  0  0  0  0
 18 13  1  0  0  0  0
 19 14  1  0  0  0  0
 20 15  1  0  0  0  0
 21 22  2  0  0  0  0
 22 24  1  0  0  0  0
 22 23  1  0  0  0  0
 24 25  1  0  0  0  0
 26 24  1  0  0  0  0
 27 26  1  0  0  0  0
 28 21  1  0  0  0  0
 28 26  2  0  0  0  0
 29 35  1  0  0  0  0
 29 30  1  0  0  0  0
 30 36  1  0  0  0  0
 31 30  2  0  0  0  0
 31  3  1  0  0  0  0
 32 31  1  0  0  0  0
 33 34  1  0  0  0  0
 33 32  2  0  0  0  0
 34 29  2  0  0  0  0
 37 33  1  0  0  0  0
M  END
>  <minimizedAffinity>
-5.8600626

$$$$

 OpenBabel03242522283D

 37 40  0  0  0  0  0  0  0  0999 V2000
   39.4040   27.4430   40.3780 F   0  0  0  0  0  0  0  0  0  0  0  0
   38.5200   27.5170   41.4170 C   0  0  0  0  0  0  0  0  0  0  0  0
   38.9050   27.2660   42.7000 C   0  0  0  0  0  0  0  0  0  0  0  0
   37.9470   27.3710   43.6760 C   0  0  0  0  0  0  0  0  0  0  0  0
   36.6390   27.7210   43.4080 C   0  0  0  0  0  0  0  0  0  0  0  0
   36.3180   27.9650   42.0980 C   0  0  0  0  0  0  0  0  0  0  0  0
   37.2310   27.8660   41.0880 C   0  0  0  0  0  0  0  0  0  0  0  0
   38.3790   27.1380   44.6670 H   0  0  0  0  0  0  0  0  0  0  0  0
   36.0700   27.7410   44.3180 H   0  0  0  0  0  0  0  0  0  0  0  0
   35.3000   28.2660   42.1790 H   0  0  0  0  0  0  0  0  0  0  0  0
   36.7590   28.0870   39.7400 C   0  0  0  0  0  0  0  0  0  0  0  0
   36.1820   27.0160   39.0580 C   0  0  0  0  0  0  0  0  0  0  0  0
   35.7400   27.2730   37.7750 C   0  0  0  0  0  0  0  0  0  0  0  0
   35.8630   28.5460   37.1730 C   0  0  0  0  0  0  0  0  0  0  0  0
   36.4590   29.5860   37.9270 C   0  0  0  0  0  0  0  0  0  0  0  0
   36.9050   29.3470   39.2180 C   0  0  0  0  0  0  0  0  0  0  0  0
   36.0280   26.0120   39.3350 H   0  0  0  0  0  0  0  0  0  0  0  0
   35.2660   26.5130   37.1350 H   0  0  0  0  0  0  0  0  0  0  0  0
   35.4900   28.6750   36.1480 H   0  0  0  0  0  0  0  0  0  0  0  0
   36.4910   30.4950   37.3540 H   0  0  0  0  0  0  0  0  0  0  0  0
   37.3570   30.6070   39.7350 C   0  0  0  0  0  0  0  0  0  0  0  0
   36.7300   31.5600   40.5630 C   0  0  0  0  0  0  0  0  0  0  0  0
   35.7240   31.4450   40.9140 H   0  0  0  0  0  0  0  0  0  0  0  0
   37.6950   32.5120   40.7260 N   0  0  0  0  0  0  0  0  0  0  0  0
   37.5160   33.3600   41.3050 H   0  0  0  0  0  0  0  0  0  0  0  0
   38.8030   32.1650   40.0590 C   0  0  0  0  0  0  0  0  0  0  0  0
   39.7100   32.7880   40.0510 H   0  0  0  0  0  0  0  0  0  0  0  0
   38.6190   30.9700   39.4250 N   0  0  0  0  0  0  0  0  0  0  0  0
   42.1870   25.4580   43.2210 C   0  0  0  0  0  0  0  0  0  0  0  0
   40.8240   25.6820   42.9800 C   0  0  0  0  0  0  0  0  0  0  0  0
   40.3160   26.9590   42.9480 C   0  0  0  0  0  0  0  0  0  0  0  0
   41.2340   27.9460   43.1630 N   0  0  0  0  0  0  0  0  0  0  0  0
   42.5270   27.7270   43.3900 C   0  0  0  0  0  0  0  0  0  0  0  0
   43.0030   26.4830   43.4190 N   0  0  0  0  0  0  0  0  0  0  0  0
   42.4200   24.3900   43.2130 H   0  0  0  0  0  0  0  0  0  0  0  0
   40.1070   24.8940   42.8110 H   0  0  0  0  0  0  0  0  0  0  0  0
   43.2190   28.5320   43.5560 H   0  0  0  0  0  0  0  0  0  0  0  0
  1  2  1  0  0  0  0
  2  3  1  0  0  0  0
  3 31  1  0  0  0  0
  3  4  2  0  0  0  0
  4  8  1  0  0  0  0
  5  4  1  0  0  0  0
  5  9  1  0  0  0  0
  6 10  1  0  0  0  0
  6  5  2  0  0  0  0
  7  2  2  0  0  0  0
  7  6  1  0  0  0  0
 11  7  1  0  0  0  0
 12 17  1  0  0  0  0
 12 11  2  0  0  0  0
 13 12  1  0  0  0  0
 14 13  2  0  0  0  0
 14 15  1  0  0  0  0
 15 16  2  0  0  0  0
 16 21  1  0  0  0  0
 16 11  1  0  0  0  0
 18 13  1  0  0  0  0
 19 14  1  0  0  0  0
 20 15  1  0  0  0  0
 21 22  2  0  0  0  0
 22 24  1  0  0  0  0
 22 23  1  0  0  0  0
 24 25  1  0  0  0  0
 26 24  1  0  0  0  0
 27 26  1  0  0  0  0
 28 21  1  0  0  0  0
 28 26  2  0  0  0  0
 29 34  1  0  0  0  0
 30 29  2  0  0  0  0
 31 30  1  0  0  0  0
 31 32  2  0  0  0  0
 32 33  1  0  0  0  0
 33 34  2  0  0  0  0
 33 37  1  0  0  0  0
 35 29  1  0  0  0  0
 36 30  1  0  0  0  0
M  END
>  <minimizedAffinity>
-5.73793888

$$$$

 OpenBabel03242522283D

 37 40  0  0  0  0  0  0  0  0999 V2000
   40.1600   31.1090   38.2800 F   0  0  0  0  0  0  0  0  0  0  0  0
   39.3900   32.1010   38.8180 C   0  0  0  0  0  0  0  0  0  0  0  0
   39.9480   33.2170   39.3660 C   0  0  0  0  0  0  0  0  0  0  0  0
   39.0930   34.1600   39.8760 C   0  0  0  0  0  0  0  0  0  0  0  0
   37.7200   34.0210   39.8480 C   0  0  0  0  0  0  0  0  0  0  0  0
   37.2230   32.8760   39.2800 C   0  0  0  0  0  0  0  0  0  0  0  0
   38.0300   31.9040   38.7650 C   0  0  0  0  0  0  0  0  0  0  0  0
   39.6610   35.0110   40.2950 H   0  0  0  0  0  0  0  0  0  0  0  0
   37.2530   34.8760   40.3010 H   0  0  0  0  0  0  0  0  0  0  0  0
   36.1740   33.0490   39.3300 H   0  0  0  0  0  0  0  0  0  0  0  0
   37.3920   30.7150   38.2490 C   0  0  0  0  0  0  0  0  0  0  0  0
   37.2000   30.6130   36.8710 C   0  0  0  0  0  0  0  0  0  0  0  0
   36.5910   29.4570   36.4210 C   0  0  0  0  0  0  0  0  0  0  0  0
   36.1790   28.4280   37.2980 C   0  0  0  0  0  0  0  0  0  0  0  0
   36.4080   28.6010   38.6840 C   0  0  0  0  0  0  0  0  0  0  0  0
   37.0200   29.7530   39.1530 C   0  0  0  0  0  0  0  0  0  0  0  0
   37.4200   31.2750   36.0830 H   0  0  0  0  0  0  0  0  0  0  0  0
   36.3860   29.2560   35.3580 H   0  0  0  0  0  0  0  0  0  0  0  0
   35.7000   27.5380   36.8670 H   0  0  0  0  0  0  0  0  0  0  0  0
   36.0470   27.7510   39.2340 H   0  0  0  0  0  0  0  0  0  0  0  0
   37.1940   29.5780   40.5670 C   0  0  0  0  0  0  0  0  0  0  0  0
   36.4150   29.9930   41.6670 C   0  0  0  0  0  0  0  0  0  0  0  0
   35.5210   30.5740   41.5520 H   0  0  0  0  0  0  0  0  0  0  0  0
   37.0910   29.4810   42.7360 N   0  0  0  0  0  0  0  0  0  0  0  0
   36.7440   29.6300   43.7080 H   0  0  0  0  0  0  0  0  0  0  0  0
   38.1770   28.8170   42.3220 C   0  0  0  0  0  0  0  0  0  0  0  0
   38.8710   28.3210   43.0180 H   0  0  0  0  0  0  0  0  0  0  0  0
   38.2670   28.8610   40.9610 N   0  0  0  0  0  0  0  0  0  0  0  0
   43.6330   33.0860   40.2100 C   0  0  0  0  0  0  0  0  0  0  0  0
   42.2440   32.9260   40.3200 C   0  0  0  0  0  0  0  0  0  0  0  0
   41.4050   33.3540   39.3180 C   0  0  0  0  0  0  0  0  0  0  0  0
   42.0350   33.9240   38.2490 N   0  0  0  0  0  0  0  0  0  0  0  0
   43.3540   34.0730   38.1510 C   0  0  0  0  0  0  0  0  0  0  0  0
   44.1520   33.6530   39.1310 N   0  0  0  0  0  0  0  0  0  0  0  0
   44.1470   32.6930   41.0910 H   0  0  0  0  0  0  0  0  0  0  0  0
   41.7570   32.4740   41.1700 H   0  0  0  0  0  0  0  0  0  0  0  0
   43.8120   34.5280   37.2920 H   0  0  0  0  0  0  0  0  0  0  0  0
  1  2  1  0  0  0  0
  2  3  1  0  0  0  0
  3  4  2  0  0  0  0
  4  8  1  0  0  0  0
  5  4  1  0  0  0  0
  5  9  1  0  0  0  0
  6 10  1  0  0  0  0
  6  5  2  0  0  0  0
  7  2  2  0  0  0  0
  7  6  1  0  0  0  0
 11  7  1  0  0  0  0
 11 16  1  0  0  0  0
 12 11  2  0  0  0  0
 13 12  1  0  0  0  0
 13 14  2  0  0  0  0
 14 15  1  0  0  0  0
 15 16  2  0  0  0  0
 15 20  1  0  0  0  0
 16 21  1  0  0  0  0
 17 12  1  0  0  0  0
 18 13  1  0  0  0  0
 19 14  1  0  0  0  0
 21 28  1  0  0  0  0
 21 22  2  0  0  0  0
 22 24  1  0  0  0  0
 23 22  1  0  0  0  0
 24 25  1  0  0  0  0
 26 24  1  0  0  0  0
 26 27  1  0  0  0  0
 28 26  2  0  0  0  0
 29 30  1  0  0  0  0
 29 35  1  0  0  0  0
 30 36  1  0  0  0  0
 31  3  1  0  0  0  0
 31 30  2  0  0  0  0
 32 31  1  0  0  0  0
 33 32  2  0  0  0  0
 33 34  1  0  0  0  0
 34 29  2  0  0  0  0
 37 33  1  0  0  0  0
M  END
>  <minimizedAffinity>
-5.72221327

$$$$

 OpenBabel03242522283D

 37 40  0  0  0  0  0  0  0  0999 V2000
   38.4580   29.3100   39.6450 F   0  0  0  0  0  0  0  0  0  0  0  0
   38.0530   29.0100   40.9140 C   0  0  0  0  0  0  0  0  0  0  0  0
   38.6410   29.5820   42.0030 C   0  0  0  0  0  0  0  0  0  0  0  0
   38.1620   29.2230   43.2370 C   0  0  0  0  0  0  0  0  0  0  0  0
   37.1250   28.3270   43.4070 C   0  0  0  0  0  0  0  0  0  0  0  0
   36.5750   27.7910   42.2710 C   0  0  0  0  0  0  0  0  0  0  0  0
   37.0200   28.1090   41.0210 C   0  0  0  0  0  0  0  0  0  0  0  0
   38.7190   29.7460   44.0350 H   0  0  0  0  0  0  0  0  0  0  0  0
   36.9190   28.1970   44.4520 H   0  0  0  0  0  0  0  0  0  0  0  0
   35.7830   27.2040   42.6730 H   0  0  0  0  0  0  0  0  0  0  0  0
   36.4030   27.4320   39.9030 C   0  0  0  0  0  0  0  0  0  0  0  0
   35.6440   28.1870   39.0090 C   0  0  0  0  0  0  0  0  0  0  0  0
   35.0770   27.5000   37.9530 C   0  0  0  0  0  0  0  0  0  0  0  0
   35.2460   26.1080   37.7780 C   0  0  0  0  0  0  0  0  0  0  0  0
   36.0300   25.4070   38.7250 C   0  0  0  0  0  0  0  0  0  0  0  0
   36.6100   26.0800   39.7900 C   0  0  0  0  0  0  0  0  0  0  0  0
   35.3980   29.2100   38.9930 H   0  0  0  0  0  0  0  0  0  0  0  0
   34.4590   27.9830   37.1800 H   0  0  0  0  0  0  0  0  0  0  0  0
   34.7640   25.6300   36.9150 H   0  0  0  0  0  0  0  0  0  0  0  0
   36.0760   24.3620   38.4760 H   0  0  0  0  0  0  0  0  0  0  0  0
   37.4090   25.1200   40.4960 C   0  0  0  0  0  0  0  0  0  0  0  0
   37.0680   24.1260   41.4360 C   0  0  0  0  0  0  0  0  0  0  0  0
   36.0630   23.9830   41.7830 H   0  0  0  0  0  0  0  0  0  0  0  0
   38.2640   23.5220   41.6970 N   0  0  0  0  0  0  0  0  0  0  0  0
   38.3260   22.7310   42.3730 H   0  0  0  0  0  0  0  0  0  0  0  0
   39.2380   24.0980   40.9810 C   0  0  0  0  0  0  0  0  0  0  0  0
   40.2870   23.7700   41.0350 H   0  0  0  0  0  0  0  0  0  0  0  0
   38.7290   25.1070   40.2160 N   0  0  0  0  0  0  0  0  0  0  0  0
   41.9560   31.4020   41.9380 C   0  0  0  0  0  0  0  0  0  0  0  0
   40.9950   30.4130   42.1900 C   0  0  0  0  0  0  0  0  0  0  0  0
   39.6940   30.5740   41.7760 C   0  0  0  0  0  0  0  0  0  0  0  0
   39.4430   31.7450   41.1190 N   0  0  0  0  0  0  0  0  0  0  0  0
   40.3600   32.6800   40.8830 C   0  0  0  0  0  0  0  0  0  0  0  0
   41.6170   32.5080   41.2920 N   0  0  0  0  0  0  0  0  0  0  0  0
   42.9330   31.1150   42.3340 H   0  0  0  0  0  0  0  0  0  0  0  0
   41.2050   29.4910   42.7100 H   0  0  0  0  0  0  0  0  0  0  0  0
   40.1230   33.5900   40.3630 H   0  0  0  0  0  0  0  0  0  0  0  0
  1  2  1  0  0  0  0
  2  7  2  0  0  0  0
  2  3  1  0  0  0  0
  3  4  2  0  0  0  0
  4  5  1  0  0  0  0
  4  8  1  0  0  0  0
  5  9  1  0  0  0  0
  6 10  1  0  0  0  0
  6  5  2  0  0  0  0
  7  6  1  0  0  0  0
 11  7  1  0  0  0  0
 12 11  2  0  0  0  0
 13 12  1  0  0  0  0
 14 13  2  0  0  0  0
 14 15  1  0  0  0  0
 15 16  2  0  0  0  0
 16 11  1  0  0  0  0
 16 21  1  0  0  0  0
 17 12  1  0  0  0  0
 18 13  1  0  0  0  0
 19 14  1  0  0  0  0
 20 15  1  0  0  0  0
 21 22  2  0  0  0  0
 22 24  1  0  0  0  0
 22 23  1  0  0  0  0
 24 25  1  0  0  0  0
 26 27  1  0  0  0  0
 26 24  1  0  0  0  0
 28 21  1  0  0  0  0
 28 26  2  0  0  0  0
 29 30  1  0  0  0  0
 29 35  1  0  0  0  0
 30 36  1  0  0  0  0
 31  3  1  0  0  0  0
 31 30  2  0  0  0  0
 32 31  1  0  0  0  0
 33 32  2  0  0  0  0
 33 34  1  0  0  0  0
 34 29  2  0  0  0  0
 37 33  1  0  0  0  0
M  END
>  <minimizedAffinity>
-5.70773602

$$$$

 OpenBabel03242522283D

 37 40  0  0  0  0  0  0  0  0999 V2000
   39.5000   26.9450   40.7940 F   0  0  0  0  0  0  0  0  0  0  0  0
   38.5400   27.1850   41.7360 C   0  0  0  0  0  0  0  0  0  0  0  0
   37.4880   26.3370   41.9120 C   0  0  0  0  0  0  0  0  0  0  0  0
   36.5790   26.6590   42.8870 C   0  0  0  0  0  0  0  0  0  0  0  0
   36.6950   27.7830   43.6800 C   0  0  0  0  0  0  0  0  0  0  0  0
   37.7790   28.5920   43.4540 C   0  0  0  0  0  0  0  0  0  0  0  0
   38.7080   28.3210   42.4920 C   0  0  0  0  0  0  0  0  0  0  0  0
   35.7730   25.9020   42.9300 H   0  0  0  0  0  0  0  0  0  0  0  0
   35.8750   27.8330   44.3710 H   0  0  0  0  0  0  0  0  0  0  0  0
   37.6630   29.3240   44.2180 H   0  0  0  0  0  0  0  0  0  0  0  0
   39.7720   29.2810   42.3060 C   0  0  0  0  0  0  0  0  0  0  0  0
   40.9990   29.0370   42.9240 C   0  0  0  0  0  0  0  0  0  0  0  0
   41.9880   29.9780   42.7150 C   0  0  0  0  0  0  0  0  0  0  0  0
   41.7820   31.1300   41.9230 C   0  0  0  0  0  0  0  0  0  0  0  0
   40.5110   31.3110   41.3270 C   0  0  0  0  0  0  0  0  0  0  0  0
   39.5060   30.3760   41.5230 C   0  0  0  0  0  0  0  0  0  0  0  0
   41.3210   28.2570   43.5530 H   0  0  0  0  0  0  0  0  0  0  0  0
   42.9990   29.8980   43.1450 H   0  0  0  0  0  0  0  0  0  0  0  0
   42.6160   31.8350   41.8040 H   0  0  0  0  0  0  0  0  0  0  0  0
   40.4890   32.2230   40.7570 H   0  0  0  0  0  0  0  0  0  0  0  0
   38.3950   30.7930   40.7170 C   0  0  0  0  0  0  0  0  0  0  0  0
   37.1630   31.3900   41.0550 C   0  0  0  0  0  0  0  0  0  0  0  0
   36.8820   31.5950   42.0690 H   0  0  0  0  0  0  0  0  0  0  0  0
   36.5660   31.5770   39.8420 N   0  0  0  0  0  0  0  0  0  0  0  0
   35.6200   32.0110   39.7730 H   0  0  0  0  0  0  0  0  0  0  0  0
   37.3640   31.1360   38.8610 C   0  0  0  0  0  0  0  0  0  0  0  0
   37.0820   31.1880   37.7990 H   0  0  0  0  0  0  0  0  0  0  0  0
   38.5220   30.6360   39.3830 N   0  0  0  0  0  0  0  0  0  0  0  0
   37.9730   22.8210   40.6030 C   0  0  0  0  0  0  0  0  0  0  0  0
   38.0650   23.9480   41.4320 C   0  0  0  0  0  0  0  0  0  0  0  0
   37.4360   25.1240   41.0940 C   0  0  0  0  0  0  0  0  0  0  0  0
   36.7410   25.0840   39.9190 N   0  0  0  0  0  0  0  0  0  0  0  0
   36.6580   24.0100   39.1360 C   0  0  0  0  0  0  0  0  0  0  0  0
   37.2730   22.8790   39.4790 N   0  0  0  0  0  0  0  0  0  0  0  0
   38.5290   21.9770   41.0190 H   0  0  0  0  0  0  0  0  0  0  0  0
   38.6170   23.9680   42.3580 H   0  0  0  0  0  0  0  0  0  0  0  0
   36.1010   24.0190   38.2180 H   0  0  0  0  0  0  0  0  0  0  0  0
  1  2  1  0  0  0  0
  2  3  2  0  0  0  0
  2  7  1  0  0  0  0
  3  4  1  0  0  0  0
  4  8  1  0  0  0  0
  4  5  2  0  0  0  0
  5  9  1  0  0  0  0
  6  5  1  0  0  0  0
  6 10  1  0  0  0  0
  7  6  2  0  0  0  0
 11  7  1  0  0  0  0
 11 12  1  0  0  0  0
 12 17  1  0  0  0  0
 13 12  2  0  0  0  0
 13 18  1  0  0  0  0
 14 13  1  0  0  0  0
 15 16  1  0  0  0  0
 15 14  2  0  0  0  0
 16 11  2  0  0  0  0
 19 14  1  0  0  0  0
 20 15  1  0  0  0  0
 21 22  2  0  0  0  0
 21 16  1  0  0  0  0
 22 23  1  0  0  0  0
 24 22  1  0  0  0  0
 25 24  1  0  0  0  0
 26 28  2  0  0  0  0
 26 24  1  0  0  0  0
 27 26  1  0  0  0  0
 28 21  1  0  0  0  0
 29 35  1  0  0  0  0
 29 30  1  0  0  0  0
 30 36  1  0  0  0  0
 31 30  2  0  0  0  0
 31  3  1  0  0  0  0
 32 31  1  0  0  0  0
 33 34  1  0  0  0  0
 33 32  2  0  0  0  0
 34 29  2  0  0  0  0
 37 33  1  0  0  0  0
M  END
>  <minimizedAffinity>
-5.67902565

$$$$

 OpenBabel03242522283D

 37 40  0  0  0  0  0  0  0  0999 V2000
   38.6840   29.0330   40.2020 F   0  0  0  0  0  0  0  0  0  0  0  0
   38.0760   28.5650   41.3320 C   0  0  0  0  0  0  0  0  0  0  0  0
   36.8280   28.0190   41.2960 C   0  0  0  0  0  0  0  0  0  0  0  0
   36.3030   27.5720   42.4820 C   0  0  0  0  0  0  0  0  0  0  0  0
   36.9840   27.6500   43.6800 C   0  0  0  0  0  0  0  0  0  0  0  0
   38.2370   28.2060   43.6470 C   0  0  0  0  0  0  0  0  0  0  0  0
   38.8010   28.6730   42.4960 C   0  0  0  0  0  0  0  0  0  0  0  0
   35.2900   27.1580   42.3240 H   0  0  0  0  0  0  0  0  0  0  0  0
   36.3850   27.2420   44.4710 H   0  0  0  0  0  0  0  0  0  0  0  0
   38.5510   28.0870   44.6570 H   0  0  0  0  0  0  0  0  0  0  0  0
   40.1020   29.2940   42.5970 C   0  0  0  0  0  0  0  0  0  0  0  0
   40.1650   30.6850   42.6960 C   0  0  0  0  0  0  0  0  0  0  0  0
   41.4280   31.2350   42.7960 C   0  0  0  0  0  0  0  0  0  0  0  0
   42.6010   30.4460   42.7960 C   0  0  0  0  0  0  0  0  0  0  0  0
   42.4590   29.0410   42.6920 C   0  0  0  0  0  0  0  0  0  0  0  0
   41.1990   28.4700   42.5940 C   0  0  0  0  0  0  0  0  0  0  0  0
   39.4120   31.4200   42.6930 H   0  0  0  0  0  0  0  0  0  0  0  0
   41.6110   32.3180   42.8830 H   0  0  0  0  0  0  0  0  0  0  0  0
   43.5700   30.9540   42.8770 H   0  0  0  0  0  0  0  0  0  0  0  0
   43.4220   28.5640   42.7020 H   0  0  0  0  0  0  0  0  0  0  0  0
   41.3910   27.0480   42.6060 C   0  0  0  0  0  0  0  0  0  0  0  0
   41.4440   26.1170   43.6640 C   0  0  0  0  0  0  0  0  0  0  0  0
   41.3630   26.4100   44.6920 H   0  0  0  0  0  0  0  0  0  0  0  0
   41.6070   24.9250   43.0200 N   0  0  0  0  0  0  0  0  0  0  0  0
   41.6800   24.0340   43.5570 H   0  0  0  0  0  0  0  0  0  0  0  0
   41.6480   25.1170   41.6960 C   0  0  0  0  0  0  0  0  0  0  0  0
   41.7730   24.2900   40.9800 H   0  0  0  0  0  0  0  0  0  0  0  0
   41.5140   26.4440   41.4060 N   0  0  0  0  0  0  0  0  0  0  0  0
   34.7230   28.6770   38.2220 C   0  0  0  0  0  0  0  0  0  0  0  0
   35.3230   28.8540   39.4770 C   0  0  0  0  0  0  0  0  0  0  0  0
   36.1660   27.8990   39.9950 C   0  0  0  0  0  0  0  0  0  0  0  0
   36.3530   26.8070   39.1960 N   0  0  0  0  0  0  0  0  0  0  0  0
   35.7800   26.6450   38.0060 C   0  0  0  0  0  0  0  0  0  0  0  0
   34.9660   27.5800   37.5190 N   0  0  0  0  0  0  0  0  0  0  0  0
   34.0860   29.5270   37.9650 H   0  0  0  0  0  0  0  0  0  0  0  0
   35.1680   29.7210   40.0990 H   0  0  0  0  0  0  0  0  0  0  0  0
   35.9520   25.7700   37.4070 H   0  0  0  0  0  0  0  0  0  0  0  0
  1  2  1  0  0  0  0
  2  7  1  0  0  0  0
  3  2  2  0  0  0  0
  3  4  1  0  0  0  0
  4  5  2  0  0  0  0
  5  9  1  0  0  0  0
  6  5  1  0  0  0  0
  6 10  1  0  0  0  0
  7 11  1  0  0  0  0
  7  6  2  0  0  0  0
  8  4  1  0  0  0  0
 11 12  1  0  0  0  0
 12 13  2  0  0  0  0
 13 18  1  0  0  0  0
 14 13  1  0  0  0  0
 14 19  1  0  0  0  0
 15 20  1  0  0  0  0
 15 14  2  0  0  0  0
 16 11  2  0  0  0  0
 16 21  1  0  0  0  0
 16 15  1  0  0  0  0
 17 12  1  0  0  0  0
 21 22  2  0  0  0  0
 22 23  1  0  0  0  0
 24 25  1  0  0  0  0
 24 22  1  0  0  0  0
 26 24  1  0  0  0  0
 27 26  1  0  0  0  0
 28 26  2  0  0  0  0
 28 21  1  0  0  0  0
 29 30  1  0  0  0  0
 30 31  2  0  0  0  0
 30 36  1  0  0  0  0
 31  3  1  0  0  0  0
 32 31  1  0  0  0  0
 33 32  2  0  0  0  0
 34 33  1  0  0  0  0
 34 29  2  0  0  0  0
 35 29  1  0  0  0  0
 37 33  1  0  0  0  0
M  END
>  <minimizedAffinity>
-5.61004591

$$$$
