
 OpenBabel03252505143D

 24 26  0  0  0  0  0  0  0  0999 V2000
   44.6630   35.7680   44.3120 C   0  0  0  0  0  0  0  0  0  0  0  0
   45.3560   35.8540   43.0910 C   0  0  0  0  0  0  0  0  0  0  0  0
   46.3490   34.9070   42.8950 C   0  0  0  0  0  0  0  0  0  0  0  0
   46.6130   33.9580   43.8530 N   0  0  0  0  0  0  0  0  0  0  0  0
   45.9110   33.9150   45.0210 C   0  0  0  0  0  0  0  0  0  0  0  0
   44.9420   34.8230   45.2390 N   0  0  0  0  0  0  0  0  0  0  0  0
   43.8760   36.4660   44.5450 H   0  0  0  0  0  0  0  0  0  0  0  0
   45.1360   36.5950   42.3660 H   0  0  0  0  0  0  0  0  0  0  0  0
   47.1430   34.8760   41.6220 C   0  0  0  0  0  0  0  0  0  0  0  0
   48.5060   35.5180   41.7530 C   0  0  0  0  0  0  0  0  0  0  0  0
   48.2980   33.9950   41.5320 C   0  0  0  0  0  0  0  0  0  0  0  0
   46.5470   35.1550   40.7390 H   0  0  0  0  0  0  0  0  0  0  0  0
   48.8690   35.8650   42.7170 H   0  0  0  0  0  0  0  0  0  0  0  0
   48.8090   36.1220   40.8840 H   0  0  0  0  0  0  0  0  0  0  0  0
   48.7120   33.4070   42.3480 H   0  0  0  0  0  0  0  0  0  0  0  0
   48.6370   33.6720   40.5100 H   0  0  0  0  0  0  0  0  0  0  0  0
   46.3260   32.8420   45.9190 C   0  0  0  0  0  0  0  0  0  0  0  0
   46.1300   31.5110   45.5430 C   0  0  0  0  0  0  0  0  0  0  0  0
   45.6840   31.1260   44.6150 H   0  0  0  0  0  0  0  0  0  0  0  0
   46.5920   30.7210   46.5300 N   0  0  0  0  0  0  0  0  0  0  0  0
   46.5650   29.6770   46.4980 H   0  0  0  0  0  0  0  0  0  0  0  0
   47.0710   31.5380   47.5120 C   0  0  0  0  0  0  0  0  0  0  0  0
   47.4840   31.0900   48.3920 H   0  0  0  0  0  0  0  0  0  0  0  0
   46.9060   32.8390   47.1340 N   0  0  0  0  0  0  0  0  0  0  0  0
  1  7  1  0  0  0  0
  1  6  1  0  0  0  0
  2  1  2  0  0  0  0
  3  2  1  0  0  0  0
  3  4  2  0  0  0  0
  4  5  1  0  0  0  0
  5  6  2  0  0  0  0
  5 17  1  0  0  0  0
  8  2  1  0  0  0  0
  9 10  1  0  0  0  0
  9  3  1  0  0  0  0
 10 13  1  0  0  0  0
 11  9  1  0  0  0  0
 11 10  1  0  0  0  0
 11 15  1  0  0  0  0
 12  9  1  0  0  0  0
 14 10  1  0  0  0  0
 16 11  1  0  0  0  0
 17 24  1  0  0  0  0
 18 17  2  0  0  0  0
 18 20  1  0  0  0  0
 19 18  1  0  0  0  0
 20 22  1  0  0  0  0
 21 20  1  0  0  0  0
 22 23  1  0  0  0  0
 24 22  2  0  0  0  0
M  END
>  <minimizedAffinity>
-4.66506433

>  <minimizedRMSD>
0.589207232

$$$$
