REMARK  Name = 
REMARK  7 active torsions:
REMARK  status: ('A' for Active; 'I' for Inactive)
REMARK    1  A    between atoms: C_2  and  O_17
REMARK    2  A    between atoms: C_3  and  C_7
REMARK    3  A    between atoms: O_17  and  P_19
REMARK    4  A    between atoms: P_19  and  O_20
REMARK    5  A    between atoms: P_19  and  O_21
REMARK    6  A    between atoms: O_20  and  C_36
REMARK    7  A    between atoms: O_21  and  C_22
REMARK                            x       y       z     vdW  Elec       q    Type
REMARK                         _______ _______ _______ _____ _____    ______ ____
ROOT
ATOM      1  C   UNL     1      45.131  36.015  42.915  0.00  0.00    +0.000 A 
ATOM      2  C   UNL     1      45.371  34.650  42.909  0.00  0.00    +0.000 A 
ATOM      3  C   UNL     1      45.214  33.920  44.062  0.00  0.00    +0.000 A 
ATOM      4  N   UNL     1      44.812  34.610  45.190  0.00  0.00    +0.000 NA
ATOM      5  C   UNL     1      44.583  35.920  45.189  0.00  0.00    +0.000 A 
ATOM      6  N   UNL     1      44.747  36.614  44.041  0.00  0.00    +0.000 NA
ATOM      7  H   UNL     1      45.246  36.622  42.028  0.00  0.00    +0.000 HD
ATOM      8  H   UNL     1      44.269  36.444  46.082  0.00  0.00    +0.000 HD
ENDROOT
BRANCH   3   9
ATOM      9  C   UNL     1      45.419  32.530  44.220  0.00  0.00    +0.000 A 
ATOM     10  C   UNL     1      44.940  31.563  43.332  0.00  0.00    +0.000 A 
ATOM     11  C   UNL     1      45.078  30.212  43.517  0.00  0.00    +0.000 A 
ATOM     12  C   UNL     1      45.724  29.740  44.636  0.00  0.00    +0.000 A 
ATOM     13  C   UNL     1      46.220  30.706  45.553  0.00  0.00    +0.000 A 
ATOM     14  C   UNL     1      46.864  30.250  46.673  0.00  0.00    +0.000 A 
ATOM     15  C   UNL     1      47.372  31.135  47.604  0.00  0.00    +0.000 A 
ATOM     16  C   UNL     1      47.225  32.514  47.390  0.00  0.00    +0.000 A 
ATOM     17  C   UNL     1      46.557  32.937  46.226  0.00  0.00    +0.000 A 
ATOM     18  C   UNL     1      46.061  32.035  45.326  0.00  0.00    +0.000 A 
ATOM     19  H   UNL     1      44.430  31.940  42.448  0.00  0.00    +0.000 HD
ATOM     20  H   UNL     1      44.694  29.496  42.807  0.00  0.00    +0.000 HD
ATOM     21  H   UNL     1      45.883  28.708  44.875  0.00  0.00    +0.000 HD
ATOM     22  H   UNL     1      46.990  29.178  46.859  0.00  0.00    +0.000 HD
ATOM     23  H   UNL     1      47.873  30.716  48.477  0.00  0.00    +0.000 HD
ATOM     24  H   UNL     1      47.653  33.129  48.165  0.00  0.00    +0.000 HD
ATOM     25  H   UNL     1      46.568  34.006  46.234  0.00  0.00    +0.000 HD
ENDBRANCH   3   9
BRANCH   2  26
ATOM     26  O   UNL     1      45.758  34.090  41.726  0.00  0.00    +0.000 OA
BRANCH  26  28
ATOM     27  O   UNL     1      47.686  32.433  41.092  0.00  0.00    +0.000 OA
ATOM     28  P   UNL     1      47.366  33.875  41.243  0.00  0.00    +0.000 P 
BRANCH  28  29
ATOM     29  O   UNL     1      47.654  34.604  39.742  0.00  0.00    +0.000 OA
BRANCH  29  30
ATOM     30  C   UNL     1      48.038  33.916  38.600  0.00  0.00    +0.000 A 
ATOM     31  C   UNL     1      47.873  32.554  38.641  0.00  0.00    +0.000 A 
ATOM     32  H   UNL     1      47.496  31.849  39.392  0.00  0.00    +0.000 HD
ATOM     33  N   UNL     1      48.292  32.046  37.459  0.00  0.00    +0.000 N 
ATOM     34  H   UNL     1      48.328  31.064  37.105  0.00  0.00    +0.000 HD
ATOM     35  C   UNL     1      48.698  33.097  36.731  0.00  0.00    +0.000 A 
ATOM     36  H   UNL     1      49.114  33.181  35.716  0.00  0.00    +0.000 HD
ATOM     37  N   UNL     1      48.553  34.269  37.410  0.00  0.00    +0.000 NA
ENDBRANCH  29  30
ENDBRANCH  28  29
BRANCH  28  38
ATOM     38  O   UNL     1      48.362  34.591  42.386  0.00  0.00    +0.000 OA
BRANCH  38  39
ATOM     39  C   UNL     1      49.533  35.294  42.147  0.00  0.00    +0.000 C 
ATOM     40  O   UNL     1      49.203  36.207  41.374  0.00  0.00    +0.000 OA
ATOM     41  N   UNL     1      50.639  34.705  42.868  0.00  0.00    +0.000 N 
ATOM     42  H   UNL     1      51.514  34.233  42.537  0.00  0.00    +0.000 HD
ATOM     43  H   UNL     1      50.588  34.741  43.929  0.00  0.00    +0.000 HD
ENDBRANCH  38  39
ENDBRANCH  28  38
ENDBRANCH  26  28
ENDBRANCH   2  26
TORSDOF 7
