
 OpenBabel03252506483D

 41 44  0  0  1  0  0  0  0  0999 V2000
   39.7420   29.3110   42.7510 N   0  0  1  0  0  0  0  0  0  0  0  0
   41.1410   28.9770   42.8270 C   0  0  0  0  0  0  0  0  0  0  0  0
   42.0270   30.0420   42.2420 C   0  0  0  0  0  0  0  0  0  0  0  0
   41.8060   30.0690   40.7430 C   0  0  0  0  0  0  0  0  0  0  0  0
   40.3520   29.8520   40.4180 C   0  0  0  0  0  0  0  0  0  0  0  0
   39.5220   30.1670   41.6360 C   0  0  2  0  0  0  0  0  0  0  0  0
   41.4200   28.7690   43.8700 H   0  0  0  0  0  0  0  0  0  0  0  0
   41.3360   28.0300   42.2480 H   0  0  0  0  0  0  0  0  0  0  0  0
   41.9380   31.0110   42.7250 H   0  0  0  0  0  0  0  0  0  0  0  0
   43.0670   29.6910   42.3890 H   0  0  0  0  0  0  0  0  0  0  0  0
   42.1760   31.0550   40.3830 H   0  0  0  0  0  0  0  0  0  0  0  0
   42.4300   29.2790   40.2740 H   0  0  0  0  0  0  0  0  0  0  0  0
   39.9870   30.4830   39.6040 H   0  0  0  0  0  0  0  0  0  0  0  0
   40.2180   28.7640   40.2150 H   0  0  0  0  0  0  0  0  0  0  0  0
   38.4500   30.0120   41.3300 H   0  0  0  0  0  0  0  0  0  0  0  0
   37.6320   27.9540   42.1460 C   0  0  1  0  0  0  0  0  0  0  0  0
   37.8350   27.9800   43.6170 C   0  0  0  0  0  0  0  0  0  0  0  0
   39.0010   28.0940   42.7030 C   0  0  2  0  0  0  0  0  0  0  0  0
   37.1060   28.8550   41.7340 H   0  0  0  0  0  0  0  0  0  0  0  0
   37.5220   28.8980   44.1850 H   0  0  0  0  0  0  0  0  0  0  0  0
   37.6530   27.0530   44.1950 H   0  0  0  0  0  0  0  0  0  0  0  0
   39.6360   27.1760   42.6120 H   0  0  0  0  0  0  0  0  0  0  0  0
   37.1590   25.4850   42.1990 C   0  0  0  0  0  0  0  0  0  0  0  0
   37.2200   26.6990   41.5070 C   0  0  0  0  0  0  0  0  0  0  0  0
   36.8480   26.6770   40.1500 C   0  0  0  0  0  0  0  0  0  0  0  0
   36.4540   25.5070   39.5840 N   0  0  0  0  0  0  0  0  0  0  0  0
   36.4120   24.3530   40.3000 C   0  0  0  0  0  0  0  0  0  0  0  0
   36.7620   24.3330   41.6120 N   0  0  0  0  0  0  0  0  0  0  0  0
   37.4530   25.5360   43.2500 H   0  0  0  0  0  0  0  0  0  0  0  0
   36.8810   27.5920   39.5670 H   0  0  0  0  0  0  0  0  0  0  0  0
   36.0950   23.4520   39.7960 H   0  0  0  0  0  0  0  0  0  0  0  0
   39.6210   31.5860   41.9300 N   0  0  0  0  0  0  0  0  0  0  0  0
   40.2030   32.2320   42.5520 H   0  0  0  0  0  0  0  0  0  0  0  0
   38.6320   32.2660   41.1220 C   0  0  0  0  0  0  0  0  0  0  0  0
   37.3860   32.0900   40.5610 C   0  0  0  0  0  0  0  0  0  0  0  0
   36.9560   31.1380   40.7530 H   0  0  0  0  0  0  0  0  0  0  0  0
   37.0430   33.2070   39.9020 N   0  0  0  0  0  0  0  0  0  0  0  0
   36.1200   33.2590   39.4080 H   0  0  0  0  0  0  0  0  0  0  0  0
   38.0300   34.1130   40.0140 C   0  0  0  0  0  0  0  0  0  0  0  0
   37.9360   35.0830   39.5490 H   0  0  0  0  0  0  0  0  0  0  0  0
   39.0070   33.5310   40.7670 N   0  0  0  0  0  0  0  0  0  0  0  0
  1  2  1  6  0  0  0
  2  7  1  0  0  0  0
  3 10  1  0  0  0  0
  3  9  1  0  0  0  0
  3  2  1  0  0  0  0
  4  3  1  0  0  0  0
  5  4  1  0  0  0  0
  5  6  1  0  0  0  0
  6 15  1  6  0  0  0
  6 32  1  0  0  0  0
  6  1  1  0  0  0  0
  8  2  1  0  0  0  0
 11  4  1  0  0  0  0
 12  4  1  0  0  0  0
 13  5  1  0  0  0  0
 14  5  1  0  0  0  0
 16 19  1  6  0  0  0
 16 18  1  0  0  0  0
 16 17  1  0  0  0  0
 17 20  1  0  0  0  0
 17 21  1  0  0  0  0
 18 22  1  6  0  0  0
 18  1  1  0  0  0  0
 18 17  1  0  0  0  0
 23 29  1  0  0  0  0
 24 16  1  0  0  0  0
 24 23  2  0  0  0  0
 25 24  1  0  0  0  0
 26 25  2  0  0  0  0
 26 27  1  0  0  0  0
 27 28  2  0  0  0  0
 28 23  1  0  0  0  0
 30 25  1  0  0  0  0
 31 27  1  0  0  0  0
 32 33  1  0  0  0  0
 34 32  1  0  0  0  0
 35 36  1  0  0  0  0
 35 34  2  0  0  0  0
 37 39  1  0  0  0  0
 37 35  1  0  0  0  0
 38 37  1  0  0  0  0
 39 41  2  0  0  0  0
 40 39  1  0  0  0  0
 41 34  1  0  0  0  0
M  END
>  <minimizedAffinity>
-5.11600399

$$$$

 OpenBabel03252506483D

 41 44  0  0  1  0  0  0  0  0999 V2000
   37.7670   29.5540   39.5290 N   0  0  1  0  0  0  0  0  0  0  0  0
   37.0290   28.9800   38.4330 C   0  0  0  0  0  0  0  0  0  0  0  0
   35.6930   29.6360   38.2220 C   0  0  0  0  0  0  0  0  0  0  0  0
   34.8040   29.2840   39.3980 C   0  0  0  0  0  0  0  0  0  0  0  0
   35.5960   29.2820   40.6780 C   0  0  0  0  0  0  0  0  0  0  0  0
   36.8550   30.0880   40.4810 C   0  0  2  0  0  0  0  0  0  0  0  0
   37.6320   29.0210   37.5140 H   0  0  0  0  0  0  0  0  0  0  0  0
   36.8340   27.8890   38.6380 H   0  0  0  0  0  0  0  0  0  0  0  0
   35.7470   30.6990   38.0050 H   0  0  0  0  0  0  0  0  0  0  0  0
   35.2430   29.1380   37.3420 H   0  0  0  0  0  0  0  0  0  0  0  0
   33.9820   30.0330   39.4120 H   0  0  0  0  0  0  0  0  0  0  0  0
   34.3530   28.2850   39.2200 H   0  0  0  0  0  0  0  0  0  0  0  0
   35.0600   29.7190   41.5250 H   0  0  0  0  0  0  0  0  0  0  0  0
   35.9170   28.2310   40.8660 H   0  0  0  0  0  0  0  0  0  0  0  0
   37.3910   30.0720   41.4710 H   0  0  0  0  0  0  0  0  0  0  0  0
   39.1410   28.5080   41.4470 C   0  0  1  0  0  0  0  0  0  0  0  0
   40.0310   28.9480   40.3430 C   0  0  0  0  0  0  0  0  0  0  0  0
   38.6300   28.5470   40.0540 C   0  0  2  0  0  0  0  0  0  0  0  0
   38.8550   29.3200   42.1650 H   0  0  0  0  0  0  0  0  0  0  0  0
   40.2920   30.0390   40.2660 H   0  0  0  0  0  0  0  0  0  0  0  0
   40.8810   28.2990   40.0540 H   0  0  0  0  0  0  0  0  0  0  0  0
   38.5030   27.5420   39.5760 H   0  0  0  0  0  0  0  0  0  0  0  0
   38.7130   26.0510   41.7660 C   0  0  0  0  0  0  0  0  0  0  0  0
   39.4020   27.2210   42.1010 C   0  0  0  0  0  0  0  0  0  0  0  0
   40.3880   27.1130   43.0990 C   0  0  0  0  0  0  0  0  0  0  0  0
   40.6240   25.9080   43.6800 N   0  0  0  0  0  0  0  0  0  0  0  0
   39.9260   24.8010   43.3170 C   0  0  0  0  0  0  0  0  0  0  0  0
   38.9670   24.8620   42.3580 N   0  0  0  0  0  0  0  0  0  0  0  0
   37.9550   26.1680   40.9880 H   0  0  0  0  0  0  0  0  0  0  0  0
   40.9490   27.9930   43.3980 H   0  0  0  0  0  0  0  0  0  0  0  0
   40.1540   23.8700   43.8170 H   0  0  0  0  0  0  0  0  0  0  0  0
   36.5040   31.4820   40.2730 N   0  0  0  0  0  0  0  0  0  0  0  0
   35.6510   32.0520   39.9730 H   0  0  0  0  0  0  0  0  0  0  0  0
   37.6760   32.2740   40.5760 C   0  0  0  0  0  0  0  0  0  0  0  0
   38.8370   32.2500   41.3190 C   0  0  0  0  0  0  0  0  0  0  0  0
   38.9620   31.3650   41.8950 H   0  0  0  0  0  0  0  0  0  0  0  0
   39.5140   33.3880   41.1080 N   0  0  0  0  0  0  0  0  0  0  0  0
   40.4280   33.5490   41.5930 H   0  0  0  0  0  0  0  0  0  0  0  0
   38.8310   34.1610   40.2450 C   0  0  0  0  0  0  0  0  0  0  0  0
   39.2190   35.1230   39.9480 H   0  0  0  0  0  0  0  0  0  0  0  0
   37.6990   33.4710   39.9180 N   0  0  0  0  0  0  0  0  0  0  0  0
  1  2  1  6  0  0  0
  1 18  1  0  0  0  0
  1  6  1  0  0  0  0
  2  8  1  0  0  0  0
  3  2  1  0  0  0  0
  3  4  1  0  0  0  0
  4 11  1  0  0  0  0
  4  5  1  0  0  0  0
  5 14  1  0  0  0  0
  5 13  1  0  0  0  0
  6  5  1  0  0  0  0
  6 15  1  1  0  0  0
  7  2  1  0  0  0  0
  9  3  1  0  0  0  0
 10  3  1  0  0  0  0
 12  4  1  0  0  0  0
 16 24  1  0  0  0  0
 16 19  1  1  0  0  0
 17 16  1  0  0  0  0
 18 22  1  6  0  0  0
 18 17  1  0  0  0  0
 18 16  1  0  0  0  0
 20 17  1  0  0  0  0
 21 17  1  0  0  0  0
 23 24  2  0  0  0  0
 23 28  1  0  0  0  0
 24 25  1  0  0  0  0
 25 30  1  0  0  0  0
 25 26  2  0  0  0  0
 27 26  1  0  0  0  0
 27 31  1  0  0  0  0
 28 27  2  0  0  0  0
 29 23  1  0  0  0  0
 32  6  1  0  0  0  0
 32 34  1  0  0  0  0
 33 32  1  0  0  0  0
 34 35  2  0  0  0  0
 35 36  1  0  0  0  0
 37 35  1  0  0  0  0
 37 38  1  0  0  0  0
 39 37  1  0  0  0  0
 40 39  1  0  0  0  0
 41 39  2  0  0  0  0
 41 34  1  0  0  0  0
M  END
>  <minimizedAffinity>
-5.03287077

$$$$

 OpenBabel03252506483D

 41 44  0  0  1  0  0  0  0  0999 V2000
   37.9390   25.8050   42.5570 N   0  0  1  0  0  0  0  0  0  0  0  0
   37.1320   24.8300   41.8680 C   0  0  0  0  0  0  0  0  0  0  0  0
   37.9170   23.6200   41.4420 C   0  0  0  0  0  0  0  0  0  0  0  0
   38.8770   24.0410   40.3480 C   0  0  0  0  0  0  0  0  0  0  0  0
   39.4440   25.4050   40.6380 C   0  0  0  0  0  0  0  0  0  0  0  0
   39.2840   25.7050   42.1070 C   0  0  2  0  0  0  0  0  0  0  0  0
   36.2790   24.5390   42.4970 H   0  0  0  0  0  0  0  0  0  0  0  0
   36.6990   25.2890   40.9340 H   0  0  0  0  0  0  0  0  0  0  0  0
   38.3820   23.0790   42.2620 H   0  0  0  0  0  0  0  0  0  0  0  0
   37.1900   22.9370   40.9620 H   0  0  0  0  0  0  0  0  0  0  0  0
   39.6670   23.2590   40.2980 H   0  0  0  0  0  0  0  0  0  0  0  0
   38.3370   24.0440   39.3780 H   0  0  0  0  0  0  0  0  0  0  0  0
   40.5080   25.4970   40.4010 H   0  0  0  0  0  0  0  0  0  0  0  0
   38.8150   26.1470   40.0920 H   0  0  0  0  0  0  0  0  0  0  0  0
   39.7440   26.7190   42.2680 H   0  0  0  0  0  0  0  0  0  0  0  0
   37.9580   28.3770   42.7650 C   0  0  1  0  0  0  0  0  0  0  0  0
   36.8410   27.7960   43.5520 C   0  0  0  0  0  0  0  0  0  0  0  0
   37.3510   27.0880   42.3490 C   0  0  2  0  0  0  0  0  0  0  0  0
   38.9470   28.3800   43.2940 H   0  0  0  0  0  0  0  0  0  0  0  0
   37.0680   27.3510   44.5580 H   0  0  0  0  0  0  0  0  0  0  0  0
   35.8580   28.3060   43.5370 H   0  0  0  0  0  0  0  0  0  0  0  0
   36.7030   27.1510   41.4380 H   0  0  0  0  0  0  0  0  0  0  0  0
   36.4720   29.8960   41.4210 C   0  0  0  0  0  0  0  0  0  0  0  0
   37.7180   29.5930   41.9800 C   0  0  0  0  0  0  0  0  0  0  0  0
   38.7510   30.5250   41.7710 C   0  0  0  0  0  0  0  0  0  0  0  0
   38.5010   31.6510   41.0550 N   0  0  0  0  0  0  0  0  0  0  0  0
   37.2720   31.8990   40.5330 C   0  0  0  0  0  0  0  0  0  0  0  0
   36.2480   31.0260   40.7130 N   0  0  0  0  0  0  0  0  0  0  0  0
   35.6910   29.1530   41.6020 H   0  0  0  0  0  0  0  0  0  0  0  0
   39.7380   30.3350   42.1810 H   0  0  0  0  0  0  0  0  0  0  0  0
   37.1330   32.8100   39.9680 H   0  0  0  0  0  0  0  0  0  0  0  0
   40.1170   24.7950   42.8750 N   0  0  0  0  0  0  0  0  0  0  0  0
   40.0610   23.8010   43.2630 H   0  0  0  0  0  0  0  0  0  0  0  0
   41.3580   25.4810   43.1620 C   0  0  0  0  0  0  0  0  0  0  0  0
   42.7150   25.2640   43.2660 C   0  0  0  0  0  0  0  0  0  0  0  0
   43.0070   24.2580   43.0880 H   0  0  0  0  0  0  0  0  0  0  0  0
   43.3190   26.4210   43.5760 N   0  0  0  0  0  0  0  0  0  0  0  0
   44.3590   26.4510   43.6960 H   0  0  0  0  0  0  0  0  0  0  0  0
   42.3960   27.3930   43.6780 C   0  0  0  0  0  0  0  0  0  0  0  0
   42.6900   28.4030   43.9210 H   0  0  0  0  0  0  0  0  0  0  0  0
   41.1880   26.8110   43.4220 N   0  0  0  0  0  0  0  0  0  0  0  0
  1  2  1  6  0  0  0
  2  7  1  0  0  0  0
  3  2  1  0  0  0  0
  3  9  1  0  0  0  0
  4  5  1  0  0  0  0
  4  3  1  0  0  0  0
  5  6  1  0  0  0  0
  6 15  1  1  0  0  0
  6  1  1  0  0  0  0
  6 32  1  0  0  0  0
  8  2  1  0  0  0  0
 10  3  1  0  0  0  0
 11  4  1  0  0  0  0
 12  4  1  0  0  0  0
 13  5  1  0  0  0  0
 14  5  1  0  0  0  0
 16 19  1  1  0  0  0
 16 17  1  0  0  0  0
 17 20  1  0  0  0  0
 18 22  1  6  0  0  0
 18  1  1  0  0  0  0
 18 16  1  0  0  0  0
 18 17  1  0  0  0  0
 21 17  1  0  0  0  0
 23 29  1  0  0  0  0
 23 24  1  0  0  0  0
 24 16  1  0  0  0  0
 25 24  2  0  0  0  0
 25 30  1  0  0  0  0
 26 25  1  0  0  0  0
 27 28  1  0  0  0  0
 27 26  2  0  0  0  0
 28 23  2  0  0  0  0
 31 27  1  0  0  0  0
 32 34  1  0  0  0  0
 32 33  1  0  0  0  0
 34 35  2  0  0  0  0
 34 41  1  0  0  0  0
 35 37  1  0  0  0  0
 36 35  1  0  0  0  0
 37 39  1  0  0  0  0
 37 38  1  0  0  0  0
 39 40  1  0  0  0  0
 41 39  2  0  0  0  0
M  END
>  <minimizedAffinity>
-5.0284071

$$$$

 OpenBabel03252506483D

 41 44  0  0  1  0  0  0  0  0999 V2000
   36.8610   29.1360   41.6110 N   0  0  1  0  0  0  0  0  0  0  0  0
   37.1540   28.2350   42.6960 C   0  0  0  0  0  0  0  0  0  0  0  0
   38.5160   28.4630   43.2910 C   0  0  0  0  0  0  0  0  0  0  0  0
   39.5540   28.0480   42.2680 C   0  0  0  0  0  0  0  0  0  0  0  0
   39.1180   28.4420   40.8820 C   0  0  0  0  0  0  0  0  0  0  0  0
   38.0750   29.5270   40.9820 C   0  0  2  0  0  0  0  0  0  0  0  0
   36.3750   28.3120   43.4680 H   0  0  0  0  0  0  0  0  0  0  0  0
   37.1300   27.1720   42.3220 H   0  0  0  0  0  0  0  0  0  0  0  0
   38.6630   29.4590   43.6990 H   0  0  0  0  0  0  0  0  0  0  0  0
   38.6090   27.7430   44.1270 H   0  0  0  0  0  0  0  0  0  0  0  0
   40.5080   28.5370   42.5650 H   0  0  0  0  0  0  0  0  0  0  0  0
   39.7000   26.9490   42.3300 H   0  0  0  0  0  0  0  0  0  0  0  0
   39.9300   28.8290   40.2610 H   0  0  0  0  0  0  0  0  0  0  0  0
   38.6130   27.5560   40.4310 H   0  0  0  0  0  0  0  0  0  0  0  0
   37.8060   29.7970   39.9230 H   0  0  0  0  0  0  0  0  0  0  0  0
   35.8070   28.7610   39.2850 C   0  0  1  0  0  0  0  0  0  0  0  0
   34.8030   29.3060   40.2340 C   0  0  0  0  0  0  0  0  0  0  0  0
   35.9370   28.4890   40.7380 C   0  0  2  0  0  0  0  0  0  0  0  0
   36.4610   29.5370   38.8060 H   0  0  0  0  0  0  0  0  0  0  0  0
   34.8130   30.4080   40.4520 H   0  0  0  0  0  0  0  0  0  0  0  0
   33.7740   28.8980   40.2110 H   0  0  0  0  0  0  0  0  0  0  0  0
   35.6830   27.4410   41.0400 H   0  0  0  0  0  0  0  0  0  0  0  0
   36.1300   26.4970   38.2400 C   0  0  0  0  0  0  0  0  0  0  0  0
   35.4100   27.6900   38.3660 C   0  0  0  0  0  0  0  0  0  0  0  0
   34.2540   27.8200   37.5740 C   0  0  0  0  0  0  0  0  0  0  0  0
   33.8960   26.8080   36.7410 N   0  0  0  0  0  0  0  0  0  0  0  0
   34.6310   25.6690   36.6560 C   0  0  0  0  0  0  0  0  0  0  0  0
   35.7520   25.5040   37.4050 N   0  0  0  0  0  0  0  0  0  0  0  0
   37.0210   26.4280   38.8690 H   0  0  0  0  0  0  0  0  0  0  0  0
   33.6610   28.7280   37.6310 H   0  0  0  0  0  0  0  0  0  0  0  0
   34.3000   24.9000   35.9730 H   0  0  0  0  0  0  0  0  0  0  0  0
   38.6840   30.7280   41.5270 N   0  0  0  0  0  0  0  0  0  0  0  0
   39.4130   30.9870   42.2640 H   0  0  0  0  0  0  0  0  0  0  0  0
   38.1040   31.8590   40.8360 C   0  0  0  0  0  0  0  0  0  0  0  0
   36.9960   32.2290   40.1040 C   0  0  0  0  0  0  0  0  0  0  0  0
   36.2910   31.4470   39.9630 H   0  0  0  0  0  0  0  0  0  0  0  0
   37.1140   33.5190   39.7560 N   0  0  0  0  0  0  0  0  0  0  0  0
   36.3610   33.9790   39.1920 H   0  0  0  0  0  0  0  0  0  0  0  0
   38.2700   34.0090   40.2400 C   0  0  0  0  0  0  0  0  0  0  0  0
   38.5430   35.0370   40.0640 H   0  0  0  0  0  0  0  0  0  0  0  0
   38.8770   32.9840   40.9050 N   0  0  0  0  0  0  0  0  0  0  0  0
  1  2  1  1  0  0  0
  2  3  1  0  0  0  0
  2  7  1  0  0  0  0
  3  9  1  0  0  0  0
  3 10  1  0  0  0  0
  4 12  1  0  0  0  0
  4 11  1  0  0  0  0
  4  3  1  0  0  0  0
  5  6  1  0  0  0  0
  5  4  1  0  0  0  0
  6 15  1  6  0  0  0
  6 32  1  0  0  0  0
  6  1  1  0  0  0  0
  8  2  1  0  0  0  0
 13  5  1  0  0  0  0
 14  5  1  0  0  0  0
 16 19  1  6  0  0  0
 16 17  1  0  0  0  0
 16 18  1  0  0  0  0
 17 20  1  0  0  0  0
 17 18  1  0  0  0  0
 18 22  1  1  0  0  0
 18  1  1  0  0  0  0
 21 17  1  0  0  0  0
 23 24  1  0  0  0  0
 23 29  1  0  0  0  0
 24 16  1  0  0  0  0
 25 30  1  0  0  0  0
 25 24  2  0  0  0  0
 26 25  1  0  0  0  0
 27 26  2  0  0  0  0
 27 28  1  0  0  0  0
 28 23  2  0  0  0  0
 31 27  1  0  0  0  0
 32 33  1  0  0  0  0
 34 41  1  0  0  0  0
 34 32  1  0  0  0  0
 35 34  2  0  0  0  0
 36 35  1  0  0  0  0
 37 35  1  0  0  0  0
 37 39  1  0  0  0  0
 38 37  1  0  0  0  0
 39 41  2  0  0  0  0
 40 39  1  0  0  0  0
M  END
>  <minimizedAffinity>
-4.98114729

$$$$

 OpenBabel03252506483D

 41 44  0  0  1  0  0  0  0  0999 V2000
   36.8170   28.8220   41.7940 N   0  0  1  0  0  0  0  0  0  0  0  0
   36.5710   27.6280   42.5600 C   0  0  0  0  0  0  0  0  0  0  0  0
   37.5580   27.4390   43.6790 C   0  0  0  0  0  0  0  0  0  0  0  0
   38.9100   27.1300   43.0690 C   0  0  0  0  0  0  0  0  0  0  0  0
   39.1290   27.9510   41.8260 C   0  0  0  0  0  0  0  0  0  0  0  0
   38.2030   29.1390   41.8490 C   0  0  2  0  0  0  0  0  0  0  0  0
   35.5420   27.6370   42.9470 H   0  0  0  0  0  0  0  0  0  0  0  0
   36.6530   26.7250   41.8910 H   0  0  0  0  0  0  0  0  0  0  0  0
   37.5690   28.2470   44.4050 H   0  0  0  0  0  0  0  0  0  0  0  0
   37.2470   26.5180   44.2100 H   0  0  0  0  0  0  0  0  0  0  0  0
   39.6700   27.3420   43.8530 H   0  0  0  0  0  0  0  0  0  0  0  0
   38.9570   26.0470   42.8310 H   0  0  0  0  0  0  0  0  0  0  0  0
   40.1480   28.3340   41.7280 H   0  0  0  0  0  0  0  0  0  0  0  0
   38.8200   27.3230   40.9570 H   0  0  0  0  0  0  0  0  0  0  0  0
   38.4260   29.7250   40.9140 H   0  0  0  0  0  0  0  0  0  0  0  0
   36.2960   29.6320   39.4000 C   0  0  1  0  0  0  0  0  0  0  0  0
   35.0450   29.2790   40.1180 C   0  0  0  0  0  0  0  0  0  0  0  0
   36.3220   28.6080   40.4740 C   0  0  2  0  0  0  0  0  0  0  0  0
   36.6760   30.6660   39.6100 H   0  0  0  0  0  0  0  0  0  0  0  0
   34.6190   30.0180   40.8490 H   0  0  0  0  0  0  0  0  0  0  0  0
   34.2520   28.7370   39.5680 H   0  0  0  0  0  0  0  0  0  0  0  0
   36.4340   27.5550   40.1100 H   0  0  0  0  0  0  0  0  0  0  0  0
   35.3810   29.2420   37.0910 C   0  0  0  0  0  0  0  0  0  0  0  0
   36.4470   29.2340   37.9960 C   0  0  0  0  0  0  0  0  0  0  0  0
   37.7020   28.8370   37.4970 C   0  0  0  0  0  0  0  0  0  0  0  0
   37.8220   28.4870   36.1900 N   0  0  0  0  0  0  0  0  0  0  0  0
   36.7540   28.5120   35.3510 C   0  0  0  0  0  0  0  0  0  0  0  0
   35.5270   28.8900   35.7940 N   0  0  0  0  0  0  0  0  0  0  0  0
   34.4220   29.5550   37.5090 H   0  0  0  0  0  0  0  0  0  0  0  0
   38.5610   28.8100   38.1600 H   0  0  0  0  0  0  0  0  0  0  0  0
   36.9080   28.2190   34.3230 H   0  0  0  0  0  0  0  0  0  0  0  0
   38.5830   30.0220   42.9380 N   0  0  0  0  0  0  0  0  0  0  0  0
   38.3020   30.1980   43.9540 H   0  0  0  0  0  0  0  0  0  0  0  0
   39.6450   30.8770   42.4540 C   0  0  0  0  0  0  0  0  0  0  0  0
   40.9740   31.1750   42.6610 C   0  0  0  0  0  0  0  0  0  0  0  0
   41.4260   30.6130   43.4420 H   0  0  0  0  0  0  0  0  0  0  0  0
   41.3490   32.1250   41.7920 N   0  0  0  0  0  0  0  0  0  0  0  0
   42.3350   32.4810   41.8010 H   0  0  0  0  0  0  0  0  0  0  0  0
   40.3020   32.4610   41.0180 C   0  0  0  0  0  0  0  0  0  0  0  0
   40.4090   33.2130   40.2520 H   0  0  0  0  0  0  0  0  0  0  0  0
   39.2540   31.6890   41.4270 N   0  0  0  0  0  0  0  0  0  0  0  0
  1  6  1  0  0  0  0
  1  2  1  1  0  0  0
  2  7  1  0  0  0  0
  2  3  1  0  0  0  0
  3 10  1  0  0  0  0
  3  9  1  0  0  0  0
  4  3  1  0  0  0  0
  4 11  1  0  0  0  0
  5  6  1  0  0  0  0
  5  4  1  0  0  0  0
  6 15  1  6  0  0  0
  6 32  1  0  0  0  0
  8  2  1  0  0  0  0
 12  4  1  0  0  0  0
 13  5  1  0  0  0  0
 14  5  1  0  0  0  0
 16 19  1  1  0  0  0
 16 17  1  0  0  0  0
 16 18  1  0  0  0  0
 17 18  1  0  0  0  0
 17 20  1  0  0  0  0
 18 22  1  6  0  0  0
 18  1  1  0  0  0  0
 21 17  1  0  0  0  0
 23 29  1  0  0  0  0
 23 24  1  0  0  0  0
 24 16  1  0  0  0  0
 25 24  2  0  0  0  0
 25 30  1  0  0  0  0
 26 25  1  0  0  0  0
 27 28  1  0  0  0  0
 27 26  2  0  0  0  0
 28 23  2  0  0  0  0
 31 27  1  0  0  0  0
 32 33  1  0  0  0  0
 34 35  2  0  0  0  0
 34 32  1  0  0  0  0
 35 36  1  0  0  0  0
 37 38  1  0  0  0  0
 37 35  1  0  0  0  0
 39 41  2  0  0  0  0
 39 37  1  0  0  0  0
 40 39  1  0  0  0  0
 41 34  1  0  0  0  0
M  END
>  <minimizedAffinity>
-4.96182632

$$$$

 OpenBabel03252506483D

 41 44  0  0  1  0  0  0  0  0999 V2000
   36.7270   30.0760   38.7360 N   0  0  1  0  0  0  0  0  0  0  0  0
   36.1320   29.7010   37.4790 C   0  0  0  0  0  0  0  0  0  0  0  0
   35.8450   28.2280   37.3860 C   0  0  0  0  0  0  0  0  0  0  0  0
   37.1690   27.4920   37.3220 C   0  0  0  0  0  0  0  0  0  0  0  0
   38.1780   28.1410   38.2310 C   0  0  0  0  0  0  0  0  0  0  0  0
   37.4550   28.9720   39.2590 C   0  0  2  0  0  0  0  0  0  0  0  0
   35.2170   30.2870   37.3080 H   0  0  0  0  0  0  0  0  0  0  0  0
   36.8360   29.9550   36.6360 H   0  0  0  0  0  0  0  0  0  0  0  0
   35.1640   27.8570   38.1470 H   0  0  0  0  0  0  0  0  0  0  0  0
   35.3630   28.0710   36.4020 H   0  0  0  0  0  0  0  0  0  0  0  0
   36.9620   26.4370   37.6070 H   0  0  0  0  0  0  0  0  0  0  0  0
   37.5320   27.4980   36.2730 H   0  0  0  0  0  0  0  0  0  0  0  0
   38.8030   27.4250   38.7720 H   0  0  0  0  0  0  0  0  0  0  0  0
   38.7740   28.8510   37.6100 H   0  0  0  0  0  0  0  0  0  0  0  0
   38.2540   29.4100   39.9210 H   0  0  0  0  0  0  0  0  0  0  0  0
   38.6050   31.7110   39.4130 C   0  0  1  0  0  0  0  0  0  0  0  0
   37.2860   32.3930   39.4300 C   0  0  0  0  0  0  0  0  0  0  0  0
   37.5180   31.2420   38.5180 C   0  0  2  0  0  0  0  0  0  0  0  0
   38.8420   31.1360   40.3460 H   0  0  0  0  0  0  0  0  0  0  0  0
   36.6100   32.2330   40.3130 H   0  0  0  0  0  0  0  0  0  0  0  0
   37.2160   33.4250   39.0370 H   0  0  0  0  0  0  0  0  0  0  0  0
   37.6610   31.5020   37.4380 H   0  0  0  0  0  0  0  0  0  0  0  0
   40.3490   33.5210   39.4920 C   0  0  0  0  0  0  0  0  0  0  0  0
   39.7640   32.4190   38.8580 C   0  0  0  0  0  0  0  0  0  0  0  0
   40.3510   31.9950   37.6520 C   0  0  0  0  0  0  0  0  0  0  0  0
   41.4330   32.6560   37.1650 N   0  0  0  0  0  0  0  0  0  0  0  0
   41.9640   33.7210   37.8200 C   0  0  0  0  0  0  0  0  0  0  0  0
   41.4280   34.1610   38.9870 N   0  0  0  0  0  0  0  0  0  0  0  0
   39.8710   33.8250   40.4260 H   0  0  0  0  0  0  0  0  0  0  0  0
   39.9330   31.1460   37.1190 H   0  0  0  0  0  0  0  0  0  0  0  0
   42.8220   34.2100   37.3830 H   0  0  0  0  0  0  0  0  0  0  0  0
   36.6910   28.0980   40.1320 N   0  0  0  0  0  0  0  0  0  0  0  0
   36.0180   27.2720   40.0400 H   0  0  0  0  0  0  0  0  0  0  0  0
   36.9590   28.5020   41.4950 C   0  0  0  0  0  0  0  0  0  0  0  0
   37.3580   29.5890   42.2430 C   0  0  0  0  0  0  0  0  0  0  0  0
   37.5550   30.4600   41.6680 H   0  0  0  0  0  0  0  0  0  0  0  0
   37.3890   29.2390   43.5370 N   0  0  0  0  0  0  0  0  0  0  0  0
   37.6710   29.9410   44.2620 H   0  0  0  0  0  0  0  0  0  0  0  0
   37.0230   27.9510   43.6620 C   0  0  0  0  0  0  0  0  0  0  0  0
   36.9850   27.4850   44.6340 H   0  0  0  0  0  0  0  0  0  0  0  0
   36.7570   27.5000   42.4010 N   0  0  0  0  0  0  0  0  0  0  0  0
  1  2  1  6  0  0  0
  1  6  1  0  0  0  0
  3  2  1  0  0  0  0
  3  9  1  0  0  0  0
  4  3  1  0  0  0  0
  4 11  1  0  0  0  0
  4  5  1  0  0  0  0
  5 13  1  0  0  0  0
  5  6  1  0  0  0  0
  6 15  1  1  0  0  0
  6 32  1  0  0  0  0
  7  2  1  0  0  0  0
  8  2  1  0  0  0  0
 10  3  1  0  0  0  0
 12  4  1  0  0  0  0
 14  5  1  0  0  0  0
 16 17  1  0  0  0  0
 16 19  1  1  0  0  0
 17 20  1  0  0  0  0
 18 22  1  6  0  0  0
 18  1  1  0  0  0  0
 18 16  1  0  0  0  0
 18 17  1  0  0  0  0
 21 17  1  0  0  0  0
 23 29  1  0  0  0  0
 24 16  1  0  0  0  0
 24 23  2  0  0  0  0
 25 24  1  0  0  0  0
 26 25  2  0  0  0  0
 26 27  1  0  0  0  0
 27 28  2  0  0  0  0
 28 23  1  0  0  0  0
 30 25  1  0  0  0  0
 31 27  1  0  0  0  0
 32 34  1  0  0  0  0
 33 32  1  0  0  0  0
 34 35  2  0  0  0  0
 34 41  1  0  0  0  0
 35 37  1  0  0  0  0
 36 35  1  0  0  0  0
 37 39  1  0  0  0  0
 37 38  1  0  0  0  0
 39 40  1  0  0  0  0
 41 39  2  0  0  0  0
M  END
>  <minimizedAffinity>
-4.9469018

$$$$

 OpenBabel03252506483D

 41 44  0  0  1  0  0  0  0  0999 V2000
   38.0970   31.2550   39.1740 N   0  0  1  0  0  0  0  0  0  0  0  0
   37.1370   32.1180   39.8150 C   0  0  0  0  0  0  0  0  0  0  0  0
   37.4390   33.5770   39.6120 C   0  0  0  0  0  0  0  0  0  0  0  0
   38.7010   33.9100   40.3810 C   0  0  0  0  0  0  0  0  0  0  0  0
   39.6920   32.7800   40.2850 C   0  0  0  0  0  0  0  0  0  0  0  0
   39.3500   31.9230   39.0940 C   0  0  2  0  0  0  0  0  0  0  0  0
   36.1240   31.8780   39.4620 H   0  0  0  0  0  0  0  0  0  0  0  0
   37.1420   31.9300   40.9260 H   0  0  0  0  0  0  0  0  0  0  0  0
   37.4540   33.8890   38.5720 H   0  0  0  0  0  0  0  0  0  0  0  0
   36.6220   34.1310   40.1150 H   0  0  0  0  0  0  0  0  0  0  0  0
   39.0970   34.8560   39.9510 H   0  0  0  0  0  0  0  0  0  0  0  0
   38.4350   34.1020   41.4420 H   0  0  0  0  0  0  0  0  0  0  0  0
   40.7260   33.1150   40.1590 H   0  0  0  0  0  0  0  0  0  0  0  0
   39.5530   32.1410   41.1880 H   0  0  0  0  0  0  0  0  0  0  0  0
   40.1330   31.1150   39.0570 H   0  0  0  0  0  0  0  0  0  0  0  0
   39.3500   29.1890   40.0810 C   0  0  1  0  0  0  0  0  0  0  0  0
   38.3050   28.7830   39.1060 C   0  0  0  0  0  0  0  0  0  0  0  0
   38.1390   30.0280   39.9000 C   0  0  2  0  0  0  0  0  0  0  0  0
   40.3190   29.5080   39.6160 H   0  0  0  0  0  0  0  0  0  0  0  0
   38.5260   28.8860   38.0090 H   0  0  0  0  0  0  0  0  0  0  0  0
   37.6970   27.8840   39.3230 H   0  0  0  0  0  0  0  0  0  0  0  0
   37.4030   29.9710   40.7420 H   0  0  0  0  0  0  0  0  0  0  0  0
   38.6270   28.4590   42.3760 C   0  0  0  0  0  0  0  0  0  0  0  0
   39.5250   28.4000   41.3050 C   0  0  0  0  0  0  0  0  0  0  0  0
   40.6180   27.5240   41.4400 C   0  0  0  0  0  0  0  0  0  0  0  0
   40.7510   26.7920   42.5760 N   0  0  0  0  0  0  0  0  0  0  0  0
   39.8500   26.8860   43.5880 C   0  0  0  0  0  0  0  0  0  0  0  0
   38.7810   27.7180   43.4960 N   0  0  0  0  0  0  0  0  0  0  0  0
   37.7890   29.1480   42.2390 H   0  0  0  0  0  0  0  0  0  0  0  0
   41.3460   27.4440   40.6390 H   0  0  0  0  0  0  0  0  0  0  0  0
   40.0100   26.2820   44.4700 H   0  0  0  0  0  0  0  0  0  0  0  0
   39.5540   32.6900   37.8770 N   0  0  0  0  0  0  0  0  0  0  0  0
   38.9840   33.3210   37.2290 H   0  0  0  0  0  0  0  0  0  0  0  0
   40.9330   32.5150   37.4790 C   0  0  0  0  0  0  0  0  0  0  0  0
   42.0950   33.2240   37.2600 C   0  0  0  0  0  0  0  0  0  0  0  0
   41.9990   34.2700   37.4190 H   0  0  0  0  0  0  0  0  0  0  0  0
   43.0630   32.3720   36.8930 N   0  0  0  0  0  0  0  0  0  0  0  0
   44.0240   32.7320   36.6830 H   0  0  0  0  0  0  0  0  0  0  0  0
   42.5710   31.1210   36.8640 C   0  0  0  0  0  0  0  0  0  0  0  0
   43.2040   30.2900   36.5910 H   0  0  0  0  0  0  0  0  0  0  0  0
   41.2580   31.2120   37.2270 N   0  0  0  0  0  0  0  0  0  0  0  0
  1  2  1  1  0  0  0
  1 18  1  0  0  0  0
  2  8  1  0  0  0  0
  3  2  1  0  0  0  0
  3 10  1  0  0  0  0
  3  4  1  0  0  0  0
  4 12  1  0  0  0  0
  5  4  1  0  0  0  0
  5 14  1  0  0  0  0
  6 15  1  6  0  0  0
  6  1  1  0  0  0  0
  6  5  1  0  0  0  0
  7  2  1  0  0  0  0
  9  3  1  0  0  0  0
 11  4  1  0  0  0  0
 13  5  1  0  0  0  0
 16 19  1  6  0  0  0
 16 24  1  0  0  0  0
 17 21  1  0  0  0  0
 17 18  1  0  0  0  0
 17 16  1  0  0  0  0
 18 16  1  0  0  0  0
 18 22  1  1  0  0  0
 20 17  1  0  0  0  0
 23 28  1  0  0  0  0
 24 25  1  0  0  0  0
 24 23  2  0  0  0  0
 25 26  2  0  0  0  0
 26 27  1  0  0  0  0
 27 31  1  0  0  0  0
 28 27  2  0  0  0  0
 29 23  1  0  0  0  0
 30 25  1  0  0  0  0
 32  6  1  0  0  0  0
 33 32  1  0  0  0  0
 34 32  1  0  0  0  0
 35 36  1  0  0  0  0
 35 34  2  0  0  0  0
 37 35  1  0  0  0  0
 38 37  1  0  0  0  0
 39 37  1  0  0  0  0
 39 41  2  0  0  0  0
 40 39  1  0  0  0  0
 41 34  1  0  0  0  0
M  END
>  <minimizedAffinity>
-4.8844533

$$$$

 OpenBabel03252506483D

 41 44  0  0  1  0  0  0  0  0999 V2000
   38.7440   30.7180   39.0270 N   0  0  1  0  0  0  0  0  0  0  0  0
   39.5440   31.8640   38.6760 C   0  0  0  0  0  0  0  0  0  0  0  0
   39.7780   32.7900   39.8370 C   0  0  0  0  0  0  0  0  0  0  0  0
   38.4570   33.4430   40.1940 C   0  0  0  0  0  0  0  0  0  0  0  0
   37.3270   32.4580   40.0620 C   0  0  0  0  0  0  0  0  0  0  0  0
   37.8840   31.0580   40.1080 C   0  0  2  0  0  0  0  0  0  0  0  0
   40.4990   31.5350   38.2430 H   0  0  0  0  0  0  0  0  0  0  0  0
   39.0190   32.4610   37.8770 H   0  0  0  0  0  0  0  0  0  0  0  0
   40.2900   32.3300   40.6780 H   0  0  0  0  0  0  0  0  0  0  0  0
   40.4250   33.6020   39.4560 H   0  0  0  0  0  0  0  0  0  0  0  0
   38.5620   33.8290   41.2310 H   0  0  0  0  0  0  0  0  0  0  0  0
   38.2940   34.3120   39.5210 H   0  0  0  0  0  0  0  0  0  0  0  0
   36.5820   32.5380   40.8590 H   0  0  0  0  0  0  0  0  0  0  0  0
   36.8880   32.5920   39.0460 H   0  0  0  0  0  0  0  0  0  0  0  0
   36.9980   30.3690   40.0300 H   0  0  0  0  0  0  0  0  0  0  0  0
   37.0630   29.1840   37.8110 C   0  0  1  0  0  0  0  0  0  0  0  0
   38.4410   28.9560   37.3060 C   0  0  0  0  0  0  0  0  0  0  0  0
   38.0590   30.2830   37.8550 C   0  0  2  0  0  0  0  0  0  0  0  0
   36.8140   28.6240   38.7500 H   0  0  0  0  0  0  0  0  0  0  0  0
   39.1360   28.3170   37.9150 H   0  0  0  0  0  0  0  0  0  0  0  0
   38.5910   28.8110   36.2190 H   0  0  0  0  0  0  0  0  0  0  0  0
   37.8940   31.0910   37.0970 H   0  0  0  0  0  0  0  0  0  0  0  0
   36.1310   29.5730   35.5080 C   0  0  0  0  0  0  0  0  0  0  0  0
   35.9530   29.2310   36.8530 C   0  0  0  0  0  0  0  0  0  0  0  0
   34.6440   28.9100   37.2590 C   0  0  0  0  0  0  0  0  0  0  0  0
   33.6350   28.9450   36.3500 N   0  0  0  0  0  0  0  0  0  0  0  0
   33.8610   29.2840   35.0550 C   0  0  0  0  0  0  0  0  0  0  0  0
   35.1100   29.5990   34.6240 N   0  0  0  0  0  0  0  0  0  0  0  0
   37.1580   29.8160   35.2260 H   0  0  0  0  0  0  0  0  0  0  0  0
   34.4520   28.6410   38.2920 H   0  0  0  0  0  0  0  0  0  0  0  0
   33.0190   29.2990   34.3780 H   0  0  0  0  0  0  0  0  0  0  0  0
   38.4350   30.8040   41.4280 N   0  0  0  0  0  0  0  0  0  0  0  0
   39.2030   31.1980   42.0590 H   0  0  0  0  0  0  0  0  0  0  0  0
   37.6960   29.7020   42.0020 C   0  0  0  0  0  0  0  0  0  0  0  0
   36.6170   28.8790   41.7600 C   0  0  0  0  0  0  0  0  0  0  0  0
   36.1120   29.0860   40.8490 H   0  0  0  0  0  0  0  0  0  0  0  0
   36.4940   28.0110   42.7750 N   0  0  0  0  0  0  0  0  0  0  0  0
   35.7230   27.3020   42.7650 H   0  0  0  0  0  0  0  0  0  0  0  0
   37.4620   28.2410   43.6800 C   0  0  0  0  0  0  0  0  0  0  0  0
   37.5300   27.6380   44.5720 H   0  0  0  0  0  0  0  0  0  0  0  0
   38.2020   29.2820   43.2000 N   0  0  0  0  0  0  0  0  0  0  0  0
  1  2  1  6  0  0  0
  1  6  1  0  0  0  0
  2  3  1  0  0  0  0
  3  4  1  0  0  0  0
  3  9  1  0  0  0  0
  4 11  1  0  0  0  0
  5  6  1  0  0  0  0
  5  4  1  0  0  0  0
  5 13  1  0  0  0  0
  6 15  1  6  0  0  0
  6 32  1  0  0  0  0
  7  2  1  0  0  0  0
  8  2  1  0  0  0  0
 10  3  1  0  0  0  0
 12  4  1  0  0  0  0
 14  5  1  0  0  0  0
 16 18  1  0  0  0  0
 16 19  1  1  0  0  0
 17 16  1  0  0  0  0
 17 18  1  0  0  0  0
 17 20  1  0  0  0  0
 18 22  1  6  0  0  0
 18  1  1  0  0  0  0
 21 17  1  0  0  0  0
 23 24  1  0  0  0  0
 24 25  2  0  0  0  0
 24 16  1  0  0  0  0
 25 30  1  0  0  0  0
 26 25  1  0  0  0  0
 27 26  2  0  0  0  0
 28 27  1  0  0  0  0
 28 23  2  0  0  0  0
 29 23  1  0  0  0  0
 31 27  1  0  0  0  0
 32 34  1  0  0  0  0
 32 33  1  0  0  0  0
 34 41  1  0  0  0  0
 35 34  2  0  0  0  0
 35 37  1  0  0  0  0
 36 35  1  0  0  0  0
 37 39  1  0  0  0  0
 38 37  1  0  0  0  0
 39 40  1  0  0  0  0
 41 39  2  0  0  0  0
M  END
>  <minimizedAffinity>
-4.82420492

$$$$

 OpenBabel03252506483D

 41 44  0  0  1  0  0  0  0  0999 V2000
   36.8270   30.4990   39.9970 N   0  0  1  0  0  0  0  0  0  0  0  0
   36.9630   31.8020   40.5950 C   0  0  0  0  0  0  0  0  0  0  0  0
   37.4350   32.8450   39.6190 C   0  0  0  0  0  0  0  0  0  0  0  0
   38.8720   32.5320   39.2520 C   0  0  0  0  0  0  0  0  0  0  0  0
   39.0730   31.0450   39.1240 C   0  0  0  0  0  0  0  0  0  0  0  0
   37.7360   30.3830   38.9090 C   0  0  2  0  0  0  0  0  0  0  0  0
   36.0120   32.1040   41.0560 H   0  0  0  0  0  0  0  0  0  0  0  0
   37.7220   31.7590   41.4270 H   0  0  0  0  0  0  0  0  0  0  0  0
   36.7770   32.9890   38.7670 H   0  0  0  0  0  0  0  0  0  0  0  0
   37.4660   33.7980   40.1810 H   0  0  0  0  0  0  0  0  0  0  0  0
   39.0820   33.0690   38.3010 H   0  0  0  0  0  0  0  0  0  0  0  0
   39.5410   32.9470   40.0350 H   0  0  0  0  0  0  0  0  0  0  0  0
   39.7150   30.7610   38.2850 H   0  0  0  0  0  0  0  0  0  0  0  0
   39.4560   30.6780   40.1040 H   0  0  0  0  0  0  0  0  0  0  0  0
   37.9500   29.2830   38.7970 H   0  0  0  0  0  0  0  0  0  0  0  0
   37.2840   28.0830   40.7800 C   0  0  1  0  0  0  0  0  0  0  0  0
   35.9320   28.5250   41.2070 C   0  0  0  0  0  0  0  0  0  0  0  0
   37.0170   29.5230   41.0190 C   0  0  2  0  0  0  0  0  0  0  0  0
   37.3350   27.6950   39.7290 H   0  0  0  0  0  0  0  0  0  0  0  0
   35.0990   28.5090   40.4530 H   0  0  0  0  0  0  0  0  0  0  0  0
   35.5780   28.2520   42.2200 H   0  0  0  0  0  0  0  0  0  0  0  0
   37.4680   29.9300   41.9600 H   0  0  0  0  0  0  0  0  0  0  0  0
   38.3420   25.9470   41.5810 C   0  0  0  0  0  0  0  0  0  0  0  0
   38.1120   27.3200   41.7210 C   0  0  0  0  0  0  0  0  0  0  0  0
   38.7300   27.9600   42.8100 C   0  0  0  0  0  0  0  0  0  0  0  0
   39.5050   27.2360   43.6590 N   0  0  0  0  0  0  0  0  0  0  0  0
   39.6970   25.9040   43.4790 C   0  0  0  0  0  0  0  0  0  0  0  0
   39.1200   25.2500   42.4390 N   0  0  0  0  0  0  0  0  0  0  0  0
   37.8490   25.4810   40.7250 H   0  0  0  0  0  0  0  0  0  0  0  0
   38.5800   29.0240   42.9660 H   0  0  0  0  0  0  0  0  0  0  0  0
   40.3210   25.3790   44.1890 H   0  0  0  0  0  0  0  0  0  0  0  0
   37.2000   30.7890   37.6220 N   0  0  0  0  0  0  0  0  0  0  0  0
   36.7630   31.6590   37.1800 H   0  0  0  0  0  0  0  0  0  0  0  0
   37.3230   29.6610   36.7250 C   0  0  0  0  0  0  0  0  0  0  0  0
   38.0440   28.5010   36.5370 C   0  0  0  0  0  0  0  0  0  0  0  0
   38.7860   28.3280   37.2770 H   0  0  0  0  0  0  0  0  0  0  0  0
   37.5990   27.8850   35.4320 N   0  0  0  0  0  0  0  0  0  0  0  0
   38.0310   26.9800   35.1280 H   0  0  0  0  0  0  0  0  0  0  0  0
   36.6040   28.6080   34.8870 C   0  0  0  0  0  0  0  0  0  0  0  0
   36.1130   28.2710   33.9870 H   0  0  0  0  0  0  0  0  0  0  0  0
   36.4360   29.7010   35.6870 N   0  0  0  0  0  0  0  0  0  0  0  0
  1  2  1  1  0  0  0
  1 18  1  0  0  0  0
  2  7  1  0  0  0  0
  2  8  1  0  0  0  0
  3 10  1  0  0  0  0
  3  2  1  0  0  0  0
  4  3  1  0  0  0  0
  4 12  1  0  0  0  0
  5  4  1  0  0  0  0
  5 14  1  0  0  0  0
  6 15  1  6  0  0  0
  6  5  1  0  0  0  0
  6  1  1  0  0  0  0
  9  3  1  0  0  0  0
 11  4  1  0  0  0  0
 13  5  1  0  0  0  0
 16 19  1  6  0  0  0
 16 18  1  0  0  0  0
 16 17  1  0  0  0  0
 16 24  1  0  0  0  0
 17 21  1  0  0  0  0
 18 17  1  0  0  0  0
 18 22  1  1  0  0  0
 20 17  1  0  0  0  0
 23 24  2  0  0  0  0
 23 28  1  0  0  0  0
 24 25  1  0  0  0  0
 25 30  1  0  0  0  0
 25 26  2  0  0  0  0
 27 26  1  0  0  0  0
 27 31  1  0  0  0  0
 28 27  2  0  0  0  0
 29 23  1  0  0  0  0
 32  6  1  0  0  0  0
 33 32  1  0  0  0  0
 34 32  1  0  0  0  0
 35 34  2  0  0  0  0
 35 36  1  0  0  0  0
 37 35  1  0  0  0  0
 38 37  1  0  0  0  0
 39 37  1  0  0  0  0
 39 41  2  0  0  0  0
 40 39  1  0  0  0  0
 41 34  1  0  0  0  0
M  END
>  <minimizedAffinity>
-4.75146341

$$$$
