
 OpenBabel03252501593D

 35 37  0  0  0  0  0  0  0  0999 V2000
   44.4780   35.8470   45.1900 C   0  0  0  0  0  0  0  0  0  0  0  0
   45.2460   35.8960   44.0220 C   0  0  0  0  0  0  0  0  0  0  0  0
   46.1430   34.9010   43.7680 C   0  0  0  0  0  0  0  0  0  0  0  0
   46.2620   33.8770   44.6750 N   0  0  0  0  0  0  0  0  0  0  0  0
   45.5110   33.8400   45.8060 C   0  0  0  0  0  0  0  0  0  0  0  0
   44.6210   34.8180   46.0670 N   0  0  0  0  0  0  0  0  0  0  0  0
   43.7140   36.4320   45.6080 H   0  0  0  0  0  0  0  0  0  0  0  0
   45.7670   32.9510   46.3710 H   0  0  0  0  0  0  0  0  0  0  0  0
   46.9130   34.9460   42.5620 C   0  0  0  0  0  0  0  0  0  0  0  0
   48.0830   35.6000   42.3170 C   0  0  0  0  0  0  0  0  0  0  0  0
   48.6760   35.5160   41.0700 C   0  0  0  0  0  0  0  0  0  0  0  0
   48.0990   34.7790   40.0660 C   0  0  0  0  0  0  0  0  0  0  0  0
   46.9300   34.1140   40.2820 C   0  0  0  0  0  0  0  0  0  0  0  0
   46.3550   34.2120   41.5340 C   0  0  0  0  0  0  0  0  0  0  0  0
   48.4790   36.1630   43.1560 H   0  0  0  0  0  0  0  0  0  0  0  0
   49.6030   36.0670   40.9620 H   0  0  0  0  0  0  0  0  0  0  0  0
   48.6670   34.8020   39.1490 H   0  0  0  0  0  0  0  0  0  0  0  0
   46.5040   33.5430   39.4690 H   0  0  0  0  0  0  0  0  0  0  0  0
   45.4170   33.6420   41.6100 H   0  0  0  0  0  0  0  0  0  0  0  0
   44.9820   37.0350   43.1190 C   0  0  0  0  0  0  0  0  0  0  0  0
   44.0110   36.9810   42.5950 H   0  0  0  0  0  0  0  0  0  0  0  0
   45.7730   36.9770   42.3350 H   0  0  0  0  0  0  0  0  0  0  0  0
   45.1250   38.2360   43.9140 N   0  0  0  0  0  0  0  0  0  0  0  0
   44.9260   38.8030   45.1990 C   0  0  0  0  0  0  0  0  0  0  0  0
   44.3610   38.2150   46.3420 C   0  0  0  0  0  0  0  0  0  0  0  0
   43.9650   37.2110   46.3980 H   0  0  0  0  0  0  0  0  0  0  0  0
   44.4470   39.1860   47.2680 N   0  0  0  0  0  0  0  0  0  0  0  0
   44.0890   39.0270   48.2540 H   0  0  0  0  0  0  0  0  0  0  0  0
   45.0130   40.3110   46.7990 C   0  0  0  0  0  0  0  0  0  0  0  0
   45.1610   41.1990   47.4160 H   0  0  0  0  0  0  0  0  0  0  0  0
   45.3160   40.0850   45.5110 N   0  0  0  0  0  0  0  0  0  0  0  0
   45.6810   39.3340   43.1180 C   0  0  0  0  0  0  0  0  0  0  0  0
   47.0180   39.2900   42.9960 F   0  0  0  0  0  0  0  0  0  0  0  0
   45.3690   40.5650   43.6920 F   0  0  0  0  0  0  0  0  0  0  0  0
   45.0950   39.3040   41.8820 F   0  0  0  0  0  0  0  0  0  0  0  0
  1  7  1  0  0  0  0
  1  6  1  0  0  0  0
  2  1  2  0  0  0  0
  3  2  1  0  0  0  0
  3  4  2  0  0  0  0
  4  5  1  0  0  0  0
  5  6  2  0  0  0  0
  5  8  1  0  0  0  0
  9  3  1  0  0  0  0
 10  9  1  0  0  0  0
 10 15  1  0  0  0  0
 11 10  2  0  0  0  0
 12 13  2  0  0  0  0
 12 11  1  0  0  0  0
 13 14  1  0  0  0  0
 14 19  1  0  0  0  0
 14  9  2  0  0  0  0
 16 11  1  0  0  0  0
 17 12  1  0  0  0  0
 18 13  1  0  0  0  0
 20 23  1  0  0  0  0
 20  2  1  0  0  0  0
 21 20  1  0  0  0  0
 22 20  1  0  0  0  0
 23 24  1  0  0  0  0
 24 31  1  0  0  0  0
 24 25  2  0  0  0  0
 25 26  1  0  0  0  0
 25 27  1  0  0  0  0
 27 28  1  0  0  0  0
 29 27  1  0  0  0  0
 29 30  1  0  0  0  0
 31 29  2  0  0  0  0
 32 34  1  0  0  0  0
 32 23  1  0  0  0  0
 33 32  1  0  0  0  0
 35 32  1  0  0  0  0
M  END
>  <minimizedAffinity>
-0.484773159

>  <minimizedRMSD>
0.636181116

$$$$
