
 OpenBabel03242521103D

 18 19  0  0  0  0  0  0  0  0999 V2000
   38.5050   28.6550   43.2930 C   0  0  0  0  0  0  0  0  0  0  0  0
   37.8380   27.4070   43.1510 C   0  0  0  0  0  0  0  0  0  0  0  0
   36.7590   27.3440   42.2520 C   0  0  0  0  0  0  0  0  0  0  0  0
   36.4130   28.4750   41.5680 N   0  0  0  0  0  0  0  0  0  0  0  0
   37.0770   29.6370   41.7350 C   0  0  0  0  0  0  0  0  0  0  0  0
   38.1050   29.7210   42.5840 N   0  0  0  0  0  0  0  0  0  0  0  0
   39.3340   28.7170   43.9780 H   0  0  0  0  0  0  0  0  0  0  0  0
   38.1360   26.5230   43.7110 H   0  0  0  0  0  0  0  0  0  0  0  0
   36.2210   26.4070   42.1150 H   0  0  0  0  0  0  0  0  0  0  0  0
   36.4150   30.9400   40.7210 S   0  0  0  0  0  0  0  0  0  0  0  0
   37.5800   32.2680   40.4920 C   0  0  0  0  0  0  0  0  0  0  0  0
   37.2680   33.2140   39.5590 C   0  0  0  0  0  0  0  0  0  0  0  0
   36.4610   33.3940   38.8780 H   0  0  0  0  0  0  0  0  0  0  0  0
   38.2800   34.1300   39.5420 N   0  0  0  0  0  0  0  0  0  0  0  0
   38.4240   35.0050   38.9710 H   0  0  0  0  0  0  0  0  0  0  0  0
   39.2010   33.7450   40.4590 C   0  0  0  0  0  0  0  0  0  0  0  0
   40.1300   34.1680   40.7630 H   0  0  0  0  0  0  0  0  0  0  0  0
   38.7630   32.6140   41.0270 N   0  0  0  0  0  0  0  0  0  0  0  0
  1  7  1  0  0  0  0
  2  1  1  0  0  0  0
  2  8  1  0  0  0  0
  3  2  2  0  0  0  0
  4  5  2  0  0  0  0
  4  3  1  0  0  0  0
  5  6  1  0  0  0  0
  6  1  2  0  0  0  0
  9  3  1  0  0  0  0
 10  5  1  0  0  0  0
 11 10  1  0  0  0  0
 11 18  1  0  0  0  0
 12 11  2  0  0  0  0
 13 12  1  0  0  0  0
 14 12  1  0  0  0  0
 14 16  1  0  0  0  0
 15 14  1  0  0  0  0
 16 17  1  0  0  0  0
 16 18  2  0  0  0  0
M  END
>  <minimizedAffinity>
-4.02924776

$$$$

 OpenBabel03242521103D

 18 19  0  0  0  0  0  0  0  0999 V2000
   37.3720   27.4360   41.3600 C   0  0  0  0  0  0  0  0  0  0  0  0
   36.9210   27.2050   42.6890 C   0  0  0  0  0  0  0  0  0  0  0  0
   37.3160   28.1220   43.6790 C   0  0  0  0  0  0  0  0  0  0  0  0
   38.1050   29.1760   43.3140 N   0  0  0  0  0  0  0  0  0  0  0  0
   38.5080   29.3540   42.0390 C   0  0  0  0  0  0  0  0  0  0  0  0
   38.1450   28.4970   41.0820 N   0  0  0  0  0  0  0  0  0  0  0  0
   37.0760   26.7420   40.5910 H   0  0  0  0  0  0  0  0  0  0  0  0
   36.2930   26.3560   42.9480 H   0  0  0  0  0  0  0  0  0  0  0  0
   36.9920   27.9810   44.7090 H   0  0  0  0  0  0  0  0  0  0  0  0
   39.5220   30.8040   41.8520 S   0  0  0  0  0  0  0  0  0  0  0  0
   38.6710   32.1100   40.9890 C   0  0  0  0  0  0  0  0  0  0  0  0
   37.3570   31.8990   40.6850 C   0  0  0  0  0  0  0  0  0  0  0  0
   36.6440   31.1120   40.8290 H   0  0  0  0  0  0  0  0  0  0  0  0
   36.8990   33.0080   40.0330 N   0  0  0  0  0  0  0  0  0  0  0  0
   35.9530   33.2450   39.6340 H   0  0  0  0  0  0  0  0  0  0  0  0
   37.9270   33.8880   39.9430 C   0  0  0  0  0  0  0  0  0  0  0  0
   38.0020   34.8610   39.5170 H   0  0  0  0  0  0  0  0  0  0  0  0
   38.9950   33.3280   40.5270 N   0  0  0  0  0  0  0  0  0  0  0  0
  1  2  1  0  0  0  0
  2  8  1  0  0  0  0
  2  3  2  0  0  0  0
  3  9  1  0  0  0  0
  4  3  1  0  0  0  0
  5  4  2  0  0  0  0
  6  1  2  0  0  0  0
  6  5  1  0  0  0  0
  7  1  1  0  0  0  0
 10  5  1  0  0  0  0
 11 10  1  0  0  0  0
 12 13  1  0  0  0  0
 12 11  2  0  0  0  0
 14 12  1  0  0  0  0
 15 14  1  0  0  0  0
 16 14  1  0  0  0  0
 16 18  2  0  0  0  0
 17 16  1  0  0  0  0
 18 11  1  0  0  0  0
M  END
>  <minimizedAffinity>
-3.99454427

$$$$

 OpenBabel03242521103D

 18 19  0  0  0  0  0  0  0  0999 V2000
   37.2060   26.9700   41.5890 C   0  0  0  0  0  0  0  0  0  0  0  0
   37.8850   27.0940   42.8330 C   0  0  0  0  0  0  0  0  0  0  0  0
   37.9980   28.3820   43.3870 C   0  0  0  0  0  0  0  0  0  0  0  0
   37.4540   29.4350   42.7060 N   0  0  0  0  0  0  0  0  0  0  0  0
   36.8180   29.2670   41.5290 C   0  0  0  0  0  0  0  0  0  0  0  0
   36.6980   28.0540   40.9830 N   0  0  0  0  0  0  0  0  0  0  0  0
   37.1120   25.9890   41.1540 H   0  0  0  0  0  0  0  0  0  0  0  0
   38.3070   26.2360   43.3500 H   0  0  0  0  0  0  0  0  0  0  0  0
   38.5100   28.5200   44.3370 H   0  0  0  0  0  0  0  0  0  0  0  0
   36.2110   30.8040   40.8700 S   0  0  0  0  0  0  0  0  0  0  0  0
   37.5310   31.9440   40.5050 C   0  0  0  0  0  0  0  0  0  0  0  0
   37.3280   32.8210   39.4800 C   0  0  0  0  0  0  0  0  0  0  0  0
   36.5410   33.0310   38.7840 H   0  0  0  0  0  0  0  0  0  0  0  0
   38.4460   33.5960   39.3690 N   0  0  0  0  0  0  0  0  0  0  0  0
   38.6920   34.3820   38.7110 H   0  0  0  0  0  0  0  0  0  0  0  0
   39.3240   33.1930   40.3210 C   0  0  0  0  0  0  0  0  0  0  0  0
   40.3030   33.5240   40.5790 H   0  0  0  0  0  0  0  0  0  0  0  0
   38.7550   32.1900   41.0010 N   0  0  0  0  0  0  0  0  0  0  0  0
  1  2  1  0  0  0  0
  2  8  1  0  0  0  0
  2  3  2  0  0  0  0
  3  9  1  0  0  0  0
  4  3  1  0  0  0  0
  5  4  2  0  0  0  0
  6  5  1  0  0  0  0
  6  1  2  0  0  0  0
  7  1  1  0  0  0  0
 10  5  1  0  0  0  0
 11 10  1  0  0  0  0
 11 18  1  0  0  0  0
 12 11  2  0  0  0  0
 13 12  1  0  0  0  0
 14 12  1  0  0  0  0
 14 16  1  0  0  0  0
 15 14  1  0  0  0  0
 16 17  1  0  0  0  0
 16 18  2  0  0  0  0
M  END
>  <minimizedAffinity>
-3.78077698

$$$$

 OpenBabel03242521103D

 18 19  0  0  0  0  0  0  0  0999 V2000
   39.1220   28.6980   42.8690 C   0  0  0  0  0  0  0  0  0  0  0  0
   38.4710   27.4640   43.1440 C   0  0  0  0  0  0  0  0  0  0  0  0
   37.1400   27.3200   42.7150 C   0  0  0  0  0  0  0  0  0  0  0  0
   36.5490   28.3650   42.0610 N   0  0  0  0  0  0  0  0  0  0  0  0
   37.2070   29.5170   41.8230 C   0  0  0  0  0  0  0  0  0  0  0  0
   38.4720   29.6770   42.2210 N   0  0  0  0  0  0  0  0  0  0  0  0
   40.1420   28.8220   43.1920 H   0  0  0  0  0  0  0  0  0  0  0  0
   38.9690   26.6510   43.6670 H   0  0  0  0  0  0  0  0  0  0  0  0
   36.6060   26.3910   42.9060 H   0  0  0  0  0  0  0  0  0  0  0  0
   36.1980   30.7000   40.9580 S   0  0  0  0  0  0  0  0  0  0  0  0
   36.8760   31.1210   39.3660 C   0  0  0  0  0  0  0  0  0  0  0  0
   37.1840   32.4330   39.1500 C   0  0  0  0  0  0  0  0  0  0  0  0
   37.1270   33.3450   39.7100 H   0  0  0  0  0  0  0  0  0  0  0  0
   37.6840   32.5400   37.8840 N   0  0  0  0  0  0  0  0  0  0  0  0
   38.0340   33.3700   37.3360 H   0  0  0  0  0  0  0  0  0  0  0  0
   37.6810   31.3000   37.3340 C   0  0  0  0  0  0  0  0  0  0  0  0
   37.9840   30.9400   36.3780 H   0  0  0  0  0  0  0  0  0  0  0  0
   37.1890   30.4510   38.2440 N   0  0  0  0  0  0  0  0  0  0  0  0
  1  2  1  0  0  0  0
  1  7  1  0  0  0  0
  2  8  1  0  0  0  0
  3  9  1  0  0  0  0
  3  2  2  0  0  0  0
  4  3  1  0  0  0  0
  5  4  2  0  0  0  0
  5  6  1  0  0  0  0
  6  1  2  0  0  0  0
 10  5  1  0  0  0  0
 11 10  1  0  0  0  0
 12 11  2  0  0  0  0
 12 13  1  0  0  0  0
 14 12  1  0  0  0  0
 15 14  1  0  0  0  0
 16 14  1  0  0  0  0
 16 18  2  0  0  0  0
 17 16  1  0  0  0  0
 18 11  1  0  0  0  0
M  END
>  <minimizedAffinity>
-3.754807

$$$$

 OpenBabel03242521103D

 18 19  0  0  0  0  0  0  0  0999 V2000
   39.3800   24.5950   42.1370 C   0  0  0  0  0  0  0  0  0  0  0  0
   38.1700   23.8820   41.9140 C   0  0  0  0  0  0  0  0  0  0  0  0
   36.9660   24.6060   41.9810 C   0  0  0  0  0  0  0  0  0  0  0  0
   37.0230   25.9430   42.2530 N   0  0  0  0  0  0  0  0  0  0  0  0
   38.1970   26.5770   42.4570 C   0  0  0  0  0  0  0  0  0  0  0  0
   39.3530   25.9120   42.3980 N   0  0  0  0  0  0  0  0  0  0  0  0
   40.3100   24.0540   42.0870 H   0  0  0  0  0  0  0  0  0  0  0  0
   38.1570   22.8160   41.7000 H   0  0  0  0  0  0  0  0  0  0  0  0
   36.0180   24.0960   41.8170 H   0  0  0  0  0  0  0  0  0  0  0  0
   37.9730   28.3100   42.7890 S   0  0  0  0  0  0  0  0  0  0  0  0
   36.7670   29.0500   41.7070 C   0  0  0  0  0  0  0  0  0  0  0  0
   36.8000   30.4080   41.5770 C   0  0  0  0  0  0  0  0  0  0  0  0
   37.3900   31.2110   41.9710 H   0  0  0  0  0  0  0  0  0  0  0  0
   35.8060   30.7670   40.7130 N   0  0  0  0  0  0  0  0  0  0  0  0
   35.4980   31.7080   40.3500 H   0  0  0  0  0  0  0  0  0  0  0  0
   35.1730   29.6340   40.3190 C   0  0  0  0  0  0  0  0  0  0  0  0
   34.3530   29.4640   39.6610 H   0  0  0  0  0  0  0  0  0  0  0  0
   35.7670   28.6020   40.9310 N   0  0  0  0  0  0  0  0  0  0  0  0
  1  6  1  0  0  0  0
  2  3  1  0  0  0  0
  2  1  2  0  0  0  0
  3  4  2  0  0  0  0
  4  5  1  0  0  0  0
  5 10  1  0  0  0  0
  6  5  2  0  0  0  0
  7  1  1  0  0  0  0
  8  2  1  0  0  0  0
  9  3  1  0  0  0  0
 11 10  1  0  0  0  0
 12 11  2  0  0  0  0
 12 13  1  0  0  0  0
 14 12  1  0  0  0  0
 15 14  1  0  0  0  0
 16 14  1  0  0  0  0
 16 18  2  0  0  0  0
 17 16  1  0  0  0  0
 18 11  1  0  0  0  0
M  END
>  <minimizedAffinity>
-3.66116309

$$$$

 OpenBabel03242521103D

 18 19  0  0  0  0  0  0  0  0999 V2000
   39.0710   25.2030   41.5170 C   0  0  0  0  0  0  0  0  0  0  0  0
   39.9650   24.7400   42.5220 C   0  0  0  0  0  0  0  0  0  0  0  0
   40.1960   25.5800   43.6250 C   0  0  0  0  0  0  0  0  0  0  0  0
   39.5550   26.7860   43.6720 N   0  0  0  0  0  0  0  0  0  0  0  0
   38.7150   27.1830   42.6940 C   0  0  0  0  0  0  0  0  0  0  0  0
   38.4800   26.4020   41.6370 N   0  0  0  0  0  0  0  0  0  0  0  0
   38.8850   24.5690   40.6670 H   0  0  0  0  0  0  0  0  0  0  0  0
   40.4600   23.7740   42.4550 H   0  0  0  0  0  0  0  0  0  0  0  0
   40.8740   25.2630   44.4160 H   0  0  0  0  0  0  0  0  0  0  0  0
   38.0230   28.7900   43.0150 S   0  0  0  0  0  0  0  0  0  0  0  0
   36.7870   29.2380   41.8130 C   0  0  0  0  0  0  0  0  0  0  0  0
   36.6970   30.5580   41.4770 C   0  0  0  0  0  0  0  0  0  0  0  0
   37.1990   31.4640   41.7530 H   0  0  0  0  0  0  0  0  0  0  0  0
   35.7000   30.6850   40.5540 N   0  0  0  0  0  0  0  0  0  0  0  0
   35.3180   31.5260   40.0460 H   0  0  0  0  0  0  0  0  0  0  0  0
   35.1860   29.4500   40.3290 C   0  0  0  0  0  0  0  0  0  0  0  0
   34.4060   29.1050   39.6920 H   0  0  0  0  0  0  0  0  0  0  0  0
   35.8550   28.5840   41.1000 N   0  0  0  0  0  0  0  0  0  0  0  0
  1  6  2  0  0  0  0
  1  2  1  0  0  0  0
  2  3  2  0  0  0  0
  3  4  1  0  0  0  0
  3  9  1  0  0  0  0
  5 10  1  0  0  0  0
  5  4  2  0  0  0  0
  6  5  1  0  0  0  0
  7  1  1  0  0  0  0
  8  2  1  0  0  0  0
 11 10  1  0  0  0  0
 12 13  1  0  0  0  0
 12 11  2  0  0  0  0
 14 12  1  0  0  0  0
 15 14  1  0  0  0  0
 16 14  1  0  0  0  0
 16 18  2  0  0  0  0
 17 16  1  0  0  0  0
 18 11  1  0  0  0  0
M  END
>  <minimizedAffinity>
-3.64600062

$$$$

 OpenBabel03242521103D

 18 19  0  0  0  0  0  0  0  0999 V2000
   37.2750   25.8560   39.8780 C   0  0  0  0  0  0  0  0  0  0  0  0
   37.0690   24.6970   40.6770 C   0  0  0  0  0  0  0  0  0  0  0  0
   36.9960   24.8720   42.0700 C   0  0  0  0  0  0  0  0  0  0  0  0
   37.1250   26.1340   42.5770 N   0  0  0  0  0  0  0  0  0  0  0  0
   37.3190   27.2040   41.7790 C   0  0  0  0  0  0  0  0  0  0  0  0
   37.3920   27.0630   40.4530 N   0  0  0  0  0  0  0  0  0  0  0  0
   37.3320   25.7360   38.8100 H   0  0  0  0  0  0  0  0  0  0  0  0
   36.9700   23.7050   40.2440 H   0  0  0  0  0  0  0  0  0  0  0  0
   36.8390   24.0100   42.7180 H   0  0  0  0  0  0  0  0  0  0  0  0
   37.4520   28.7160   42.7050 S   0  0  0  0  0  0  0  0  0  0  0  0
   37.4650   30.1500   41.6470 C   0  0  0  0  0  0  0  0  0  0  0  0
   36.2560   30.6130   41.2140 C   0  0  0  0  0  0  0  0  0  0  0  0
   35.2290   30.3350   41.3400 H   0  0  0  0  0  0  0  0  0  0  0  0
   36.4870   31.7030   40.4260 N   0  0  0  0  0  0  0  0  0  0  0  0
   35.8310   32.3430   39.9040 H   0  0  0  0  0  0  0  0  0  0  0  0
   37.8280   31.9040   40.3810 C   0  0  0  0  0  0  0  0  0  0  0  0
   38.4270   32.6330   39.8890 H   0  0  0  0  0  0  0  0  0  0  0  0
   38.4060   30.9540   41.1260 N   0  0  0  0  0  0  0  0  0  0  0  0
  1  6  2  0  0  0  0
  1  2  1  0  0  0  0
  2  3  2  0  0  0  0
  3  4  1  0  0  0  0
  3  9  1  0  0  0  0
  5  4  2  0  0  0  0
  5 10  1  0  0  0  0
  6  5  1  0  0  0  0
  7  1  1  0  0  0  0
  8  2  1  0  0  0  0
 11 10  1  0  0  0  0
 12 13  1  0  0  0  0
 12 11  2  0  0  0  0
 14 12  1  0  0  0  0
 15 14  1  0  0  0  0
 16 14  1  0  0  0  0
 16 18  2  0  0  0  0
 17 16  1  0  0  0  0
 18 11  1  0  0  0  0
M  END
>  <minimizedAffinity>
-3.54913402

$$$$

 OpenBabel03242521103D

 18 19  0  0  0  0  0  0  0  0999 V2000
   40.1900   31.8570   39.9610 C   0  0  0  0  0  0  0  0  0  0  0  0
   40.0000   33.2650   39.9010 C   0  0  0  0  0  0  0  0  0  0  0  0
   38.7170   33.7620   40.1930 C   0  0  0  0  0  0  0  0  0  0  0  0
   37.7320   32.8730   40.5170 N   0  0  0  0  0  0  0  0  0  0  0  0
   37.9610   31.5440   40.5630 C   0  0  0  0  0  0  0  0  0  0  0  0
   39.1700   31.0490   40.2890 N   0  0  0  0  0  0  0  0  0  0  0  0
   41.1680   31.4640   39.7410 H   0  0  0  0  0  0  0  0  0  0  0  0
   40.8050   33.9480   39.6390 H   0  0  0  0  0  0  0  0  0  0  0  0
   38.5300   34.8340   40.1570 H   0  0  0  0  0  0  0  0  0  0  0  0
   36.5040   30.6280   41.0110 S   0  0  0  0  0  0  0  0  0  0  0  0
   36.9010   29.1050   41.8460 C   0  0  0  0  0  0  0  0  0  0  0  0
   37.7050   29.1910   42.9450 C   0  0  0  0  0  0  0  0  0  0  0  0
   38.1990   29.9740   43.4850 H   0  0  0  0  0  0  0  0  0  0  0  0
   37.8840   27.9270   43.4290 N   0  0  0  0  0  0  0  0  0  0  0  0
   38.4310   27.5630   44.2540 H   0  0  0  0  0  0  0  0  0  0  0  0
   37.1930   27.0770   42.6290 C   0  0  0  0  0  0  0  0  0  0  0  0
   37.0650   26.0200   42.6480 H   0  0  0  0  0  0  0  0  0  0  0  0
   36.6030   27.8070   41.6740 N   0  0  0  0  0  0  0  0  0  0  0  0
  1  6  1  0  0  0  0
  2  1  2  0  0  0  0
  2  3  1  0  0  0  0
  3  4  2  0  0  0  0
  4  5  1  0  0  0  0
  5 10  1  0  0  0  0
  6  5  2  0  0  0  0
  7  1  1  0  0  0  0
  8  2  1  0  0  0  0
  9  3  1  0  0  0  0
 10 11  1  0  0  0  0
 11 12  2  0  0  0  0
 12 14  1  0  0  0  0
 12 13  1  0  0  0  0
 14 15  1  0  0  0  0
 16 17  1  0  0  0  0
 16 14  1  0  0  0  0
 18 11  1  0  0  0  0
 18 16  2  0  0  0  0
M  END
>  <minimizedAffinity>
-3.40461397

$$$$

 OpenBabel03242521103D

 18 19  0  0  0  0  0  0  0  0999 V2000
   37.4090   24.8910   42.1360 C   0  0  0  0  0  0  0  0  0  0  0  0
   37.7720   23.7280   41.4040 C   0  0  0  0  0  0  0  0  0  0  0  0
   37.6970   23.7910   40.0010 C   0  0  0  0  0  0  0  0  0  0  0  0
   37.2850   24.9580   39.4220 N   0  0  0  0  0  0  0  0  0  0  0  0
   36.9510   26.0380   40.1590 C   0  0  0  0  0  0  0  0  0  0  0  0
   37.0140   26.0010   41.4930 N   0  0  0  0  0  0  0  0  0  0  0  0
   37.4620   24.8570   43.2110 H   0  0  0  0  0  0  0  0  0  0  0  0
   38.0960   22.8130   41.8940 H   0  0  0  0  0  0  0  0  0  0  0  0
   37.9660   22.9210   39.4030 H   0  0  0  0  0  0  0  0  0  0  0  0
   36.4530   27.4130   39.1470 S   0  0  0  0  0  0  0  0  0  0  0  0
   36.5450   28.9590   40.0260 C   0  0  0  0  0  0  0  0  0  0  0  0
   35.3910   29.4240   40.5880 C   0  0  0  0  0  0  0  0  0  0  0  0
   34.3730   29.0950   40.6530 H   0  0  0  0  0  0  0  0  0  0  0  0
   35.6760   30.6060   41.2070 N   0  0  0  0  0  0  0  0  0  0  0  0
   35.0710   31.2770   41.7500 H   0  0  0  0  0  0  0  0  0  0  0  0
   36.9960   30.8600   41.0230 C   0  0  0  0  0  0  0  0  0  0  0  0
   37.6210   31.6640   41.3360 H   0  0  0  0  0  0  0  0  0  0  0  0
   37.5080   29.8530   40.3060 N   0  0  0  0  0  0  0  0  0  0  0  0
  1  7  1  0  0  0  0
  2  8  1  0  0  0  0
  2  1  2  0  0  0  0
  3  2  1  0  0  0  0
  4  3  2  0  0  0  0
  4  5  1  0  0  0  0
  5  6  2  0  0  0  0
  6  1  1  0  0  0  0
  9  3  1  0  0  0  0
 10 11  1  0  0  0  0
 10  5  1  0  0  0  0
 11 18  1  0  0  0  0
 11 12  2  0  0  0  0
 12 13  1  0  0  0  0
 12 14  1  0  0  0  0
 14 15  1  0  0  0  0
 16 14  1  0  0  0  0
 16 17  1  0  0  0  0
 18 16  2  0  0  0  0
M  END
>  <minimizedAffinity>
-3.39126444

$$$$
