
 OpenBabel03252506463D

 41 44  0  0  1  0  0  0  0  0999 V2000
   49.5990   33.6320   41.2740 N   0  0  1  0  0  0  0  0  0  0  0  0
   50.6370   32.9610   42.0140 C   0  0  0  0  0  0  0  0  0  0  0  0
   51.1020   31.6960   41.3490 C   0  0  0  0  0  0  0  0  0  0  0  0
   49.9780   30.6820   41.4230 C   0  0  0  0  0  0  0  0  0  0  0  0
   48.6470   31.3530   41.2130 C   0  0  0  0  0  0  0  0  0  0  0  0
   48.8630   32.6750   40.5230 C   0  0  2  0  0  0  0  0  0  0  0  0
   51.4810   33.6460   42.1810 H   0  0  0  0  0  0  0  0  0  0  0  0
   50.2500   32.6760   43.0340 H   0  0  0  0  0  0  0  0  0  0  0  0
   51.5100   31.8400   40.3520 H   0  0  0  0  0  0  0  0  0  0  0  0
   51.9140   31.2950   41.9860 H   0  0  0  0  0  0  0  0  0  0  0  0
   50.1890   29.9140   40.6470 H   0  0  0  0  0  0  0  0  0  0  0  0
   50.0090   30.1840   42.4140 H   0  0  0  0  0  0  0  0  0  0  0  0
   47.9560   30.7730   40.5950 H   0  0  0  0  0  0  0  0  0  0  0  0
   48.2320   31.5860   42.2220 H   0  0  0  0  0  0  0  0  0  0  0  0
   47.8390   33.1180   40.3710 H   0  0  0  0  0  0  0  0  0  0  0  0
   47.4130   34.8200   41.9600 C   0  0  1  0  0  0  0  0  0  0  0  0
   48.5290   35.7950   41.8560 C   0  0  0  0  0  0  0  0  0  0  0  0
   48.8090   34.3760   42.2000 C   0  0  2  0  0  0  0  0  0  0  0  0
   46.9150   34.5800   40.9850 H   0  0  0  0  0  0  0  0  0  0  0  0
   48.8320   36.1570   40.8360 H   0  0  0  0  0  0  0  0  0  0  0  0
   48.6110   36.5920   42.6200 H   0  0  0  0  0  0  0  0  0  0  0  0
   49.0560   34.1780   43.2730 H   0  0  0  0  0  0  0  0  0  0  0  0
   45.5270   35.9610   43.1710 C   0  0  0  0  0  0  0  0  0  0  0  0
   46.4720   34.9330   43.0800 C   0  0  0  0  0  0  0  0  0  0  0  0
   46.4770   33.9810   44.1160 C   0  0  0  0  0  0  0  0  0  0  0  0
   45.5860   34.0970   45.1350 N   0  0  0  0  0  0  0  0  0  0  0  0
   44.6880   35.1150   45.1760 C   0  0  0  0  0  0  0  0  0  0  0  0
   44.6500   36.0530   44.1950 N   0  0  0  0  0  0  0  0  0  0  0  0
   45.5500   36.6820   42.3510 H   0  0  0  0  0  0  0  0  0  0  0  0
   47.1930   33.1650   44.0940 H   0  0  0  0  0  0  0  0  0  0  0  0
   44.0060   35.1580   46.0130 H   0  0  0  0  0  0  0  0  0  0  0  0
   49.3650   32.4390   39.1800 N   0  0  0  0  0  0  0  0  0  0  0  0
   50.1460   31.8800   38.7100 H   0  0  0  0  0  0  0  0  0  0  0  0
   48.5340   33.1920   38.2670 C   0  0  0  0  0  0  0  0  0  0  0  0
   48.5060   34.3680   37.5480 C   0  0  0  0  0  0  0  0  0  0  0  0
   49.3690   34.9740   37.6770 H   0  0  0  0  0  0  0  0  0  0  0  0
   47.3570   34.4290   36.8590 N   0  0  0  0  0  0  0  0  0  0  0  0
   47.1570   35.2580   36.2500 H   0  0  0  0  0  0  0  0  0  0  0  0
   46.6280   33.3260   37.1040 C   0  0  0  0  0  0  0  0  0  0  0  0
   45.6660   33.1910   36.6350 H   0  0  0  0  0  0  0  0  0  0  0  0
   47.3570   32.5650   37.9710 N   0  0  0  0  0  0  0  0  0  0  0  0
  1  2  1  1  0  0  0
  1 18  1  0  0  0  0
  2  7  1  0  0  0  0
  2  8  1  0  0  0  0
  3  4  1  0  0  0  0
  3 10  1  0  0  0  0
  3  2  1  0  0  0  0
  4 12  1  0  0  0  0
  5  4  1  0  0  0  0
  5 14  1  0  0  0  0
  6 15  1  6  0  0  0
  6  5  1  0  0  0  0
  6  1  1  0  0  0  0
  9  3  1  0  0  0  0
 11  4  1  0  0  0  0
 13  5  1  0  0  0  0
 16 19  1  6  0  0  0
 16 18  1  0  0  0  0
 16 24  1  0  0  0  0
 17 16  1  0  0  0  0
 17 18  1  0  0  0  0
 17 21  1  0  0  0  0
 18 22  1  1  0  0  0
 20 17  1  0  0  0  0
 23 28  1  0  0  0  0
 24 23  2  0  0  0  0
 24 25  1  0  0  0  0
 25 26  2  0  0  0  0
 26 27  1  0  0  0  0
 27 31  1  0  0  0  0
 28 27  2  0  0  0  0
 29 23  1  0  0  0  0
 30 25  1  0  0  0  0
 32  6  1  0  0  0  0
 33 32  1  0  0  0  0
 34 32  1  0  0  0  0
 35 36  1  0  0  0  0
 35 34  2  0  0  0  0
 37 39  1  0  0  0  0
 37 35  1  0  0  0  0
 38 37  1  0  0  0  0
 39 41  2  0  0  0  0
 40 39  1  0  0  0  0
 41 34  1  0  0  0  0
M  END
>  <minimizedAffinity>
-5.64636517

>  <minimizedRMSD>
2.87937975

$$$$
