
 OpenBabel03252508073D

 43 46  0  0  0  0  0  0  0  0999 V2000
   45.2950   36.1340   42.7340 C   0  0  0  0  0  0  0  0  0  0  0  0
   45.4860   34.7620   42.7270 C   0  0  0  0  0  0  0  0  0  0  0  0
   45.2270   34.0270   43.8580 C   0  0  0  0  0  0  0  0  0  0  0  0
   44.7750   34.7200   44.9650 N   0  0  0  0  0  0  0  0  0  0  0  0
   44.5930   36.0370   44.9650 C   0  0  0  0  0  0  0  0  0  0  0  0
   44.8580   36.7360   43.8390 N   0  0  0  0  0  0  0  0  0  0  0  0
   45.4910   36.7450   41.8640 H   0  0  0  0  0  0  0  0  0  0  0  0
   44.2390   36.5640   45.8410 H   0  0  0  0  0  0  0  0  0  0  0  0
   45.3710   32.6290   44.0130 C   0  0  0  0  0  0  0  0  0  0  0  0
   44.8470   31.6860   43.1240 C   0  0  0  0  0  0  0  0  0  0  0  0
   44.9270   30.3290   43.3060 C   0  0  0  0  0  0  0  0  0  0  0  0
   45.5540   29.8270   44.4220 C   0  0  0  0  0  0  0  0  0  0  0  0
   46.0940   30.7680   45.3400 C   0  0  0  0  0  0  0  0  0  0  0  0
   46.7210   30.2820   46.4570 C   0  0  0  0  0  0  0  0  0  0  0  0
   47.2690   31.1420   47.3880 C   0  0  0  0  0  0  0  0  0  0  0  0
   47.1830   32.5260   47.1780 C   0  0  0  0  0  0  0  0  0  0  0  0
   46.5310   32.9810   46.0170 C   0  0  0  0  0  0  0  0  0  0  0  0
   45.9930   32.1040   45.1160 C   0  0  0  0  0  0  0  0  0  0  0  0
   44.3520   32.0870   42.2420 H   0  0  0  0  0  0  0  0  0  0  0  0
   44.5100   29.6330   42.5950 H   0  0  0  0  0  0  0  0  0  0  0  0
   45.6680   28.7890   44.6580 H   0  0  0  0  0  0  0  0  0  0  0  0
   46.8000   29.2050   46.6400 H   0  0  0  0  0  0  0  0  0  0  0  0
   47.7540   30.6990   48.2590 H   0  0  0  0  0  0  0  0  0  0  0  0
   47.6390   33.1200   47.9530 H   0  0  0  0  0  0  0  0  0  0  0  0
   46.5890   34.0480   46.0270 H   0  0  0  0  0  0  0  0  0  0  0  0
   45.9320   34.1990   41.5660 O   0  0  0  0  0  0  0  0  0  0  0  0
   47.8070   32.4330   41.0880 O   0  0  0  0  0  0  0  0  0  0  0  0
   47.5570   33.8920   41.2060 P   0  0  1  0  0  0  0  0  0  0  0  0
   47.9960   34.5890   39.7270 O   0  0  0  0  0  0  0  0  0  0  0  0
   48.3390   33.8660   38.5940 C   0  0  0  0  0  0  0  0  0  0  0  0
   48.0090   34.4460   37.3950 C   0  0  0  0  0  0  0  0  0  0  0  0
   47.5190   35.3820   37.1040 H   0  0  0  0  0  0  0  0  0  0  0  0
   48.4110   33.6140   36.4040 N   0  0  0  0  0  0  0  0  0  0  0  0
   48.3410   33.6960   35.3650 H   0  0  0  0  0  0  0  0  0  0  0  0
   48.9700   32.5590   37.0140 C   0  0  0  0  0  0  0  0  0  0  0  0
   49.4330   31.6390   36.6300 H   0  0  0  0  0  0  0  0  0  0  0  0
   48.9400   32.6850   38.3710 N   0  0  0  0  0  0  0  0  0  0  0  0
   48.5030   34.5640   42.4170 O   0  0  0  0  0  0  0  0  0  0  0  0
   49.6950   35.2530   42.2560 C   0  0  0  0  0  0  0  0  0  0  0  0
   49.3670   36.3450   41.7660 O   0  0  0  0  0  0  0  0  0  0  0  0
   50.8120   34.4540   42.7070 N   0  0  0  0  0  0  0  0  0  0  0  0
   51.6280   34.0440   42.1930 H   0  0  0  0  0  0  0  0  0  0  0  0
   50.8440   34.2230   43.7440 H   0  0  0  0  0  0  0  0  0  0  0  0
  1  6  1  0  0  0  0
  2  1  2  0  0  0  0
  2  3  1  0  0  0  0
  3  9  1  0  0  0  0
  3  4  2  0  0  0  0
  4  5  1  0  0  0  0
  5  8  1  0  0  0  0
  6  5  2  0  0  0  0
  7  1  1  0  0  0  0
  9 18  1  0  0  0  0
 10 11  1  0  0  0  0
 10  9  2  0  0  0  0
 11 12  2  0  0  0  0
 12 21  1  0  0  0  0
 12 13  1  0  0  0  0
 13 14  1  0  0  0  0
 14 22  1  0  0  0  0
 14 15  2  0  0  0  0
 15 23  1  0  0  0  0
 16 15  1  0  0  0  0
 16 24  1  0  0  0  0
 17 25  1  0  0  0  0
 17 16  2  0  0  0  0
 18 13  2  0  0  0  0
 18 17  1  0  0  0  0
 19 10  1  0  0  0  0
 20 11  1  0  0  0  0
 26  2  1  0  0  0  0
 28 27  2  6  0  0  0
 28 26  1  0  0  0  0
 28 38  1  0  0  0  0
 29 28  1  0  0  0  0
 30 29  1  0  0  0  0
 31 30  2  0  0  0  0
 32 31  1  0  0  0  0
 33 35  1  0  0  0  0
 33 31  1  0  0  0  0
 34 33  1  0  0  0  0
 35 37  2  0  0  0  0
 36 35  1  0  0  0  0
 37 30  1  0  0  0  0
 39 38  1  0  0  0  0
 39 41  1  0  0  0  0
 40 39  2  0  0  0  0
 41 43  1  0  0  0  0
 42 41  1  0  0  0  0
M  END
>  <minimizedAffinity>
-6.16826868

>  <minimizedRMSD>
0.268068373

$$$$
