
 OpenBabel03252507303D

 44 47  0  0  1  0  0  0  0  0999 V2000
   38.6830   32.3370   40.8070 C   0  0  2  0  0  0  0  0  0  0  0  0
   37.9040   33.4460   40.1420 C   0  0  0  0  0  0  0  0  0  0  0  0
   38.7040   34.7200   40.2560 C   0  0  0  0  0  0  0  0  0  0  0  0
   40.1220   34.5880   39.8070 C   0  0  0  0  0  0  0  0  0  0  0  0
   40.8030   33.3890   40.3980 C   0  0  0  0  0  0  0  0  0  0  0  0
   39.9930   32.1510   40.1480 C   0  0  2  0  0  0  0  0  0  0  0  0
   38.8610   32.7340   41.8490 H   0  0  0  0  0  0  0  0  0  0  0  0
   37.4950   33.2260   39.1660 H   0  0  0  0  0  0  0  0  0  0  0  0
   37.0100   33.6070   40.8140 H   0  0  0  0  0  0  0  0  0  0  0  0
   38.6870   35.0390   41.3350 H   0  0  0  0  0  0  0  0  0  0  0  0
   38.1930   35.5110   39.6820 H   0  0  0  0  0  0  0  0  0  0  0  0
   40.6590   35.4940   40.1550 H   0  0  0  0  0  0  0  0  0  0  0  0
   40.1780   34.6070   38.6940 H   0  0  0  0  0  0  0  0  0  0  0  0
   41.8450   33.3560   40.1040 H   0  0  0  0  0  0  0  0  0  0  0  0
   40.8070   33.5640   41.5130 H   0  0  0  0  0  0  0  0  0  0  0  0
   40.5330   31.2950   40.5980 H   0  0  0  0  0  0  0  0  0  0  0  0
   37.9340   31.1060   40.9650 C   0  0  0  0  0  0  0  0  0  0  0  0
   36.5710   31.1160   40.5770 C   0  0  0  0  0  0  0  0  0  0  0  0
   35.8440   29.9130   40.7490 C   0  0  0  0  0  0  0  0  0  0  0  0
   36.5040   28.8210   41.2780 N   0  0  0  0  0  0  0  0  0  0  0  0
   37.8180   28.9030   41.6230 C   0  0  0  0  0  0  0  0  0  0  0  0
   38.5120   30.0210   41.4670 N   0  0  0  0  0  0  0  0  0  0  0  0
   36.0160   31.9350   40.1610 H   0  0  0  0  0  0  0  0  0  0  0  0
   34.8110   29.8440   40.4780 H   0  0  0  0  0  0  0  0  0  0  0  0
   38.4460   27.7050   42.1900 C   0  0  0  0  0  0  0  0  0  0  0  0
   39.1180   27.7280   43.3540 C   0  0  0  0  0  0  0  0  0  0  0  0
   39.7100   26.5850   43.8780 C   0  0  0  0  0  0  0  0  0  0  0  0
   39.5930   25.4200   43.1700 C   0  0  0  0  0  0  0  0  0  0  0  0
   38.9130   25.3870   41.9870 C   0  0  0  0  0  0  0  0  0  0  0  0
   38.3380   26.5230   41.4920 N   0  0  0  0  0  0  0  0  0  0  0  0
   39.1640   28.6850   43.8480 H   0  0  0  0  0  0  0  0  0  0  0  0
   40.2170   26.7480   44.8180 H   0  0  0  0  0  0  0  0  0  0  0  0
   40.0820   24.5750   43.6450 H   0  0  0  0  0  0  0  0  0  0  0  0
   38.8530   24.4430   41.4760 H   0  0  0  0  0  0  0  0  0  0  0  0
   39.8130   31.9130   38.7440 N   0  0  0  0  0  0  0  0  0  0  0  0
   38.9660   32.3290   38.2520 H   0  0  0  0  0  0  0  0  0  0  0  0
   40.6820   31.1460   37.9110 C   0  0  0  0  0  0  0  0  0  0  0  0
   41.6570   31.5580   37.0290 C   0  0  0  0  0  0  0  0  0  0  0  0
   41.9530   32.5640   36.8110 H   0  0  0  0  0  0  0  0  0  0  0  0
   42.2530   30.5130   36.4290 N   0  0  0  0  0  0  0  0  0  0  0  0
   43.0280   30.5430   35.7140 H   0  0  0  0  0  0  0  0  0  0  0  0
   41.6630   29.4280   36.9230 C   0  0  0  0  0  0  0  0  0  0  0  0
   41.8970   28.3950   36.6570 H   0  0  0  0  0  0  0  0  0  0  0  0
   40.7340   29.8070   37.7990 N   0  0  0  0  0  0  0  0  0  0  0  0
  1 17  1  0  0  0  0
  1  7  1  1  0  0  0
  2  3  1  0  0  0  0
  2  1  1  0  0  0  0
  2  9  1  0  0  0  0
  3 10  1  0  0  0  0
  4 12  1  0  0  0  0
  4  3  1  0  0  0  0
  4  5  1  0  0  0  0
  5 15  1  0  0  0  0
  6  5  1  0  0  0  0
  6 16  1  1  0  0  0
  6  1  1  0  0  0  0
  8  2  1  0  0  0  0
 11  3  1  0  0  0  0
 13  4  1  0  0  0  0
 14  5  1  0  0  0  0
 17 22  1  0  0  0  0
 18 19  1  0  0  0  0
 18 17  2  0  0  0  0
 19 20  2  0  0  0  0
 20 21  1  0  0  0  0
 21 25  1  0  0  0  0
 22 21  2  0  0  0  0
 23 18  1  0  0  0  0
 24 19  1  0  0  0  0
 25 26  1  0  0  0  0
 26 31  1  0  0  0  0
 26 27  2  0  0  0  0
 27 32  1  0  0  0  0
 28 33  1  0  0  0  0
 28 27  1  0  0  0  0
 29 28  2  0  0  0  0
 30 29  1  0  0  0  0
 30 25  2  0  0  0  0
 34 29  1  0  0  0  0
 35  6  1  0  0  0  0
 36 35  1  0  0  0  0
 37 35  1  0  0  0  0
 38 37  2  0  0  0  0
 39 38  1  0  0  0  0
 40 42  1  0  0  0  0
 40 38  1  0  0  0  0
 41 40  1  0  0  0  0
 42 44  2  0  0  0  0
 43 42  1  0  0  0  0
 44 37  1  0  0  0  0
M  END
>  <minimizedAffinity>
-6.060956

$$$$

 OpenBabel03252507303D

 44 47  0  0  1  0  0  0  0  0999 V2000
   38.8550   31.6030   41.2880 C   0  0  2  0  0  0  0  0  0  0  0  0
   37.7770   31.2060   40.3090 C   0  0  0  0  0  0  0  0  0  0  0  0
   36.9270   32.4200   40.0250 C   0  0  0  0  0  0  0  0  0  0  0  0
   37.7110   33.6340   39.6440 C   0  0  0  0  0  0  0  0  0  0  0  0
   38.8520   33.8970   40.5790 C   0  0  0  0  0  0  0  0  0  0  0  0
   39.7060   32.6720   40.7240 C   0  0  2  0  0  0  0  0  0  0  0  0
   38.2740   32.0310   42.1560 H   0  0  0  0  0  0  0  0  0  0  0  0
   38.0970   30.6370   39.4480 H   0  0  0  0  0  0  0  0  0  0  0  0
   37.1020   30.5140   40.8950 H   0  0  0  0  0  0  0  0  0  0  0  0
   36.3290   32.6440   40.9520 H   0  0  0  0  0  0  0  0  0  0  0  0
   36.2030   32.1680   39.2320 H   0  0  0  0  0  0  0  0  0  0  0  0
   37.0170   34.4980   39.6950 H   0  0  0  0  0  0  0  0  0  0  0  0
   38.0360   33.5650   38.5800 H   0  0  0  0  0  0  0  0  0  0  0  0
   39.3610   34.8160   40.3130 H   0  0  0  0  0  0  0  0  0  0  0  0
   38.3790   34.0920   41.5850 H   0  0  0  0  0  0  0  0  0  0  0  0
   40.5330   32.9150   41.4190 H   0  0  0  0  0  0  0  0  0  0  0  0
   39.6080   30.4830   41.8170 C   0  0  0  0  0  0  0  0  0  0  0  0
   40.9140   30.7430   42.3040 C   0  0  0  0  0  0  0  0  0  0  0  0
   41.6450   29.6390   42.8050 C   0  0  0  0  0  0  0  0  0  0  0  0
   41.0460   28.3950   42.7850 N   0  0  0  0  0  0  0  0  0  0  0  0
   39.7850   28.2380   42.2980 C   0  0  0  0  0  0  0  0  0  0  0  0
   39.0870   29.2610   41.8270 N   0  0  0  0  0  0  0  0  0  0  0  0
   41.4200   31.6880   42.3420 H   0  0  0  0  0  0  0  0  0  0  0  0
   42.6370   29.7580   43.1890 H   0  0  0  0  0  0  0  0  0  0  0  0
   39.2210   26.8850   42.2990 C   0  0  0  0  0  0  0  0  0  0  0  0
   37.9120   26.6510   42.1020 C   0  0  0  0  0  0  0  0  0  0  0  0
   37.3900   25.3620   42.1080 C   0  0  0  0  0  0  0  0  0  0  0  0
   38.2530   24.3230   42.3240 C   0  0  0  0  0  0  0  0  0  0  0  0
   39.5850   24.5500   42.5250 C   0  0  0  0  0  0  0  0  0  0  0  0
   40.0740   25.8250   42.5140 N   0  0  0  0  0  0  0  0  0  0  0  0
   37.3010   27.5250   41.9400 H   0  0  0  0  0  0  0  0  0  0  0  0
   36.3240   25.3220   41.9380 H   0  0  0  0  0  0  0  0  0  0  0  0
   37.7690   23.3510   42.3140 H   0  0  0  0  0  0  0  0  0  0  0  0
   40.2140   23.6940   42.6890 H   0  0  0  0  0  0  0  0  0  0  0  0
   40.2510   32.2580   39.4620 N   0  0  0  0  0  0  0  0  0  0  0  0
   40.0190   31.2880   39.0890 H   0  0  0  0  0  0  0  0  0  0  0  0
   41.1050   33.0400   38.6270 C   0  0  0  0  0  0  0  0  0  0  0  0
   41.4180   32.8940   37.2930 C   0  0  0  0  0  0  0  0  0  0  0  0
   41.0550   32.1460   36.6190 H   0  0  0  0  0  0  0  0  0  0  0  0
   42.2730   33.8460   36.8810 N   0  0  0  0  0  0  0  0  0  0  0  0
   42.6750   33.9680   35.9120 H   0  0  0  0  0  0  0  0  0  0  0  0
   42.5130   34.6040   37.9460 C   0  0  0  0  0  0  0  0  0  0  0  0
   43.1680   35.4770   37.9760 H   0  0  0  0  0  0  0  0  0  0  0  0
   41.8200   34.1240   38.9770 N   0  0  0  0  0  0  0  0  0  0  0  0
  1 17  1  0  0  0  0
  1  7  1  1  0  0  0
  2  9  1  0  0  0  0
  2  1  1  0  0  0  0
  3  2  1  0  0  0  0
  3 10  1  0  0  0  0
  4 12  1  0  0  0  0
  4  3  1  0  0  0  0
  4  5  1  0  0  0  0
  5  6  1  0  0  0  0
  5 15  1  0  0  0  0
  6  1  1  0  0  0  0
  6 16  1  1  0  0  0
  8  2  1  0  0  0  0
 11  3  1  0  0  0  0
 13  4  1  0  0  0  0
 14  5  1  0  0  0  0
 17 22  2  0  0  0  0
 17 18  1  0  0  0  0
 18 23  1  0  0  0  0
 18 19  2  0  0  0  0
 19 24  1  0  0  0  0
 20 19  1  0  0  0  0
 21 25  1  0  0  0  0
 21 20  2  0  0  0  0
 22 21  1  0  0  0  0
 25 30  1  0  0  0  0
 26 27  1  0  0  0  0
 26 25  2  0  0  0  0
 27 28  2  0  0  0  0
 28 29  1  0  0  0  0
 29 34  1  0  0  0  0
 30 29  2  0  0  0  0
 31 26  1  0  0  0  0
 32 27  1  0  0  0  0
 33 28  1  0  0  0  0
 35  6  1  0  0  0  0
 36 35  1  0  0  0  0
 37 44  1  0  0  0  0
 37 35  1  0  0  0  0
 38 37  2  0  0  0  0
 39 38  1  0  0  0  0
 40 38  1  0  0  0  0
 40 42  1  0  0  0  0
 41 40  1  0  0  0  0
 42 43  1  0  0  0  0
 42 44  2  0  0  0  0
M  END
>  <minimizedAffinity>
-6.02743912

$$$$

 OpenBabel03252507303D

 44 47  0  0  1  0  0  0  0  0999 V2000
   37.0520   25.3070   39.3430 C   0  0  2  0  0  0  0  0  0  0  0  0
   36.1250   24.1700   39.7000 C   0  0  0  0  0  0  0  0  0  0  0  0
   36.9650   22.9640   40.0380 C   0  0  0  0  0  0  0  0  0  0  0  0
   38.0440   23.2360   41.0340 C   0  0  0  0  0  0  0  0  0  0  0  0
   38.8450   24.4580   40.6950 C   0  0  0  0  0  0  0  0  0  0  0  0
   37.9390   25.6340   40.4780 C   0  0  2  0  0  0  0  0  0  0  0  0
   37.6810   24.8770   38.5100 H   0  0  0  0  0  0  0  0  0  0  0  0
   35.3260   24.4020   40.3900 H   0  0  0  0  0  0  0  0  0  0  0  0
   35.6150   23.9030   38.7270 H   0  0  0  0  0  0  0  0  0  0  0  0
   37.4310   22.5930   39.0820 H   0  0  0  0  0  0  0  0  0  0  0  0
   36.3020   22.1610   40.4010 H   0  0  0  0  0  0  0  0  0  0  0  0
   38.7280   22.3620   41.0190 H   0  0  0  0  0  0  0  0  0  0  0  0
   37.6180   23.2750   42.0640 H   0  0  0  0  0  0  0  0  0  0  0  0
   39.6560   24.5920   41.4000 H   0  0  0  0  0  0  0  0  0  0  0  0
   39.3360   24.2310   39.7050 H   0  0  0  0  0  0  0  0  0  0  0  0
   38.5720   26.5090   40.2340 H   0  0  0  0  0  0  0  0  0  0  0  0
   36.3750   26.4620   38.7850 C   0  0  0  0  0  0  0  0  0  0  0  0
   35.3100   26.2230   37.8810 C   0  0  0  0  0  0  0  0  0  0  0  0
   34.6660   27.3580   37.3310 C   0  0  0  0  0  0  0  0  0  0  0  0
   35.1140   28.6090   37.7070 N   0  0  0  0  0  0  0  0  0  0  0  0
   36.1460   28.7440   38.5840 C   0  0  0  0  0  0  0  0  0  0  0  0
   36.7570   27.6920   39.1080 N   0  0  0  0  0  0  0  0  0  0  0  0
   34.9260   25.2740   37.5600 H   0  0  0  0  0  0  0  0  0  0  0  0
   33.8540   27.2560   36.6420 H   0  0  0  0  0  0  0  0  0  0  0  0
   36.5720   30.1050   38.9260 C   0  0  0  0  0  0  0  0  0  0  0  0
   37.0460   30.9620   38.0050 C   0  0  0  0  0  0  0  0  0  0  0  0
   37.4490   32.2490   38.3450 C   0  0  0  0  0  0  0  0  0  0  0  0
   37.3500   32.6270   39.6560 C   0  0  0  0  0  0  0  0  0  0  0  0
   36.8690   31.7630   40.5980 C   0  0  0  0  0  0  0  0  0  0  0  0
   36.4790   30.5040   40.2410 N   0  0  0  0  0  0  0  0  0  0  0  0
   37.0920   30.5860   36.9960 H   0  0  0  0  0  0  0  0  0  0  0  0
   37.8090   32.8290   37.5070 H   0  0  0  0  0  0  0  0  0  0  0  0
   37.6840   33.6440   39.8380 H   0  0  0  0  0  0  0  0  0  0  0  0
   36.8140   32.1160   41.6110 H   0  0  0  0  0  0  0  0  0  0  0  0
   37.1610   25.9230   41.6490 N   0  0  0  0  0  0  0  0  0  0  0  0
   36.4220   25.2260   41.9670 H   0  0  0  0  0  0  0  0  0  0  0  0
   37.2790   27.0920   42.4600 C   0  0  0  0  0  0  0  0  0  0  0  0
   36.5230   27.5070   43.5350 C   0  0  0  0  0  0  0  0  0  0  0  0
   35.6880   27.0010   43.9760 H   0  0  0  0  0  0  0  0  0  0  0  0
   36.9610   28.6800   44.0230 N   0  0  0  0  0  0  0  0  0  0  0  0
   36.5670   29.2200   44.8390 H   0  0  0  0  0  0  0  0  0  0  0  0
   37.9970   29.0230   43.2640 C   0  0  0  0  0  0  0  0  0  0  0  0
   38.6000   29.9260   43.3750 H   0  0  0  0  0  0  0  0  0  0  0  0
   38.1820   28.0820   42.3400 N   0  0  0  0  0  0  0  0  0  0  0  0
  1  7  1  6  0  0  0
  1  2  1  0  0  0  0
  1  6  1  0  0  0  0
  2  3  1  0  0  0  0
  2  8  1  0  0  0  0
  3 11  1  0  0  0  0
  3  4  1  0  0  0  0
  4 13  1  0  0  0  0
  5  4  1  0  0  0  0
  5 14  1  0  0  0  0
  6 16  1  6  0  0  0
  6  5  1  0  0  0  0
  6 35  1  0  0  0  0
  9  2  1  0  0  0  0
 10  3  1  0  0  0  0
 12  4  1  0  0  0  0
 15  5  1  0  0  0  0
 17 22  1  0  0  0  0
 17  1  1  0  0  0  0
 18 17  2  0  0  0  0
 19 20  2  0  0  0  0
 19 18  1  0  0  0  0
 20 21  1  0  0  0  0
 21 25  1  0  0  0  0
 21 22  2  0  0  0  0
 23 18  1  0  0  0  0
 24 19  1  0  0  0  0
 25 30  1  0  0  0  0
 26 27  1  0  0  0  0
 26 25  2  0  0  0  0
 27 28  2  0  0  0  0
 28 33  1  0  0  0  0
 28 29  1  0  0  0  0
 29 34  1  0  0  0  0
 30 29  2  0  0  0  0
 31 26  1  0  0  0  0
 32 27  1  0  0  0  0
 35 36  1  0  0  0  0
 35 37  1  0  0  0  0
 37 38  2  0  0  0  0
 38 39  1  0  0  0  0
 38 40  1  0  0  0  0
 40 41  1  0  0  0  0
 42 43  1  0  0  0  0
 42 40  1  0  0  0  0
 44 37  1  0  0  0  0
 44 42  2  0  0  0  0
M  END
>  <minimizedAffinity>
-5.89672947

$$$$

 OpenBabel03252507303D

 44 47  0  0  1  0  0  0  0  0999 V2000
   38.6650   31.4150   38.9300 C   0  0  2  0  0  0  0  0  0  0  0  0
   37.3090   31.5880   38.2890 C   0  0  0  0  0  0  0  0  0  0  0  0
   36.9980   30.3410   37.4990 C   0  0  0  0  0  0  0  0  0  0  0  0
   37.1750   29.0740   38.2710 C   0  0  0  0  0  0  0  0  0  0  0  0
   38.4870   29.0220   38.9960 C   0  0  0  0  0  0  0  0  0  0  0  0
   38.6690   30.2490   39.8390 C   0  0  2  0  0  0  0  0  0  0  0  0
   39.3390   31.1880   38.0540 H   0  0  0  0  0  0  0  0  0  0  0  0
   36.5190   31.9550   38.9290 H   0  0  0  0  0  0  0  0  0  0  0  0
   37.4640   32.3910   37.5100 H   0  0  0  0  0  0  0  0  0  0  0  0
   37.6790   30.3250   36.6030 H   0  0  0  0  0  0  0  0  0  0  0  0
   35.9670   30.4130   37.1150 H   0  0  0  0  0  0  0  0  0  0  0  0
   37.1550   28.2410   37.5370 H   0  0  0  0  0  0  0  0  0  0  0  0
   36.3050   28.9090   38.9470 H   0  0  0  0  0  0  0  0  0  0  0  0
   38.6120   28.0670   39.4930 H   0  0  0  0  0  0  0  0  0  0  0  0
   39.2780   29.0510   38.1910 H   0  0  0  0  0  0  0  0  0  0  0  0
   39.6450   30.1650   40.3550 H   0  0  0  0  0  0  0  0  0  0  0  0
   39.1840   32.6250   39.5380 C   0  0  0  0  0  0  0  0  0  0  0  0
   38.2500   33.6260   39.9050 C   0  0  0  0  0  0  0  0  0  0  0  0
   38.7690   34.8090   40.4840 C   0  0  0  0  0  0  0  0  0  0  0  0
   40.1370   34.9090   40.6510 N   0  0  0  0  0  0  0  0  0  0  0  0
   40.9600   33.8950   40.2690 C   0  0  0  0  0  0  0  0  0  0  0  0
   40.4900   32.7810   39.7270 N   0  0  0  0  0  0  0  0  0  0  0  0
   37.1830   33.5940   39.7980 H   0  0  0  0  0  0  0  0  0  0  0  0
   38.1250   35.6080   40.7870 H   0  0  0  0  0  0  0  0  0  0  0  0
   42.4010   34.0800   40.4670 C   0  0  0  0  0  0  0  0  0  0  0  0
   43.3110   33.6490   39.5760 C   0  0  0  0  0  0  0  0  0  0  0  0
   44.6740   33.8300   39.7790 C   0  0  0  0  0  0  0  0  0  0  0  0
   45.0740   34.4640   40.9230 C   0  0  0  0  0  0  0  0  0  0  0  0
   44.1570   34.9050   41.8340 C   0  0  0  0  0  0  0  0  0  0  0  0
   42.8230   34.7170   41.6130 N   0  0  0  0  0  0  0  0  0  0  0  0
   42.9130   33.1590   38.7020 H   0  0  0  0  0  0  0  0  0  0  0  0
   45.2900   33.4340   38.9840 H   0  0  0  0  0  0  0  0  0  0  0  0
   46.1520   34.5650   41.0060 H   0  0  0  0  0  0  0  0  0  0  0  0
   44.5310   35.3970   42.7140 H   0  0  0  0  0  0  0  0  0  0  0  0
   37.6250   30.3770   40.8160 N   0  0  0  0  0  0  0  0  0  0  0  0
   36.9940   31.2350   40.7920 H   0  0  0  0  0  0  0  0  0  0  0  0
   37.3370   29.4410   41.8540 C   0  0  0  0  0  0  0  0  0  0  0  0
   36.3640   28.4680   41.9270 C   0  0  0  0  0  0  0  0  0  0  0  0
   35.6300   28.2270   41.1860 H   0  0  0  0  0  0  0  0  0  0  0  0
   36.4260   27.7950   43.0890 N   0  0  0  0  0  0  0  0  0  0  0  0
   35.8030   27.0040   43.4030 H   0  0  0  0  0  0  0  0  0  0  0  0
   37.4370   28.3330   43.7650 C   0  0  0  0  0  0  0  0  0  0  0  0
   37.7750   28.0300   44.7580 H   0  0  0  0  0  0  0  0  0  0  0  0
   37.9730   29.3060   43.0310 N   0  0  0  0  0  0  0  0  0  0  0  0
  1  7  1  6  0  0  0
  1 17  1  0  0  0  0
  1  6  1  0  0  0  0
  2  8  1  0  0  0  0
  2  1  1  0  0  0  0
  3  4  1  0  0  0  0
  3  2  1  0  0  0  0
  4 13  1  0  0  0  0
  4  5  1  0  0  0  0
  5 14  1  0  0  0  0
  5  6  1  0  0  0  0
  6 16  1  1  0  0  0
  6 35  1  0  0  0  0
  9  2  1  0  0  0  0
 10  3  1  0  0  0  0
 11  3  1  0  0  0  0
 12  4  1  0  0  0  0
 15  5  1  0  0  0  0
 17 22  2  0  0  0  0
 17 18  1  0  0  0  0
 18 19  2  0  0  0  0
 19 20  1  0  0  0  0
 19 24  1  0  0  0  0
 21 25  1  0  0  0  0
 21 20  2  0  0  0  0
 22 21  1  0  0  0  0
 23 18  1  0  0  0  0
 25 30  1  0  0  0  0
 26 27  1  0  0  0  0
 26 25  2  0  0  0  0
 27 28  2  0  0  0  0
 28 33  1  0  0  0  0
 28 29  1  0  0  0  0
 29 34  1  0  0  0  0
 30 29  2  0  0  0  0
 31 26  1  0  0  0  0
 32 27  1  0  0  0  0
 35 37  1  0  0  0  0
 36 35  1  0  0  0  0
 37 38  2  0  0  0  0
 37 44  1  0  0  0  0
 38 40  1  0  0  0  0
 39 38  1  0  0  0  0
 40 41  1  0  0  0  0
 40 42  1  0  0  0  0
 42 43  1  0  0  0  0
 44 42  2  0  0  0  0
M  END
>  <minimizedAffinity>
-5.8919878

$$$$

 OpenBabel03252507303D

 44 47  0  0  1  0  0  0  0  0999 V2000
   37.1460   26.7090   38.4930 C   0  0  2  0  0  0  0  0  0  0  0  0
   35.8350   25.9840   38.3080 C   0  0  0  0  0  0  0  0  0  0  0  0
   36.0420   24.5340   38.6670 C   0  0  0  0  0  0  0  0  0  0  0  0
   36.6980   24.3250   39.9930 C   0  0  0  0  0  0  0  0  0  0  0  0
   37.9210   25.1750   40.1690 C   0  0  0  0  0  0  0  0  0  0  0  0
   37.6020   26.6150   39.8960 C   0  0  2  0  0  0  0  0  0  0  0  0
   37.8600   26.1230   37.8450 H   0  0  0  0  0  0  0  0  0  0  0  0
   34.9610   26.4590   38.7310 H   0  0  0  0  0  0  0  0  0  0  0  0
   35.6660   25.9830   37.1910 H   0  0  0  0  0  0  0  0  0  0  0  0
   36.6800   24.0710   37.8630 H   0  0  0  0  0  0  0  0  0  0  0  0
   35.0680   24.0190   38.6370 H   0  0  0  0  0  0  0  0  0  0  0  0
   37.0100   23.2610   40.0370 H   0  0  0  0  0  0  0  0  0  0  0  0
   35.9590   24.4620   40.8150 H   0  0  0  0  0  0  0  0  0  0  0  0
   38.4080   24.9550   41.1110 H   0  0  0  0  0  0  0  0  0  0  0  0
   38.6410   24.8370   39.3690 H   0  0  0  0  0  0  0  0  0  0  0  0
   38.5310   27.2010   40.0400 H   0  0  0  0  0  0  0  0  0  0  0  0
   37.1460   28.0630   37.9740 C   0  0  0  0  0  0  0  0  0  0  0  0
   36.7760   28.2440   36.6180 C   0  0  0  0  0  0  0  0  0  0  0  0
   36.7930   29.5690   36.1180 C   0  0  0  0  0  0  0  0  0  0  0  0
   37.1660   30.5860   36.9740 N   0  0  0  0  0  0  0  0  0  0  0  0
   37.5070   30.3190   38.2640 C   0  0  0  0  0  0  0  0  0  0  0  0
   37.4940   29.0850   38.7480 N   0  0  0  0  0  0  0  0  0  0  0  0
   36.4770   27.4900   35.9170 H   0  0  0  0  0  0  0  0  0  0  0  0
   36.5250   29.7830   35.1040 H   0  0  0  0  0  0  0  0  0  0  0  0
   37.9040   31.4500   39.1090 C   0  0  0  0  0  0  0  0  0  0  0  0
   37.3200   32.6570   39.0150 C   0  0  0  0  0  0  0  0  0  0  0  0
   37.7090   33.7210   39.8210 C   0  0  0  0  0  0  0  0  0  0  0  0
   38.7130   33.5070   40.7250 C   0  0  0  0  0  0  0  0  0  0  0  0
   39.3120   32.2840   40.8280 C   0  0  0  0  0  0  0  0  0  0  0  0
   38.9130   31.2530   40.0250 N   0  0  0  0  0  0  0  0  0  0  0  0
   36.5380   32.7420   38.2780 H   0  0  0  0  0  0  0  0  0  0  0  0
   37.1570   34.6310   39.6380 H   0  0  0  0  0  0  0  0  0  0  0  0
   38.9570   34.3850   41.3150 H   0  0  0  0  0  0  0  0  0  0  0  0
   40.0950   32.1760   41.5560 H   0  0  0  0  0  0  0  0  0  0  0  0
   36.5870   27.1070   40.7820 N   0  0  0  0  0  0  0  0  0  0  0  0
   35.5650   27.0320   40.4940 H   0  0  0  0  0  0  0  0  0  0  0  0
   36.8140   27.7110   42.0550 C   0  0  0  0  0  0  0  0  0  0  0  0
   37.2010   28.9960   42.3720 C   0  0  0  0  0  0  0  0  0  0  0  0
   37.3980   29.8010   41.6940 H   0  0  0  0  0  0  0  0  0  0  0  0
   37.3090   29.1640   43.7010 N   0  0  0  0  0  0  0  0  0  0  0  0
   37.5880   30.0440   44.2130 H   0  0  0  0  0  0  0  0  0  0  0  0
   36.9940   27.9920   44.2420 C   0  0  0  0  0  0  0  0  0  0  0  0
   36.9760   27.7630   45.3090 H   0  0  0  0  0  0  0  0  0  0  0  0
   36.7020   27.1340   43.2650 N   0  0  0  0  0  0  0  0  0  0  0  0
  1  7  1  6  0  0  0
  1  6  1  0  0  0  0
  2  1  1  0  0  0  0
  2  3  1  0  0  0  0
  2  8  1  0  0  0  0
  3  4  1  0  0  0  0
  4 12  1  0  0  0  0
  4  5  1  0  0  0  0
  4 13  1  0  0  0  0
  5 14  1  0  0  0  0
  6 16  1  1  0  0  0
  6  5  1  0  0  0  0
  6 35  1  0  0  0  0
  9  2  1  0  0  0  0
 10  3  1  0  0  0  0
 11  3  1  0  0  0  0
 15  5  1  0  0  0  0
 17  1  1  0  0  0  0
 17 22  1  0  0  0  0
 18 17  2  0  0  0  0
 19 18  1  0  0  0  0
 19 20  2  0  0  0  0
 20 21  1  0  0  0  0
 21 22  2  0  0  0  0
 21 25  1  0  0  0  0
 23 18  1  0  0  0  0
 24 19  1  0  0  0  0
 25 30  1  0  0  0  0
 26 25  2  0  0  0  0
 26 27  1  0  0  0  0
 27 28  2  0  0  0  0
 28 29  1  0  0  0  0
 28 33  1  0  0  0  0
 29 34  1  0  0  0  0
 30 29  2  0  0  0  0
 31 26  1  0  0  0  0
 32 27  1  0  0  0  0
 35 37  1  0  0  0  0
 36 35  1  0  0  0  0
 37 38  2  0  0  0  0
 37 44  1  0  0  0  0
 38 40  1  0  0  0  0
 39 38  1  0  0  0  0
 40 41  1  0  0  0  0
 40 42  1  0  0  0  0
 42 43  1  0  0  0  0
 44 42  2  0  0  0  0
M  END
>  <minimizedAffinity>
-5.82044411

$$$$

 OpenBabel03252507303D

 44 47  0  0  1  0  0  0  0  0999 V2000
   38.0840   29.7590   41.7180 C   0  0  2  0  0  0  0  0  0  0  0  0
   36.7730   29.7230   40.9700 C   0  0  0  0  0  0  0  0  0  0  0  0
   36.2230   31.1270   40.9130 C   0  0  0  0  0  0  0  0  0  0  0  0
   37.2030   32.1430   40.4230 C   0  0  0  0  0  0  0  0  0  0  0  0
   38.5310   32.0390   41.1110 C   0  0  0  0  0  0  0  0  0  0  0  0
   39.0550   30.6350   41.0310 C   0  0  2  0  0  0  0  0  0  0  0  0
   37.8070   30.2370   42.7030 H   0  0  0  0  0  0  0  0  0  0  0  0
   36.7660   29.1710   40.0410 H   0  0  0  0  0  0  0  0  0  0  0  0
   36.0690   29.1660   41.6560 H   0  0  0  0  0  0  0  0  0  0  0  0
   35.8910   31.4070   41.9510 H   0  0  0  0  0  0  0  0  0  0  0  0
   35.3210   31.1280   40.2780 H   0  0  0  0  0  0  0  0  0  0  0  0
   36.7760   33.1420   40.6490 H   0  0  0  0  0  0  0  0  0  0  0  0
   37.2900   32.0910   39.3130 H   0  0  0  0  0  0  0  0  0  0  0  0
   39.1970   32.8260   40.7800 H   0  0  0  0  0  0  0  0  0  0  0  0
   38.3240   32.2530   42.2000 H   0  0  0  0  0  0  0  0  0  0  0  0
   40.0340   30.6080   41.5480 H   0  0  0  0  0  0  0  0  0  0  0  0
   38.6120   28.4470   42.0380 C   0  0  0  0  0  0  0  0  0  0  0  0
   39.6750   28.3800   42.9740 C   0  0  0  0  0  0  0  0  0  0  0  0
   40.1930   27.0960   43.2680 C   0  0  0  0  0  0  0  0  0  0  0  0
   39.6360   26.0050   42.6300 N   0  0  0  0  0  0  0  0  0  0  0  0
   38.6150   26.1640   41.7440 C   0  0  0  0  0  0  0  0  0  0  0  0
   38.1180   27.3590   41.4590 N   0  0  0  0  0  0  0  0  0  0  0  0
   40.1380   29.1950   43.4950 H   0  0  0  0  0  0  0  0  0  0  0  0
   40.9950   26.9660   43.9650 H   0  0  0  0  0  0  0  0  0  0  0  0
   38.0840   24.9590   41.0980 C   0  0  0  0  0  0  0  0  0  0  0  0
   36.7960   24.8510   40.7270 C   0  0  0  0  0  0  0  0  0  0  0  0
   36.3060   23.7010   40.1180 C   0  0  0  0  0  0  0  0  0  0  0  0
   37.1770   22.6690   39.9020 C   0  0  0  0  0  0  0  0  0  0  0  0
   38.4870   22.7700   40.2740 C   0  0  0  0  0  0  0  0  0  0  0  0
   38.9460   23.9090   40.8720 N   0  0  0  0  0  0  0  0  0  0  0  0
   36.1770   25.7080   40.9340 H   0  0  0  0  0  0  0  0  0  0  0  0
   35.2550   23.7510   39.8750 H   0  0  0  0  0  0  0  0  0  0  0  0
   36.7180   21.8090   39.4230 H   0  0  0  0  0  0  0  0  0  0  0  0
   39.1240   21.9270   40.0790 H   0  0  0  0  0  0  0  0  0  0  0  0
   39.2250   30.2140   39.6690 N   0  0  0  0  0  0  0  0  0  0  0  0
   38.9530   29.2220   39.3940 H   0  0  0  0  0  0  0  0  0  0  0  0
   39.7440   31.0160   38.6080 C   0  0  0  0  0  0  0  0  0  0  0  0
   39.1120   31.5380   37.4990 C   0  0  0  0  0  0  0  0  0  0  0  0
   38.0800   31.4370   37.2320 H   0  0  0  0  0  0  0  0  0  0  0  0
   39.9640   32.2400   36.7320 N   0  0  0  0  0  0  0  0  0  0  0  0
   39.7460   32.7420   35.8300 H   0  0  0  0  0  0  0  0  0  0  0  0
   41.1420   32.1720   37.3430 C   0  0  0  0  0  0  0  0  0  0  0  0
   42.0700   32.6320   36.9970 H   0  0  0  0  0  0  0  0  0  0  0  0
   41.0080   31.4470   38.4530 N   0  0  0  0  0  0  0  0  0  0  0  0
  1 17  1  0  0  0  0
  1  7  1  1  0  0  0
  2  9  1  0  0  0  0
  2  1  1  0  0  0  0
  3  2  1  0  0  0  0
  3 10  1  0  0  0  0
  4 12  1  0  0  0  0
  4  3  1  0  0  0  0
  4  5  1  0  0  0  0
  5 15  1  0  0  0  0
  6  5  1  0  0  0  0
  6 16  1  1  0  0  0
  6  1  1  0  0  0  0
  8  2  1  0  0  0  0
 11  3  1  0  0  0  0
 13  4  1  0  0  0  0
 14  5  1  0  0  0  0
 17 18  1  0  0  0  0
 18 19  2  0  0  0  0
 18 23  1  0  0  0  0
 19 24  1  0  0  0  0
 20 19  1  0  0  0  0
 21 20  2  0  0  0  0
 22 21  1  0  0  0  0
 22 17  2  0  0  0  0
 25 21  1  0  0  0  0
 26 31  1  0  0  0  0
 26 25  2  0  0  0  0
 27 26  1  0  0  0  0
 28 27  2  0  0  0  0
 28 29  1  0  0  0  0
 29 30  2  0  0  0  0
 30 25  1  0  0  0  0
 32 27  1  0  0  0  0
 33 28  1  0  0  0  0
 34 29  1  0  0  0  0
 35  6  1  0  0  0  0
 36 35  1  0  0  0  0
 37 35  1  0  0  0  0
 38 37  2  0  0  0  0
 39 38  1  0  0  0  0
 40 42  1  0  0  0  0
 40 38  1  0  0  0  0
 41 40  1  0  0  0  0
 42 44  2  0  0  0  0
 43 42  1  0  0  0  0
 44 37  1  0  0  0  0
M  END
>  <minimizedAffinity>
-5.7391572

$$$$

 OpenBabel03252507303D

 44 47  0  0  1  0  0  0  0  0999 V2000
   35.8000   26.5130   37.6250 C   0  0  2  0  0  0  0  0  0  0  0  0
   36.9130   26.6150   36.6110 C   0  0  0  0  0  0  0  0  0  0  0  0
   36.3830   27.3390   35.3980 C   0  0  0  0  0  0  0  0  0  0  0  0
   35.6970   28.6280   35.7140 C   0  0  0  0  0  0  0  0  0  0  0  0
   34.6980   28.4900   36.8230 C   0  0  0  0  0  0  0  0  0  0  0  0
   35.3340   27.8570   38.0260 C   0  0  2  0  0  0  0  0  0  0  0  0
   34.9720   26.0040   37.0510 H   0  0  0  0  0  0  0  0  0  0  0  0
   37.8720   26.9470   36.9830 H   0  0  0  0  0  0  0  0  0  0  0  0
   37.0780   25.5520   36.2620 H   0  0  0  0  0  0  0  0  0  0  0  0
   35.6580   26.6520   34.8800 H   0  0  0  0  0  0  0  0  0  0  0  0
   37.2160   27.5110   34.6970 H   0  0  0  0  0  0  0  0  0  0  0  0
   35.1530   28.9380   34.7980 H   0  0  0  0  0  0  0  0  0  0  0  0
   36.4480   29.4270   35.9100 H   0  0  0  0  0  0  0  0  0  0  0  0
   34.1740   29.4240   36.9850 H   0  0  0  0  0  0  0  0  0  0  0  0
   33.9200   27.7670   36.4410 H   0  0  0  0  0  0  0  0  0  0  0  0
   34.5620   27.7790   38.8160 H   0  0  0  0  0  0  0  0  0  0  0  0
   36.1060   25.6480   38.7480 C   0  0  0  0  0  0  0  0  0  0  0  0
   35.5610   24.3400   38.7340 C   0  0  0  0  0  0  0  0  0  0  0  0
   35.8550   23.5080   39.8410 C   0  0  0  0  0  0  0  0  0  0  0  0
   36.6430   24.0220   40.8530 N   0  0  0  0  0  0  0  0  0  0  0  0
   37.1240   25.2930   40.7820 C   0  0  0  0  0  0  0  0  0  0  0  0
   36.8600   26.0820   39.7520 N   0  0  0  0  0  0  0  0  0  0  0  0
   34.9470   23.8960   37.9730 H   0  0  0  0  0  0  0  0  0  0  0  0
   35.4790   22.5080   39.9000 H   0  0  0  0  0  0  0  0  0  0  0  0
   37.9440   25.7710   41.9000 C   0  0  0  0  0  0  0  0  0  0  0  0
   37.6750   26.9150   42.5520 C   0  0  0  0  0  0  0  0  0  0  0  0
   38.4620   27.3570   43.6080 C   0  0  0  0  0  0  0  0  0  0  0  0
   39.5340   26.5890   43.9740 C   0  0  0  0  0  0  0  0  0  0  0  0
   39.8150   25.4240   43.3190 C   0  0  0  0  0  0  0  0  0  0  0  0
   39.0270   25.0100   42.2830 N   0  0  0  0  0  0  0  0  0  0  0  0
   36.8140   27.4610   42.2000 H   0  0  0  0  0  0  0  0  0  0  0  0
   38.1320   28.2910   44.0390 H   0  0  0  0  0  0  0  0  0  0  0  0
   40.0970   27.0020   44.8060 H   0  0  0  0  0  0  0  0  0  0  0  0
   40.6690   24.8630   43.6510 H   0  0  0  0  0  0  0  0  0  0  0  0
   36.4340   28.6400   38.5130 N   0  0  0  0  0  0  0  0  0  0  0  0
   37.4110   28.4540   38.1330 H   0  0  0  0  0  0  0  0  0  0  0  0
   36.3510   29.6760   39.4910 C   0  0  0  0  0  0  0  0  0  0  0  0
   35.5510   29.7790   40.6090 C   0  0  0  0  0  0  0  0  0  0  0  0
   34.8300   29.0690   40.9590 H   0  0  0  0  0  0  0  0  0  0  0  0
   35.7770   30.9260   41.2720 N   0  0  0  0  0  0  0  0  0  0  0  0
   35.3050   31.2570   42.1560 H   0  0  0  0  0  0  0  0  0  0  0  0
   36.7200   31.5630   40.5840 C   0  0  0  0  0  0  0  0  0  0  0  0
   37.1500   32.5340   40.8350 H   0  0  0  0  0  0  0  0  0  0  0  0
   37.0570   30.8200   39.5310 N   0  0  0  0  0  0  0  0  0  0  0  0
  1  7  1  6  0  0  0
  1  6  1  0  0  0  0
  1 17  1  0  0  0  0
  2  8  1  0  0  0  0
  2  1  1  0  0  0  0
  3  4  1  0  0  0  0
  3  2  1  0  0  0  0
  4 13  1  0  0  0  0
  4  5  1  0  0  0  0
  5 14  1  0  0  0  0
  5  6  1  0  0  0  0
  6 35  1  0  0  0  0
  6 16  1  1  0  0  0
  9  2  1  0  0  0  0
 10  3  1  0  0  0  0
 11  3  1  0  0  0  0
 12  4  1  0  0  0  0
 15  5  1  0  0  0  0
 17 22  1  0  0  0  0
 18 17  2  0  0  0  0
 18 19  1  0  0  0  0
 19 24  1  0  0  0  0
 19 20  2  0  0  0  0
 21 20  1  0  0  0  0
 21 25  1  0  0  0  0
 22 21  2  0  0  0  0
 23 18  1  0  0  0  0
 25 30  2  0  0  0  0
 25 26  1  0  0  0  0
 26 27  2  0  0  0  0
 27 28  1  0  0  0  0
 27 32  1  0  0  0  0
 28 33  1  0  0  0  0
 29 34  1  0  0  0  0
 29 28  2  0  0  0  0
 30 29  1  0  0  0  0
 31 26  1  0  0  0  0
 35 37  1  0  0  0  0
 36 35  1  0  0  0  0
 37 44  1  0  0  0  0
 37 38  2  0  0  0  0
 38 39  1  0  0  0  0
 38 40  1  0  0  0  0
 40 41  1  0  0  0  0
 42 43  1  0  0  0  0
 42 40  1  0  0  0  0
 44 42  2  0  0  0  0
M  END
>  <minimizedAffinity>
-5.72532845

$$$$

 OpenBabel03252507303D

 44 47  0  0  1  0  0  0  0  0999 V2000
   37.2430   29.4650   38.6110 C   0  0  2  0  0  0  0  0  0  0  0  0
   35.8310   29.5590   38.0830 C   0  0  0  0  0  0  0  0  0  0  0  0
   35.5420   28.3140   37.2820 C   0  0  0  0  0  0  0  0  0  0  0  0
   35.8650   27.0430   37.9990 C   0  0  0  0  0  0  0  0  0  0  0  0
   37.2300   27.0640   38.6180 C   0  0  0  0  0  0  0  0  0  0  0  0
   37.3970   28.2800   39.4810 C   0  0  2  0  0  0  0  0  0  0  0  0
   37.8580   29.3060   37.6790 H   0  0  0  0  0  0  0  0  0  0  0  0
   35.0720   29.8550   38.7930 H   0  0  0  0  0  0  0  0  0  0  0  0
   35.8700   30.3900   37.3180 H   0  0  0  0  0  0  0  0  0  0  0  0
   36.1500   28.3670   36.3360 H   0  0  0  0  0  0  0  0  0  0  0  0
   34.4820   28.3250   36.9820 H   0  0  0  0  0  0  0  0  0  0  0  0
   35.8410   26.2300   37.2450 H   0  0  0  0  0  0  0  0  0  0  0  0
   35.0640   26.8020   38.7360 H   0  0  0  0  0  0  0  0  0  0  0  0
   37.4580   26.1080   39.0750 H   0  0  0  0  0  0  0  0  0  0  0  0
   37.9510   27.1680   37.7560 H   0  0  0  0  0  0  0  0  0  0  0  0
   38.4150   28.2500   39.9170 H   0  0  0  0  0  0  0  0  0  0  0  0
   37.7270   30.6920   39.2130 C   0  0  0  0  0  0  0  0  0  0  0  0
   36.9800   31.8730   38.9810 C   0  0  0  0  0  0  0  0  0  0  0  0
   37.4700   33.0690   39.5610 C   0  0  0  0  0  0  0  0  0  0  0  0
   38.6310   33.0050   40.3070 N   0  0  0  0  0  0  0  0  0  0  0  0
   39.2830   31.8230   40.4770 C   0  0  0  0  0  0  0  0  0  0  0  0
   38.8370   30.6960   39.9420 N   0  0  0  0  0  0  0  0  0  0  0  0
   36.0750   31.9730   38.4130 H   0  0  0  0  0  0  0  0  0  0  0  0
   36.9590   34.0000   39.4300 H   0  0  0  0  0  0  0  0  0  0  0  0
   40.5160   31.8380   41.2720 C   0  0  0  0  0  0  0  0  0  0  0  0
   40.6960   31.0340   42.3340 C   0  0  0  0  0  0  0  0  0  0  0  0
   41.8690   31.0610   43.0800 C   0  0  0  0  0  0  0  0  0  0  0  0
   42.8490   31.9370   42.7010 C   0  0  0  0  0  0  0  0  0  0  0  0
   42.6760   32.7560   41.6230 C   0  0  0  0  0  0  0  0  0  0  0  0
   41.5150   32.7120   40.9060 N   0  0  0  0  0  0  0  0  0  0  0  0
   39.8750   30.3750   42.5660 H   0  0  0  0  0  0  0  0  0  0  0  0
   41.8780   30.3640   43.9050 H   0  0  0  0  0  0  0  0  0  0  0  0
   43.7320   31.8960   43.3330 H   0  0  0  0  0  0  0  0  0  0  0  0
   43.4810   33.4230   41.3730 H   0  0  0  0  0  0  0  0  0  0  0  0
   36.4280   28.3110   40.5400 N   0  0  0  0  0  0  0  0  0  0  0  0
   35.3920   28.2880   40.2960 H   0  0  0  0  0  0  0  0  0  0  0  0
   36.7210   28.3760   41.9350 C   0  0  0  0  0  0  0  0  0  0  0  0
   37.3110   29.3790   42.6730 C   0  0  0  0  0  0  0  0  0  0  0  0
   37.6600   30.3280   42.3170 H   0  0  0  0  0  0  0  0  0  0  0  0
   37.4120   29.0430   43.9700 N   0  0  0  0  0  0  0  0  0  0  0  0
   37.8220   29.6240   44.7510 H   0  0  0  0  0  0  0  0  0  0  0  0
   36.8880   27.8260   44.0700 C   0  0  0  0  0  0  0  0  0  0  0  0
   36.8040   27.2390   44.9870 H   0  0  0  0  0  0  0  0  0  0  0  0
   36.4810   27.4340   42.8650 N   0  0  0  0  0  0  0  0  0  0  0  0
  1  7  1  6  0  0  0
  1 17  1  0  0  0  0
  1  6  1  0  0  0  0
  2  1  1  0  0  0  0
  2  8  1  0  0  0  0
  3  4  1  0  0  0  0
  3  2  1  0  0  0  0
  4  5  1  0  0  0  0
  4 13  1  0  0  0  0
  5 14  1  0  0  0  0
  5  6  1  0  0  0  0
  6 16  1  1  0  0  0
  6 35  1  0  0  0  0
  9  2  1  0  0  0  0
 10  3  1  0  0  0  0
 11  3  1  0  0  0  0
 12  4  1  0  0  0  0
 15  5  1  0  0  0  0
 17 22  1  0  0  0  0
 18 17  2  0  0  0  0
 18 19  1  0  0  0  0
 19 20  2  0  0  0  0
 20 21  1  0  0  0  0
 21 25  1  0  0  0  0
 22 21  2  0  0  0  0
 23 18  1  0  0  0  0
 24 19  1  0  0  0  0
 25 26  1  0  0  0  0
 26 31  1  0  0  0  0
 26 27  2  0  0  0  0
 27 32  1  0  0  0  0
 28 27  1  0  0  0  0
 28 33  1  0  0  0  0
 29 28  2  0  0  0  0
 30 25  2  0  0  0  0
 30 29  1  0  0  0  0
 34 29  1  0  0  0  0
 35 37  1  0  0  0  0
 36 35  1  0  0  0  0
 37 38  2  0  0  0  0
 37 44  1  0  0  0  0
 38 40  1  0  0  0  0
 39 38  1  0  0  0  0
 40 42  1  0  0  0  0
 40 41  1  0  0  0  0
 42 43  1  0  0  0  0
 44 42  2  0  0  0  0
M  END
>  <minimizedAffinity>
-5.71026516

$$$$

 OpenBabel03252507303D

 44 47  0  0  1  0  0  0  0  0999 V2000
   37.2380   30.1190   40.5680 C   0  0  2  0  0  0  0  0  0  0  0  0
   37.3670   29.6960   39.1240 C   0  0  0  0  0  0  0  0  0  0  0  0
   36.8040   30.7960   38.2590 C   0  0  0  0  0  0  0  0  0  0  0  0
   37.3480   32.1520   38.5710 C   0  0  0  0  0  0  0  0  0  0  0  0
   37.3180   32.4590   40.0380 C   0  0  0  0  0  0  0  0  0  0  0  0
   37.9900   31.3670   40.8170 C   0  0  2  0  0  0  0  0  0  0  0  0
   36.1360   30.3380   40.6770 H   0  0  0  0  0  0  0  0  0  0  0  0
   38.3260   29.2980   38.8250 H   0  0  0  0  0  0  0  0  0  0  0  0
   36.6370   28.8410   39.0130 H   0  0  0  0  0  0  0  0  0  0  0  0
   35.6880   30.8060   38.4000 H   0  0  0  0  0  0  0  0  0  0  0  0
   36.9890   30.5440   37.2010 H   0  0  0  0  0  0  0  0  0  0  0  0
   36.7010   32.8890   38.0520 H   0  0  0  0  0  0  0  0  0  0  0  0
   38.3650   32.2720   38.1290 H   0  0  0  0  0  0  0  0  0  0  0  0
   37.6590   33.4700   40.2250 H   0  0  0  0  0  0  0  0  0  0  0  0
   36.2270   32.4490   40.3260 H   0  0  0  0  0  0  0  0  0  0  0  0
   37.9450   31.6370   41.8900 H   0  0  0  0  0  0  0  0  0  0  0  0
   37.5380   29.0640   41.5170 C   0  0  0  0  0  0  0  0  0  0  0  0
   36.4520   28.2960   42.0060 C   0  0  0  0  0  0  0  0  0  0  0  0
   36.7540   27.2780   42.9430 C   0  0  0  0  0  0  0  0  0  0  0  0
   38.0720   27.1030   43.3150 N   0  0  0  0  0  0  0  0  0  0  0  0
   39.0520   27.8890   42.7920 C   0  0  0  0  0  0  0  0  0  0  0  0
   38.7860   28.8440   41.9140 N   0  0  0  0  0  0  0  0  0  0  0  0
   35.4150   28.3920   41.7470 H   0  0  0  0  0  0  0  0  0  0  0  0
   35.9860   26.6570   43.3550 H   0  0  0  0  0  0  0  0  0  0  0  0
   40.4270   27.6510   43.2450 C   0  0  0  0  0  0  0  0  0  0  0  0
   40.8060   26.4930   43.8130 C   0  0  0  0  0  0  0  0  0  0  0  0
   42.1120   26.2820   44.2400 C   0  0  0  0  0  0  0  0  0  0  0  0
   43.0140   27.2950   44.0670 C   0  0  0  0  0  0  0  0  0  0  0  0
   42.6390   28.4750   43.4910 C   0  0  0  0  0  0  0  0  0  0  0  0
   41.3500   28.6590   43.0780 N   0  0  0  0  0  0  0  0  0  0  0  0
   40.0340   25.7470   43.9140 H   0  0  0  0  0  0  0  0  0  0  0  0
   42.2760   25.3080   44.6780 H   0  0  0  0  0  0  0  0  0  0  0  0
   44.0100   27.0520   44.4250 H   0  0  0  0  0  0  0  0  0  0  0  0
   43.3910   29.2340   43.3800 H   0  0  0  0  0  0  0  0  0  0  0  0
   39.3610   31.2070   40.4240 N   0  0  0  0  0  0  0  0  0  0  0  0
   39.6350   30.3730   39.8220 H   0  0  0  0  0  0  0  0  0  0  0  0
   40.4340   32.0810   40.7720 C   0  0  0  0  0  0  0  0  0  0  0  0
   41.3750   31.9770   41.7740 C   0  0  0  0  0  0  0  0  0  0  0  0
   41.4760   31.1870   42.4900 H   0  0  0  0  0  0  0  0  0  0  0  0
   42.2190   33.0230   41.7690 N   0  0  0  0  0  0  0  0  0  0  0  0
   43.0280   33.1940   42.4240 H   0  0  0  0  0  0  0  0  0  0  0  0
   41.8240   33.8010   40.7670 C   0  0  0  0  0  0  0  0  0  0  0  0
   42.2850   34.7450   40.4700 H   0  0  0  0  0  0  0  0  0  0  0  0
   40.7680   33.2410   40.1790 N   0  0  0  0  0  0  0  0  0  0  0  0
  1  7  1  1  0  0  0
  1  6  1  0  0  0  0
  1 17  1  0  0  0  0
  2  1  1  0  0  0  0
  3 10  1  0  0  0  0
  3  4  1  0  0  0  0
  3  2  1  0  0  0  0
  4  5  1  0  0  0  0
  5 14  1  0  0  0  0
  5 15  1  0  0  0  0
  5  6  1  0  0  0  0
  6 16  1  1  0  0  0
  8  2  1  0  0  0  0
  9  2  1  0  0  0  0
 11  3  1  0  0  0  0
 12  4  1  0  0  0  0
 13  4  1  0  0  0  0
 17 22  2  0  0  0  0
 17 18  1  0  0  0  0
 18 19  2  0  0  0  0
 19 20  1  0  0  0  0
 19 24  1  0  0  0  0
 21 25  1  0  0  0  0
 21 20  2  0  0  0  0
 22 21  1  0  0  0  0
 23 18  1  0  0  0  0
 25 26  1  0  0  0  0
 26 31  1  0  0  0  0
 26 27  2  0  0  0  0
 27 32  1  0  0  0  0
 28 27  1  0  0  0  0
 28 33  1  0  0  0  0
 29 28  2  0  0  0  0
 30 25  2  0  0  0  0
 30 29  1  0  0  0  0
 34 29  1  0  0  0  0
 35 37  1  0  0  0  0
 35  6  1  0  0  0  0
 36 35  1  0  0  0  0
 37 38  2  0  0  0  0
 38 39  1  0  0  0  0
 40 38  1  0  0  0  0
 40 41  1  0  0  0  0
 42 40  1  0  0  0  0
 43 42  1  0  0  0  0
 44 42  2  0  0  0  0
 44 37  1  0  0  0  0
M  END
>  <minimizedAffinity>
-5.66967487

$$$$
