
 OpenBabel03252501343D

 24 25  0  0  0  0  0  0  0  0999 V2000
   44.3170   35.1310   42.5240 C   0  0  0  0  0  0  0  0  0  0  0  0
   44.2370   33.8590   42.6070 O   0  0  0  0  0  0  0  0  0  0  0  0
   45.1850   35.7000   43.5060 N   0  0  0  0  0  0  0  0  0  0  0  0
   45.3520   36.7120   43.5400 H   0  0  0  0  0  0  0  0  0  0  0  0
   45.7070   34.6260   44.3400 C   0  0  0  0  0  0  0  0  0  0  0  0
   45.2910   34.3590   45.6200 C   0  0  0  0  0  0  0  0  0  0  0  0
   45.9120   33.2830   46.2490 C   0  0  0  0  0  0  0  0  0  0  0  0
   46.8470   32.6100   45.5680 N   0  0  0  0  0  0  0  0  0  0  0  0
   47.2290   32.9010   44.3150 C   0  0  0  0  0  0  0  0  0  0  0  0
   46.6460   33.9400   43.6720 N   0  0  0  0  0  0  0  0  0  0  0  0
   45.5870   33.0710   47.2560 H   0  0  0  0  0  0  0  0  0  0  0  0
   47.9970   32.2900   43.8550 H   0  0  0  0  0  0  0  0  0  0  0  0
   44.2890   35.1840   46.1660 N   0  0  0  0  0  0  0  0  0  0  0  0
   43.3160   34.9610   45.8160 H   0  0  0  0  0  0  0  0  0  0  0  0
   44.8700   35.8040   46.7930 H   0  0  0  0  0  0  0  0  0  0  0  0
   43.6500   35.9430   41.5850 O   0  0  0  0  0  0  0  0  0  0  0  0
   42.5610   35.4000   40.9100 C   0  0  0  0  0  0  0  0  0  0  0  0
   42.2400   34.7860   39.7200 C   0  0  0  0  0  0  0  0  0  0  0  0
   43.0770   34.6590   39.0470 H   0  0  0  0  0  0  0  0  0  0  0  0
   40.9190   34.5220   39.7620 N   0  0  0  0  0  0  0  0  0  0  0  0
   40.5000   34.0430   38.9120 H   0  0  0  0  0  0  0  0  0  0  0  0
   40.4010   34.9430   40.9260 C   0  0  0  0  0  0  0  0  0  0  0  0
   39.3510   34.8280   41.1680 H   0  0  0  0  0  0  0  0  0  0  0  0
   41.4080   35.4840   41.6360 N   0  0  0  0  0  0  0  0  0  0  0  0
  1  2  2  0  0  0  0
  1  3  1  0  0  0  0
  3  4  1  0  0  0  0
  3  5  1  0  0  0  0
  5  6  1  0  0  0  0
  6 13  1  0  0  0  0
  6  7  2  0  0  0  0
  7 11  1  0  0  0  0
  8  7  1  0  0  0  0
  9  8  2  0  0  0  0
 10  9  1  0  0  0  0
 10  5  2  0  0  0  0
 12  9  1  0  0  0  0
 13 15  1  0  0  0  0
 14 13  1  0  0  0  0
 16  1  1  0  0  0  0
 17 16  1  0  0  0  0
 17 24  1  0  0  0  0
 18 20  1  0  0  0  0
 18 17  2  0  0  0  0
 19 18  1  0  0  0  0
 20 22  1  0  0  0  0
 21 20  1  0  0  0  0
 22 23  1  0  0  0  0
 22 24  2  0  0  0  0
M  END
>  <minimizedAffinity>
-4.87399244

>  <minimizedRMSD>
0.311845422

$$$$
