
 OpenBabel03242523133D

 45 49  0  0  1  0  0  0  0  0999 V2000
   37.5840   31.5780   36.7810 C   0  0  0  0  0  0  0  0  0  0  0  0
   37.8590   31.2290   38.1040 C   0  0  0  0  0  0  0  0  0  0  0  0
   37.4850   30.0030   38.5650 C   0  0  0  0  0  0  0  0  0  0  0  0
   36.8450   29.1720   37.6800 N   0  0  0  0  0  0  0  0  0  0  0  0
   36.5820   29.5150   36.4080 C   0  0  0  0  0  0  0  0  0  0  0  0
   36.9490   30.6920   35.9790 N   0  0  0  0  0  0  0  0  0  0  0  0
   37.8760   32.5460   36.3980 H   0  0  0  0  0  0  0  0  0  0  0  0
   36.0810   28.8970   35.6760 H   0  0  0  0  0  0  0  0  0  0  0  0
   38.4840   32.1880   38.9000 N   0  0  0  0  0  0  0  0  0  0  0  0
   37.7420   33.1370   39.6640 C   0  0  0  0  0  0  0  0  0  0  0  0
   38.5630   33.9790   40.5970 C   0  0  0  0  0  0  0  0  0  0  0  0
   39.6020   33.3050   41.2490 N   0  0  0  0  0  0  0  0  0  0  0  0
   40.3370   32.4180   40.4920 C   0  0  0  0  0  0  0  0  0  0  0  0
   39.8750   32.3540   39.0540 C   0  0  0  0  0  0  0  0  0  0  0  0
   36.8750   32.6920   40.2250 H   0  0  0  0  0  0  0  0  0  0  0  0
   37.2720   33.8320   38.9280 H   0  0  0  0  0  0  0  0  0  0  0  0
   38.9880   34.8420   40.0330 H   0  0  0  0  0  0  0  0  0  0  0  0
   37.8610   34.4140   41.3560 H   0  0  0  0  0  0  0  0  0  0  0  0
   39.4870   33.0960   42.2630 H   0  0  0  0  0  0  0  0  0  0  0  0
   40.4050   31.3700   40.8440 H   0  0  0  0  0  0  0  0  0  0  0  0
   41.4050   32.7750   40.4430 H   0  0  0  0  0  0  0  0  0  0  0  0
   40.3760   31.4840   38.5490 H   0  0  0  0  0  0  0  0  0  0  0  0
   40.2120   33.2840   38.5240 H   0  0  0  0  0  0  0  0  0  0  0  0
   36.4050   28.7820   40.2550 C   0  0  0  0  0  0  0  0  0  0  0  0
   37.6090   29.3500   39.7940 C   0  0  0  0  0  0  0  0  0  0  0  0
   38.6210   29.1710   40.7040 C   0  0  0  0  0  0  0  0  0  0  0  0
   38.5190   28.5410   41.9030 C   0  0  0  0  0  0  0  0  0  0  0  0
   37.2870   28.0160   42.2790 C   0  0  0  0  0  0  0  0  0  0  0  0
   36.2230   28.1360   41.4470 C   0  0  0  0  0  0  0  0  0  0  0  0
   37.5170   27.4640   43.5330 O   0  0  0  0  0  0  0  0  0  0  0  0
   38.8860   27.5870   43.8860 C   0  0  2  0  0  0  0  0  0  0  0  0
   39.5110   28.3300   42.8480 O   0  0  0  0  0  0  0  0  0  0  0  0
   35.4070   28.7400   39.7630 H   0  0  0  0  0  0  0  0  0  0  0  0
   39.5240   29.5850   40.3790 H   0  0  0  0  0  0  0  0  0  0  0  0
   35.3280   27.6910   41.8410 H   0  0  0  0  0  0  0  0  0  0  0  0
   38.9550   28.1150   44.8510 H   0  0  0  0  0  0  0  0  0  0  0  0
   39.4020   26.2800   43.9040 O   0  0  0  0  0  0  0  0  0  0  0  0
   40.7260   25.9330   43.7390 C   0  0  0  0  0  0  0  0  0  0  0  0
   41.1000   24.9380   42.8320 C   0  0  0  0  0  0  0  0  0  0  0  0
   40.5300   24.3030   42.1520 H   0  0  0  0  0  0  0  0  0  0  0  0
   42.4330   24.8570   42.9240 N   0  0  0  0  0  0  0  0  0  0  0  0
   43.1620   24.2580   42.4410 H   0  0  0  0  0  0  0  0  0  0  0  0
   42.9110   25.7350   43.8250 C   0  0  0  0  0  0  0  0  0  0  0  0
   43.9080   25.9620   44.1700 H   0  0  0  0  0  0  0  0  0  0  0  0
   41.8360   26.4060   44.3340 N   0  0  0  0  0  0  0  0  0  0  0  0
  1  2  1  0  0  0  0
  2  3  2  0  0  0  0
  2  9  1  0  0  0  0
  3 25  1  0  0  0  0
  4  3  1  0  0  0  0
  5  4  2  0  0  0  0
  6  5  1  0  0  0  0
  6  1  2  0  0  0  0
  7  1  1  0  0  0  0
  8  5  1  0  0  0  0
  9 14  1  0  0  0  0
  9 10  1  0  0  0  0
 10 15  1  0  0  0  0
 10 11  1  0  0  0  0
 11 12  1  0  0  0  0
 11 18  1  0  0  0  0
 12 19  1  0  0  0  0
 13 20  1  0  0  0  0
 13 12  1  0  0  0  0
 14 13  1  0  0  0  0
 16 10  1  0  0  0  0
 17 11  1  0  0  0  0
 21 13  1  0  0  0  0
 22 14  1  0  0  0  0
 23 14  1  0  0  0  0
 24 29  1  0  0  0  0
 25 24  2  0  0  0  0
 25 26  1  0  0  0  0
 26 27  2  0  0  0  0
 27 28  1  0  0  0  0
 27 32  1  0  0  0  0
 28 30  1  0  0  0  0
 29 35  1  0  0  0  0
 29 28  2  0  0  0  0
 30 31  1  0  0  0  0
 31 37  1  0  0  0  0
 31 36  1  1  0  0  0
 32 31  1  0  0  0  0
 33 24  1  0  0  0  0
 34 26  1  0  0  0  0
 38 37  1  0  0  0  0
 38 45  1  0  0  0  0
 39 41  1  0  0  0  0
 39 38  2  0  0  0  0
 40 39  1  0  0  0  0
 41 43  1  0  0  0  0
 42 41  1  0  0  0  0
 43 44  1  0  0  0  0
 43 45  2  0  0  0  0
M  END
>  <minimizedAffinity>
-6.14376116

$$$$

 OpenBabel03242523133D

 45 49  0  0  1  0  0  0  0  0999 V2000
   36.6600   28.0690   41.3860 C   0  0  0  0  0  0  0  0  0  0  0  0
   37.6690   28.9450   40.9840 C   0  0  0  0  0  0  0  0  0  0  0  0
   38.5070   29.4770   41.9170 C   0  0  0  0  0  0  0  0  0  0  0  0
   38.2980   29.1120   43.2240 N   0  0  0  0  0  0  0  0  0  0  0  0
   37.3240   28.2700   43.6040 C   0  0  0  0  0  0  0  0  0  0  0  0
   36.5300   27.7650   42.6990 N   0  0  0  0  0  0  0  0  0  0  0  0
   35.9880   27.6360   40.6590 H   0  0  0  0  0  0  0  0  0  0  0  0
   37.1190   27.9540   44.6180 H   0  0  0  0  0  0  0  0  0  0  0  0
   37.7410   29.2550   39.6260 N   0  0  0  0  0  0  0  0  0  0  0  0
   36.9270   30.2680   39.0370 C   0  0  0  0  0  0  0  0  0  0  0  0
   37.2550   30.5910   37.6080 C   0  0  0  0  0  0  0  0  0  0  0  0
   38.6200   30.6070   37.3000 N   0  0  0  0  0  0  0  0  0  0  0  0
   39.3910   29.6020   37.8430 C   0  0  0  0  0  0  0  0  0  0  0  0
   38.5840   28.6360   38.6820 C   0  0  0  0  0  0  0  0  0  0  0  0
   36.8790   31.2190   39.6350 H   0  0  0  0  0  0  0  0  0  0  0  0
   35.8820   29.8760   39.0500 H   0  0  0  0  0  0  0  0  0  0  0  0
   36.7400   29.8620   36.9410 H   0  0  0  0  0  0  0  0  0  0  0  0
   36.8060   31.5940   37.3850 H   0  0  0  0  0  0  0  0  0  0  0  0
   39.0740   31.5320   37.1410 H   0  0  0  0  0  0  0  0  0  0  0  0
   40.2640   29.8950   38.4590 H   0  0  0  0  0  0  0  0  0  0  0  0
   39.8230   28.9790   37.0090 H   0  0  0  0  0  0  0  0  0  0  0  0
   39.2900   27.9680   39.2470 H   0  0  0  0  0  0  0  0  0  0  0  0
   37.9820   27.9800   37.9990 H   0  0  0  0  0  0  0  0  0  0  0  0
   40.7240   29.8990   42.5650 C   0  0  0  0  0  0  0  0  0  0  0  0
   39.5930   30.3530   41.8570 C   0  0  0  0  0  0  0  0  0  0  0  0
   39.8150   31.5930   41.3130 C   0  0  0  0  0  0  0  0  0  0  0  0
   40.9550   32.3250   41.4230 C   0  0  0  0  0  0  0  0  0  0  0  0
   42.0180   31.8000   42.1480 C   0  0  0  0  0  0  0  0  0  0  0  0
   41.9020   30.5770   42.7220 C   0  0  0  0  0  0  0  0  0  0  0  0
   43.0000   32.7800   42.0760 O   0  0  0  0  0  0  0  0  0  0  0  0
   42.5680   33.8570   41.2600 C   0  0  2  0  0  0  0  0  0  0  0  0
   41.2250   33.5740   40.8870 O   0  0  0  0  0  0  0  0  0  0  0  0
   40.8820   28.9400   43.1090 H   0  0  0  0  0  0  0  0  0  0  0  0
   38.9870   31.9470   40.7820 H   0  0  0  0  0  0  0  0  0  0  0  0
   42.7870   30.2740   43.2520 H   0  0  0  0  0  0  0  0  0  0  0  0
   42.6300   34.7900   41.8450 H   0  0  0  0  0  0  0  0  0  0  0  0
   43.3880   33.8340   40.1190 O   0  0  0  0  0  0  0  0  0  0  0  0
   42.9780   33.5360   38.8370 C   0  0  0  0  0  0  0  0  0  0  0  0
   42.7130   34.5510   37.9140 C   0  0  0  0  0  0  0  0  0  0  0  0
   42.7610   35.6390   37.9750 H   0  0  0  0  0  0  0  0  0  0  0  0
   42.3440   33.9220   36.7910 N   0  0  0  0  0  0  0  0  0  0  0  0
   42.0510   34.2580   35.8290 H   0  0  0  0  0  0  0  0  0  0  0  0
   42.3620   32.5860   36.9560 C   0  0  0  0  0  0  0  0  0  0  0  0
   42.1330   31.7640   36.2960 H   0  0  0  0  0  0  0  0  0  0  0  0
   42.7590   32.3500   38.2400 N   0  0  0  0  0  0  0  0  0  0  0  0
  1  6  1  0  0  0  0
  2  1  2  0  0  0  0
  2  3  1  0  0  0  0
  3  4  2  0  0  0  0
  4  5  1  0  0  0  0
  5  8  1  0  0  0  0
  6  5  2  0  0  0  0
  7  1  1  0  0  0  0
  9  2  1  0  0  0  0
 10 16  1  0  0  0  0
 10  9  1  0  0  0  0
 10 15  1  0  0  0  0
 11 10  1  0  0  0  0
 12 11  1  0  0  0  0
 12 13  1  0  0  0  0
 13 20  1  0  0  0  0
 13 14  1  0  0  0  0
 14 22  1  0  0  0  0
 14  9  1  0  0  0  0
 17 11  1  0  0  0  0
 18 11  1  0  0  0  0
 19 12  1  0  0  0  0
 21 13  1  0  0  0  0
 23 14  1  0  0  0  0
 24 29  1  0  0  0  0
 24 33  1  0  0  0  0
 25  3  1  0  0  0  0
 25 24  2  0  0  0  0
 26 27  2  0  0  0  0
 26 25  1  0  0  0  0
 27 28  1  0  0  0  0
 28 29  2  0  0  0  0
 29 35  1  0  0  0  0
 30 28  1  0  0  0  0
 31 36  1  1  0  0  0
 31 30  1  0  0  0  0
 32 31  1  0  0  0  0
 32 27  1  0  0  0  0
 34 26  1  0  0  0  0
 37 31  1  0  0  0  0
 38 37  1  0  0  0  0
 39 40  1  0  0  0  0
 39 38  2  0  0  0  0
 41 43  1  0  0  0  0
 41 39  1  0  0  0  0
 42 41  1  0  0  0  0
 43 45  2  0  0  0  0
 44 43  1  0  0  0  0
 45 38  1  0  0  0  0
M  END
>  <minimizedAffinity>
-6.05479622

$$$$

 OpenBabel03242523133D

 45 49  0  0  1  0  0  0  0  0999 V2000
   40.8030   34.0430   39.2410 C   0  0  0  0  0  0  0  0  0  0  0  0
   40.4330   32.7480   39.6090 C   0  0  0  0  0  0  0  0  0  0  0  0
   39.4100   32.5690   40.4910 C   0  0  0  0  0  0  0  0  0  0  0  0
   38.7960   33.6980   40.9740 N   0  0  0  0  0  0  0  0  0  0  0  0
   39.1580   34.9410   40.6160 C   0  0  0  0  0  0  0  0  0  0  0  0
   40.1380   35.0980   39.7680 N   0  0  0  0  0  0  0  0  0  0  0  0
   41.6110   34.2040   38.5420 H   0  0  0  0  0  0  0  0  0  0  0  0
   38.7070   35.8580   40.9680 H   0  0  0  0  0  0  0  0  0  0  0  0
   41.1700   31.6960   39.0670 N   0  0  0  0  0  0  0  0  0  0  0  0
   40.7830   31.0460   37.8570 C   0  0  0  0  0  0  0  0  0  0  0  0
   41.7790   30.0560   37.3250 C   0  0  0  0  0  0  0  0  0  0  0  0
   43.1200   30.4380   37.4460 N   0  0  0  0  0  0  0  0  0  0  0  0
   43.4910   31.0300   38.6340 C   0  0  0  0  0  0  0  0  0  0  0  0
   42.3450   31.1440   39.6140 C   0  0  0  0  0  0  0  0  0  0  0  0
   40.4820   31.7530   37.0370 H   0  0  0  0  0  0  0  0  0  0  0  0
   39.8530   30.4760   38.0920 H   0  0  0  0  0  0  0  0  0  0  0  0
   41.6310   29.0780   37.8370 H   0  0  0  0  0  0  0  0  0  0  0  0
   41.5310   29.8870   36.2440 H   0  0  0  0  0  0  0  0  0  0  0  0
   43.6250   30.7280   36.5820 H   0  0  0  0  0  0  0  0  0  0  0  0
   43.9610   32.0320   38.5870 H   0  0  0  0  0  0  0  0  0  0  0  0
   44.2540   30.3780   39.1470 H   0  0  0  0  0  0  0  0  0  0  0  0
   42.6610   31.8030   40.4680 H   0  0  0  0  0  0  0  0  0  0  0  0
   42.1310   30.1280   40.0390 H   0  0  0  0  0  0  0  0  0  0  0  0
   37.4720   31.2490   40.6170 C   0  0  0  0  0  0  0  0  0  0  0  0
   38.7980   31.4440   41.0500 C   0  0  0  0  0  0  0  0  0  0  0  0
   39.1610   30.4970   41.9740 C   0  0  0  0  0  0  0  0  0  0  0  0
   38.3770   29.4910   42.4420 C   0  0  0  0  0  0  0  0  0  0  0  0
   37.0760   29.3800   41.9630 C   0  0  0  0  0  0  0  0  0  0  0  0
   36.6210   30.2650   41.0410 C   0  0  0  0  0  0  0  0  0  0  0  0
   36.5540   28.2830   42.6360 O   0  0  0  0  0  0  0  0  0  0  0  0
   37.5450   27.6900   43.4620 C   0  0  2  0  0  0  0  0  0  0  0  0
   38.7010   28.5110   43.3670 O   0  0  0  0  0  0  0  0  0  0  0  0
   36.8780   31.8240   39.8710 H   0  0  0  0  0  0  0  0  0  0  0  0
   40.1440   30.6240   42.3070 H   0  0  0  0  0  0  0  0  0  0  0  0
   35.6060   30.0780   40.7430 H   0  0  0  0  0  0  0  0  0  0  0  0
   37.1650   27.6540   44.4970 H   0  0  0  0  0  0  0  0  0  0  0  0
   37.8150   26.4300   42.9010 O   0  0  0  0  0  0  0  0  0  0  0  0
   39.0670   25.8920   42.6940 C   0  0  0  0  0  0  0  0  0  0  0  0
   39.6000   25.7880   41.4070 C   0  0  0  0  0  0  0  0  0  0  0  0
   39.2180   26.0620   40.4230 H   0  0  0  0  0  0  0  0  0  0  0  0
   40.8070   25.2310   41.5660 N   0  0  0  0  0  0  0  0  0  0  0  0
   41.5780   24.9570   40.8930 H   0  0  0  0  0  0  0  0  0  0  0  0
   41.0580   24.9820   42.8650 C   0  0  0  0  0  0  0  0  0  0  0  0
   41.9030   24.5500   43.3780 H   0  0  0  0  0  0  0  0  0  0  0  0
   39.9640   25.3980   43.5680 N   0  0  0  0  0  0  0  0  0  0  0  0
  1  2  2  0  0  0  0
  1  6  1  0  0  0  0
  2  3  1  0  0  0  0
  3  4  2  0  0  0  0
  3 25  1  0  0  0  0
  5  8  1  0  0  0  0
  5  4  1  0  0  0  0
  6  5  2  0  0  0  0
  7  1  1  0  0  0  0
  9  2  1  0  0  0  0
  9 14  1  0  0  0  0
 10 16  1  0  0  0  0
 10  9  1  0  0  0  0
 11 12  1  0  0  0  0
 11 17  1  0  0  0  0
 11 10  1  0  0  0  0
 12 13  1  0  0  0  0
 13 21  1  0  0  0  0
 13 14  1  0  0  0  0
 14 23  1  0  0  0  0
 14 22  1  0  0  0  0
 15 10  1  0  0  0  0
 18 11  1  0  0  0  0
 19 12  1  0  0  0  0
 20 13  1  0  0  0  0
 24 29  2  0  0  0  0
 24 25  1  0  0  0  0
 25 26  2  0  0  0  0
 26 34  1  0  0  0  0
 26 27  1  0  0  0  0
 27 32  1  0  0  0  0
 28 27  2  0  0  0  0
 28 30  1  0  0  0  0
 29 28  1  0  0  0  0
 30 31  1  0  0  0  0
 31 36  1  1  0  0  0
 32 31  1  0  0  0  0
 33 24  1  0  0  0  0
 35 29  1  0  0  0  0
 37 31  1  0  0  0  0
 38 37  1  0  0  0  0
 38 45  1  0  0  0  0
 39 41  1  0  0  0  0
 39 38  2  0  0  0  0
 40 39  1  0  0  0  0
 41 43  1  0  0  0  0
 42 41  1  0  0  0  0
 43 44  1  0  0  0  0
 43 45  2  0  0  0  0
M  END
>  <minimizedAffinity>
-5.97219515

$$$$

 OpenBabel03242523133D

 45 49  0  0  1  0  0  0  0  0999 V2000
   36.5220   25.1090   39.8650 C   0  0  0  0  0  0  0  0  0  0  0  0
   36.9730   26.3430   40.3330 C   0  0  0  0  0  0  0  0  0  0  0  0
   36.7240   27.4680   39.6060 C   0  0  0  0  0  0  0  0  0  0  0  0
   36.0330   27.3110   38.4310 N   0  0  0  0  0  0  0  0  0  0  0  0
   35.6020   26.1200   37.9850 C   0  0  0  0  0  0  0  0  0  0  0  0
   35.8440   25.0500   38.6940 N   0  0  0  0  0  0  0  0  0  0  0  0
   36.7080   24.2060   40.4300 H   0  0  0  0  0  0  0  0  0  0  0  0
   35.0550   25.9460   37.0690 H   0  0  0  0  0  0  0  0  0  0  0  0
   37.6960   26.3470   41.5260 N   0  0  0  0  0  0  0  0  0  0  0  0
   39.0720   25.9730   41.5780 C   0  0  0  0  0  0  0  0  0  0  0  0
   39.7390   26.2020   42.9040 C   0  0  0  0  0  0  0  0  0  0  0  0
   39.3720   27.3820   43.5590 N   0  0  0  0  0  0  0  0  0  0  0  0
   38.0350   27.7150   43.5350 C   0  0  0  0  0  0  0  0  0  0  0  0
   37.1930   26.7000   42.7940 C   0  0  0  0  0  0  0  0  0  0  0  0
   39.6980   26.4240   40.7600 H   0  0  0  0  0  0  0  0  0  0  0  0
   39.1040   24.8740   41.3830 H   0  0  0  0  0  0  0  0  0  0  0  0
   39.5310   25.3350   43.5720 H   0  0  0  0  0  0  0  0  0  0  0  0
   40.8460   26.2000   42.7210 H   0  0  0  0  0  0  0  0  0  0  0  0
   40.0630   28.1610   43.5860 H   0  0  0  0  0  0  0  0  0  0  0  0
   37.7550   28.7060   43.1280 H   0  0  0  0  0  0  0  0  0  0  0  0
   37.6360   27.7140   44.5890 H   0  0  0  0  0  0  0  0  0  0  0  0
   36.1630   27.1230   42.6420 H   0  0  0  0  0  0  0  0  0  0  0  0
   37.0850   25.7840   43.4330 H   0  0  0  0  0  0  0  0  0  0  0  0
   36.1060   29.4940   40.6190 C   0  0  0  0  0  0  0  0  0  0  0  0
   37.0200   28.8220   39.7830 C   0  0  0  0  0  0  0  0  0  0  0  0
   37.9670   29.6850   39.2910 C   0  0  0  0  0  0  0  0  0  0  0  0
   38.0480   31.0160   39.5450 C   0  0  0  0  0  0  0  0  0  0  0  0
   37.0970   31.5960   40.3780 C   0  0  0  0  0  0  0  0  0  0  0  0
   36.1200   30.8280   40.9210 C   0  0  0  0  0  0  0  0  0  0  0  0
   37.4500   32.9400   40.4190 O   0  0  0  0  0  0  0  0  0  0  0  0
   38.6400   33.1630   39.6800 C   0  0  2  0  0  0  0  0  0  0  0  0
   38.9870   31.9230   39.0770 O   0  0  0  0  0  0  0  0  0  0  0  0
   35.2340   29.0920   41.1840 H   0  0  0  0  0  0  0  0  0  0  0  0
   38.6550   29.2040   38.6680 H   0  0  0  0  0  0  0  0  0  0  0  0
   35.4470   31.3830   41.5480 H   0  0  0  0  0  0  0  0  0  0  0  0
   38.4420   33.9340   38.9170 H   0  0  0  0  0  0  0  0  0  0  0  0
   39.6220   33.5190   40.6210 O   0  0  0  0  0  0  0  0  0  0  0  0
   40.9370   33.8210   40.3390 C   0  0  0  0  0  0  0  0  0  0  0  0
   41.2630   34.7510   39.3480 C   0  0  0  0  0  0  0  0  0  0  0  0
   40.6580   35.3580   38.6730 H   0  0  0  0  0  0  0  0  0  0  0  0
   42.6010   34.8030   39.3370 N   0  0  0  0  0  0  0  0  0  0  0  0
   43.3050   35.3530   38.7670 H   0  0  0  0  0  0  0  0  0  0  0  0
   43.1260   33.9690   40.2540 C   0  0  0  0  0  0  0  0  0  0  0  0
   44.1400   33.7370   40.5380 H   0  0  0  0  0  0  0  0  0  0  0  0
   42.0780   33.3560   40.8790 N   0  0  0  0  0  0  0  0  0  0  0  0
  1  2  1  0  0  0  0
  1  7  1  0  0  0  0
  2  9  1  0  0  0  0
  3 25  1  0  0  0  0
  3  2  2  0  0  0  0
  4  3  1  0  0  0  0
  5  4  2  0  0  0  0
  5  6  1  0  0  0  0
  6  1  2  0  0  0  0
  8  5  1  0  0  0  0
  9 10  1  0  0  0  0
  9 14  1  0  0  0  0
 10 11  1  0  0  0  0
 11 12  1  0  0  0  0
 11 17  1  0  0  0  0
 12 19  1  0  0  0  0
 13 12  1  0  0  0  0
 13 21  1  0  0  0  0
 14 23  1  0  0  0  0
 14 13  1  0  0  0  0
 15 10  1  0  0  0  0
 16 10  1  0  0  0  0
 18 11  1  0  0  0  0
 20 13  1  0  0  0  0
 22 14  1  0  0  0  0
 24 29  1  0  0  0  0
 24 33  1  0  0  0  0
 25 24  2  0  0  0  0
 26 27  2  0  0  0  0
 26 25  1  0  0  0  0
 27 28  1  0  0  0  0
 28 30  1  0  0  0  0
 28 29  2  0  0  0  0
 29 35  1  0  0  0  0
 31 36  1  6  0  0  0
 31 30  1  0  0  0  0
 31 37  1  0  0  0  0
 32 27  1  0  0  0  0
 32 31  1  0  0  0  0
 34 26  1  0  0  0  0
 38 37  1  0  0  0  0
 38 45  1  0  0  0  0
 39 38  2  0  0  0  0
 40 39  1  0  0  0  0
 41 39  1  0  0  0  0
 41 43  1  0  0  0  0
 42 41  1  0  0  0  0
 43 44  1  0  0  0  0
 43 45  2  0  0  0  0
M  END
>  <minimizedAffinity>
-5.94540787

$$$$

 OpenBabel03242523133D

 45 49  0  0  1  0  0  0  0  0999 V2000
   38.9110   23.5030   39.9420 C   0  0  0  0  0  0  0  0  0  0  0  0
   38.8800   24.8190   40.4050 C   0  0  0  0  0  0  0  0  0  0  0  0
   37.9250   25.6710   39.9400 C   0  0  0  0  0  0  0  0  0  0  0  0
   37.0350   25.1710   39.0220 N   0  0  0  0  0  0  0  0  0  0  0  0
   37.0710   23.9030   38.5800 C   0  0  0  0  0  0  0  0  0  0  0  0
   37.9900   23.0960   39.0360 N   0  0  0  0  0  0  0  0  0  0  0  0
   39.6610   22.8120   40.3010 H   0  0  0  0  0  0  0  0  0  0  0  0
   36.3950   23.4650   37.8590 H   0  0  0  0  0  0  0  0  0  0  0  0
   39.8710   25.1990   41.3110 N   0  0  0  0  0  0  0  0  0  0  0  0
   39.7620   24.9310   42.7080 C   0  0  0  0  0  0  0  0  0  0  0  0
   40.9900   25.2500   43.5100 C   0  0  0  0  0  0  0  0  0  0  0  0
   42.2040   24.9320   42.8910 N   0  0  0  0  0  0  0  0  0  0  0  0
   42.3130   25.2300   41.5500 C   0  0  0  0  0  0  0  0  0  0  0  0
   41.0640   25.8750   40.9910 C   0  0  0  0  0  0  0  0  0  0  0  0
   39.4180   23.8880   42.9460 H   0  0  0  0  0  0  0  0  0  0  0  0
   38.9450   25.5900   43.0880 H   0  0  0  0  0  0  0  0  0  0  0  0
   40.9860   26.3340   43.7700 H   0  0  0  0  0  0  0  0  0  0  0  0
   40.9050   24.6930   44.4800 H   0  0  0  0  0  0  0  0  0  0  0  0
   42.7330   24.1090   43.2480 H   0  0  0  0  0  0  0  0  0  0  0  0
   42.5730   24.4060   40.8560 H   0  0  0  0  0  0  0  0  0  0  0  0
   43.1290   25.9940   41.4070 H   0  0  0  0  0  0  0  0  0  0  0  0
   41.1430   25.9100   39.8700 H   0  0  0  0  0  0  0  0  0  0  0  0
   41.0140   26.9370   41.3530 H   0  0  0  0  0  0  0  0  0  0  0  0
   36.7650   27.1920   41.3020 C   0  0  0  0  0  0  0  0  0  0  0  0
   37.6150   27.0090   40.1930 C   0  0  0  0  0  0  0  0  0  0  0  0
   37.8950   28.2060   39.5830 C   0  0  0  0  0  0  0  0  0  0  0  0
   37.4340   29.4270   39.9600 C   0  0  0  0  0  0  0  0  0  0  0  0
   36.5930   29.5110   41.0640 C   0  0  0  0  0  0  0  0  0  0  0  0
   36.2580   28.3850   41.7410 C   0  0  0  0  0  0  0  0  0  0  0  0
   36.3000   30.8650   41.1700 O   0  0  0  0  0  0  0  0  0  0  0  0
   37.0080   31.6040   40.1880 C   0  0  2  0  0  0  0  0  0  0  0  0
   37.6950   30.6580   39.3800 O   0  0  0  0  0  0  0  0  0  0  0  0
   36.3590   26.4400   42.0160 H   0  0  0  0  0  0  0  0  0  0  0  0
   38.5260   28.0910   38.7570 H   0  0  0  0  0  0  0  0  0  0  0  0
   35.6080   28.5730   42.5760 H   0  0  0  0  0  0  0  0  0  0  0  0
   36.2830   32.1840   39.5930 H   0  0  0  0  0  0  0  0  0  0  0  0
   37.9390   32.3890   40.8890 O   0  0  0  0  0  0  0  0  0  0  0  0
   38.8840   33.2180   40.3220 C   0  0  0  0  0  0  0  0  0  0  0  0
   38.7040   34.6030   40.3010 C   0  0  0  0  0  0  0  0  0  0  0  0
   37.9070   35.2530   40.6660 H   0  0  0  0  0  0  0  0  0  0  0  0
   39.7890   35.0930   39.6880 N   0  0  0  0  0  0  0  0  0  0  0  0
   40.1060   36.0730   39.4390 H   0  0  0  0  0  0  0  0  0  0  0  0
   40.6290   34.1050   39.3290 C   0  0  0  0  0  0  0  0  0  0  0  0
   41.5840   34.1020   38.8260 H   0  0  0  0  0  0  0  0  0  0  0  0
   40.0570   32.9320   39.7280 N   0  0  0  0  0  0  0  0  0  0  0  0
  1  7  1  0  0  0  0
  1  2  1  0  0  0  0
  2  9  1  0  0  0  0
  3 25  1  0  0  0  0
  3  2  2  0  0  0  0
  4  3  1  0  0  0  0
  5  4  2  0  0  0  0
  5  6  1  0  0  0  0
  6  1  2  0  0  0  0
  8  5  1  0  0  0  0
  9 10  1  0  0  0  0
 10 15  1  0  0  0  0
 10 16  1  0  0  0  0
 10 11  1  0  0  0  0
 11 17  1  0  0  0  0
 11 18  1  0  0  0  0
 12 19  1  0  0  0  0
 12 11  1  0  0  0  0
 13 12  1  0  0  0  0
 14  9  1  0  0  0  0
 14 23  1  0  0  0  0
 14 13  1  0  0  0  0
 20 13  1  0  0  0  0
 21 13  1  0  0  0  0
 22 14  1  0  0  0  0
 24 29  1  0  0  0  0
 24 33  1  0  0  0  0
 25 24  2  0  0  0  0
 26 27  2  0  0  0  0
 26 25  1  0  0  0  0
 27 28  1  0  0  0  0
 28 30  1  0  0  0  0
 28 29  2  0  0  0  0
 29 35  1  0  0  0  0
 31 36  1  6  0  0  0
 31 37  1  0  0  0  0
 31 30  1  0  0  0  0
 32 27  1  0  0  0  0
 32 31  1  0  0  0  0
 34 26  1  0  0  0  0
 38 37  1  0  0  0  0
 39 38  2  0  0  0  0
 39 40  1  0  0  0  0
 41 39  1  0  0  0  0
 42 41  1  0  0  0  0
 43 41  1  0  0  0  0
 43 45  2  0  0  0  0
 44 43  1  0  0  0  0
 45 38  1  0  0  0  0
M  END
>  <minimizedAffinity>
-5.90887833

$$$$

 OpenBabel03242523133D

 45 49  0  0  1  0  0  0  0  0999 V2000
   35.8660   27.9240   39.1080 C   0  0  0  0  0  0  0  0  0  0  0  0
   36.7730   28.8330   39.6530 C   0  0  0  0  0  0  0  0  0  0  0  0
   37.0460   29.9900   38.9870 C   0  0  0  0  0  0  0  0  0  0  0  0
   36.3980   30.1900   37.7930 N   0  0  0  0  0  0  0  0  0  0  0  0
   35.5270   29.3110   37.2740 C   0  0  0  0  0  0  0  0  0  0  0  0
   35.2720   28.2070   37.9240 N   0  0  0  0  0  0  0  0  0  0  0  0
   35.6360   27.0030   39.6240 H   0  0  0  0  0  0  0  0  0  0  0  0
   34.9940   29.4230   36.3400 H   0  0  0  0  0  0  0  0  0  0  0  0
   37.3840   28.4810   40.8560 N   0  0  0  0  0  0  0  0  0  0  0  0
   38.3640   27.4470   40.9330 C   0  0  0  0  0  0  0  0  0  0  0  0
   39.0440   27.3170   42.2660 C   0  0  0  0  0  0  0  0  0  0  0  0
   39.3400   28.5270   42.9030 N   0  0  0  0  0  0  0  0  0  0  0  0
   38.3710   29.5060   42.8550 C   0  0  0  0  0  0  0  0  0  0  0  0
   37.1300   29.0650   42.1130 C   0  0  0  0  0  0  0  0  0  0  0  0
   39.1390   27.4920   40.1200 H   0  0  0  0  0  0  0  0  0  0  0  0
   37.8210   26.4880   40.7500 H   0  0  0  0  0  0  0  0  0  0  0  0
   38.4100   26.6960   42.9400 H   0  0  0  0  0  0  0  0  0  0  0  0
   39.9890   26.7370   42.0990 H   0  0  0  0  0  0  0  0  0  0  0  0
   40.3350   28.8330   42.9310 H   0  0  0  0  0  0  0  0  0  0  0  0
   38.6510   30.4910   42.4340 H   0  0  0  0  0  0  0  0  0  0  0  0
   38.0230   29.7300   43.9040 H   0  0  0  0  0  0  0  0  0  0  0  0
   36.4710   29.9590   41.9420 H   0  0  0  0  0  0  0  0  0  0  0  0
   36.5560   28.3500   42.7600 H   0  0  0  0  0  0  0  0  0  0  0  0
   37.1730   32.2330   39.6700 C   0  0  0  0  0  0  0  0  0  0  0  0
   37.8720   31.0860   39.2460 C   0  0  0  0  0  0  0  0  0  0  0  0
   39.2170   31.3400   39.1350 C   0  0  0  0  0  0  0  0  0  0  0  0
   39.8330   32.5240   39.3850 C   0  0  0  0  0  0  0  0  0  0  0  0
   39.0600   33.6050   39.7930 C   0  0  0  0  0  0  0  0  0  0  0  0
   37.7200   33.4580   39.9390 C   0  0  0  0  0  0  0  0  0  0  0  0
   39.9730   34.6410   39.9480 O   0  0  0  0  0  0  0  0  0  0  0  0
   41.2930   34.1800   39.7070 C   0  0  2  0  0  0  0  0  0  0  0  0
   41.1830   32.8240   39.2930 O   0  0  0  0  0  0  0  0  0  0  0  0
   36.0850   32.3660   39.8710 H   0  0  0  0  0  0  0  0  0  0  0  0
   39.7540   30.4990   38.8220 H   0  0  0  0  0  0  0  0  0  0  0  0
   37.2290   34.3570   40.2610 H   0  0  0  0  0  0  0  0  0  0  0  0
   41.7450   34.8020   38.9160 H   0  0  0  0  0  0  0  0  0  0  0  0
   41.9590   34.2410   40.9430 O   0  0  0  0  0  0  0  0  0  0  0  0
   43.2960   34.5220   41.1250 C   0  0  0  0  0  0  0  0  0  0  0  0
   44.2170   34.3300   40.0930 C   0  0  0  0  0  0  0  0  0  0  0  0
   44.1170   33.9730   39.0670 H   0  0  0  0  0  0  0  0  0  0  0  0
   45.4010   34.6940   40.6010 N   0  0  0  0  0  0  0  0  0  0  0  0
   46.3850   34.7260   40.2080 H   0  0  0  0  0  0  0  0  0  0  0  0
   45.2760   35.0980   41.8780 C   0  0  0  0  0  0  0  0  0  0  0  0
   45.9870   35.4570   42.6060 H   0  0  0  0  0  0  0  0  0  0  0  0
   43.9540   34.9880   42.2020 N   0  0  0  0  0  0  0  0  0  0  0  0
  1  7  1  0  0  0  0
  1  2  1  0  0  0  0
  2  9  1  0  0  0  0
  3 25  1  0  0  0  0
  3  2  2  0  0  0  0
  4  3  1  0  0  0  0
  5  4  2  0  0  0  0
  5  6  1  0  0  0  0
  6  1  2  0  0  0  0
  8  5  1  0  0  0  0
  9 10  1  0  0  0  0
  9 14  1  0  0  0  0
 10 11  1  0  0  0  0
 11 12  1  0  0  0  0
 11 17  1  0  0  0  0
 12 19  1  0  0  0  0
 13 12  1  0  0  0  0
 13 21  1  0  0  0  0
 14 23  1  0  0  0  0
 14 13  1  0  0  0  0
 15 10  1  0  0  0  0
 16 10  1  0  0  0  0
 18 11  1  0  0  0  0
 20 13  1  0  0  0  0
 22 14  1  0  0  0  0
 24 33  1  0  0  0  0
 24 29  1  0  0  0  0
 25 24  2  0  0  0  0
 26 25  1  0  0  0  0
 26 27  2  0  0  0  0
 27 28  1  0  0  0  0
 28 29  2  0  0  0  0
 28 30  1  0  0  0  0
 29 35  1  0  0  0  0
 31 36  1  6  0  0  0
 31 30  1  0  0  0  0
 31 37  1  0  0  0  0
 32 27  1  0  0  0  0
 32 31  1  0  0  0  0
 34 26  1  0  0  0  0
 37 38  1  0  0  0  0
 38 45  1  0  0  0  0
 39 41  1  0  0  0  0
 39 38  2  0  0  0  0
 40 39  1  0  0  0  0
 41 43  1  0  0  0  0
 42 41  1  0  0  0  0
 43 45  2  0  0  0  0
 43 44  1  0  0  0  0
M  END
>  <minimizedAffinity>
-5.90297985

$$$$

 OpenBabel03242523133D

 45 49  0  0  1  0  0  0  0  0999 V2000
   37.2070   32.1960   39.1630 C   0  0  0  0  0  0  0  0  0  0  0  0
   37.3140   30.9000   39.6700 C   0  0  0  0  0  0  0  0  0  0  0  0
   38.1280   30.6620   40.7360 C   0  0  0  0  0  0  0  0  0  0  0  0
   38.8100   31.7360   41.2530 N   0  0  0  0  0  0  0  0  0  0  0  0
   38.7030   32.9800   40.7600 C   0  0  0  0  0  0  0  0  0  0  0  0
   37.9160   33.1950   39.7400 N   0  0  0  0  0  0  0  0  0  0  0  0
   36.5640   32.4030   38.3200 H   0  0  0  0  0  0  0  0  0  0  0  0
   39.2180   33.8550   41.1310 H   0  0  0  0  0  0  0  0  0  0  0  0
   36.5910   29.9000   39.0210 N   0  0  0  0  0  0  0  0  0  0  0  0
   35.3240   29.4510   39.4970 C   0  0  0  0  0  0  0  0  0  0  0  0
   34.6060   28.4980   38.5850 C   0  0  0  0  0  0  0  0  0  0  0  0
   34.7100   28.7890   37.2200 N   0  0  0  0  0  0  0  0  0  0  0  0
   35.9480   29.1850   36.7630 C   0  0  0  0  0  0  0  0  0  0  0  0
   36.9930   29.2160   37.8560 C   0  0  0  0  0  0  0  0  0  0  0  0
   34.6280   30.2830   39.7930 H   0  0  0  0  0  0  0  0  0  0  0  0
   35.5250   28.9020   40.4480 H   0  0  0  0  0  0  0  0  0  0  0  0
   34.9830   27.4650   38.7670 H   0  0  0  0  0  0  0  0  0  0  0  0
   33.5270   28.4990   38.8900 H   0  0  0  0  0  0  0  0  0  0  0  0
   33.8710   29.1740   36.7380 H   0  0  0  0  0  0  0  0  0  0  0  0
   36.0190   30.1570   36.2380 H   0  0  0  0  0  0  0  0  0  0  0  0
   36.3240   28.4280   36.0170 H   0  0  0  0  0  0  0  0  0  0  0  0
   37.9140   29.7280   37.4650 H   0  0  0  0  0  0  0  0  0  0  0  0
   37.2820   28.1610   38.1100 H   0  0  0  0  0  0  0  0  0  0  0  0
   37.7850   29.4410   42.7120 C   0  0  0  0  0  0  0  0  0  0  0  0
   38.4510   29.5200   41.4730 C   0  0  0  0  0  0  0  0  0  0  0  0
   39.3140   28.4660   41.3070 C   0  0  0  0  0  0  0  0  0  0  0  0
   39.5320   27.4610   42.1940 C   0  0  0  0  0  0  0  0  0  0  0  0
   38.8340   27.4680   43.3970 C   0  0  0  0  0  0  0  0  0  0  0  0
   37.9520   28.4650   43.6560 C   0  0  0  0  0  0  0  0  0  0  0  0
   39.2870   26.3370   44.0650 O   0  0  0  0  0  0  0  0  0  0  0  0
   40.1960   25.6120   43.2520 C   0  0  2  0  0  0  0  0  0  0  0  0
   40.3850   26.3760   42.0680 O   0  0  0  0  0  0  0  0  0  0  0  0
   37.0180   30.1200   43.1490 H   0  0  0  0  0  0  0  0  0  0  0  0
   39.8180   28.5060   40.3920 H   0  0  0  0  0  0  0  0  0  0  0  0
   37.4700   28.3640   44.6110 H   0  0  0  0  0  0  0  0  0  0  0  0
   41.1430   25.4910   43.8030 H   0  0  0  0  0  0  0  0  0  0  0  0
   39.5540   24.4030   42.9330 O   0  0  0  0  0  0  0  0  0  0  0  0
   38.5360   24.2470   42.0170 C   0  0  0  0  0  0  0  0  0  0  0  0
   38.7920   23.7540   40.7350 C   0  0  0  0  0  0  0  0  0  0  0  0
   39.7060   23.4270   40.2360 H   0  0  0  0  0  0  0  0  0  0  0  0
   37.6040   23.7320   40.1180 N   0  0  0  0  0  0  0  0  0  0  0  0
   37.2920   23.4410   39.1480 H   0  0  0  0  0  0  0  0  0  0  0  0
   36.6290   24.1790   40.9310 C   0  0  0  0  0  0  0  0  0  0  0  0
   35.5660   24.3070   40.7980 H   0  0  0  0  0  0  0  0  0  0  0  0
   37.2180   24.5010   42.1190 N   0  0  0  0  0  0  0  0  0  0  0  0
  1  2  2  0  0  0  0
  1  6  1  0  0  0  0
  2  3  1  0  0  0  0
  3  4  2  0  0  0  0
  3 25  1  0  0  0  0
  5  8  1  0  0  0  0
  5  4  1  0  0  0  0
  6  5  2  0  0  0  0
  7  1  1  0  0  0  0
  9 10  1  0  0  0  0
  9  2  1  0  0  0  0
 10 15  1  0  0  0  0
 10 16  1  0  0  0  0
 11 17  1  0  0  0  0
 11 18  1  0  0  0  0
 11 10  1  0  0  0  0
 12 11  1  0  0  0  0
 13 12  1  0  0  0  0
 13 14  1  0  0  0  0
 14 23  1  0  0  0  0
 14  9  1  0  0  0  0
 19 12  1  0  0  0  0
 20 13  1  0  0  0  0
 21 13  1  0  0  0  0
 22 14  1  0  0  0  0
 24 33  1  0  0  0  0
 24 29  1  0  0  0  0
 25 24  2  0  0  0  0
 26 25  1  0  0  0  0
 26 27  2  0  0  0  0
 27 28  1  0  0  0  0
 28 29  2  0  0  0  0
 28 30  1  0  0  0  0
 29 35  1  0  0  0  0
 31 36  1  1  0  0  0
 31 30  1  0  0  0  0
 32 27  1  0  0  0  0
 32 31  1  0  0  0  0
 34 26  1  0  0  0  0
 37 31  1  0  0  0  0
 38 45  1  0  0  0  0
 38 37  1  0  0  0  0
 39 38  2  0  0  0  0
 40 39  1  0  0  0  0
 41 39  1  0  0  0  0
 41 43  1  0  0  0  0
 42 41  1  0  0  0  0
 43 45  2  0  0  0  0
 44 43  1  0  0  0  0
M  END
>  <minimizedAffinity>
-5.8846035

$$$$

 OpenBabel03242523133D

 45 49  0  0  1  0  0  0  0  0999 V2000
   41.6120   24.9880   42.9150 C   0  0  0  0  0  0  0  0  0  0  0  0
   40.5350   25.6170   42.2890 C   0  0  0  0  0  0  0  0  0  0  0  0
   40.3170   26.9440   42.5030 C   0  0  0  0  0  0  0  0  0  0  0  0
   41.1890   27.5930   43.3410 N   0  0  0  0  0  0  0  0  0  0  0  0
   42.2230   26.9820   43.9410 C   0  0  0  0  0  0  0  0  0  0  0  0
   42.4220   25.7100   43.7250 N   0  0  0  0  0  0  0  0  0  0  0  0
   41.8010   23.9360   42.7560 H   0  0  0  0  0  0  0  0  0  0  0  0
   42.9340   27.4490   44.6080 H   0  0  0  0  0  0  0  0  0  0  0  0
   39.7090   24.8240   41.4920 N   0  0  0  0  0  0  0  0  0  0  0  0
   38.5430   24.1860   42.0110 C   0  0  0  0  0  0  0  0  0  0  0  0
   37.6770   23.5180   40.9820 C   0  0  0  0  0  0  0  0  0  0  0  0
   37.5430   24.2140   39.7750 N   0  0  0  0  0  0  0  0  0  0  0  0
   38.6830   24.7950   39.2640 C   0  0  0  0  0  0  0  0  0  0  0  0
   39.9020   24.5480   40.1240 C   0  0  0  0  0  0  0  0  0  0  0  0
   37.9100   24.8510   42.6590 H   0  0  0  0  0  0  0  0  0  0  0  0
   38.9060   23.3860   42.7000 H   0  0  0  0  0  0  0  0  0  0  0  0
   38.0790   22.5000   40.7710 H   0  0  0  0  0  0  0  0  0  0  0  0
   36.6670   23.3690   41.4460 H   0  0  0  0  0  0  0  0  0  0  0  0
   36.6330   24.6820   39.5810 H   0  0  0  0  0  0  0  0  0  0  0  0
   38.6630   25.8830   39.0590 H   0  0  0  0  0  0  0  0  0  0  0  0
   38.9230   24.3200   38.2700 H   0  0  0  0  0  0  0  0  0  0  0  0
   40.7410   25.2020   39.7630 H   0  0  0  0  0  0  0  0  0  0  0  0
   40.2290   23.4830   39.9900 H   0  0  0  0  0  0  0  0  0  0  0  0
   38.7600   28.6090   43.0690 C   0  0  0  0  0  0  0  0  0  0  0  0
   39.3650   27.8570   42.0420 C   0  0  0  0  0  0  0  0  0  0  0  0
   38.8250   28.1670   40.8190 C   0  0  0  0  0  0  0  0  0  0  0  0
   37.8360   29.0680   40.5830 C   0  0  0  0  0  0  0  0  0  0  0  0
   37.2930   29.7600   41.6600 C   0  0  0  0  0  0  0  0  0  0  0  0
   37.7610   29.5300   42.9120 C   0  0  0  0  0  0  0  0  0  0  0  0
   36.3210   30.5730   41.0910 O   0  0  0  0  0  0  0  0  0  0  0  0
   36.3190   30.4310   39.6790 C   0  0  2  0  0  0  0  0  0  0  0  0
   37.2670   29.4180   39.3690 O   0  0  0  0  0  0  0  0  0  0  0  0
   38.9690   28.6110   44.1620 H   0  0  0  0  0  0  0  0  0  0  0  0
   39.2620   27.6190   40.0420 H   0  0  0  0  0  0  0  0  0  0  0  0
   37.2690   30.1230   43.6610 H   0  0  0  0  0  0  0  0  0  0  0  0
   35.3060   30.1420   39.3550 H   0  0  0  0  0  0  0  0  0  0  0  0
   36.7620   31.6620   39.1640 O   0  0  0  0  0  0  0  0  0  0  0  0
   37.9410   31.8740   38.4840 C   0  0  0  0  0  0  0  0  0  0  0  0
   37.9710   31.8900   37.0870 C   0  0  0  0  0  0  0  0  0  0  0  0
   37.1990   31.7600   36.3270 H   0  0  0  0  0  0  0  0  0  0  0  0
   39.2500   32.1160   36.7620 N   0  0  0  0  0  0  0  0  0  0  0  0
   39.7620   32.2130   35.8390 H   0  0  0  0  0  0  0  0  0  0  0  0
   40.0150   32.2420   37.8620 C   0  0  0  0  0  0  0  0  0  0  0  0
   41.0680   32.4260   38.0060 H   0  0  0  0  0  0  0  0  0  0  0  0
   39.1890   32.0890   38.9390 N   0  0  0  0  0  0  0  0  0  0  0  0
  1  6  1  0  0  0  0
  2  3  1  0  0  0  0
  2  1  2  0  0  0  0
  3  4  2  0  0  0  0
  4  5  1  0  0  0  0
  5  8  1  0  0  0  0
  6  5  2  0  0  0  0
  7  1  1  0  0  0  0
  9 10  1  0  0  0  0
  9  2  1  0  0  0  0
 10 15  1  0  0  0  0
 10 16  1  0  0  0  0
 11 18  1  0  0  0  0
 11 10  1  0  0  0  0
 12 11  1  0  0  0  0
 13 12  1  0  0  0  0
 13 14  1  0  0  0  0
 14  9  1  0  0  0  0
 17 11  1  0  0  0  0
 19 12  1  0  0  0  0
 20 13  1  0  0  0  0
 21 13  1  0  0  0  0
 22 14  1  0  0  0  0
 23 14  1  0  0  0  0
 24 33  1  0  0  0  0
 25  3  1  0  0  0  0
 25 24  2  0  0  0  0
 26 25  1  0  0  0  0
 27 26  2  0  0  0  0
 27 28  1  0  0  0  0
 28 29  2  0  0  0  0
 29 24  1  0  0  0  0
 29 35  1  0  0  0  0
 30 28  1  0  0  0  0
 31 36  1  6  0  0  0
 31 30  1  0  0  0  0
 32 31  1  0  0  0  0
 32 27  1  0  0  0  0
 34 26  1  0  0  0  0
 37 31  1  0  0  0  0
 38 45  1  0  0  0  0
 38 37  1  0  0  0  0
 39 38  2  0  0  0  0
 40 39  1  0  0  0  0
 41 39  1  0  0  0  0
 41 43  1  0  0  0  0
 42 41  1  0  0  0  0
 43 44  1  0  0  0  0
 43 45  2  0  0  0  0
M  END
>  <minimizedAffinity>
-5.8458333

$$$$

 OpenBabel03242523133D

 45 49  0  0  1  0  0  0  0  0999 V2000
   41.7870   33.3160   37.7700 C   0  0  0  0  0  0  0  0  0  0  0  0
   41.3250   32.6220   38.8880 C   0  0  0  0  0  0  0  0  0  0  0  0
   41.9600   31.4820   39.2800 C   0  0  0  0  0  0  0  0  0  0  0  0
   43.0370   31.0790   38.5300 N   0  0  0  0  0  0  0  0  0  0  0  0
   43.4760   31.7510   37.4540 C   0  0  0  0  0  0  0  0  0  0  0  0
   42.8590   32.8440   37.0910 N   0  0  0  0  0  0  0  0  0  0  0  0
   41.2960   34.2230   37.4460 H   0  0  0  0  0  0  0  0  0  0  0  0
   44.3160   31.4740   36.8330 H   0  0  0  0  0  0  0  0  0  0  0  0
   40.1960   33.1290   39.5320 N   0  0  0  0  0  0  0  0  0  0  0  0
   40.1250   34.4820   39.9800 C   0  0  0  0  0  0  0  0  0  0  0  0
   38.7790   34.9080   40.4920 C   0  0  0  0  0  0  0  0  0  0  0  0
   37.6850   34.4130   39.7740 N   0  0  0  0  0  0  0  0  0  0  0  0
   37.7480   33.0940   39.3790 C   0  0  0  0  0  0  0  0  0  0  0  0
   39.0200   32.4100   39.8250 C   0  0  0  0  0  0  0  0  0  0  0  0
   40.4940   35.2310   39.2280 H   0  0  0  0  0  0  0  0  0  0  0  0
   40.8390   34.5660   40.8340 H   0  0  0  0  0  0  0  0  0  0  0  0
   38.6810   34.6030   41.5600 H   0  0  0  0  0  0  0  0  0  0  0  0
   38.7620   36.0290   40.4820 H   0  0  0  0  0  0  0  0  0  0  0  0
   37.1620   35.0760   39.1650 H   0  0  0  0  0  0  0  0  0  0  0  0
   37.6370   32.8720   38.2990 H   0  0  0  0  0  0  0  0  0  0  0  0
   36.9150   32.5220   39.8770 H   0  0  0  0  0  0  0  0  0  0  0  0
   39.0980   31.4140   39.3100 H   0  0  0  0  0  0  0  0  0  0  0  0
   38.9560   32.2100   40.9270 H   0  0  0  0  0  0  0  0  0  0  0  0
   42.3610   30.9800   41.5380 C   0  0  0  0  0  0  0  0  0  0  0  0
   41.7680   30.5760   40.3260 C   0  0  0  0  0  0  0  0  0  0  0  0
   41.1800   29.3430   40.4490 C   0  0  0  0  0  0  0  0  0  0  0  0
   41.1530   28.5750   41.5700 C   0  0  0  0  0  0  0  0  0  0  0  0
   41.7710   29.0520   42.7210 C   0  0  0  0  0  0  0  0  0  0  0  0
   42.3780   30.2650   42.7050 C   0  0  0  0  0  0  0  0  0  0  0  0
   41.5770   28.0450   43.6580 O   0  0  0  0  0  0  0  0  0  0  0  0
   40.7900   27.0010   43.1080 C   0  0  2  0  0  0  0  0  0  0  0  0
   40.5670   27.3310   41.7430 O   0  0  0  0  0  0  0  0  0  0  0  0
   42.9030   31.9210   41.7830 H   0  0  0  0  0  0  0  0  0  0  0  0
   40.7330   29.0260   39.5590 H   0  0  0  0  0  0  0  0  0  0  0  0
   42.8170   30.5290   43.6490 H   0  0  0  0  0  0  0  0  0  0  0  0
   41.3460   26.0530   43.2020 H   0  0  0  0  0  0  0  0  0  0  0  0
   39.5690   27.0260   43.8030 O   0  0  0  0  0  0  0  0  0  0  0  0
   38.3850   27.5530   43.3340 C   0  0  0  0  0  0  0  0  0  0  0  0
   38.0680   28.8990   43.5370 C   0  0  0  0  0  0  0  0  0  0  0  0
   38.5940   29.7180   44.0300 H   0  0  0  0  0  0  0  0  0  0  0  0
   36.8700   29.0720   42.9640 N   0  0  0  0  0  0  0  0  0  0  0  0
   36.2270   29.9080   42.8590 H   0  0  0  0  0  0  0  0  0  0  0  0
   36.4230   27.9250   42.4220 C   0  0  0  0  0  0  0  0  0  0  0  0
   35.5210   27.6700   41.8870 H   0  0  0  0  0  0  0  0  0  0  0  0
   37.3760   26.9760   42.6570 N   0  0  0  0  0  0  0  0  0  0  0  0
  1  2  1  0  0  0  0
  2  3  2  0  0  0  0
  2  9  1  0  0  0  0
  3 25  1  0  0  0  0
  4  3  1  0  0  0  0
  5  4  2  0  0  0  0
  6  5  1  0  0  0  0
  6  1  2  0  0  0  0
  7  1  1  0  0  0  0
  8  5  1  0  0  0  0
  9 14  1  0  0  0  0
  9 10  1  0  0  0  0
 10 11  1  0  0  0  0
 10 16  1  0  0  0  0
 11 17  1  0  0  0  0
 12 11  1  0  0  0  0
 13 12  1  0  0  0  0
 13 14  1  0  0  0  0
 13 21  1  0  0  0  0
 14 23  1  0  0  0  0
 15 10  1  0  0  0  0
 18 11  1  0  0  0  0
 19 12  1  0  0  0  0
 20 13  1  0  0  0  0
 22 14  1  0  0  0  0
 24 33  1  0  0  0  0
 24 29  1  0  0  0  0
 25 26  1  0  0  0  0
 25 24  2  0  0  0  0
 26 27  2  0  0  0  0
 27 32  1  0  0  0  0
 27 28  1  0  0  0  0
 28 30  1  0  0  0  0
 29 28  2  0  0  0  0
 29 35  1  0  0  0  0
 31 36  1  1  0  0  0
 31 30  1  0  0  0  0
 31 37  1  0  0  0  0
 32 31  1  0  0  0  0
 34 26  1  0  0  0  0
 38 39  2  0  0  0  0
 38 37  1  0  0  0  0
 39 40  1  0  0  0  0
 41 39  1  0  0  0  0
 42 41  1  0  0  0  0
 43 45  2  0  0  0  0
 43 41  1  0  0  0  0
 44 43  1  0  0  0  0
 45 38  1  0  0  0  0
M  END
>  <minimizedAffinity>
-5.75345707

$$$$
