
 OpenBabel03252506123D

 35 37  0  0  0  0  0  0  0  0999 V2000
   45.1070   33.5530   41.1510 F   0  0  0  0  0  0  0  0  0  0  0  0
   46.3090   34.1260   41.0490 C   0  0  0  0  0  0  0  0  0  0  0  0
   46.8200   34.8190   42.1260 C   0  0  0  0  0  0  0  0  0  0  0  0
   48.0700   35.4460   42.1050 C   0  0  0  0  0  0  0  0  0  0  0  0
   48.8420   35.3730   40.9450 C   0  0  0  0  0  0  0  0  0  0  0  0
   48.2930   34.6690   39.8880 C   0  0  0  0  0  0  0  0  0  0  0  0
   47.0810   34.0560   39.8950 C   0  0  0  0  0  0  0  0  0  0  0  0
   48.4020   35.9700   42.9890 H   0  0  0  0  0  0  0  0  0  0  0  0
   49.7930   35.8700   40.9750 H   0  0  0  0  0  0  0  0  0  0  0  0
   48.9970   34.6860   39.0610 H   0  0  0  0  0  0  0  0  0  0  0  0
   45.4550   34.0110   45.4340 C   0  0  0  0  0  0  0  0  0  0  0  0
   44.6040   35.1180   45.6750 C   0  0  0  0  0  0  0  0  0  0  0  0
   44.5080   36.1350   44.6950 C   0  0  0  0  0  0  0  0  0  0  0  0
   45.2570   35.9740   43.5630 N   0  0  0  0  0  0  0  0  0  0  0  0
   46.0470   34.9180   43.3680 C   0  0  0  0  0  0  0  0  0  0  0  0
   46.1430   33.9500   44.2960 N   0  0  0  0  0  0  0  0  0  0  0  0
   44.0320   35.2100   46.5730 H   0  0  0  0  0  0  0  0  0  0  0  0
   43.8670   36.9930   44.8480 H   0  0  0  0  0  0  0  0  0  0  0  0
   45.5410   33.0030   46.4240 N   0  0  0  0  0  0  0  0  0  0  0  0
   45.5040   31.9510   46.2720 H   0  0  0  0  0  0  0  0  0  0  0  0
   45.6560   33.2970   47.4400 H   0  0  0  0  0  0  0  0  0  0  0  0
   46.6350   33.3860   38.7910 O   0  0  0  0  0  0  0  0  0  0  0  0
   48.1560   34.6150   37.0040 O   0  0  0  0  0  0  0  0  0  0  0  0
   47.3660   33.3610   37.2780 P   0  0  2  0  0  0  0  0  0  0  0  0
   46.1270   33.1760   36.1030 O   0  0  0  0  0  0  0  0  0  0  0  0
   45.8960   32.2040   36.0210 H   0  0  0  0  0  0  0  0  0  0  0  0
   48.3730   32.0270   37.0360 O   0  0  0  0  0  0  0  0  0  0  0  0
   49.5100   31.7520   37.7860 C   0  0  0  0  0  0  0  0  0  0  0  0
   49.3770   31.2020   39.0450 C   0  0  0  0  0  0  0  0  0  0  0  0
   48.5340   30.9000   39.6610 H   0  0  0  0  0  0  0  0  0  0  0  0
   50.6320   31.0420   39.5430 N   0  0  0  0  0  0  0  0  0  0  0  0
   51.0210   30.6640   40.4560 H   0  0  0  0  0  0  0  0  0  0  0  0
   51.5270   31.4710   38.6400 C   0  0  0  0  0  0  0  0  0  0  0  0
   52.5960   31.5680   38.5220 H   0  0  0  0  0  0  0  0  0  0  0  0
   50.8450   31.9140   37.5460 N   0  0  0  0  0  0  0  0  0  0  0  0
  2  1  1  0  0  0  0
  2  3  1  0  0  0  0
  3 15  1  0  0  0  0
  4  3  2  0  0  0  0
  4  8  1  0  0  0  0
  5  9  1  0  0  0  0
  5  4  1  0  0  0  0
  6  7  1  0  0  0  0
  6  5  2  0  0  0  0
  7  2  2  0  0  0  0
 10  6  1  0  0  0  0
 11 12  1  0  0  0  0
 11 19  1  0  0  0  0
 12 17  1  0  0  0  0
 13 18  1  0  0  0  0
 13 12  2  0  0  0  0
 14 13  1  0  0  0  0
 15 14  2  0  0  0  0
 15 16  1  0  0  0  0
 16 11  2  0  0  0  0
 19 21  1  0  0  0  0
 20 19  1  0  0  0  0
 22  7  1  0  0  0  0
 24 23  2  6  0  0  0
 24 22  1  0  0  0  0
 25 24  1  0  0  0  0
 26 25  1  0  0  0  0
 27 24  1  0  0  0  0
 27 28  1  0  0  0  0
 28 29  2  0  0  0  0
 29 31  1  0  0  0  0
 29 30  1  0  0  0  0
 31 32  1  0  0  0  0
 33 31  1  0  0  0  0
 34 33  1  0  0  0  0
 35 28  1  0  0  0  0
 35 33  2  0  0  0  0
M  END
>  <minimizedAffinity>
-6.14225292

>  <minimizedRMSD>
0.630870998

$$$$
