
 OpenBabel03252506123D

 35 37  0  0  0  0  0  0  0  0999 V2000
   45.2690   33.5370   41.1260 F   0  0  0  0  0  0  0  0  0  0  0  0
   46.4460   34.1640   41.0500 C   0  0  0  0  0  0  0  0  0  0  0  0
   46.9070   34.8710   42.1400 C   0  0  0  0  0  0  0  0  0  0  0  0
   48.1280   35.5530   42.1450 C   0  0  0  0  0  0  0  0  0  0  0  0
   48.9230   35.5230   41.0000 C   0  0  0  0  0  0  0  0  0  0  0  0
   48.4240   34.8030   39.9280 C   0  0  0  0  0  0  0  0  0  0  0  0
   47.2410   34.1370   39.9090 C   0  0  0  0  0  0  0  0  0  0  0  0
   48.4200   36.0850   43.0390 H   0  0  0  0  0  0  0  0  0  0  0  0
   49.8500   36.0620   41.0500 H   0  0  0  0  0  0  0  0  0  0  0  0
   49.1410   34.8570   39.1140 H   0  0  0  0  0  0  0  0  0  0  0  0
   45.5030   33.9660   45.4070 C   0  0  0  0  0  0  0  0  0  0  0  0
   44.6180   35.0450   45.6510 C   0  0  0  0  0  0  0  0  0  0  0  0
   44.5130   36.0770   44.6880 C   0  0  0  0  0  0  0  0  0  0  0  0
   45.2870   35.9580   43.5680 N   0  0  0  0  0  0  0  0  0  0  0  0
   46.1090   34.9260   43.3690 C   0  0  0  0  0  0  0  0  0  0  0  0
   46.2130   33.9440   44.2810 N   0  0  0  0  0  0  0  0  0  0  0  0
   44.0270   35.1060   46.5400 H   0  0  0  0  0  0  0  0  0  0  0  0
   43.8470   36.9150   44.8440 H   0  0  0  0  0  0  0  0  0  0  0  0
   45.5970   32.9420   46.3790 N   0  0  0  0  0  0  0  0  0  0  0  0
   45.5910   31.8920   46.2080 H   0  0  0  0  0  0  0  0  0  0  0  0
   45.6850   33.2200   47.4020 H   0  0  0  0  0  0  0  0  0  0  0  0
   46.8450   33.4560   38.7930 O   0  0  0  0  0  0  0  0  0  0  0  0
   48.4340   34.6040   37.0120 O   0  0  0  0  0  0  0  0  0  0  0  0
   47.6900   33.3360   37.3460 P   0  0  2  0  0  0  0  0  0  0  0  0
   46.5580   32.9730   36.1080 O   0  0  0  0  0  0  0  0  0  0  0  0
   46.3840   31.9860   36.1020 H   0  0  0  0  0  0  0  0  0  0  0  0
   48.7810   32.0470   37.3050 O   0  0  0  0  0  0  0  0  0  0  0  0
   49.8410   31.8840   38.1880 C   0  0  0  0  0  0  0  0  0  0  0  0
   51.1370   32.0290   37.7280 C   0  0  0  0  0  0  0  0  0  0  0  0
   51.5830   32.2600   36.7660 H   0  0  0  0  0  0  0  0  0  0  0  0
   51.9600   31.8170   38.7890 N   0  0  0  0  0  0  0  0  0  0  0  0
   53.0140   31.8230   38.9180 H   0  0  0  0  0  0  0  0  0  0  0  0
   51.2220   31.5490   39.8780 C   0  0  0  0  0  0  0  0  0  0  0  0
   51.3520   31.3180   40.9250 H   0  0  0  0  0  0  0  0  0  0  0  0
   49.9080   31.5870   39.5180 N   0  0  0  0  0  0  0  0  0  0  0  0
  2  1  1  0  0  0  0
  2  3  1  0  0  0  0
  3  4  2  0  0  0  0
  3 15  1  0  0  0  0
  4  8  1  0  0  0  0
  5  9  1  0  0  0  0
  5  4  1  0  0  0  0
  6  5  2  0  0  0  0
  7  6  1  0  0  0  0
  7  2  2  0  0  0  0
 10  6  1  0  0  0  0
 11 12  1  0  0  0  0
 11 19  1  0  0  0  0
 12 17  1  0  0  0  0
 13 18  1  0  0  0  0
 13 12  2  0  0  0  0
 14 13  1  0  0  0  0
 15 14  2  0  0  0  0
 15 16  1  0  0  0  0
 16 11  2  0  0  0  0
 19 21  1  0  0  0  0
 20 19  1  0  0  0  0
 22  7  1  0  0  0  0
 24 23  2  6  0  0  0
 24 22  1  0  0  0  0
 25 24  1  0  0  0  0
 26 25  1  0  0  0  0
 27 24  1  0  0  0  0
 27 28  1  0  0  0  0
 28 35  1  0  0  0  0
 29 28  2  0  0  0  0
 29 31  1  0  0  0  0
 30 29  1  0  0  0  0
 31 32  1  0  0  0  0
 31 33  1  0  0  0  0
 33 34  1  0  0  0  0
 35 33  2  0  0  0  0
M  END
>  <minimizedAffinity>
-6.29971981

>  <minimizedRMSD>
0.935526311

$$$$
