
 OpenBabel03252506463D

 41 44  0  0  1  0  0  0  0  0999 V2000
   49.8570   33.5260   41.4780 N   0  0  1  0  0  0  0  0  0  0  0  0
   50.7410   32.8410   42.3840 C   0  0  0  0  0  0  0  0  0  0  0  0
   51.2380   31.5320   41.8360 C   0  0  0  0  0  0  0  0  0  0  0  0
   50.0680   30.5710   41.7750 C   0  0  0  0  0  0  0  0  0  0  0  0
   48.8150   31.2890   41.3500 C   0  0  0  0  0  0  0  0  0  0  0  0
   49.1930   32.5730   40.6570 C   0  0  2  0  0  0  0  0  0  0  0  0
   51.5840   33.4950   42.6520 H   0  0  0  0  0  0  0  0  0  0  0  0
   50.1970   32.6130   43.3440 H   0  0  0  0  0  0  0  0  0  0  0  0
   51.7930   31.6200   40.9060 H   0  0  0  0  0  0  0  0  0  0  0  0
   51.9280   31.1220   42.5990 H   0  0  0  0  0  0  0  0  0  0  0  0
   50.3530   29.7650   41.0640 H   0  0  0  0  0  0  0  0  0  0  0  0
   49.9290   30.1110   42.7760 H   0  0  0  0  0  0  0  0  0  0  0  0
   48.1960   30.7150   40.6560 H   0  0  0  0  0  0  0  0  0  0  0  0
   48.2690   31.5780   42.2790 H   0  0  0  0  0  0  0  0  0  0  0  0
   48.2250   33.0520   40.3420 H   0  0  0  0  0  0  0  0  0  0  0  0
   47.5610   34.6250   41.9070 C   0  0  1  0  0  0  0  0  0  0  0  0
   48.6030   35.6590   41.6800 C   0  0  0  0  0  0  0  0  0  0  0  0
   48.9760   34.3390   42.2520 C   0  0  2  0  0  0  0  0  0  0  0  0
   47.1210   34.1960   40.9690 H   0  0  0  0  0  0  0  0  0  0  0  0
   48.9180   35.8810   40.6250 H   0  0  0  0  0  0  0  0  0  0  0  0
   48.5940   36.5700   42.3100 H   0  0  0  0  0  0  0  0  0  0  0  0
   49.1950   34.3310   43.3500 H   0  0  0  0  0  0  0  0  0  0  0  0
   45.6560   35.8920   42.9490 C   0  0  0  0  0  0  0  0  0  0  0  0
   46.5710   34.8340   42.9690 C   0  0  0  0  0  0  0  0  0  0  0  0
   46.4950   33.9480   44.0590 C   0  0  0  0  0  0  0  0  0  0  0  0
   45.5590   34.1520   45.0230 N   0  0  0  0  0  0  0  0  0  0  0  0
   44.6930   35.1970   44.9570 C   0  0  0  0  0  0  0  0  0  0  0  0
   44.7330   36.0720   43.9210 N   0  0  0  0  0  0  0  0  0  0  0  0
   45.7410   36.5610   42.0900 H   0  0  0  0  0  0  0  0  0  0  0  0
   47.1850   33.1130   44.1240 H   0  0  0  0  0  0  0  0  0  0  0  0
   43.9730   35.3110   45.7540 H   0  0  0  0  0  0  0  0  0  0  0  0
   49.8740   32.2630   39.4120 N   0  0  0  0  0  0  0  0  0  0  0  0
   50.8390   31.9280   39.0940 H   0  0  0  0  0  0  0  0  0  0  0  0
   48.9330   32.4840   38.3360 C   0  0  0  0  0  0  0  0  0  0  0  0
   48.3610   31.8540   37.2520 C   0  0  0  0  0  0  0  0  0  0  0  0
   48.6970   30.8570   37.1050 H   0  0  0  0  0  0  0  0  0  0  0  0
   47.5080   32.7000   36.6550 N   0  0  0  0  0  0  0  0  0  0  0  0
   46.9760   32.3930   35.8060 H   0  0  0  0  0  0  0  0  0  0  0  0
   47.5030   33.8700   37.3180 C   0  0  0  0  0  0  0  0  0  0  0  0
   46.8740   34.6820   36.9880 H   0  0  0  0  0  0  0  0  0  0  0  0
   48.3820   33.7340   38.3530 N   0  0  0  0  0  0  0  0  0  0  0  0
  1 18  1  0  0  0  0
  1  2  1  1  0  0  0
  2  7  1  0  0  0  0
  2  8  1  0  0  0  0
  3  2  1  0  0  0  0
  3 10  1  0  0  0  0
  4  3  1  0  0  0  0
  4 12  1  0  0  0  0
  5  4  1  0  0  0  0
  5 14  1  0  0  0  0
  6 15  1  6  0  0  0
  6  5  1  0  0  0  0
  6  1  1  0  0  0  0
  9  3  1  0  0  0  0
 11  4  1  0  0  0  0
 13  5  1  0  0  0  0
 16 19  1  6  0  0  0
 16 18  1  0  0  0  0
 16 24  1  0  0  0  0
 17 16  1  0  0  0  0
 17 18  1  0  0  0  0
 17 21  1  0  0  0  0
 18 22  1  1  0  0  0
 20 17  1  0  0  0  0
 23 24  2  0  0  0  0
 23 28  1  0  0  0  0
 24 25  1  0  0  0  0
 25 30  1  0  0  0  0
 25 26  2  0  0  0  0
 27 26  1  0  0  0  0
 27 31  1  0  0  0  0
 28 27  2  0  0  0  0
 29 23  1  0  0  0  0
 32  6  1  0  0  0  0
 33 32  1  0  0  0  0
 34 41  1  0  0  0  0
 34 32  1  0  0  0  0
 35 34  2  0  0  0  0
 36 35  1  0  0  0  0
 37 35  1  0  0  0  0
 37 39  1  0  0  0  0
 38 37  1  0  0  0  0
 39 41  2  0  0  0  0
 40 39  1  0  0  0  0
M  END
>  <minimizedAffinity>
-5.13559389

>  <minimizedRMSD>
2.53853583

$$$$
