
 OpenBabel03242517103D

 46 49  0  0  1  0  0  0  0  0999 V2000
   45.9380   33.7420   43.3360 C   0  0  2  0  0  0  0  0  0  0  0  0
   45.0250   34.7930   42.8050 C   0  0  2  0  0  0  0  0  0  0  0  0
   44.9350   35.9830   43.6880 C   0  0  0  0  0  0  0  0  0  0  0  0
   44.6190   35.6710   45.1260 C   0  0  0  0  0  0  0  0  0  0  0  0
   45.2240   34.3910   45.6210 C   0  0  0  0  0  0  0  0  0  0  0  0
   46.3870   33.9450   44.7540 C   0  0  0  0  0  0  0  0  0  0  0  0
   45.3920   32.7510   43.2920 H   0  0  0  0  0  0  0  0  0  0  0  0
   45.4190   35.1410   41.8240 H   0  0  0  0  0  0  0  0  0  0  0  0
   45.8620   36.5870   43.6190 H   0  0  0  0  0  0  0  0  0  0  0  0
   44.0970   36.6210   43.3140 H   0  0  0  0  0  0  0  0  0  0  0  0
   45.0400   36.4950   45.7410 H   0  0  0  0  0  0  0  0  0  0  0  0
   43.5120   35.6770   45.3060 H   0  0  0  0  0  0  0  0  0  0  0  0
   45.5390   34.4230   46.6680 H   0  0  0  0  0  0  0  0  0  0  0  0
   44.4510   33.5950   45.5260 H   0  0  0  0  0  0  0  0  0  0  0  0
   46.6610   32.9150   45.1340 H   0  0  0  0  0  0  0  0  0  0  0  0
   47.2600   34.5620   44.9130 H   0  0  0  0  0  0  0  0  0  0  0  0
   42.7380   35.0930   41.7760 C   0  0  1  0  0  0  0  0  0  0  0  0
   43.6560   34.2090   42.5370 C   0  0  1  0  0  0  0  0  0  0  0  0
   43.8260   33.0270   41.8270 O   0  0  0  0  0  0  0  0  0  0  0  0
   43.4560   33.2500   40.5160 C   0  0  0  0  0  0  0  0  0  0  0  0
   42.2290   34.1290   40.6990 C   0  0  2  0  0  0  0  0  0  0  0  0
   43.2620   35.9200   41.2140 H   0  0  0  0  0  0  0  0  0  0  0  0
   43.1640   33.9550   43.5000 H   0  0  0  0  0  0  0  0  0  0  0  0
   43.1430   32.2640   40.0950 H   0  0  0  0  0  0  0  0  0  0  0  0
   44.2220   33.7500   39.9020 H   0  0  0  0  0  0  0  0  0  0  0  0
   41.4070   33.5220   41.0950 H   0  0  0  0  0  0  0  0  0  0  0  0
   41.6570   35.5430   42.5030 O   0  0  0  0  0  0  0  0  0  0  0  0
   40.8080   35.0970   42.2650 H   0  0  0  0  0  0  0  0  0  0  0  0
   41.9120   34.8290   39.5460 O   0  0  0  0  0  0  0  0  0  0  0  0
   40.7060   34.5670   38.9100 C   0  0  0  0  0  0  0  0  0  0  0  0
   40.2540   34.9210   37.6560 C   0  0  0  0  0  0  0  0  0  0  0  0
   40.8100   35.4880   36.9440 H   0  0  0  0  0  0  0  0  0  0  0  0
   39.0090   34.4530   37.4490 N   0  0  0  0  0  0  0  0  0  0  0  0
   38.4510   34.5940   36.5670 H   0  0  0  0  0  0  0  0  0  0  0  0
   38.6490   33.7950   38.5640 C   0  0  0  0  0  0  0  0  0  0  0  0
   37.6840   33.3150   38.6690 H   0  0  0  0  0  0  0  0  0  0  0  0
   39.6800   33.8670   39.4470 N   0  0  0  0  0  0  0  0  0  0  0  0
   47.1320   33.5510   42.4880 C   0  0  0  0  0  0  0  0  0  0  0  0
   48.2600   34.2630   42.8950 C   0  0  0  0  0  0  0  0  0  0  0  0
   49.4600   34.1620   42.1750 C   0  0  0  0  0  0  0  0  0  0  0  0
   49.4230   33.3250   41.0660 N   0  0  0  0  0  0  0  0  0  0  0  0
   48.3050   32.6530   40.7040 C   0  0  0  0  0  0  0  0  0  0  0  0
   47.1530   32.7600   41.4110 N   0  0  0  0  0  0  0  0  0  0  0  0
   48.4400   34.9460   43.7100 H   0  0  0  0  0  0  0  0  0  0  0  0
   50.3870   34.6380   42.3660 H   0  0  0  0  0  0  0  0  0  0  0  0
   48.3840   32.0290   39.8270 H   0  0  0  0  0  0  0  0  0  0  0  0
  1  7  1  6  0  0  0
  1  6  1  0  0  0  0
  2  8  1  6  0  0  0
  2  1  1  0  0  0  0
  2  3  1  0  0  0  0
  3  4  1  0  0  0  0
  4 12  1  0  0  0  0
  4  5  1  0  0  0  0
  4 11  1  0  0  0  0
  5 13  1  0  0  0  0
  6 16  1  0  0  0  0
  6 15  1  0  0  0  0
  6  5  1  0  0  0  0
  9  3  1  0  0  0  0
 10  3  1  0  0  0  0
 14  5  1  0  0  0  0
 17 22  1  6  0  0  0
 17 27  1  0  0  0  0
 17 18  1  0  0  0  0
 18  2  1  0  0  0  0
 18 23  1  1  0  0  0
 19 18  1  0  0  0  0
 20 21  1  0  0  0  0
 20 19  1  0  0  0  0
 21 26  1  1  0  0  0
 21 17  1  0  0  0  0
 24 20  1  0  0  0  0
 25 20  1  0  0  0  0
 28 27  1  0  0  0  0
 29 21  1  0  0  0  0
 30 37  1  0  0  0  0
 30 29  1  0  0  0  0
 31 30  2  0  0  0  0
 32 31  1  0  0  0  0
 33 31  1  0  0  0  0
 33 35  1  0  0  0  0
 34 33  1  0  0  0  0
 35 36  1  0  0  0  0
 35 37  2  0  0  0  0
 38 39  1  0  0  0  0
 38  1  1  0  0  0  0
 39 44  1  0  0  0  0
 40 45  1  0  0  0  0
 40 39  2  0  0  0  0
 41 40  1  0  0  0  0
 42 41  2  0  0  0  0
 42 43  1  0  0  0  0
 43 38  2  0  0  0  0
 46 42  1  0  0  0  0
M  END
>  <minimizedAffinity>
-5.89305353

>  <minimizedRMSD>
0.956749499

$$$$
