
 OpenBabel03252501353D

 24 25  0  0  0  0  0  0  0  0999 V2000
   44.2780   35.1100   42.5240 C   0  0  0  0  0  0  0  0  0  0  0  0
   44.2140   33.8380   42.6120 O   0  0  0  0  0  0  0  0  0  0  0  0
   45.1460   35.6930   43.4980 N   0  0  0  0  0  0  0  0  0  0  0  0
   45.3010   36.7060   43.5280 H   0  0  0  0  0  0  0  0  0  0  0  0
   45.6870   34.6270   44.3320 C   0  0  0  0  0  0  0  0  0  0  0  0
   45.2880   34.3630   45.6170 C   0  0  0  0  0  0  0  0  0  0  0  0
   45.9260   33.2960   46.2440 C   0  0  0  0  0  0  0  0  0  0  0  0
   46.8600   32.6280   45.5560 N   0  0  0  0  0  0  0  0  0  0  0  0
   47.2250   32.9160   44.2970 C   0  0  0  0  0  0  0  0  0  0  0  0
   46.6250   33.9470   43.6560 N   0  0  0  0  0  0  0  0  0  0  0  0
   45.6150   33.0850   47.2560 H   0  0  0  0  0  0  0  0  0  0  0  0
   47.9920   32.3100   43.8310 H   0  0  0  0  0  0  0  0  0  0  0  0
   44.2850   35.1820   46.1700 N   0  0  0  0  0  0  0  0  0  0  0  0
   43.3110   34.9480   45.8330 H   0  0  0  0  0  0  0  0  0  0  0  0
   44.8680   35.8100   46.7880 H   0  0  0  0  0  0  0  0  0  0  0  0
   43.5940   35.9120   41.5880 O   0  0  0  0  0  0  0  0  0  0  0  0
   42.4760   35.3710   40.9600 C   0  0  0  0  0  0  0  0  0  0  0  0
   42.1040   34.7470   39.7910 C   0  0  0  0  0  0  0  0  0  0  0  0
   42.9140   34.6050   39.0880 H   0  0  0  0  0  0  0  0  0  0  0  0
   40.7840   34.4950   39.8860 N   0  0  0  0  0  0  0  0  0  0  0  0
   40.3290   34.0110   39.0580 H   0  0  0  0  0  0  0  0  0  0  0  0
   40.3130   34.9340   41.0630 C   0  0  0  0  0  0  0  0  0  0  0  0
   39.2730   34.8310   41.3460 H   0  0  0  0  0  0  0  0  0  0  0  0
   41.3520   35.4730   41.7280 N   0  0  0  0  0  0  0  0  0  0  0  0
  1  2  2  0  0  0  0
  1  3  1  0  0  0  0
  3  4  1  0  0  0  0
  3  5  1  0  0  0  0
  5  6  1  0  0  0  0
  6 13  1  0  0  0  0
  6  7  2  0  0  0  0
  7 11  1  0  0  0  0
  8  7  1  0  0  0  0
  9  8  2  0  0  0  0
 10  9  1  0  0  0  0
 10  5  2  0  0  0  0
 12  9  1  0  0  0  0
 13 15  1  0  0  0  0
 14 13  1  0  0  0  0
 16  1  1  0  0  0  0
 17 16  1  0  0  0  0
 17 24  1  0  0  0  0
 18 20  1  0  0  0  0
 18 17  2  0  0  0  0
 19 18  1  0  0  0  0
 20 22  1  0  0  0  0
 21 20  1  0  0  0  0
 22 23  1  0  0  0  0
 22 24  2  0  0  0  0
M  END
>  <minimizedAffinity>
-4.87941742

>  <minimizedRMSD>
0.542158663

$$$$
