REMARK  Name = 
REMARK  5 active torsions:
REMARK  status: ('A' for Active; 'I' for Inactive)
REMARK    1  A    between atoms: C_2  and  C_13
REMARK    2  A    between atoms: C_3  and  C_7
REMARK    3  A    between atoms: C_13  and  N_14
REMARK    4  A    between atoms: N_14  and  C_15
REMARK    5  A    between atoms: N_14  and  C_28
REMARK                            x       y       z     vdW  Elec       q    Type
REMARK                         _______ _______ _______ _____ _____    ______ ____
ROOT
ATOM      1  C   UNL     1      44.699  35.487  45.304  0.00  0.00    +0.000 A 
ATOM      2  C   UNL     1      45.418  35.609  44.110  0.00  0.00    +0.000 A 
ATOM      3  C   UNL     1      46.251  34.601  43.724  0.00  0.00    +0.000 A 
ATOM      4  N   UNL     1      46.356  33.492  44.527  0.00  0.00    +0.000 NA
ATOM      5  C   UNL     1      45.653  33.385  45.684  0.00  0.00    +0.000 A 
ATOM      6  N   UNL     1      44.827  34.375  46.076  0.00  0.00    +0.000 NA
ATOM      7  H   UNL     1      43.985  36.066  45.809  0.00  0.00    +0.000 HD
ATOM      8  H   UNL     1      45.887  32.436  46.153  0.00  0.00    +0.000 HD
ENDROOT
BRANCH   3   9
ATOM      9  C   UNL     1      46.969  34.722  42.492  0.00  0.00    +0.000 A 
ATOM     10  C   UNL     1      48.119  35.406  42.235  0.00  0.00    +0.000 A 
ATOM     11  C   UNL     1      48.661  35.398  40.962  0.00  0.00    +0.000 A 
ATOM     12  C   UNL     1      48.053  34.706  39.944  0.00  0.00    +0.000 A 
ATOM     13  C   UNL     1      46.902  34.013  40.171  0.00  0.00    +0.000 A 
ATOM     14  C   UNL     1      46.379  34.035  41.449  0.00  0.00    +0.000 A 
ATOM     15  H   UNL     1      48.542  35.929  43.086  0.00  0.00    +0.000 HD
ATOM     16  H   UNL     1      49.576  35.968  40.846  0.00  0.00    +0.000 HD
ATOM     17  H   UNL     1      48.582  34.787  39.007  0.00  0.00    +0.000 HD
ATOM     18  H   UNL     1      46.451  33.480  39.347  0.00  0.00    +0.000 HD
ATOM     19  H   UNL     1      45.452  33.448  41.532  0.00  0.00    +0.000 HD
ENDBRANCH   3   9
BRANCH   2  20
ATOM     20  C   UNL     1      45.174  36.839  43.328  0.00  0.00    +0.000 C 
ATOM     21  H   UNL     1      44.317  36.771  42.634  0.00  0.00    +0.000 HD
ATOM     22  H   UNL     1      46.086  36.972  42.700  0.00  0.00    +0.000 HD
BRANCH  20  23
ATOM     23  N   UNL     1      45.039  37.917  44.284  0.00  0.00    +0.000 N 
BRANCH  23  24
ATOM     24  C   UNL     1      44.664  38.246  45.612  0.00  0.00    +0.000 A 
ATOM     25  C   UNL     1      44.199  37.398  46.629  0.00  0.00    +0.000 A 
ATOM     26  H   UNL     1      44.039  36.333  46.533  0.00  0.00    +0.000 HD
ATOM     27  N   UNL     1      44.025  38.228  47.673  0.00  0.00    +0.000 N 
ATOM     28  H   UNL     1      43.672  37.861  48.604  0.00  0.00    +0.000 HD
ATOM     29  C   UNL     1      44.340  39.503  47.389  0.00  0.00    +0.000 A 
ATOM     30  H   UNL     1      44.258  40.309  48.120  0.00  0.00    +0.000 HD
ATOM     31  N   UNL     1      44.740  39.526  46.107  0.00  0.00    +0.000 NA
ENDBRANCH  23  24
BRANCH  23  32
ATOM     32  C   UNL     1      45.416  39.202  43.688  0.00  0.00    +0.000 C 
ATOM     33  F   UNL     1      46.744  39.389  43.602  0.00  0.00    +0.000 F 
ATOM     34  F   UNL     1      44.908  40.261  44.438  0.00  0.00    +0.000 F 
ATOM     35  F   UNL     1      44.850  39.278  42.445  0.00  0.00    +0.000 F 
ENDBRANCH  23  32
ENDBRANCH  20  23
ENDBRANCH   2  20
TORSDOF 5
