
 OpenBabel03242516213D

 27 29  0  0  0  0  0  0  0  0999 V2000
   37.5830   28.5800   41.6350 C   0  0  0  0  0  0  0  0  0  0  0  0
   38.0430   29.8450   41.3530 C   0  0  0  0  0  0  0  0  0  0  0  0
   37.2580   30.8110   40.7540 C   0  0  0  0  0  0  0  0  0  0  0  0
   35.9470   30.5180   40.4120 C   0  0  0  0  0  0  0  0  0  0  0  0
   35.4480   29.2550   40.6790 C   0  0  0  0  0  0  0  0  0  0  0  0
   36.2670   28.3190   41.2800 C   0  0  0  0  0  0  0  0  0  0  0  0
   39.0520   30.1080   41.6030 H   0  0  0  0  0  0  0  0  0  0  0  0
   35.2830   31.2420   39.9370 H   0  0  0  0  0  0  0  0  0  0  0  0
   34.4250   29.0250   40.4140 H   0  0  0  0  0  0  0  0  0  0  0  0
   35.8280   27.3620   41.4630 H   0  0  0  0  0  0  0  0  0  0  0  0
   38.8870   25.2980   42.5640 C   0  0  0  0  0  0  0  0  0  0  0  0
   39.9560   25.6020   43.4160 C   0  0  0  0  0  0  0  0  0  0  0  0
   40.2350   26.9660   43.6780 C   0  0  0  0  0  0  0  0  0  0  0  0
   39.4480   27.9150   43.0850 N   0  0  0  0  0  0  0  0  0  0  0  0
   38.4200   27.5760   42.2650 C   0  0  0  0  0  0  0  0  0  0  0  0
   38.1550   26.2700   42.0160 N   0  0  0  0  0  0  0  0  0  0  0  0
   38.7030   24.2480   42.3890 H   0  0  0  0  0  0  0  0  0  0  0  0
   40.5720   24.8570   43.8800 H   0  0  0  0  0  0  0  0  0  0  0  0
   41.0470   27.2710   44.3280 H   0  0  0  0  0  0  0  0  0  0  0  0
   37.7950   32.1400   40.4770 C   0  0  0  0  0  0  0  0  0  0  0  0
   37.3030   33.0300   39.5480 C   0  0  0  0  0  0  0  0  0  0  0  0
   36.4550   32.8600   38.9020 H   0  0  0  0  0  0  0  0  0  0  0  0
   38.0680   34.1540   39.5840 N   0  0  0  0  0  0  0  0  0  0  0  0
   37.8730   34.9750   38.9540 H   0  0  0  0  0  0  0  0  0  0  0  0
   39.0190   33.9340   40.5380 C   0  0  0  0  0  0  0  0  0  0  0  0
   39.7100   34.7450   40.6860 H   0  0  0  0  0  0  0  0  0  0  0  0
   38.8440   32.7240   41.0650 N   0  0  0  0  0  0  0  0  0  0  0  0
  1 15  1  0  0  0  0
  2  7  1  0  0  0  0
  2  1  1  0  0  0  0
  3  2  2  0  0  0  0
  4  5  2  0  0  0  0
  4  3  1  0  0  0  0
  5  6  1  0  0  0  0
  6 10  1  0  0  0  0
  6  1  2  0  0  0  0
  8  4  1  0  0  0  0
  9  5  1  0  0  0  0
 11 12  1  0  0  0  0
 12 13  2  0  0  0  0
 12 18  1  0  0  0  0
 13 19  1  0  0  0  0
 14 13  1  0  0  0  0
 15 14  2  0  0  0  0
 16 15  1  0  0  0  0
 16 11  2  0  0  0  0
 17 11  1  0  0  0  0
 20  3  1  0  0  0  0
 20 27  1  0  0  0  0
 21 23  1  0  0  0  0
 21 20  2  0  0  0  0
 22 21  1  0  0  0  0
 23 25  1  0  0  0  0
 24 23  1  0  0  0  0
 25 26  1  0  0  0  0
 25 27  2  0  0  0  0
M  END
>  <minimizedAffinity>
-5.27267838

$$$$

 OpenBabel03242516213D

 27 29  0  0  0  0  0  0  0  0999 V2000
   37.1990   26.9650   41.4570 C   0  0  0  0  0  0  0  0  0  0  0  0
   37.2200   28.2600   40.9940 C   0  0  0  0  0  0  0  0  0  0  0  0
   37.5910   29.3310   41.7830 C   0  0  0  0  0  0  0  0  0  0  0  0
   37.9630   29.1190   43.1010 C   0  0  0  0  0  0  0  0  0  0  0  0
   37.9560   27.8300   43.6040 C   0  0  0  0  0  0  0  0  0  0  0  0
   37.5770   26.7870   42.7800 C   0  0  0  0  0  0  0  0  0  0  0  0
   36.9380   28.4630   39.9790 H   0  0  0  0  0  0  0  0  0  0  0  0
   38.2650   29.9280   43.7680 H   0  0  0  0  0  0  0  0  0  0  0  0
   38.2460   27.6630   44.6320 H   0  0  0  0  0  0  0  0  0  0  0  0
   37.5910   25.8140   43.2220 H   0  0  0  0  0  0  0  0  0  0  0  0
   36.5370   23.5300   40.4110 C   0  0  0  0  0  0  0  0  0  0  0  0
   36.0830   23.6730   39.0940 C   0  0  0  0  0  0  0  0  0  0  0  0
   36.0020   24.9790   38.5520 C   0  0  0  0  0  0  0  0  0  0  0  0
   36.3720   26.0340   39.3430 N   0  0  0  0  0  0  0  0  0  0  0  0
   36.8070   25.8500   40.6160 C   0  0  0  0  0  0  0  0  0  0  0  0
   36.8830   24.5980   41.1320 N   0  0  0  0  0  0  0  0  0  0  0  0
   36.5860   22.5190   40.7890 H   0  0  0  0  0  0  0  0  0  0  0  0
   35.7940   22.8450   38.4760 H   0  0  0  0  0  0  0  0  0  0  0  0
   35.6590   25.1620   37.5400 H   0  0  0  0  0  0  0  0  0  0  0  0
   37.5960   30.6870   41.2410 C   0  0  0  0  0  0  0  0  0  0  0  0
   36.5060   31.3510   40.7220 C   0  0  0  0  0  0  0  0  0  0  0  0
   35.5050   30.9530   40.6470 H   0  0  0  0  0  0  0  0  0  0  0  0
   36.9070   32.5870   40.3210 N   0  0  0  0  0  0  0  0  0  0  0  0
   36.2340   33.2730   39.8910 H   0  0  0  0  0  0  0  0  0  0  0  0
   38.2400   32.6610   40.6020 C   0  0  0  0  0  0  0  0  0  0  0  0
   38.7090   33.5930   40.3390 H   0  0  0  0  0  0  0  0  0  0  0  0
   38.6400   31.5170   41.1530 N   0  0  0  0  0  0  0  0  0  0  0  0
  1  6  1  0  0  0  0
  2  1  2  0  0  0  0
  2  3  1  0  0  0  0
  3  4  2  0  0  0  0
  4  5  1  0  0  0  0
  4  8  1  0  0  0  0
  5  9  1  0  0  0  0
  6 10  1  0  0  0  0
  6  5  2  0  0  0  0
  7  2  1  0  0  0  0
 11 17  1  0  0  0  0
 11 16  1  0  0  0  0
 12 11  2  0  0  0  0
 13 12  1  0  0  0  0
 13 14  2  0  0  0  0
 14 15  1  0  0  0  0
 15 16  2  0  0  0  0
 15  1  1  0  0  0  0
 18 12  1  0  0  0  0
 19 13  1  0  0  0  0
 20  3  1  0  0  0  0
 21 20  2  0  0  0  0
 22 21  1  0  0  0  0
 23 25  1  0  0  0  0
 23 21  1  0  0  0  0
 24 23  1  0  0  0  0
 25 27  2  0  0  0  0
 26 25  1  0  0  0  0
 27 20  1  0  0  0  0
M  END
>  <minimizedAffinity>
-5.20936108

$$$$

 OpenBabel03242516213D

 27 29  0  0  0  0  0  0  0  0999 V2000
   37.3530   29.0330   41.3460 C   0  0  0  0  0  0  0  0  0  0  0  0
   37.3460   27.7090   40.9760 C   0  0  0  0  0  0  0  0  0  0  0  0
   37.3800   26.6760   41.8930 C   0  0  0  0  0  0  0  0  0  0  0  0
   37.4220   26.9590   43.2480 C   0  0  0  0  0  0  0  0  0  0  0  0
   37.4290   28.2800   43.6600 C   0  0  0  0  0  0  0  0  0  0  0  0
   37.3940   29.2830   42.7100 C   0  0  0  0  0  0  0  0  0  0  0  0
   37.3140   27.4510   39.9350 H   0  0  0  0  0  0  0  0  0  0  0  0
   37.4490   26.1830   44.0150 H   0  0  0  0  0  0  0  0  0  0  0  0
   37.4610   28.5030   44.7180 H   0  0  0  0  0  0  0  0  0  0  0  0
   37.4020   30.2830   43.0870 H   0  0  0  0  0  0  0  0  0  0  0  0
   37.3180   32.4190   39.9800 C   0  0  0  0  0  0  0  0  0  0  0  0
   37.2530   32.2110   38.5960 C   0  0  0  0  0  0  0  0  0  0  0  0
   37.2210   30.8770   38.1210 C   0  0  0  0  0  0  0  0  0  0  0  0
   37.2540   29.8610   39.0380 N   0  0  0  0  0  0  0  0  0  0  0  0
   37.3170   30.1080   40.3720 C   0  0  0  0  0  0  0  0  0  0  0  0
   37.3480   31.3860   40.8230 N   0  0  0  0  0  0  0  0  0  0  0  0
   37.3410   33.4500   40.3040 H   0  0  0  0  0  0  0  0  0  0  0  0
   37.2270   33.0080   37.8790 H   0  0  0  0  0  0  0  0  0  0  0  0
   37.1710   30.6440   37.0640 H   0  0  0  0  0  0  0  0  0  0  0  0
   37.3710   25.2850   41.4460 C   0  0  0  0  0  0  0  0  0  0  0  0
   38.1190   24.2610   41.9850 C   0  0  0  0  0  0  0  0  0  0  0  0
   38.8110   24.3550   42.8090 H   0  0  0  0  0  0  0  0  0  0  0  0
   37.8380   23.1190   41.3030 N   0  0  0  0  0  0  0  0  0  0  0  0
   38.2980   22.2040   41.5460 H   0  0  0  0  0  0  0  0  0  0  0  0
   36.9190   23.4630   40.3540 C   0  0  0  0  0  0  0  0  0  0  0  0
   36.5920   22.6540   39.7250 H   0  0  0  0  0  0  0  0  0  0  0  0
   36.6480   24.7630   40.4510 N   0  0  0  0  0  0  0  0  0  0  0  0
  1  6  1  0  0  0  0
  2  1  2  0  0  0  0
  2  3  1  0  0  0  0
  3  4  2  0  0  0  0
  4  5  1  0  0  0  0
  4  8  1  0  0  0  0
  5  9  1  0  0  0  0
  6 10  1  0  0  0  0
  6  5  2  0  0  0  0
  7  2  1  0  0  0  0
 11 17  1  0  0  0  0
 11 16  1  0  0  0  0
 12 11  2  0  0  0  0
 13 12  1  0  0  0  0
 13 14  2  0  0  0  0
 14 15  1  0  0  0  0
 15 16  2  0  0  0  0
 15  1  1  0  0  0  0
 18 12  1  0  0  0  0
 19 13  1  0  0  0  0
 20  3  1  0  0  0  0
 20 21  2  0  0  0  0
 21 22  1  0  0  0  0
 23 24  1  0  0  0  0
 23 21  1  0  0  0  0
 25 27  2  0  0  0  0
 25 23  1  0  0  0  0
 26 25  1  0  0  0  0
 27 20  1  0  0  0  0
M  END
>  <minimizedAffinity>
-5.09126949

$$$$

 OpenBabel03242516213D

 27 29  0  0  0  0  0  0  0  0999 V2000
   39.7860   27.9280   43.0580 C   0  0  0  0  0  0  0  0  0  0  0  0
   39.4160   29.0480   42.3530 C   0  0  0  0  0  0  0  0  0  0  0  0
   38.1040   29.4690   42.2500 C   0  0  0  0  0  0  0  0  0  0  0  0
   37.1000   28.7490   42.8760 C   0  0  0  0  0  0  0  0  0  0  0  0
   37.4320   27.6150   43.5960 C   0  0  0  0  0  0  0  0  0  0  0  0
   38.7570   27.2290   43.6730 C   0  0  0  0  0  0  0  0  0  0  0  0
   40.1670   29.6310   41.8550 H   0  0  0  0  0  0  0  0  0  0  0  0
   36.0480   29.0350   42.8280 H   0  0  0  0  0  0  0  0  0  0  0  0
   36.6500   27.0520   44.0850 H   0  0  0  0  0  0  0  0  0  0  0  0
   38.9550   26.3460   44.2420 H   0  0  0  0  0  0  0  0  0  0  0  0
   42.6680   25.7610   43.6370 C   0  0  0  0  0  0  0  0  0  0  0  0
   43.7610   26.5960   43.3710 C   0  0  0  0  0  0  0  0  0  0  0  0
   43.5030   27.9330   42.9830 C   0  0  0  0  0  0  0  0  0  0  0  0
   42.2000   28.3420   42.8890 N   0  0  0  0  0  0  0  0  0  0  0  0
   41.1690   27.4990   43.1570 C   0  0  0  0  0  0  0  0  0  0  0  0
   41.4200   26.2180   43.5280 N   0  0  0  0  0  0  0  0  0  0  0  0
   42.9050   24.7480   43.9300 H   0  0  0  0  0  0  0  0  0  0  0  0
   44.7820   26.2740   43.4450 H   0  0  0  0  0  0  0  0  0  0  0  0
   44.3010   28.6320   42.7620 H   0  0  0  0  0  0  0  0  0  0  0  0
   37.7650   30.6680   41.4880 C   0  0  0  0  0  0  0  0  0  0  0  0
   36.5040   31.0210   41.0620 C   0  0  0  0  0  0  0  0  0  0  0  0
   35.6000   30.4560   41.2360 H   0  0  0  0  0  0  0  0  0  0  0  0
   36.5930   32.1980   40.3860 N   0  0  0  0  0  0  0  0  0  0  0  0
   35.7440   32.6600   39.9690 H   0  0  0  0  0  0  0  0  0  0  0  0
   37.9120   32.5480   40.4100 C   0  0  0  0  0  0  0  0  0  0  0  0
   38.1450   33.4710   39.9100 H   0  0  0  0  0  0  0  0  0  0  0  0
   38.6030   31.6230   41.0730 N   0  0  0  0  0  0  0  0  0  0  0  0
  1 15  1  0  0  0  0
  1  6  1  0  0  0  0
  2  1  2  0  0  0  0
  3  2  1  0  0  0  0
  3  4  2  0  0  0  0
  4  5  1  0  0  0  0
  5  6  2  0  0  0  0
  5  9  1  0  0  0  0
  6 10  1  0  0  0  0
  7  2  1  0  0  0  0
  8  4  1  0  0  0  0
 11 17  1  0  0  0  0
 12 18  1  0  0  0  0
 12 11  2  0  0  0  0
 13 12  1  0  0  0  0
 14 13  2  0  0  0  0
 14 15  1  0  0  0  0
 15 16  2  0  0  0  0
 16 11  1  0  0  0  0
 19 13  1  0  0  0  0
 20  3  1  0  0  0  0
 21 22  1  0  0  0  0
 21 20  2  0  0  0  0
 23 25  1  0  0  0  0
 23 21  1  0  0  0  0
 24 23  1  0  0  0  0
 25 27  2  0  0  0  0
 26 25  1  0  0  0  0
 27 20  1  0  0  0  0
M  END
>  <minimizedAffinity>
-4.93530416

$$$$

 OpenBabel03242516213D

 27 29  0  0  0  0  0  0  0  0999 V2000
   37.8850   28.9970   41.2810 C   0  0  0  0  0  0  0  0  0  0  0  0
   38.5830   29.6210   40.2740 C   0  0  0  0  0  0  0  0  0  0  0  0
   38.1340   30.7710   39.6530 C   0  0  0  0  0  0  0  0  0  0  0  0
   36.9320   31.3390   40.0430 C   0  0  0  0  0  0  0  0  0  0  0  0
   36.2000   30.7410   41.0530 C   0  0  0  0  0  0  0  0  0  0  0  0
   36.6860   29.5910   41.6480 C   0  0  0  0  0  0  0  0  0  0  0  0
   39.5180   29.2100   39.9450 H   0  0  0  0  0  0  0  0  0  0  0  0
   36.5310   32.2460   39.5860 H   0  0  0  0  0  0  0  0  0  0  0  0
   35.2620   31.1830   41.3590 H   0  0  0  0  0  0  0  0  0  0  0  0
   36.0790   29.1740   42.4220 H   0  0  0  0  0  0  0  0  0  0  0  0
   38.5040   25.4500   41.8860 C   0  0  0  0  0  0  0  0  0  0  0  0
   39.2480   25.4480   43.0730 C   0  0  0  0  0  0  0  0  0  0  0  0
   39.5430   26.6930   43.6800 C   0  0  0  0  0  0  0  0  0  0  0  0
   39.0880   27.8330   43.0760 N   0  0  0  0  0  0  0  0  0  0  0  0
   38.3690   27.7900   41.9240 C   0  0  0  0  0  0  0  0  0  0  0  0
   38.0880   26.5960   41.3460 N   0  0  0  0  0  0  0  0  0  0  0  0
   38.2980   24.4810   41.4530 H   0  0  0  0  0  0  0  0  0  0  0  0
   39.6040   24.5530   43.5450 H   0  0  0  0  0  0  0  0  0  0  0  0
   40.1140   26.7640   44.5980 H   0  0  0  0  0  0  0  0  0  0  0  0
   38.9150   31.3940   38.5880 C   0  0  0  0  0  0  0  0  0  0  0  0
   38.4480   31.7280   37.3360 C   0  0  0  0  0  0  0  0  0  0  0  0
   37.4410   31.5710   36.9780 H   0  0  0  0  0  0  0  0  0  0  0  0
   39.4690   32.2850   36.6310 N   0  0  0  0  0  0  0  0  0  0  0  0
   39.3380   32.6190   35.6410 H   0  0  0  0  0  0  0  0  0  0  0  0
   40.5480   32.2850   37.4660 C   0  0  0  0  0  0  0  0  0  0  0  0
   41.4470   32.7010   37.0460 H   0  0  0  0  0  0  0  0  0  0  0  0
   40.2030   31.7480   38.6340 N   0  0  0  0  0  0  0  0  0  0  0  0
  1  6  1  0  0  0  0
  1 15  1  0  0  0  0
  2  1  2  0  0  0  0
  3  4  2  0  0  0  0
  3  2  1  0  0  0  0
  4  5  1  0  0  0  0
  5  9  1  0  0  0  0
  5  6  2  0  0  0  0
  6 10  1  0  0  0  0
  7  2  1  0  0  0  0
  8  4  1  0  0  0  0
 11 12  1  0  0  0  0
 12 18  1  0  0  0  0
 12 13  2  0  0  0  0
 13 19  1  0  0  0  0
 14 13  1  0  0  0  0
 15 14  2  0  0  0  0
 16 11  2  0  0  0  0
 16 15  1  0  0  0  0
 17 11  1  0  0  0  0
 20 27  1  0  0  0  0
 20  3  1  0  0  0  0
 21 20  2  0  0  0  0
 22 21  1  0  0  0  0
 23 21  1  0  0  0  0
 23 25  1  0  0  0  0
 24 23  1  0  0  0  0
 25 27  2  0  0  0  0
 26 25  1  0  0  0  0
M  END
>  <minimizedAffinity>
-4.88460302

$$$$

 OpenBabel03242516213D

 27 29  0  0  0  0  0  0  0  0999 V2000
   35.9020   29.5930   38.3000 C   0  0  0  0  0  0  0  0  0  0  0  0
   36.7130   30.6440   38.6580 C   0  0  0  0  0  0  0  0  0  0  0  0
   36.8820   31.0470   39.9680 C   0  0  0  0  0  0  0  0  0  0  0  0
   36.2180   30.3780   40.9850 C   0  0  0  0  0  0  0  0  0  0  0  0
   35.3930   29.3150   40.6650 C   0  0  0  0  0  0  0  0  0  0  0  0
   35.2520   28.9450   39.3400 C   0  0  0  0  0  0  0  0  0  0  0  0
   37.2430   31.1860   37.8980 H   0  0  0  0  0  0  0  0  0  0  0  0
   36.3150   30.6540   42.0360 H   0  0  0  0  0  0  0  0  0  0  0  0
   34.8750   28.7910   41.4560 H   0  0  0  0  0  0  0  0  0  0  0  0
   34.6030   28.1170   39.1530 H   0  0  0  0  0  0  0  0  0  0  0  0
   36.5970   29.1850   34.7380 C   0  0  0  0  0  0  0  0  0  0  0  0
   35.5010   28.4450   34.2760 C   0  0  0  0  0  0  0  0  0  0  0  0
   34.5000   28.0780   35.2090 C   0  0  0  0  0  0  0  0  0  0  0  0
   34.6550   28.4640   36.5120 N   0  0  0  0  0  0  0  0  0  0  0  0
   35.7350   29.1820   36.9180 C   0  0  0  0  0  0  0  0  0  0  0  0
   36.6910   29.5320   36.0230 N   0  0  0  0  0  0  0  0  0  0  0  0
   37.3390   29.4460   33.9980 H   0  0  0  0  0  0  0  0  0  0  0  0
   35.3820   28.1430   33.2530 H   0  0  0  0  0  0  0  0  0  0  0  0
   33.6270   27.5060   34.9190 H   0  0  0  0  0  0  0  0  0  0  0  0
   37.7550   32.1710   40.2940 C   0  0  0  0  0  0  0  0  0  0  0  0
   38.8750   32.1150   41.0950 C   0  0  0  0  0  0  0  0  0  0  0  0
   39.2520   31.2320   41.5870 H   0  0  0  0  0  0  0  0  0  0  0  0
   39.4180   33.3600   41.1590 N   0  0  0  0  0  0  0  0  0  0  0  0
   40.2880   33.5540   41.7200 H   0  0  0  0  0  0  0  0  0  0  0  0
   38.6210   34.1610   40.3940 C   0  0  0  0  0  0  0  0  0  0  0  0
   38.9260   35.1910   40.3440 H   0  0  0  0  0  0  0  0  0  0  0  0
   37.6280   33.4360   39.8820 N   0  0  0  0  0  0  0  0  0  0  0  0
  1  2  2  0  0  0  0
  1  6  1  0  0  0  0
  2  3  1  0  0  0  0
  3 20  1  0  0  0  0
  3  4  2  0  0  0  0
  4  8  1  0  0  0  0
  5  4  1  0  0  0  0
  5  9  1  0  0  0  0
  6  5  2  0  0  0  0
  7  2  1  0  0  0  0
 10  6  1  0  0  0  0
 11 16  1  0  0  0  0
 12 11  2  0  0  0  0
 12 13  1  0  0  0  0
 13 14  2  0  0  0  0
 14 15  1  0  0  0  0
 15  1  1  0  0  0  0
 16 15  2  0  0  0  0
 17 11  1  0  0  0  0
 18 12  1  0  0  0  0
 19 13  1  0  0  0  0
 20 21  2  0  0  0  0
 21 23  1  0  0  0  0
 21 22  1  0  0  0  0
 23 24  1  0  0  0  0
 25 23  1  0  0  0  0
 26 25  1  0  0  0  0
 27 20  1  0  0  0  0
 27 25  2  0  0  0  0
M  END
>  <minimizedAffinity>
-4.84160662

$$$$

 OpenBabel03242516213D

 27 29  0  0  0  0  0  0  0  0999 V2000
   37.5690   30.5270   40.8740 C   0  0  0  0  0  0  0  0  0  0  0  0
   38.2530   29.4680   41.4220 C   0  0  0  0  0  0  0  0  0  0  0  0
   37.6540   28.2560   41.7070 C   0  0  0  0  0  0  0  0  0  0  0  0
   36.3060   28.0750   41.4380 C   0  0  0  0  0  0  0  0  0  0  0  0
   35.5840   29.1170   40.8860 C   0  0  0  0  0  0  0  0  0  0  0  0
   36.2230   30.3130   40.6160 C   0  0  0  0  0  0  0  0  0  0  0  0
   39.2980   29.5710   41.6450 H   0  0  0  0  0  0  0  0  0  0  0  0
   35.7830   27.1400   41.6430 H   0  0  0  0  0  0  0  0  0  0  0  0
   34.5330   28.9780   40.6740 H   0  0  0  0  0  0  0  0  0  0  0  0
   35.6150   31.0820   40.1900 H   0  0  0  0  0  0  0  0  0  0  0  0
   40.2180   32.9960   40.4030 C   0  0  0  0  0  0  0  0  0  0  0  0
   39.5210   34.1550   40.0400 C   0  0  0  0  0  0  0  0  0  0  0  0
   38.1090   34.0880   39.9550 C   0  0  0  0  0  0  0  0  0  0  0  0
   37.4980   32.8950   40.2310 N   0  0  0  0  0  0  0  0  0  0  0  0
   38.2130   31.7940   40.5800 C   0  0  0  0  0  0  0  0  0  0  0  0
   39.5650   31.8620   40.6610 N   0  0  0  0  0  0  0  0  0  0  0  0
   41.2940   33.0870   40.4580 H   0  0  0  0  0  0  0  0  0  0  0  0
   40.0010   35.0900   39.8230 H   0  0  0  0  0  0  0  0  0  0  0  0
   37.5080   34.9470   39.6790 H   0  0  0  0  0  0  0  0  0  0  0  0
   38.4260   27.1630   42.2900 C   0  0  0  0  0  0  0  0  0  0  0  0
   38.5410   25.8910   41.7720 C   0  0  0  0  0  0  0  0  0  0  0  0
   38.0720   25.5380   40.8650 H   0  0  0  0  0  0  0  0  0  0  0  0
   39.3410   25.1620   42.5950 N   0  0  0  0  0  0  0  0  0  0  0  0
   39.5690   24.1550   42.3920 H   0  0  0  0  0  0  0  0  0  0  0  0
   39.7050   26.0020   43.6080 C   0  0  0  0  0  0  0  0  0  0  0  0
   40.3490   25.5640   44.3500 H   0  0  0  0  0  0  0  0  0  0  0  0
   39.1510   27.1960   43.4130 N   0  0  0  0  0  0  0  0  0  0  0  0
  1  2  1  0  0  0  0
  2  7  1  0  0  0  0
  2  3  2  0  0  0  0
  3 20  1  0  0  0  0
  4  8  1  0  0  0  0
  4  3  1  0  0  0  0
  5  4  2  0  0  0  0
  6  1  2  0  0  0  0
  6  5  1  0  0  0  0
  9  5  1  0  0  0  0
 10  6  1  0  0  0  0
 11 17  1  0  0  0  0
 11 16  1  0  0  0  0
 12 11  2  0  0  0  0
 13 12  1  0  0  0  0
 13 14  2  0  0  0  0
 14 15  1  0  0  0  0
 15 16  2  0  0  0  0
 15  1  1  0  0  0  0
 18 12  1  0  0  0  0
 19 13  1  0  0  0  0
 20 27  1  0  0  0  0
 21 20  2  0  0  0  0
 21 23  1  0  0  0  0
 22 21  1  0  0  0  0
 23 25  1  0  0  0  0
 24 23  1  0  0  0  0
 25 26  1  0  0  0  0
 27 25  2  0  0  0  0
M  END
>  <minimizedAffinity>
-4.6879425

$$$$

 OpenBabel03242516213D

 27 29  0  0  0  0  0  0  0  0999 V2000
   36.7300   28.1160   39.4890 C   0  0  0  0  0  0  0  0  0  0  0  0
   37.2080   29.3080   39.9780 C   0  0  0  0  0  0  0  0  0  0  0  0
   37.1510   30.4880   39.2620 C   0  0  0  0  0  0  0  0  0  0  0  0
   36.5940   30.4980   37.9940 C   0  0  0  0  0  0  0  0  0  0  0  0
   36.1010   29.3180   37.4660 C   0  0  0  0  0  0  0  0  0  0  0  0
   36.1770   28.1590   38.2160 C   0  0  0  0  0  0  0  0  0  0  0  0
   37.6470   29.3400   40.9570 H   0  0  0  0  0  0  0  0  0  0  0  0
   36.5240   31.4010   37.3850 H   0  0  0  0  0  0  0  0  0  0  0  0
   35.6650   29.3230   36.4770 H   0  0  0  0  0  0  0  0  0  0  0  0
   35.7810   27.2790   37.7580 H   0  0  0  0  0  0  0  0  0  0  0  0
   36.5460   24.5530   40.2680 C   0  0  0  0  0  0  0  0  0  0  0  0
   36.8950   24.4990   41.6230 C   0  0  0  0  0  0  0  0  0  0  0  0
   37.2010   25.7130   42.2850 C   0  0  0  0  0  0  0  0  0  0  0  0
   37.1400   26.8770   41.5670 N   0  0  0  0  0  0  0  0  0  0  0  0
   36.7960   26.8850   40.2530 C   0  0  0  0  0  0  0  0  0  0  0  0
   36.5030   25.7200   39.6220 N   0  0  0  0  0  0  0  0  0  0  0  0
   36.3190   23.6070   39.7980 H   0  0  0  0  0  0  0  0  0  0  0  0
   36.9430   23.5860   42.1850 H   0  0  0  0  0  0  0  0  0  0  0  0
   37.4790   25.7430   43.3320 H   0  0  0  0  0  0  0  0  0  0  0  0
   37.6740   31.7280   39.8290 C   0  0  0  0  0  0  0  0  0  0  0  0
   37.1910   32.9940   39.5820 C   0  0  0  0  0  0  0  0  0  0  0  0
   36.3610   33.2350   38.9350 H   0  0  0  0  0  0  0  0  0  0  0  0
   37.9360   33.8850   40.2900 N   0  0  0  0  0  0  0  0  0  0  0  0
   37.7430   34.9190   40.2530 H   0  0  0  0  0  0  0  0  0  0  0  0
   38.8680   33.1470   40.9620 C   0  0  0  0  0  0  0  0  0  0  0  0
   39.5420   33.7180   41.5750 H   0  0  0  0  0  0  0  0  0  0  0  0
   38.7000   31.8580   40.6770 N   0  0  0  0  0  0  0  0  0  0  0  0
  1  2  1  0  0  0  0
  1 15  1  0  0  0  0
  2  7  1  0  0  0  0
  3 20  1  0  0  0  0
  3  2  2  0  0  0  0
  4  3  1  0  0  0  0
  5  4  2  0  0  0  0
  5  6  1  0  0  0  0
  6  1  2  0  0  0  0
  8  4  1  0  0  0  0
  9  5  1  0  0  0  0
 10  6  1  0  0  0  0
 11 12  1  0  0  0  0
 12 18  1  0  0  0  0
 12 13  2  0  0  0  0
 13 19  1  0  0  0  0
 14 13  1  0  0  0  0
 15 14  2  0  0  0  0
 16 15  1  0  0  0  0
 16 11  2  0  0  0  0
 17 11  1  0  0  0  0
 20 27  1  0  0  0  0
 21 20  2  0  0  0  0
 21 23  1  0  0  0  0
 22 21  1  0  0  0  0
 23 25  1  0  0  0  0
 24 23  1  0  0  0  0
 25 26  1  0  0  0  0
 27 25  2  0  0  0  0
M  END
>  <minimizedAffinity>
-4.67501307

$$$$

 OpenBabel03242516213D

 27 29  0  0  0  0  0  0  0  0999 V2000
   36.9590   28.4780   39.6580 C   0  0  0  0  0  0  0  0  0  0  0  0
   37.4580   29.6620   40.1450 C   0  0  0  0  0  0  0  0  0  0  0  0
   37.4650   30.8320   39.4090 C   0  0  0  0  0  0  0  0  0  0  0  0
   36.9510   30.8370   38.1220 C   0  0  0  0  0  0  0  0  0  0  0  0
   36.4390   29.6640   37.5960 C   0  0  0  0  0  0  0  0  0  0  0  0
   36.4530   28.5170   38.3670 C   0  0  0  0  0  0  0  0  0  0  0  0
   37.8640   29.6970   41.1380 H   0  0  0  0  0  0  0  0  0  0  0  0
   36.9310   31.7310   37.4970 H   0  0  0  0  0  0  0  0  0  0  0  0
   36.0380   29.6670   36.5920 H   0  0  0  0  0  0  0  0  0  0  0  0
   36.0440   27.6420   37.9090 H   0  0  0  0  0  0  0  0  0  0  0  0
   37.1140   26.2760   42.5670 C   0  0  0  0  0  0  0  0  0  0  0  0
   36.9710   24.9970   42.0140 C   0  0  0  0  0  0  0  0  0  0  0  0
   36.8190   24.8880   40.6100 C   0  0  0  0  0  0  0  0  0  0  0  0
   36.8190   26.0360   39.8660 N   0  0  0  0  0  0  0  0  0  0  0  0
   36.9600   27.2580   40.4430 C   0  0  0  0  0  0  0  0  0  0  0  0
   37.1050   27.3590   41.7880 N   0  0  0  0  0  0  0  0  0  0  0  0
   37.2280   26.3190   43.6400 H   0  0  0  0  0  0  0  0  0  0  0  0
   36.9720   24.0970   42.5980 H   0  0  0  0  0  0  0  0  0  0  0  0
   36.7040   23.9290   40.1170 H   0  0  0  0  0  0  0  0  0  0  0  0
   38.0070   32.0640   39.9740 C   0  0  0  0  0  0  0  0  0  0  0  0
   38.8610   32.1480   41.0520 C   0  0  0  0  0  0  0  0  0  0  0  0
   39.2410   31.3110   41.6200 H   0  0  0  0  0  0  0  0  0  0  0  0
   39.1420   33.4600   41.2760 N   0  0  0  0  0  0  0  0  0  0  0  0
   39.7810   33.7610   42.0560 H   0  0  0  0  0  0  0  0  0  0  0  0
   38.4530   34.1600   40.3290 C   0  0  0  0  0  0  0  0  0  0  0  0
   38.5760   35.2280   40.3750 H   0  0  0  0  0  0  0  0  0  0  0  0
   37.7780   33.3120   39.5560 N   0  0  0  0  0  0  0  0  0  0  0  0
  1  2  1  0  0  0  0
  1 15  1  0  0  0  0
  2  7  1  0  0  0  0
  3 20  1  0  0  0  0
  3  2  2  0  0  0  0
  4  3  1  0  0  0  0
  5  4  2  0  0  0  0
  5  6  1  0  0  0  0
  6  1  2  0  0  0  0
  8  4  1  0  0  0  0
  9  5  1  0  0  0  0
 10  6  1  0  0  0  0
 11 17  1  0  0  0  0
 12 11  1  0  0  0  0
 12 18  1  0  0  0  0
 13 12  2  0  0  0  0
 14 15  2  0  0  0  0
 14 13  1  0  0  0  0
 15 16  1  0  0  0  0
 16 11  2  0  0  0  0
 19 13  1  0  0  0  0
 20 21  2  0  0  0  0
 21 23  1  0  0  0  0
 21 22  1  0  0  0  0
 23 24  1  0  0  0  0
 25 26  1  0  0  0  0
 25 23  1  0  0  0  0
 27 20  1  0  0  0  0
 27 25  2  0  0  0  0
M  END
>  <minimizedAffinity>
-4.67448568

$$$$
