
 OpenBabel03252501353D

 24 25  0  0  0  0  0  0  0  0999 V2000
   44.2530   34.2280   41.3550 C   0  0  0  0  0  0  0  0  0  0  0  0
   44.0670   33.1600   42.0280 O   0  0  0  0  0  0  0  0  0  0  0  0
   45.1020   35.1650   42.0190 N   0  0  0  0  0  0  0  0  0  0  0  0
   45.3460   36.0600   41.5800 H   0  0  0  0  0  0  0  0  0  0  0  0
   45.4850   34.6080   43.3100 C   0  0  0  0  0  0  0  0  0  0  0  0
   44.8620   34.8910   44.4990 C   0  0  0  0  0  0  0  0  0  0  0  0
   45.3780   34.2520   45.6220 C   0  0  0  0  0  0  0  0  0  0  0  0
   46.4210   33.4290   45.4560 N   0  0  0  0  0  0  0  0  0  0  0  0
   47.0050   33.1760   44.2740 C   0  0  0  0  0  0  0  0  0  0  0  0
   46.5300   33.7800   43.1600 N   0  0  0  0  0  0  0  0  0  0  0  0
   44.8910   34.4730   46.5590 H   0  0  0  0  0  0  0  0  0  0  0  0
   47.8450   32.4910   44.2510 H   0  0  0  0  0  0  0  0  0  0  0  0
   43.7750   35.7860   44.4680 N   0  0  0  0  0  0  0  0  0  0  0  0
   42.8780   35.3540   44.1150 H   0  0  0  0  0  0  0  0  0  0  0  0
   44.2370   36.6630   44.8340 H   0  0  0  0  0  0  0  0  0  0  0  0
   43.7100   34.5120   40.0850 O   0  0  0  0  0  0  0  0  0  0  0  0
   42.4220   35.0350   40.0290 C   0  0  0  0  0  0  0  0  0  0  0  0
   41.3700   35.1950   39.1560 C   0  0  0  0  0  0  0  0  0  0  0  0
   41.5540   34.7990   38.1660 H   0  0  0  0  0  0  0  0  0  0  0  0
   40.3910   35.8230   39.8340 N   0  0  0  0  0  0  0  0  0  0  0  0
   39.4950   36.0290   39.3010 H   0  0  0  0  0  0  0  0  0  0  0  0
   40.7840   36.0650   41.0940 C   0  0  0  0  0  0  0  0  0  0  0  0
   40.1480   36.5630   41.8140 H   0  0  0  0  0  0  0  0  0  0  0  0
   42.0330   35.5800   41.2190 N   0  0  0  0  0  0  0  0  0  0  0  0
  1  3  1  0  0  0  0
  1  2  2  0  0  0  0
  3  5  1  0  0  0  0
  4  3  1  0  0  0  0
  5  6  1  0  0  0  0
  6  7  2  0  0  0  0
  7 11  1  0  0  0  0
  8  7  1  0  0  0  0
  9  8  2  0  0  0  0
 10  5  2  0  0  0  0
 10  9  1  0  0  0  0
 12  9  1  0  0  0  0
 13  6  1  0  0  0  0
 13 15  1  0  0  0  0
 14 13  1  0  0  0  0
 16  1  1  0  0  0  0
 17 16  1  0  0  0  0
 17 24  1  0  0  0  0
 18 20  1  0  0  0  0
 18 17  2  0  0  0  0
 19 18  1  0  0  0  0
 20 22  1  0  0  0  0
 21 20  1  0  0  0  0
 22 24  2  0  0  0  0
 22 23  1  0  0  0  0
M  END
>  <minimizedAffinity>
-4.65686941

>  <minimizedRMSD>
1.50307131

$$$$
