
 OpenBabel03252508073D

 43 46  0  0  0  0  0  0  0  0999 V2000
   45.2040   35.8080   42.9610 C   0  0  0  0  0  0  0  0  0  0  0  0
   45.4960   34.4540   43.0010 C   0  0  0  0  0  0  0  0  0  0  0  0
   45.3290   33.7500   44.1690 C   0  0  0  0  0  0  0  0  0  0  0  0
   44.8650   34.4540   45.2640 N   0  0  0  0  0  0  0  0  0  0  0  0
   44.5860   35.7530   45.2180 C   0  0  0  0  0  0  0  0  0  0  0  0
   44.7610   36.4220   44.0570 N   0  0  0  0  0  0  0  0  0  0  0  0
   45.3250   36.3950   42.0610 H   0  0  0  0  0  0  0  0  0  0  0  0
   44.2240   36.2890   46.0860 H   0  0  0  0  0  0  0  0  0  0  0  0
   45.5810   32.3730   44.3730 C   0  0  0  0  0  0  0  0  0  0  0  0
   45.1630   31.3640   43.5010 C   0  0  0  0  0  0  0  0  0  0  0  0
   45.3460   30.0250   43.7290 C   0  0  0  0  0  0  0  0  0  0  0  0
   45.9780   29.6100   44.8770 C   0  0  0  0  0  0  0  0  0  0  0  0
   46.4130   30.6190   45.7780 C   0  0  0  0  0  0  0  0  0  0  0  0
   47.0430   30.2200   46.9270 C   0  0  0  0  0  0  0  0  0  0  0  0
   47.4930   31.1490   47.8450 C   0  0  0  0  0  0  0  0  0  0  0  0
   47.3010   32.5150   47.5870 C   0  0  0  0  0  0  0  0  0  0  0  0
   46.6490   32.8790   46.3950 C   0  0  0  0  0  0  0  0  0  0  0  0
   46.2110   31.9340   45.5090 C   0  0  0  0  0  0  0  0  0  0  0  0
   44.6630   31.6970   42.5930 H   0  0  0  0  0  0  0  0  0  0  0  0
   45.0080   29.2760   43.0300 H   0  0  0  0  0  0  0  0  0  0  0  0
   46.1690   28.5920   45.1500 H   0  0  0  0  0  0  0  0  0  0  0  0
   47.2040   29.1590   47.1480 H   0  0  0  0  0  0  0  0  0  0  0  0
   47.9850   30.7740   48.7430 H   0  0  0  0  0  0  0  0  0  0  0  0
   47.6840   33.1670   48.3550 H   0  0  0  0  0  0  0  0  0  0  0  0
   46.6200   33.9480   46.3720 H   0  0  0  0  0  0  0  0  0  0  0  0
   45.9420   33.8770   41.8470 O   0  0  0  0  0  0  0  0  0  0  0  0
   48.0480   32.4310   41.2660 O   0  0  0  0  0  0  0  0  0  0  0  0
   47.5620   33.8310   41.3580 P   0  0  1  0  0  0  0  0  0  0  0  0
   47.7550   34.5220   39.8240 O   0  0  0  0  0  0  0  0  0  0  0  0
   48.0660   33.8050   38.6780 C   0  0  0  0  0  0  0  0  0  0  0  0
   48.6000   34.5320   37.6460 C   0  0  0  0  0  0  0  0  0  0  0  0
   48.8520   35.5890   37.5020 H   0  0  0  0  0  0  0  0  0  0  0  0
   48.8400   33.6840   36.6170 N   0  0  0  0  0  0  0  0  0  0  0  0
   49.2390   33.8510   35.6660 H   0  0  0  0  0  0  0  0  0  0  0  0
   48.4510   32.4740   37.0410 C   0  0  0  0  0  0  0  0  0  0  0  0
   48.4520   31.4830   36.5610 H   0  0  0  0  0  0  0  0  0  0  0  0
   47.9660   32.5150   38.3130 N   0  0  0  0  0  0  0  0  0  0  0  0
   48.4720   34.7080   42.4590 O   0  0  0  0  0  0  0  0  0  0  0  0
   49.6920   35.3250   42.2270 C   0  0  0  0  0  0  0  0  0  0  0  0
   49.4060   36.3970   41.6720 O   0  0  0  0  0  0  0  0  0  0  0  0
   50.7800   34.5020   42.7070 N   0  0  0  0  0  0  0  0  0  0  0  0
   51.5620   34.0180   42.2040 H   0  0  0  0  0  0  0  0  0  0  0  0
   50.8260   34.3390   43.7560 H   0  0  0  0  0  0  0  0  0  0  0  0
  1  2  2  0  0  0  0
  1  6  1  0  0  0  0
  2  3  1  0  0  0  0
  3  9  1  0  0  0  0
  3  4  2  0  0  0  0
  5  4  1  0  0  0  0
  5  8  1  0  0  0  0
  6  5  2  0  0  0  0
  7  1  1  0  0  0  0
  9 18  1  0  0  0  0
 10 11  1  0  0  0  0
 10  9  2  0  0  0  0
 11 12  2  0  0  0  0
 12 21  1  0  0  0  0
 12 13  1  0  0  0  0
 13 14  1  0  0  0  0
 14 22  1  0  0  0  0
 14 15  2  0  0  0  0
 15 23  1  0  0  0  0
 16 15  1  0  0  0  0
 16 24  1  0  0  0  0
 17 16  2  0  0  0  0
 18 13  2  0  0  0  0
 18 17  1  0  0  0  0
 19 10  1  0  0  0  0
 20 11  1  0  0  0  0
 25 17  1  0  0  0  0
 26  2  1  0  0  0  0
 28 27  2  6  0  0  0
 28 26  1  0  0  0  0
 28 38  1  0  0  0  0
 29 28  1  0  0  0  0
 30 29  1  0  0  0  0
 31 30  2  0  0  0  0
 32 31  1  0  0  0  0
 33 35  1  0  0  0  0
 33 31  1  0  0  0  0
 34 33  1  0  0  0  0
 35 37  2  0  0  0  0
 36 35  1  0  0  0  0
 37 30  1  0  0  0  0
 39 38  1  0  0  0  0
 39 41  1  0  0  0  0
 40 39  2  0  0  0  0
 41 43  1  0  0  0  0
 42 41  1  0  0  0  0
M  END
>  <minimizedAffinity>
-6.24992418

>  <minimizedRMSD>
0.26033181

$$$$
