REMARK  Name = 
REMARK  3 active torsions:
REMARK  status: ('A' for Active; 'I' for Inactive)
REMARK    1  A    between atoms: C_2  and  C_14
REMARK    2  A    between atoms: C_3  and  S_16
REMARK    3  A    between atoms: S_16  and  C_24
REMARK                            x       y       z     vdW  Elec       q    Type
REMARK                         _______ _______ _______ _____ _____    ______ ____
ROOT
ATOM      1  C   UNL     1      47.465  31.682  44.825  0.00  0.00    +0.000 A 
ATOM      2  C   UNL     1      46.783  32.867  44.535  0.00  0.00    +0.000 A 
ATOM      3  C   UNL     1      45.918  33.445  45.420  0.00  0.00    +0.000 A 
ATOM      4  C   UNL     1      45.680  32.858  46.672  0.00  0.00    +0.000 A 
ATOM      5  N   UNL     1      44.918  33.139  47.760  0.00  0.00    +0.000 N 
ATOM      6  C   UNL     1      45.115  32.171  48.691  0.00  0.00    +0.000 A 
ATOM      7  N   UNL     1      45.996  31.309  48.159  0.00  0.00    +0.000 NA
ATOM      8  C   UNL     1      46.362  31.698  46.928  0.00  0.00    +0.000 A 
ATOM      9  C   UNL     1      47.246  31.078  46.064  0.00  0.00    +0.000 A 
ATOM     10  H   UNL     1      48.148  31.217  44.137  0.00  0.00    +0.000 HD
ATOM     11  H   UNL     1      44.331  34.000  47.728  0.00  0.00    +0.000 HD
ATOM     12  H   UNL     1      44.556  32.295  49.603  0.00  0.00    +0.000 HD
ATOM     13  H   UNL     1      47.759  30.156  46.321  0.00  0.00    +0.000 HD
ENDROOT
BRANCH   2  18
ATOM     14  C   UNL     1      46.373  33.817  41.019  0.00  0.00    +0.000 A 
ATOM     15  C   UNL     1      47.428  34.720  40.819  0.00  0.00    +0.000 A 
ATOM     16  C   UNL     1      48.267  34.988  41.903  0.00  0.00    +0.000 A 
ATOM     17  N   UNL     1      48.028  34.366  43.101  0.00  0.00    +0.000 NA
ATOM     18  C   UNL     1      47.003  33.507  43.244  0.00  0.00    +0.000 A 
ATOM     19  N   UNL     1      46.163  33.217  42.217  0.00  0.00    +0.000 NA
ATOM     20  H   UNL     1      45.691  33.570  40.216  0.00  0.00    +0.000 HD
ATOM     21  H   UNL     1      47.550  35.168  39.843  0.00  0.00    +0.000 HD
ATOM     22  H   UNL     1      49.077  35.680  41.752  0.00  0.00    +0.000 HD
ENDBRANCH   2  18
BRANCH   3  23
ATOM     23  S   UNL     1      45.047  34.956  45.061  0.00  0.00    +0.000 S 
BRANCH  23  24
ATOM     24  C   UNL     1      43.487  34.672  44.273  0.00  0.00    +0.000 A 
ATOM     25  C   UNL     1      42.424  35.551  44.455  0.00  0.00    +0.000 A 
ATOM     26  H   UNL     1      42.334  36.470  45.036  0.00  0.00    +0.000 HD
ATOM     27  N   UNL     1      41.404  35.035  43.718  0.00  0.00    +0.000 N 
ATOM     28  H   UNL     1      40.433  35.411  43.599  0.00  0.00    +0.000 HD
ATOM     29  C   UNL     1      41.800  33.903  43.112  0.00  0.00    +0.000 A 
ATOM     30  H   UNL     1      41.311  33.200  42.453  0.00  0.00    +0.000 HD
ATOM     31  N   UNL     1      43.079  33.685  43.455  0.00  0.00    +0.000 NA
ENDBRANCH  23  24
ENDBRANCH   3  23
TORSDOF 3
