
 OpenBabel03252500293D

 27 29  0  0  1  0  0  0  0  0999 V2000
   47.0920   34.2670   40.3320 C   0  0  1  0  0  0  0  0  0  0  0  0
   48.3580   34.9650   40.2680 C   0  0  0  0  0  0  0  0  0  0  0  0
   48.3840   33.5040   40.0390 C   0  0  1  0  0  0  0  0  0  0  0  0
   46.3840   34.1230   39.4720 H   0  0  0  0  0  0  0  0  0  0  0  0
   48.4880   35.6730   39.4120 H   0  0  0  0  0  0  0  0  0  0  0  0
   48.7720   35.3410   41.2240 H   0  0  0  0  0  0  0  0  0  0  0  0
   48.6100   33.2340   38.9670 H   0  0  0  0  0  0  0  0  0  0  0  0
   46.6570   34.8290   42.7520 C   0  0  0  0  0  0  0  0  0  0  0  0
   46.4080   33.9980   41.6240 C   0  0  0  0  0  0  0  0  0  0  0  0
   45.5260   32.9410   41.7600 C   0  0  0  0  0  0  0  0  0  0  0  0
   44.9390   32.7520   42.9740 N   0  0  0  0  0  0  0  0  0  0  0  0
   45.1920   33.5630   44.0440 C   0  0  0  0  0  0  0  0  0  0  0  0
   46.0590   34.6150   43.9440 N   0  0  0  0  0  0  0  0  0  0  0  0
   47.3380   35.6660   42.6940 H   0  0  0  0  0  0  0  0  0  0  0  0
   45.3000   32.2780   40.9360 H   0  0  0  0  0  0  0  0  0  0  0  0
   44.6140   33.2210   44.8980 H   0  0  0  0  0  0  0  0  0  0  0  0
   48.9020   32.5600   41.0490 C   0  0  0  0  0  0  0  0  0  0  0  0
   48.2300   31.6810   41.2490 H   0  0  0  0  0  0  0  0  0  0  0  0
   49.1050   33.0110   42.0440 H   0  0  0  0  0  0  0  0  0  0  0  0
   50.1970   32.0070   40.5390 C   0  0  0  0  0  0  0  0  0  0  0  0
   50.4670   31.3890   39.3350 C   0  0  0  0  0  0  0  0  0  0  0  0
   49.6960   31.2400   38.5910 H   0  0  0  0  0  0  0  0  0  0  0  0
   51.7860   31.0490   39.3020 N   0  0  0  0  0  0  0  0  0  0  0  0
   52.2380   30.5670   38.4930 H   0  0  0  0  0  0  0  0  0  0  0  0
   52.3500   31.4470   40.4770 C   0  0  0  0  0  0  0  0  0  0  0  0
   53.3960   31.2940   40.7080 H   0  0  0  0  0  0  0  0  0  0  0  0
   51.3800   32.0220   41.2110 N   0  0  0  0  0  0  0  0  0  0  0  0
  1  4  1  6  0  0  0
  1  9  1  0  0  0  0
  2  1  1  0  0  0  0
  2  6  1  0  0  0  0
  3  7  1  6  0  0  0
  3  2  1  0  0  0  0
  3  1  1  0  0  0  0
  3 17  1  0  0  0  0
  5  2  1  0  0  0  0
  8 13  1  0  0  0  0
  9 10  1  0  0  0  0
  9  8  2  0  0  0  0
 10 11  2  0  0  0  0
 11 12  1  0  0  0  0
 12 16  1  0  0  0  0
 13 12  2  0  0  0  0
 14  8  1  0  0  0  0
 15 10  1  0  0  0  0
 17 18  1  0  0  0  0
 17 19  1  0  0  0  0
 20 17  1  0  0  0  0
 20 27  1  0  0  0  0
 21 20  2  0  0  0  0
 22 21  1  0  0  0  0
 23 21  1  0  0  0  0
 23 25  1  0  0  0  0
 24 23  1  0  0  0  0
 25 26  1  0  0  0  0
 25 27  2  0  0  0  0
M  END
>  <minimizedAffinity>
-3.48164558

>  <minimizedRMSD>
3.16764903

$$$$
