
     RDKit          3D

 35 37  0  0  0  0  0  0  0  0999 V2000
   45.1326   33.5101   41.1540 F   0  0  0  0  0  0  0  0  0  0  0  0
   46.3304   34.0918   41.0466 C   0  0  0  0  0  0  0  0  0  0  0  0
   46.8342   34.8028   42.1151 C   0  0  0  0  0  0  0  0  0  0  0  0
   48.0777   35.4402   42.0876 C   0  0  0  0  0  0  0  0  0  0  0  0
   48.8533   35.3590   40.9306 C   0  0  0  0  0  0  0  0  0  0  0  0
   48.3121   34.6363   39.8820 C   0  0  0  0  0  0  0  0  0  0  0  0
   47.1050   34.0128   39.8955 C   0  0  0  0  0  0  0  0  0  0  0  0
   45.4487   34.0138   45.4198 C   0  0  0  0  0  0  0  0  0  0  0  0
   44.6087   35.1301   45.6575 C   0  0  0  0  0  0  0  0  0  0  0  0
   44.5266   36.1471   44.6752 C   0  0  0  0  0  0  0  0  0  0  0  0
   45.2778   35.9766   43.5461 N   0  0  0  0  0  0  0  0  0  0  0  0
   46.0581   34.9124   43.3554 C   0  0  0  0  0  0  0  0  0  0  0  0
   46.1400   33.9442   44.2841 N   0  0  0  0  0  0  0  0  0  0  0  0
   45.5201   33.0058   46.4114 N   0  0  0  0  0  0  0  0  0  0  0  0
   46.6668   33.3254   38.7990 O   0  0  0  0  0  0  0  0  0  0  0  0
   48.0720   34.6613   36.9947 O   0  0  0  0  0  0  0  0  0  0  0  0
   47.3369   33.3716   37.2594 P   0  0  2  0  0  0  0  0  0  0  0  0
   46.0598   33.1776   36.1276 O   0  0  0  0  0  0  0  0  0  0  0  0
   48.3801   32.0831   36.9364 O   0  0  0  0  0  0  0  0  0  0  0  0
   48.4036   35.9792   42.9661 H   0  0  0  0  0  0  0  0  0  0  0  0
   49.8003   35.8636   40.9555 H   0  0  0  0  0  0  0  0  0  0  0  0
   49.0172   34.6475   39.0557 H   0  0  0  0  0  0  0  0  0  0  0  0
   44.0349   35.2301   46.5534 H   0  0  0  0  0  0  0  0  0  0  0  0
   43.8950   37.0124   44.8252 H   0  0  0  0  0  0  0  0  0  0  0  0
   45.4717   31.9543   46.2597 H   0  0  0  0  0  0  0  0  0  0  0  0
   45.6346   33.2996   47.4271 H   0  0  0  0  0  0  0  0  0  0  0  0
   45.8596   32.2020   36.0243 H   0  0  0  0  0  0  0  0  0  0  0  0
   49.0724   31.3684   37.9053 C   0  0  0  0  0  0  0  0  0  0  0  0
   50.1738   31.9391   38.5129 C   0  0  0  0  0  0  0  0  0  0  0  0
   50.6879   32.8911   38.4216 H   0  0  0  0  0  0  0  0  0  0  0  0
   50.6495   31.0309   39.4066 N   0  0  0  0  0  0  0  0  0  0  0  0
   51.4621   31.0234   40.0892 H   0  0  0  0  0  0  0  0  0  0  0  0
   49.8838   29.9290   39.3699 C   0  0  0  0  0  0  0  0  0  0  0  0
   49.8130   28.9593   39.8410 H   0  0  0  0  0  0  0  0  0  0  0  0
   48.9032   30.1256   38.4436 N   0  0  0  0  0  0  0  0  0  0  0  0
  2  1  1  0
  2  3  2  0
  3 12  1  0
  4  3  1  0
  5  4  2  0
  6  7  2  0
  6  5  1  0
  7  2  1  0
  8  9  2  0
  8 14  1  0
 10  9  1  0
 11 10  2  0
 12 11  1  0
 12 13  2  0
 13  8  1  0
 15  7  1  0
 16 17  2  0
 17 15  1  1
 18 17  1  0
 19 17  1  0
  4 20  1  0
  5 21  1  0
  6 22  1  0
  9 23  1  0
 10 24  1  0
 14 25  1  0
 14 26  1  0
 18 27  1  0
 28 29  2  0
 29 30  1  0
 29 31  1  0
 31 32  1  0
 31 33  1  0
 33 34  1  0
 33 35  2  0
 35 28  1  0
 19 28  1  0
M  ISO  8  20  14  21  14  22  14  23  14  24  14  27   3  30  15  32   5
M  ISO  1  34  14
M  END
>  <DihAtoms>  (1) 
16,18,27,28

>  <DihDeg>  (1) 
179.99970156501473

$$$$
