REMARK  Name = 
REMARK  4 active torsions:
REMARK  status: ('A' for Active; 'I' for Inactive)
REMARK    1  A    between atoms: N_1  and  C_9
REMARK    2  A    between atoms: C_6  and  N_16
REMARK    3  A    between atoms: C_7  and  C_11
REMARK    4  A    between atoms: N_16  and  C_34
REMARK                            x       y       z     vdW  Elec       q    Type
REMARK                         _______ _______ _______ _____ _____    ______ ____
ROOT
ATOM      1  N   UNL     1      49.346  33.220  41.490  0.00  0.00    +0.000 NA
ATOM      2  C   UNL     1      50.670  33.124  42.049  0.00  0.00    +0.000 C 
ATOM      3  C   UNL     1      51.331  31.805  41.759  0.00  0.00    +0.000 C 
ATOM      4  C   UNL     1      50.599  30.729  42.536  0.00  0.00    +0.000 C 
ATOM      5  C   UNL     1      49.117  30.994  42.538  0.00  0.00    +0.000 C 
ATOM      6  C   UNL     1      48.779  31.919  41.397  0.00  0.00    +0.000 C 
ATOM      7  H   UNL     1      51.290  33.957  41.688  0.00  0.00    +0.000 HD
ATOM      8  H   UNL     1      50.616  33.228  43.170  0.00  0.00    +0.000 HD
ATOM      9  H   UNL     1      51.451  31.589  40.701  0.00  0.00    +0.000 HD
ATOM     10  H   UNL     1      52.343  31.865  42.204  0.00  0.00    +0.000 HD
ATOM     11  H   UNL     1      50.853  29.759  42.055  0.00  0.00    +0.000 HD
ATOM     12  H   UNL     1      50.990  30.708  43.575  0.00  0.00    +0.000 HD
ATOM     13  H   UNL     1      48.511  30.092  42.416  0.00  0.00    +0.000 HD
ATOM     14  H   UNL     1      48.882  31.548  43.477  0.00  0.00    +0.000 HD
ATOM     15  H   UNL     1      47.663  32.061  41.433  0.00  0.00    +0.000 HD
ENDROOT
BRANCH   1  18
ATOM     16  C   UNL     1      47.194  34.541  42.024  0.00  0.00    +0.000 C 
ATOM     17  C   UNL     1      48.315  35.466  41.718  0.00  0.00    +0.000 C 
ATOM     18  C   UNL     1      48.593  34.125  42.295  0.00  0.00    +0.000 C 
ATOM     19  H   UNL     1      46.662  34.142  41.121  0.00  0.00    +0.000 HD
ATOM     20  H   UNL     1      48.588  35.641  40.642  0.00  0.00    +0.000 HD
ATOM     21  H   UNL     1      48.429  36.383  42.328  0.00  0.00    +0.000 HD
ATOM     22  H   UNL     1      48.873  34.113  43.379  0.00  0.00    +0.000 HD
BRANCH  16  24
ATOM     23  C   UNL     1      45.516  36.025  43.166  0.00  0.00    +0.000 A 
ATOM     24  C   UNL     1      46.291  34.861  43.135  0.00  0.00    +0.000 A 
ATOM     25  C   UNL     1      46.158  33.980  44.224  0.00  0.00    +0.000 A 
ATOM     26  N   UNL     1      45.304  34.289  45.234  0.00  0.00    +0.000 NA
ATOM     27  C   UNL     1      44.573  35.434  45.216  0.00  0.00    +0.000 A 
ATOM     28  N   UNL     1      44.672  36.309  44.183  0.00  0.00    +0.000 NA
ATOM     29  H   UNL     1      45.642  36.687  42.306  0.00  0.00    +0.000 HD
ATOM     30  H   UNL     1      46.740  33.064  44.250  0.00  0.00    +0.000 HD
ATOM     31  H   UNL     1      43.913  35.629  46.049  0.00  0.00    +0.000 HD
ENDBRANCH  16  24
ENDBRANCH   1  18
BRANCH   6  32
ATOM     32  N   UNL     1      49.024  31.237  40.138  0.00  0.00    +0.000 N 
ATOM     33  H   UNL     1      49.559  31.412  39.229  0.00  0.00    +0.000 HD
BRANCH  32  34
ATOM     34  C   UNL     1      48.328  29.970  40.188  0.00  0.00    +0.000 A 
ATOM     35  C   UNL     1      47.575  29.117  39.409  0.00  0.00    +0.000 A 
ATOM     36  H   UNL     1      47.415  29.464  38.419  0.00  0.00    +0.000 HD
ATOM     37  N   UNL     1      47.238  28.044  40.140  0.00  0.00    +0.000 N 
ATOM     38  H   UNL     1      46.661  27.281  39.712  0.00  0.00    +0.000 HD
ATOM     39  C   UNL     1      47.749  28.167  41.377  0.00  0.00    +0.000 A 
ATOM     40  H   UNL     1      47.585  27.397  42.115  0.00  0.00    +0.000 HD
ATOM     41  N   UNL     1      48.420  29.355  41.404  0.00  0.00    +0.000 NA
ENDBRANCH  32  34
ENDBRANCH   6  32
TORSDOF 4
