
 OpenBabel03242511413D

 33 35  0  0  0  0  0  0  0  0999 V2000
   46.3150   32.0550   47.2920 C   0  0  0  0  0  0  0  0  0  0  0  0
   45.1980   32.3050   48.1010 C   0  0  0  0  0  0  0  0  0  0  0  0
   44.6450   31.3940   48.9570 C   0  0  0  0  0  0  0  0  0  0  0  0
   45.2110   30.1590   49.0280 C   0  0  0  0  0  0  0  0  0  0  0  0
   46.3020   29.9260   48.2360 C   0  0  0  0  0  0  0  0  0  0  0  0
   46.9070   30.8400   47.3460 C   0  0  0  0  0  0  0  0  0  0  0  0
   44.8580   33.3340   47.9310 H   0  0  0  0  0  0  0  0  0  0  0  0
   43.8070   31.8230   49.4610 H   0  0  0  0  0  0  0  0  0  0  0  0
   44.7020   29.5100   49.7260 H   0  0  0  0  0  0  0  0  0  0  0  0
   46.5970   28.8790   48.4470 H   0  0  0  0  0  0  0  0  0  0  0  0
   48.0740   30.1190   46.8290 C   0  0  0  0  0  0  0  0  0  0  0  0
   49.1220   29.5570   47.5310 C   0  0  0  0  0  0  0  0  0  0  0  0
   49.2330   29.6270   48.6300 H   0  0  0  0  0  0  0  0  0  0  0  0
   49.9860   28.9200   46.7440 N   0  0  0  0  0  0  0  0  0  0  0  0
   50.8310   28.4380   47.1040 H   0  0  0  0  0  0  0  0  0  0  0  0
   49.5360   29.0450   45.5100 C   0  0  0  0  0  0  0  0  0  0  0  0
   49.9700   28.6600   44.5980 H   0  0  0  0  0  0  0  0  0  0  0  0
   48.4280   29.7440   45.5970 N   0  0  0  0  0  0  0  0  0  0  0  0
   46.9140   32.9470   46.2960 C   0  0  0  0  0  0  0  0  0  0  0  0
   46.8040   33.9630   46.6760 H   0  0  0  0  0  0  0  0  0  0  0  0
   48.0000   32.7170   46.2440 H   0  0  0  0  0  0  0  0  0  0  0  0
   46.3450   32.7320   44.9300 C   0  0  0  0  0  0  0  0  0  0  0  0
   45.4270   32.1400   45.0040 H   0  0  0  0  0  0  0  0  0  0  0  0
   47.1050   32.4370   44.1870 H   0  0  0  0  0  0  0  0  0  0  0  0
   44.5050   35.9380   44.7390 C   0  0  0  0  0  0  0  0  0  0  0  0
   44.8990   36.4140   43.4690 C   0  0  0  0  0  0  0  0  0  0  0  0
   45.7700   35.6340   42.7380 C   0  0  0  0  0  0  0  0  0  0  0  0
   46.1960   34.4820   43.2560 N   0  0  0  0  0  0  0  0  0  0  0  0
   45.7870   34.0650   44.4860 C   0  0  0  0  0  0  0  0  0  0  0  0
   44.9620   34.7710   45.2180 N   0  0  0  0  0  0  0  0  0  0  0  0
   43.8230   36.6080   45.2440 H   0  0  0  0  0  0  0  0  0  0  0  0
   44.5390   37.3530   43.0730 H   0  0  0  0  0  0  0  0  0  0  0  0
   46.0660   36.0070   41.7660 H   0  0  0  0  0  0  0  0  0  0  0  0
  1  6  2  0  0  0  0
  1  2  1  0  0  0  0
  2  3  2  0  0  0  0
  3  4  1  0  0  0  0
  3  8  1  0  0  0  0
  4  9  1  0  0  0  0
  5 10  1  0  0  0  0
  5  4  2  0  0  0  0
  6  5  1  0  0  0  0
  7  2  1  0  0  0  0
 11  6  1  0  0  0  0
 11 12  2  0  0  0  0
 12 13  1  0  0  0  0
 14 15  1  0  0  0  0
 14 12  1  0  0  0  0
 16 18  2  0  0  0  0
 16 14  1  0  0  0  0
 17 16  1  0  0  0  0
 18 11  1  0  0  0  0
 19 20  1  0  0  0  0
 19  1  1  0  0  0  0
 21 19  1  0  0  0  0
 22 23  1  0  0  0  0
 22 19  1  0  0  0  0
 24 22  1  0  0  0  0
 25 30  1  0  0  0  0
 25 31  1  0  0  0  0
 26 25  2  0  0  0  0
 27 28  2  0  0  0  0
 27 26  1  0  0  0  0
 28 29  1  0  0  0  0
 29 22  1  0  0  0  0
 29 30  2  0  0  0  0
 32 26  1  0  0  0  0
 33 27  1  0  0  0  0
M  END
>  <minimizedAffinity>
-4.74658489

>  <minimizedRMSD>
1.78406847

$$$$
