
 OpenBabel03252506463D

 41 44  0  0  1  0  0  0  0  0999 V2000
   49.5690   33.5010   41.3940 N   0  0  1  0  0  0  0  0  0  0  0  0
   50.6740   33.0040   42.1730 C   0  0  0  0  0  0  0  0  0  0  0  0
   51.1970   31.6880   41.6680 C   0  0  0  0  0  0  0  0  0  0  0  0
   50.1460   30.6290   41.9310 C   0  0  0  0  0  0  0  0  0  0  0  0
   48.7660   31.1830   41.6910 C   0  0  0  0  0  0  0  0  0  0  0  0
   48.8700   32.4050   40.8160 C   0  0  2  0  0  0  0  0  0  0  0  0
   51.4760   33.7550   42.2050 H   0  0  0  0  0  0  0  0  0  0  0  0
   50.3440   32.8420   43.2380 H   0  0  0  0  0  0  0  0  0  0  0  0
   51.5580   31.7140   40.6440 H   0  0  0  0  0  0  0  0  0  0  0  0
   52.0560   31.4300   42.3170 H   0  0  0  0  0  0  0  0  0  0  0  0
   50.3790   29.7730   41.2600 H   0  0  0  0  0  0  0  0  0  0  0  0
   50.2450   30.2780   42.9800 H   0  0  0  0  0  0  0  0  0  0  0  0
   48.0940   30.4800   41.1910 H   0  0  0  0  0  0  0  0  0  0  0  0
   48.3740   31.5290   42.6760 H   0  0  0  0  0  0  0  0  0  0  0  0
   47.8140   32.7590   40.6510 H   0  0  0  0  0  0  0  0  0  0  0  0
   47.3560   34.6970   41.9710 C   0  0  1  0  0  0  0  0  0  0  0  0
   48.4440   35.6840   41.7530 C   0  0  0  0  0  0  0  0  0  0  0  0
   48.7650   34.3180   42.2430 C   0  0  2  0  0  0  0  0  0  0  0  0
   46.8570   34.3410   41.0320 H   0  0  0  0  0  0  0  0  0  0  0  0
   48.7300   35.9430   40.6970 H   0  0  0  0  0  0  0  0  0  0  0  0
   48.5100   36.5610   42.4260 H   0  0  0  0  0  0  0  0  0  0  0  0
   49.0250   34.2430   43.3290 H   0  0  0  0  0  0  0  0  0  0  0  0
   45.5290   35.9820   43.1270 C   0  0  0  0  0  0  0  0  0  0  0  0
   46.4200   34.9050   43.0820 C   0  0  0  0  0  0  0  0  0  0  0  0
   46.3750   33.9980   44.1570 C   0  0  0  0  0  0  0  0  0  0  0  0
   45.4900   34.2010   45.1670 N   0  0  0  0  0  0  0  0  0  0  0  0
   44.6440   35.2640   45.1620 C   0  0  0  0  0  0  0  0  0  0  0  0
   44.6560   36.1610   44.1430 N   0  0  0  0  0  0  0  0  0  0  0  0
   45.5890   36.6660   42.2770 H   0  0  0  0  0  0  0  0  0  0  0  0
   47.0490   33.1470   44.1720 H   0  0  0  0  0  0  0  0  0  0  0  0
   43.9640   35.3770   45.9950 H   0  0  0  0  0  0  0  0  0  0  0  0
   49.3380   32.0130   39.4980 N   0  0  0  0  0  0  0  0  0  0  0  0
   50.0060   31.2950   39.0720 H   0  0  0  0  0  0  0  0  0  0  0  0
   48.6760   32.8620   38.5320 C   0  0  0  0  0  0  0  0  0  0  0  0
   47.6750   33.8020   38.4230 C   0  0  0  0  0  0  0  0  0  0  0  0
   47.1770   34.0110   39.3370 H   0  0  0  0  0  0  0  0  0  0  0  0
   47.5990   34.2120   37.1470 N   0  0  0  0  0  0  0  0  0  0  0  0
   46.8880   34.9320   36.8710 H   0  0  0  0  0  0  0  0  0  0  0  0
   48.5220   33.5680   36.4150 C   0  0  0  0  0  0  0  0  0  0  0  0
   48.6170   33.7650   35.3580 H   0  0  0  0  0  0  0  0  0  0  0  0
   49.1860   32.7360   37.2700 N   0  0  0  0  0  0  0  0  0  0  0  0
  1  2  1  1  0  0  0
  1 18  1  0  0  0  0
  2  7  1  0  0  0  0
  2  8  1  0  0  0  0
  3  4  1  0  0  0  0
  3  2  1  0  0  0  0
  3 10  1  0  0  0  0
  4 12  1  0  0  0  0
  5  4  1  0  0  0  0
  5 14  1  0  0  0  0
  6 15  1  6  0  0  0
  6  1  1  0  0  0  0
  6  5  1  0  0  0  0
  9  3  1  0  0  0  0
 11  4  1  0  0  0  0
 13  5  1  0  0  0  0
 16 19  1  6  0  0  0
 16 18  1  0  0  0  0
 16 24  1  0  0  0  0
 17 16  1  0  0  0  0
 17 18  1  0  0  0  0
 17 21  1  0  0  0  0
 18 22  1  1  0  0  0
 20 17  1  0  0  0  0
 23 28  1  0  0  0  0
 24 23  2  0  0  0  0
 24 25  1  0  0  0  0
 25 30  1  0  0  0  0
 25 26  2  0  0  0  0
 27 26  1  0  0  0  0
 27 31  1  0  0  0  0
 28 27  2  0  0  0  0
 29 23  1  0  0  0  0
 32  6  1  0  0  0  0
 33 32  1  0  0  0  0
 34 32  1  0  0  0  0
 35 34  2  0  0  0  0
 35 36  1  0  0  0  0
 37 35  1  0  0  0  0
 38 37  1  0  0  0  0
 39 37  1  0  0  0  0
 39 41  2  0  0  0  0
 40 39  1  0  0  0  0
 41 34  1  0  0  0  0
M  END
>  <minimizedAffinity>
-5.4839282

>  <minimizedRMSD>
2.62266374

$$$$
