
 OpenBabel03242516523D

 44 47  0  0  1  0  0  0  0  0999 V2000
   47.8640   32.9110   41.8570 C   0  0  1  0  0  0  0  0  0  0  0  0
   47.5710   32.2890   40.5650 C   0  0  0  0  0  0  0  0  0  0  0  0
   48.6050   32.8390   39.5850 C   0  0  0  0  0  0  0  0  0  0  0  0
   48.2620   34.2870   39.3580 C   0  0  0  0  0  0  0  0  0  0  0  0
   48.1630   35.0960   40.6200 C   0  0  0  0  0  0  0  0  0  0  0  0
   47.6530   34.4280   41.8310 C   0  0  1  0  0  0  0  0  0  0  0  0
   48.9780   32.8310   42.0470 H   0  0  0  0  0  0  0  0  0  0  0  0
   47.7030   31.1960   40.6490 H   0  0  0  0  0  0  0  0  0  0  0  0
   46.5740   32.5330   40.1760 H   0  0  0  0  0  0  0  0  0  0  0  0
   49.6290   32.6610   39.9250 H   0  0  0  0  0  0  0  0  0  0  0  0
   48.3820   32.3240   38.6080 H   0  0  0  0  0  0  0  0  0  0  0  0
   49.0390   34.7190   38.6980 H   0  0  0  0  0  0  0  0  0  0  0  0
   47.3060   34.3360   38.8060 H   0  0  0  0  0  0  0  0  0  0  0  0
   47.4850   35.9480   40.3790 H   0  0  0  0  0  0  0  0  0  0  0  0
   49.1600   35.5640   40.7910 H   0  0  0  0  0  0  0  0  0  0  0  0
   48.2350   34.8100   42.7130 H   0  0  0  0  0  0  0  0  0  0  0  0
   45.4290   30.9190   43.9430 C   0  0  0  0  0  0  0  0  0  0  0  0
   46.1190   31.4880   42.8700 C   0  0  0  0  0  0  0  0  0  0  0  0
   47.2010   32.3550   43.0190 C   0  0  0  0  0  0  0  0  0  0  0  0
   47.5540   32.6230   44.2760 N   0  0  0  0  0  0  0  0  0  0  0  0
   46.8920   32.0780   45.3310 C   0  0  0  0  0  0  0  0  0  0  0  0
   45.8550   31.2470   45.1800 N   0  0  0  0  0  0  0  0  0  0  0  0
   44.6050   30.2600   43.7450 H   0  0  0  0  0  0  0  0  0  0  0  0
   45.7680   31.2180   41.8690 H   0  0  0  0  0  0  0  0  0  0  0  0
   47.2770   32.3750   46.3130 H   0  0  0  0  0  0  0  0  0  0  0  0
   46.2640   34.7870   42.1190 C   0  0  0  0  0  0  0  0  0  0  0  0
   45.7970   35.3640   43.3060 C   0  0  0  0  0  0  0  0  0  0  0  0
   44.4320   35.6360   43.3550 C   0  0  0  0  0  0  0  0  0  0  0  0
   43.6600   35.3170   42.2410 C   0  0  0  0  0  0  0  0  0  0  0  0
   44.1460   34.7460   41.0760 C   0  0  0  0  0  0  0  0  0  0  0  0
   45.4830   34.4880   41.0510 N   0  0  0  0  0  0  0  0  0  0  0  0
   46.5010   35.5470   44.0620 H   0  0  0  0  0  0  0  0  0  0  0  0
   44.0400   36.0750   44.2430 H   0  0  0  0  0  0  0  0  0  0  0  0
   42.6070   35.5420   42.3160 H   0  0  0  0  0  0  0  0  0  0  0  0
   43.2510   34.4530   39.9620 C   0  0  0  0  0  0  0  0  0  0  0  0
   42.3860   35.3340   39.6680 O   0  0  0  0  0  0  0  0  0  0  0  0
   43.2560   33.2400   39.1480 C   0  0  0  0  0  0  0  0  0  0  0  0
   44.1210   33.0620   38.0900 C   0  0  0  0  0  0  0  0  0  0  0  0
   44.8890   33.6650   37.6610 H   0  0  0  0  0  0  0  0  0  0  0  0
   43.8590   31.8420   37.5570 N   0  0  0  0  0  0  0  0  0  0  0  0
   44.3130   31.3560   36.7390 H   0  0  0  0  0  0  0  0  0  0  0  0
   42.8770   31.2520   38.2260 C   0  0  0  0  0  0  0  0  0  0  0  0
   42.3520   30.3140   38.1670 H   0  0  0  0  0  0  0  0  0  0  0  0
   42.5230   32.1180   39.1910 N   0  0  0  0  0  0  0  0  0  0  0  0
  1  7  1  1  0  0  0
  1 19  1  0  0  0  0
  2  8  1  0  0  0  0
  2  1  1  0  0  0  0
  3 10  1  0  0  0  0
  3  2  1  0  0  0  0
  4  3  1  0  0  0  0
  4  5  1  0  0  0  0
  5 15  1  0  0  0  0
  5  6  1  0  0  0  0
  6  1  1  0  0  0  0
  6 26  1  0  0  0  0
  6 16  1  1  0  0  0
  9  2  1  0  0  0  0
 11  3  1  0  0  0  0
 12  4  1  0  0  0  0
 13  4  1  0  0  0  0
 14  5  1  0  0  0  0
 17 22  1  0  0  0  0
 18 19  1  0  0  0  0
 18 17  2  0  0  0  0
 19 20  2  0  0  0  0
 20 21  1  0  0  0  0
 21 25  1  0  0  0  0
 22 21  2  0  0  0  0
 23 17  1  0  0  0  0
 24 18  1  0  0  0  0
 26 27  1  0  0  0  0
 27 28  2  0  0  0  0
 27 32  1  0  0  0  0
 28 33  1  0  0  0  0
 29 34  1  0  0  0  0
 29 28  1  0  0  0  0
 30 29  2  0  0  0  0
 31 30  1  0  0  0  0
 31 26  2  0  0  0  0
 35 30  1  0  0  0  0
 36 35  2  0  0  0  0
 37 44  1  0  0  0  0
 37 35  1  0  0  0  0
 38 37  2  0  0  0  0
 39 38  1  0  0  0  0
 40 38  1  0  0  0  0
 40 42  1  0  0  0  0
 41 40  1  0  0  0  0
 42 44  2  0  0  0  0
 43 42  1  0  0  0  0
M  END
>  <minimizedAffinity>
-5.17868233

>  <minimizedRMSD>
0.273133337

$$$$
