
 OpenBabel03242516523D

 44 47  0  0  1  0  0  0  0  0999 V2000
   47.8380   32.8950   41.8340 C   0  0  1  0  0  0  0  0  0  0  0  0
   47.5500   32.2960   40.5310 C   0  0  0  0  0  0  0  0  0  0  0  0
   48.5950   32.8530   39.5670 C   0  0  0  0  0  0  0  0  0  0  0  0
   48.2640   34.3080   39.3600 C   0  0  0  0  0  0  0  0  0  0  0  0
   48.1620   35.0970   40.6350 C   0  0  0  0  0  0  0  0  0  0  0  0
   47.6380   34.4140   41.8310 C   0  0  1  0  0  0  0  0  0  0  0  0
   48.9500   32.8040   42.0310 H   0  0  0  0  0  0  0  0  0  0  0  0
   47.6740   31.2000   40.5990 H   0  0  0  0  0  0  0  0  0  0  0  0
   46.5570   32.5530   40.1390 H   0  0  0  0  0  0  0  0  0  0  0  0
   49.6150   32.6620   39.9110 H   0  0  0  0  0  0  0  0  0  0  0  0
   48.3750   32.3560   38.5810 H   0  0  0  0  0  0  0  0  0  0  0  0
   49.0490   34.7440   38.7130 H   0  0  0  0  0  0  0  0  0  0  0  0
   47.3120   34.3720   38.8030 H   0  0  0  0  0  0  0  0  0  0  0  0
   47.4920   35.9580   40.4020 H   0  0  0  0  0  0  0  0  0  0  0  0
   49.1610   35.5550   40.8200 H   0  0  0  0  0  0  0  0  0  0  0  0
   48.2170   34.7780   42.7230 H   0  0  0  0  0  0  0  0  0  0  0  0
   45.3730   30.8900   43.8720 C   0  0  0  0  0  0  0  0  0  0  0  0
   46.0750   31.4700   42.8130 C   0  0  0  0  0  0  0  0  0  0  0  0
   47.1630   32.3250   42.9830 C   0  0  0  0  0  0  0  0  0  0  0  0
   47.5100   32.5710   44.2460 N   0  0  0  0  0  0  0  0  0  0  0  0
   46.8370   32.0140   45.2880 C   0  0  0  0  0  0  0  0  0  0  0  0
   45.7940   31.1940   45.1170 N   0  0  0  0  0  0  0  0  0  0  0  0
   44.5460   30.2410   43.6580 H   0  0  0  0  0  0  0  0  0  0  0  0
   45.7290   31.2190   41.8060 H   0  0  0  0  0  0  0  0  0  0  0  0
   47.2180   32.2920   46.2770 H   0  0  0  0  0  0  0  0  0  0  0  0
   46.2500   34.7780   42.1150 C   0  0  0  0  0  0  0  0  0  0  0  0
   45.7790   35.3390   43.3080 C   0  0  0  0  0  0  0  0  0  0  0  0
   44.4160   35.6210   43.3520 C   0  0  0  0  0  0  0  0  0  0  0  0
   43.6500   35.3260   42.2270 C   0  0  0  0  0  0  0  0  0  0  0  0
   44.1400   34.7700   41.0570 C   0  0  0  0  0  0  0  0  0  0  0  0
   45.4750   34.5030   41.0370 N   0  0  0  0  0  0  0  0  0  0  0  0
   46.4790   35.5050   44.0720 H   0  0  0  0  0  0  0  0  0  0  0  0
   44.0210   36.0480   44.2440 H   0  0  0  0  0  0  0  0  0  0  0  0
   42.5970   35.5580   42.2980 H   0  0  0  0  0  0  0  0  0  0  0  0
   43.2510   34.5030   39.9320 C   0  0  0  0  0  0  0  0  0  0  0  0
   42.2700   35.2910   39.7690 O   0  0  0  0  0  0  0  0  0  0  0  0
   43.3820   33.4110   38.9710 C   0  0  0  0  0  0  0  0  0  0  0  0
   42.3850   32.4810   38.7660 C   0  0  0  0  0  0  0  0  0  0  0  0
   41.4160   32.3400   39.1880 H   0  0  0  0  0  0  0  0  0  0  0  0
   42.8290   31.6180   37.8190 N   0  0  0  0  0  0  0  0  0  0  0  0
   42.3490   30.7760   37.4010 H   0  0  0  0  0  0  0  0  0  0  0  0
   44.0480   31.9590   37.4220 C   0  0  0  0  0  0  0  0  0  0  0  0
   44.7700   31.5820   36.7170 H   0  0  0  0  0  0  0  0  0  0  0  0
   44.3680   33.0530   38.1340 N   0  0  0  0  0  0  0  0  0  0  0  0
  1  7  1  1  0  0  0
  1 19  1  0  0  0  0
  2  8  1  0  0  0  0
  2  1  1  0  0  0  0
  3 10  1  0  0  0  0
  3  2  1  0  0  0  0
  4  3  1  0  0  0  0
  4  5  1  0  0  0  0
  5 15  1  0  0  0  0
  5  6  1  0  0  0  0
  6  1  1  0  0  0  0
  6 26  1  0  0  0  0
  6 16  1  1  0  0  0
  9  2  1  0  0  0  0
 11  3  1  0  0  0  0
 12  4  1  0  0  0  0
 13  4  1  0  0  0  0
 14  5  1  0  0  0  0
 17 22  1  0  0  0  0
 18 19  1  0  0  0  0
 18 17  2  0  0  0  0
 19 20  2  0  0  0  0
 20 21  1  0  0  0  0
 21 25  1  0  0  0  0
 22 21  2  0  0  0  0
 23 17  1  0  0  0  0
 24 18  1  0  0  0  0
 26 27  1  0  0  0  0
 27 28  2  0  0  0  0
 27 32  1  0  0  0  0
 28 33  1  0  0  0  0
 29 34  1  0  0  0  0
 29 28  1  0  0  0  0
 30 29  2  0  0  0  0
 31 30  1  0  0  0  0
 31 26  2  0  0  0  0
 35 30  1  0  0  0  0
 36 35  2  0  0  0  0
 37 35  1  0  0  0  0
 38 37  2  0  0  0  0
 38 39  1  0  0  0  0
 40 38  1  0  0  0  0
 41 40  1  0  0  0  0
 42 40  1  0  0  0  0
 42 44  2  0  0  0  0
 43 42  1  0  0  0  0
 44 37  1  0  0  0  0
M  END
>  <minimizedAffinity>
-5.23610926

>  <minimizedRMSD>
0.559381008

$$$$
