
 OpenBabel03242516523D

 44 47  0  0  1  0  0  0  0  0999 V2000
   47.8630   32.9090   41.8550 C   0  0  1  0  0  0  0  0  0  0  0  0
   47.5690   32.2870   40.5630 C   0  0  0  0  0  0  0  0  0  0  0  0
   48.6040   32.8360   39.5830 C   0  0  0  0  0  0  0  0  0  0  0  0
   48.2600   34.2850   39.3550 C   0  0  0  0  0  0  0  0  0  0  0  0
   48.1630   35.0940   40.6180 C   0  0  0  0  0  0  0  0  0  0  0  0
   47.6530   34.4270   41.8280 C   0  0  1  0  0  0  0  0  0  0  0  0
   48.9780   32.8290   42.0440 H   0  0  0  0  0  0  0  0  0  0  0  0
   47.7010   31.1940   40.6480 H   0  0  0  0  0  0  0  0  0  0  0  0
   46.5720   32.5320   40.1750 H   0  0  0  0  0  0  0  0  0  0  0  0
   49.6270   32.6570   39.9220 H   0  0  0  0  0  0  0  0  0  0  0  0
   48.3790   32.3210   38.6060 H   0  0  0  0  0  0  0  0  0  0  0  0
   49.0380   34.7160   38.6950 H   0  0  0  0  0  0  0  0  0  0  0  0
   47.3040   34.3330   38.8040 H   0  0  0  0  0  0  0  0  0  0  0  0
   47.4850   35.9460   40.3770 H   0  0  0  0  0  0  0  0  0  0  0  0
   49.1600   35.5610   40.7880 H   0  0  0  0  0  0  0  0  0  0  0  0
   48.2350   34.8090   42.7100 H   0  0  0  0  0  0  0  0  0  0  0  0
   45.4270   30.9210   43.9430 C   0  0  0  0  0  0  0  0  0  0  0  0
   46.1170   31.4880   42.8690 C   0  0  0  0  0  0  0  0  0  0  0  0
   47.2010   32.3530   43.0170 C   0  0  0  0  0  0  0  0  0  0  0  0
   47.5550   32.6210   44.2740 N   0  0  0  0  0  0  0  0  0  0  0  0
   46.8940   32.0770   45.3290 C   0  0  0  0  0  0  0  0  0  0  0  0
   45.8550   31.2470   45.1800 N   0  0  0  0  0  0  0  0  0  0  0  0
   44.6030   30.2630   43.7460 H   0  0  0  0  0  0  0  0  0  0  0  0
   45.7650   31.2200   41.8690 H   0  0  0  0  0  0  0  0  0  0  0  0
   47.2810   32.3730   46.3110 H   0  0  0  0  0  0  0  0  0  0  0  0
   46.2640   34.7860   42.1170 C   0  0  0  0  0  0  0  0  0  0  0  0
   45.7990   35.3640   43.3040 C   0  0  0  0  0  0  0  0  0  0  0  0
   44.4340   35.6370   43.3540 C   0  0  0  0  0  0  0  0  0  0  0  0
   43.6610   35.3180   42.2400 C   0  0  0  0  0  0  0  0  0  0  0  0
   44.1460   34.7450   41.0760 C   0  0  0  0  0  0  0  0  0  0  0  0
   45.4830   34.4870   41.0500 N   0  0  0  0  0  0  0  0  0  0  0  0
   46.5030   35.5470   44.0590 H   0  0  0  0  0  0  0  0  0  0  0  0
   44.0430   36.0760   44.2410 H   0  0  0  0  0  0  0  0  0  0  0  0
   42.6080   35.5430   42.3160 H   0  0  0  0  0  0  0  0  0  0  0  0
   43.2510   34.4530   39.9620 C   0  0  0  0  0  0  0  0  0  0  0  0
   42.3840   35.3330   39.6700 O   0  0  0  0  0  0  0  0  0  0  0  0
   43.2560   33.2410   39.1480 C   0  0  0  0  0  0  0  0  0  0  0  0
   44.1230   33.0630   38.0910 C   0  0  0  0  0  0  0  0  0  0  0  0
   44.8930   33.6650   37.6640 H   0  0  0  0  0  0  0  0  0  0  0  0
   43.8610   31.8440   37.5560 N   0  0  0  0  0  0  0  0  0  0  0  0
   44.3170   31.3570   36.7380 H   0  0  0  0  0  0  0  0  0  0  0  0
   42.8770   31.2530   38.2220 C   0  0  0  0  0  0  0  0  0  0  0  0
   42.3500   30.3160   38.1630 H   0  0  0  0  0  0  0  0  0  0  0  0
   42.5210   32.1200   39.1870 N   0  0  0  0  0  0  0  0  0  0  0  0
  1  7  1  1  0  0  0
  1 19  1  0  0  0  0
  2  8  1  0  0  0  0
  2  1  1  0  0  0  0
  3 10  1  0  0  0  0
  3  2  1  0  0  0  0
  4  3  1  0  0  0  0
  4  5  1  0  0  0  0
  5 15  1  0  0  0  0
  5  6  1  0  0  0  0
  6  1  1  0  0  0  0
  6 26  1  0  0  0  0
  6 16  1  1  0  0  0
  9  2  1  0  0  0  0
 11  3  1  0  0  0  0
 12  4  1  0  0  0  0
 13  4  1  0  0  0  0
 14  5  1  0  0  0  0
 17 22  1  0  0  0  0
 18 19  1  0  0  0  0
 18 17  2  0  0  0  0
 19 20  2  0  0  0  0
 20 21  1  0  0  0  0
 21 25  1  0  0  0  0
 22 21  2  0  0  0  0
 23 17  1  0  0  0  0
 24 18  1  0  0  0  0
 26 27  1  0  0  0  0
 27 28  2  0  0  0  0
 27 32  1  0  0  0  0
 28 33  1  0  0  0  0
 29 34  1  0  0  0  0
 29 28  1  0  0  0  0
 30 29  2  0  0  0  0
 31 30  1  0  0  0  0
 31 26  2  0  0  0  0
 35 30  1  0  0  0  0
 36 35  2  0  0  0  0
 37 44  1  0  0  0  0
 37 35  1  0  0  0  0
 38 37  2  0  0  0  0
 39 38  1  0  0  0  0
 40 38  1  0  0  0  0
 40 42  1  0  0  0  0
 41 40  1  0  0  0  0
 42 44  2  0  0  0  0
 43 42  1  0  0  0  0
M  END
>  <minimizedAffinity>
-5.17961073

>  <minimizedRMSD>
0.302417159

$$$$
