
 OpenBabel03252509193D

 42 45  0  0  1  0  0  0  0  0999 V2000
   48.4590   29.0220   48.0160 C   0  0  1  0  0  0  0  0  0  0  0  0
   48.3510   28.0700   46.8770 C   0  0  0  0  0  0  0  0  0  0  0  0
   49.6140   27.2920   46.6070 C   0  0  0  0  0  0  0  0  0  0  0  0
   50.2710   26.7650   47.8450 C   0  0  0  0  0  0  0  0  0  0  0  0
   50.2900   27.7670   48.9730 C   0  0  0  0  0  0  0  0  0  0  0  0
   49.9290   29.1600   48.4270 C   0  0  2  0  0  0  0  0  0  0  0  0
   47.9750   28.5530   48.9030 H   0  0  0  0  0  0  0  0  0  0  0  0
   47.5400   27.3350   47.0570 H   0  0  0  0  0  0  0  0  0  0  0  0
   48.0770   28.6000   45.9380 H   0  0  0  0  0  0  0  0  0  0  0  0
   49.3060   26.4110   46.0110 H   0  0  0  0  0  0  0  0  0  0  0  0
   50.3020   27.9660   46.0310 H   0  0  0  0  0  0  0  0  0  0  0  0
   51.2590   26.3760   47.5860 H   0  0  0  0  0  0  0  0  0  0  0  0
   49.6670   25.8920   48.2090 H   0  0  0  0  0  0  0  0  0  0  0  0
   49.5910   27.5370   49.7910 H   0  0  0  0  0  0  0  0  0  0  0  0
   51.3390   27.8100   49.3470 H   0  0  0  0  0  0  0  0  0  0  0  0
   50.5520   29.3700   47.5200 H   0  0  0  0  0  0  0  0  0  0  0  0
   46.6740   32.3990   46.5600 C   0  0  0  0  0  0  0  0  0  0  0  0
   46.8040   32.4190   47.9450 C   0  0  0  0  0  0  0  0  0  0  0  0
   47.3700   31.3720   48.5420 C   0  0  0  0  0  0  0  0  0  0  0  0
   47.8270   30.2690   47.7740 C   0  0  0  0  0  0  0  0  0  0  0  0
   47.4070   30.7750   46.0740 S   0  0  0  0  0  0  0  0  0  0  0  0
   46.4560   33.2640   48.5250 H   0  0  0  0  0  0  0  0  0  0  0  0
   47.5530   31.2100   49.5910 H   0  0  0  0  0  0  0  0  0  0  0  0
   44.6710   35.2570   45.2580 C   0  0  0  0  0  0  0  0  0  0  0  0
   45.2080   35.3770   43.9780 C   0  0  0  0  0  0  0  0  0  0  0  0
   46.2250   34.4850   43.6110 C   0  0  0  0  0  0  0  0  0  0  0  0
   46.6300   33.5510   44.5210 N   0  0  0  0  0  0  0  0  0  0  0  0
   46.0830   33.4730   45.7430 C   0  0  0  0  0  0  0  0  0  0  0  0
   45.1040   34.3290   46.1030 N   0  0  0  0  0  0  0  0  0  0  0  0
   43.8890   35.9320   45.5650 H   0  0  0  0  0  0  0  0  0  0  0  0
   44.8800   36.1190   43.2720 H   0  0  0  0  0  0  0  0  0  0  0  0
   46.6730   34.5290   42.6480 H   0  0  0  0  0  0  0  0  0  0  0  0
   50.1010   30.1660   49.4680 C   0  0  0  0  0  0  0  0  0  0  0  0
   49.5100   30.0790   50.5730 O   0  0  0  0  0  0  0  0  0  0  0  0
   50.8250   31.3950   49.6840 C   0  0  0  0  0  0  0  0  0  0  0  0
   52.0860   31.6070   49.1860 C   0  0  0  0  0  0  0  0  0  0  0  0
   52.8620   31.0990   48.6210 H   0  0  0  0  0  0  0  0  0  0  0  0
   52.4860   32.8750   49.5180 N   0  0  0  0  0  0  0  0  0  0  0  0
   53.3550   33.4130   49.3350 H   0  0  0  0  0  0  0  0  0  0  0  0
   51.5210   33.4730   50.2090 C   0  0  0  0  0  0  0  0  0  0  0  0
   51.3650   34.4410   50.6750 H   0  0  0  0  0  0  0  0  0  0  0  0
   50.5850   32.5560   50.2670 N   0  0  0  0  0  0  0  0  0  0  0  0
  1  6  1  0  0  0  0
  1  7  1  1  0  0  0
  2  8  1  0  0  0  0
  2  1  1  0  0  0  0
  3  2  1  0  0  0  0
  3  4  1  0  0  0  0
  4 13  1  0  0  0  0
  4  5  1  0  0  0  0
  5 15  1  0  0  0  0
  5 14  1  0  0  0  0
  6 16  1  6  0  0  0
  6  5  1  0  0  0  0
  6 33  1  0  0  0  0
  9  2  1  0  0  0  0
 10  3  1  0  0  0  0
 11  3  1  0  0  0  0
 12  4  1  0  0  0  0
 17 18  2  0  0  0  0
 18 22  1  0  0  0  0
 18 19  1  0  0  0  0
 19 23  1  0  0  0  0
 20  1  1  0  0  0  0
 20 19  2  0  0  0  0
 21 17  1  0  0  0  0
 21 20  1  0  0  0  0
 24 30  1  0  0  0  0
 24 29  1  0  0  0  0
 25 24  2  0  0  0  0
 26 25  1  0  0  0  0
 26 27  2  0  0  0  0
 27 28  1  0  0  0  0
 28 29  2  0  0  0  0
 28 17  1  0  0  0  0
 31 25  1  0  0  0  0
 32 26  1  0  0  0  0
 33 35  1  0  0  0  0
 33 34  2  0  0  0  0
 35 42  1  0  0  0  0
 36 38  1  0  0  0  0
 36 35  2  0  0  0  0
 37 36  1  0  0  0  0
 38 40  1  0  0  0  0
 39 38  1  0  0  0  0
 40 42  2  0  0  0  0
 40 41  1  0  0  0  0
M  END
>  <minimizedAffinity>
-5.37930107

>  <minimizedRMSD>
1.96733832

$$$$
