
 OpenBabel03252509193D

 42 45  0  0  1  0  0  0  0  0999 V2000
   48.1340   29.0110   48.0080 C   0  0  1  0  0  0  0  0  0  0  0  0
   47.8510   27.9890   46.9660 C   0  0  0  0  0  0  0  0  0  0  0  0
   49.0030   27.0550   46.6930 C   0  0  0  0  0  0  0  0  0  0  0  0
   49.6790   26.5600   47.9340 C   0  0  0  0  0  0  0  0  0  0  0  0
   49.8800   27.6410   48.9660 C   0  0  0  0  0  0  0  0  0  0  0  0
   49.6350   29.0170   48.3220 C   0  0  2  0  0  0  0  0  0  0  0  0
   47.6630   28.6740   48.9590 H   0  0  0  0  0  0  0  0  0  0  0  0
   46.9790   27.3670   47.2550 H   0  0  0  0  0  0  0  0  0  0  0  0
   47.5730   28.4690   46.0000 H   0  0  0  0  0  0  0  0  0  0  0  0
   48.5640   26.1700   46.1950 H   0  0  0  0  0  0  0  0  0  0  0  0
   49.7190   27.5990   46.0220 H   0  0  0  0  0  0  0  0  0  0  0  0
   50.6010   26.0430   47.6530 H   0  0  0  0  0  0  0  0  0  0  0  0
   49.0110   25.7920   48.4060 H   0  0  0  0  0  0  0  0  0  0  0  0
   49.2170   27.5570   49.8400 H   0  0  0  0  0  0  0  0  0  0  0  0
   50.9510   27.5960   49.2750 H   0  0  0  0  0  0  0  0  0  0  0  0
   50.2160   29.0820   47.3660 H   0  0  0  0  0  0  0  0  0  0  0  0
   46.6480   32.4460   46.3630 C   0  0  0  0  0  0  0  0  0  0  0  0
   46.8370   32.5520   47.7380 C   0  0  0  0  0  0  0  0  0  0  0  0
   47.3170   31.4950   48.3920 C   0  0  0  0  0  0  0  0  0  0  0  0
   47.6250   30.2990   47.6950 C   0  0  0  0  0  0  0  0  0  0  0  0
   47.1900   30.7230   45.9760 S   0  0  0  0  0  0  0  0  0  0  0  0
   46.6020   33.4670   48.2630 H   0  0  0  0  0  0  0  0  0  0  0  0
   47.5250   31.3910   49.4430 H   0  0  0  0  0  0  0  0  0  0  0  0
   44.7880   35.3060   44.8670 C   0  0  0  0  0  0  0  0  0  0  0  0
   45.4320   35.4060   43.6350 C   0  0  0  0  0  0  0  0  0  0  0  0
   46.4670   34.5010   43.3640 C   0  0  0  0  0  0  0  0  0  0  0  0
   46.7860   33.5750   44.3150 N   0  0  0  0  0  0  0  0  0  0  0  0
   46.1380   33.5160   45.4880 C   0  0  0  0  0  0  0  0  0  0  0  0
   45.1410   34.3840   45.7560 N   0  0  0  0  0  0  0  0  0  0  0  0
   43.9890   35.9900   45.1000 H   0  0  0  0  0  0  0  0  0  0  0  0
   45.1710   36.1420   42.8960 H   0  0  0  0  0  0  0  0  0  0  0  0
   46.9940   34.5300   42.4420 H   0  0  0  0  0  0  0  0  0  0  0  0
   49.9820   30.0780   49.2600 C   0  0  0  0  0  0  0  0  0  0  0  0
   49.3670   30.2250   50.3450 O   0  0  0  0  0  0  0  0  0  0  0  0
   50.9280   31.1620   49.3740 C   0  0  0  0  0  0  0  0  0  0  0  0
   50.6020   32.3730   49.9310 C   0  0  0  0  0  0  0  0  0  0  0  0
   49.7550   32.8970   50.3620 H   0  0  0  0  0  0  0  0  0  0  0  0
   51.7160   33.1710   49.9370 N   0  0  0  0  0  0  0  0  0  0  0  0
   51.8880   34.1410   50.2650 H   0  0  0  0  0  0  0  0  0  0  0  0
   52.7350   32.5080   49.4030 C   0  0  0  0  0  0  0  0  0  0  0  0
   53.7830   32.7010   49.1930 H   0  0  0  0  0  0  0  0  0  0  0  0
   52.2060   31.3460   49.0980 N   0  0  0  0  0  0  0  0  0  0  0  0
  1  6  1  0  0  0  0
  1  7  1  1  0  0  0
  2  8  1  0  0  0  0
  2  1  1  0  0  0  0
  3  2  1  0  0  0  0
  3  4  1  0  0  0  0
  4 13  1  0  0  0  0
  4  5  1  0  0  0  0
  5 15  1  0  0  0  0
  5 14  1  0  0  0  0
  6 16  1  6  0  0  0
  6  5  1  0  0  0  0
  6 33  1  0  0  0  0
  9  2  1  0  0  0  0
 10  3  1  0  0  0  0
 11  3  1  0  0  0  0
 12  4  1  0  0  0  0
 17 18  2  0  0  0  0
 18 22  1  0  0  0  0
 18 19  1  0  0  0  0
 19 23  1  0  0  0  0
 20  1  1  0  0  0  0
 20 19  2  0  0  0  0
 21 17  1  0  0  0  0
 21 20  1  0  0  0  0
 24 30  1  0  0  0  0
 24 29  1  0  0  0  0
 25 24  2  0  0  0  0
 26 25  1  0  0  0  0
 26 27  2  0  0  0  0
 27 28  1  0  0  0  0
 28 29  2  0  0  0  0
 28 17  1  0  0  0  0
 31 25  1  0  0  0  0
 32 26  1  0  0  0  0
 33 35  1  0  0  0  0
 33 34  2  0  0  0  0
 35 36  2  0  0  0  0
 36 38  1  0  0  0  0
 36 37  1  0  0  0  0
 38 39  1  0  0  0  0
 40 38  1  0  0  0  0
 41 40  1  0  0  0  0
 42 35  1  0  0  0  0
 42 40  2  0  0  0  0
M  END
>  <minimizedAffinity>
-5.27357292

>  <minimizedRMSD>
2.00889802

$$$$
