
     RDKit          3D

 42 45  0  0  0  0  0  0  0  0999 V2000
   47.5871   29.9937   48.2424 C   0  0  1  0  0  0  0  0  0  0  0  0
   47.4357   28.7842   47.3900 C   0  0  0  0  0  0  0  0  0  0  0  0
   48.7167   28.0166   47.1816 C   0  0  0  0  0  0  0  0  0  0  0  0
   49.5232   27.8452   48.4322 C   0  0  0  0  0  0  0  0  0  0  0  0
   49.5816   29.0966   49.2707 C   0  0  0  0  0  0  0  0  0  0  0  0
   49.0765   30.2928   48.4439 C   0  0  2  0  0  0  0  0  0  0  0  0
   45.9163   33.1438   46.2422 C   0  0  0  0  0  0  0  0  0  0  0  0
   45.3613   32.9592   47.5055 C   0  0  0  0  0  0  0  0  0  0  0  0
   45.8211   31.9599   48.2571 C   0  0  0  0  0  0  0  0  0  0  0  0
   46.8516   31.1139   47.7727 C   0  0  0  0  0  0  0  0  0  0  0  0
   47.1791   31.8025   46.1171 S   0  0  0  0  0  0  0  0  0  0  0  0
   44.4212   36.1010   44.5414 C   0  0  0  0  0  0  0  0  0  0  0  0
   45.0455   36.0173   43.2984 C   0  0  0  0  0  0  0  0  0  0  0  0
   45.9445   34.9618   43.0889 C   0  0  0  0  0  0  0  0  0  0  0  0
   46.1578   34.0790   44.1081 N   0  0  0  0  0  0  0  0  0  0  0  0
   45.5337   34.1998   45.2887 C   0  0  0  0  0  0  0  0  0  0  0  0
   44.6675   35.2129   45.4970 N   0  0  0  0  0  0  0  0  0  0  0  0
   49.2786   31.5344   49.1824 C   0  0  0  0  0  0  0  0  0  0  0  0
   49.8599   31.5512   50.2948 O   0  0  0  0  0  0  0  0  0  0  0  0
   47.2226   29.7430   49.2640 H   0  0  0  0  0  0  0  0  0  0  0  0
   46.6969   28.0844   47.8319 H   0  0  0  0  0  0  0  0  0  0  0  0
   47.0379   29.0499   46.3853 H   0  0  0  0  0  0  0  0  0  0  0  0
   48.4144   27.0035   46.8572 H   0  0  0  0  0  0  0  0  0  0  0  0
   49.2995   28.5527   46.3869 H   0  0  0  0  0  0  0  0  0  0  0  0
   50.5058   27.4445   48.1686 H   0  0  0  0  0  0  0  0  0  0  0  0
   49.0174   27.0662   49.0624 H   0  0  0  0  0  0  0  0  0  0  0  0
   48.9819   29.0499   50.1920 H   0  0  0  0  0  0  0  0  0  0  0  0
   50.6567   29.2764   49.5061 H   0  0  0  0  0  0  0  0  0  0  0  0
   49.5953   30.2950   47.4496 H   0  0  0  0  0  0  0  0  0  0  0  0
   44.5771   33.6091   47.8692 H   0  0  0  0  0  0  0  0  0  0  0  0
   45.5165   31.6660   49.2466 H   0  0  0  0  0  0  0  0  0  0  0  0
   43.7261   36.9031   44.7267 H   0  0  0  0  0  0  0  0  0  0  0  0
   44.8677   36.7206   42.5039 H   0  0  0  0  0  0  0  0  0  0  0  0
   46.4495   34.8473   42.1622 H   0  0  0  0  0  0  0  0  0  0  0  0
   48.9991   32.9416   49.0388 C   0  0  0  0  0  0  0  0  0  0  0  0
   48.9987   33.5759   47.8220 C   0  0  0  0  0  0  0  0  0  0  0  0
   49.1824   33.3737   46.7710 H   0  0  0  0  0  0  0  0  0  0  0  0
   48.6557   34.8895   48.0070 N   0  0  0  0  0  0  0  0  0  0  0  0
   48.5438   35.6893   47.3547 H   0  0  0  0  0  0  0  0  0  0  0  0
   48.4388   35.1095   49.2996 C   0  0  0  0  0  0  0  0  0  0  0  0
   48.1553   35.9518   49.9217 H   0  0  0  0  0  0  0  0  0  0  0  0
   48.6564   33.9341   49.8406 N   0  0  0  0  0  0  0  0  0  0  0  0
  1  6  1  0
  2  1  1  0
  3  2  1  0
  3  4  1  0
  4  5  1  0
  6 18  1  0
  6  5  1  0
  7  8  2  0
  8  9  1  0
 10  1  1  0
 10  9  2  0
 11  7  1  0
 11 10  1  0
 12 17  2  0
 13 12  1  0
 14 13  2  0
 14 15  1  0
 15 16  2  0
 16 17  1  0
 16  7  1  0
 18 19  2  0
  1 20  1  1
  2 21  1  0
  2 22  1  0
  3 23  1  0
  3 24  1  0
  4 25  1  0
  4 26  1  0
  5 27  1  0
  5 28  1  0
  6 29  1  6
  8 30  1  0
  9 31  1  0
 12 32  1  0
 13 33  1  0
 14 34  1  0
 35 36  2  0
 36 37  1  0
 36 38  1  0
 38 39  1  0
 38 40  1  0
 40 41  1  0
 40 42  2  0
 42 35  1  0
 18 35  1  0
M  ISO  8  20  13  21  13  22  13  23  13  24  13  25  13  26  13  27  13
M  ISO  8  28  13  29  13  30  14  31  14  32  14  33  14  34  14  37  15
M  ISO  2  39   5  41  14
M  END
>  <DihAtoms>  (1) 
5,17,34,35

>  <DihDeg>  (1) 
176.56844935108043

$$$$
