REMARK  Name = 
REMARK  4 active torsions:
REMARK  status: ('A' for Active; 'I' for Inactive)
REMARK    1  A    between atoms: C_1  and  C_10
REMARK    2  A    between atoms: C_6  and  C_18
REMARK    3  A    between atoms: C_7  and  C_16
REMARK    4  A    between atoms: C_18  and  C_35
REMARK                            x       y       z     vdW  Elec       q    Type
REMARK                         _______ _______ _______ _____ _____    ______ ____
ROOT
ATOM      1  C   UNL     1      47.587  29.994  48.242  0.00  0.00    +0.000 C 
ATOM      2  C   UNL     1      47.436  28.784  47.390  0.00  0.00    +0.000 C 
ATOM      3  C   UNL     1      48.717  28.017  47.182  0.00  0.00    +0.000 C 
ATOM      4  C   UNL     1      49.523  27.845  48.432  0.00  0.00    +0.000 C 
ATOM      5  C   UNL     1      49.582  29.097  49.271  0.00  0.00    +0.000 C 
ATOM      6  C   UNL     1      49.077  30.293  48.444  0.00  0.00    +0.000 C 
ATOM      7  H   UNL     1      47.223  29.743  49.264  0.00  0.00    +0.000 HD
ATOM      8  H   UNL     1      46.697  28.084  47.832  0.00  0.00    +0.000 HD
ATOM      9  H   UNL     1      47.038  29.050  46.385  0.00  0.00    +0.000 HD
ATOM     10  H   UNL     1      48.414  27.003  46.857  0.00  0.00    +0.000 HD
ATOM     11  H   UNL     1      49.300  28.553  46.387  0.00  0.00    +0.000 HD
ATOM     12  H   UNL     1      50.506  27.445  48.169  0.00  0.00    +0.000 HD
ATOM     13  H   UNL     1      49.017  27.066  49.062  0.00  0.00    +0.000 HD
ATOM     14  H   UNL     1      48.982  29.050  50.192  0.00  0.00    +0.000 HD
ATOM     15  H   UNL     1      50.657  29.276  49.506  0.00  0.00    +0.000 HD
ATOM     16  H   UNL     1      49.595  30.295  47.450  0.00  0.00    +0.000 HD
ENDROOT
BRANCH   1  20
ATOM     17  C   UNL     1      45.916  33.144  46.242  0.00  0.00    +0.000 A 
ATOM     18  C   UNL     1      45.361  32.959  47.505  0.00  0.00    +0.000 A 
ATOM     19  C   UNL     1      45.821  31.960  48.257  0.00  0.00    +0.000 A 
ATOM     20  C   UNL     1      46.852  31.114  47.773  0.00  0.00    +0.000 A 
ATOM     21  S   UNL     1      47.179  31.802  46.117  0.00  0.00    +0.000 S 
ATOM     22  H   UNL     1      44.577  33.609  47.869  0.00  0.00    +0.000 HD
ATOM     23  H   UNL     1      45.517  31.666  49.247  0.00  0.00    +0.000 HD
BRANCH  17  28
ATOM     24  C   UNL     1      44.421  36.101  44.541  0.00  0.00    +0.000 A 
ATOM     25  C   UNL     1      45.045  36.017  43.298  0.00  0.00    +0.000 A 
ATOM     26  C   UNL     1      45.944  34.962  43.089  0.00  0.00    +0.000 A 
ATOM     27  N   UNL     1      46.158  34.079  44.108  0.00  0.00    +0.000 NA
ATOM     28  C   UNL     1      45.534  34.200  45.289  0.00  0.00    +0.000 A 
ATOM     29  N   UNL     1      44.667  35.213  45.497  0.00  0.00    +0.000 NA
ATOM     30  H   UNL     1      43.726  36.903  44.727  0.00  0.00    +0.000 HD
ATOM     31  H   UNL     1      44.868  36.721  42.504  0.00  0.00    +0.000 HD
ATOM     32  H   UNL     1      46.450  34.847  42.162  0.00  0.00    +0.000 HD
ENDBRANCH  17  28
ENDBRANCH   1  20
BRANCH   6  33
ATOM     33  C   UNL     1      49.279  31.534  49.182  0.00  0.00    +0.000 C 
ATOM     34  O   UNL     1      49.860  31.551  50.295  0.00  0.00    +0.000 OA
BRANCH  33  35
ATOM     35  C   UNL     1      48.999  32.942  49.039  0.00  0.00    +0.000 A 
ATOM     36  C   UNL     1      49.758  33.912  49.643  0.00  0.00    +0.000 A 
ATOM     37  H   UNL     1      50.609  34.018  50.309  0.00  0.00    +0.000 HD
ATOM     38  N   UNL     1      49.273  35.142  49.282  0.00  0.00    +0.000 N 
ATOM     39  H   UNL     1      49.559  36.112  49.518  0.00  0.00    +0.000 HD
ATOM     40  C   UNL     1      48.233  34.984  48.470  0.00  0.00    +0.000 A 
ATOM     41  H   UNL     1      47.539  35.627  47.939  0.00  0.00    +0.000 HD
ATOM     42  N   UNL     1      48.129  33.679  48.372  0.00  0.00    +0.000 NA
ENDBRANCH  33  35
ENDBRANCH   6  33
TORSDOF 4
