
 OpenBabel03252509193D

 42 45  0  0  1  0  0  0  0  0999 V2000
   48.4880   29.0200   48.0120 C   0  0  1  0  0  0  0  0  0  0  0  0
   48.3900   28.0720   46.8710 C   0  0  0  0  0  0  0  0  0  0  0  0
   49.6600   27.3050   46.6000 C   0  0  0  0  0  0  0  0  0  0  0  0
   50.3190   26.7800   47.8370 C   0  0  0  0  0  0  0  0  0  0  0  0
   50.3280   27.7780   48.9680 C   0  0  0  0  0  0  0  0  0  0  0  0
   49.9560   29.1700   48.4270 C   0  0  2  0  0  0  0  0  0  0  0  0
   48.0070   28.5450   48.8970 H   0  0  0  0  0  0  0  0  0  0  0  0
   47.5840   27.3290   47.0470 H   0  0  0  0  0  0  0  0  0  0  0  0
   48.1130   28.6030   45.9330 H   0  0  0  0  0  0  0  0  0  0  0  0
   49.3600   26.4240   46.0010 H   0  0  0  0  0  0  0  0  0  0  0  0
   50.3430   27.9870   46.0270 H   0  0  0  0  0  0  0  0  0  0  0  0
   51.3110   26.4000   47.5780 H   0  0  0  0  0  0  0  0  0  0  0  0
   49.7220   25.9000   48.1970 H   0  0  0  0  0  0  0  0  0  0  0  0
   49.6300   27.5390   49.7850 H   0  0  0  0  0  0  0  0  0  0  0  0
   51.3770   27.8290   49.3440 H   0  0  0  0  0  0  0  0  0  0  0  0
   50.5790   29.3890   47.5210 H   0  0  0  0  0  0  0  0  0  0  0  0
   46.6830   32.3910   46.5640 C   0  0  0  0  0  0  0  0  0  0  0  0
   46.8000   32.4020   47.9510 C   0  0  0  0  0  0  0  0  0  0  0  0
   47.3710   31.3550   48.5460 C   0  0  0  0  0  0  0  0  0  0  0  0
   47.8460   30.2640   47.7740 C   0  0  0  0  0  0  0  0  0  0  0  0
   47.4370   30.7780   46.0740 S   0  0  0  0  0  0  0  0  0  0  0  0
   46.4380   33.2390   48.5330 H   0  0  0  0  0  0  0  0  0  0  0  0
   47.5460   31.1880   49.5950 H   0  0  0  0  0  0  0  0  0  0  0  0
   44.6740   35.2480   45.2700 C   0  0  0  0  0  0  0  0  0  0  0  0
   45.2080   35.3690   43.9890 C   0  0  0  0  0  0  0  0  0  0  0  0
   46.2240   34.4780   43.6180 C   0  0  0  0  0  0  0  0  0  0  0  0
   46.6330   33.5440   44.5260 N   0  0  0  0  0  0  0  0  0  0  0  0
   46.0890   33.4650   45.7500 C   0  0  0  0  0  0  0  0  0  0  0  0
   45.1100   34.3200   46.1140 N   0  0  0  0  0  0  0  0  0  0  0  0
   43.8920   35.9210   45.5800 H   0  0  0  0  0  0  0  0  0  0  0  0
   44.8770   36.1110   43.2840 H   0  0  0  0  0  0  0  0  0  0  0  0
   46.6690   34.5230   42.6550 H   0  0  0  0  0  0  0  0  0  0  0  0
   50.1180   30.1740   49.4710 C   0  0  0  0  0  0  0  0  0  0  0  0
   49.5270   30.0780   50.5750 O   0  0  0  0  0  0  0  0  0  0  0  0
   50.8310   31.4090   49.6920 C   0  0  0  0  0  0  0  0  0  0  0  0
   52.0930   31.6320   49.2000 C   0  0  0  0  0  0  0  0  0  0  0  0
   52.8750   31.1300   48.6380 H   0  0  0  0  0  0  0  0  0  0  0  0
   52.4810   32.9020   49.5360 N   0  0  0  0  0  0  0  0  0  0  0  0
   53.3460   33.4480   49.3560 H   0  0  0  0  0  0  0  0  0  0  0  0
   51.5080   33.4920   50.2230 C   0  0  0  0  0  0  0  0  0  0  0  0
   51.3430   34.4570   50.6900 H   0  0  0  0  0  0  0  0  0  0  0  0
   50.5810   32.5660   50.2770 N   0  0  0  0  0  0  0  0  0  0  0  0
  1  6  1  0  0  0  0
  1  7  1  1  0  0  0
  2  8  1  0  0  0  0
  2  1  1  0  0  0  0
  3  2  1  0  0  0  0
  3  4  1  0  0  0  0
  4 13  1  0  0  0  0
  4  5  1  0  0  0  0
  5 15  1  0  0  0  0
  5 14  1  0  0  0  0
  6 16  1  6  0  0  0
  6  5  1  0  0  0  0
  6 33  1  0  0  0  0
  9  2  1  0  0  0  0
 10  3  1  0  0  0  0
 11  3  1  0  0  0  0
 12  4  1  0  0  0  0
 17 18  2  0  0  0  0
 18 22  1  0  0  0  0
 18 19  1  0  0  0  0
 19 23  1  0  0  0  0
 20  1  1  0  0  0  0
 20 19  2  0  0  0  0
 21 17  1  0  0  0  0
 21 20  1  0  0  0  0
 24 30  1  0  0  0  0
 24 29  1  0  0  0  0
 25 24  2  0  0  0  0
 26 25  1  0  0  0  0
 26 27  2  0  0  0  0
 27 28  1  0  0  0  0
 28 29  2  0  0  0  0
 28 17  1  0  0  0  0
 31 25  1  0  0  0  0
 32 26  1  0  0  0  0
 33 35  1  0  0  0  0
 33 34  2  0  0  0  0
 35 42  1  0  0  0  0
 36 38  1  0  0  0  0
 36 35  2  0  0  0  0
 37 36  1  0  0  0  0
 38 40  1  0  0  0  0
 39 38  1  0  0  0  0
 40 42  2  0  0  0  0
 40 41  1  0  0  0  0
M  END
>  <minimizedAffinity>
-5.37381411

>  <minimizedRMSD>
2.00714254

$$$$
