
 OpenBabel03242517013D

 31 33  0  0  0  0  0  0  0  0999 V2000
   37.5080   27.5790   41.5520 C   0  0  0  0  0  0  0  0  0  0  0  0
   37.5220   26.2560   41.9710 C   0  0  0  0  0  0  0  0  0  0  0  0
   38.4200   25.8800   42.9600 C   0  0  0  0  0  0  0  0  0  0  0  0
   39.2650   26.8150   43.4950 C   0  0  0  0  0  0  0  0  0  0  0  0
   39.2800   28.1230   43.1070 C   0  0  0  0  0  0  0  0  0  0  0  0
   38.3620   28.4700   42.1080 C   0  0  0  0  0  0  0  0  0  0  0  0
   36.8360   25.5200   41.5310 H   0  0  0  0  0  0  0  0  0  0  0  0
   38.3850   24.8380   43.2460 H   0  0  0  0  0  0  0  0  0  0  0  0
   39.9410   26.4510   44.2630 H   0  0  0  0  0  0  0  0  0  0  0  0
   39.9320   28.8560   43.5140 H   0  0  0  0  0  0  0  0  0  0  0  0
   35.5490   27.7530   38.3260 C   0  0  0  0  0  0  0  0  0  0  0  0
   36.5310   27.3510   39.2520 C   0  0  0  0  0  0  0  0  0  0  0  0
   36.5410   27.9160   40.5100 C   0  0  0  0  0  0  0  0  0  0  0  0
   35.5860   28.8440   40.7860 N   0  0  0  0  0  0  0  0  0  0  0  0
   34.6450   29.2290   39.8970 C   0  0  0  0  0  0  0  0  0  0  0  0
   34.6300   28.6750   38.6560 N   0  0  0  0  0  0  0  0  0  0  0  0
   35.6480   27.2380   37.3790 H   0  0  0  0  0  0  0  0  0  0  0  0
   37.2800   26.6200   39.0290 H   0  0  0  0  0  0  0  0  0  0  0  0
   33.8980   29.9750   40.1590 H   0  0  0  0  0  0  0  0  0  0  0  0
   39.2030   30.7830   41.2070 C   0  0  0  0  0  0  0  0  0  0  0  0
   40.4310   30.6930   41.2070 O   0  0  0  0  0  0  0  0  0  0  0  0
   38.2690   29.7950   41.6110 N   0  0  0  0  0  0  0  0  0  0  0  0
   37.2340   29.9520   41.5870 H   0  0  0  0  0  0  0  0  0  0  0  0
   38.6110   32.0390   40.7420 C   0  0  0  0  0  0  0  0  0  0  0  0
   37.3030   32.1560   40.3540 C   0  0  0  0  0  0  0  0  0  0  0  0
   36.5190   31.3840   40.3230 H   0  0  0  0  0  0  0  0  0  0  0  0
   36.9800   33.3990   39.9670 N   0  0  0  0  0  0  0  0  0  0  0  0
   36.0720   33.7800   39.6250 H   0  0  0  0  0  0  0  0  0  0  0  0
   38.1340   34.0980   40.1170 C   0  0  0  0  0  0  0  0  0  0  0  0
   38.2820   35.1590   39.9040 H   0  0  0  0  0  0  0  0  0  0  0  0
   39.1070   33.2790   40.5820 N   0  0  0  0  0  0  0  0  0  0  0  0
  1  2  2  0  0  0  0
  1  6  1  0  0  0  0
  2  3  1  0  0  0  0
  3  8  1  0  0  0  0
  3  4  2  0  0  0  0
  4  9  1  0  0  0  0
  5  4  1  0  0  0  0
  5 10  1  0  0  0  0
  6  5  2  0  0  0  0
  7  2  1  0  0  0  0
 11 16  2  0  0  0  0
 11 12  1  0  0  0  0
 12 13  2  0  0  0  0
 13 14  1  0  0  0  0
 13  1  1  0  0  0  0
 15 19  1  0  0  0  0
 15 14  2  0  0  0  0
 16 15  1  0  0  0  0
 17 11  1  0  0  0  0
 18 12  1  0  0  0  0
 20 21  2  0  0  0  0
 20 22  1  0  0  0  0
 22  6  1  0  0  0  0
 23 22  1  0  0  0  0
 24 20  1  0  0  0  0
 25 24  2  0  0  0  0
 26 25  1  0  0  0  0
 27 29  1  0  0  0  0
 27 25  1  0  0  0  0
 28 27  1  0  0  0  0
 29 31  2  0  0  0  0
 30 29  1  0  0  0  0
 31 24  1  0  0  0  0
M  END
>  <minimizedAffinity>
-5.46862268

$$$$

 OpenBabel03242517013D

 31 33  0  0  0  0  0  0  0  0999 V2000
   36.9260   28.6210   41.1170 C   0  0  0  0  0  0  0  0  0  0  0  0
   36.2780   27.7900   42.0200 C   0  0  0  0  0  0  0  0  0  0  0  0
   36.7570   27.7170   43.3200 C   0  0  0  0  0  0  0  0  0  0  0  0
   37.8500   28.4590   43.6800 C   0  0  0  0  0  0  0  0  0  0  0  0
   38.5120   29.2850   42.8200 C   0  0  0  0  0  0  0  0  0  0  0  0
   38.0040   29.3370   41.5160 C   0  0  0  0  0  0  0  0  0  0  0  0
   35.4030   27.2020   41.7140 H   0  0  0  0  0  0  0  0  0  0  0  0
   36.2120   27.0530   43.9780 H   0  0  0  0  0  0  0  0  0  0  0  0
   38.1700   28.3520   44.7110 H   0  0  0  0  0  0  0  0  0  0  0  0
   39.3610   29.8650   43.0870 H   0  0  0  0  0  0  0  0  0  0  0  0
   34.6540   29.0020   38.1220 C   0  0  0  0  0  0  0  0  0  0  0  0
   35.0750   28.9990   39.4660 C   0  0  0  0  0  0  0  0  0  0  0  0
   36.3770   28.6580   39.7640 C   0  0  0  0  0  0  0  0  0  0  0  0
   37.1930   28.3390   38.7230 N   0  0  0  0  0  0  0  0  0  0  0  0
   36.7890   28.3410   37.4340 C   0  0  0  0  0  0  0  0  0  0  0  0
   35.5060   28.6760   37.1360 N   0  0  0  0  0  0  0  0  0  0  0  0
   33.6140   29.2850   38.0220 H   0  0  0  0  0  0  0  0  0  0  0  0
   34.4280   29.2510   40.2820 H   0  0  0  0  0  0  0  0  0  0  0  0
   37.4740   28.0790   36.6310 H   0  0  0  0  0  0  0  0  0  0  0  0
   38.4850   31.5190   40.1450 C   0  0  0  0  0  0  0  0  0  0  0  0
   37.7700   32.3790   40.6620 O   0  0  0  0  0  0  0  0  0  0  0  0
   38.5940   30.1550   40.5180 N   0  0  0  0  0  0  0  0  0  0  0  0
   39.2230   29.4820   40.0220 H   0  0  0  0  0  0  0  0  0  0  0  0
   39.3270   31.9200   39.0170 C   0  0  0  0  0  0  0  0  0  0  0  0
   38.9430   31.7940   37.7090 C   0  0  0  0  0  0  0  0  0  0  0  0
   38.0020   31.3980   37.3000 H   0  0  0  0  0  0  0  0  0  0  0  0
   39.8750   32.2250   36.8450 N   0  0  0  0  0  0  0  0  0  0  0  0
   39.8620   32.2520   35.8030 H   0  0  0  0  0  0  0  0  0  0  0  0
   40.8910   32.6420   37.6420 C   0  0  0  0  0  0  0  0  0  0  0  0
   41.8420   33.0650   37.3120 H   0  0  0  0  0  0  0  0  0  0  0  0
   40.5580   32.4570   38.9410 N   0  0  0  0  0  0  0  0  0  0  0  0
  1  6  2  0  0  0  0
  1  2  1  0  0  0  0
  2  3  2  0  0  0  0
  3  4  1  0  0  0  0
  3  8  1  0  0  0  0
  4  9  1  0  0  0  0
  5 10  1  0  0  0  0
  5  4  2  0  0  0  0
  6  5  1  0  0  0  0
  7  2  1  0  0  0  0
 11 12  1  0  0  0  0
 12 13  2  0  0  0  0
 12 18  1  0  0  0  0
 13  1  1  0  0  0  0
 14 13  1  0  0  0  0
 15 14  2  0  0  0  0
 16 15  1  0  0  0  0
 16 11  2  0  0  0  0
 17 11  1  0  0  0  0
 19 15  1  0  0  0  0
 20 22  1  0  0  0  0
 20 21  2  0  0  0  0
 22  6  1  0  0  0  0
 23 22  1  0  0  0  0
 24 20  1  0  0  0  0
 25 24  2  0  0  0  0
 26 25  1  0  0  0  0
 27 29  1  0  0  0  0
 27 25  1  0  0  0  0
 28 27  1  0  0  0  0
 29 31  2  0  0  0  0
 30 29  1  0  0  0  0
 31 24  1  0  0  0  0
M  END
>  <minimizedAffinity>
-5.42309856

$$$$

 OpenBabel03242517013D

 31 33  0  0  0  0  0  0  0  0999 V2000
   38.7660   28.7930   42.4790 C   0  0  0  0  0  0  0  0  0  0  0  0
   38.2910   27.9550   43.4770 C   0  0  0  0  0  0  0  0  0  0  0  0
   36.9980   27.4620   43.3750 C   0  0  0  0  0  0  0  0  0  0  0  0
   36.2260   27.8110   42.2990 C   0  0  0  0  0  0  0  0  0  0  0  0
   36.6590   28.6330   41.3000 C   0  0  0  0  0  0  0  0  0  0  0  0
   37.9680   29.1130   41.4330 C   0  0  0  0  0  0  0  0  0  0  0  0
   38.9250   27.6850   44.3330 H   0  0  0  0  0  0  0  0  0  0  0  0
   36.6840   26.8140   44.1820 H   0  0  0  0  0  0  0  0  0  0  0  0
   35.2260   27.3900   42.2840 H   0  0  0  0  0  0  0  0  0  0  0  0
   36.0690   28.9110   40.4610 H   0  0  0  0  0  0  0  0  0  0  0  0
   42.5110   29.0440   42.9090 C   0  0  0  0  0  0  0  0  0  0  0  0
   41.2380   28.4630   42.7590 C   0  0  0  0  0  0  0  0  0  0  0  0
   40.1340   29.2800   42.6400 C   0  0  0  0  0  0  0  0  0  0  0  0
   40.3440   30.6240   42.6750 N   0  0  0  0  0  0  0  0  0  0  0  0
   41.5660   31.1810   42.8200 C   0  0  0  0  0  0  0  0  0  0  0  0
   42.6580   30.3790   42.9380 N   0  0  0  0  0  0  0  0  0  0  0  0
   43.2920   28.2990   42.9920 H   0  0  0  0  0  0  0  0  0  0  0  0
   41.0780   27.4050   42.7310 H   0  0  0  0  0  0  0  0  0  0  0  0
   41.6910   32.2620   42.8430 H   0  0  0  0  0  0  0  0  0  0  0  0
   38.2630   31.2800   39.9890 C   0  0  0  0  0  0  0  0  0  0  0  0
   37.3470   32.0230   40.3470 O   0  0  0  0  0  0  0  0  0  0  0  0
   38.5460   29.9750   40.4670 N   0  0  0  0  0  0  0  0  0  0  0  0
   39.3440   29.4020   40.1050 H   0  0  0  0  0  0  0  0  0  0  0  0
   39.1760   31.7720   38.9560 C   0  0  0  0  0  0  0  0  0  0  0  0
   38.8830   31.7470   37.6190 C   0  0  0  0  0  0  0  0  0  0  0  0
   37.9760   31.3790   37.1160 H   0  0  0  0  0  0  0  0  0  0  0  0
   39.8670   32.2480   36.8560 N   0  0  0  0  0  0  0  0  0  0  0  0
   39.9240   32.3560   35.8210 H   0  0  0  0  0  0  0  0  0  0  0  0
   40.8230   32.6060   37.7510 C   0  0  0  0  0  0  0  0  0  0  0  0
   41.7890   33.0580   37.5210 H   0  0  0  0  0  0  0  0  0  0  0  0
   40.4040   32.3190   39.0060 N   0  0  0  0  0  0  0  0  0  0  0  0
  1 13  1  0  0  0  0
  1  2  1  0  0  0  0
  2  7  1  0  0  0  0
  3  2  2  0  0  0  0
  3  8  1  0  0  0  0
  4  3  1  0  0  0  0
  5  6  1  0  0  0  0
  5  4  2  0  0  0  0
  6  1  2  0  0  0  0
  9  4  1  0  0  0  0
 10  5  1  0  0  0  0
 11 16  1  0  0  0  0
 11 17  1  0  0  0  0
 12 11  2  0  0  0  0
 13 14  2  0  0  0  0
 13 12  1  0  0  0  0
 14 15  1  0  0  0  0
 15 19  1  0  0  0  0
 15 16  2  0  0  0  0
 18 12  1  0  0  0  0
 20 21  2  0  0  0  0
 20 22  1  0  0  0  0
 22  6  1  0  0  0  0
 23 22  1  0  0  0  0
 24 31  1  0  0  0  0
 24 20  1  0  0  0  0
 25 24  2  0  0  0  0
 26 25  1  0  0  0  0
 27 25  1  0  0  0  0
 27 29  1  0  0  0  0
 28 27  1  0  0  0  0
 29 31  2  0  0  0  0
 30 29  1  0  0  0  0
M  END
>  <minimizedAffinity>
-5.30784273

$$$$

 OpenBabel03242517013D

 31 33  0  0  0  0  0  0  0  0999 V2000
   37.7430   29.5540   41.7390 C   0  0  0  0  0  0  0  0  0  0  0  0
   38.0070   29.3550   43.0860 C   0  0  0  0  0  0  0  0  0  0  0  0
   37.5940   28.1700   43.6790 C   0  0  0  0  0  0  0  0  0  0  0  0
   36.9390   27.2320   42.9260 C   0  0  0  0  0  0  0  0  0  0  0  0
   36.6620   27.3930   41.6000 C   0  0  0  0  0  0  0  0  0  0  0  0
   37.0920   28.5990   41.0330 C   0  0  0  0  0  0  0  0  0  0  0  0
   38.5330   30.1180   43.6750 H   0  0  0  0  0  0  0  0  0  0  0  0
   37.8270   28.0710   44.7300 H   0  0  0  0  0  0  0  0  0  0  0  0
   36.6450   26.3300   43.4540 H   0  0  0  0  0  0  0  0  0  0  0  0
   36.1550   26.6730   41.0060 H   0  0  0  0  0  0  0  0  0  0  0  0
   39.8490   32.4550   40.5470 C   0  0  0  0  0  0  0  0  0  0  0  0
   39.5220   31.2110   41.1210 C   0  0  0  0  0  0  0  0  0  0  0  0
   38.2020   30.8190   41.1710 C   0  0  0  0  0  0  0  0  0  0  0  0
   37.2760   31.6720   40.6540 N   0  0  0  0  0  0  0  0  0  0  0  0
   37.5900   32.8650   40.1050 C   0  0  0  0  0  0  0  0  0  0  0  0
   38.8910   33.2560   40.0530 N   0  0  0  0  0  0  0  0  0  0  0  0
   40.9150   32.6460   40.5690 H   0  0  0  0  0  0  0  0  0  0  0  0
   40.2550   30.5430   41.5260 H   0  0  0  0  0  0  0  0  0  0  0  0
   36.8190   33.5180   39.7020 H   0  0  0  0  0  0  0  0  0  0  0  0
   35.7240   29.0940   38.8530 C   0  0  0  0  0  0  0  0  0  0  0  0
   34.5440   29.0320   39.2020 O   0  0  0  0  0  0  0  0  0  0  0  0
   36.8710   28.8990   39.6640 N   0  0  0  0  0  0  0  0  0  0  0  0
   37.8460   28.9630   39.2890 H   0  0  0  0  0  0  0  0  0  0  0  0
   36.0060   29.4020   37.4500 C   0  0  0  0  0  0  0  0  0  0  0  0
   37.0330   30.2140   37.0490 C   0  0  0  0  0  0  0  0  0  0  0  0
   37.7770   30.7430   37.6640 H   0  0  0  0  0  0  0  0  0  0  0  0
   37.1020   30.3540   35.7160 N   0  0  0  0  0  0  0  0  0  0  0  0
   37.7690   30.9030   35.1340 H   0  0  0  0  0  0  0  0  0  0  0  0
   36.0740   29.5980   35.2550 C   0  0  0  0  0  0  0  0  0  0  0  0
   35.7940   29.4520   34.2100 H   0  0  0  0  0  0  0  0  0  0  0  0
   35.4210   29.0300   36.2970 N   0  0  0  0  0  0  0  0  0  0  0  0
  1  2  1  0  0  0  0
  2  7  1  0  0  0  0
  2  3  2  0  0  0  0
  3  8  1  0  0  0  0
  4  9  1  0  0  0  0
  4  3  1  0  0  0  0
  5  4  2  0  0  0  0
  6  5  1  0  0  0  0
  6  1  2  0  0  0  0
 10  5  1  0  0  0  0
 11 17  1  0  0  0  0
 11 12  1  0  0  0  0
 12 13  2  0  0  0  0
 12 18  1  0  0  0  0
 13  1  1  0  0  0  0
 14 13  1  0  0  0  0
 15 14  2  0  0  0  0
 16 15  1  0  0  0  0
 16 11  2  0  0  0  0
 19 15  1  0  0  0  0
 20 21  2  0  0  0  0
 20 22  1  0  0  0  0
 22  6  1  0  0  0  0
 23 22  1  0  0  0  0
 24 20  1  0  0  0  0
 25 24  2  0  0  0  0
 25 26  1  0  0  0  0
 27 25  1  0  0  0  0
 28 27  1  0  0  0  0
 29 27  1  0  0  0  0
 29 31  2  0  0  0  0
 30 29  1  0  0  0  0
 31 24  1  0  0  0  0
M  END
>  <minimizedAffinity>
-5.22279358

$$$$

 OpenBabel03242517013D

 31 33  0  0  0  0  0  0  0  0999 V2000
   36.7530   26.4960   40.0810 C   0  0  0  0  0  0  0  0  0  0  0  0
   36.5830   25.1190   40.0700 C   0  0  0  0  0  0  0  0  0  0  0  0
   35.9290   24.5360   38.9950 C   0  0  0  0  0  0  0  0  0  0  0  0
   35.4690   25.3270   37.9760 C   0  0  0  0  0  0  0  0  0  0  0  0
   35.6170   26.6830   37.9520 C   0  0  0  0  0  0  0  0  0  0  0  0
   36.2810   27.2400   39.0520 C   0  0  0  0  0  0  0  0  0  0  0  0
   36.9580   24.5000   40.8960 H   0  0  0  0  0  0  0  0  0  0  0  0
   35.8260   23.4610   39.0420 H   0  0  0  0  0  0  0  0  0  0  0  0
   34.9670   24.8050   37.1670 H   0  0  0  0  0  0  0  0  0  0  0  0
   35.2640   27.3060   37.1680 H   0  0  0  0  0  0  0  0  0  0  0  0
   37.7140   27.5940   43.5660 C   0  0  0  0  0  0  0  0  0  0  0  0
   36.9540   27.0270   42.5250 C   0  0  0  0  0  0  0  0  0  0  0  0
   37.4490   27.0530   41.2380 C   0  0  0  0  0  0  0  0  0  0  0  0
   38.6640   27.6350   41.0470 N   0  0  0  0  0  0  0  0  0  0  0  0
   39.3920   28.1790   42.0450 C   0  0  0  0  0  0  0  0  0  0  0  0
   38.9090   28.1570   43.3160 N   0  0  0  0  0  0  0  0  0  0  0  0
   37.2180   27.5110   44.5240 H   0  0  0  0  0  0  0  0  0  0  0  0
   35.9990   26.5700   42.6810 H   0  0  0  0  0  0  0  0  0  0  0  0
   40.3600   28.6350   41.8500 H   0  0  0  0  0  0  0  0  0  0  0  0
   37.1530   29.6120   38.3570 C   0  0  0  0  0  0  0  0  0  0  0  0
   37.7270   29.4340   37.2830 O   0  0  0  0  0  0  0  0  0  0  0  0
   36.5050   28.6360   39.1580 N   0  0  0  0  0  0  0  0  0  0  0  0
   36.0430   28.8680   40.0680 H   0  0  0  0  0  0  0  0  0  0  0  0
   37.1170   30.9740   38.8950 C   0  0  0  0  0  0  0  0  0  0  0  0
   36.7650   31.2640   40.1850 C   0  0  0  0  0  0  0  0  0  0  0  0
   36.4660   30.5780   40.9920 H   0  0  0  0  0  0  0  0  0  0  0  0
   36.8030   32.5780   40.4570 N   0  0  0  0  0  0  0  0  0  0  0  0
   36.5890   33.0860   41.3410 H   0  0  0  0  0  0  0  0  0  0  0  0
   37.1970   33.1420   39.2870 C   0  0  0  0  0  0  0  0  0  0  0  0
   37.3480   34.2060   39.0990 H   0  0  0  0  0  0  0  0  0  0  0  0
   37.3840   32.1760   38.3550 N   0  0  0  0  0  0  0  0  0  0  0  0
  1 13  1  0  0  0  0
  2  1  1  0  0  0  0
  2  7  1  0  0  0  0
  3  8  1  0  0  0  0
  3  2  2  0  0  0  0
  4  3  1  0  0  0  0
  5  4  2  0  0  0  0
  5  6  1  0  0  0  0
  6 22  1  0  0  0  0
  6  1  2  0  0  0  0
  9  4  1  0  0  0  0
 10  5  1  0  0  0  0
 11 17  1  0  0  0  0
 12 18  1  0  0  0  0
 12 11  2  0  0  0  0
 13 12  1  0  0  0  0
 14 13  2  0  0  0  0
 14 15  1  0  0  0  0
 15 16  2  0  0  0  0
 16 11  1  0  0  0  0
 19 15  1  0  0  0  0
 20 24  1  0  0  0  0
 20 22  1  0  0  0  0
 21 20  2  0  0  0  0
 22 23  1  0  0  0  0
 24 25  2  0  0  0  0
 25 27  1  0  0  0  0
 25 26  1  0  0  0  0
 27 28  1  0  0  0  0
 29 27  1  0  0  0  0
 30 29  1  0  0  0  0
 31 24  1  0  0  0  0
 31 29  2  0  0  0  0
M  END
>  <minimizedAffinity>
-5.17958498

$$$$

 OpenBabel03242517013D

 31 33  0  0  0  0  0  0  0  0999 V2000
   37.5790   28.2210   41.0110 C   0  0  0  0  0  0  0  0  0  0  0  0
   37.0700   26.9890   41.3930 C   0  0  0  0  0  0  0  0  0  0  0  0
   36.9240   26.7190   42.7460 C   0  0  0  0  0  0  0  0  0  0  0  0
   37.2840   27.6670   43.6660 C   0  0  0  0  0  0  0  0  0  0  0  0
   37.7880   28.8880   43.3270 C   0  0  0  0  0  0  0  0  0  0  0  0
   37.9220   29.1290   41.9540 C   0  0  0  0  0  0  0  0  0  0  0  0
   36.7860   26.2400   40.6420 H   0  0  0  0  0  0  0  0  0  0  0  0
   36.5230   25.7430   42.9840 H   0  0  0  0  0  0  0  0  0  0  0  0
   37.1430   27.3880   44.7060 H   0  0  0  0  0  0  0  0  0  0  0  0
   38.0710   29.6320   44.0320 H   0  0  0  0  0  0  0  0  0  0  0  0
   38.6070   28.0510   37.3790 C   0  0  0  0  0  0  0  0  0  0  0  0
   38.5660   27.7470   38.7530 C   0  0  0  0  0  0  0  0  0  0  0  0
   37.7090   28.4490   39.5730 C   0  0  0  0  0  0  0  0  0  0  0  0
   36.9390   29.4120   38.9960 N   0  0  0  0  0  0  0  0  0  0  0  0
   36.9800   29.7040   37.6780 C   0  0  0  0  0  0  0  0  0  0  0  0
   37.8230   29.0140   36.8650 N   0  0  0  0  0  0  0  0  0  0  0  0
   39.3170   27.4320   36.8460 H   0  0  0  0  0  0  0  0  0  0  0  0
   39.1730   26.9880   39.2020 H   0  0  0  0  0  0  0  0  0  0  0  0
   36.3470   30.4820   37.2560 H   0  0  0  0  0  0  0  0  0  0  0  0
   39.4850   31.2300   41.8370 C   0  0  0  0  0  0  0  0  0  0  0  0
   40.2630   31.0960   42.7820 O   0  0  0  0  0  0  0  0  0  0  0  0
   38.4320   30.3570   41.4600 N   0  0  0  0  0  0  0  0  0  0  0  0
   37.8070   30.5460   40.6420 H   0  0  0  0  0  0  0  0  0  0  0  0
   39.6390   32.4140   40.9890 C   0  0  0  0  0  0  0  0  0  0  0  0
   38.5940   33.0160   40.3420 C   0  0  0  0  0  0  0  0  0  0  0  0
   37.5290   32.7400   40.3410 H   0  0  0  0  0  0  0  0  0  0  0  0
   38.9690   34.0850   39.6210 N   0  0  0  0  0  0  0  0  0  0  0  0
   38.4000   34.7300   39.0330 H   0  0  0  0  0  0  0  0  0  0  0  0
   40.3090   34.1610   39.8230 C   0  0  0  0  0  0  0  0  0  0  0  0
   40.9870   34.9050   39.4020 H   0  0  0  0  0  0  0  0  0  0  0  0
   40.7050   33.1580   40.6430 N   0  0  0  0  0  0  0  0  0  0  0  0
  1  2  2  0  0  0  0
  1  6  1  0  0  0  0
  2  3  1  0  0  0  0
  3  8  1  0  0  0  0
  3  4  2  0  0  0  0
  4  9  1  0  0  0  0
  5  4  1  0  0  0  0
  5 10  1  0  0  0  0
  6  5  2  0  0  0  0
  7  2  1  0  0  0  0
 11 12  1  0  0  0  0
 12 18  1  0  0  0  0
 12 13  2  0  0  0  0
 13  1  1  0  0  0  0
 14 13  1  0  0  0  0
 15 14  2  0  0  0  0
 16 11  2  0  0  0  0
 16 15  1  0  0  0  0
 17 11  1  0  0  0  0
 19 15  1  0  0  0  0
 20 21  2  0  0  0  0
 22 20  1  0  0  0  0
 22  6  1  0  0  0  0
 23 22  1  0  0  0  0
 24 20  1  0  0  0  0
 25 24  2  0  0  0  0
 26 25  1  0  0  0  0
 27 29  1  0  0  0  0
 27 25  1  0  0  0  0
 28 27  1  0  0  0  0
 29 31  2  0  0  0  0
 30 29  1  0  0  0  0
 31 24  1  0  0  0  0
M  END
>  <minimizedAffinity>
-5.12203121

$$$$

 OpenBabel03242517013D

 31 33  0  0  0  0  0  0  0  0999 V2000
   37.4580   31.6390   39.9010 C   0  0  0  0  0  0  0  0  0  0  0  0
   37.2020   32.9520   39.5350 C   0  0  0  0  0  0  0  0  0  0  0  0
   38.0690   33.9460   39.9650 C   0  0  0  0  0  0  0  0  0  0  0  0
   39.1490   33.6110   40.7370 C   0  0  0  0  0  0  0  0  0  0  0  0
   39.4330   32.3320   41.1160 C   0  0  0  0  0  0  0  0  0  0  0  0
   38.5390   31.3530   40.6650 C   0  0  0  0  0  0  0  0  0  0  0  0
   36.3300   33.2030   38.9150 H   0  0  0  0  0  0  0  0  0  0  0  0
   37.8180   34.9490   39.6480 H   0  0  0  0  0  0  0  0  0  0  0  0
   39.7840   34.4380   41.0370 H   0  0  0  0  0  0  0  0  0  0  0  0
   40.2680   32.0610   41.7150 H   0  0  0  0  0  0  0  0  0  0  0  0
   35.4810   29.2380   37.7560 C   0  0  0  0  0  0  0  0  0  0  0  0
   36.4340   30.2130   38.1080 C   0  0  0  0  0  0  0  0  0  0  0  0
   36.5120   30.6360   39.4180 C   0  0  0  0  0  0  0  0  0  0  0  0
   35.6480   30.0770   40.3090 N   0  0  0  0  0  0  0  0  0  0  0  0
   34.7350   29.1420   39.9700 C   0  0  0  0  0  0  0  0  0  0  0  0
   34.6530   28.7220   38.6800 N   0  0  0  0  0  0  0  0  0  0  0  0
   35.5200   28.9930   36.7030 H   0  0  0  0  0  0  0  0  0  0  0  0
   37.1110   30.6500   37.4040 H   0  0  0  0  0  0  0  0  0  0  0  0
   34.0620   28.7190   40.7130 H   0  0  0  0  0  0  0  0  0  0  0  0
   38.6450   29.2130   42.1760 C   0  0  0  0  0  0  0  0  0  0  0  0
   38.4010   29.6190   43.3130 O   0  0  0  0  0  0  0  0  0  0  0  0
   38.7120   29.9820   40.9850 N   0  0  0  0  0  0  0  0  0  0  0  0
   38.9340   29.5620   40.0520 H   0  0  0  0  0  0  0  0  0  0  0  0
   38.9000   27.7820   42.0010 C   0  0  0  0  0  0  0  0  0  0  0  0
   38.8670   26.8820   43.0310 C   0  0  0  0  0  0  0  0  0  0  0  0
   38.6590   27.0570   44.0970 H   0  0  0  0  0  0  0  0  0  0  0  0
   39.1310   25.6250   42.6390 N   0  0  0  0  0  0  0  0  0  0  0  0
   39.1760   24.7450   43.1940 H   0  0  0  0  0  0  0  0  0  0  0  0
   39.3400   25.7380   41.3020 C   0  0  0  0  0  0  0  0  0  0  0  0
   39.5840   24.9270   40.6140 H   0  0  0  0  0  0  0  0  0  0  0  0
   39.2000   27.0320   40.9260 N   0  0  0  0  0  0  0  0  0  0  0  0
  1  6  1  0  0  0  0
  2  1  2  0  0  0  0
  2  3  1  0  0  0  0
  3  4  2  0  0  0  0
  4  9  1  0  0  0  0
  4  5  1  0  0  0  0
  5 10  1  0  0  0  0
  6 22  1  0  0  0  0
  6  5  2  0  0  0  0
  7  2  1  0  0  0  0
  8  3  1  0  0  0  0
 11 12  2  0  0  0  0
 11 16  1  0  0  0  0
 12 13  1  0  0  0  0
 13  1  1  0  0  0  0
 13 14  2  0  0  0  0
 15 14  1  0  0  0  0
 15 19  1  0  0  0  0
 16 15  2  0  0  0  0
 17 11  1  0  0  0  0
 18 12  1  0  0  0  0
 20 21  2  0  0  0  0
 22 20  1  0  0  0  0
 23 22  1  0  0  0  0
 24 20  1  0  0  0  0
 24 25  2  0  0  0  0
 25 26  1  0  0  0  0
 27 25  1  0  0  0  0
 27 28  1  0  0  0  0
 29 27  1  0  0  0  0
 30 29  1  0  0  0  0
 31 29  2  0  0  0  0
 31 24  1  0  0  0  0
M  END
>  <minimizedAffinity>
-5.0705862

$$$$

 OpenBabel03242517013D

 31 33  0  0  0  0  0  0  0  0999 V2000
   36.9710   26.8410   40.9530 C   0  0  0  0  0  0  0  0  0  0  0  0
   37.0470   26.1930   42.1770 C   0  0  0  0  0  0  0  0  0  0  0  0
   36.9140   24.8120   42.2090 C   0  0  0  0  0  0  0  0  0  0  0  0
   36.7130   24.1260   41.0410 C   0  0  0  0  0  0  0  0  0  0  0  0
   36.6330   24.7300   39.8200 C   0  0  0  0  0  0  0  0  0  0  0  0
   36.7710   26.1230   39.8230 C   0  0  0  0  0  0  0  0  0  0  0  0
   37.2080   26.7590   43.1040 H   0  0  0  0  0  0  0  0  0  0  0  0
   36.9810   24.3620   43.1900 H   0  0  0  0  0  0  0  0  0  0  0  0
   36.6180   23.0490   41.1400 H   0  0  0  0  0  0  0  0  0  0  0  0
   36.4770   24.2090   38.9080 H   0  0  0  0  0  0  0  0  0  0  0  0
   38.3290   30.3550   41.2450 C   0  0  0  0  0  0  0  0  0  0  0  0
   38.3040   28.9470   41.2450 C   0  0  0  0  0  0  0  0  0  0  0  0
   37.1190   28.2950   40.9820 C   0  0  0  0  0  0  0  0  0  0  0  0
   36.0230   29.0630   40.7330 N   0  0  0  0  0  0  0  0  0  0  0  0
   36.0480   30.4130   40.7340 C   0  0  0  0  0  0  0  0  0  0  0  0
   37.2140   31.0620   40.9930 N   0  0  0  0  0  0  0  0  0  0  0  0
   39.3140   30.7450   41.4650 H   0  0  0  0  0  0  0  0  0  0  0  0
   39.1690   28.3480   41.4410 H   0  0  0  0  0  0  0  0  0  0  0  0
   35.1480   30.9910   40.5300 H   0  0  0  0  0  0  0  0  0  0  0  0
   35.7210   27.1100   37.6330 C   0  0  0  0  0  0  0  0  0  0  0  0
   34.5810   26.6450   37.5940 O   0  0  0  0  0  0  0  0  0  0  0  0
   36.7100   26.8800   38.6240 N   0  0  0  0  0  0  0  0  0  0  0  0
   37.6630   27.3090   38.5820 H   0  0  0  0  0  0  0  0  0  0  0  0
   36.1320   28.0030   36.5480 C   0  0  0  0  0  0  0  0  0  0  0  0
   37.2440   27.7900   35.7780 C   0  0  0  0  0  0  0  0  0  0  0  0
   37.9760   26.9710   35.8330 H   0  0  0  0  0  0  0  0  0  0  0  0
   37.4250   28.7360   34.8440 N   0  0  0  0  0  0  0  0  0  0  0  0
   38.1740   28.8360   34.1260 H   0  0  0  0  0  0  0  0  0  0  0  0
   36.3810   29.5830   35.0310 C   0  0  0  0  0  0  0  0  0  0  0  0
   36.1710   30.4900   34.4610 H   0  0  0  0  0  0  0  0  0  0  0  0
   35.6090   29.1390   36.0520 N   0  0  0  0  0  0  0  0  0  0  0  0
  1 13  1  0  0  0  0
  1  2  1  0  0  0  0
  2  3  2  0  0  0  0
  2  7  1  0  0  0  0
  3  8  1  0  0  0  0
  4  9  1  0  0  0  0
  4  3  1  0  0  0  0
  5  6  1  0  0  0  0
  5  4  2  0  0  0  0
  6  1  2  0  0  0  0
 10  5  1  0  0  0  0
 11 17  1  0  0  0  0
 12 11  1  0  0  0  0
 12 18  1  0  0  0  0
 13 12  2  0  0  0  0
 14 15  2  0  0  0  0
 14 13  1  0  0  0  0
 15 16  1  0  0  0  0
 16 11  2  0  0  0  0
 19 15  1  0  0  0  0
 20 22  1  0  0  0  0
 21 20  2  0  0  0  0
 22  6  1  0  0  0  0
 23 22  1  0  0  0  0
 24 20  1  0  0  0  0
 25 26  1  0  0  0  0
 25 24  2  0  0  0  0
 27 29  1  0  0  0  0
 27 25  1  0  0  0  0
 28 27  1  0  0  0  0
 29 31  2  0  0  0  0
 30 29  1  0  0  0  0
 31 24  1  0  0  0  0
M  END
>  <minimizedAffinity>
-5.05073357

$$$$

 OpenBabel03242517013D

 31 33  0  0  0  0  0  0  0  0999 V2000
   37.1310   27.5820   40.5760 C   0  0  0  0  0  0  0  0  0  0  0  0
   36.9620   26.2280   40.8260 C   0  0  0  0  0  0  0  0  0  0  0  0
   37.1390   25.7620   42.1210 C   0  0  0  0  0  0  0  0  0  0  0  0
   37.4740   26.6420   43.1150 C   0  0  0  0  0  0  0  0  0  0  0  0
   37.6490   27.9780   42.9070 C   0  0  0  0  0  0  0  0  0  0  0  0
   37.4630   28.4170   41.5900 C   0  0  0  0  0  0  0  0  0  0  0  0
   36.6930   25.5370   40.0160 H   0  0  0  0  0  0  0  0  0  0  0  0
   36.9930   24.6980   42.2540 H   0  0  0  0  0  0  0  0  0  0  0  0
   37.5960   26.2080   44.1030 H   0  0  0  0  0  0  0  0  0  0  0  0
   37.9100   28.6700   43.6700 H   0  0  0  0  0  0  0  0  0  0  0  0
   37.3570   28.0080   36.8290 C   0  0  0  0  0  0  0  0  0  0  0  0
   37.6350   27.5160   38.1190 C   0  0  0  0  0  0  0  0  0  0  0  0
   36.9320   28.0150   39.1950 C   0  0  0  0  0  0  0  0  0  0  0  0
   35.9940   28.9680   38.9430 N   0  0  0  0  0  0  0  0  0  0  0  0
   35.7290   29.4390   37.7050 C   0  0  0  0  0  0  0  0  0  0  0  0
   36.4190   28.9510   36.6410 N   0  0  0  0  0  0  0  0  0  0  0  0
   37.9740   27.5380   36.0730 H   0  0  0  0  0  0  0  0  0  0  0  0
   38.3730   26.7660   38.3120 H   0  0  0  0  0  0  0  0  0  0  0  0
   34.9700   30.2030   37.5460 H   0  0  0  0  0  0  0  0  0  0  0  0
   38.6460   30.7440   41.3580 C   0  0  0  0  0  0  0  0  0  0  0  0
   39.7550   30.5850   41.8710 O   0  0  0  0  0  0  0  0  0  0  0  0
   37.6130   29.7810   41.2300 N   0  0  0  0  0  0  0  0  0  0  0  0
   36.6900   29.9970   40.7850 H   0  0  0  0  0  0  0  0  0  0  0  0
   38.3300   32.0650   40.8110 C   0  0  0  0  0  0  0  0  0  0  0  0
   37.1350   32.3650   40.2140 C   0  0  0  0  0  0  0  0  0  0  0  0
   36.2620   31.7160   40.0490 H   0  0  0  0  0  0  0  0  0  0  0  0
   37.0670   33.6350   39.7870 N   0  0  0  0  0  0  0  0  0  0  0  0
   36.2930   34.1390   39.3030 H   0  0  0  0  0  0  0  0  0  0  0  0
   38.2710   34.1610   40.1300 C   0  0  0  0  0  0  0  0  0  0  0  0
   38.6060   35.1840   39.9510 H   0  0  0  0  0  0  0  0  0  0  0  0
   39.0230   33.2160   40.7430 N   0  0  0  0  0  0  0  0  0  0  0  0
  1  2  2  0  0  0  0
  1  6  1  0  0  0  0
  2  3  1  0  0  0  0
  3  8  1  0  0  0  0
  3  4  2  0  0  0  0
  4  9  1  0  0  0  0
  5  4  1  0  0  0  0
  5 10  1  0  0  0  0
  6  5  2  0  0  0  0
  7  2  1  0  0  0  0
 11 12  1  0  0  0  0
 12 18  1  0  0  0  0
 12 13  2  0  0  0  0
 13  1  1  0  0  0  0
 14 13  1  0  0  0  0
 15 14  2  0  0  0  0
 16 11  2  0  0  0  0
 16 15  1  0  0  0  0
 17 11  1  0  0  0  0
 19 15  1  0  0  0  0
 20 21  2  0  0  0  0
 22 20  1  0  0  0  0
 22  6  1  0  0  0  0
 23 22  1  0  0  0  0
 24 20  1  0  0  0  0
 25 24  2  0  0  0  0
 26 25  1  0  0  0  0
 27 29  1  0  0  0  0
 27 25  1  0  0  0  0
 28 27  1  0  0  0  0
 29 31  2  0  0  0  0
 30 29  1  0  0  0  0
 31 24  1  0  0  0  0
M  END
>  <minimizedAffinity>
-5.03964663

$$$$
