
 OpenBabel03252508493D

 27 29  0  0  0  0  0  0  0  0999 V2000
   45.9510   34.1980   41.0320 C   0  0  0  0  0  0  0  0  0  0  0  0
   46.5420   34.8050   42.1340 C   0  0  0  0  0  0  0  0  0  0  0  0
   47.8830   35.1580   42.0060 C   0  0  0  0  0  0  0  0  0  0  0  0
   48.5240   34.8910   40.8350 N   0  0  0  0  0  0  0  0  0  0  0  0
   47.9180   34.3050   39.8000 C   0  0  0  0  0  0  0  0  0  0  0  0
   46.6200   33.9540   39.8960 N   0  0  0  0  0  0  0  0  0  0  0  0
   48.3600   35.6310   42.8520 H   0  0  0  0  0  0  0  0  0  0  0  0
   48.4150   34.0870   38.8630 H   0  0  0  0  0  0  0  0  0  0  0  0
   45.7620   35.0420   43.3360 C   0  0  0  0  0  0  0  0  0  0  0  0
   45.0800   36.2320   43.5590 C   0  0  0  0  0  0  0  0  0  0  0  0
   44.4880   36.0350   44.7930 C   0  0  0  0  0  0  0  0  0  0  0  0
   44.7920   34.8030   45.2850 N   0  0  0  0  0  0  0  0  0  0  0  0
   45.5600   34.2330   44.3820 N   0  0  0  0  0  0  0  0  0  0  0  0
   44.9950   37.1230   42.9580 H   0  0  0  0  0  0  0  0  0  0  0  0
   43.8630   36.7840   45.2890 H   0  0  0  0  0  0  0  0  0  0  0  0
   44.4690   34.4040   46.2070 H   0  0  0  0  0  0  0  0  0  0  0  0
   44.6190   33.8310   41.1170 O   0  0  0  0  0  0  0  0  0  0  0  0
   43.5460   34.4630   40.5560 C   0  0  0  0  0  0  0  0  0  0  0  0
   43.1550   35.6650   40.7730 O   0  0  0  0  0  0  0  0  0  0  0  0
   42.6340   33.8090   39.5660 C   0  0  0  0  0  0  0  0  0  0  0  0
   41.4220   34.3080   39.1470 C   0  0  0  0  0  0  0  0  0  0  0  0
   40.8960   35.2140   39.4130 H   0  0  0  0  0  0  0  0  0  0  0  0
   40.8430   33.4710   38.2470 N   0  0  0  0  0  0  0  0  0  0  0  0
   39.9360   33.5620   37.7490 H   0  0  0  0  0  0  0  0  0  0  0  0
   41.7230   32.4630   38.1320 C   0  0  0  0  0  0  0  0  0  0  0  0
   41.5820   31.6010   37.4840 H   0  0  0  0  0  0  0  0  0  0  0  0
   42.7970   32.6510   38.9130 N   0  0  0  0  0  0  0  0  0  0  0  0
  1 17  1  0  0  0  0
  1  2  1  0  0  0  0
  2  9  1  0  0  0  0
  3  2  2  0  0  0  0
  3  7  1  0  0  0  0
  4  3  1  0  0  0  0
  5  6  1  0  0  0  0
  5  4  2  0  0  0  0
  6  1  2  0  0  0  0
  8  5  1  0  0  0  0
  9 10  1  0  0  0  0
  9 13  2  0  0  0  0
 10 11  2  0  0  0  0
 11 12  1  0  0  0  0
 11 15  1  0  0  0  0
 12 16  1  0  0  0  0
 13 12  1  0  0  0  0
 14 10  1  0  0  0  0
 18 19  2  0  0  0  0
 18 17  1  0  0  0  0
 20 18  1  0  0  0  0
 21 22  1  0  0  0  0
 21 20  2  0  0  0  0
 23 21  1  0  0  0  0
 24 23  1  0  0  0  0
 25 23  1  0  0  0  0
 25 27  2  0  0  0  0
 26 25  1  0  0  0  0
 27 20  1  0  0  0  0
M  END
>  <minimizedAffinity>
-5.02318525

>  <minimizedRMSD>
0.44933182

$$$$
