
 OpenBabel03252508493D

 27 29  0  0  0  0  0  0  0  0999 V2000
   45.9960   34.2270   41.0620 C   0  0  0  0  0  0  0  0  0  0  0  0
   46.5760   34.7250   42.2230 C   0  0  0  0  0  0  0  0  0  0  0  0
   47.9300   35.0430   42.1560 C   0  0  0  0  0  0  0  0  0  0  0  0
   48.5930   34.8510   40.9820 N   0  0  0  0  0  0  0  0  0  0  0  0
   47.9970   34.3710   39.8890 C   0  0  0  0  0  0  0  0  0  0  0  0
   46.6870   34.0540   39.9260 N   0  0  0  0  0  0  0  0  0  0  0  0
   48.3990   35.4310   43.0490 H   0  0  0  0  0  0  0  0  0  0  0  0
   48.5110   34.2130   38.9490 H   0  0  0  0  0  0  0  0  0  0  0  0
   45.7730   34.8880   43.4220 C   0  0  0  0  0  0  0  0  0  0  0  0
   45.1390   36.0840   43.7370 C   0  0  0  0  0  0  0  0  0  0  0  0
   44.5040   35.8040   44.9320 C   0  0  0  0  0  0  0  0  0  0  0  0
   44.7360   34.5200   45.3160 N   0  0  0  0  0  0  0  0  0  0  0  0
   45.5030   33.9980   44.3840 N   0  0  0  0  0  0  0  0  0  0  0  0
   45.1140   37.0290   43.2190 H   0  0  0  0  0  0  0  0  0  0  0  0
   43.8990   36.5350   45.4790 H   0  0  0  0  0  0  0  0  0  0  0  0
   44.3670   34.0550   46.1880 H   0  0  0  0  0  0  0  0  0  0  0  0
   44.6520   33.8980   41.0860 O   0  0  0  0  0  0  0  0  0  0  0  0
   43.6050   34.6440   40.6240 C   0  0  0  0  0  0  0  0  0  0  0  0
   43.2750   35.8260   40.9960 O   0  0  0  0  0  0  0  0  0  0  0  0
   42.6530   34.1630   39.5750 C   0  0  0  0  0  0  0  0  0  0  0  0
   42.0460   34.9540   38.6260 C   0  0  0  0  0  0  0  0  0  0  0  0
   42.1140   36.0150   38.4360 H   0  0  0  0  0  0  0  0  0  0  0  0
   41.2360   34.2080   37.8280 N   0  0  0  0  0  0  0  0  0  0  0  0
   40.6460   34.5050   37.0270 H   0  0  0  0  0  0  0  0  0  0  0  0
   41.3670   32.9620   38.3100 C   0  0  0  0  0  0  0  0  0  0  0  0
   40.8530   32.0940   37.9030 H   0  0  0  0  0  0  0  0  0  0  0  0
   42.2090   32.9200   39.3520 N   0  0  0  0  0  0  0  0  0  0  0  0
  1 17  1  0  0  0  0
  1  2  1  0  0  0  0
  2  9  1  0  0  0  0
  3  2  2  0  0  0  0
  3  7  1  0  0  0  0
  4  3  1  0  0  0  0
  5  6  1  0  0  0  0
  5  4  2  0  0  0  0
  6  1  2  0  0  0  0
  8  5  1  0  0  0  0
  9 10  1  0  0  0  0
  9 13  2  0  0  0  0
 10 11  2  0  0  0  0
 11 12  1  0  0  0  0
 11 15  1  0  0  0  0
 12 16  1  0  0  0  0
 13 12  1  0  0  0  0
 14 10  1  0  0  0  0
 18 19  2  0  0  0  0
 18 17  1  0  0  0  0
 20 18  1  0  0  0  0
 21 20  2  0  0  0  0
 22 21  1  0  0  0  0
 23 25  1  0  0  0  0
 23 21  1  0  0  0  0
 24 23  1  0  0  0  0
 25 27  2  0  0  0  0
 26 25  1  0  0  0  0
 27 20  1  0  0  0  0
M  END
>  <minimizedAffinity>
-5.23426771

>  <minimizedRMSD>
0.692087233

$$$$
