
 OpenBabel03242520403D

 38 41  0  0  1  0  0  0  0  0999 V2000
   45.9230   33.5080   45.8220 C   0  0  0  0  0  0  0  0  0  0  0  0
   46.6810   33.6330   44.6510 C   0  0  0  0  0  0  0  0  0  0  0  0
   47.3070   32.4590   44.1370 C   0  0  0  0  0  0  0  0  0  0  0  0
   47.1270   31.2860   44.8180 N   0  0  0  0  0  0  0  0  0  0  0  0
   46.3860   31.2340   45.9370 C   0  0  0  0  0  0  0  0  0  0  0  0
   45.7810   32.3380   46.4460 N   0  0  0  0  0  0  0  0  0  0  0  0
   46.2730   29.9800   46.5530 N   0  0  0  0  0  0  0  0  0  0  0  0
   47.4280   29.2780   47.0100 C   0  0  2  0  0  0  0  0  0  0  0  0
   47.1920   27.8600   47.3870 C   0  0  0  0  0  0  0  0  0  0  0  0
   45.9110   27.5360   47.8950 N   0  0  0  0  0  0  0  0  0  0  0  0
   45.0330   28.6400   48.0410 C   0  0  0  0  0  0  0  0  0  0  0  0
   44.9620   29.3780   46.7350 C   0  0  0  0  0  0  0  0  0  0  0  0
   45.4850   34.4470   46.1410 H   0  0  0  0  0  0  0  0  0  0  0  0
   46.8090   34.5720   44.1300 H   0  0  0  0  0  0  0  0  0  0  0  0
   47.8920   32.5270   43.2430 H   0  0  0  0  0  0  0  0  0  0  0  0
   48.1120   29.2200   46.1070 H   0  0  0  0  0  0  0  0  0  0  0  0
   47.3990   27.1660   46.5490 H   0  0  0  0  0  0  0  0  0  0  0  0
   47.9480   27.5890   48.1810 H   0  0  0  0  0  0  0  0  0  0  0  0
   45.4590   26.7080   47.4560 H   0  0  0  0  0  0  0  0  0  0  0  0
   45.2510   29.2590   48.9050 H   0  0  0  0  0  0  0  0  0  0  0  0
   44.0100   28.2000   48.2490 H   0  0  0  0  0  0  0  0  0  0  0  0
   44.2270   30.2200   46.8320 H   0  0  0  0  0  0  0  0  0  0  0  0
   44.6560   28.6980   45.9440 H   0  0  0  0  0  0  0  0  0  0  0  0
   48.1740   30.0470   48.0430 C   0  0  0  0  0  0  0  0  0  0  0  0
   47.7670   30.8690   49.0610 C   0  0  0  0  0  0  0  0  0  0  0  0
   48.8120   31.3420   49.7570 N   0  0  0  0  0  0  0  0  0  0  0  0
   49.8920   30.8110   49.1720 C   0  0  0  0  0  0  0  0  0  0  0  0
   49.5140   30.0440   48.1560 N   0  0  0  0  0  0  0  0  0  0  0  0
   46.7370   31.1080   49.2750 H   0  0  0  0  0  0  0  0  0  0  0  0
   48.7800   31.9870   50.5810 H   0  0  0  0  0  0  0  0  0  0  0  0
   51.2700   31.0390   49.5790 C   0  0  0  0  0  0  0  0  0  0  0  0
   51.9970   30.2370   50.4690 C   0  0  0  0  0  0  0  0  0  0  0  0
   51.5850   29.3420   50.9540 H   0  0  0  0  0  0  0  0  0  0  0  0
   53.2490   30.6740   50.6660 N   0  0  0  0  0  0  0  0  0  0  0  0
   54.0270   30.3380   51.2350 H   0  0  0  0  0  0  0  0  0  0  0  0
   53.3210   31.7570   49.9000 C   0  0  0  0  0  0  0  0  0  0  0  0
   54.0860   32.4920   49.6780 H   0  0  0  0  0  0  0  0  0  0  0  0
   52.1700   31.9800   49.2610 N   0  0  0  0  0  0  0  0  0  0  0  0
  1 13  1  0  0  0  0
  1  6  1  0  0  0  0
  2  1  2  0  0  0  0
  3  2  1  0  0  0  0
  3  4  2  0  0  0  0
  4  5  1  0  0  0  0
  5  6  2  0  0  0  0
  5  7  1  0  0  0  0
  7 12  1  0  0  0  0
  7  8  1  0  0  0  0
  8 16  1  6  0  0  0
  8  9  1  0  0  0  0
  8 24  1  0  0  0  0
  9 10  1  0  0  0  0
  9 18  1  0  0  0  0
 10 11  1  0  0  0  0
 11 21  1  0  0  0  0
 11 20  1  0  0  0  0
 12 22  1  0  0  0  0
 12 11  1  0  0  0  0
 14  2  1  0  0  0  0
 15  3  1  0  0  0  0
 17  9  1  0  0  0  0
 19 10  1  0  0  0  0
 23 12  1  0  0  0  0
 24 28  1  0  0  0  0
 24 25  2  0  0  0  0
 25 29  1  0  0  0  0
 25 26  1  0  0  0  0
 26 30  1  0  0  0  0
 27 31  1  0  0  0  0
 27 26  1  0  0  0  0
 28 27  2  0  0  0  0
 31 32  2  0  0  0  0
 32 34  1  0  0  0  0
 32 33  1  0  0  0  0
 34 35  1  0  0  0  0
 36 34  1  0  0  0  0
 37 36  1  0  0  0  0
 38 31  1  0  0  0  0
 38 36  2  0  0  0  0
M  END
>  <minimizedAffinity>
-4.87933826

>  <minimizedRMSD>
0.0699636415

$$$$
