
 OpenBabel03242516173D

 42 45  0  0  1  0  0  0  0  0999 V2000
   37.7350   27.5610   42.6900 C   0  0  0  0  0  0  0  0  0  0  0  0
   36.6150   27.2450   43.6730 C   0  0  0  0  0  0  0  0  0  0  0  0
   37.3360   28.5190   43.6790 C   0  0  0  0  0  0  0  0  0  0  0  0
   35.5630   27.1860   43.3060 H   0  0  0  0  0  0  0  0  0  0  0  0
   36.8290   26.4190   44.3810 H   0  0  0  0  0  0  0  0  0  0  0  0
   36.7190   29.3970   43.3170 H   0  0  0  0  0  0  0  0  0  0  0  0
   37.6840   28.7080   44.6990 H   0  0  0  0  0  0  0  0  0  0  0  0
   37.2380   27.7250   41.2840 C   0  0  0  0  0  0  0  0  0  0  0  0
   38.2920   28.1290   40.2700 C   0  0  0  0  0  0  0  0  0  0  0  0
   37.5860   28.1160   38.9180 C   0  0  0  0  0  0  0  0  0  0  0  0
   36.7910   29.2700   38.8760 O   0  0  0  0  0  0  0  0  0  0  0  0
   35.7210   28.9360   39.7470 C   0  0  0  0  0  0  0  0  0  0  0  0
   36.2310   28.8920   41.1820 C   0  0  0  0  0  0  0  0  0  0  0  0
   36.7380   26.8290   40.8970 H   0  0  0  0  0  0  0  0  0  0  0  0
   38.6520   29.1470   40.4620 H   0  0  0  0  0  0  0  0  0  0  0  0
   39.0860   27.3580   40.2020 H   0  0  0  0  0  0  0  0  0  0  0  0
   38.3520   28.1210   38.1060 H   0  0  0  0  0  0  0  0  0  0  0  0
   36.9020   27.2410   38.8540 H   0  0  0  0  0  0  0  0  0  0  0  0
   34.9710   29.7210   39.6400 H   0  0  0  0  0  0  0  0  0  0  0  0
   35.3290   27.9330   39.4950 H   0  0  0  0  0  0  0  0  0  0  0  0
   35.3480   28.5970   41.8000 H   0  0  0  0  0  0  0  0  0  0  0  0
   36.6970   29.8390   41.4790 H   0  0  0  0  0  0  0  0  0  0  0  0
   40.1160   27.3750   43.4530 C   0  0  0  0  0  0  0  0  0  0  0  0
   38.9880   26.7870   42.8600 C   0  0  0  0  0  0  0  0  0  0  0  0
   39.1180   25.4680   42.4380 C   0  0  0  0  0  0  0  0  0  0  0  0
   40.3060   24.8160   42.6140 N   0  0  0  0  0  0  0  0  0  0  0  0
   41.3370   25.4410   43.1860 C   0  0  0  0  0  0  0  0  0  0  0  0
   41.2620   26.6920   43.6020 N   0  0  0  0  0  0  0  0  0  0  0  0
   42.6000   24.7960   43.3790 N   0  0  0  0  0  0  0  0  0  0  0  0
   40.0170   28.3890   43.7780 H   0  0  0  0  0  0  0  0  0  0  0  0
   43.3830   25.2770   42.8520 H   0  0  0  0  0  0  0  0  0  0  0  0
   42.7780   23.9460   43.9640 H   0  0  0  0  0  0  0  0  0  0  0  0
   38.0670   24.7610   41.7630 C   0  0  2  0  0  3  0  0  0  0  0  0
   37.0850   24.1090   42.3140 O   0  0  0  0  0  1  0  0  0  0  0  0
   37.6040   24.4290   40.4190 C   0  0  0  0  0  0  0  0  0  0  0  0
   38.2220   24.2060   39.2270 C   0  0  0  0  0  0  0  0  0  0  0  0
   39.3200   24.1750   39.1290 H   0  0  0  0  0  0  0  0  0  0  0  0
   37.2770   24.0390   38.2470 N   0  0  0  0  0  0  0  0  0  0  0  0
   37.6340   23.8600   37.2870 H   0  0  0  0  0  0  0  0  0  0  0  0
   36.0760   24.1550   38.8190 C   0  0  0  0  0  0  0  0  0  0  0  0
   35.2230   24.0510   38.1930 H   0  0  0  0  0  0  0  0  0  0  0  0
   36.2980   24.3870   40.1100 N   0  0  0  0  0  0  0  0  0  0  0  0
  1 24  1  0  0  0  0
  1  2  1  0  0  0  0
  1  3  1  0  0  0  0
  2  3  1  0  0  0  0
  2  5  1  0  0  0  0
  3  7  1  0  0  0  0
  4  2  1  0  0  0  0
  6  3  1  0  0  0  0
  8  1  1  0  0  0  0
  9 15  1  0  0  0  0
  9  8  1  0  0  0  0
 10  9  1  0  0  0  0
 11 10  1  0  0  0  0
 11 12  1  0  0  0  0
 12 13  1  0  0  0  0
 13  8  1  0  0  0  0
 13 22  1  0  0  0  0
 13 21  1  0  0  0  0
 14  8  1  0  0  0  0
 16  9  1  0  0  0  0
 17 10  1  0  0  0  0
 18 10  1  0  0  0  0
 19 12  1  0  0  0  0
 20 12  1  0  0  0  0
 23 28  1  0  0  0  0
 23 30  1  0  0  0  0
 24 23  2  0  0  0  0
 25 26  2  0  0  0  0
 25 24  1  0  0  0  0
 26 27  1  0  0  0  0
 27 29  1  0  0  0  0
 27 28  2  0  0  0  0
 29 32  1  0  0  0  0
 31 29  1  0  0  0  0
 33 34  1  1  0  0  0
 33 25  1  0  0  0  0
 35 33  1  0  0  0  0
 36 35  2  0  0  0  0
 37 36  1  0  0  0  0
 38 40  1  0  0  0  0
 38 36  1  0  0  0  0
 39 38  1  0  0  0  0
 40 42  2  0  0  0  0
 41 40  1  0  0  0  0
 42 35  1  0  0  0  0
M  END
>  <minimizedAffinity>
-5.48690462

$$$$

 OpenBabel03242516173D

 42 45  0  0  1  0  0  0  0  0999 V2000
   37.5150   27.2940   42.1140 C   0  0  0  0  0  0  0  0  0  0  0  0
   36.5720   27.1920   43.3060 C   0  0  0  0  0  0  0  0  0  0  0  0
   36.4280   28.2170   42.2710 C   0  0  0  0  0  0  0  0  0  0  0  0
   35.8560   26.3390   43.3680 H   0  0  0  0  0  0  0  0  0  0  0  0
   37.0380   27.3830   44.2940 H   0  0  0  0  0  0  0  0  0  0  0  0
   35.5310   28.0650   41.5960 H   0  0  0  0  0  0  0  0  0  0  0  0
   36.3590   29.1910   42.7640 H   0  0  0  0  0  0  0  0  0  0  0  0
   37.3590   26.1510   41.1570 C   0  0  0  0  0  0  0  0  0  0  0  0
   38.6530   25.6260   40.5620 C   0  0  0  0  0  0  0  0  0  0  0  0
   38.2580   24.4100   39.7290 C   0  0  0  0  0  0  0  0  0  0  0  0
   37.6670   24.9080   38.5590 O   0  0  0  0  0  0  0  0  0  0  0  0
   36.3980   25.3490   39.0200 C   0  0  0  0  0  0  0  0  0  0  0  0
   36.5790   26.5830   39.8950 C   0  0  0  0  0  0  0  0  0  0  0  0
   36.8280   25.2950   41.5910 H   0  0  0  0  0  0  0  0  0  0  0  0
   39.1080   26.3680   39.8950 H   0  0  0  0  0  0  0  0  0  0  0  0
   39.3210   25.2400   41.3580 H   0  0  0  0  0  0  0  0  0  0  0  0
   39.1710   23.8120   39.5000 H   0  0  0  0  0  0  0  0  0  0  0  0
   37.4830   23.8180   40.2650 H   0  0  0  0  0  0  0  0  0  0  0  0
   35.8120   25.5990   38.1360 H   0  0  0  0  0  0  0  0  0  0  0  0
   35.9270   24.5600   39.6370 H   0  0  0  0  0  0  0  0  0  0  0  0
   35.5500   26.8510   40.2420 H   0  0  0  0  0  0  0  0  0  0  0  0
   37.1030   27.3860   39.3650 H   0  0  0  0  0  0  0  0  0  0  0  0
   39.6620   27.0370   43.3830 C   0  0  0  0  0  0  0  0  0  0  0  0
   38.9040   27.7160   42.4180 C   0  0  0  0  0  0  0  0  0  0  0  0
   39.5140   28.7950   41.7870 C   0  0  0  0  0  0  0  0  0  0  0  0
   40.7930   29.1380   42.1230 N   0  0  0  0  0  0  0  0  0  0  0  0
   41.4540   28.4450   43.0530 C   0  0  0  0  0  0  0  0  0  0  0  0
   40.9150   27.4150   43.6800 N   0  0  0  0  0  0  0  0  0  0  0  0
   42.7900   28.7800   43.4390 N   0  0  0  0  0  0  0  0  0  0  0  0
   39.1930   26.2070   43.8690 H   0  0  0  0  0  0  0  0  0  0  0  0
   42.8580   29.0520   44.4610 H   0  0  0  0  0  0  0  0  0  0  0  0
   43.6340   28.7720   42.8200 H   0  0  0  0  0  0  0  0  0  0  0  0
   38.8390   29.6160   40.8230 C   0  0  2  0  0  3  0  0  0  0  0  0
   38.5900   29.3200   39.5810 O   0  0  0  0  0  1  0  0  0  0  0  0
   38.2070   30.9260   40.6920 C   0  0  0  0  0  0  0  0  0  0  0  0
   36.9230   31.3560   40.5630 C   0  0  0  0  0  0  0  0  0  0  0  0
   36.0630   30.6670   40.6190 H   0  0  0  0  0  0  0  0  0  0  0  0
   36.9130   32.7120   40.3650 N   0  0  0  0  0  0  0  0  0  0  0  0
   35.9790   33.1560   40.2530 H   0  0  0  0  0  0  0  0  0  0  0  0
   38.1800   33.1320   40.3710 C   0  0  0  0  0  0  0  0  0  0  0  0
   38.3540   34.1710   40.2280 H   0  0  0  0  0  0  0  0  0  0  0  0
   38.9310   32.0510   40.5660 N   0  0  0  0  0  0  0  0  0  0  0  0
  1  3  1  0  0  0  0
  1 24  1  0  0  0  0
  1  2  1  0  0  0  0
  2  4  1  0  0  0  0
  2  5  1  0  0  0  0
  3  7  1  0  0  0  0
  3  2  1  0  0  0  0
  6  3  1  0  0  0  0
  8 14  1  0  0  0  0
  8  1  1  0  0  0  0
  9  8  1  0  0  0  0
  9 16  1  0  0  0  0
 10 18  1  0  0  0  0
 10  9  1  0  0  0  0
 11 12  1  0  0  0  0
 11 10  1  0  0  0  0
 12 20  1  0  0  0  0
 12 13  1  0  0  0  0
 13 21  1  0  0  0  0
 13  8  1  0  0  0  0
 15  9  1  0  0  0  0
 17 10  1  0  0  0  0
 19 12  1  0  0  0  0
 22 13  1  0  0  0  0
 23 28  1  0  0  0  0
 23 30  1  0  0  0  0
 24 23  2  0  0  0  0
 25 26  2  0  0  0  0
 25 24  1  0  0  0  0
 26 27  1  0  0  0  0
 27 29  1  0  0  0  0
 27 28  2  0  0  0  0
 29 31  1  0  0  0  0
 32 29  1  0  0  0  0
 33 34  1  6  0  0  0
 33 25  1  0  0  0  0
 35 33  1  0  0  0  0
 36 37  1  0  0  0  0
 36 35  2  0  0  0  0
 38 40  1  0  0  0  0
 38 36  1  0  0  0  0
 39 38  1  0  0  0  0
 40 42  2  0  0  0  0
 41 40  1  0  0  0  0
 42 35  1  0  0  0  0
M  END
>  <minimizedAffinity>
-5.43306541

$$$$

 OpenBabel03242516173D

 42 45  0  0  1  0  0  0  0  0999 V2000
   36.1070   29.1020   40.2380 C   0  0  0  0  0  0  0  0  0  0  0  0
   34.6190   29.3140   39.9890 C   0  0  0  0  0  0  0  0  0  0  0  0
   35.4410   28.4290   39.1610 C   0  0  0  0  0  0  0  0  0  0  0  0
   33.8770   28.8960   40.7090 H   0  0  0  0  0  0  0  0  0  0  0  0
   34.3340   30.3420   39.6870 H   0  0  0  0  0  0  0  0  0  0  0  0
   35.2200   27.3280   39.3070 H   0  0  0  0  0  0  0  0  0  0  0  0
   35.2840   28.7020   38.1130 H   0  0  0  0  0  0  0  0  0  0  0  0
   36.3760   28.3440   41.5050 C   0  0  0  0  0  0  0  0  0  0  0  0
   37.4100   28.9700   42.4240 C   0  0  0  0  0  0  0  0  0  0  0  0
   37.4240   28.1010   43.6770 C   0  0  0  0  0  0  0  0  0  0  0  0
   38.1150   26.9290   43.3380 O   0  0  0  0  0  0  0  0  0  0  0  0
   37.1700   26.2370   42.5350 C   0  0  0  0  0  0  0  0  0  0  0  0
   37.0060   26.9650   41.2070 C   0  0  0  0  0  0  0  0  0  0  0  0
   35.4730   28.1680   42.1010 H   0  0  0  0  0  0  0  0  0  0  0  0
   38.4080   28.9380   41.9710 H   0  0  0  0  0  0  0  0  0  0  0  0
   37.0790   29.9740   42.7570 H   0  0  0  0  0  0  0  0  0  0  0  0
   37.9390   28.6530   44.4980 H   0  0  0  0  0  0  0  0  0  0  0  0
   36.3850   27.8060   43.9460 H   0  0  0  0  0  0  0  0  0  0  0  0
   37.5720   25.2380   42.3670 H   0  0  0  0  0  0  0  0  0  0  0  0
   36.1860   26.2240   43.0400 H   0  0  0  0  0  0  0  0  0  0  0  0
   36.2320   26.3850   40.6470 H   0  0  0  0  0  0  0  0  0  0  0  0
   37.9610   27.0750   40.6800 H   0  0  0  0  0  0  0  0  0  0  0  0
   36.6640   31.5350   40.4650 C   0  0  0  0  0  0  0  0  0  0  0  0
   36.9850   30.2650   39.9660 C   0  0  0  0  0  0  0  0  0  0  0  0
   38.1450   30.1660   39.2030 C   0  0  0  0  0  0  0  0  0  0  0  0
   38.9020   31.2800   38.9790 N   0  0  0  0  0  0  0  0  0  0  0  0
   38.5330   32.4580   39.4860 C   0  0  0  0  0  0  0  0  0  0  0  0
   37.4410   32.6010   40.2150 N   0  0  0  0  0  0  0  0  0  0  0  0
   39.2940   33.6490   39.2660 N   0  0  0  0  0  0  0  0  0  0  0  0
   35.7730   31.6120   41.0520 H   0  0  0  0  0  0  0  0  0  0  0  0
   38.7440   34.3880   38.7410 H   0  0  0  0  0  0  0  0  0  0  0  0
   40.2830   33.8180   39.5690 H   0  0  0  0  0  0  0  0  0  0  0  0
   38.5640   28.9420   38.5800 C   0  0  2  0  0  3  0  0  0  0  0  0
   39.4610   28.1100   39.0200 O   0  0  0  0  0  1  0  0  0  0  0  0
   38.3110   28.1280   37.3950 C   0  0  0  0  0  0  0  0  0  0  0  0
   37.7510   28.3650   36.1780 C   0  0  0  0  0  0  0  0  0  0  0  0
   37.4330   29.3740   35.8620 H   0  0  0  0  0  0  0  0  0  0  0  0
   37.6680   27.1910   35.4760 N   0  0  0  0  0  0  0  0  0  0  0  0
   37.2540   27.2490   34.5240 H   0  0  0  0  0  0  0  0  0  0  0  0
   38.1730   26.2230   36.2450 C   0  0  0  0  0  0  0  0  0  0  0  0
   38.1840   25.2370   35.8490 H   0  0  0  0  0  0  0  0  0  0  0  0
   38.5470   26.8060   37.3810 N   0  0  0  0  0  0  0  0  0  0  0  0
  1  8  1  0  0  0  0
  2  1  1  0  0  0  0
  2  4  1  0  0  0  0
  3  6  1  0  0  0  0
  3  2  1  0  0  0  0
  3  1  1  0  0  0  0
  5  2  1  0  0  0  0
  7  3  1  0  0  0  0
  8 14  1  0  0  0  0
  8  9  1  0  0  0  0
  9 16  1  0  0  0  0
  9 10  1  0  0  0  0
 10 18  1  0  0  0  0
 10 17  1  0  0  0  0
 11 10  1  0  0  0  0
 12 20  1  0  0  0  0
 12 11  1  0  0  0  0
 13  8  1  0  0  0  0
 13 12  1  0  0  0  0
 15  9  1  0  0  0  0
 19 12  1  0  0  0  0
 21 13  1  0  0  0  0
 22 13  1  0  0  0  0
 23 30  1  0  0  0  0
 24  1  1  0  0  0  0
 24 23  2  0  0  0  0
 25 24  1  0  0  0  0
 26 25  2  0  0  0  0
 26 27  1  0  0  0  0
 27 28  2  0  0  0  0
 28 23  1  0  0  0  0
 29 27  1  0  0  0  0
 29 32  1  0  0  0  0
 31 29  1  0  0  0  0
 33 34  1  6  0  0  0
 33 25  1  0  0  0  0
 35 33  1  0  0  0  0
 36 35  2  0  0  0  0
 37 36  1  0  0  0  0
 38 36  1  0  0  0  0
 38 40  1  0  0  0  0
 39 38  1  0  0  0  0
 40 42  2  0  0  0  0
 41 40  1  0  0  0  0
 42 35  1  0  0  0  0
M  END
>  <minimizedAffinity>
-5.38214159

$$$$

 OpenBabel03242516173D

 42 45  0  0  1  0  0  0  0  0999 V2000
   37.3790   27.7520   42.2730 C   0  0  0  0  0  0  0  0  0  0  0  0
   37.9730   27.6210   43.6700 C   0  0  0  0  0  0  0  0  0  0  0  0
   36.5500   27.4170   43.3950 C   0  0  0  0  0  0  0  0  0  0  0  0
   38.6380   26.7570   43.9050 H   0  0  0  0  0  0  0  0  0  0  0  0
   38.3850   28.5580   44.0970 H   0  0  0  0  0  0  0  0  0  0  0  0
   36.2160   26.3380   43.4770 H   0  0  0  0  0  0  0  0  0  0  0  0
   35.9770   28.0360   44.0920 H   0  0  0  0  0  0  0  0  0  0  0  0
   37.8250   26.6540   41.3530 C   0  0  0  0  0  0  0  0  0  0  0  0
   37.4070   26.8180   39.9030 C   0  0  0  0  0  0  0  0  0  0  0  0
   38.0670   25.6650   39.1540 C   0  0  0  0  0  0  0  0  0  0  0  0
   37.3250   24.5160   39.4660 O   0  0  0  0  0  0  0  0  0  0  0  0
   37.7290   24.2430   40.7990 C   0  0  0  0  0  0  0  0  0  0  0  0
   37.1630   25.3100   41.7270 C   0  0  0  0  0  0  0  0  0  0  0  0
   38.9100   26.4970   41.3650 H   0  0  0  0  0  0  0  0  0  0  0  0
   36.3200   26.7240   39.7950 H   0  0  0  0  0  0  0  0  0  0  0  0
   37.8420   27.7430   39.4740 H   0  0  0  0  0  0  0  0  0  0  0  0
   38.0430   25.8790   38.0590 H   0  0  0  0  0  0  0  0  0  0  0  0
   39.1000   25.5050   39.5350 H   0  0  0  0  0  0  0  0  0  0  0  0
   37.3200   23.2660   41.0570 H   0  0  0  0  0  0  0  0  0  0  0  0
   38.8320   24.2780   40.8730 H   0  0  0  0  0  0  0  0  0  0  0  0
   37.5440   25.0470   42.7450 H   0  0  0  0  0  0  0  0  0  0  0  0
   36.0710   25.3760   41.6550 H   0  0  0  0  0  0  0  0  0  0  0  0
   36.1320   29.7790   41.4870 C   0  0  0  0  0  0  0  0  0  0  0  0
   37.3510   29.1200   41.7040 C   0  0  0  0  0  0  0  0  0  0  0  0
   38.5070   29.8070   41.3460 C   0  0  0  0  0  0  0  0  0  0  0  0
   38.4100   31.0610   40.8140 N   0  0  0  0  0  0  0  0  0  0  0  0
   37.2130   31.6250   40.6360 C   0  0  0  0  0  0  0  0  0  0  0  0
   36.0890   31.0130   40.9590 N   0  0  0  0  0  0  0  0  0  0  0  0
   37.0700   32.9330   40.0730 N   0  0  0  0  0  0  0  0  0  0  0  0
   35.2430   29.2520   41.7620 H   0  0  0  0  0  0  0  0  0  0  0  0
   36.5260   32.9220   39.1630 H   0  0  0  0  0  0  0  0  0  0  0  0
   37.4420   33.8250   40.4760 H   0  0  0  0  0  0  0  0  0  0  0  0
   39.8180   29.2330   41.4560 C   0  0  2  0  0  3  0  0  0  0  0  0
   40.4230   28.4910   40.5750 O   0  0  0  0  0  1  0  0  0  0  0  0
   40.9470   29.1500   42.3790 C   0  0  0  0  0  0  0  0  0  0  0  0
   41.8860   30.0320   42.8150 C   0  0  0  0  0  0  0  0  0  0  0  0
   41.8670   31.0990   42.5370 H   0  0  0  0  0  0  0  0  0  0  0  0
   42.7920   29.3780   43.6100 N   0  0  0  0  0  0  0  0  0  0  0  0
   43.5610   29.9550   44.0050 H   0  0  0  0  0  0  0  0  0  0  0  0
   42.4240   28.0960   43.6740 C   0  0  0  0  0  0  0  0  0  0  0  0
   43.0250   27.4410   44.2560 H   0  0  0  0  0  0  0  0  0  0  0  0
   41.3240   27.9860   42.9320 N   0  0  0  0  0  0  0  0  0  0  0  0
  1  3  1  0  0  0  0
  1  2  1  0  0  0  0
  2  4  1  0  0  0  0
  2  5  1  0  0  0  0
  3  6  1  0  0  0  0
  3  2  1  0  0  0  0
  3  7  1  0  0  0  0
  8 14  1  0  0  0  0
  8 13  1  0  0  0  0
  8  1  1  0  0  0  0
  9  8  1  0  0  0  0
 10 11  1  0  0  0  0
 10 18  1  0  0  0  0
 10  9  1  0  0  0  0
 11 12  1  0  0  0  0
 12 20  1  0  0  0  0
 12 19  1  0  0  0  0
 12 13  1  0  0  0  0
 13 21  1  0  0  0  0
 15  9  1  0  0  0  0
 16  9  1  0  0  0  0
 17 10  1  0  0  0  0
 22 13  1  0  0  0  0
 23 24  1  0  0  0  0
 23 30  1  0  0  0  0
 24  1  1  0  0  0  0
 25 33  1  0  0  0  0
 25 24  2  0  0  0  0
 26 25  1  0  0  0  0
 27 26  2  0  0  0  0
 27 28  1  0  0  0  0
 28 23  2  0  0  0  0
 29 32  1  0  0  0  0
 29 27  1  0  0  0  0
 31 29  1  0  0  0  0
 33 34  1  1  0  0  0
 33 35  1  0  0  0  0
 35 36  2  0  0  0  0
 35 42  1  0  0  0  0
 36 38  1  0  0  0  0
 37 36  1  0  0  0  0
 38 40  1  0  0  0  0
 38 39  1  0  0  0  0
 40 41  1  0  0  0  0
 42 40  2  0  0  0  0
M  END
>  <minimizedAffinity>
-5.36371994

$$$$

 OpenBabel03242516173D

 42 45  0  0  1  0  0  0  0  0999 V2000
   35.5610   28.9090   38.7530 C   0  0  0  0  0  0  0  0  0  0  0  0
   34.0420   28.9200   38.6370 C   0  0  0  0  0  0  0  0  0  0  0  0
   34.7370   28.9750   39.9240 C   0  0  0  0  0  0  0  0  0  0  0  0
   33.5290   29.8210   38.2270 H   0  0  0  0  0  0  0  0  0  0  0  0
   33.5940   27.9940   38.2240 H   0  0  0  0  0  0  0  0  0  0  0  0
   34.6670   29.9800   40.4410 H   0  0  0  0  0  0  0  0  0  0  0  0
   34.3180   28.1970   40.5700 H   0  0  0  0  0  0  0  0  0  0  0  0
   36.1860   30.1720   38.2390 C   0  0  0  0  0  0  0  0  0  0  0  0
   37.4270   29.9770   37.3850 C   0  0  0  0  0  0  0  0  0  0  0  0
   37.8050   31.3680   36.8880 C   0  0  0  0  0  0  0  0  0  0  0  0
   38.3920   32.0300   37.9770 O   0  0  0  0  0  0  0  0  0  0  0  0
   37.2710   32.3270   38.7960 C   0  0  0  0  0  0  0  0  0  0  0  0
   36.7290   31.0370   39.3980 C   0  0  0  0  0  0  0  0  0  0  0  0
   35.4900   30.7950   37.6660 H   0  0  0  0  0  0  0  0  0  0  0  0
   38.2580   29.5860   37.9840 H   0  0  0  0  0  0  0  0  0  0  0  0
   37.1870   29.3880   36.4770 H   0  0  0  0  0  0  0  0  0  0  0  0
   38.5210   31.2700   36.0380 H   0  0  0  0  0  0  0  0  0  0  0  0
   36.8890   31.9350   36.6120 H   0  0  0  0  0  0  0  0  0  0  0  0
   37.6250   32.9900   39.5850 H   0  0  0  0  0  0  0  0  0  0  0  0
   36.4680   32.7810   38.1840 H   0  0  0  0  0  0  0  0  0  0  0  0
   35.8380   31.3450   40.0000 H   0  0  0  0  0  0  0  0  0  0  0  0
   37.4960   30.4970   39.9650 H   0  0  0  0  0  0  0  0  0  0  0  0
   35.7790   26.8850   37.2890 C   0  0  0  0  0  0  0  0  0  0  0  0
   36.2330   27.6410   38.3810 C   0  0  0  0  0  0  0  0  0  0  0  0
   37.3180   27.1320   39.0870 C   0  0  0  0  0  0  0  0  0  0  0  0
   37.8830   25.9510   38.6980 N   0  0  0  0  0  0  0  0  0  0  0  0
   37.3960   25.2860   37.6480 C   0  0  0  0  0  0  0  0  0  0  0  0
   36.3680   25.7280   36.9480 N   0  0  0  0  0  0  0  0  0  0  0  0
   37.9540   24.0410   37.2160 N   0  0  0  0  0  0  0  0  0  0  0  0
   34.9450   27.2760   36.7460 H   0  0  0  0  0  0  0  0  0  0  0  0
   37.2570   23.2450   37.2750 H   0  0  0  0  0  0  0  0  0  0  0  0
   38.9310   23.8860   36.8730 H   0  0  0  0  0  0  0  0  0  0  0  0
   37.8500   27.7680   40.2590 C   0  0  2  0  0  3  0  0  0  0  0  0
   39.0380   28.2800   40.3990 O   0  0  0  0  0  1  0  0  0  0  0  0
   37.4800   28.1150   41.6280 C   0  0  0  0  0  0  0  0  0  0  0  0
   37.6740   29.2040   42.4200 C   0  0  0  0  0  0  0  0  0  0  0  0
   38.1460   30.1280   42.0450 H   0  0  0  0  0  0  0  0  0  0  0  0
   37.2010   28.9430   43.6800 N   0  0  0  0  0  0  0  0  0  0  0  0
   37.2940   29.7090   44.3770 H   0  0  0  0  0  0  0  0  0  0  0  0
   36.7120   27.7000   43.6800 C   0  0  0  0  0  0  0  0  0  0  0  0
   36.3010   27.3340   44.5890 H   0  0  0  0  0  0  0  0  0  0  0  0
   36.8910   27.2290   42.4480 N   0  0  0  0  0  0  0  0  0  0  0  0
  1  3  1  0  0  0  0
  2  1  1  0  0  0  0
  2  3  1  0  0  0  0
  3  6  1  0  0  0  0
  3  7  1  0  0  0  0
  4  2  1  0  0  0  0
  5  2  1  0  0  0  0
  8  1  1  0  0  0  0
  8 13  1  0  0  0  0
  9 15  1  0  0  0  0
  9  8  1  0  0  0  0
 10  9  1  0  0  0  0
 10 11  1  0  0  0  0
 11 12  1  0  0  0  0
 12 13  1  0  0  0  0
 12 19  1  0  0  0  0
 13 22  1  0  0  0  0
 13 21  1  0  0  0  0
 14  8  1  0  0  0  0
 16  9  1  0  0  0  0
 17 10  1  0  0  0  0
 18 10  1  0  0  0  0
 20 12  1  0  0  0  0
 23 24  1  0  0  0  0
 24  1  1  0  0  0  0
 24 25  2  0  0  0  0
 25 33  1  0  0  0  0
 26 25  1  0  0  0  0
 27 26  2  0  0  0  0
 28 23  2  0  0  0  0
 28 27  1  0  0  0  0
 29 31  1  0  0  0  0
 29 27  1  0  0  0  0
 30 23  1  0  0  0  0
 32 29  1  0  0  0  0
 33 34  1  1  0  0  0
 33 35  1  0  0  0  0
 35 36  2  0  0  0  0
 35 42  1  0  0  0  0
 36 38  1  0  0  0  0
 37 36  1  0  0  0  0
 38 40  1  0  0  0  0
 38 39  1  0  0  0  0
 40 41  1  0  0  0  0
 42 40  2  0  0  0  0
M  END
>  <minimizedAffinity>
-5.13748741

$$$$

 OpenBabel03242516173D

 42 45  0  0  1  0  0  0  0  0999 V2000
   36.5640   28.8300   40.0240 C   0  0  0  0  0  0  0  0  0  0  0  0
   35.1440   28.9050   40.5710 C   0  0  0  0  0  0  0  0  0  0  0  0
   35.5670   29.6290   39.3710 C   0  0  0  0  0  0  0  0  0  0  0  0
   34.4780   28.0140   40.4950 H   0  0  0  0  0  0  0  0  0  0  0  0
   35.0480   29.3800   41.5680 H   0  0  0  0  0  0  0  0  0  0  0  0
   35.1340   29.2160   38.4090 H   0  0  0  0  0  0  0  0  0  0  0  0
   35.2780   30.6780   39.4870 H   0  0  0  0  0  0  0  0  0  0  0  0
   36.8910   27.4800   39.4580 C   0  0  0  0  0  0  0  0  0  0  0  0
   38.3010   27.3340   38.9130 C   0  0  0  0  0  0  0  0  0  0  0  0
   38.4340   25.8690   38.5110 C   0  0  0  0  0  0  0  0  0  0  0  0
   37.7220   25.7220   37.3120 O   0  0  0  0  0  0  0  0  0  0  0  0
   36.3720   25.7640   37.7500 C   0  0  0  0  0  0  0  0  0  0  0  0
   36.0330   27.1760   38.2100 C   0  0  0  0  0  0  0  0  0  0  0  0
   36.7300   26.6630   40.1710 H   0  0  0  0  0  0  0  0  0  0  0  0
   38.4420   27.9520   38.0190 H   0  0  0  0  0  0  0  0  0  0  0  0
   39.0480   27.4940   39.7160 H   0  0  0  0  0  0  0  0  0  0  0  0
   39.5140   25.6250   38.3740 H   0  0  0  0  0  0  0  0  0  0  0  0
   37.9420   25.2200   39.2690 H   0  0  0  0  0  0  0  0  0  0  0  0
   35.7550   25.4900   36.8950 H   0  0  0  0  0  0  0  0  0  0  0  0
   36.2350   25.0840   38.6120 H   0  0  0  0  0  0  0  0  0  0  0  0
   34.9740   27.1240   38.5650 H   0  0  0  0  0  0  0  0  0  0  0  0
   36.2110   27.9160   37.4210 H   0  0  0  0  0  0  0  0  0  0  0  0
   38.1760   30.6980   40.4660 C   0  0  0  0  0  0  0  0  0  0  0  0
   37.6140   29.4720   40.8500 C   0  0  0  0  0  0  0  0  0  0  0  0
   38.1020   28.8980   42.0210 C   0  0  0  0  0  0  0  0  0  0  0  0
   39.0800   29.5370   42.7280 N   0  0  0  0  0  0  0  0  0  0  0  0
   39.5680   30.7030   42.3000 C   0  0  0  0  0  0  0  0  0  0  0  0
   39.1380   31.2850   41.1960 N   0  0  0  0  0  0  0  0  0  0  0  0
   40.5990   31.3980   43.0080 N   0  0  0  0  0  0  0  0  0  0  0  0
   37.8010   31.1390   39.5660 H   0  0  0  0  0  0  0  0  0  0  0  0
   41.4800   31.5090   42.4300 H   0  0  0  0  0  0  0  0  0  0  0  0
   40.5370   31.7720   43.9840 H   0  0  0  0  0  0  0  0  0  0  0  0
   37.6620   27.6200   42.5020 C   0  0  2  0  0  3  0  0  0  0  0  0
   36.6130   27.3780   43.2320 O   0  0  0  0  0  1  0  0  0  0  0  0
   38.0360   26.2080   42.4770 C   0  0  0  0  0  0  0  0  0  0  0  0
   37.3840   25.0560   42.1670 C   0  0  0  0  0  0  0  0  0  0  0  0
   36.3550   25.0500   41.7680 H   0  0  0  0  0  0  0  0  0  0  0  0
   38.1990   23.9850   42.4290 N   0  0  0  0  0  0  0  0  0  0  0  0
   37.8050   23.0440   42.2280 H   0  0  0  0  0  0  0  0  0  0  0  0
   39.3550   24.4600   42.8990 C   0  0  0  0  0  0  0  0  0  0  0  0
   40.1080   23.7560   43.1550 H   0  0  0  0  0  0  0  0  0  0  0  0
   39.2320   25.7860   42.9190 N   0  0  0  0  0  0  0  0  0  0  0  0
  1  2  1  0  0  0  0
  1 24  1  0  0  0  0
  2  5  1  0  0  0  0
  3  7  1  0  0  0  0
  3  1  1  0  0  0  0
  3  2  1  0  0  0  0
  4  2  1  0  0  0  0
  6  3  1  0  0  0  0
  8  1  1  0  0  0  0
  8 14  1  0  0  0  0
  9  8  1  0  0  0  0
  9 16  1  0  0  0  0
 10  9  1  0  0  0  0
 10 18  1  0  0  0  0
 11 12  1  0  0  0  0
 11 10  1  0  0  0  0
 12 13  1  0  0  0  0
 12 20  1  0  0  0  0
 13 21  1  0  0  0  0
 13  8  1  0  0  0  0
 15  9  1  0  0  0  0
 17 10  1  0  0  0  0
 19 12  1  0  0  0  0
 22 13  1  0  0  0  0
 23 24  2  0  0  0  0
 23 28  1  0  0  0  0
 24 25  1  0  0  0  0
 25 33  1  0  0  0  0
 25 26  2  0  0  0  0
 27 26  1  0  0  0  0
 27 29  1  0  0  0  0
 28 27  2  0  0  0  0
 29 32  1  0  0  0  0
 30 23  1  0  0  0  0
 31 29  1  0  0  0  0
 33 34  1  1  0  0  0
 35 33  1  0  0  0  0
 35 42  1  0  0  0  0
 36 38  1  0  0  0  0
 36 35  2  0  0  0  0
 37 36  1  0  0  0  0
 38 40  1  0  0  0  0
 39 38  1  0  0  0  0
 40 42  2  0  0  0  0
 40 41  1  0  0  0  0
M  END
>  <minimizedAffinity>
-5.12807703

$$$$

 OpenBabel03242516173D

 42 45  0  0  1  0  0  0  0  0999 V2000
   37.4920   27.5480   42.4690 C   0  0  0  0  0  0  0  0  0  0  0  0
   36.5770   27.4110   43.6800 C   0  0  0  0  0  0  0  0  0  0  0  0
   37.2040   28.6790   43.3030 C   0  0  0  0  0  0  0  0  0  0  0  0
   35.4840   27.2470   43.5260 H   0  0  0  0  0  0  0  0  0  0  0  0
   36.9600   26.7570   44.4880 H   0  0  0  0  0  0  0  0  0  0  0  0
   36.4790   29.4450   42.8900 H   0  0  0  0  0  0  0  0  0  0  0  0
   37.7070   29.0850   44.1860 H   0  0  0  0  0  0  0  0  0  0  0  0
   36.7550   27.4030   41.1710 C   0  0  0  0  0  0  0  0  0  0  0  0
   37.5710   26.8310   40.0260 C   0  0  0  0  0  0  0  0  0  0  0  0
   36.5930   26.6680   38.8670 C   0  0  0  0  0  0  0  0  0  0  0  0
   36.3700   27.9540   38.3540 O   0  0  0  0  0  0  0  0  0  0  0  0
   35.5310   28.5360   39.3400 C   0  0  0  0  0  0  0  0  0  0  0  0
   36.3380   28.7810   40.6100 C   0  0  0  0  0  0  0  0  0  0  0  0
   35.8440   26.7980   41.2580 H   0  0  0  0  0  0  0  0  0  0  0  0
   38.3580   27.5290   39.7180 H   0  0  0  0  0  0  0  0  0  0  0  0
   37.9220   25.8080   40.2700 H   0  0  0  0  0  0  0  0  0  0  0  0
   37.0450   25.9970   38.0990 H   0  0  0  0  0  0  0  0  0  0  0  0
   35.6170   26.2890   39.2440 H   0  0  0  0  0  0  0  0  0  0  0  0
   35.1780   29.4830   38.9330 H   0  0  0  0  0  0  0  0  0  0  0  0
   34.7060   27.8430   39.5900 H   0  0  0  0  0  0  0  0  0  0  0  0
   35.6100   29.2080   41.3430 H   0  0  0  0  0  0  0  0  0  0  0  0
   37.2150   29.4100   40.4210 H   0  0  0  0  0  0  0  0  0  0  0  0
   38.8780   25.5100   42.9290 C   0  0  0  0  0  0  0  0  0  0  0  0
   38.8030   26.8630   42.5640 C   0  0  0  0  0  0  0  0  0  0  0  0
   40.0080   27.5130   42.3170 C   0  0  0  0  0  0  0  0  0  0  0  0
   41.1820   26.8250   42.4340 N   0  0  0  0  0  0  0  0  0  0  0  0
   41.1760   25.5380   42.7870 C   0  0  0  0  0  0  0  0  0  0  0  0
   40.0580   24.8790   43.0330 N   0  0  0  0  0  0  0  0  0  0  0  0
   42.3850   24.7860   42.9300 N   0  0  0  0  0  0  0  0  0  0  0  0
   37.9510   25.0100   43.1190 H   0  0  0  0  0  0  0  0  0  0  0  0
   42.5230   24.4290   43.9180 H   0  0  0  0  0  0  0  0  0  0  0  0
   43.0830   24.5860   42.1750 H   0  0  0  0  0  0  0  0  0  0  0  0
   40.0860   28.9090   41.9930 C   0  0  2  0  0  3  0  0  0  0  0  0
   40.5620   29.8590   42.7430 O   0  0  0  0  0  1  0  0  0  0  0  0
   39.7570   29.8460   40.9230 C   0  0  0  0  0  0  0  0  0  0  0  0
   39.2530   31.1080   40.8850 C   0  0  0  0  0  0  0  0  0  0  0  0
   39.0670   31.6970   41.7990 H   0  0  0  0  0  0  0  0  0  0  0  0
   39.0380   31.4760   39.5810 N   0  0  0  0  0  0  0  0  0  0  0  0
   38.6520   32.4290   39.4270 H   0  0  0  0  0  0  0  0  0  0  0  0
   39.4050   30.4520   38.8060 C   0  0  0  0  0  0  0  0  0  0  0  0
   39.3020   30.5710   37.7550 H   0  0  0  0  0  0  0  0  0  0  0  0
   39.8280   29.4950   39.6280 N   0  0  0  0  0  0  0  0  0  0  0  0
  1 24  1  0  0  0  0
  1  3  1  0  0  0  0
  1  2  1  0  0  0  0
  2  5  1  0  0  0  0
  3  2  1  0  0  0  0
  3  7  1  0  0  0  0
  4  2  1  0  0  0  0
  6  3  1  0  0  0  0
  8 14  1  0  0  0  0
  8  1  1  0  0  0  0
  9 16  1  0  0  0  0
  9  8  1  0  0  0  0
 10 18  1  0  0  0  0
 10  9  1  0  0  0  0
 11 10  1  0  0  0  0
 11 12  1  0  0  0  0
 12 20  1  0  0  0  0
 12 13  1  0  0  0  0
 13  8  1  0  0  0  0
 13 21  1  0  0  0  0
 15  9  1  0  0  0  0
 17 10  1  0  0  0  0
 19 12  1  0  0  0  0
 22 13  1  0  0  0  0
 23 28  1  0  0  0  0
 23 30  1  0  0  0  0
 24 23  2  0  0  0  0
 25 26  2  0  0  0  0
 25 24  1  0  0  0  0
 26 27  1  0  0  0  0
 27 29  1  0  0  0  0
 27 28  2  0  0  0  0
 29 31  1  0  0  0  0
 32 29  1  0  0  0  0
 33 25  1  0  0  0  0
 33 34  1  1  0  0  0
 35 33  1  0  0  0  0
 36 35  2  0  0  0  0
 36 37  1  0  0  0  0
 38 36  1  0  0  0  0
 39 38  1  0  0  0  0
 40 38  1  0  0  0  0
 40 42  2  0  0  0  0
 41 40  1  0  0  0  0
 42 35  1  0  0  0  0
M  END
>  <minimizedAffinity>
-5.12800741

$$$$

 OpenBabel03242516173D

 42 45  0  0  1  0  0  0  0  0999 V2000
   37.2830   28.6910   37.8850 C   0  0  0  0  0  0  0  0  0  0  0  0
   38.6020   28.2660   37.2510 C   0  0  0  0  0  0  0  0  0  0  0  0
   38.1410   27.7460   38.5390 C   0  0  0  0  0  0  0  0  0  0  0  0
   38.5910   27.6240   36.3390 H   0  0  0  0  0  0  0  0  0  0  0  0
   39.3580   29.0710   37.1530 H   0  0  0  0  0  0  0  0  0  0  0  0
   37.8200   26.6600   38.5070 H   0  0  0  0  0  0  0  0  0  0  0  0
   38.9500   27.8700   39.2650 H   0  0  0  0  0  0  0  0  0  0  0  0
   36.0910   28.1820   37.1300 C   0  0  0  0  0  0  0  0  0  0  0  0
   34.9090   29.1320   37.0740 C   0  0  0  0  0  0  0  0  0  0  0  0
   33.8840   28.4580   36.1680 C   0  0  0  0  0  0  0  0  0  0  0  0
   33.3020   27.4320   36.9270 O   0  0  0  0  0  0  0  0  0  0  0  0
   34.3280   26.4520   36.9560 C   0  0  0  0  0  0  0  0  0  0  0  0
   35.4760   26.9470   37.8270 C   0  0  0  0  0  0  0  0  0  0  0  0
   36.3270   27.8910   36.1000 H   0  0  0  0  0  0  0  0  0  0  0  0
   34.4620   29.2620   38.0660 H   0  0  0  0  0  0  0  0  0  0  0  0
   35.1900   30.0740   36.5600 H   0  0  0  0  0  0  0  0  0  0  0  0
   33.1240   29.2110   35.8530 H   0  0  0  0  0  0  0  0  0  0  0  0
   34.3960   27.9790   35.3040 H   0  0  0  0  0  0  0  0  0  0  0  0
   33.8920   25.5520   37.3890 H   0  0  0  0  0  0  0  0  0  0  0  0
   34.7220   26.2880   35.9350 H   0  0  0  0  0  0  0  0  0  0  0  0
   36.2520   26.1440   37.7780 H   0  0  0  0  0  0  0  0  0  0  0  0
   35.1420   27.1950   38.8410 H   0  0  0  0  0  0  0  0  0  0  0  0
   37.6460   31.1480   37.5470 C   0  0  0  0  0  0  0  0  0  0  0  0
   37.2130   30.0930   38.3630 C   0  0  0  0  0  0  0  0  0  0  0  0
   36.7370   30.4310   39.6260 C   0  0  0  0  0  0  0  0  0  0  0  0
   36.7110   31.7420   40.0080 N   0  0  0  0  0  0  0  0  0  0  0  0
   37.1410   32.6940   39.1770 C   0  0  0  0  0  0  0  0  0  0  0  0
   37.6020   32.4220   37.9700 N   0  0  0  0  0  0  0  0  0  0  0  0
   37.1390   34.0770   39.5450 N   0  0  0  0  0  0  0  0  0  0  0  0
   38.0120   30.8890   36.5760 H   0  0  0  0  0  0  0  0  0  0  0  0
   38.1130   34.4930   39.5540 H   0  0  0  0  0  0  0  0  0  0  0  0
   36.2970   34.6530   39.7840 H   0  0  0  0  0  0  0  0  0  0  0  0
   36.3170   29.4510   40.5870 C   0  0  2  0  0  3  0  0  0  0  0  0
   35.1470   28.8880   40.6680 O   0  0  0  0  0  1  0  0  0  0  0  0
   36.8140   28.7100   41.7430 C   0  0  0  0  0  0  0  0  0  0  0  0
   36.5820   27.4690   42.2490 C   0  0  0  0  0  0  0  0  0  0  0  0
   35.9460   26.7300   41.7320 H   0  0  0  0  0  0  0  0  0  0  0  0
   37.2470   27.3300   43.4400 N   0  0  0  0  0  0  0  0  0  0  0  0
   37.1450   26.4150   43.9230 H   0  0  0  0  0  0  0  0  0  0  0  0
   37.8930   28.4740   43.6790 C   0  0  0  0  0  0  0  0  0  0  0  0
   38.4650   28.5380   44.5730 H   0  0  0  0  0  0  0  0  0  0  0  0
   37.6180   29.2790   42.6560 N   0  0  0  0  0  0  0  0  0  0  0  0
  1 24  1  0  0  0  0
  1  3  1  0  0  0  0
  2  1  1  0  0  0  0
  2  3  1  0  0  0  0
  3  7  1  0  0  0  0
  4  2  1  0  0  0  0
  5  2  1  0  0  0  0
  6  3  1  0  0  0  0
  8 13  1  0  0  0  0
  8  1  1  0  0  0  0
  9  8  1  0  0  0  0
  9 15  1  0  0  0  0
 10 11  1  0  0  0  0
 10  9  1  0  0  0  0
 11 12  1  0  0  0  0
 12 19  1  0  0  0  0
 12 13  1  0  0  0  0
 13 22  1  0  0  0  0
 14  8  1  0  0  0  0
 16  9  1  0  0  0  0
 17 10  1  0  0  0  0
 18 10  1  0  0  0  0
 20 12  1  0  0  0  0
 21 13  1  0  0  0  0
 23 28  2  0  0  0  0
 23 24  1  0  0  0  0
 24 25  2  0  0  0  0
 25 26  1  0  0  0  0
 25 33  1  0  0  0  0
 27 29  1  0  0  0  0
 27 26  2  0  0  0  0
 28 27  1  0  0  0  0
 29 31  1  0  0  0  0
 29 32  1  0  0  0  0
 30 23  1  0  0  0  0
 33 34  1  1  0  0  0
 33 35  1  0  0  0  0
 35 36  2  0  0  0  0
 35 42  1  0  0  0  0
 36 38  1  0  0  0  0
 37 36  1  0  0  0  0
 38 40  1  0  0  0  0
 38 39  1  0  0  0  0
 40 41  1  0  0  0  0
 42 40  2  0  0  0  0
M  END
>  <minimizedAffinity>
-5.12723732

$$$$

 OpenBabel03242516173D

 42 45  0  0  1  0  0  0  0  0999 V2000
   36.2810   29.0270   39.9290 C   0  0  0  0  0  0  0  0  0  0  0  0
   34.7900   29.2470   39.7090 C   0  0  0  0  0  0  0  0  0  0  0  0
   35.4750   28.0180   39.3050 C   0  0  0  0  0  0  0  0  0  0  0  0
   34.1010   29.2540   40.5860 H   0  0  0  0  0  0  0  0  0  0  0  0
   34.5330   30.0620   39.0030 H   0  0  0  0  0  0  0  0  0  0  0  0
   35.2100   27.1160   39.9370 H   0  0  0  0  0  0  0  0  0  0  0  0
   35.2300   27.8200   38.2570 H   0  0  0  0  0  0  0  0  0  0  0  0
   36.6330   28.8750   41.3790 C   0  0  0  0  0  0  0  0  0  0  0  0
   37.9990   29.4080   41.7720 C   0  0  0  0  0  0  0  0  0  0  0  0
   38.0790   29.2550   43.2870 C   0  0  0  0  0  0  0  0  0  0  0  0
   38.2980   27.8920   43.5350 O   0  0  0  0  0  0  0  0  0  0  0  0
   37.0240   27.3230   43.2690 C   0  0  0  0  0  0  0  0  0  0  0  0
   36.7450   27.3850   41.7730 C   0  0  0  0  0  0  0  0  0  0  0  0
   35.8970   29.3340   42.0510 H   0  0  0  0  0  0  0  0  0  0  0  0
   38.7980   28.8080   41.3210 H   0  0  0  0  0  0  0  0  0  0  0  0
   38.0640   30.4970   41.5760 H   0  0  0  0  0  0  0  0  0  0  0  0
   38.9200   29.8780   43.6730 H   0  0  0  0  0  0  0  0  0  0  0  0
   37.1020   29.5220   43.7480 H   0  0  0  0  0  0  0  0  0  0  0  0
   37.0680   26.2860   43.6000 H   0  0  0  0  0  0  0  0  0  0  0  0
   36.2370   27.9050   43.7860 H   0  0  0  0  0  0  0  0  0  0  0  0
   35.7230   26.9510   41.6450 H   0  0  0  0  0  0  0  0  0  0  0  0
   37.5270   26.8840   41.1900 H   0  0  0  0  0  0  0  0  0  0  0  0
   36.9980   31.2550   39.0320 C   0  0  0  0  0  0  0  0  0  0  0  0
   37.1900   29.8680   39.1140 C   0  0  0  0  0  0  0  0  0  0  0  0
   38.2530   29.3380   38.3890 C   0  0  0  0  0  0  0  0  0  0  0  0
   39.0450   30.1680   37.6480 N   0  0  0  0  0  0  0  0  0  0  0  0
   38.8010   31.4800   37.6170 C   0  0  0  0  0  0  0  0  0  0  0  0
   37.8040   32.0280   38.2870 N   0  0  0  0  0  0  0  0  0  0  0  0
   39.6010   32.3810   36.8450 N   0  0  0  0  0  0  0  0  0  0  0  0
   36.1810   31.6630   39.5890 H   0  0  0  0  0  0  0  0  0  0  0  0
   39.0420   32.8730   36.0920 H   0  0  0  0  0  0  0  0  0  0  0  0
   40.6250   32.5640   36.9720 H   0  0  0  0  0  0  0  0  0  0  0  0
   38.5320   27.9310   38.3340 C   0  0  2  0  0  3  0  0  0  0  0  0
   38.3020   27.1280   37.3360 O   0  0  0  0  0  1  0  0  0  0  0  0
   39.0800   26.8500   39.1480 C   0  0  0  0  0  0  0  0  0  0  0  0
   38.8010   25.5260   39.2840 C   0  0  0  0  0  0  0  0  0  0  0  0
   38.0590   25.0110   38.6490 H   0  0  0  0  0  0  0  0  0  0  0  0
   39.5680   24.9990   40.2910 N   0  0  0  0  0  0  0  0  0  0  0  0
   39.4400   23.9850   40.4870 H   0  0  0  0  0  0  0  0  0  0  0  0
   40.3230   25.9830   40.7830 C   0  0  0  0  0  0  0  0  0  0  0  0
   40.9840   25.7440   41.5800 H   0  0  0  0  0  0  0  0  0  0  0  0
   40.0140   27.0740   40.0860 N   0  0  0  0  0  0  0  0  0  0  0  0
  1  8  1  0  0  0  0
  2  1  1  0  0  0  0
  2  4  1  0  0  0  0
  3  2  1  0  0  0  0
  3  1  1  0  0  0  0
  3  6  1  0  0  0  0
  5  2  1  0  0  0  0
  7  3  1  0  0  0  0
  8  9  1  0  0  0  0
  8 13  1  0  0  0  0
  8 14  1  0  0  0  0
  9 10  1  0  0  0  0
 10 11  1  0  0  0  0
 10 17  1  0  0  0  0
 10 18  1  0  0  0  0
 12 11  1  0  0  0  0
 12 19  1  0  0  0  0
 12 20  1  0  0  0  0
 13 12  1  0  0  0  0
 15  9  1  0  0  0  0
 16  9  1  0  0  0  0
 21 13  1  0  0  0  0
 22 13  1  0  0  0  0
 23 24  1  0  0  0  0
 23 30  1  0  0  0  0
 24  1  1  0  0  0  0
 25 24  2  0  0  0  0
 26 25  1  0  0  0  0
 27 26  2  0  0  0  0
 27 28  1  0  0  0  0
 28 23  2  0  0  0  0
 29 32  1  0  0  0  0
 29 27  1  0  0  0  0
 31 29  1  0  0  0  0
 33 34  1  1  0  0  0
 33 25  1  0  0  0  0
 33 35  1  0  0  0  0
 35 36  2  0  0  0  0
 35 42  1  0  0  0  0
 36 38  1  0  0  0  0
 37 36  1  0  0  0  0
 38 39  1  0  0  0  0
 38 40  1  0  0  0  0
 40 41  1  0  0  0  0
 42 40  2  0  0  0  0
M  END
>  <minimizedAffinity>
-5.12082863

$$$$
