
 OpenBabel03252508493D

 27 29  0  0  0  0  0  0  0  0999 V2000
   46.0210   34.1750   41.0270 C   0  0  0  0  0  0  0  0  0  0  0  0
   46.5830   34.8130   42.1260 C   0  0  0  0  0  0  0  0  0  0  0  0
   47.9130   35.2100   42.0020 C   0  0  0  0  0  0  0  0  0  0  0  0
   48.5700   34.9530   40.8370 N   0  0  0  0  0  0  0  0  0  0  0  0
   47.9900   34.3370   39.8050 C   0  0  0  0  0  0  0  0  0  0  0  0
   46.7050   33.9420   39.8970 N   0  0  0  0  0  0  0  0  0  0  0  0
   48.3680   35.7080   42.8460 H   0  0  0  0  0  0  0  0  0  0  0  0
   48.5000   34.1260   38.8730 H   0  0  0  0  0  0  0  0  0  0  0  0
   45.7890   35.0350   43.3210 C   0  0  0  0  0  0  0  0  0  0  0  0
   45.0640   36.2030   43.5270 C   0  0  0  0  0  0  0  0  0  0  0  0
   44.4730   35.9980   44.7600 C   0  0  0  0  0  0  0  0  0  0  0  0
   44.8170   34.7840   45.2670 N   0  0  0  0  0  0  0  0  0  0  0  0
   45.6090   34.2310   44.3750 N   0  0  0  0  0  0  0  0  0  0  0  0
   44.9520   37.0830   42.9160 H   0  0  0  0  0  0  0  0  0  0  0  0
   43.8180   36.7300   45.2440 H   0  0  0  0  0  0  0  0  0  0  0  0
   44.5020   34.3830   46.1910 H   0  0  0  0  0  0  0  0  0  0  0  0
   44.7020   33.7630   41.1090 O   0  0  0  0  0  0  0  0  0  0  0  0
   43.6130   34.3400   40.5170 C   0  0  0  0  0  0  0  0  0  0  0  0
   43.2640   35.5730   40.5750 O   0  0  0  0  0  0  0  0  0  0  0  0
   42.6310   33.5780   39.6850 C   0  0  0  0  0  0  0  0  0  0  0  0
   42.3300   32.2430   39.8280 C   0  0  0  0  0  0  0  0  0  0  0  0
   42.7000   31.5010   40.5210 H   0  0  0  0  0  0  0  0  0  0  0  0
   41.4010   31.8610   38.9130 N   0  0  0  0  0  0  0  0  0  0  0  0
   40.9690   30.9280   38.7630 H   0  0  0  0  0  0  0  0  0  0  0  0
   41.1500   32.9820   38.2200 C   0  0  0  0  0  0  0  0  0  0  0  0
   40.4430   33.0440   37.3950 H   0  0  0  0  0  0  0  0  0  0  0  0
   41.8770   34.0150   38.6690 N   0  0  0  0  0  0  0  0  0  0  0  0
  1 17  1  0  0  0  0
  1  2  1  0  0  0  0
  2  9  1  0  0  0  0
  3  2  2  0  0  0  0
  3  7  1  0  0  0  0
  4  3  1  0  0  0  0
  5  6  1  0  0  0  0
  5  4  2  0  0  0  0
  6  1  2  0  0  0  0
  8  5  1  0  0  0  0
  9 10  1  0  0  0  0
  9 13  2  0  0  0  0
 10 11  2  0  0  0  0
 11 15  1  0  0  0  0
 11 12  1  0  0  0  0
 12 16  1  0  0  0  0
 13 12  1  0  0  0  0
 14 10  1  0  0  0  0
 18 19  2  0  0  0  0
 18 17  1  0  0  0  0
 20 21  2  0  0  0  0
 20 18  1  0  0  0  0
 21 22  1  0  0  0  0
 23 21  1  0  0  0  0
 24 23  1  0  0  0  0
 25 27  2  0  0  0  0
 25 23  1  0  0  0  0
 26 25  1  0  0  0  0
 27 20  1  0  0  0  0
M  END
>  <minimizedAffinity>
-4.96228886

>  <minimizedRMSD>
0.243526027

$$$$
