
     RDKit          3D

 27 29  0  0  0  0  0  0  0  0999 V2000
   46.0840   34.1607   41.0134 C   0  0  0  0  0  0  0  0  0  0  0  0
   46.6188   34.8311   42.1072 C   0  0  0  0  0  0  0  0  0  0  0  0
   47.9343   35.2726   41.9837 C   0  0  0  0  0  0  0  0  0  0  0  0
   48.6051   35.0274   40.8245 N   0  0  0  0  0  0  0  0  0  0  0  0
   48.0523   34.3786   39.7967 C   0  0  0  0  0  0  0  0  0  0  0  0
   46.7808   33.9404   39.8895 N   0  0  0  0  0  0  0  0  0  0  0  0
   45.8117   35.0379   43.2960 C   0  0  0  0  0  0  0  0  0  0  0  0
   45.0565   36.1869   43.4934 C   0  0  0  0  0  0  0  0  0  0  0  0
   44.4633   35.9727   44.7231 C   0  0  0  0  0  0  0  0  0  0  0  0
   44.8354   34.7700   45.2384 N   0  0  0  0  0  0  0  0  0  0  0  0
   45.6472   34.2339   44.3534 N   0  0  0  0  0  0  0  0  0  0  0  0
   44.7797   33.7044   41.0938 O   0  0  0  0  0  0  0  0  0  0  0  0
   43.6892   34.1833   40.4265 C   0  0  0  0  0  0  0  0  0  0  0  0
   43.2517   35.3890   40.4233 O   0  0  0  0  0  0  0  0  0  0  0  0
   48.3682   35.7964   42.8243 H   0  0  0  0  0  0  0  0  0  0  0  0
   48.5728   34.1764   38.8697 H   0  0  0  0  0  0  0  0  0  0  0  0
   44.9255   37.0623   42.8769 H   0  0  0  0  0  0  0  0  0  0  0  0
   43.7873   36.6895   45.1999 H   0  0  0  0  0  0  0  0  0  0  0  0
   44.5251   34.3663   46.1624 H   0  0  0  0  0  0  0  0  0  0  0  0
   42.8096   33.3278   39.5688 C   0  0  0  0  0  0  0  0  0  0  0  0
   43.1243   32.0693   39.1095 C   0  0  0  0  0  0  0  0  0  0  0  0
   44.0046   31.4594   39.2533 H   0  0  0  0  0  0  0  0  0  0  0  0
   42.1115   31.5685   38.3541 N   0  0  0  0  0  0  0  0  0  0  0  0
   42.0415   30.6522   37.8692 H   0  0  0  0  0  0  0  0  0  0  0  0
   41.1875   32.5418   38.3667 C   0  0  0  0  0  0  0  0  0  0  0  0
   40.2296   32.4801   37.8544 H   0  0  0  0  0  0  0  0  0  0  0  0
   41.5896   33.5979   39.0873 N   0  0  0  0  0  0  0  0  0  0  0  0
  1 12  1  0
  1  2  1  0
  2  7  1  0
  3  2  2  0
  4  3  1  0
  5  6  1  0
  5  4  2  0
  6  1  2  0
  7  8  1  0
  7 11  2  0
  8  9  2  0
  9 10  1  0
 11 10  1  0
 13 14  2  0
 13 12  1  0
  3 15  1  0
  5 16  1  0
  8 17  1  0
  9 18  1  0
 10 19  1  0
 20 21  2  0
 21 22  1  0
 21 23  1  0
 23 24  1  0
 23 25  1  0
 25 26  1  0
 25 27  2  0
 27 20  1  0
 13 20  1  0
M  ISO  8  15  14  16  14  17  14  18  14  19   9  22  15  24   5  26  14
M  END
>  <DihAtoms>  (1) 
13,12,19,20

>  <DihDeg>  (1) 
0.24739312672392053

$$$$
