
 OpenBabel03252508283D

 38 41  0  0  1  0  0  0  0  0999 V2000
   39.8510   33.3070   42.3590 N   0  0  0  0  0  0  0  0  0  0  0  0
   39.9790   34.4140   41.4060 C   0  0  2  0  0  0  0  0  0  0  0  0
   39.0340   34.2960   40.2650 C   0  0  0  0  0  0  0  0  0  0  0  0
   38.0230   33.2770   40.4820 N   0  0  0  0  0  0  0  0  0  0  0  0
   38.5300   32.0120   40.8780 C   0  0  0  0  0  0  0  0  0  0  0  0
   39.8960   32.0930   41.5110 C   0  0  2  0  0  0  0  0  0  0  0  0
   38.9900   33.3480   42.9190 H   0  0  0  0  0  0  0  0  0  0  0  0
   39.7800   35.3440   41.9610 H   0  0  0  0  0  0  0  0  0  0  0  0
   38.4480   35.2540   40.1390 H   0  0  0  0  0  0  0  0  0  0  0  0
   39.4530   33.9560   39.3030 H   0  0  0  0  0  0  0  0  0  0  0  0
   37.2990   33.6700   41.1310 H   0  0  0  0  0  0  0  0  0  0  0  0
   38.6210   31.3330   40.0060 H   0  0  0  0  0  0  0  0  0  0  0  0
   37.8190   31.5150   41.5760 H   0  0  0  0  0  0  0  0  0  0  0  0
   40.6360   32.2860   40.7260 H   0  0  0  0  0  0  0  0  0  0  0  0
   40.2240   30.8870   42.2730 C   0  0  0  0  0  0  0  0  0  0  0  0
   39.5100   29.7570   42.5400 C   0  0  0  0  0  0  0  0  0  0  0  0
   38.5060   29.5690   42.1960 H   0  0  0  0  0  0  0  0  0  0  0  0
   40.2220   28.8980   43.2920 N   0  0  0  0  0  0  0  0  0  0  0  0
   39.9930   27.9470   43.6790 H   0  0  0  0  0  0  0  0  0  0  0  0
   41.4010   29.4840   43.5070 C   0  0  0  0  0  0  0  0  0  0  0  0
   42.2630   29.1120   44.0770 H   0  0  0  0  0  0  0  0  0  0  0  0
   41.4190   30.6820   42.9010 N   0  0  0  0  0  0  0  0  0  0  0  0
   43.5230   34.3830   40.7330 C   0  0  0  0  0  0  0  0  0  0  0  0
   42.9350   34.3850   39.4620 C   0  0  0  0  0  0  0  0  0  0  0  0
   41.5560   34.4040   39.5800 C   0  0  0  0  0  0  0  0  0  0  0  0
   41.3370   34.4100   40.8930 N   0  0  0  0  0  0  0  0  0  0  0  0
   42.4810   34.3980   41.5650 N   0  0  0  0  0  0  0  0  0  0  0  0
   43.5990   34.3710   38.5890 H   0  0  0  0  0  0  0  0  0  0  0  0
   41.0970   34.4140   38.5980 H   0  0  0  0  0  0  0  0  0  0  0  0
   47.2420   33.8680   40.5450 C   0  0  0  0  0  0  0  0  0  0  0  0
   45.8660   33.7740   40.1540 C   0  0  0  0  0  0  0  0  0  0  0  0
   44.9610   34.3790   40.9900 C   0  0  0  0  0  0  0  0  0  0  0  0
   45.3970   35.0150   42.1070 N   0  0  0  0  0  0  0  0  0  0  0  0
   46.6970   35.0920   42.4570 C   0  0  0  0  0  0  0  0  0  0  0  0
   47.5970   34.5120   41.6640 N   0  0  0  0  0  0  0  0  0  0  0  0
   47.9430   33.3840   39.8740 H   0  0  0  0  0  0  0  0  0  0  0  0
   45.5390   33.2690   39.2700 H   0  0  0  0  0  0  0  0  0  0  0  0
   46.9360   35.6190   43.3620 H   0  0  0  0  0  0  0  0  0  0  0  0
  1  7  1  0  0  0  0
  2  8  1  1  0  0  0
  2  1  1  0  0  0  0
  3  4  1  0  0  0  0
  3  2  1  0  0  0  0
  4  5  1  0  0  0  0
  4 11  1  0  0  0  0
  5  6  1  0  0  0  0
  5 13  1  0  0  0  0
  6 14  1  6  0  0  0
  6 15  1  0  0  0  0
  6  1  1  0  0  0  0
  9  3  1  0  0  0  0
 10  3  1  0  0  0  0
 12  5  1  0  0  0  0
 15 16  2  0  0  0  0
 15 22  1  0  0  0  0
 16 18  1  0  0  0  0
 17 16  1  0  0  0  0
 18 20  1  0  0  0  0
 18 19  1  0  0  0  0
 20 21  1  0  0  0  0
 22 20  2  0  0  0  0
 23 32  1  0  0  0  0
 23 27  2  0  0  0  0
 24 25  2  0  0  0  0
 24 23  1  0  0  0  0
 25 26  1  0  0  0  0
 26  2  1  0  0  0  0
 26 27  1  0  0  0  0
 28 24  1  0  0  0  0
 29 25  1  0  0  0  0
 30 35  1  0  0  0  0
 31 30  2  0  0  0  0
 31 32  1  0  0  0  0
 32 33  2  0  0  0  0
 33 34  1  0  0  0  0
 34 38  1  0  0  0  0
 35 34  2  0  0  0  0
 36 30  1  0  0  0  0
 37 31  1  0  0  0  0
M  END
>  <minimizedAffinity>
-6.07133818

>  <minimizedRMSD>
5.01871252

$$$$
