
 OpenBabel03252505563D

 35 37  0  0  0  0  0  0  0  0999 V2000
   45.1510   34.7420   44.7780 C   0  0  0  0  0  0  0  0  0  0  0  0
   46.0250   34.5410   43.6960 C   0  0  0  0  0  0  0  0  0  0  0  0
   47.0470   33.6130   43.8830 C   0  0  0  0  0  0  0  0  0  0  0  0
   47.1490   32.9670   45.0600 N   0  0  0  0  0  0  0  0  0  0  0  0
   46.2900   33.1910   46.0710 C   0  0  0  0  0  0  0  0  0  0  0  0
   45.3060   34.0690   45.9250 N   0  0  0  0  0  0  0  0  0  0  0  0
   44.3620   35.4580   44.6380 H   0  0  0  0  0  0  0  0  0  0  0  0
   48.0420   33.2640   42.8730 C   0  0  0  0  0  0  0  0  0  0  0  0
   49.2400   33.9940   42.8740 C   0  0  0  0  0  0  0  0  0  0  0  0
   49.5680   34.8110   43.5410 H   0  0  0  0  0  0  0  0  0  0  0  0
   50.0950   33.6200   41.9070 N   0  0  0  0  0  0  0  0  0  0  0  0
   51.0430   33.9750   41.6690 H   0  0  0  0  0  0  0  0  0  0  0  0
   49.4310   32.6370   41.2820 C   0  0  0  0  0  0  0  0  0  0  0  0
   49.7250   32.0310   40.4340 H   0  0  0  0  0  0  0  0  0  0  0  0
   48.2350   32.4280   41.8430 N   0  0  0  0  0  0  0  0  0  0  0  0
   45.8130   35.3080   42.4430 C   0  0  0  0  0  0  0  0  0  0  0  0
   44.7650   36.1710   42.7390 F   0  0  0  0  0  0  0  0  0  0  0  0
   45.3710   34.3950   41.4850 F   0  0  0  0  0  0  0  0  0  0  0  0
   46.9410   35.9590   42.1080 F   0  0  0  0  0  0  0  0  0  0  0  0
   46.3810   32.5350   47.2880 O   0  0  0  0  0  0  0  0  0  0  0  0
   46.0350   31.1690   47.4020 C   0  0  0  0  0  0  0  0  0  0  0  0
   45.6370   30.8170   46.4280 H   0  0  0  0  0  0  0  0  0  0  0  0
   45.2370   31.0120   48.1690 H   0  0  0  0  0  0  0  0  0  0  0  0
   47.2600   30.4310   47.7500 C   0  0  0  0  0  0  0  0  0  0  0  0
   47.6380   29.1410   47.4450 C   0  0  0  0  0  0  0  0  0  0  0  0
   48.8450   28.6940   47.8990 C   0  0  0  0  0  0  0  0  0  0  0  0
   49.6580   29.4650   48.6210 N   0  0  0  0  0  0  0  0  0  0  0  0
   49.2830   30.7180   48.9130 C   0  0  0  0  0  0  0  0  0  0  0  0
   48.0850   31.2210   48.4870 N   0  0  0  0  0  0  0  0  0  0  0  0
   46.8870   28.6390   46.8600 H   0  0  0  0  0  0  0  0  0  0  0  0
   49.0760   27.6650   47.6190 H   0  0  0  0  0  0  0  0  0  0  0  0
   50.2570   31.4980   49.7230 C   0  0  0  0  0  0  0  0  0  0  0  0
   50.1040   32.8540   49.5250 F   0  0  0  0  0  0  0  0  0  0  0  0
   51.5600   31.1330   49.3780 F   0  0  0  0  0  0  0  0  0  0  0  0
   50.1080   31.2560   51.0780 F   0  0  0  0  0  0  0  0  0  0  0  0
  1  6  1  0  0  0  0
  2  3  1  0  0  0  0
  2  1  2  0  0  0  0
  3  4  2  0  0  0  0
  4  5  1  0  0  0  0
  5 20  1  0  0  0  0
  6  5  2  0  0  0  0
  7  1  1  0  0  0  0
  8  9  2  0  0  0  0
  8  3  1  0  0  0  0
  9 10  1  0  0  0  0
 11  9  1  0  0  0  0
 12 11  1  0  0  0  0
 13 15  2  0  0  0  0
 13 11  1  0  0  0  0
 14 13  1  0  0  0  0
 15  8  1  0  0  0  0
 16 17  1  0  0  0  0
 16  2  1  0  0  0  0
 18 16  1  0  0  0  0
 19 16  1  0  0  0  0
 20 21  1  0  0  0  0
 21 24  1  0  0  0  0
 21 23  1  0  0  0  0
 22 21  1  0  0  0  0
 24 29  1  0  0  0  0
 25 24  2  0  0  0  0
 25 26  1  0  0  0  0
 26 27  2  0  0  0  0
 27 28  1  0  0  0  0
 28 32  1  0  0  0  0
 29 28  2  0  0  0  0
 30 25  1  0  0  0  0
 31 26  1  0  0  0  0
 32 35  1  0  0  0  0
 33 32  1  0  0  0  0
 34 32  1  0  0  0  0
M  END
>  <minimizedAffinity>
-5.82715225

>  <minimizedRMSD>
0.811922133

$$$$
