
     RDKit          3D

 23 24  0  0  0  0  0  0  0  0999 V2000
   44.5745   35.9985   44.5035 C   0  0  0  0  0  0  0  0  0  0  0  0
   45.2225   35.9817   43.2564 C   0  0  0  0  0  0  0  0  0  0  0  0
   46.1020   34.9505   42.9652 C   0  0  0  0  0  0  0  0  0  0  0  0
   46.3047   33.9817   43.9143 N   0  0  0  0  0  0  0  0  0  0  0  0
   45.6738   34.0187   45.0999 C   0  0  0  0  0  0  0  0  0  0  0  0
   44.8175   35.0074   45.4045 N   0  0  0  0  0  0  0  0  0  0  0  0
   46.7201   34.9697   41.7266 O   0  0  0  0  0  0  0  0  0  0  0  0
   48.6364   33.3321   40.9560 O   0  0  0  0  0  0  0  0  0  0  0  0
   48.4089   34.6859   41.6335 P   0  0  0  0  0  0  0  0  0  0  0  0
   49.1209   35.9399   40.7927 O   0  0  0  0  0  0  0  0  0  0  0  0
   48.9934   34.5751   43.2284 O   0  0  0  0  0  0  0  0  0  0  0  0
   43.8819   36.7697   44.7896 H   0  0  0  0  0  0  0  0  0  0  0  0
   45.0013   36.8003   42.5522 H   0  0  0  0  0  0  0  0  0  0  0  0
   49.9353   36.2183   41.2820 H   0  0  0  0  0  0  0  0  0  0  0  0
   48.8443   33.6289   43.5317 H   0  0  0  0  0  0  0  0  0  0  0  0
   45.9551   32.9420   46.0450 C   0  0  0  0  0  0  0  0  0  0  0  0
   44.9210   32.1560   46.5299 C   0  0  0  0  0  0  0  0  0  0  0  0
   43.8433   32.1419   46.3637 H   0  0  0  0  0  0  0  0  0  0  0  0
   45.4535   31.2516   47.3729 N   0  0  0  0  0  0  0  0  0  0  0  0
   45.0810   30.4661   47.9667 H   0  0  0  0  0  0  0  0  0  0  0  0
   46.7914   31.4430   47.4342 C   0  0  0  0  0  0  0  0  0  0  0  0
   47.6099   30.9672   47.9666 H   0  0  0  0  0  0  0  0  0  0  0  0
   47.1089   32.4865   46.6159 N   0  0  0  0  0  0  0  0  0  0  0  0
  1  6  2  0
  2  1  1  0
  3  2  2  0
  3  4  1  0
  4  5  2  0
  5  6  1  0
  7  3  1  0
  8  9  2  0
  9  7  1  0
  9 11  1  0
 10  9  1  0
  1 12  1  0
  2 13  1  0
 10 14  1  0
 11 15  1  0
 16 17  2  0
 17 18  1  0
 17 19  1  0
 19 20  1  0
 19 21  1  0
 21 22  1  0
 21 23  2  0
 23 16  1  0
  5 16  1  0
M  ISO  7  12  14  13  14  14   3  15   3  18  15  20   5  22  14
M  END
>  <DihAtoms>  (1) 
3,4,15,16

>  <DihDeg>  (1) 
72.51365917558277

$$$$
