
 OpenBabel03252507063D

 23 24  0  0  0  0  0  0  0  0999 V2000
   44.5450   36.1210   44.3840 C   0  0  0  0  0  0  0  0  0  0  0  0
   45.2040   35.9840   43.1500 C   0  0  0  0  0  0  0  0  0  0  0  0
   46.0780   34.9220   42.9650 C   0  0  0  0  0  0  0  0  0  0  0  0
   46.2620   34.0440   44.0010 N   0  0  0  0  0  0  0  0  0  0  0  0
   45.6190   34.1960   45.1720 C   0  0  0  0  0  0  0  0  0  0  0  0
   44.7700   35.2150   45.3740 N   0  0  0  0  0  0  0  0  0  0  0  0
   43.8570   36.9220   44.5890 H   0  0  0  0  0  0  0  0  0  0  0  0
   44.9980   36.7350   42.3710 H   0  0  0  0  0  0  0  0  0  0  0  0
   45.8810   33.2090   46.2150 C   0  0  0  0  0  0  0  0  0  0  0  0
   46.9250   32.3080   46.0730 C   0  0  0  0  0  0  0  0  0  0  0  0
   47.6720   32.1370   45.2970 H   0  0  0  0  0  0  0  0  0  0  0  0
   46.9410   31.5210   47.1650 N   0  0  0  0  0  0  0  0  0  0  0  0
   47.5290   30.7180   47.5050 H   0  0  0  0  0  0  0  0  0  0  0  0
   45.9390   31.9000   47.9920 C   0  0  0  0  0  0  0  0  0  0  0  0
   45.5770   31.5650   48.9600 H   0  0  0  0  0  0  0  0  0  0  0  0
   45.2790   32.9430   47.4120 N   0  0  0  0  0  0  0  0  0  0  0  0
   46.7080   34.8220   41.7370 O   0  0  0  0  0  0  0  0  0  0  0  0
   48.7090   33.2500   41.0490 O   0  0  0  0  0  0  0  0  0  0  0  0
   48.4090   34.6080   41.6880 P   0  0  0  0  0  0  0  0  0  0  0  0
   49.0880   35.8710   40.8340 O   0  0  0  0  0  0  0  0  0  0  0  0
   49.8770   36.1950   41.3340 H   0  0  0  0  0  0  0  0  0  0  0  0
   48.9600   34.5590   43.2980 O   0  0  0  0  0  0  0  0  0  0  0  0
   48.8440   33.6150   43.6210 H   0  0  0  0  0  0  0  0  0  0  0  0
  1  7  1  0  0  0  0
  1  6  1  0  0  0  0
  2  1  2  0  0  0  0
  3  2  1  0  0  0  0
  3  4  2  0  0  0  0
  4  5  1  0  0  0  0
  5  6  2  0  0  0  0
  5  9  1  0  0  0  0
  8  2  1  0  0  0  0
  9 16  1  0  0  0  0
 10  9  2  0  0  0  0
 10 12  1  0  0  0  0
 11 10  1  0  0  0  0
 12 13  1  0  0  0  0
 12 14  1  0  0  0  0
 14 15  1  0  0  0  0
 16 14  2  0  0  0  0
 17  3  1  0  0  0  0
 18 19  2  0  0  0  0
 19 17  1  0  0  0  0
 19 22  1  0  0  0  0
 20 21  1  0  0  0  0
 20 19  1  0  0  0  0
 22 23  1  0  0  0  0
M  END
>  <minimizedAffinity>
-5.36871719

>  <minimizedRMSD>
0.349957675

$$$$
