
 OpenBabel03242512353D

 19 20  0  0  0  0  0  0  0  0999 V2000
   39.0170   30.2700   40.6990 C   0  0  0  0  0  0  0  0  0  0  0  0
   40.1050   30.0280   40.1200 O   0  0  0  0  0  0  0  0  0  0  0  0
   38.2120   29.3840   41.4790 C   0  0  0  0  0  0  0  0  0  0  0  0
   38.3690   29.5310   42.8580 C   0  0  0  0  0  0  0  0  0  0  0  0
   37.6020   28.6850   43.6690 C   0  0  0  0  0  0  0  0  0  0  0  0
   36.7600   27.7810   43.0680 N   0  0  0  0  0  0  0  0  0  0  0  0
   36.6540   27.6890   41.7380 C   0  0  0  0  0  0  0  0  0  0  0  0
   37.3820   28.4930   40.9430 N   0  0  0  0  0  0  0  0  0  0  0  0
   39.0380   30.2470   43.3210 H   0  0  0  0  0  0  0  0  0  0  0  0
   37.6900   28.7610   44.7500 H   0  0  0  0  0  0  0  0  0  0  0  0
   35.9560   26.9390   41.3730 H   0  0  0  0  0  0  0  0  0  0  0  0
   38.5250   31.6560   40.5390 C   0  0  0  0  0  0  0  0  0  0  0  0
   37.2390   32.0270   40.2050 C   0  0  0  0  0  0  0  0  0  0  0  0
   36.4000   31.3640   40.0100 H   0  0  0  0  0  0  0  0  0  0  0  0
   37.1140   33.3510   40.1390 N   0  0  0  0  0  0  0  0  0  0  0  0
   36.3080   33.9780   39.9190 H   0  0  0  0  0  0  0  0  0  0  0  0
   38.3380   33.8270   40.4350 C   0  0  0  0  0  0  0  0  0  0  0  0
   38.7150   34.8260   40.5040 H   0  0  0  0  0  0  0  0  0  0  0  0
   39.2010   32.8260   40.6790 N   0  0  0  0  0  0  0  0  0  0  0  0
  1  3  1  0  0  0  0
  2  1  2  0  0  0  0
  3  4  1  0  0  0  0
  4  9  1  0  0  0  0
  4  5  2  0  0  0  0
  5 10  1  0  0  0  0
  6  5  1  0  0  0  0
  7  6  2  0  0  0  0
  8  3  2  0  0  0  0
  8  7  1  0  0  0  0
 11  7  1  0  0  0  0
 12 19  1  0  0  0  0
 12  1  1  0  0  0  0
 13 12  2  0  0  0  0
 14 13  1  0  0  0  0
 15 13  1  0  0  0  0
 15 17  1  0  0  0  0
 16 15  1  0  0  0  0
 17 18  1  0  0  0  0
 17 19  2  0  0  0  0
M  END
>  <minimizedAffinity>
-3.99388433

$$$$

 OpenBabel03242512353D

 19 20  0  0  0  0  0  0  0  0999 V2000
   37.1560   29.0630   39.9440 C   0  0  0  0  0  0  0  0  0  0  0  0
   36.8580   28.4060   38.9160 O   0  0  0  0  0  0  0  0  0  0  0  0
   37.5190   28.5700   41.2360 C   0  0  0  0  0  0  0  0  0  0  0  0
   36.4640   27.9990   41.9490 C   0  0  0  0  0  0  0  0  0  0  0  0
   36.7670   27.4990   43.2220 C   0  0  0  0  0  0  0  0  0  0  0  0
   38.0590   27.6020   43.6800 N   0  0  0  0  0  0  0  0  0  0  0  0
   39.0270   28.1620   42.9460 C   0  0  0  0  0  0  0  0  0  0  0  0
   38.7560   28.6460   41.7220 N   0  0  0  0  0  0  0  0  0  0  0  0
   35.4480   27.9240   41.5780 H   0  0  0  0  0  0  0  0  0  0  0  0
   35.9780   27.0450   43.8170 H   0  0  0  0  0  0  0  0  0  0  0  0
   40.0110   28.1880   43.4090 H   0  0  0  0  0  0  0  0  0  0  0  0
   37.1220   30.5320   39.7730 C   0  0  0  0  0  0  0  0  0  0  0  0
   36.7360   31.4500   40.7280 C   0  0  0  0  0  0  0  0  0  0  0  0
   36.4010   31.2370   41.7400 H   0  0  0  0  0  0  0  0  0  0  0  0
   36.8150   32.6970   40.2660 N   0  0  0  0  0  0  0  0  0  0  0  0
   36.6080   33.6270   40.6930 H   0  0  0  0  0  0  0  0  0  0  0  0
   37.2570   32.5670   39.0010 C   0  0  0  0  0  0  0  0  0  0  0  0
   37.4710   33.2930   38.2440 H   0  0  0  0  0  0  0  0  0  0  0  0
   37.4480   31.2750   38.6840 N   0  0  0  0  0  0  0  0  0  0  0  0
  1  3  1  0  0  0  0
  2  1  2  0  0  0  0
  3  8  2  0  0  0  0
  3  4  1  0  0  0  0
  4  5  2  0  0  0  0
  5  6  1  0  0  0  0
  5 10  1  0  0  0  0
  7 11  1  0  0  0  0
  7  6  2  0  0  0  0
  8  7  1  0  0  0  0
  9  4  1  0  0  0  0
 12  1  1  0  0  0  0
 12 13  2  0  0  0  0
 13 14  1  0  0  0  0
 15 16  1  0  0  0  0
 15 13  1  0  0  0  0
 17 15  1  0  0  0  0
 18 17  1  0  0  0  0
 19 17  2  0  0  0  0
 19 12  1  0  0  0  0
M  END
>  <minimizedAffinity>
-3.97283459

$$$$

 OpenBabel03242512353D

 19 20  0  0  0  0  0  0  0  0999 V2000
   38.8630   32.9450   40.3210 C   0  0  0  0  0  0  0  0  0  0  0  0
   38.9210   34.0920   40.8300 O   0  0  0  0  0  0  0  0  0  0  0  0
   38.1430   31.8030   40.7890 C   0  0  0  0  0  0  0  0  0  0  0  0
   38.9230   30.8770   41.4810 C   0  0  0  0  0  0  0  0  0  0  0  0
   38.2650   29.7380   41.9620 C   0  0  0  0  0  0  0  0  0  0  0  0
   36.9170   29.6070   41.7250 N   0  0  0  0  0  0  0  0  0  0  0  0
   36.2240   30.5330   41.0530 C   0  0  0  0  0  0  0  0  0  0  0  0
   36.8390   31.6330   40.5850 N   0  0  0  0  0  0  0  0  0  0  0  0
   39.9860   30.9900   41.6610 H   0  0  0  0  0  0  0  0  0  0  0  0
   38.8310   28.9860   42.5070 H   0  0  0  0  0  0  0  0  0  0  0  0
   35.1640   30.3250   40.9260 H   0  0  0  0  0  0  0  0  0  0  0  0
   39.6490   32.7800   39.0780 C   0  0  0  0  0  0  0  0  0  0  0  0
   39.2180   32.1590   37.9240 C   0  0  0  0  0  0  0  0  0  0  0  0
   38.2470   31.7020   37.7530 H   0  0  0  0  0  0  0  0  0  0  0  0
   40.1590   32.1720   36.9820 N   0  0  0  0  0  0  0  0  0  0  0  0
   40.1910   31.8050   36.0040 H   0  0  0  0  0  0  0  0  0  0  0  0
   41.2020   32.8100   37.5470 C   0  0  0  0  0  0  0  0  0  0  0  0
   42.1740   33.0550   37.1720 H   0  0  0  0  0  0  0  0  0  0  0  0
   40.9170   33.1830   38.8060 N   0  0  0  0  0  0  0  0  0  0  0  0
  1  3  1  0  0  0  0
  1  2  2  0  0  0  0
  3  4  1  0  0  0  0
  4  9  1  0  0  0  0
  4  5  2  0  0  0  0
  5 10  1  0  0  0  0
  6  5  1  0  0  0  0
  7  6  2  0  0  0  0
  8  3  2  0  0  0  0
  8  7  1  0  0  0  0
 11  7  1  0  0  0  0
 12  1  1  0  0  0  0
 13 12  2  0  0  0  0
 14 13  1  0  0  0  0
 15 17  1  0  0  0  0
 15 13  1  0  0  0  0
 16 15  1  0  0  0  0
 17 19  2  0  0  0  0
 18 17  1  0  0  0  0
 19 12  1  0  0  0  0
M  END
>  <minimizedAffinity>
-3.95548916

$$$$

 OpenBabel03242512353D

 19 20  0  0  0  0  0  0  0  0999 V2000
   36.8100   27.4530   42.4450 C   0  0  0  0  0  0  0  0  0  0  0  0
   36.5790   27.4700   43.6800 O   0  0  0  0  0  0  0  0  0  0  0  0
   37.3570   26.3910   41.6610 C   0  0  0  0  0  0  0  0  0  0  0  0
   37.0130   25.1140   42.1060 C   0  0  0  0  0  0  0  0  0  0  0  0
   37.5230   24.0360   41.3710 C   0  0  0  0  0  0  0  0  0  0  0  0
   38.3150   24.2990   40.2790 N   0  0  0  0  0  0  0  0  0  0  0  0
   38.6090   25.5490   39.9020 C   0  0  0  0  0  0  0  0  0  0  0  0
   38.1280   26.5960   40.5950 N   0  0  0  0  0  0  0  0  0  0  0  0
   36.3880   24.9180   42.9690 H   0  0  0  0  0  0  0  0  0  0  0  0
   37.2840   23.0210   41.6780 H   0  0  0  0  0  0  0  0  0  0  0  0
   39.2440   25.6380   39.0230 H   0  0  0  0  0  0  0  0  0  0  0  0
   36.4630   28.7020   41.7330 C   0  0  0  0  0  0  0  0  0  0  0  0
   35.4390   28.8570   40.8220 C   0  0  0  0  0  0  0  0  0  0  0  0
   34.7380   28.0940   40.4920 H   0  0  0  0  0  0  0  0  0  0  0  0
   35.3850   30.1040   40.3550 N   0  0  0  0  0  0  0  0  0  0  0  0
   34.7580   30.5780   39.6680 H   0  0  0  0  0  0  0  0  0  0  0  0
   36.3900   30.7470   40.9790 C   0  0  0  0  0  0  0  0  0  0  0  0
   36.7290   31.7610   40.9210 H   0  0  0  0  0  0  0  0  0  0  0  0
   37.0500   29.9240   41.8110 N   0  0  0  0  0  0  0  0  0  0  0  0
  1  2  2  0  0  0  0
  3  4  1  0  0  0  0
  3  1  1  0  0  0  0
  4  9  1  0  0  0  0
  5 10  1  0  0  0  0
  5  4  2  0  0  0  0
  6  5  1  0  0  0  0
  7  6  2  0  0  0  0
  7  8  1  0  0  0  0
  8  3  2  0  0  0  0
 11  7  1  0  0  0  0
 12 19  1  0  0  0  0
 12  1  1  0  0  0  0
 13 12  2  0  0  0  0
 14 13  1  0  0  0  0
 15 13  1  0  0  0  0
 15 17  1  0  0  0  0
 16 15  1  0  0  0  0
 17 19  2  0  0  0  0
 18 17  1  0  0  0  0
M  END
>  <minimizedAffinity>
-3.93857503

$$$$

 OpenBabel03242512353D

 19 20  0  0  0  0  0  0  0  0999 V2000
   37.0600   28.9880   39.9440 C   0  0  0  0  0  0  0  0  0  0  0  0
   36.7810   28.3640   38.8900 O   0  0  0  0  0  0  0  0  0  0  0  0
   37.3630   28.4560   41.2350 C   0  0  0  0  0  0  0  0  0  0  0  0
   38.7190   28.4820   41.5620 C   0  0  0  0  0  0  0  0  0  0  0  0
   39.0700   27.9720   42.8190 C   0  0  0  0  0  0  0  0  0  0  0  0
   38.0750   27.4860   43.6340 N   0  0  0  0  0  0  0  0  0  0  0  0
   36.7910   27.4890   43.2610 C   0  0  0  0  0  0  0  0  0  0  0  0
   36.4350   27.9750   42.0590 N   0  0  0  0  0  0  0  0  0  0  0  0
   39.4950   28.8670   40.9110 H   0  0  0  0  0  0  0  0  0  0  0  0
   40.1150   27.9700   43.1200 H   0  0  0  0  0  0  0  0  0  0  0  0
   36.0910   27.0800   43.9860 H   0  0  0  0  0  0  0  0  0  0  0  0
   37.0730   30.4610   39.8060 C   0  0  0  0  0  0  0  0  0  0  0  0
   36.5910   31.3660   40.7300 C   0  0  0  0  0  0  0  0  0  0  0  0
   36.1330   31.1360   41.6880 H   0  0  0  0  0  0  0  0  0  0  0  0
   36.7470   32.6200   40.3120 N   0  0  0  0  0  0  0  0  0  0  0  0
   36.5070   33.5450   40.7350 H   0  0  0  0  0  0  0  0  0  0  0  0
   37.3370   32.5100   39.1070 C   0  0  0  0  0  0  0  0  0  0  0  0
   37.6540   33.2490   38.3990 H   0  0  0  0  0  0  0  0  0  0  0  0
   37.5420   31.2220   38.7830 N   0  0  0  0  0  0  0  0  0  0  0  0
  1  3  1  0  0  0  0
  2  1  2  0  0  0  0
  3  4  2  0  0  0  0
  3  8  1  0  0  0  0
  4  5  1  0  0  0  0
  5 10  1  0  0  0  0
  5  6  2  0  0  0  0
  7  6  1  0  0  0  0
  7 11  1  0  0  0  0
  8  7  2  0  0  0  0
  9  4  1  0  0  0  0
 12  1  1  0  0  0  0
 12 13  2  0  0  0  0
 13 14  1  0  0  0  0
 15 13  1  0  0  0  0
 15 16  1  0  0  0  0
 17 15  1  0  0  0  0
 18 17  1  0  0  0  0
 19 17  2  0  0  0  0
 19 12  1  0  0  0  0
M  END
>  <minimizedAffinity>
-3.84731698

$$$$

 OpenBabel03242512353D

 19 20  0  0  0  0  0  0  0  0999 V2000
   38.0690   29.5760   40.1750 C   0  0  0  0  0  0  0  0  0  0  0  0
   38.2960   28.7370   39.2670 O   0  0  0  0  0  0  0  0  0  0  0  0
   38.2450   30.9930   40.1350 C   0  0  0  0  0  0  0  0  0  0  0  0
   37.1250   31.6980   39.6950 C   0  0  0  0  0  0  0  0  0  0  0  0
   37.2440   33.0930   39.6380 C   0  0  0  0  0  0  0  0  0  0  0  0
   38.4360   33.6670   40.0110 N   0  0  0  0  0  0  0  0  0  0  0  0
   39.4760   32.9350   40.4250 C   0  0  0  0  0  0  0  0  0  0  0  0
   39.3790   31.5950   40.4870 N   0  0  0  0  0  0  0  0  0  0  0  0
   36.1900   31.2350   39.4020 H   0  0  0  0  0  0  0  0  0  0  0  0
   36.3980   33.6870   39.3010 H   0  0  0  0  0  0  0  0  0  0  0  0
   40.3680   33.4960   40.6950 H   0  0  0  0  0  0  0  0  0  0  0  0
   37.5530   29.0000   41.4360 C   0  0  0  0  0  0  0  0  0  0  0  0
   37.7230   29.5300   42.6980 C   0  0  0  0  0  0  0  0  0  0  0  0
   38.2560   30.4420   42.9560 H   0  0  0  0  0  0  0  0  0  0  0  0
   37.1390   28.7750   43.6270 N   0  0  0  0  0  0  0  0  0  0  0  0
   37.0620   28.8600   44.6660 H   0  0  0  0  0  0  0  0  0  0  0  0
   36.5910   27.7520   42.9450 C   0  0  0  0  0  0  0  0  0  0  0  0
   36.0250   26.9030   43.2680 H   0  0  0  0  0  0  0  0  0  0  0  0
   36.8280   27.8670   41.6270 N   0  0  0  0  0  0  0  0  0  0  0  0
  1 12  1  0  0  0  0
  2  1  2  0  0  0  0
  3  1  1  0  0  0  0
  3  8  1  0  0  0  0
  4  3  2  0  0  0  0
  5  4  1  0  0  0  0
  5  6  2  0  0  0  0
  6  7  1  0  0  0  0
  7  8  2  0  0  0  0
  7 11  1  0  0  0  0
  9  4  1  0  0  0  0
 10  5  1  0  0  0  0
 12 19  1  0  0  0  0
 12 13  2  0  0  0  0
 13 14  1  0  0  0  0
 13 15  1  0  0  0  0
 15 16  1  0  0  0  0
 17 18  1  0  0  0  0
 17 15  1  0  0  0  0
 19 17  2  0  0  0  0
M  END
>  <minimizedAffinity>
-3.71831298

$$$$

 OpenBabel03242512353D

 19 20  0  0  0  0  0  0  0  0999 V2000
   39.5250   31.0390   42.0080 C   0  0  0  0  0  0  0  0  0  0  0  0
   40.5490   31.0950   42.7330 O   0  0  0  0  0  0  0  0  0  0  0  0
   38.4670   30.0790   42.0420 C   0  0  0  0  0  0  0  0  0  0  0  0
   38.5550   29.1660   43.0930 C   0  0  0  0  0  0  0  0  0  0  0  0
   37.5410   28.2030   43.1720 C   0  0  0  0  0  0  0  0  0  0  0  0
   36.5420   28.2180   42.2280 N   0  0  0  0  0  0  0  0  0  0  0  0
   36.5140   29.1220   41.2430 C   0  0  0  0  0  0  0  0  0  0  0  0
   37.4790   30.0550   41.1500 N   0  0  0  0  0  0  0  0  0  0  0  0
   39.3480   29.1620   43.8320 H   0  0  0  0  0  0  0  0  0  0  0  0
   37.5660   27.4680   43.9730 H   0  0  0  0  0  0  0  0  0  0  0  0
   35.6770   29.0400   40.5530 H   0  0  0  0  0  0  0  0  0  0  0  0
   39.4220   32.1140   40.9970 C   0  0  0  0  0  0  0  0  0  0  0  0
   39.9860   32.1000   39.7380 C   0  0  0  0  0  0  0  0  0  0  0  0
   40.5860   31.3050   39.3020 H   0  0  0  0  0  0  0  0  0  0  0  0
   39.7120   33.2170   39.0670 N   0  0  0  0  0  0  0  0  0  0  0  0
   39.9650   33.5510   38.1100 H   0  0  0  0  0  0  0  0  0  0  0  0
   38.9640   33.9500   39.9130 C   0  0  0  0  0  0  0  0  0  0  0  0
   38.5150   34.9170   39.8110 H   0  0  0  0  0  0  0  0  0  0  0  0
   38.7770   33.3070   41.0780 N   0  0  0  0  0  0  0  0  0  0  0  0
  1  3  1  0  0  0  0
  1  2  2  0  0  0  0
  3  4  1  0  0  0  0
  4  5  2  0  0  0  0
  4  9  1  0  0  0  0
  5 10  1  0  0  0  0
  6  5  1  0  0  0  0
  7  6  2  0  0  0  0
  8  7  1  0  0  0  0
  8  3  2  0  0  0  0
 11  7  1  0  0  0  0
 12 19  1  0  0  0  0
 12  1  1  0  0  0  0
 13 12  2  0  0  0  0
 14 13  1  0  0  0  0
 15 13  1  0  0  0  0
 15 17  1  0  0  0  0
 16 15  1  0  0  0  0
 17 19  2  0  0  0  0
 18 17  1  0  0  0  0
M  END
>  <minimizedAffinity>
-3.69916511

$$$$

 OpenBabel03242512353D

 19 20  0  0  0  0  0  0  0  0999 V2000
   38.3920   25.9790   42.4380 C   0  0  0  0  0  0  0  0  0  0  0  0
   39.1840   25.3740   43.2020 O   0  0  0  0  0  0  0  0  0  0  0  0
   37.6630   25.4590   41.3250 C   0  0  0  0  0  0  0  0  0  0  0  0
   37.4950   24.0740   41.3450 C   0  0  0  0  0  0  0  0  0  0  0  0
   36.7860   23.5130   40.2750 C   0  0  0  0  0  0  0  0  0  0  0  0
   36.3100   24.3470   39.2920 N   0  0  0  0  0  0  0  0  0  0  0  0
   36.5030   25.6700   39.3300 C   0  0  0  0  0  0  0  0  0  0  0  0
   37.1810   26.2260   40.3490 N   0  0  0  0  0  0  0  0  0  0  0  0
   37.8770   23.4260   42.1260 H   0  0  0  0  0  0  0  0  0  0  0  0
   36.6310   22.4380   40.2460 H   0  0  0  0  0  0  0  0  0  0  0  0
   36.0810   26.2300   38.4990 H   0  0  0  0  0  0  0  0  0  0  0  0
   38.2030   27.4130   42.7520 C   0  0  0  0  0  0  0  0  0  0  0  0
   37.2600   27.9370   43.6110 C   0  0  0  0  0  0  0  0  0  0  0  0
   36.5190   27.3840   44.1820 H   0  0  0  0  0  0  0  0  0  0  0  0
   37.3460   29.2650   43.6800 N   0  0  0  0  0  0  0  0  0  0  0  0
   36.8090   29.9850   44.2130 H   0  0  0  0  0  0  0  0  0  0  0  0
   38.3580   29.5860   42.8520 C   0  0  0  0  0  0  0  0  0  0  0  0
   38.7880   30.5300   42.5870 H   0  0  0  0  0  0  0  0  0  0  0  0
   38.8870   28.4890   42.2840 N   0  0  0  0  0  0  0  0  0  0  0  0
  1 12  1  0  0  0  0
  1  2  2  0  0  0  0
  3  4  1  0  0  0  0
  3  1  1  0  0  0  0
  4  9  1  0  0  0  0
  5  4  2  0  0  0  0
  6  7  2  0  0  0  0
  6  5  1  0  0  0  0
  7  8  1  0  0  0  0
  8  3  2  0  0  0  0
 10  5  1  0  0  0  0
 11  7  1  0  0  0  0
 12 13  2  0  0  0  0
 13 15  1  0  0  0  0
 13 14  1  0  0  0  0
 15 16  1  0  0  0  0
 17 15  1  0  0  0  0
 18 17  1  0  0  0  0
 19 12  1  0  0  0  0
 19 17  2  0  0  0  0
M  END
>  <minimizedAffinity>
-3.67250204

$$$$

 OpenBabel03242512353D

 19 20  0  0  0  0  0  0  0  0999 V2000
   36.5540   27.4680   39.5740 C   0  0  0  0  0  0  0  0  0  0  0  0
   36.2950   27.3990   38.3470 O   0  0  0  0  0  0  0  0  0  0  0  0
   36.9270   26.4130   40.4620 C   0  0  0  0  0  0  0  0  0  0  0  0
   36.5630   25.1390   40.0250 C   0  0  0  0  0  0  0  0  0  0  0  0
   36.9070   24.0680   40.8590 C   0  0  0  0  0  0  0  0  0  0  0  0
   37.5680   24.3350   42.0350 N   0  0  0  0  0  0  0  0  0  0  0  0
   37.8900   25.5810   42.3980 C   0  0  0  0  0  0  0  0  0  0  0  0
   37.5690   26.6210   41.6100 N   0  0  0  0  0  0  0  0  0  0  0  0
   36.0410   24.9410   39.0960 H   0  0  0  0  0  0  0  0  0  0  0  0
   36.6440   23.0560   40.5620 H   0  0  0  0  0  0  0  0  0  0  0  0
   38.4130   25.6730   43.3480 H   0  0  0  0  0  0  0  0  0  0  0  0
   36.4540   28.8260   40.1520 C   0  0  0  0  0  0  0  0  0  0  0  0
   35.3040   29.4250   40.6240 C   0  0  0  0  0  0  0  0  0  0  0  0
   34.3060   28.9940   40.6420 H   0  0  0  0  0  0  0  0  0  0  0  0
   35.5440   30.6520   41.0800 N   0  0  0  0  0  0  0  0  0  0  0  0
   34.9310   31.3860   41.5010 H   0  0  0  0  0  0  0  0  0  0  0  0
   36.8650   30.8350   40.8960 C   0  0  0  0  0  0  0  0  0  0  0  0
   37.5050   31.6660   41.1120 H   0  0  0  0  0  0  0  0  0  0  0  0
   37.4310   29.7510   40.3400 N   0  0  0  0  0  0  0  0  0  0  0  0
  1 12  1  0  0  0  0
  1  3  1  0  0  0  0
  2  1  2  0  0  0  0
  3  8  1  0  0  0  0
  4  3  2  0  0  0  0
  4  5  1  0  0  0  0
  5  6  2  0  0  0  0
  6  7  1  0  0  0  0
  7 11  1  0  0  0  0
  8  7  2  0  0  0  0
  9  4  1  0  0  0  0
 10  5  1  0  0  0  0
 12 19  1  0  0  0  0
 12 13  2  0  0  0  0
 13 14  1  0  0  0  0
 13 15  1  0  0  0  0
 15 16  1  0  0  0  0
 17 15  1  0  0  0  0
 17 18  1  0  0  0  0
 19 17  2  0  0  0  0
M  END
>  <minimizedAffinity>
-3.65961599

$$$$
