
 OpenBabel03252507063D

 23 24  0  0  0  0  0  0  0  0999 V2000
   44.6070   35.6500   44.7850 C   0  0  0  0  0  0  0  0  0  0  0  0
   45.1990   35.7730   43.5160 C   0  0  0  0  0  0  0  0  0  0  0  0
   46.1820   34.8690   43.1390 C   0  0  0  0  0  0  0  0  0  0  0  0
   46.5370   33.8870   44.0270 N   0  0  0  0  0  0  0  0  0  0  0  0
   45.9560   33.7890   45.2350 C   0  0  0  0  0  0  0  0  0  0  0  0
   45.0020   34.6510   45.6210 N   0  0  0  0  0  0  0  0  0  0  0  0
   43.8410   36.3180   45.1370 H   0  0  0  0  0  0  0  0  0  0  0  0
   44.8550   36.5920   42.8660 H   0  0  0  0  0  0  0  0  0  0  0  0
   46.4000   32.7080   46.1100 C   0  0  0  0  0  0  0  0  0  0  0  0
   46.1210   31.3910   45.7830 C   0  0  0  0  0  0  0  0  0  0  0  0
   45.5990   30.9150   44.9510 H   0  0  0  0  0  0  0  0  0  0  0  0
   46.6390   30.6090   46.7490 N   0  0  0  0  0  0  0  0  0  0  0  0
   46.6820   29.5740   46.9370 H   0  0  0  0  0  0  0  0  0  0  0  0
   47.2360   31.3940   47.6750 C   0  0  0  0  0  0  0  0  0  0  0  0
   47.7720   31.2130   48.6020 H   0  0  0  0  0  0  0  0  0  0  0  0
   47.0930   32.6940   47.2860 N   0  0  0  0  0  0  0  0  0  0  0  0
   46.7420   35.0250   41.8830 O   0  0  0  0  0  0  0  0  0  0  0  0
   48.5360   33.2740   41.0680 O   0  0  0  0  0  0  0  0  0  0  0  0
   48.4070   34.6780   41.6630 P   0  0  0  0  0  0  0  0  0  0  0  0
   49.0750   35.8460   40.6760 O   0  0  0  0  0  0  0  0  0  0  0  0
   49.9370   36.1300   41.0710 H   0  0  0  0  0  0  0  0  0  0  0  0
   49.1280   34.6590   43.2050 O   0  0  0  0  0  0  0  0  0  0  0  0
   48.9810   33.7420   43.5880 H   0  0  0  0  0  0  0  0  0  0  0  0
  1  7  1  0  0  0  0
  1  6  1  0  0  0  0
  2  1  2  0  0  0  0
  3  2  1  0  0  0  0
  3  4  2  0  0  0  0
  4  5  1  0  0  0  0
  5  6  2  0  0  0  0
  5  9  1  0  0  0  0
  8  2  1  0  0  0  0
  9 16  1  0  0  0  0
 10  9  2  0  0  0  0
 10 12  1  0  0  0  0
 11 10  1  0  0  0  0
 12 13  1  0  0  0  0
 12 14  1  0  0  0  0
 14 15  1  0  0  0  0
 16 14  2  0  0  0  0
 17  3  1  0  0  0  0
 18 19  2  0  0  0  0
 19 17  1  0  0  0  0
 19 22  1  0  0  0  0
 20 21  1  0  0  0  0
 20 19  1  0  0  0  0
 22 23  1  0  0  0  0
M  END
>  <minimizedAffinity>
-5.22125435

>  <minimizedRMSD>
0.57024616

$$$$
