
 OpenBabel03242518243D

 31 33  0  0  0  0  0  0  0  0999 V2000
   39.5240   28.6830   41.5750 C   0  0  0  0  0  0  0  0  0  0  0  0
   38.4150   28.0600   42.1430 C   0  0  0  0  0  0  0  0  0  0  0  0
   37.2250   28.7690   42.2290 C   0  0  0  0  0  0  0  0  0  0  0  0
   37.1840   30.0430   41.7580 N   0  0  0  0  0  0  0  0  0  0  0  0
   38.2730   30.6220   41.2120 C   0  0  0  0  0  0  0  0  0  0  0  0
   39.4370   29.9500   41.1190 N   0  0  0  0  0  0  0  0  0  0  0  0
   40.5230   28.3020   41.4220 H   0  0  0  0  0  0  0  0  0  0  0  0
   36.4060   28.2330   42.6790 H   0  0  0  0  0  0  0  0  0  0  0  0
   38.6280   26.7240   42.5850 N   0  0  0  0  0  0  0  0  0  0  0  0
   37.9050   25.6810   41.9120 C   0  0  0  0  0  0  0  0  0  0  0  0
   38.1530   24.3230   42.4530 C   0  0  0  0  0  0  0  0  0  0  0  0
   39.5190   24.0370   42.7380 N   0  0  0  0  0  0  0  0  0  0  0  0
   40.3430   25.1050   43.1580 C   0  0  0  0  0  0  0  0  0  0  0  0
   39.4860   26.2660   43.6370 C   0  0  0  0  0  0  0  0  0  0  0  0
   38.2640   25.6700   40.8420 H   0  0  0  0  0  0  0  0  0  0  0  0
   36.8290   25.9140   41.9640 H   0  0  0  0  0  0  0  0  0  0  0  0
   37.5490   24.2330   43.4000 H   0  0  0  0  0  0  0  0  0  0  0  0
   37.7480   23.5720   41.7430 H   0  0  0  0  0  0  0  0  0  0  0  0
   39.5160   23.3200   43.5230 H   0  0  0  0  0  0  0  0  0  0  0  0
   41.1020   24.8680   43.9040 H   0  0  0  0  0  0  0  0  0  0  0  0
   40.8970   25.4930   42.2560 H   0  0  0  0  0  0  0  0  0  0  0  0
   38.8290   25.8270   44.4260 H   0  0  0  0  0  0  0  0  0  0  0  0
   40.1890   27.0030   44.0340 H   0  0  0  0  0  0  0  0  0  0  0  0
   38.1040   32.0060   40.7360 C   0  0  0  0  0  0  0  0  0  0  0  0
   37.0660   32.4950   39.9560 C   0  0  0  0  0  0  0  0  0  0  0  0
   36.2440   31.8750   39.6070 H   0  0  0  0  0  0  0  0  0  0  0  0
   37.3050   33.8130   39.7520 N   0  0  0  0  0  0  0  0  0  0  0  0
   36.6990   34.4430   39.2050 H   0  0  0  0  0  0  0  0  0  0  0  0
   38.4320   34.1370   40.3730 C   0  0  0  0  0  0  0  0  0  0  0  0
   38.9230   35.0820   40.4280 H   0  0  0  0  0  0  0  0  0  0  0  0
   38.9350   33.0270   40.9840 N   0  0  0  0  0  0  0  0  0  0  0  0
  1  2  1  0  0  0  0
  2  3  2  0  0  0  0
  2  9  1  0  0  0  0
  3  8  1  0  0  0  0
  4  3  1  0  0  0  0
  5  4  2  0  0  0  0
  6  5  1  0  0  0  0
  6  1  2  0  0  0  0
  7  1  1  0  0  0  0
  9 14  1  0  0  0  0
 10 16  1  0  0  0  0
 10 11  1  0  0  0  0
 10  9  1  0  0  0  0
 11 12  1  0  0  0  0
 11 17  1  0  0  0  0
 12 13  1  0  0  0  0
 12 19  1  0  0  0  0
 13 14  1  0  0  0  0
 13 20  1  0  0  0  0
 14 23  1  0  0  0  0
 14 22  1  0  0  0  0
 15 10  1  0  0  0  0
 18 11  1  0  0  0  0
 21 13  1  0  0  0  0
 24 31  1  0  0  0  0
 24  5  1  0  0  0  0
 25 24  2  0  0  0  0
 26 25  1  0  0  0  0
 27 25  1  0  0  0  0
 27 29  1  0  0  0  0
 28 27  1  0  0  0  0
 29 30  1  0  0  0  0
 29 31  2  0  0  0  0
M  END
>  <minimizedAffinity>
-4.94916821

$$$$

 OpenBabel03242518243D

 31 33  0  0  0  0  0  0  0  0999 V2000
   38.9710   28.2520   40.2300 C   0  0  0  0  0  0  0  0  0  0  0  0
   38.4810   27.7570   41.4370 C   0  0  0  0  0  0  0  0  0  0  0  0
   37.8750   28.6380   42.3200 C   0  0  0  0  0  0  0  0  0  0  0  0
   37.7800   29.9510   41.9780 N   0  0  0  0  0  0  0  0  0  0  0  0
   38.2640   30.4030   40.8020 C   0  0  0  0  0  0  0  0  0  0  0  0
   38.8560   29.5630   39.9310 N   0  0  0  0  0  0  0  0  0  0  0  0
   39.4680   27.7310   39.4250 H   0  0  0  0  0  0  0  0  0  0  0  0
   37.5180   28.1950   43.2350 H   0  0  0  0  0  0  0  0  0  0  0  0
   38.6590   26.3590   41.6380 N   0  0  0  0  0  0  0  0  0  0  0  0
   39.5780   25.9500   42.6630 C   0  0  0  0  0  0  0  0  0  0  0  0
   39.7340   24.4810   42.7870 C   0  0  0  0  0  0  0  0  0  0  0  0
   38.5160   23.7450   42.7260 N   0  0  0  0  0  0  0  0  0  0  0  0
   37.4740   24.2600   41.9220 C   0  0  0  0  0  0  0  0  0  0  0  0
   38.0310   25.2780   40.9390 C   0  0  0  0  0  0  0  0  0  0  0  0
   39.1560   26.3100   43.6460 H   0  0  0  0  0  0  0  0  0  0  0  0
   40.5560   26.4150   42.4600 H   0  0  0  0  0  0  0  0  0  0  0  0
   40.4100   24.1520   41.9470 H   0  0  0  0  0  0  0  0  0  0  0  0
   40.2680   24.2530   43.7340 H   0  0  0  0  0  0  0  0  0  0  0  0
   38.7650   22.7880   42.3370 H   0  0  0  0  0  0  0  0  0  0  0  0
   36.8620   23.5280   41.3950 H   0  0  0  0  0  0  0  0  0  0  0  0
   36.7740   24.8380   42.5880 H   0  0  0  0  0  0  0  0  0  0  0  0
   38.8370   24.7330   40.3910 H   0  0  0  0  0  0  0  0  0  0  0  0
   37.1900   25.5500   40.2940 H   0  0  0  0  0  0  0  0  0  0  0  0
   38.1020   31.8450   40.5450 C   0  0  0  0  0  0  0  0  0  0  0  0
   37.0270   32.4620   39.9210 C   0  0  0  0  0  0  0  0  0  0  0  0
   36.1650   31.9140   39.5480 H   0  0  0  0  0  0  0  0  0  0  0  0
   37.2890   33.7910   39.8930 N   0  0  0  0  0  0  0  0  0  0  0  0
   36.6650   34.5050   39.4880 H   0  0  0  0  0  0  0  0  0  0  0  0
   38.4670   34.0000   40.4690 C   0  0  0  0  0  0  0  0  0  0  0  0
   38.9870   34.9170   40.6240 H   0  0  0  0  0  0  0  0  0  0  0  0
   38.9780   32.8030   40.8760 N   0  0  0  0  0  0  0  0  0  0  0  0
  1  2  1  0  0  0  0
  2  9  1  0  0  0  0
  2  3  2  0  0  0  0
  3  8  1  0  0  0  0
  4  3  1  0  0  0  0
  5  4  2  0  0  0  0
  6  1  2  0  0  0  0
  6  5  1  0  0  0  0
  7  1  1  0  0  0  0
  9 10  1  0  0  0  0
 10 11  1  0  0  0  0
 10 15  1  0  0  0  0
 11 18  1  0  0  0  0
 12 11  1  0  0  0  0
 13 21  1  0  0  0  0
 13 12  1  0  0  0  0
 14  9  1  0  0  0  0
 14 13  1  0  0  0  0
 16 10  1  0  0  0  0
 17 11  1  0  0  0  0
 19 12  1  0  0  0  0
 20 13  1  0  0  0  0
 22 14  1  0  0  0  0
 23 14  1  0  0  0  0
 24  5  1  0  0  0  0
 24 31  1  0  0  0  0
 25 24  2  0  0  0  0
 26 25  1  0  0  0  0
 27 25  1  0  0  0  0
 27 29  1  0  0  0  0
 28 27  1  0  0  0  0
 29 30  1  0  0  0  0
 29 31  2  0  0  0  0
M  END
>  <minimizedAffinity>
-4.79899454

$$$$

 OpenBabel03242518243D

 31 33  0  0  0  0  0  0  0  0999 V2000
   39.1580   29.3530   40.6470 C   0  0  0  0  0  0  0  0  0  0  0  0
   38.1770   30.0740   41.3230 C   0  0  0  0  0  0  0  0  0  0  0  0
   37.4440   29.4350   42.3130 C   0  0  0  0  0  0  0  0  0  0  0  0
   37.7070   28.1300   42.5860 N   0  0  0  0  0  0  0  0  0  0  0  0
   38.6630   27.4540   41.9150 C   0  0  0  0  0  0  0  0  0  0  0  0
   39.3860   28.0580   40.9510 N   0  0  0  0  0  0  0  0  0  0  0  0
   39.8220   29.6700   39.8570 H   0  0  0  0  0  0  0  0  0  0  0  0
   36.7010   30.0460   42.7980 H   0  0  0  0  0  0  0  0  0  0  0  0
   38.0300   31.4310   40.9170 N   0  0  0  0  0  0  0  0  0  0  0  0
   39.1470   32.3090   41.1270 C   0  0  0  0  0  0  0  0  0  0  0  0
   38.9030   33.7110   40.7100 C   0  0  0  0  0  0  0  0  0  0  0  0
   38.2390   33.8530   39.4580 N   0  0  0  0  0  0  0  0  0  0  0  0
   37.3110   32.8550   39.0870 C   0  0  0  0  0  0  0  0  0  0  0  0
   36.8920   32.0540   40.3100 C   0  0  0  0  0  0  0  0  0  0  0  0
   39.9920   31.9270   40.4850 H   0  0  0  0  0  0  0  0  0  0  0  0
   39.4170   32.2780   42.1950 H   0  0  0  0  0  0  0  0  0  0  0  0
   38.2790   34.1890   41.5180 H   0  0  0  0  0  0  0  0  0  0  0  0
   39.8710   34.2550   40.6910 H   0  0  0  0  0  0  0  0  0  0  0  0
   37.7060   34.7710   39.5060 H   0  0  0  0  0  0  0  0  0  0  0  0
   36.4290   33.1910   38.5420 H   0  0  0  0  0  0  0  0  0  0  0  0
   37.8380   32.1210   38.4150 H   0  0  0  0  0  0  0  0  0  0  0  0
   36.5140   32.8160   41.0340 H   0  0  0  0  0  0  0  0  0  0  0  0
   36.1060   31.3780   39.9610 H   0  0  0  0  0  0  0  0  0  0  0  0
   38.8560   26.0450   42.3010 C   0  0  0  0  0  0  0  0  0  0  0  0
   38.0010   24.9860   42.0320 C   0  0  0  0  0  0  0  0  0  0  0  0
   37.0670   25.1020   41.4880 H   0  0  0  0  0  0  0  0  0  0  0  0
   38.5620   23.8740   42.5650 N   0  0  0  0  0  0  0  0  0  0  0  0
   38.1490   22.9300   42.5220 H   0  0  0  0  0  0  0  0  0  0  0  0
   39.7100   24.2140   43.1380 C   0  0  0  0  0  0  0  0  0  0  0  0
   40.4140   23.6000   43.6510 H   0  0  0  0  0  0  0  0  0  0  0  0
   39.9010   25.5550   42.9800 N   0  0  0  0  0  0  0  0  0  0  0  0
  1  6  2  0  0  0  0
  1  2  1  0  0  0  0
  2  3  2  0  0  0  0
  3  4  1  0  0  0  0
  3  8  1  0  0  0  0
  5 24  1  0  0  0  0
  5  4  2  0  0  0  0
  6  5  1  0  0  0  0
  7  1  1  0  0  0  0
  9 10  1  0  0  0  0
  9  2  1  0  0  0  0
 10 16  1  0  0  0  0
 11 10  1  0  0  0  0
 11 17  1  0  0  0  0
 12 19  1  0  0  0  0
 12 11  1  0  0  0  0
 13 12  1  0  0  0  0
 13 14  1  0  0  0  0
 14  9  1  0  0  0  0
 14 22  1  0  0  0  0
 15 10  1  0  0  0  0
 18 11  1  0  0  0  0
 20 13  1  0  0  0  0
 21 13  1  0  0  0  0
 23 14  1  0  0  0  0
 24 31  1  0  0  0  0
 25 24  2  0  0  0  0
 25 27  1  0  0  0  0
 26 25  1  0  0  0  0
 27 29  1  0  0  0  0
 28 27  1  0  0  0  0
 29 30  1  0  0  0  0
 31 29  2  0  0  0  0
M  END
>  <minimizedAffinity>
-4.69980145

$$$$

 OpenBabel03242518243D

 31 33  0  0  0  0  0  0  0  0999 V2000
   37.7470   29.5400   41.6000 C   0  0  0  0  0  0  0  0  0  0  0  0
   38.2550   29.8920   40.3510 C   0  0  0  0  0  0  0  0  0  0  0  0
   38.6620   28.8830   39.4910 C   0  0  0  0  0  0  0  0  0  0  0  0
   38.5530   27.5890   39.8950 N   0  0  0  0  0  0  0  0  0  0  0  0
   38.0570   27.2770   41.1110 C   0  0  0  0  0  0  0  0  0  0  0  0
   37.6560   28.2420   41.9600 N   0  0  0  0  0  0  0  0  0  0  0  0
   37.3840   30.1720   42.3970 H   0  0  0  0  0  0  0  0  0  0  0  0
   39.0460   29.2190   38.5420 H   0  0  0  0  0  0  0  0  0  0  0  0
   38.3000   31.2890   40.0850 N   0  0  0  0  0  0  0  0  0  0  0  0
   37.0650   31.9370   39.7410 C   0  0  0  0  0  0  0  0  0  0  0  0
   37.2010   33.3830   39.4430 C   0  0  0  0  0  0  0  0  0  0  0  0
   38.0390   34.1000   40.3440 N   0  0  0  0  0  0  0  0  0  0  0  0
   39.1310   33.4120   40.9190 C   0  0  0  0  0  0  0  0  0  0  0  0
   39.4380   32.1590   40.1130 C   0  0  0  0  0  0  0  0  0  0  0  0
   36.3900   31.8580   40.6420 H   0  0  0  0  0  0  0  0  0  0  0  0
   36.6280   31.4160   38.8740 H   0  0  0  0  0  0  0  0  0  0  0  0
   37.6200   33.4650   38.4000 H   0  0  0  0  0  0  0  0  0  0  0  0
   36.1910   33.8430   39.4180 H   0  0  0  0  0  0  0  0  0  0  0  0
   38.4410   34.9150   39.7930 H   0  0  0  0  0  0  0  0  0  0  0  0
   40.0430   33.9900   41.0720 H   0  0  0  0  0  0  0  0  0  0  0  0
   38.8150   33.0440   41.9360 H   0  0  0  0  0  0  0  0  0  0  0  0
   39.5950   32.5230   39.0690 H   0  0  0  0  0  0  0  0  0  0  0  0
   40.3470   31.7420   40.5570 H   0  0  0  0  0  0  0  0  0  0  0  0
   37.9880   25.8410   41.4350 C   0  0  0  0  0  0  0  0  0  0  0  0
   38.6740   25.1840   42.4460 C   0  0  0  0  0  0  0  0  0  0  0  0
   39.3570   25.6900   43.1240 H   0  0  0  0  0  0  0  0  0  0  0  0
   38.3170   23.8780   42.3890 N   0  0  0  0  0  0  0  0  0  0  0  0
   38.6700   23.1440   43.0210 H   0  0  0  0  0  0  0  0  0  0  0  0
   37.4520   23.7220   41.3940 C   0  0  0  0  0  0  0  0  0  0  0  0
   36.9640   22.8350   41.0600 H   0  0  0  0  0  0  0  0  0  0  0  0
   37.2410   24.9300   40.7980 N   0  0  0  0  0  0  0  0  0  0  0  0
  1  6  1  0  0  0  0
  1  7  1  0  0  0  0
  2  1  2  0  0  0  0
  3  4  2  0  0  0  0
  3  2  1  0  0  0  0
  4  5  1  0  0  0  0
  5 24  1  0  0  0  0
  5  6  2  0  0  0  0
  8  3  1  0  0  0  0
  9 14  1  0  0  0  0
  9  2  1  0  0  0  0
 10  9  1  0  0  0  0
 10 15  1  0  0  0  0
 11 10  1  0  0  0  0
 11 12  1  0  0  0  0
 12 13  1  0  0  0  0
 13 20  1  0  0  0  0
 13 21  1  0  0  0  0
 14 23  1  0  0  0  0
 14 13  1  0  0  0  0
 16 10  1  0  0  0  0
 17 11  1  0  0  0  0
 18 11  1  0  0  0  0
 19 12  1  0  0  0  0
 22 14  1  0  0  0  0
 24 25  2  0  0  0  0
 25 26  1  0  0  0  0
 27 25  1  0  0  0  0
 27 28  1  0  0  0  0
 29 27  1  0  0  0  0
 30 29  1  0  0  0  0
 31 29  2  0  0  0  0
 31 24  1  0  0  0  0
M  END
>  <minimizedAffinity>
-4.41390276

$$$$

 OpenBabel03242518243D

 31 33  0  0  0  0  0  0  0  0999 V2000
   37.6110   27.9210   39.9010 C   0  0  0  0  0  0  0  0  0  0  0  0
   37.5170   27.5000   41.2250 C   0  0  0  0  0  0  0  0  0  0  0  0
   37.4790   28.4590   42.2270 C   0  0  0  0  0  0  0  0  0  0  0  0
   37.5350   29.7730   41.8820 N   0  0  0  0  0  0  0  0  0  0  0  0
   37.6260   30.1530   40.5910 C   0  0  0  0  0  0  0  0  0  0  0  0
   37.6640   29.2370   39.6040 N   0  0  0  0  0  0  0  0  0  0  0  0
   37.6540   27.3350   38.9940 H   0  0  0  0  0  0  0  0  0  0  0  0
   37.4070   28.0700   43.2290 H   0  0  0  0  0  0  0  0  0  0  0  0
   37.4670   26.0900   41.4130 N   0  0  0  0  0  0  0  0  0  0  0  0
   36.9430   25.2970   40.3360 C   0  0  0  0  0  0  0  0  0  0  0  0
   36.8900   23.8440   40.6210 C   0  0  0  0  0  0  0  0  0  0  0  0
   38.0510   23.3200   41.2590 N   0  0  0  0  0  0  0  0  0  0  0  0
   38.7590   24.1680   42.1400 C   0  0  0  0  0  0  0  0  0  0  0  0
   37.8780   25.3350   42.5590 C   0  0  0  0  0  0  0  0  0  0  0  0
   37.6440   25.4260   39.4610 H   0  0  0  0  0  0  0  0  0  0  0  0
   35.9350   25.6670   40.0900 H   0  0  0  0  0  0  0  0  0  0  0  0
   35.9940   23.6720   41.2820 H   0  0  0  0  0  0  0  0  0  0  0  0
   36.6980   23.2960   39.6740 H   0  0  0  0  0  0  0  0  0  0  0  0
   37.7270   22.4820   41.8270 H   0  0  0  0  0  0  0  0  0  0  0  0
   39.1970   23.6960   43.0200 H   0  0  0  0  0  0  0  0  0  0  0  0
   39.6140   24.6280   41.5690 H   0  0  0  0  0  0  0  0  0  0  0  0
   36.9600   24.8600   42.9820 H   0  0  0  0  0  0  0  0  0  0  0  0
   38.4550   25.8820   43.3090 H   0  0  0  0  0  0  0  0  0  0  0  0
   37.6790   31.6040   40.3430 C   0  0  0  0  0  0  0  0  0  0  0  0
   38.4830   32.5290   40.9940 C   0  0  0  0  0  0  0  0  0  0  0  0
   39.1800   32.2570   41.7830 H   0  0  0  0  0  0  0  0  0  0  0  0
   38.2130   33.7430   40.4570 N   0  0  0  0  0  0  0  0  0  0  0  0
   38.6620   34.6260   40.7440 H   0  0  0  0  0  0  0  0  0  0  0  0
   37.2890   33.5910   39.5160 C   0  0  0  0  0  0  0  0  0  0  0  0
   36.8390   34.3260   38.8890 H   0  0  0  0  0  0  0  0  0  0  0  0
   36.9520   32.2720   39.4380 N   0  0  0  0  0  0  0  0  0  0  0  0
  1  2  1  0  0  0  0
  2  9  1  0  0  0  0
  2  3  2  0  0  0  0
  3  8  1  0  0  0  0
  4  3  1  0  0  0  0
  5  4  2  0  0  0  0
  6  1  2  0  0  0  0
  6  5  1  0  0  0  0
  7  1  1  0  0  0  0
  9 14  1  0  0  0  0
 10 11  1  0  0  0  0
 10  9  1  0  0  0  0
 11 12  1  0  0  0  0
 11 17  1  0  0  0  0
 12 19  1  0  0  0  0
 12 13  1  0  0  0  0
 13 14  1  0  0  0  0
 13 20  1  0  0  0  0
 14 22  1  0  0  0  0
 14 23  1  0  0  0  0
 15 10  1  0  0  0  0
 16 10  1  0  0  0  0
 18 11  1  0  0  0  0
 21 13  1  0  0  0  0
 24  5  1  0  0  0  0
 24 25  2  0  0  0  0
 25 26  1  0  0  0  0
 27 28  1  0  0  0  0
 27 25  1  0  0  0  0
 29 27  1  0  0  0  0
 30 29  1  0  0  0  0
 31 29  2  0  0  0  0
 31 24  1  0  0  0  0
M  END
>  <minimizedAffinity>
-4.38854361

$$$$

 OpenBabel03242518243D

 31 33  0  0  0  0  0  0  0  0999 V2000
   39.3100   29.5650   37.9380 C   0  0  0  0  0  0  0  0  0  0  0  0
   38.7980   30.7400   38.4840 C   0  0  0  0  0  0  0  0  0  0  0  0
   39.5560   31.8990   38.4000 C   0  0  0  0  0  0  0  0  0  0  0  0
   40.7700   31.8470   37.7910 N   0  0  0  0  0  0  0  0  0  0  0  0
   41.2430   30.6960   37.2710 C   0  0  0  0  0  0  0  0  0  0  0  0
   40.5210   29.5600   37.3420 N   0  0  0  0  0  0  0  0  0  0  0  0
   38.8770   28.5770   37.9050 H   0  0  0  0  0  0  0  0  0  0  0  0
   39.1050   32.7730   38.8410 H   0  0  0  0  0  0  0  0  0  0  0  0
   37.5120   30.6220   39.0830 N   0  0  0  0  0  0  0  0  0  0  0  0
   36.7730   29.4160   38.8310 C   0  0  0  0  0  0  0  0  0  0  0  0
   35.4310   29.3850   39.4610 C   0  0  0  0  0  0  0  0  0  0  0  0
   35.3920   29.8580   40.8030 N   0  0  0  0  0  0  0  0  0  0  0  0
   36.2980   30.8780   41.1690 C   0  0  0  0  0  0  0  0  0  0  0  0
   36.8380   31.5650   39.9250 C   0  0  0  0  0  0  0  0  0  0  0  0
   37.3610   28.5680   39.2890 H   0  0  0  0  0  0  0  0  0  0  0  0
   36.6780   29.2880   37.7410 H   0  0  0  0  0  0  0  0  0  0  0  0
   34.7540   30.0210   38.8220 H   0  0  0  0  0  0  0  0  0  0  0  0
   35.0340   28.3490   39.4120 H   0  0  0  0  0  0  0  0  0  0  0  0
   34.4120   30.2430   40.9550 H   0  0  0  0  0  0  0  0  0  0  0  0
   35.9300   31.6230   41.8770 H   0  0  0  0  0  0  0  0  0  0  0  0
   37.1910   30.3930   41.6560 H   0  0  0  0  0  0  0  0  0  0  0  0
   35.9300   31.9050   39.3710 H   0  0  0  0  0  0  0  0  0  0  0  0
   37.4450   32.3980   40.2910 H   0  0  0  0  0  0  0  0  0  0  0  0
   42.5710   30.7660   36.6370 C   0  0  0  0  0  0  0  0  0  0  0  0
   43.5720   31.6890   36.9040 C   0  0  0  0  0  0  0  0  0  0  0  0
   43.4640   32.4820   37.6400 H   0  0  0  0  0  0  0  0  0  0  0  0
   44.6190   31.3890   36.0990 N   0  0  0  0  0  0  0  0  0  0  0  0
   45.5100   31.9070   36.0760 H   0  0  0  0  0  0  0  0  0  0  0  0
   44.2950   30.3320   35.3640 C   0  0  0  0  0  0  0  0  0  0  0  0
   44.8720   29.8230   34.6260 H   0  0  0  0  0  0  0  0  0  0  0  0
   43.0310   29.9390   35.6890 N   0  0  0  0  0  0  0  0  0  0  0  0
  1  2  1  0  0  0  0
  2  9  1  0  0  0  0
  3  2  2  0  0  0  0
  3  8  1  0  0  0  0
  4  3  1  0  0  0  0
  5  6  1  0  0  0  0
  5  4  2  0  0  0  0
  6  1  2  0  0  0  0
  7  1  1  0  0  0  0
  9 14  1  0  0  0  0
 10  9  1  0  0  0  0
 10 15  1  0  0  0  0
 10 11  1  0  0  0  0
 11 12  1  0  0  0  0
 12 19  1  0  0  0  0
 12 13  1  0  0  0  0
 13 21  1  0  0  0  0
 13 20  1  0  0  0  0
 14 23  1  0  0  0  0
 14 13  1  0  0  0  0
 16 10  1  0  0  0  0
 17 11  1  0  0  0  0
 18 11  1  0  0  0  0
 22 14  1  0  0  0  0
 24 25  2  0  0  0  0
 24  5  1  0  0  0  0
 25 26  1  0  0  0  0
 27 25  1  0  0  0  0
 28 27  1  0  0  0  0
 29 31  2  0  0  0  0
 29 27  1  0  0  0  0
 30 29  1  0  0  0  0
 31 24  1  0  0  0  0
M  END
>  <minimizedAffinity>
-4.37386847

$$$$

 OpenBabel03242518243D

 31 33  0  0  0  0  0  0  0  0999 V2000
   39.0960   27.3390   39.5980 C   0  0  0  0  0  0  0  0  0  0  0  0
   39.2510   27.5240   40.9700 C   0  0  0  0  0  0  0  0  0  0  0  0
   39.6800   28.7600   41.4300 C   0  0  0  0  0  0  0  0  0  0  0  0
   39.9340   29.7460   40.5280 N   0  0  0  0  0  0  0  0  0  0  0  0
   39.7760   29.5390   39.2040 C   0  0  0  0  0  0  0  0  0  0  0  0
   39.3600   28.3450   38.7380 N   0  0  0  0  0  0  0  0  0  0  0  0
   38.7780   26.4620   39.0540 H   0  0  0  0  0  0  0  0  0  0  0  0
   39.7810   28.8400   42.5000 H   0  0  0  0  0  0  0  0  0  0  0  0
   38.9410   26.3920   41.7750 N   0  0  0  0  0  0  0  0  0  0  0  0
   38.0600   25.4040   41.2170 C   0  0  0  0  0  0  0  0  0  0  0  0
   37.7580   24.2750   42.1290 C   0  0  0  0  0  0  0  0  0  0  0  0
   38.8830   23.7640   42.8360 N   0  0  0  0  0  0  0  0  0  0  0  0
   39.9130   24.6680   43.1800 C   0  0  0  0  0  0  0  0  0  0  0  0
   39.3980   26.0970   43.1000 C   0  0  0  0  0  0  0  0  0  0  0  0
   38.5880   24.9610   40.3230 H   0  0  0  0  0  0  0  0  0  0  0  0
   37.1250   25.9020   40.9150 H   0  0  0  0  0  0  0  0  0  0  0  0
   36.9920   24.6480   42.8680 H   0  0  0  0  0  0  0  0  0  0  0  0
   37.2720   23.4620   41.5490 H   0  0  0  0  0  0  0  0  0  0  0  0
   38.5060   23.3620   43.7450 H   0  0  0  0  0  0  0  0  0  0  0  0
   40.4040   24.5020   44.1400 H   0  0  0  0  0  0  0  0  0  0  0  0
   40.7170   24.5950   42.3950 H   0  0  0  0  0  0  0  0  0  0  0  0
   38.5010   26.1140   43.7650 H   0  0  0  0  0  0  0  0  0  0  0  0
   40.2140   26.7220   43.4740 H   0  0  0  0  0  0  0  0  0  0  0  0
   40.0830   30.6820   38.3270 C   0  0  0  0  0  0  0  0  0  0  0  0
   39.1720   31.4620   37.6300 C   0  0  0  0  0  0  0  0  0  0  0  0
   38.0980   31.2950   37.6680 H   0  0  0  0  0  0  0  0  0  0  0  0
   39.8800   32.3970   36.9520 N   0  0  0  0  0  0  0  0  0  0  0  0
   39.4680   33.1200   36.3430 H   0  0  0  0  0  0  0  0  0  0  0  0
   41.1700   32.2160   37.2090 C   0  0  0  0  0  0  0  0  0  0  0  0
   42.0110   32.7630   36.8500 H   0  0  0  0  0  0  0  0  0  0  0  0
   41.3060   31.1580   38.0590 N   0  0  0  0  0  0  0  0  0  0  0  0
  1  2  1  0  0  0  0
  2  3  2  0  0  0  0
  2  9  1  0  0  0  0
  3  8  1  0  0  0  0
  4  3  1  0  0  0  0
  5  4  2  0  0  0  0
  6  5  1  0  0  0  0
  6  1  2  0  0  0  0
  7  1  1  0  0  0  0
  9 14  1  0  0  0  0
 10  9  1  0  0  0  0
 10 11  1  0  0  0  0
 11 12  1  0  0  0  0
 11 17  1  0  0  0  0
 12 13  1  0  0  0  0
 12 19  1  0  0  0  0
 13 20  1  0  0  0  0
 14 13  1  0  0  0  0
 14 23  1  0  0  0  0
 14 22  1  0  0  0  0
 15 10  1  0  0  0  0
 16 10  1  0  0  0  0
 18 11  1  0  0  0  0
 21 13  1  0  0  0  0
 24  5  1  0  0  0  0
 25 26  1  0  0  0  0
 25 24  2  0  0  0  0
 27 29  1  0  0  0  0
 27 25  1  0  0  0  0
 28 27  1  0  0  0  0
 29 31  2  0  0  0  0
 30 29  1  0  0  0  0
 31 24  1  0  0  0  0
M  END
>  <minimizedAffinity>
-4.24262762

$$$$

 OpenBabel03242518243D

 31 33  0  0  0  0  0  0  0  0999 V2000
   41.2100   29.8180   38.6790 C   0  0  0  0  0  0  0  0  0  0  0  0
   41.5980   30.9620   37.9840 C   0  0  0  0  0  0  0  0  0  0  0  0
   40.7300   32.0430   37.9450 C   0  0  0  0  0  0  0  0  0  0  0  0
   39.5330   31.9490   38.5830 N   0  0  0  0  0  0  0  0  0  0  0  0
   39.1820   30.8280   39.2480 C   0  0  0  0  0  0  0  0  0  0  0  0
   40.0110   29.7680   39.2980 N   0  0  0  0  0  0  0  0  0  0  0  0
   41.7390   28.8880   38.8210 H   0  0  0  0  0  0  0  0  0  0  0  0
   41.0870   32.8970   37.3920 H   0  0  0  0  0  0  0  0  0  0  0  0
   42.8830   30.8970   37.3750 N   0  0  0  0  0  0  0  0  0  0  0  0
   42.9560   30.3700   36.0410 C   0  0  0  0  0  0  0  0  0  0  0  0
   44.3310   30.3020   35.4900 C   0  0  0  0  0  0  0  0  0  0  0  0
   45.1290   31.4550   35.7380 N   0  0  0  0  0  0  0  0  0  0  0  0
   44.9040   32.1670   36.9370 C   0  0  0  0  0  0  0  0  0  0  0  0
   44.1440   31.2960   37.9250 C   0  0  0  0  0  0  0  0  0  0  0  0
   42.3800   31.0760   35.3750 H   0  0  0  0  0  0  0  0  0  0  0  0
   42.5010   29.3660   36.0380 H   0  0  0  0  0  0  0  0  0  0  0  0
   44.8250   29.4010   35.9530 H   0  0  0  0  0  0  0  0  0  0  0  0
   44.2730   30.1080   34.3980 H   0  0  0  0  0  0  0  0  0  0  0  0
   46.1380   31.1190   35.7600 H   0  0  0  0  0  0  0  0  0  0  0  0
   45.7840   32.5960   37.4190 H   0  0  0  0  0  0  0  0  0  0  0  0
   44.2170   33.0290   36.7070 H   0  0  0  0  0  0  0  0  0  0  0  0
   44.7630   30.3710   38.0230 H   0  0  0  0  0  0  0  0  0  0  0  0
   44.0990   31.8750   38.8510 H   0  0  0  0  0  0  0  0  0  0  0  0
   37.8600   30.8460   39.8990 C   0  0  0  0  0  0  0  0  0  0  0  0
   37.2560   31.9290   40.5220 C   0  0  0  0  0  0  0  0  0  0  0  0
   37.7220   32.9090   40.5910 H   0  0  0  0  0  0  0  0  0  0  0  0
   36.0530   31.5060   40.9820 N   0  0  0  0  0  0  0  0  0  0  0  0
   35.3780   32.0960   41.4910 H   0  0  0  0  0  0  0  0  0  0  0  0
   35.9080   30.2260   40.6640 C   0  0  0  0  0  0  0  0  0  0  0  0
   35.0910   29.5710   40.8650 H   0  0  0  0  0  0  0  0  0  0  0  0
   37.0200   29.8080   39.9940 N   0  0  0  0  0  0  0  0  0  0  0  0
  1  7  1  0  0  0  0
  1  6  1  0  0  0  0
  2  1  2  0  0  0  0
  3  2  1  0  0  0  0
  3  4  2  0  0  0  0
  4  5  1  0  0  0  0
  5  6  2  0  0  0  0
  5 24  1  0  0  0  0
  8  3  1  0  0  0  0
  9 14  1  0  0  0  0
  9  2  1  0  0  0  0
 10  9  1  0  0  0  0
 11 12  1  0  0  0  0
 11 17  1  0  0  0  0
 11 10  1  0  0  0  0
 12 19  1  0  0  0  0
 12 13  1  0  0  0  0
 13 20  1  0  0  0  0
 13 14  1  0  0  0  0
 14 22  1  0  0  0  0
 14 23  1  0  0  0  0
 15 10  1  0  0  0  0
 16 10  1  0  0  0  0
 18 11  1  0  0  0  0
 21 13  1  0  0  0  0
 24 31  1  0  0  0  0
 24 25  2  0  0  0  0
 25 26  1  0  0  0  0
 25 27  1  0  0  0  0
 27 28  1  0  0  0  0
 29 30  1  0  0  0  0
 29 27  1  0  0  0  0
 31 29  2  0  0  0  0
M  END
>  <minimizedAffinity>
-4.18532848

$$$$

 OpenBabel03242518243D

 31 33  0  0  0  0  0  0  0  0999 V2000
   38.9740   30.5520   39.8060 C   0  0  0  0  0  0  0  0  0  0  0  0
   39.4800   30.1840   41.0510 C   0  0  0  0  0  0  0  0  0  0  0  0
   40.7110   30.6870   41.4440 C   0  0  0  0  0  0  0  0  0  0  0  0
   41.3800   31.5200   40.6030 N   0  0  0  0  0  0  0  0  0  0  0  0
   40.8670   31.8600   39.4020 C   0  0  0  0  0  0  0  0  0  0  0  0
   39.6730   31.3820   39.0030 N   0  0  0  0  0  0  0  0  0  0  0  0
   38.0480   30.2690   39.3290 H   0  0  0  0  0  0  0  0  0  0  0  0
   41.0480   30.3650   42.4160 H   0  0  0  0  0  0  0  0  0  0  0  0
   38.6530   29.3070   41.8080 N   0  0  0  0  0  0  0  0  0  0  0  0
   37.4220   28.8740   41.2070 C   0  0  0  0  0  0  0  0  0  0  0  0
   36.6010   27.9930   42.0710 C   0  0  0  0  0  0  0  0  0  0  0  0
   37.3340   26.9850   42.7600 N   0  0  0  0  0  0  0  0  0  0  0  0
   38.6610   27.2810   43.1440 C   0  0  0  0  0  0  0  0  0  0  0  0
   38.8860   28.7840   43.1210 C   0  0  0  0  0  0  0  0  0  0  0  0
   37.6970   28.2650   40.2970 H   0  0  0  0  0  0  0  0  0  0  0  0
   36.8410   29.7660   40.9220 H   0  0  0  0  0  0  0  0  0  0  0  0
   36.0870   28.6570   42.8220 H   0  0  0  0  0  0  0  0  0  0  0  0
   35.8020   27.5280   41.4560 H   0  0  0  0  0  0  0  0  0  0  0  0
   36.7920   26.7780   43.6500 H   0  0  0  0  0  0  0  0  0  0  0  0
   38.9940   26.8680   44.0970 H   0  0  0  0  0  0  0  0  0  0  0  0
   39.3530   26.8620   42.3590 H   0  0  0  0  0  0  0  0  0  0  0  0
   38.0900   29.2010   43.7840 H   0  0  0  0  0  0  0  0  0  0  0  0
   39.8920   28.9350   43.5230 H   0  0  0  0  0  0  0  0  0  0  0  0
   41.6850   32.7680   38.5800 C   0  0  0  0  0  0  0  0  0  0  0  0
   41.4740   33.1010   37.2490 C   0  0  0  0  0  0  0  0  0  0  0  0
   40.6490   32.7030   36.6630 H   0  0  0  0  0  0  0  0  0  0  0  0
   42.4570   33.9610   36.8900 N   0  0  0  0  0  0  0  0  0  0  0  0
   42.5590   34.3800   35.9540 H   0  0  0  0  0  0  0  0  0  0  0  0
   43.2450   34.1610   37.9400 C   0  0  0  0  0  0  0  0  0  0  0  0
   44.1130   34.7750   38.0230 H   0  0  0  0  0  0  0  0  0  0  0  0
   42.7760   33.4280   38.9900 N   0  0  0  0  0  0  0  0  0  0  0  0
  1  2  1  0  0  0  0
  2  3  2  0  0  0  0
  2  9  1  0  0  0  0
  3  8  1  0  0  0  0
  4  3  1  0  0  0  0
  5  4  2  0  0  0  0
  6  5  1  0  0  0  0
  6  1  2  0  0  0  0
  7  1  1  0  0  0  0
  9 14  1  0  0  0  0
 10  9  1  0  0  0  0
 10 11  1  0  0  0  0
 11 12  1  0  0  0  0
 11 17  1  0  0  0  0
 12 13  1  0  0  0  0
 12 19  1  0  0  0  0
 13 20  1  0  0  0  0
 14 13  1  0  0  0  0
 14 23  1  0  0  0  0
 14 22  1  0  0  0  0
 15 10  1  0  0  0  0
 16 10  1  0  0  0  0
 18 11  1  0  0  0  0
 21 13  1  0  0  0  0
 24 31  1  0  0  0  0
 24  5  1  0  0  0  0
 25 24  2  0  0  0  0
 26 25  1  0  0  0  0
 27 25  1  0  0  0  0
 27 29  1  0  0  0  0
 28 27  1  0  0  0  0
 29 30  1  0  0  0  0
 29 31  2  0  0  0  0
M  END
>  <minimizedAffinity>
-4.16931105

$$$$
