
 OpenBabel03252503233D

 46 51  0  0  1  0  0  0  0  0999 V2000
   46.7210   33.3750   43.1000 C   0  0  1  0  0  0  0  0  0  0  0  0
   46.9290   34.7510   42.6600 C   0  0  0  0  0  0  0  0  0  0  0  0
   48.0960   33.8380   42.6530 C   0  0  2  0  0  0  0  0  0  0  0  0
   46.2150   32.6510   42.4390 H   0  0  0  0  0  0  0  0  0  0  0  0
   46.9760   35.5130   43.5040 H   0  0  0  0  0  0  0  0  0  0  0  0
   46.3590   35.0930   41.8130 H   0  0  0  0  0  0  0  0  0  0  0  0
   48.8940   33.8460   43.4020 H   0  0  0  0  0  0  0  0  0  0  0  0
   48.5210   33.2960   41.3350 C   0  0  0  0  0  0  0  0  0  0  0  0
   49.3630   32.2150   41.1770 C   0  0  0  0  0  0  0  0  0  0  0  0
   49.7210   31.7670   39.9180 C   0  0  0  0  0  0  0  0  0  0  0  0
   49.2440   32.3940   38.7950 C   0  0  0  0  0  0  0  0  0  0  0  0
   49.5730   31.9800   37.5440 N   0  0  0  0  0  0  0  0  0  0  0  0
   49.0820   32.6180   36.4420 C   0  0  0  0  0  0  0  0  0  0  0  0
   48.2270   33.7180   36.5300 C   0  0  0  0  0  0  0  0  0  0  0  0
   47.8720   34.1670   37.7730 C   0  0  0  0  0  0  0  0  0  0  0  0
   48.3870   33.4980   38.8910 C   0  0  0  0  0  0  0  0  0  0  0  0
   48.0580   33.9060   40.1690 C   0  0  0  0  0  0  0  0  0  0  0  0
   49.7300   31.7320   42.0700 H   0  0  0  0  0  0  0  0  0  0  0  0
   50.3830   30.9180   39.8000 H   0  0  0  0  0  0  0  0  0  0  0  0
   49.3190   32.3200   35.4370 H   0  0  0  0  0  0  0  0  0  0  0  0
   47.8470   34.2120   35.6540 H   0  0  0  0  0  0  0  0  0  0  0  0
   47.2160   35.0120   37.8860 H   0  0  0  0  0  0  0  0  0  0  0  0
   47.3990   34.7640   40.1720 H   0  0  0  0  0  0  0  0  0  0  0  0
   45.5340   33.7260   45.2940 C   0  0  0  0  0  0  0  0  0  0  0  0
   46.5620   33.0590   44.5500 C   0  0  0  0  0  0  0  0  0  0  0  0
   47.3600   32.1620   45.2130 C   0  0  0  0  0  0  0  0  0  0  0  0
   47.1260   31.9610   46.5390 N   0  0  0  0  0  0  0  0  0  0  0  0
   46.1450   32.6030   47.2270 C   0  0  0  0  0  0  0  0  0  0  0  0
   45.3510   33.4850   46.6010 N   0  0  0  0  0  0  0  0  0  0  0  0
   44.9130   34.4270   44.7630 H   0  0  0  0  0  0  0  0  0  0  0  0
   48.1450   31.6400   44.6870 H   0  0  0  0  0  0  0  0  0  0  0  0
   45.9890   32.2850   48.6690 C   0  0  2  0  0  0  0  0  0  0  0  0
   46.7360   31.2220   49.3140 C   0  0  0  0  0  0  0  0  0  0  0  0
   45.3080   30.9080   48.9370 C   0  0  2  0  0  0  0  0  0  0  0  0
   45.5470   33.1250   49.2420 H   0  0  0  0  0  0  0  0  0  0  0  0
   46.9000   31.2910   50.4070 H   0  0  0  0  0  0  0  0  0  0  0  0
   47.5490   30.7380   48.7660 H   0  0  0  0  0  0  0  0  0  0  0  0
   44.5340   30.9230   49.7010 H   0  0  0  0  0  0  0  0  0  0  0  0
   45.1620   29.9890   47.7790 C   0  0  0  0  0  0  0  0  0  0  0  0
   46.0690   28.9340   47.6280 C   0  0  0  0  0  0  0  0  0  0  0  0
   46.9360   28.5730   48.1840 H   0  0  0  0  0  0  0  0  0  0  0  0
   45.7540   28.2340   46.5230 N   0  0  0  0  0  0  0  0  0  0  0  0
   46.1410   27.3960   46.0350 H   0  0  0  0  0  0  0  0  0  0  0  0
   44.6830   28.8110   45.9760 C   0  0  0  0  0  0  0  0  0  0  0  0
   44.0150   28.6910   45.1140 H   0  0  0  0  0  0  0  0  0  0  0  0
   44.3460   29.8540   46.7410 N   0  0  0  0  0  0  0  0  0  0  0  0
  1  4  1  6  0  0  0
  1 25  1  0  0  0  0
  2  1  1  0  0  0  0
  2  5  1  0  0  0  0
  3  2  1  0  0  0  0
  3  1  1  0  0  0  0
  3  7  1  1  0  0  0
  6  2  1  0  0  0  0
  8  3  1  0  0  0  0
  9  8  1  0  0  0  0
  9 18  1  0  0  0  0
 10  9  2  0  0  0  0
 11 16  1  0  0  0  0
 11 10  1  0  0  0  0
 12 11  2  0  0  0  0
 13 14  2  0  0  0  0
 13 12  1  0  0  0  0
 14 15  1  0  0  0  0
 15 22  1  0  0  0  0
 15 16  2  0  0  0  0
 16 17  1  0  0  0  0
 17 23  1  0  0  0  0
 17  8  2  0  0  0  0
 19 10  1  0  0  0  0
 20 13  1  0  0  0  0
 21 14  1  0  0  0  0
 24 29  1  0  0  0  0
 25 26  1  0  0  0  0
 25 24  2  0  0  0  0
 26 27  2  0  0  0  0
 27 28  1  0  0  0  0
 28 32  1  0  0  0  0
 29 28  2  0  0  0  0
 30 24  1  0  0  0  0
 31 26  1  0  0  0  0
 32 34  1  0  0  0  0
 32 35  1  1  0  0  0
 32 33  1  0  0  0  0
 33 36  1  0  0  0  0
 34 33  1  0  0  0  0
 34 38  1  1  0  0  0
 37 33  1  0  0  0  0
 39 34  1  0  0  0  0
 40 39  2  0  0  0  0
 40 41  1  0  0  0  0
 42 40  1  0  0  0  0
 43 42  1  0  0  0  0
 44 42  1  0  0  0  0
 44 46  2  0  0  0  0
 45 44  1  0  0  0  0
 46 39  1  0  0  0  0
M  END
>  <minimizedAffinity>
-5.79704905

>  <minimizedRMSD>
0.49692601

$$$$
