
 OpenBabel03242518183D

 29 31  0  0  0  0  0  0  0  0999 V2000
   46.4140   32.7040   45.4590 C   0  0  0  0  0  0  0  0  0  0  0  0
   46.0330   33.3980   46.5820 C   0  0  0  0  0  0  0  0  0  0  0  0
   45.6250   32.4370   47.5130 C   0  0  0  0  0  0  0  0  0  0  0  0
   45.7900   31.2180   46.8820 C   0  0  0  0  0  0  0  0  0  0  0  0
   46.2460   31.4390   45.7010 O   0  0  0  0  0  0  0  0  0  0  0  0
   46.0270   34.4760   46.7710 H   0  0  0  0  0  0  0  0  0  0  0  0
   45.2540   32.6020   48.5310 H   0  0  0  0  0  0  0  0  0  0  0  0
   45.5100   29.8880   47.4150 C   0  0  0  0  0  0  0  0  0  0  0  0
   45.0770   29.6480   48.7000 C   0  0  0  0  0  0  0  0  0  0  0  0
   44.8840   30.3720   49.4850 H   0  0  0  0  0  0  0  0  0  0  0  0
   44.9210   28.3190   48.8470 N   0  0  0  0  0  0  0  0  0  0  0  0
   44.5960   27.8590   49.7410 H   0  0  0  0  0  0  0  0  0  0  0  0
   45.2450   27.7010   47.6790 C   0  0  0  0  0  0  0  0  0  0  0  0
   45.2090   26.6330   47.5200 H   0  0  0  0  0  0  0  0  0  0  0  0
   45.6010   28.6850   46.8210 N   0  0  0  0  0  0  0  0  0  0  0  0
   46.9280   33.3610   44.1950 C   0  0  0  0  0  0  0  0  0  0  0  0
   47.7230   34.0860   44.4280 H   0  0  0  0  0  0  0  0  0  0  0  0
   47.3550   32.5660   43.5190 H   0  0  0  0  0  0  0  0  0  0  0  0
   43.9420   33.9090   42.1510 C   0  0  0  0  0  0  0  0  0  0  0  0
   43.7740   35.3030   42.1590 C   0  0  0  0  0  0  0  0  0  0  0  0
   44.6940   36.0410   42.8710 C   0  0  0  0  0  0  0  0  0  0  0  0
   45.6980   35.4060   43.5160 N   0  0  0  0  0  0  0  0  0  0  0  0
   45.8300   34.0610   43.4880 C   0  0  0  0  0  0  0  0  0  0  0  0
   44.9350   33.3020   42.7930 N   0  0  0  0  0  0  0  0  0  0  0  0
   43.2550   33.2510   41.6100 H   0  0  0  0  0  0  0  0  0  0  0  0
   44.5620   37.1160   42.8750 H   0  0  0  0  0  0  0  0  0  0  0  0
   42.6800   35.8040   41.4380 N   0  0  0  0  0  0  0  0  0  0  0  0
   43.1150   36.5110   40.7920 H   0  0  0  0  0  0  0  0  0  0  0  0
   41.7300   35.3960   41.6750 H   0  0  0  0  0  0  0  0  0  0  0  0
  1  5  1  0  0  0  0
  1  2  2  0  0  0  0
  2  6  1  0  0  0  0
  2  3  1  0  0  0  0
  3  7  1  0  0  0  0
  4  8  1  0  0  0  0
  4  3  2  0  0  0  0
  5  4  1  0  0  0  0
  8  9  2  0  0  0  0
  9 11  1  0  0  0  0
  9 10  1  0  0  0  0
 11 12  1  0  0  0  0
 13 11  1  0  0  0  0
 14 13  1  0  0  0  0
 15  8  1  0  0  0  0
 15 13  2  0  0  0  0
 16 17  1  0  0  0  0
 16  1  1  0  0  0  0
 18 16  1  0  0  0  0
 19 20  2  0  0  0  0
 19 24  1  0  0  0  0
 20 21  1  0  0  0  0
 21 26  1  0  0  0  0
 21 22  2  0  0  0  0
 23 22  1  0  0  0  0
 23 16  1  0  0  0  0
 24 23  2  0  0  0  0
 25 19  1  0  0  0  0
 27 29  1  0  0  0  0
 27 20  1  0  0  0  0
 28 27  1  0  0  0  0
M  END
>  <minimizedAffinity>
-4.4150486

>  <minimizedRMSD>
3.09377241

$$$$
