
 OpenBabel03252509223D

 26 28  0  0  1  0  0  0  0  0999 V2000
   46.5860   34.7300   42.0150 C   0  0  1  0  0  0  0  0  0  0  0  0
   48.0270   35.3050   42.0260 C   0  0  0  0  0  0  0  0  0  0  0  0
   47.6360   33.8290   41.7100 C   0  0  2  0  0  0  0  0  0  0  0  0
   45.9210   35.2190   41.2850 H   0  0  0  0  0  0  0  0  0  0  0  0
   48.2310   35.9440   41.1720 H   0  0  0  0  0  0  0  0  0  0  0  0
   48.5240   35.4920   42.9740 H   0  0  0  0  0  0  0  0  0  0  0  0
   48.0250   33.1140   42.4620 H   0  0  0  0  0  0  0  0  0  0  0  0
   44.5360   35.6060   45.0210 C   0  0  0  0  0  0  0  0  0  0  0  0
   45.0810   35.7000   43.7150 C   0  0  0  0  0  0  0  0  0  0  0  0
   46.0130   34.7390   43.4220 C   0  0  0  0  0  0  0  0  0  0  0  0
   46.3880   33.7650   44.3280 N   0  0  0  0  0  0  0  0  0  0  0  0
   45.8380   33.7260   45.5500 C   0  0  0  0  0  0  0  0  0  0  0  0
   44.9090   34.6420   45.9080 N   0  0  0  0  0  0  0  0  0  0  0  0
   43.8020   36.3170   45.3300 H   0  0  0  0  0  0  0  0  0  0  0  0
   46.1040   32.9800   46.2840 H   0  0  0  0  0  0  0  0  0  0  0  0
   44.7000   36.7170   42.8080 N   0  0  0  0  0  0  0  0  0  0  0  0
   44.3150   36.6810   41.8520 H   0  0  0  0  0  0  0  0  0  0  0  0
   44.8860   37.6170   43.3030 H   0  0  0  0  0  0  0  0  0  0  0  0
   47.8090   33.4300   40.2670 C   0  0  0  0  0  0  0  0  0  0  0  0
   46.9450   33.5880   39.1980 C   0  0  0  0  0  0  0  0  0  0  0  0
   45.9720   34.0490   39.2700 H   0  0  0  0  0  0  0  0  0  0  0  0
   47.5660   33.0650   38.1130 N   0  0  0  0  0  0  0  0  0  0  0  0
   47.1680   33.0340   37.1520 H   0  0  0  0  0  0  0  0  0  0  0  0
   48.7950   32.5810   38.4640 C   0  0  0  0  0  0  0  0  0  0  0  0
   49.5320   32.1040   37.8300 H   0  0  0  0  0  0  0  0  0  0  0  0
   48.9090   32.8220   39.7870 N   0  0  0  0  0  0  0  0  0  0  0  0
  1  4  1  6  0  0  0
  1  2  1  0  0  0  0
  1 10  1  0  0  0  0
  2  6  1  0  0  0  0
  3  1  1  0  0  0  0
  3  2  1  0  0  0  0
  3  7  1  1  0  0  0
  5  2  1  0  0  0  0
  8 14  1  0  0  0  0
  8 13  1  0  0  0  0
  9  8  2  0  0  0  0
 10  9  1  0  0  0  0
 10 11  2  0  0  0  0
 11 12  1  0  0  0  0
 12 13  2  0  0  0  0
 12 15  1  0  0  0  0
 16 18  1  0  0  0  0
 16  9  1  0  0  0  0
 17 16  1  0  0  0  0
 19  3  1  0  0  0  0
 20 21  1  0  0  0  0
 20 19  2  0  0  0  0
 22 24  1  0  0  0  0
 22 20  1  0  0  0  0
 23 22  1  0  0  0  0
 24 26  2  0  0  0  0
 25 24  1  0  0  0  0
 26 19  1  0  0  0  0
M  END
>  <minimizedAffinity>
-4.5287261

>  <minimizedRMSD>
0.580836415

$$$$
