
 OpenBabel03252501213D

 31 32  0  0  0  0  0  0  0  0999 V2000
   44.8420   37.2650   44.0950 N   0  0  0  0  0  0  0  0  0  0  0  0
   45.6700   37.2100   44.7590 H   0  0  0  0  0  0  0  0  0  0  0  0
   45.0400   36.1710   43.1260 C   0  0  0  0  0  0  0  0  0  0  0  0
   43.9890   35.8740   42.8430 H   0  0  0  0  0  0  0  0  0  0  0  0
   45.5110   36.4940   42.2120 H   0  0  0  0  0  0  0  0  0  0  0  0
   45.1990   34.6350   45.0360 C   0  0  0  0  0  0  0  0  0  0  0  0
   45.6650   35.0430   43.7920 C   0  0  0  0  0  0  0  0  0  0  0  0
   46.7290   34.3210   43.2510 C   0  0  0  0  0  0  0  0  0  0  0  0
   47.2670   33.2610   43.9480 N   0  0  0  0  0  0  0  0  0  0  0  0
   46.7690   32.9130   45.1580 C   0  0  0  0  0  0  0  0  0  0  0  0
   45.7340   33.5970   45.7090 N   0  0  0  0  0  0  0  0  0  0  0  0
   44.3770   35.1750   45.4800 H   0  0  0  0  0  0  0  0  0  0  0  0
   47.1670   32.0900   45.7250 H   0  0  0  0  0  0  0  0  0  0  0  0
   47.1940   34.7750   41.9440 C   0  0  0  0  0  0  0  0  0  0  0  0
   48.2000   33.9150   41.4990 F   0  0  0  0  0  0  0  0  0  0  0  0
   47.7760   35.9930   42.1190 F   0  0  0  0  0  0  0  0  0  0  0  0
   46.2030   34.7250   41.0110 F   0  0  0  0  0  0  0  0  0  0  0  0
   44.9940   38.4760   43.3550 C   0  0  0  0  0  0  0  0  0  0  0  0
   44.0050   38.9870   43.3360 H   0  0  0  0  0  0  0  0  0  0  0  0
   45.2720   38.2800   42.2870 H   0  0  0  0  0  0  0  0  0  0  0  0
   45.9670   39.4460   43.9930 C   0  0  0  0  0  0  0  0  0  0  0  0
   46.7100   38.8530   44.5530 H   0  0  0  0  0  0  0  0  0  0  0  0
   46.4650   40.0910   43.2410 H   0  0  0  0  0  0  0  0  0  0  0  0
   45.2370   40.3040   44.9620 C   0  0  0  0  0  0  0  0  0  0  0  0
   45.1150   40.0260   46.3270 C   0  0  0  0  0  0  0  0  0  0  0  0
   45.5470   39.1560   46.7940 H   0  0  0  0  0  0  0  0  0  0  0  0
   44.4050   40.9590   46.9790 N   0  0  0  0  0  0  0  0  0  0  0  0
   44.2020   40.9360   47.9990 H   0  0  0  0  0  0  0  0  0  0  0  0
   44.0700   41.8450   46.0100 C   0  0  0  0  0  0  0  0  0  0  0  0
   43.4770   42.7340   46.2430 H   0  0  0  0  0  0  0  0  0  0  0  0
   44.5570   41.4650   44.8170 N   0  0  0  0  0  0  0  0  0  0  0  0
  1  2  1  0  0  0  0
  3  7  1  0  0  0  0
  3  1  1  0  0  0  0
  4  3  1  0  0  0  0
  5  3  1  0  0  0  0
  6 12  1  0  0  0  0
  6 11  1  0  0  0  0
  7  6  2  0  0  0  0
  8  7  1  0  0  0  0
  8  9  2  0  0  0  0
  9 10  1  0  0  0  0
 10 11  2  0  0  0  0
 10 13  1  0  0  0  0
 14 16  1  0  0  0  0
 14  8  1  0  0  0  0
 15 14  1  0  0  0  0
 17 14  1  0  0  0  0
 18 21  1  0  0  0  0
 18  1  1  0  0  0  0
 19 18  1  0  0  0  0
 20 18  1  0  0  0  0
 21 22  1  0  0  0  0
 21 24  1  0  0  0  0
 23 21  1  0  0  0  0
 24 25  2  0  0  0  0
 25 26  1  0  0  0  0
 25 27  1  0  0  0  0
 27 28  1  0  0  0  0
 29 30  1  0  0  0  0
 29 27  1  0  0  0  0
 31 24  1  0  0  0  0
 31 29  2  0  0  0  0
M  END
>  <minimizedAffinity>
-4.87089634

>  <minimizedRMSD>
1.83777988

$$$$
