
 OpenBabel03252503303D

 36 38  0  0  1  0  0  0  0  0999 V2000
   38.0980   29.8350   40.7770 C   0  0  0  0  0  0  0  0  0  0  0  0
   37.9910   28.9540   41.8820 C   0  0  0  0  0  0  0  0  0  0  0  0
   37.0510   27.9130   41.7370 C   0  0  0  0  0  0  0  0  0  0  0  0
   36.3500   27.8380   40.6010 N   0  0  0  0  0  0  0  0  0  0  0  0
   36.4900   28.7060   39.5720 C   0  0  0  0  0  0  0  0  0  0  0  0
   37.3790   29.7150   39.6740 N   0  0  0  0  0  0  0  0  0  0  0  0
   40.3480   30.4840   40.6240 C   0  0  0  0  0  0  0  0  0  0  0  0
   40.5680   29.2460   40.4730 O   0  0  0  0  0  0  0  0  0  0  0  0
   39.0210   30.9370   40.8020 N   0  0  0  0  0  0  0  0  0  0  0  0
   41.5010   31.3190   40.5960 N   0  0  0  0  0  0  0  0  0  0  0  0
   42.8400   30.7740   40.6990 C   0  0  0  0  0  0  0  0  0  0  0  0
   43.5700   31.8840   41.4150 C   0  0  0  0  0  0  0  0  0  0  0  0
   42.6390   33.0620   41.4930 C   0  0  0  0  0  0  0  0  0  0  0  0
   41.5900   32.7740   40.4700 C   0  0  1  0  0  0  0  0  0  0  0  0
   38.6250   29.1340   42.7460 H   0  0  0  0  0  0  0  0  0  0  0  0
   35.9100   28.6180   38.6670 H   0  0  0  0  0  0  0  0  0  0  0  0
   38.9060   31.9480   40.9190 H   0  0  0  0  0  0  0  0  0  0  0  0
   43.2990   30.6420   39.7150 H   0  0  0  0  0  0  0  0  0  0  0  0
   42.8580   29.8220   41.3050 H   0  0  0  0  0  0  0  0  0  0  0  0
   43.8180   31.5290   42.4450 H   0  0  0  0  0  0  0  0  0  0  0  0
   44.5340   32.1110   40.9410 H   0  0  0  0  0  0  0  0  0  0  0  0
   42.1990   33.1250   42.5050 H   0  0  0  0  0  0  0  0  0  0  0  0
   43.2540   33.9570   41.2400 H   0  0  0  0  0  0  0  0  0  0  0  0
   40.6030   33.1980   40.7650 H   0  0  0  0  0  0  0  0  0  0  0  0
   41.9250   33.1780   39.1020 C   0  0  0  0  0  0  0  0  0  0  0  0
   41.2850   32.8260   37.9310 C   0  0  0  0  0  0  0  0  0  0  0  0
   40.4210   32.1840   37.8460 H   0  0  0  0  0  0  0  0  0  0  0  0
   41.9450   33.4340   36.9330 N   0  0  0  0  0  0  0  0  0  0  0  0
   41.7340   33.3900   35.8910 H   0  0  0  0  0  0  0  0  0  0  0  0
   42.9840   34.1610   37.4350 C   0  0  0  0  0  0  0  0  0  0  0  0
   43.7330   34.7790   36.9490 H   0  0  0  0  0  0  0  0  0  0  0  0
   42.9670   33.9990   38.7900 N   0  0  0  0  0  0  0  0  0  0  0  0
   36.9630   27.0210   42.8910 C   0  0  0  0  0  0  0  0  0  0  0  0
   35.8750   27.4160   43.6730 F   0  0  0  0  0  0  0  0  0  0  0  0
   38.0830   27.2440   43.6720 F   0  0  0  0  0  0  0  0  0  0  0  0
   36.7740   25.6970   42.5610 F   0  0  0  0  0  0  0  0  0  0  0  0
  1  9  1  0  0  0  0
  1  2  1  0  0  0  0
  2 15  1  0  0  0  0
  3  2  2  0  0  0  0
  3 33  1  0  0  0  0
  4  3  1  0  0  0  0
  5  6  1  0  0  0  0
  5  4  2  0  0  0  0
  6  1  2  0  0  0  0
  7  9  1  0  0  0  0
  8  7  2  0  0  0  0
  9 17  1  0  0  0  0
 10  7  1  0  0  0  0
 10 11  1  0  0  0  0
 11 19  1  0  0  0  0
 11 12  1  0  0  0  0
 12 13  1  0  0  0  0
 12 20  1  0  0  0  0
 13 22  1  0  0  0  0
 14 10  1  0  0  0  0
 14 24  1  1  0  0  0
 14 13  1  0  0  0  0
 16  5  1  0  0  0  0
 18 11  1  0  0  0  0
 21 12  1  0  0  0  0
 23 13  1  0  0  0  0
 25 14  1  0  0  0  0
 26 25  2  0  0  0  0
 27 26  1  0  0  0  0
 28 30  1  0  0  0  0
 28 26  1  0  0  0  0
 29 28  1  0  0  0  0
 30 32  2  0  0  0  0
 31 30  1  0  0  0  0
 32 25  1  0  0  0  0
 33 35  1  0  0  0  0
 33 34  1  0  0  0  0
 36 33  1  0  0  0  0
M  END
>  <minimizedAffinity>
-5.64644957

$$$$

 OpenBabel03252503303D

 36 38  0  0  1  0  0  0  0  0999 V2000
   39.3100   27.1410   40.8670 C   0  0  0  0  0  0  0  0  0  0  0  0
   38.1780   26.2950   40.7500 C   0  0  0  0  0  0  0  0  0  0  0  0
   38.2160   25.1230   41.5320 C   0  0  0  0  0  0  0  0  0  0  0  0
   39.2860   24.9030   42.3030 N   0  0  0  0  0  0  0  0  0  0  0  0
   40.3440   25.7440   42.3800 C   0  0  0  0  0  0  0  0  0  0  0  0
   40.3440   26.8750   41.6470 N   0  0  0  0  0  0  0  0  0  0  0  0
   38.5440   29.3520   40.6770 C   0  0  0  0  0  0  0  0  0  0  0  0
   37.8520   29.0710   41.7000 O   0  0  0  0  0  0  0  0  0  0  0  0
   39.3920   28.3670   40.1200 N   0  0  0  0  0  0  0  0  0  0  0  0
   38.3920   30.6770   40.1800 N   0  0  0  0  0  0  0  0  0  0  0  0
   37.3070   31.5340   40.6140 C   0  0  0  0  0  0  0  0  0  0  0  0
   37.0520   32.3590   39.3760 C   0  0  0  0  0  0  0  0  0  0  0  0
   38.1420   32.0450   38.3900 C   0  0  0  0  0  0  0  0  0  0  0  0
   39.2120   31.4050   39.2110 C   0  0  1  0  0  0  0  0  0  0  0  0
   37.3770   26.5990   40.0820 H   0  0  0  0  0  0  0  0  0  0  0  0
   41.1930   25.5390   43.0130 H   0  0  0  0  0  0  0  0  0  0  0  0
   39.9260   28.6530   39.2940 H   0  0  0  0  0  0  0  0  0  0  0  0
   37.6220   32.2080   41.4160 H   0  0  0  0  0  0  0  0  0  0  0  0
   36.3910   30.9390   40.8980 H   0  0  0  0  0  0  0  0  0  0  0  0
   36.0620   32.0570   38.9550 H   0  0  0  0  0  0  0  0  0  0  0  0
   36.9590   33.4280   39.6110 H   0  0  0  0  0  0  0  0  0  0  0  0
   37.7620   31.3490   37.6210 H   0  0  0  0  0  0  0  0  0  0  0  0
   38.4570   33.0240   37.9590 H   0  0  0  0  0  0  0  0  0  0  0  0
   39.7850   30.6520   38.6230 H   0  0  0  0  0  0  0  0  0  0  0  0
   40.1310   32.3340   39.8730 C   0  0  0  0  0  0  0  0  0  0  0  0
   40.8400   32.1410   41.0430 C   0  0  0  0  0  0  0  0  0  0  0  0
   40.8210   31.2560   41.6590 H   0  0  0  0  0  0  0  0  0  0  0  0
   41.5460   33.2620   41.2550 N   0  0  0  0  0  0  0  0  0  0  0  0
   42.2060   33.4740   42.0610 H   0  0  0  0  0  0  0  0  0  0  0  0
   41.3080   34.1610   40.2560 C   0  0  0  0  0  0  0  0  0  0  0  0
   41.6870   35.1630   40.0810 H   0  0  0  0  0  0  0  0  0  0  0  0
   40.4240   33.5760   39.3950 N   0  0  0  0  0  0  0  0  0  0  0  0
   37.0370   24.2710   41.3910 C   0  0  0  0  0  0  0  0  0  0  0  0
   36.2800   24.7400   40.3150 F   0  0  0  0  0  0  0  0  0  0  0  0
   36.2500   24.4650   42.5120 F   0  0  0  0  0  0  0  0  0  0  0  0
   37.3300   22.9480   41.1440 F   0  0  0  0  0  0  0  0  0  0  0  0
  1  6  1  0  0  0  0
  2  1  2  0  0  0  0
  2  3  1  0  0  0  0
  3  4  2  0  0  0  0
  4  5  1  0  0  0  0
  5 16  1  0  0  0  0
  6  5  2  0  0  0  0
  7  8  2  0  0  0  0
  9  7  1  0  0  0  0
  9  1  1  0  0  0  0
 10 11  1  0  0  0  0
 10  7  1  0  0  0  0
 11 19  1  0  0  0  0
 11 18  1  0  0  0  0
 12 21  1  0  0  0  0
 12 11  1  0  0  0  0
 13 14  1  0  0  0  0
 13 12  1  0  0  0  0
 14 24  1  6  0  0  0
 14 25  1  0  0  0  0
 14 10  1  0  0  0  0
 15  2  1  0  0  0  0
 17  9  1  0  0  0  0
 20 12  1  0  0  0  0
 22 13  1  0  0  0  0
 23 13  1  0  0  0  0
 25 26  2  0  0  0  0
 26 28  1  0  0  0  0
 26 27  1  0  0  0  0
 28 29  1  0  0  0  0
 30 28  1  0  0  0  0
 31 30  1  0  0  0  0
 32 25  1  0  0  0  0
 32 30  2  0  0  0  0
 33  3  1  0  0  0  0
 33 35  1  0  0  0  0
 34 33  1  0  0  0  0
 36 33  1  0  0  0  0
M  END
>  <minimizedAffinity>
-5.55448341

$$$$

 OpenBabel03252503303D

 36 38  0  0  1  0  0  0  0  0999 V2000
   36.3670   29.1050   36.6080 C   0  0  0  0  0  0  0  0  0  0  0  0
   36.7520   30.0000   35.5780 C   0  0  0  0  0  0  0  0  0  0  0  0
   35.8030   30.1840   34.5510 C   0  0  0  0  0  0  0  0  0  0  0  0
   34.6450   29.5200   34.6240 N   0  0  0  0  0  0  0  0  0  0  0  0
   34.3240   28.6750   35.6320 C   0  0  0  0  0  0  0  0  0  0  0  0
   35.2060   28.4730   36.6320 N   0  0  0  0  0  0  0  0  0  0  0  0
   37.2780   29.9230   38.6110 C   0  0  0  0  0  0  0  0  0  0  0  0
   36.5780   30.9500   38.3670 O   0  0  0  0  0  0  0  0  0  0  0  0
   37.2470   28.8320   37.7120 N   0  0  0  0  0  0  0  0  0  0  0  0
   38.0470   29.9750   39.8080 N   0  0  0  0  0  0  0  0  0  0  0  0
   38.2560   31.2160   40.5260 C   0  0  0  0  0  0  0  0  0  0  0  0
   39.6300   31.0050   41.1130 C   0  0  0  0  0  0  0  0  0  0  0  0
   40.0220   29.5780   40.8480 C   0  0  0  0  0  0  0  0  0  0  0  0
   38.7350   28.8960   40.5170 C   0  0  1  0  0  0  0  0  0  0  0  0
   37.7280   30.4720   35.6470 H   0  0  0  0  0  0  0  0  0  0  0  0
   33.3800   28.1540   35.6620 H   0  0  0  0  0  0  0  0  0  0  0  0
   37.8330   28.0300   37.9620 H   0  0  0  0  0  0  0  0  0  0  0  0
   37.5450   31.3310   41.3500 H   0  0  0  0  0  0  0  0  0  0  0  0
   38.2450   32.1070   39.8330 H   0  0  0  0  0  0  0  0  0  0  0  0
   40.3400   31.6940   40.5940 H   0  0  0  0  0  0  0  0  0  0  0  0
   39.6680   31.2860   42.1740 H   0  0  0  0  0  0  0  0  0  0  0  0
   40.7230   29.5350   39.9950 H   0  0  0  0  0  0  0  0  0  0  0  0
   40.4770   29.2040   41.7930 H   0  0  0  0  0  0  0  0  0  0  0  0
   38.8870   28.0620   39.7940 H   0  0  0  0  0  0  0  0  0  0  0  0
   37.9620   28.4290   41.6700 C   0  0  0  0  0  0  0  0  0  0  0  0
   36.5890   28.3530   41.8000 C   0  0  0  0  0  0  0  0  0  0  0  0
   35.8640   28.6330   41.0520 H   0  0  0  0  0  0  0  0  0  0  0  0
   36.3440   27.8670   43.0270 N   0  0  0  0  0  0  0  0  0  0  0  0
   35.3990   27.6740   43.4740 H   0  0  0  0  0  0  0  0  0  0  0  0
   37.5180   27.6320   43.6800 C   0  0  0  0  0  0  0  0  0  0  0  0
   37.7270   27.2460   44.6730 H   0  0  0  0  0  0  0  0  0  0  0  0
   38.5260   27.9840   42.8280 N   0  0  0  0  0  0  0  0  0  0  0  0
   36.2270   31.1110   33.5050 C   0  0  0  0  0  0  0  0  0  0  0  0
   37.1150   32.0340   34.0640 F   0  0  0  0  0  0  0  0  0  0  0  0
   35.1170   31.8440   33.1270 F   0  0  0  0  0  0  0  0  0  0  0  0
   36.8740   30.5050   32.4500 F   0  0  0  0  0  0  0  0  0  0  0  0
  1  6  1  0  0  0  0
  1  9  1  0  0  0  0
  2 15  1  0  0  0  0
  2  1  2  0  0  0  0
  3  4  2  0  0  0  0
  3  2  1  0  0  0  0
  4  5  1  0  0  0  0
  5 16  1  0  0  0  0
  5  6  2  0  0  0  0
  7 10  1  0  0  0  0
  8  7  2  0  0  0  0
  9 17  1  0  0  0  0
  9  7  1  0  0  0  0
 10 14  1  0  0  0  0
 10 11  1  0  0  0  0
 11 12  1  0  0  0  0
 11 18  1  0  0  0  0
 12 21  1  0  0  0  0
 13 12  1  0  0  0  0
 13 23  1  0  0  0  0
 14 24  1  6  0  0  0
 14 13  1  0  0  0  0
 14 25  1  0  0  0  0
 19 11  1  0  0  0  0
 20 12  1  0  0  0  0
 22 13  1  0  0  0  0
 25 26  2  0  0  0  0
 25 32  1  0  0  0  0
 26 28  1  0  0  0  0
 27 26  1  0  0  0  0
 28 29  1  0  0  0  0
 28 30  1  0  0  0  0
 30 31  1  0  0  0  0
 32 30  2  0  0  0  0
 33 34  1  0  0  0  0
 33  3  1  0  0  0  0
 35 33  1  0  0  0  0
 36 33  1  0  0  0  0
M  END
>  <minimizedAffinity>
-5.48441267

$$$$

 OpenBabel03252503303D

 36 38  0  0  1  0  0  0  0  0999 V2000
   38.7960   29.8550   39.4610 C   0  0  0  0  0  0  0  0  0  0  0  0
   39.4030   31.0230   39.9870 C   0  0  0  0  0  0  0  0  0  0  0  0
   38.8710   32.2430   39.5220 C   0  0  0  0  0  0  0  0  0  0  0  0
   37.8620   32.2080   38.6450 N   0  0  0  0  0  0  0  0  0  0  0  0
   37.3150   31.0630   38.1730 C   0  0  0  0  0  0  0  0  0  0  0  0
   37.7970   29.8770   38.5940 N   0  0  0  0  0  0  0  0  0  0  0  0
   38.8090   28.2400   41.1640 C   0  0  0  0  0  0  0  0  0  0  0  0
   38.1150   29.0850   41.8030 O   0  0  0  0  0  0  0  0  0  0  0  0
   39.2480   28.5490   39.8560 N   0  0  0  0  0  0  0  0  0  0  0  0
   39.0830   27.0250   41.8540 N   0  0  0  0  0  0  0  0  0  0  0  0
   38.8550   26.8890   43.2780 C   0  0  0  0  0  0  0  0  0  0  0  0
   39.9420   25.9190   43.6730 C   0  0  0  0  0  0  0  0  0  0  0  0
   40.5870   25.4220   42.4100 C   0  0  0  0  0  0  0  0  0  0  0  0
   39.6070   25.7620   41.3360 C   0  0  1  0  0  0  0  0  0  0  0  0
   40.2180   30.9030   40.6950 H   0  0  0  0  0  0  0  0  0  0  0  0
   36.5010   31.0680   37.4650 H   0  0  0  0  0  0  0  0  0  0  0  0
   39.8050   27.8260   39.3900 H   0  0  0  0  0  0  0  0  0  0  0  0
   37.8870   26.4240   43.4900 H   0  0  0  0  0  0  0  0  0  0  0  0
   38.9760   27.8730   43.8170 H   0  0  0  0  0  0  0  0  0  0  0  0
   40.6930   26.4710   44.2900 H   0  0  0  0  0  0  0  0  0  0  0  0
   39.5590   25.1190   44.3210 H   0  0  0  0  0  0  0  0  0  0  0  0
   41.5470   25.9450   42.2490 H   0  0  0  0  0  0  0  0  0  0  0  0
   40.7170   24.3240   42.5430 H   0  0  0  0  0  0  0  0  0  0  0  0
   40.1170   25.9800   40.3700 H   0  0  0  0  0  0  0  0  0  0  0  0
   38.5400   24.7780   41.1310 C   0  0  0  0  0  0  0  0  0  0  0  0
   38.6110   23.4060   41.2640 C   0  0  0  0  0  0  0  0  0  0  0  0
   39.4860   22.8390   41.5450 H   0  0  0  0  0  0  0  0  0  0  0  0
   37.3920   22.9260   40.9760 N   0  0  0  0  0  0  0  0  0  0  0  0
   37.0740   21.9110   40.9750 H   0  0  0  0  0  0  0  0  0  0  0  0
   36.5480   23.9520   40.6650 C   0  0  0  0  0  0  0  0  0  0  0  0
   35.4990   23.9630   40.3830 H   0  0  0  0  0  0  0  0  0  0  0  0
   37.2700   25.1070   40.7640 N   0  0  0  0  0  0  0  0  0  0  0  0
   39.5160   33.4280   40.0810 C   0  0  0  0  0  0  0  0  0  0  0  0
   40.4100   33.0190   41.0740 F   0  0  0  0  0  0  0  0  0  0  0  0
   38.5420   34.1600   40.7350 F   0  0  0  0  0  0  0  0  0  0  0  0
   40.2330   34.1610   39.1600 F   0  0  0  0  0  0  0  0  0  0  0  0
  1  9  1  0  0  0  0
  1  2  1  0  0  0  0
  2 15  1  0  0  0  0
  3  2  2  0  0  0  0
  3 33  1  0  0  0  0
  4  3  1  0  0  0  0
  5  6  1  0  0  0  0
  5  4  2  0  0  0  0
  6  1  2  0  0  0  0
  7  8  2  0  0  0  0
  7 10  1  0  0  0  0
  9  7  1  0  0  0  0
 10 11  1  0  0  0  0
 11 18  1  0  0  0  0
 11 12  1  0  0  0  0
 11 19  1  0  0  0  0
 12 20  1  0  0  0  0
 12 21  1  0  0  0  0
 13 23  1  0  0  0  0
 13 12  1  0  0  0  0
 14 24  1  6  0  0  0
 14 10  1  0  0  0  0
 14 13  1  0  0  0  0
 16  5  1  0  0  0  0
 17  9  1  0  0  0  0
 22 13  1  0  0  0  0
 25 26  2  0  0  0  0
 25 14  1  0  0  0  0
 26 27  1  0  0  0  0
 28 26  1  0  0  0  0
 29 28  1  0  0  0  0
 30 32  2  0  0  0  0
 30 28  1  0  0  0  0
 31 30  1  0  0  0  0
 32 25  1  0  0  0  0
 33 35  1  0  0  0  0
 33 34  1  0  0  0  0
 36 33  1  0  0  0  0
M  END
>  <minimizedAffinity>
-5.18803453

$$$$

 OpenBabel03252503303D

 36 38  0  0  1  0  0  0  0  0999 V2000
   40.6970   29.9590   37.9950 C   0  0  0  0  0  0  0  0  0  0  0  0
   41.8350   29.5760   37.2420 C   0  0  0  0  0  0  0  0  0  0  0  0
   42.5610   30.6370   36.6610 C   0  0  0  0  0  0  0  0  0  0  0  0
   42.1340   31.8880   36.8590 N   0  0  0  0  0  0  0  0  0  0  0  0
   41.0380   32.2020   37.5900 C   0  0  0  0  0  0  0  0  0  0  0  0
   40.3190   31.2150   38.1600 N   0  0  0  0  0  0  0  0  0  0  0  0
   40.5140   28.4530   39.7870 C   0  0  0  0  0  0  0  0  0  0  0  0
   41.6620   28.8830   40.1060 O   0  0  0  0  0  0  0  0  0  0  0  0
   39.8740   28.9710   38.6370 N   0  0  0  0  0  0  0  0  0  0  0  0
   39.9700   27.4610   40.6500 N   0  0  0  0  0  0  0  0  0  0  0  0
   40.7850   26.7740   41.6310 C   0  0  0  0  0  0  0  0  0  0  0  0
   40.1280   25.4150   41.6800 C   0  0  0  0  0  0  0  0  0  0  0  0
   38.8660   25.4920   40.8670 C   0  0  0  0  0  0  0  0  0  0  0  0
   38.6000   26.9560   40.7350 C   0  0  1  0  0  0  0  0  0  0  0  0
   42.0670   28.5170   37.1640 H   0  0  0  0  0  0  0  0  0  0  0  0
   40.7190   33.2230   37.7320 H   0  0  0  0  0  0  0  0  0  0  0  0
   38.9480   28.5850   38.4300 H   0  0  0  0  0  0  0  0  0  0  0  0
   40.6990   27.2320   42.6200 H   0  0  0  0  0  0  0  0  0  0  0  0
   41.8600   26.6900   41.2970 H   0  0  0  0  0  0  0  0  0  0  0  0
   40.8280   24.6740   41.2230 H   0  0  0  0  0  0  0  0  0  0  0  0
   39.9710   25.0760   42.7120 H   0  0  0  0  0  0  0  0  0  0  0  0
   39.0300   25.0290   39.8780 H   0  0  0  0  0  0  0  0  0  0  0  0
   38.0850   24.9640   41.4610 H   0  0  0  0  0  0  0  0  0  0  0  0
   38.0920   27.1940   39.7720 H   0  0  0  0  0  0  0  0  0  0  0  0
   37.8700   27.5600   41.8530 C   0  0  0  0  0  0  0  0  0  0  0  0
   37.7280   28.9010   42.1500 C   0  0  0  0  0  0  0  0  0  0  0  0
   38.1430   29.7240   41.5880 H   0  0  0  0  0  0  0  0  0  0  0  0
   36.9800   28.9730   43.2610 N   0  0  0  0  0  0  0  0  0  0  0  0
   36.6670   29.8470   43.7810 H   0  0  0  0  0  0  0  0  0  0  0  0
   36.6430   27.7190   43.6790 C   0  0  0  0  0  0  0  0  0  0  0  0
   36.0570   27.3740   44.5260 H   0  0  0  0  0  0  0  0  0  0  0  0
   37.2010   26.8400   42.7960 N   0  0  0  0  0  0  0  0  0  0  0  0
   43.7280   30.2120   35.8910 C   0  0  0  0  0  0  0  0  0  0  0  0
   44.6290   31.2770   35.8300 F   0  0  0  0  0  0  0  0  0  0  0  0
   43.3100   30.0020   34.5890 F   0  0  0  0  0  0  0  0  0  0  0  0
   44.3960   29.1380   36.4360 F   0  0  0  0  0  0  0  0  0  0  0  0
  1  6  1  0  0  0  0
  1  9  1  0  0  0  0
  2  1  2  0  0  0  0
  3  4  2  0  0  0  0
  3  2  1  0  0  0  0
  4  5  1  0  0  0  0
  5 16  1  0  0  0  0
  5  6  2  0  0  0  0
  7  8  2  0  0  0  0
  7 10  1  0  0  0  0
  9  7  1  0  0  0  0
 10 14  1  0  0  0  0
 10 11  1  0  0  0  0
 11 12  1  0  0  0  0
 11 18  1  0  0  0  0
 12 21  1  0  0  0  0
 13 23  1  0  0  0  0
 13 12  1  0  0  0  0
 14 24  1  6  0  0  0
 14 13  1  0  0  0  0
 14 25  1  0  0  0  0
 15  2  1  0  0  0  0
 17  9  1  0  0  0  0
 19 11  1  0  0  0  0
 20 12  1  0  0  0  0
 22 13  1  0  0  0  0
 25 26  2  0  0  0  0
 25 32  1  0  0  0  0
 26 28  1  0  0  0  0
 27 26  1  0  0  0  0
 28 30  1  0  0  0  0
 28 29  1  0  0  0  0
 30 31  1  0  0  0  0
 32 30  2  0  0  0  0
 33 36  1  0  0  0  0
 33  3  1  0  0  0  0
 34 33  1  0  0  0  0
 35 33  1  0  0  0  0
M  END
>  <minimizedAffinity>
-5.16108847

$$$$

 OpenBabel03252503303D

 36 38  0  0  1  0  0  0  0  0999 V2000
   37.8780   25.6980   40.1160 C   0  0  0  0  0  0  0  0  0  0  0  0
   36.6500   25.1390   39.6820 C   0  0  0  0  0  0  0  0  0  0  0  0
   36.4480   23.7860   40.0220 C   0  0  0  0  0  0  0  0  0  0  0  0
   37.4030   23.1490   40.7060 N   0  0  0  0  0  0  0  0  0  0  0  0
   38.5620   23.7290   41.0980 C   0  0  0  0  0  0  0  0  0  0  0  0
   38.7910   25.0220   40.7920 N   0  0  0  0  0  0  0  0  0  0  0  0
   37.4640   27.9430   40.6630 C   0  0  0  0  0  0  0  0  0  0  0  0
   36.6520   27.4600   41.5070 O   0  0  0  0  0  0  0  0  0  0  0  0
   38.2030   27.0690   39.8320 N   0  0  0  0  0  0  0  0  0  0  0  0
   37.5500   29.3640   40.6400 N   0  0  0  0  0  0  0  0  0  0  0  0
   36.5690   30.1980   41.3040 C   0  0  0  0  0  0  0  0  0  0  0  0
   36.5450   31.4150   40.4110 C   0  0  0  0  0  0  0  0  0  0  0  0
   37.6590   31.2670   39.4120 C   0  0  0  0  0  0  0  0  0  0  0  0
   38.5480   30.2220   40.0020 C   0  0  1  0  0  0  0  0  0  0  0  0
   35.9620   25.7760   39.1320 H   0  0  0  0  0  0  0  0  0  0  0  0
   39.3140   23.1880   41.6510 H   0  0  0  0  0  0  0  0  0  0  0  0
   38.8430   27.5190   39.1700 H   0  0  0  0  0  0  0  0  0  0  0  0
   36.9080   30.5070   42.2970 H   0  0  0  0  0  0  0  0  0  0  0  0
   35.5550   29.7040   41.3390 H   0  0  0  0  0  0  0  0  0  0  0  0
   35.5620   31.4380   39.8810 H   0  0  0  0  0  0  0  0  0  0  0  0
   36.5900   32.3470   40.9910 H   0  0  0  0  0  0  0  0  0  0  0  0
   37.2490   30.9360   38.4420 H   0  0  0  0  0  0  0  0  0  0  0  0
   38.1500   32.2650   39.3490 H   0  0  0  0  0  0  0  0  0  0  0  0
   39.0540   29.6210   39.2120 H   0  0  0  0  0  0  0  0  0  0  0  0
   39.5330   30.7140   40.9690 C   0  0  0  0  0  0  0  0  0  0  0  0
   40.0830   31.9780   41.0550 C   0  0  0  0  0  0  0  0  0  0  0  0
   39.8620   32.8130   40.4070 H   0  0  0  0  0  0  0  0  0  0  0  0
   40.9340   31.9590   42.0920 N   0  0  0  0  0  0  0  0  0  0  0  0
   41.5360   32.7570   42.4550 H   0  0  0  0  0  0  0  0  0  0  0  0
   40.9420   30.7220   42.6670 C   0  0  0  0  0  0  0  0  0  0  0  0
   41.4930   30.3240   43.5140 H   0  0  0  0  0  0  0  0  0  0  0  0
   40.0650   29.9480   41.9620 N   0  0  0  0  0  0  0  0  0  0  0  0
   35.1740   23.2380   39.5630 C   0  0  0  0  0  0  0  0  0  0  0  0
   35.4000   21.9530   39.0610 F   0  0  0  0  0  0  0  0  0  0  0  0
   34.7650   23.9940   38.4790 F   0  0  0  0  0  0  0  0  0  0  0  0
   34.2220   23.1320   40.5530 F   0  0  0  0  0  0  0  0  0  0  0  0
  1  6  1  0  0  0  0
  2  3  1  0  0  0  0
  2  1  2  0  0  0  0
  3  4  2  0  0  0  0
  4  5  1  0  0  0  0
  5 16  1  0  0  0  0
  6  5  2  0  0  0  0
  7  8  2  0  0  0  0
  9  1  1  0  0  0  0
  9  7  1  0  0  0  0
 10  7  1  0  0  0  0
 10 11  1  0  0  0  0
 11 19  1  0  0  0  0
 11 18  1  0  0  0  0
 12 21  1  0  0  0  0
 12 11  1  0  0  0  0
 13 14  1  0  0  0  0
 13 12  1  0  0  0  0
 14 24  1  6  0  0  0
 14 10  1  0  0  0  0
 14 25  1  0  0  0  0
 15  2  1  0  0  0  0
 17  9  1  0  0  0  0
 20 12  1  0  0  0  0
 22 13  1  0  0  0  0
 23 13  1  0  0  0  0
 25 26  2  0  0  0  0
 25 32  1  0  0  0  0
 26 28  1  0  0  0  0
 27 26  1  0  0  0  0
 28 29  1  0  0  0  0
 28 30  1  0  0  0  0
 30 31  1  0  0  0  0
 32 30  2  0  0  0  0
 33  3  1  0  0  0  0
 33 36  1  0  0  0  0
 34 33  1  0  0  0  0
 35 33  1  0  0  0  0
M  END
>  <minimizedAffinity>
-5.09466934

$$$$

 OpenBabel03252503303D

 36 38  0  0  1  0  0  0  0  0999 V2000
   38.0110   28.9120   39.0040 C   0  0  0  0  0  0  0  0  0  0  0  0
   37.4860   28.2070   40.1170 C   0  0  0  0  0  0  0  0  0  0  0  0
   37.9080   28.6700   41.3800 C   0  0  0  0  0  0  0  0  0  0  0  0
   38.7480   29.7080   41.4330 N   0  0  0  0  0  0  0  0  0  0  0  0
   39.2220   30.3490   40.3380 C   0  0  0  0  0  0  0  0  0  0  0  0
   38.8410   29.9350   39.1130 N   0  0  0  0  0  0  0  0  0  0  0  0
   36.3390   28.9500   37.3570 C   0  0  0  0  0  0  0  0  0  0  0  0
   35.6600   29.5620   38.2340 O   0  0  0  0  0  0  0  0  0  0  0  0
   37.6570   28.5370   37.6630 N   0  0  0  0  0  0  0  0  0  0  0  0
   35.6830   28.7370   36.1110 N   0  0  0  0  0  0  0  0  0  0  0  0
   34.2540   28.9250   35.9620 C   0  0  0  0  0  0  0  0  0  0  0  0
   33.9170   27.8940   34.9120 C   0  0  0  0  0  0  0  0  0  0  0  0
   35.2120   27.3290   34.3990 C   0  0  0  0  0  0  0  0  0  0  0  0
   36.2430   28.3200   34.8270 C   0  0  1  0  0  0  0  0  0  0  0  0
   36.8090   27.3780   39.9260 H   0  0  0  0  0  0  0  0  0  0  0  0
   39.8990   31.1850   40.4140 H   0  0  0  0  0  0  0  0  0  0  0  0
   38.1560   28.0470   36.9140 H   0  0  0  0  0  0  0  0  0  0  0  0
   34.0160   29.9140   35.5590 H   0  0  0  0  0  0  0  0  0  0  0  0
   33.7010   28.7170   36.9240 H   0  0  0  0  0  0  0  0  0  0  0  0
   33.3180   27.0860   35.3970 H   0  0  0  0  0  0  0  0  0  0  0  0
   33.2710   28.3080   34.1260 H   0  0  0  0  0  0  0  0  0  0  0  0
   35.3970   26.3410   34.8580 H   0  0  0  0  0  0  0  0  0  0  0  0
   35.1040   27.2700   33.2910 H   0  0  0  0  0  0  0  0  0  0  0  0
   37.2230   27.8300   35.0290 H   0  0  0  0  0  0  0  0  0  0  0  0
   36.4270   29.4590   33.9230 C   0  0  0  0  0  0  0  0  0  0  0  0
   36.6300   29.4370   32.5570 C   0  0  0  0  0  0  0  0  0  0  0  0
   36.6840   28.5560   31.9370 H   0  0  0  0  0  0  0  0  0  0  0  0
   36.7450   30.7150   32.1640 N   0  0  0  0  0  0  0  0  0  0  0  0
   36.9070   31.0810   31.1780 H   0  0  0  0  0  0  0  0  0  0  0  0
   36.6210   31.5470   33.2370 C   0  0  0  0  0  0  0  0  0  0  0  0
   36.6570   32.6290   33.3190 H   0  0  0  0  0  0  0  0  0  0  0  0
   36.4230   30.7580   34.3340 N   0  0  0  0  0  0  0  0  0  0  0  0
   37.3510   27.9250   42.5060 C   0  0  0  0  0  0  0  0  0  0  0  0
   35.9580   27.9320   42.3960 F   0  0  0  0  0  0  0  0  0  0  0  0
   37.6370   28.6380   43.6560 F   0  0  0  0  0  0  0  0  0  0  0  0
   37.7520   26.6080   42.5590 F   0  0  0  0  0  0  0  0  0  0  0  0
  1  6  2  0  0  0  0
  1  2  1  0  0  0  0
  2  3  2  0  0  0  0
  3  4  1  0  0  0  0
  3 33  1  0  0  0  0
  5 16  1  0  0  0  0
  5  4  2  0  0  0  0
  6  5  1  0  0  0  0
  7  9  1  0  0  0  0
  7  8  2  0  0  0  0
  9  1  1  0  0  0  0
 10  7  1  0  0  0  0
 11 10  1  0  0  0  0
 11 19  1  0  0  0  0
 12 20  1  0  0  0  0
 12 11  1  0  0  0  0
 13 14  1  0  0  0  0
 13 22  1  0  0  0  0
 13 12  1  0  0  0  0
 14 24  1  1  0  0  0
 14 10  1  0  0  0  0
 15  2  1  0  0  0  0
 17  9  1  0  0  0  0
 18 11  1  0  0  0  0
 21 12  1  0  0  0  0
 23 13  1  0  0  0  0
 25 32  1  0  0  0  0
 25 14  1  0  0  0  0
 26 25  2  0  0  0  0
 27 26  1  0  0  0  0
 28 26  1  0  0  0  0
 28 30  1  0  0  0  0
 29 28  1  0  0  0  0
 30 31  1  0  0  0  0
 30 32  2  0  0  0  0
 33 36  1  0  0  0  0
 33 35  1  0  0  0  0
 34 33  1  0  0  0  0
M  END
>  <minimizedAffinity>
-5.0577693

$$$$

 OpenBabel03252503303D

 36 38  0  0  1  0  0  0  0  0999 V2000
   37.1040   27.5950   39.9750 C   0  0  0  0  0  0  0  0  0  0  0  0
   37.0990   26.3910   40.7230 C   0  0  0  0  0  0  0  0  0  0  0  0
   36.5740   25.2660   40.0540 C   0  0  0  0  0  0  0  0  0  0  0  0
   36.1330   25.4150   38.8010 N   0  0  0  0  0  0  0  0  0  0  0  0
   36.1600   26.5890   38.1280 C   0  0  0  0  0  0  0  0  0  0  0  0
   36.6550   27.6870   38.7340 N   0  0  0  0  0  0  0  0  0  0  0  0
   39.0260   28.7900   40.5980 C   0  0  0  0  0  0  0  0  0  0  0  0
   39.6480   27.7730   40.1700 O   0  0  0  0  0  0  0  0  0  0  0  0
   37.6130   28.8130   40.5440 N   0  0  0  0  0  0  0  0  0  0  0  0
   39.8430   29.8400   41.1040 N   0  0  0  0  0  0  0  0  0  0  0  0
   41.2480   29.6400   41.3950 C   0  0  0  0  0  0  0  0  0  0  0  0
   41.4590   30.5810   42.5560 C   0  0  0  0  0  0  0  0  0  0  0  0
   40.2040   31.3930   42.7160 C   0  0  0  0  0  0  0  0  0  0  0  0
   39.4870   31.2240   41.4170 C   0  0  1  0  0  0  0  0  0  0  0  0
   37.4900   26.4150   41.7360 H   0  0  0  0  0  0  0  0  0  0  0  0
   35.7970   26.6770   37.1160 H   0  0  0  0  0  0  0  0  0  0  0  0
   37.1660   29.6620   40.9050 H   0  0  0  0  0  0  0  0  0  0  0  0
   41.8830   29.9700   40.5670 H   0  0  0  0  0  0  0  0  0  0  0  0
   41.4660   28.5740   41.6940 H   0  0  0  0  0  0  0  0  0  0  0  0
   41.6310   29.9670   43.4740 H   0  0  0  0  0  0  0  0  0  0  0  0
   42.3670   31.1860   42.4310 H   0  0  0  0  0  0  0  0  0  0  0  0
   39.6050   30.9950   43.5540 H   0  0  0  0  0  0  0  0  0  0  0  0
   40.5380   32.4420   42.8900 H   0  0  0  0  0  0  0  0  0  0  0  0
   38.3820   31.2650   41.5520 H   0  0  0  0  0  0  0  0  0  0  0  0
   39.8990   32.1420   40.3520 C   0  0  0  0  0  0  0  0  0  0  0  0
   39.7330   31.9930   38.9890 C   0  0  0  0  0  0  0  0  0  0  0  0
   39.2620   31.1580   38.4940 H   0  0  0  0  0  0  0  0  0  0  0  0
   40.2670   33.0810   38.4150 N   0  0  0  0  0  0  0  0  0  0  0  0
   40.3200   33.3100   37.3770 H   0  0  0  0  0  0  0  0  0  0  0  0
   40.7670   33.9160   39.3700 C   0  0  0  0  0  0  0  0  0  0  0  0
   41.2680   34.8770   39.2980 H   0  0  0  0  0  0  0  0  0  0  0  0
   40.5350   33.3250   40.5790 N   0  0  0  0  0  0  0  0  0  0  0  0
   36.5820   24.0400   40.8500 C   0  0  0  0  0  0  0  0  0  0  0  0
   35.3970   23.3440   40.6010 F   0  0  0  0  0  0  0  0  0  0  0  0
   36.5240   24.4110   42.1810 F   0  0  0  0  0  0  0  0  0  0  0  0
   37.6270   23.1910   40.5580 F   0  0  0  0  0  0  0  0  0  0  0  0
  1  9  1  0  0  0  0
  1  2  1  0  0  0  0
  2 15  1  0  0  0  0
  3  2  2  0  0  0  0
  3 33  1  0  0  0  0
  4  3  1  0  0  0  0
  5  6  1  0  0  0  0
  5  4  2  0  0  0  0
  6  1  2  0  0  0  0
  7 10  1  0  0  0  0
  8  7  2  0  0  0  0
  9  7  1  0  0  0  0
  9 17  1  0  0  0  0
 10 11  1  0  0  0  0
 10 14  1  0  0  0  0
 11 19  1  0  0  0  0
 11 12  1  0  0  0  0
 12 13  1  0  0  0  0
 12 20  1  0  0  0  0
 13 23  1  0  0  0  0
 13 22  1  0  0  0  0
 14 24  1  1  0  0  0
 14 13  1  0  0  0  0
 16  5  1  0  0  0  0
 18 11  1  0  0  0  0
 21 12  1  0  0  0  0
 25 32  1  0  0  0  0
 25 14  1  0  0  0  0
 26 25  2  0  0  0  0
 27 26  1  0  0  0  0
 28 26  1  0  0  0  0
 28 30  1  0  0  0  0
 29 28  1  0  0  0  0
 30 32  2  0  0  0  0
 31 30  1  0  0  0  0
 33 35  1  0  0  0  0
 34 33  1  0  0  0  0
 36 33  1  0  0  0  0
M  END
>  <minimizedAffinity>
-5.00215149

$$$$

 OpenBabel03252503303D

 36 38  0  0  1  0  0  0  0  0999 V2000
   38.7750   27.2070   39.5050 C   0  0  0  0  0  0  0  0  0  0  0  0
   37.9570   26.7120   40.5520 C   0  0  0  0  0  0  0  0  0  0  0  0
   38.1100   25.3400   40.8410 C   0  0  0  0  0  0  0  0  0  0  0  0
   38.9900   24.6300   40.1270 N   0  0  0  0  0  0  0  0  0  0  0  0
   39.7490   25.1520   39.1350 C   0  0  0  0  0  0  0  0  0  0  0  0
   39.6310   26.4590   38.8300 N   0  0  0  0  0  0  0  0  0  0  0  0
   39.3610   29.4100   40.0670 C   0  0  0  0  0  0  0  0  0  0  0  0
   39.8880   28.8790   41.0890 O   0  0  0  0  0  0  0  0  0  0  0  0
   38.7130   28.5890   39.1150 N   0  0  0  0  0  0  0  0  0  0  0  0
   39.4810   30.8260   39.9810 N   0  0  0  0  0  0  0  0  0  0  0  0
   39.8950   31.6260   41.1150 C   0  0  0  0  0  0  0  0  0  0  0  0
   39.1380   32.9110   40.8790 C   0  0  0  0  0  0  0  0  0  0  0  0
   38.5000   32.8180   39.5210 C   0  0  0  0  0  0  0  0  0  0  0  0
   39.2360   31.7100   38.8420 C   0  0  1  0  0  0  0  0  0  0  0  0
   37.2840   27.4050   41.0490 H   0  0  0  0  0  0  0  0  0  0  0  0
   40.4510   24.5520   38.5770 H   0  0  0  0  0  0  0  0  0  0  0  0
   38.3060   29.0750   38.3100 H   0  0  0  0  0  0  0  0  0  0  0  0
   40.9660   31.8480   41.0830 H   0  0  0  0  0  0  0  0  0  0  0  0
   39.5920   31.1530   42.0940 H   0  0  0  0  0  0  0  0  0  0  0  0
   38.3480   32.9980   41.6630 H   0  0  0  0  0  0  0  0  0  0  0  0
   39.7800   33.7920   41.0080 H   0  0  0  0  0  0  0  0  0  0  0  0
   37.4280   32.5740   39.6280 H   0  0  0  0  0  0  0  0  0  0  0  0
   38.6660   33.8070   39.0360 H   0  0  0  0  0  0  0  0  0  0  0  0
   38.5810   31.1630   38.1250 H   0  0  0  0  0  0  0  0  0  0  0  0
   40.4850   32.1020   38.1840 C   0  0  0  0  0  0  0  0  0  0  0  0
   41.3670   31.3010   37.4860 C   0  0  0  0  0  0  0  0  0  0  0  0
   41.2640   30.2400   37.3170 H   0  0  0  0  0  0  0  0  0  0  0  0
   42.3630   32.0960   37.0680 N   0  0  0  0  0  0  0  0  0  0  0  0
   43.2200   31.8230   36.5000 H   0  0  0  0  0  0  0  0  0  0  0  0
   42.1410   33.3780   37.4790 C   0  0  0  0  0  0  0  0  0  0  0  0
   42.7130   34.2900   37.3380 H   0  0  0  0  0  0  0  0  0  0  0  0
   40.9670   33.3760   38.1750 N   0  0  0  0  0  0  0  0  0  0  0  0
   37.2550   24.8590   41.9230 C   0  0  0  0  0  0  0  0  0  0  0  0
   36.1700   24.1820   41.3610 F   0  0  0  0  0  0  0  0  0  0  0  0
   36.7170   25.9680   42.5510 F   0  0  0  0  0  0  0  0  0  0  0  0
   37.8820   23.9860   42.7860 F   0  0  0  0  0  0  0  0  0  0  0  0
  1  2  1  0  0  0  0
  2  3  2  0  0  0  0
  2 15  1  0  0  0  0
  3 33  1  0  0  0  0
  4  3  1  0  0  0  0
  5  4  2  0  0  0  0
  6  5  1  0  0  0  0
  6  1  2  0  0  0  0
  7  8  2  0  0  0  0
  9  1  1  0  0  0  0
  9  7  1  0  0  0  0
 10  7  1  0  0  0  0
 10 11  1  0  0  0  0
 11 19  1  0  0  0  0
 12 21  1  0  0  0  0
 12 11  1  0  0  0  0
 12 20  1  0  0  0  0
 13 22  1  0  0  0  0
 13 12  1  0  0  0  0
 14 24  1  6  0  0  0
 14 13  1  0  0  0  0
 14 10  1  0  0  0  0
 16  5  1  0  0  0  0
 17  9  1  0  0  0  0
 18 11  1  0  0  0  0
 23 13  1  0  0  0  0
 25 14  1  0  0  0  0
 26 25  2  0  0  0  0
 27 26  1  0  0  0  0
 28 30  1  0  0  0  0
 28 26  1  0  0  0  0
 29 28  1  0  0  0  0
 30 32  2  0  0  0  0
 31 30  1  0  0  0  0
 32 25  1  0  0  0  0
 33 35  1  0  0  0  0
 33 36  1  0  0  0  0
 34 33  1  0  0  0  0
M  END
>  <minimizedAffinity>
-4.99671268

$$$$
