
 OpenBabel03252509253D

 26 28  0  0  1  0  0  0  0  0999 V2000
   38.1380   28.3080   42.6020 C   0  0  1  0  0  0  0  0  0  0  0  0
   36.9200   27.8520   43.4470 C   0  0  0  0  0  0  0  0  0  0  0  0
   37.4510   27.1510   42.1600 C   0  0  2  0  0  0  0  0  0  0  0  0
   39.0850   28.3220   43.1650 H   0  0  0  0  0  0  0  0  0  0  0  0
   37.2070   27.4070   44.3950 H   0  0  0  0  0  0  0  0  0  0  0  0
   35.9770   28.3870   43.3650 H   0  0  0  0  0  0  0  0  0  0  0  0
   36.7260   27.1890   41.3220 H   0  0  0  0  0  0  0  0  0  0  0  0
   38.5470   31.7000   41.0750 C   0  0  0  0  0  0  0  0  0  0  0  0
   38.8840   30.5090   41.7680 C   0  0  0  0  0  0  0  0  0  0  0  0
   37.8380   29.6390   41.9340 C   0  0  0  0  0  0  0  0  0  0  0  0
   36.5660   29.9060   41.4650 N   0  0  0  0  0  0  0  0  0  0  0  0
   36.3070   31.0490   40.8140 C   0  0  0  0  0  0  0  0  0  0  0  0
   37.2920   31.9550   40.6130 N   0  0  0  0  0  0  0  0  0  0  0  0
   39.3050   32.4320   40.9020 H   0  0  0  0  0  0  0  0  0  0  0  0
   35.3270   31.2930   40.4330 H   0  0  0  0  0  0  0  0  0  0  0  0
   40.1860   30.2620   42.2600 N   0  0  0  0  0  0  0  0  0  0  0  0
   40.8480   29.4880   42.1030 H   0  0  0  0  0  0  0  0  0  0  0  0
   40.4100   31.0730   42.8790 H   0  0  0  0  0  0  0  0  0  0  0  0
   38.1130   25.8180   42.4010 C   0  0  0  0  0  0  0  0  0  0  0  0
   37.6410   24.5410   42.1540 C   0  0  0  0  0  0  0  0  0  0  0  0
   36.6730   24.3260   41.7270 H   0  0  0  0  0  0  0  0  0  0  0  0
   38.6140   23.6820   42.5450 N   0  0  0  0  0  0  0  0  0  0  0  0
   38.5580   22.6450   42.4870 H   0  0  0  0  0  0  0  0  0  0  0  0
   39.6830   24.3780   43.0320 C   0  0  0  0  0  0  0  0  0  0  0  0
   40.6170   23.9850   43.4220 H   0  0  0  0  0  0  0  0  0  0  0  0
   39.3420   25.6790   42.9290 N   0  0  0  0  0  0  0  0  0  0  0  0
  1  4  1  1  0  0  0
  1  2  1  0  0  0  0
  2  5  1  0  0  0  0
  3  7  1  6  0  0  0
  3 19  1  0  0  0  0
  3  1  1  0  0  0  0
  3  2  1  0  0  0  0
  6  2  1  0  0  0  0
  8  9  1  0  0  0  0
  9 10  2  0  0  0  0
  9 16  1  0  0  0  0
 10  1  1  0  0  0  0
 11 10  1  0  0  0  0
 12 11  2  0  0  0  0
 13 12  1  0  0  0  0
 13  8  2  0  0  0  0
 14  8  1  0  0  0  0
 15 12  1  0  0  0  0
 16 18  1  0  0  0  0
 17 16  1  0  0  0  0
 19 26  1  0  0  0  0
 20 19  2  0  0  0  0
 20 22  1  0  0  0  0
 21 20  1  0  0  0  0
 22 24  1  0  0  0  0
 23 22  1  0  0  0  0
 24 25  1  0  0  0  0
 26 24  2  0  0  0  0
M  END
>  <minimizedAffinity>
-4.71354914

$$$$

 OpenBabel03252509253D

 26 28  0  0  1  0  0  0  0  0999 V2000
   37.7730   29.3630   41.8420 C   0  0  1  0  0  0  0  0  0  0  0  0
   38.9100   29.9450   42.7220 C   0  0  0  0  0  0  0  0  0  0  0  0
   38.7300   30.1790   41.1910 C   0  0  2  0  0  0  0  0  0  0  0  0
   36.7650   29.6760   42.1600 H   0  0  0  0  0  0  0  0  0  0  0  0
   38.5700   30.7430   43.3760 H   0  0  0  0  0  0  0  0  0  0  0  0
   39.7330   29.3060   43.0300 H   0  0  0  0  0  0  0  0  0  0  0  0
   39.5550   29.7440   40.5920 H   0  0  0  0  0  0  0  0  0  0  0  0
   37.2220   25.6970   42.3530 C   0  0  0  0  0  0  0  0  0  0  0  0
   37.0910   27.0960   42.5440 C   0  0  0  0  0  0  0  0  0  0  0  0
   37.9110   27.8530   41.7480 C   0  0  0  0  0  0  0  0  0  0  0  0
   38.7890   27.2940   40.8400 N   0  0  0  0  0  0  0  0  0  0  0  0
   38.8690   25.9630   40.7020 C   0  0  0  0  0  0  0  0  0  0  0  0
   38.0890   25.1540   41.4540 N   0  0  0  0  0  0  0  0  0  0  0  0
   36.6190   25.0340   42.9330 H   0  0  0  0  0  0  0  0  0  0  0  0
   39.5430   25.4900   40.0040 H   0  0  0  0  0  0  0  0  0  0  0  0
   36.2010   27.6500   43.4930 N   0  0  0  0  0  0  0  0  0  0  0  0
   35.4310   28.3300   43.4040 H   0  0  0  0  0  0  0  0  0  0  0  0
   36.4640   27.2200   44.4080 H   0  0  0  0  0  0  0  0  0  0  0  0
   38.3090   31.5770   40.8160 C   0  0  0  0  0  0  0  0  0  0  0  0
   37.0810   32.0420   40.3800 C   0  0  0  0  0  0  0  0  0  0  0  0
   36.2110   31.4170   40.2440 H   0  0  0  0  0  0  0  0  0  0  0  0
   37.2160   33.3740   40.1770 N   0  0  0  0  0  0  0  0  0  0  0  0
   36.4630   34.0100   39.8450 H   0  0  0  0  0  0  0  0  0  0  0  0
   38.4910   33.7650   40.4710 C   0  0  0  0  0  0  0  0  0  0  0  0
   38.9170   34.7610   40.4130 H   0  0  0  0  0  0  0  0  0  0  0  0
   39.1300   32.6420   40.8580 N   0  0  0  0  0  0  0  0  0  0  0  0
  1  4  1  1  0  0  0
  1  2  1  0  0  0  0
  2  6  1  0  0  0  0
  2  5  1  0  0  0  0
  3  7  1  6  0  0  0
  3  1  1  0  0  0  0
  3  2  1  0  0  0  0
  8  9  1  0  0  0  0
  8 14  1  0  0  0  0
  9 16  1  0  0  0  0
 10  1  1  0  0  0  0
 10  9  2  0  0  0  0
 11 10  1  0  0  0  0
 12 11  2  0  0  0  0
 12 13  1  0  0  0  0
 13  8  2  0  0  0  0
 15 12  1  0  0  0  0
 16 18  1  0  0  0  0
 17 16  1  0  0  0  0
 19 26  1  0  0  0  0
 19  3  1  0  0  0  0
 20 19  2  0  0  0  0
 21 20  1  0  0  0  0
 22 20  1  0  0  0  0
 22 24  1  0  0  0  0
 23 22  1  0  0  0  0
 24 26  2  0  0  0  0
 25 24  1  0  0  0  0
M  END
>  <minimizedAffinity>
-4.70531034

$$$$

 OpenBabel03252509253D

 26 28  0  0  1  0  0  0  0  0999 V2000
   38.5110   29.7120   40.9460 C   0  0  1  0  0  0  0  0  0  0  0  0
   38.8450   29.7090   39.4320 C   0  0  0  0  0  0  0  0  0  0  0  0
   37.6800   30.4950   40.1070 C   0  0  2  0  0  0  0  0  0  0  0  0
   39.3310   30.0900   41.5780 H   0  0  0  0  0  0  0  0  0  0  0  0
   39.7400   30.2780   39.1960 H   0  0  0  0  0  0  0  0  0  0  0  0
   38.5740   28.8510   38.8230 H   0  0  0  0  0  0  0  0  0  0  0  0
   36.6810   30.1400   39.7830 H   0  0  0  0  0  0  0  0  0  0  0  0
   36.9250   26.9410   42.8970 C   0  0  0  0  0  0  0  0  0  0  0  0
   37.4090   28.2390   42.5920 C   0  0  0  0  0  0  0  0  0  0  0  0
   38.0320   28.3360   41.3750 C   0  0  0  0  0  0  0  0  0  0  0  0
   38.1740   27.2580   40.5230 N   0  0  0  0  0  0  0  0  0  0  0  0
   37.6940   26.0540   40.8650 C   0  0  0  0  0  0  0  0  0  0  0  0
   37.0660   25.8840   42.0510 N   0  0  0  0  0  0  0  0  0  0  0  0
   36.4260   26.7780   43.8270 H   0  0  0  0  0  0  0  0  0  0  0  0
   37.7860   25.1880   40.2260 H   0  0  0  0  0  0  0  0  0  0  0  0
   37.2740   29.3260   43.4860 N   0  0  0  0  0  0  0  0  0  0  0  0
   36.8470   30.2590   43.3790 H   0  0  0  0  0  0  0  0  0  0  0  0
   37.7200   29.0140   44.3770 H   0  0  0  0  0  0  0  0  0  0  0  0
   37.8710   31.9900   40.1420 C   0  0  0  0  0  0  0  0  0  0  0  0
   37.2350   32.9790   39.4130 C   0  0  0  0  0  0  0  0  0  0  0  0
   36.4690   32.7880   38.6760 H   0  0  0  0  0  0  0  0  0  0  0  0
   37.7620   34.1610   39.8130 N   0  0  0  0  0  0  0  0  0  0  0  0
   37.4890   35.0950   39.4460 H   0  0  0  0  0  0  0  0  0  0  0  0
   38.7120   33.9490   40.7720 C   0  0  0  0  0  0  0  0  0  0  0  0
   39.3140   34.6850   41.2920 H   0  0  0  0  0  0  0  0  0  0  0  0
   38.7510   32.6120   40.9480 N   0  0  0  0  0  0  0  0  0  0  0  0
  1 10  1  0  0  0  0
  1  4  1  1  0  0  0
  2  3  1  0  0  0  0
  2  1  1  0  0  0  0
  3  7  1  6  0  0  0
  3 19  1  0  0  0  0
  3  1  1  0  0  0  0
  5  2  1  0  0  0  0
  6  2  1  0  0  0  0
  8 14  1  0  0  0  0
  9  8  1  0  0  0  0
  9 16  1  0  0  0  0
 10  9  2  0  0  0  0
 11 12  2  0  0  0  0
 11 10  1  0  0  0  0
 12 13  1  0  0  0  0
 13  8  2  0  0  0  0
 15 12  1  0  0  0  0
 16 18  1  0  0  0  0
 17 16  1  0  0  0  0
 19 26  1  0  0  0  0
 20 22  1  0  0  0  0
 20 19  2  0  0  0  0
 21 20  1  0  0  0  0
 22 24  1  0  0  0  0
 23 22  1  0  0  0  0
 24 26  2  0  0  0  0
 24 25  1  0  0  0  0
M  END
>  <minimizedAffinity>
-4.45902491

$$$$

 OpenBabel03252509253D

 26 28  0  0  1  0  0  0  0  0999 V2000
   39.0080   30.7020   40.8950 C   0  0  1  0  0  0  0  0  0  0  0  0
   39.9740   31.7660   41.4770 C   0  0  0  0  0  0  0  0  0  0  0  0
   40.2930   30.7920   40.3030 C   0  0  2  0  0  0  0  0  0  0  0  0
   38.0770   31.1270   40.4880 H   0  0  0  0  0  0  0  0  0  0  0  0
   39.6990   32.7810   41.2030 H   0  0  0  0  0  0  0  0  0  0  0  0
   40.4750   31.5790   42.4240 H   0  0  0  0  0  0  0  0  0  0  0  0
   41.0990   30.0720   40.5500 H   0  0  0  0  0  0  0  0  0  0  0  0
   37.2810   28.3820   43.2700 C   0  0  0  0  0  0  0  0  0  0  0  0
   37.4620   29.4590   42.3650 C   0  0  0  0  0  0  0  0  0  0  0  0
   38.7510   29.6160   41.9260 C   0  0  0  0  0  0  0  0  0  0  0  0
   39.7820   28.7920   42.3360 N   0  0  0  0  0  0  0  0  0  0  0  0
   39.5500   27.7890   43.1940 C   0  0  0  0  0  0  0  0  0  0  0  0
   38.3020   27.5740   43.6680 N   0  0  0  0  0  0  0  0  0  0  0  0
   36.3060   28.1900   43.6610 H   0  0  0  0  0  0  0  0  0  0  0  0
   40.3300   27.1250   43.5370 H   0  0  0  0  0  0  0  0  0  0  0  0
   36.3980   30.3040   41.9720 N   0  0  0  0  0  0  0  0  0  0  0  0
   36.0180   30.5520   41.0460 H   0  0  0  0  0  0  0  0  0  0  0  0
   36.0040   30.6890   42.8600 H   0  0  0  0  0  0  0  0  0  0  0  0
   40.3870   31.4500   38.9500 C   0  0  0  0  0  0  0  0  0  0  0  0
   39.4030   31.6620   38.0010 C   0  0  0  0  0  0  0  0  0  0  0  0
   38.3730   31.3610   38.1200 H   0  0  0  0  0  0  0  0  0  0  0  0
   39.9940   32.2940   36.9590 N   0  0  0  0  0  0  0  0  0  0  0  0
   39.5130   32.5890   36.0850 H   0  0  0  0  0  0  0  0  0  0  0  0
   41.3210   32.4860   37.2200 C   0  0  0  0  0  0  0  0  0  0  0  0
   42.0660   32.9610   36.5900 H   0  0  0  0  0  0  0  0  0  0  0  0
   41.5250   31.9590   38.4450 N   0  0  0  0  0  0  0  0  0  0  0  0
  1  4  1  6  0  0  0
  1  2  1  0  0  0  0
  1 10  1  0  0  0  0
  2  6  1  0  0  0  0
  3  7  1  1  0  0  0
  3  1  1  0  0  0  0
  3  2  1  0  0  0  0
  5  2  1  0  0  0  0
  8 14  1  0  0  0  0
  8 13  1  0  0  0  0
  9  8  2  0  0  0  0
 10 11  2  0  0  0  0
 10  9  1  0  0  0  0
 11 12  1  0  0  0  0
 12 15  1  0  0  0  0
 12 13  2  0  0  0  0
 16  9  1  0  0  0  0
 16 18  1  0  0  0  0
 17 16  1  0  0  0  0
 19  3  1  0  0  0  0
 20 21  1  0  0  0  0
 20 19  2  0  0  0  0
 22 24  1  0  0  0  0
 22 20  1  0  0  0  0
 23 22  1  0  0  0  0
 24 26  2  0  0  0  0
 25 24  1  0  0  0  0
 26 19  1  0  0  0  0
M  END
>  <minimizedAffinity>
-4.43956709

$$$$

 OpenBabel03252509253D

 26 28  0  0  1  0  0  0  0  0999 V2000
   36.3620   28.5350   39.9820 C   0  0  1  0  0  0  0  0  0  0  0  0
   35.6420   27.7180   38.8780 C   0  0  0  0  0  0  0  0  0  0  0  0
   37.0050   27.3520   39.5410 C   0  0  2  0  0  0  0  0  0  0  0  0
   35.7720   28.6440   40.9060 H   0  0  0  0  0  0  0  0  0  0  0  0
   34.7670   27.1900   39.2460 H   0  0  0  0  0  0  0  0  0  0  0  0
   35.6710   28.0630   37.8470 H   0  0  0  0  0  0  0  0  0  0  0  0
   37.8500   27.3820   38.8250 H   0  0  0  0  0  0  0  0  0  0  0  0
   37.0300   32.1980   39.6030 C   0  0  0  0  0  0  0  0  0  0  0  0
   36.5100   30.9940   40.1450 C   0  0  0  0  0  0  0  0  0  0  0  0
   36.8210   29.8710   39.4230 C   0  0  0  0  0  0  0  0  0  0  0  0
   37.5750   29.9150   38.2660 N   0  0  0  0  0  0  0  0  0  0  0  0
   38.0410   31.0830   37.8020 C   0  0  0  0  0  0  0  0  0  0  0  0
   37.7740   32.2320   38.4640 N   0  0  0  0  0  0  0  0  0  0  0  0
   36.8340   33.1200   40.1040 H   0  0  0  0  0  0  0  0  0  0  0  0
   38.6340   31.1570   36.9030 H   0  0  0  0  0  0  0  0  0  0  0  0
   35.7220   30.9710   41.3180 N   0  0  0  0  0  0  0  0  0  0  0  0
   35.8270   30.4670   42.2110 H   0  0  0  0  0  0  0  0  0  0  0  0
   34.9210   31.6160   41.1310 H   0  0  0  0  0  0  0  0  0  0  0  0
   36.9560   26.1550   40.4550 C   0  0  0  0  0  0  0  0  0  0  0  0
   37.0830   26.0890   41.8310 C   0  0  0  0  0  0  0  0  0  0  0  0
   37.2450   26.9470   42.4650 H   0  0  0  0  0  0  0  0  0  0  0  0
   36.9650   24.7830   42.1720 N   0  0  0  0  0  0  0  0  0  0  0  0
   37.0170   24.4100   43.1420 H   0  0  0  0  0  0  0  0  0  0  0  0
   36.7670   24.0230   41.0550 C   0  0  0  0  0  0  0  0  0  0  0  0
   36.6360   22.9480   40.9910 H   0  0  0  0  0  0  0  0  0  0  0  0
   36.7670   24.8940   40.0250 N   0  0  0  0  0  0  0  0  0  0  0  0
  1  4  1  1  0  0  0
  2  5  1  0  0  0  0
  2  3  1  0  0  0  0
  2  1  1  0  0  0  0
  3  7  1  6  0  0  0
  3  1  1  0  0  0  0
  3 19  1  0  0  0  0
  6  2  1  0  0  0  0
  8 14  1  0  0  0  0
  8  9  1  0  0  0  0
  9 16  1  0  0  0  0
 10  1  1  0  0  0  0
 10  9  2  0  0  0  0
 11 10  1  0  0  0  0
 12 11  2  0  0  0  0
 12 13  1  0  0  0  0
 13  8  2  0  0  0  0
 15 12  1  0  0  0  0
 16 17  1  0  0  0  0
 18 16  1  0  0  0  0
 19 20  2  0  0  0  0
 20 22  1  0  0  0  0
 20 21  1  0  0  0  0
 22 23  1  0  0  0  0
 24 22  1  0  0  0  0
 25 24  1  0  0  0  0
 26 19  1  0  0  0  0
 26 24  2  0  0  0  0
M  END
>  <minimizedAffinity>
-4.3786273

$$$$

 OpenBabel03252509253D

 26 28  0  0  1  0  0  0  0  0999 V2000
   37.9020   27.9820   42.1860 C   0  0  1  0  0  0  0  0  0  0  0  0
   36.6260   27.5560   42.9570 C   0  0  0  0  0  0  0  0  0  0  0  0
   37.0910   26.9910   41.5810 C   0  0  2  0  0  0  0  0  0  0  0  0
   38.8350   27.8020   42.7450 H   0  0  0  0  0  0  0  0  0  0  0  0
   36.8430   26.9470   43.8300 H   0  0  0  0  0  0  0  0  0  0  0  0
   35.7540   28.2060   42.9550 H   0  0  0  0  0  0  0  0  0  0  0  0
   36.3900   27.2360   40.7590 H   0  0  0  0  0  0  0  0  0  0  0  0
   38.7340   31.4830   41.1570 C   0  0  0  0  0  0  0  0  0  0  0  0
   38.9170   30.1730   41.6690 C   0  0  0  0  0  0  0  0  0  0  0  0
   37.7710   29.4220   41.7200 C   0  0  0  0  0  0  0  0  0  0  0  0
   36.5450   29.9070   41.3080 N   0  0  0  0  0  0  0  0  0  0  0  0
   36.4320   31.1550   40.8320 C   0  0  0  0  0  0  0  0  0  0  0  0
   37.5220   31.9530   40.7520 N   0  0  0  0  0  0  0  0  0  0  0  0
   39.5760   32.1340   41.0830 H   0  0  0  0  0  0  0  0  0  0  0  0
   35.4910   31.5690   40.5010 H   0  0  0  0  0  0  0  0  0  0  0  0
   40.1770   29.7000   42.1050 N   0  0  0  0  0  0  0  0  0  0  0  0
   40.7400   28.8810   41.8310 H   0  0  0  0  0  0  0  0  0  0  0  0
   40.4940   30.3800   42.8310 H   0  0  0  0  0  0  0  0  0  0  0  0
   37.5880   25.5680   41.6240 C   0  0  0  0  0  0  0  0  0  0  0  0
   38.6990   25.0400   42.2570 C   0  0  0  0  0  0  0  0  0  0  0  0
   39.3970   25.6220   42.8390 H   0  0  0  0  0  0  0  0  0  0  0  0
   38.7040   23.7110   41.9930 N   0  0  0  0  0  0  0  0  0  0  0  0
   39.4190   23.0350   42.3310 H   0  0  0  0  0  0  0  0  0  0  0  0
   37.6320   23.3840   41.2130 C   0  0  0  0  0  0  0  0  0  0  0  0
   37.3540   22.4080   40.8310 H   0  0  0  0  0  0  0  0  0  0  0  0
   36.9720   24.5430   41.0070 N   0  0  0  0  0  0  0  0  0  0  0  0
  1  4  1  1  0  0  0
  1  2  1  0  0  0  0
  2  5  1  0  0  0  0
  3  7  1  6  0  0  0
  3 19  1  0  0  0  0
  3  1  1  0  0  0  0
  3  2  1  0  0  0  0
  6  2  1  0  0  0  0
  8  9  1  0  0  0  0
  9 10  2  0  0  0  0
  9 16  1  0  0  0  0
 10  1  1  0  0  0  0
 11 10  1  0  0  0  0
 12 11  2  0  0  0  0
 13 12  1  0  0  0  0
 13  8  2  0  0  0  0
 14  8  1  0  0  0  0
 15 12  1  0  0  0  0
 16 18  1  0  0  0  0
 17 16  1  0  0  0  0
 19 20  2  0  0  0  0
 20 21  1  0  0  0  0
 22 20  1  0  0  0  0
 22 23  1  0  0  0  0
 24 22  1  0  0  0  0
 25 24  1  0  0  0  0
 26 24  2  0  0  0  0
 26 19  1  0  0  0  0
M  END
>  <minimizedAffinity>
-4.29451799

$$$$

 OpenBabel03252509253D

 26 28  0  0  1  0  0  0  0  0999 V2000
   38.5200   27.8840   41.0770 C   0  0  1  0  0  0  0  0  0  0  0  0
   37.1830   27.6080   40.3420 C   0  0  0  0  0  0  0  0  0  0  0  0
   37.3840   28.6010   41.5270 C   0  0  2  0  0  0  0  0  0  0  0  0
   39.3120   28.2770   40.4190 H   0  0  0  0  0  0  0  0  0  0  0  0
   37.1510   28.0420   39.3470 H   0  0  0  0  0  0  0  0  0  0  0  0
   36.6330   26.6940   40.5510 H   0  0  0  0  0  0  0  0  0  0  0  0
   36.8280   28.2980   42.4370 H   0  0  0  0  0  0  0  0  0  0  0  0
   40.1960   25.6360   43.5540 C   0  0  0  0  0  0  0  0  0  0  0  0
   39.8880   26.8180   42.8340 C   0  0  0  0  0  0  0  0  0  0  0  0
   38.9580   26.6470   41.8420 C   0  0  0  0  0  0  0  0  0  0  0  0
   38.3760   25.4240   41.5700 N   0  0  0  0  0  0  0  0  0  0  0  0
   38.7070   24.3400   42.2850 C   0  0  0  0  0  0  0  0  0  0  0  0
   39.6170   24.4340   43.2810 N   0  0  0  0  0  0  0  0  0  0  0  0
   40.9120   25.6810   44.3450 H   0  0  0  0  0  0  0  0  0  0  0  0
   38.2740   23.3670   42.1020 H   0  0  0  0  0  0  0  0  0  0  0  0
   40.5090   28.0570   43.1130 N   0  0  0  0  0  0  0  0  0  0  0  0
   40.1260   28.9830   43.3580 H   0  0  0  0  0  0  0  0  0  0  0  0
   41.5350   27.8820   43.0250 H   0  0  0  0  0  0  0  0  0  0  0  0
   37.2870   30.0560   41.1480 C   0  0  0  0  0  0  0  0  0  0  0  0
   36.1670   30.8480   40.9610 C   0  0  0  0  0  0  0  0  0  0  0  0
   35.1530   30.4950   41.0720 H   0  0  0  0  0  0  0  0  0  0  0  0
   36.6130   32.0830   40.6300 N   0  0  0  0  0  0  0  0  0  0  0  0
   36.0070   32.9040   40.4250 H   0  0  0  0  0  0  0  0  0  0  0  0
   37.9780   32.0970   40.6010 C   0  0  0  0  0  0  0  0  0  0  0  0
   38.6350   32.9290   40.3720 H   0  0  0  0  0  0  0  0  0  0  0  0
   38.3560   30.8420   40.9220 N   0  0  0  0  0  0  0  0  0  0  0  0
  1  4  1  6  0  0  0
  1  3  1  0  0  0  0
  1 10  1  0  0  0  0
  2  6  1  0  0  0  0
  2  1  1  0  0  0  0
  2  3  1  0  0  0  0
  3  7  1  1  0  0  0
  5  2  1  0  0  0  0
  8 14  1  0  0  0  0
  9 16  1  0  0  0  0
  9  8  2  0  0  0  0
 10  9  1  0  0  0  0
 11 10  2  0  0  0  0
 11 12  1  0  0  0  0
 12 13  2  0  0  0  0
 13  8  1  0  0  0  0
 15 12  1  0  0  0  0
 16 17  1  0  0  0  0
 18 16  1  0  0  0  0
 19  3  1  0  0  0  0
 20 21  1  0  0  0  0
 20 19  2  0  0  0  0
 22 20  1  0  0  0  0
 23 22  1  0  0  0  0
 24 22  1  0  0  0  0
 24 26  2  0  0  0  0
 25 24  1  0  0  0  0
 26 19  1  0  0  0  0
M  END
>  <minimizedAffinity>
-4.27547264

$$$$

 OpenBabel03252509253D

 26 28  0  0  1  0  0  0  0  0999 V2000
   38.9410   32.3170   38.9460 C   0  0  1  0  0  0  0  0  0  0  0  0
   38.5850   31.3030   37.8270 C   0  0  0  0  0  0  0  0  0  0  0  0
   38.8270   30.9580   39.3280 C   0  0  2  0  0  0  0  0  0  0  0  0
   38.1760   33.0960   39.0940 H   0  0  0  0  0  0  0  0  0  0  0  0
   37.5490   31.3740   37.5080 H   0  0  0  0  0  0  0  0  0  0  0  0
   39.3490   30.9930   37.1200 H   0  0  0  0  0  0  0  0  0  0  0  0
   39.7210   30.3200   39.4820 H   0  0  0  0  0  0  0  0  0  0  0  0
   42.2090   34.0690   39.4480 C   0  0  0  0  0  0  0  0  0  0  0  0
   40.8910   33.6190   39.7180 C   0  0  0  0  0  0  0  0  0  0  0  0
   40.3230   32.8970   38.7010 C   0  0  0  0  0  0  0  0  0  0  0  0
   40.9830   32.6350   37.5160 N   0  0  0  0  0  0  0  0  0  0  0  0
   42.2300   33.0860   37.3170 C   0  0  0  0  0  0  0  0  0  0  0  0
   42.8530   33.8050   38.2790 N   0  0  0  0  0  0  0  0  0  0  0  0
   42.7250   34.6400   40.1890 H   0  0  0  0  0  0  0  0  0  0  0  0
   42.7770   32.9010   36.4050 H   0  0  0  0  0  0  0  0  0  0  0  0
   40.2230   33.9150   40.9290 N   0  0  0  0  0  0  0  0  0  0  0  0
   39.7900   33.3120   41.6440 H   0  0  0  0  0  0  0  0  0  0  0  0
   40.2330   34.9570   41.0070 H   0  0  0  0  0  0  0  0  0  0  0  0
   37.5880   30.5520   40.0850 C   0  0  0  0  0  0  0  0  0  0  0  0
   36.6700   31.3360   40.7610 C   0  0  0  0  0  0  0  0  0  0  0  0
   36.7310   32.4110   40.8340 H   0  0  0  0  0  0  0  0  0  0  0  0
   35.7390   30.4950   41.2730 N   0  0  0  0  0  0  0  0  0  0  0  0
   34.9140   30.7850   41.8360 H   0  0  0  0  0  0  0  0  0  0  0  0
   36.0420   29.2050   40.9420 C   0  0  0  0  0  0  0  0  0  0  0  0
   35.4970   28.3030   41.1980 H   0  0  0  0  0  0  0  0  0  0  0  0
   37.1770   29.2780   40.2170 N   0  0  0  0  0  0  0  0  0  0  0  0
  1  4  1  1  0  0  0
  1  3  1  0  0  0  0
  2  1  1  0  0  0  0
  2  3  1  0  0  0  0
  3  7  1  1  0  0  0
  3 19  1  0  0  0  0
  5  2  1  0  0  0  0
  6  2  1  0  0  0  0
  8  9  1  0  0  0  0
  8 14  1  0  0  0  0
  9 16  1  0  0  0  0
 10  1  1  0  0  0  0
 10  9  2  0  0  0  0
 11 10  1  0  0  0  0
 12 11  2  0  0  0  0
 12 13  1  0  0  0  0
 13  8  2  0  0  0  0
 15 12  1  0  0  0  0
 16 18  1  0  0  0  0
 16 17  1  0  0  0  0
 19 26  1  0  0  0  0
 19 20  2  0  0  0  0
 20 21  1  0  0  0  0
 20 22  1  0  0  0  0
 22 23  1  0  0  0  0
 24 25  1  0  0  0  0
 24 22  1  0  0  0  0
 26 24  2  0  0  0  0
M  END
>  <minimizedAffinity>
-4.25279951

$$$$

 OpenBabel03252509253D

 26 28  0  0  1  0  0  0  0  0999 V2000
   39.8890   31.4000   39.6170 C   0  0  1  0  0  0  0  0  0  0  0  0
   39.8690   31.2650   41.1620 C   0  0  0  0  0  0  0  0  0  0  0  0
   38.7570   31.9220   40.2900 C   0  0  2  0  0  0  0  0  0  0  0  0
   39.9380   30.4330   39.0910 H   0  0  0  0  0  0  0  0  0  0  0  0
   39.6860   30.2470   41.4940 H   0  0  0  0  0  0  0  0  0  0  0  0
   40.4800   31.9300   41.7680 H   0  0  0  0  0  0  0  0  0  0  0  0
   38.6460   33.0080   40.4850 H   0  0  0  0  0  0  0  0  0  0  0  0
   42.0040   33.7220   37.5830 C   0  0  0  0  0  0  0  0  0  0  0  0
   40.9880   32.7810   37.8910 C   0  0  0  0  0  0  0  0  0  0  0  0
   40.9940   32.3510   39.1930 C   0  0  0  0  0  0  0  0  0  0  0  0
   41.9150   32.7990   40.1210 N   0  0  0  0  0  0  0  0  0  0  0  0
   42.8530   33.6910   39.7710 C   0  0  0  0  0  0  0  0  0  0  0  0
   42.9070   34.1600   38.5030 N   0  0  0  0  0  0  0  0  0  0  0  0
   42.0700   34.1090   36.5900 H   0  0  0  0  0  0  0  0  0  0  0  0
   43.5890   34.0640   40.4680 H   0  0  0  0  0  0  0  0  0  0  0  0
   40.0670   32.3180   36.9240 N   0  0  0  0  0  0  0  0  0  0  0  0
   39.0360   32.3200   36.8950 H   0  0  0  0  0  0  0  0  0  0  0  0
   40.6480   31.9270   36.1490 H   0  0  0  0  0  0  0  0  0  0  0  0
   37.4760   31.1320   40.2090 C   0  0  0  0  0  0  0  0  0  0  0  0
   36.4380   31.0360   41.1180 C   0  0  0  0  0  0  0  0  0  0  0  0
   36.4150   31.5530   42.0660 H   0  0  0  0  0  0  0  0  0  0  0  0
   35.5190   30.2000   40.5770 N   0  0  0  0  0  0  0  0  0  0  0  0
   34.6210   29.9260   41.0240 H   0  0  0  0  0  0  0  0  0  0  0  0
   35.9460   29.7650   39.3550 C   0  0  0  0  0  0  0  0  0  0  0  0
   35.4410   29.0900   38.6710 H   0  0  0  0  0  0  0  0  0  0  0  0
   37.1440   30.3540   39.1620 N   0  0  0  0  0  0  0  0  0  0  0  0
  1  4  1  6  0  0  0
  1  3  1  0  0  0  0
  1  2  1  0  0  0  0
  2  5  1  0  0  0  0
  2  6  1  0  0  0  0
  3  7  1  1  0  0  0
  3  2  1  0  0  0  0
  8  9  2  0  0  0  0
  8 13  1  0  0  0  0
  9 10  1  0  0  0  0
 10  1  1  0  0  0  0
 10 11  2  0  0  0  0
 12 11  1  0  0  0  0
 12 15  1  0  0  0  0
 13 12  2  0  0  0  0
 14  8  1  0  0  0  0
 16  9  1  0  0  0  0
 17 16  1  0  0  0  0
 18 16  1  0  0  0  0
 19  3  1  0  0  0  0
 19 20  2  0  0  0  0
 20 21  1  0  0  0  0
 22 23  1  0  0  0  0
 22 20  1  0  0  0  0
 24 22  1  0  0  0  0
 25 24  1  0  0  0  0
 26 24  2  0  0  0  0
 26 19  1  0  0  0  0
M  END
>  <minimizedAffinity>
-4.21792364

$$$$
