
 OpenBabel03252503523D

 20 21  0  0  0  0  0  0  0  0999 V2000
   36.9410   28.8160   41.8840 C   0  0  0  0  0  0  0  0  0  0  0  0
   37.6000   30.0420   41.6670 C   0  0  0  0  0  0  0  0  0  0  0  0
   37.0540   30.9060   40.7160 C   0  0  0  0  0  0  0  0  0  0  0  0
   35.9370   30.5270   40.0620 N   0  0  0  0  0  0  0  0  0  0  0  0
   35.3270   29.3400   40.2940 C   0  0  0  0  0  0  0  0  0  0  0  0
   35.8220   28.4890   41.1950 N   0  0  0  0  0  0  0  0  0  0  0  0
   38.5080   30.2940   42.2320 H   0  0  0  0  0  0  0  0  0  0  0  0
   34.4390   29.1400   39.7130 H   0  0  0  0  0  0  0  0  0  0  0  0
   37.6870   32.1870   40.4460 C   0  0  0  0  0  0  0  0  0  0  0  0
   37.2490   33.1060   39.5260 C   0  0  0  0  0  0  0  0  0  0  0  0
   36.3860   33.0750   38.8430 H   0  0  0  0  0  0  0  0  0  0  0  0
   38.1060   34.1610   39.5780 N   0  0  0  0  0  0  0  0  0  0  0  0
   38.1030   35.0600   39.0250 H   0  0  0  0  0  0  0  0  0  0  0  0
   39.0550   33.8850   40.5190 C   0  0  0  0  0  0  0  0  0  0  0  0
   39.9080   34.4610   40.8620 H   0  0  0  0  0  0  0  0  0  0  0  0
   38.7800   32.6650   41.0440 N   0  0  0  0  0  0  0  0  0  0  0  0
   37.5440   27.8960   42.9110 C   0  0  0  0  0  0  0  0  0  0  0  0
   38.4890   28.5500   43.6790 F   0  0  0  0  0  0  0  0  0  0  0  0
   36.5250   27.3700   43.6760 F   0  0  0  0  0  0  0  0  0  0  0  0
   38.1340   26.8140   42.2590 F   0  0  0  0  0  0  0  0  0  0  0  0
  1 17  1  0  0  0  0
  2  1  1  0  0  0  0
  2  7  1  0  0  0  0
  3  2  2  0  0  0  0
  4  5  2  0  0  0  0
  4  3  1  0  0  0  0
  5  6  1  0  0  0  0
  6  1  2  0  0  0  0
  8  5  1  0  0  0  0
  9  3  1  0  0  0  0
  9 16  1  0  0  0  0
 10 12  1  0  0  0  0
 10  9  2  0  0  0  0
 11 10  1  0  0  0  0
 12 14  1  0  0  0  0
 13 12  1  0  0  0  0
 14 15  1  0  0  0  0
 14 16  2  0  0  0  0
 17 19  1  0  0  0  0
 17 18  1  0  0  0  0
 20 17  1  0  0  0  0
M  END
>  <minimizedAffinity>
-4.85772276

$$$$

 OpenBabel03252503523D

 20 21  0  0  0  0  0  0  0  0999 V2000
   38.0800   28.2290   42.3480 C   0  0  0  0  0  0  0  0  0  0  0  0
   37.6610   29.4300   41.7430 C   0  0  0  0  0  0  0  0  0  0  0  0
   38.6060   30.4510   41.6190 C   0  0  0  0  0  0  0  0  0  0  0  0
   39.8550   30.2370   42.0800 N   0  0  0  0  0  0  0  0  0  0  0  0
   40.2260   29.0690   42.6570 C   0  0  0  0  0  0  0  0  0  0  0  0
   39.3490   28.0720   42.7920 N   0  0  0  0  0  0  0  0  0  0  0  0
   36.6280   29.5440   41.3880 H   0  0  0  0  0  0  0  0  0  0  0  0
   41.2510   29.0070   42.9890 H   0  0  0  0  0  0  0  0  0  0  0  0
   38.2360   31.7160   41.0040 C   0  0  0  0  0  0  0  0  0  0  0  0
   37.0230   31.9860   40.4220 C   0  0  0  0  0  0  0  0  0  0  0  0
   36.1310   31.3510   40.3050 H   0  0  0  0  0  0  0  0  0  0  0  0
   37.0750   33.2680   39.9690 N   0  0  0  0  0  0  0  0  0  0  0  0
   36.3410   33.8360   39.4670 H   0  0  0  0  0  0  0  0  0  0  0  0
   38.3080   33.7690   40.2710 C   0  0  0  0  0  0  0  0  0  0  0  0
   38.7460   34.7440   40.0850 H   0  0  0  0  0  0  0  0  0  0  0  0
   39.0090   32.7990   40.9090 N   0  0  0  0  0  0  0  0  0  0  0  0
   37.0490   27.1390   42.4740 C   0  0  0  0  0  0  0  0  0  0  0  0
   36.1150   27.4410   43.4470 F   0  0  0  0  0  0  0  0  0  0  0  0
   36.4690   26.9440   41.2390 F   0  0  0  0  0  0  0  0  0  0  0  0
   37.6910   25.9430   42.7930 F   0  0  0  0  0  0  0  0  0  0  0  0
  1 17  1  0  0  0  0
  1  6  1  0  0  0  0
  2  1  2  0  0  0  0
  3  2  1  0  0  0  0
  3  4  2  0  0  0  0
  4  5  1  0  0  0  0
  5  6  2  0  0  0  0
  5  8  1  0  0  0  0
  7  2  1  0  0  0  0
  9  3  1  0  0  0  0
 10  9  2  0  0  0  0
 11 10  1  0  0  0  0
 12 14  1  0  0  0  0
 12 10  1  0  0  0  0
 13 12  1  0  0  0  0
 14 16  2  0  0  0  0
 15 14  1  0  0  0  0
 16  9  1  0  0  0  0
 17 20  1  0  0  0  0
 17 18  1  0  0  0  0
 19 17  1  0  0  0  0
M  END
>  <minimizedAffinity>
-4.73026657

$$$$

 OpenBabel03252503523D

 20 21  0  0  0  0  0  0  0  0999 V2000
   36.8740   27.0450   41.2900 C   0  0  0  0  0  0  0  0  0  0  0  0
   36.9410   28.4510   41.2250 C   0  0  0  0  0  0  0  0  0  0  0  0
   36.8620   29.0400   39.9610 C   0  0  0  0  0  0  0  0  0  0  0  0
   36.7280   28.2430   38.8820 N   0  0  0  0  0  0  0  0  0  0  0  0
   36.6670   26.8940   38.9790 C   0  0  0  0  0  0  0  0  0  0  0  0
   36.7400   26.2960   40.1700 N   0  0  0  0  0  0  0  0  0  0  0  0
   37.0500   29.0460   42.1410 H   0  0  0  0  0  0  0  0  0  0  0  0
   36.5590   26.3540   38.0500 H   0  0  0  0  0  0  0  0  0  0  0  0
   36.9240   30.4870   39.8260 C   0  0  0  0  0  0  0  0  0  0  0  0
   36.6830   31.3850   40.8350 C   0  0  0  0  0  0  0  0  0  0  0  0
   36.4100   31.2170   41.8890 H   0  0  0  0  0  0  0  0  0  0  0  0
   36.8430   32.6280   40.3080 N   0  0  0  0  0  0  0  0  0  0  0  0
   36.7430   33.5740   40.7670 H   0  0  0  0  0  0  0  0  0  0  0  0
   37.1760   32.4870   38.9930 C   0  0  0  0  0  0  0  0  0  0  0  0
   37.3870   33.2260   38.2260 H   0  0  0  0  0  0  0  0  0  0  0  0
   37.2220   31.1600   38.7140 N   0  0  0  0  0  0  0  0  0  0  0  0
   36.9620   26.4260   42.6590 C   0  0  0  0  0  0  0  0  0  0  0  0
   36.1560   27.0920   43.5640 F   0  0  0  0  0  0  0  0  0  0  0  0
   36.6350   25.0910   42.5550 F   0  0  0  0  0  0  0  0  0  0  0  0
   38.2880   26.4660   43.0900 F   0  0  0  0  0  0  0  0  0  0  0  0
  1 17  1  0  0  0  0
  2  1  1  0  0  0  0
  2  7  1  0  0  0  0
  3  2  2  0  0  0  0
  4  5  2  0  0  0  0
  4  3  1  0  0  0  0
  5  6  1  0  0  0  0
  6  1  2  0  0  0  0
  8  5  1  0  0  0  0
  9  3  1  0  0  0  0
  9 10  2  0  0  0  0
 10 11  1  0  0  0  0
 12 13  1  0  0  0  0
 12 10  1  0  0  0  0
 14 12  1  0  0  0  0
 15 14  1  0  0  0  0
 16 14  2  0  0  0  0
 16  9  1  0  0  0  0
 17 20  1  0  0  0  0
 17 18  1  0  0  0  0
 19 17  1  0  0  0  0
M  END
>  <minimizedAffinity>
-4.67035198

$$$$

 OpenBabel03252503523D

 20 21  0  0  0  0  0  0  0  0999 V2000
   37.2840   26.8040   41.5930 C   0  0  0  0  0  0  0  0  0  0  0  0
   37.2490   28.0790   40.9950 C   0  0  0  0  0  0  0  0  0  0  0  0
   37.4630   29.1830   41.8220 C   0  0  0  0  0  0  0  0  0  0  0  0
   37.6890   28.9750   43.1350 N   0  0  0  0  0  0  0  0  0  0  0  0
   37.7160   27.7350   43.6790 C   0  0  0  0  0  0  0  0  0  0  0  0
   37.5150   26.6570   42.9190 N   0  0  0  0  0  0  0  0  0  0  0  0
   37.0590   28.1840   39.9190 H   0  0  0  0  0  0  0  0  0  0  0  0
   37.9050   27.6860   44.7420 H   0  0  0  0  0  0  0  0  0  0  0  0
   37.4390   30.5270   41.2660 C   0  0  0  0  0  0  0  0  0  0  0  0
   36.3160   31.1790   40.8230 C   0  0  0  0  0  0  0  0  0  0  0  0
   35.2650   30.8500   40.7960 H   0  0  0  0  0  0  0  0  0  0  0  0
   36.7130   32.4020   40.3820 N   0  0  0  0  0  0  0  0  0  0  0  0
   36.1430   33.1890   39.9700 H   0  0  0  0  0  0  0  0  0  0  0  0
   38.0640   32.4920   40.5530 C   0  0  0  0  0  0  0  0  0  0  0  0
   38.7600   33.2940   40.3310 H   0  0  0  0  0  0  0  0  0  0  0  0
   38.4930   31.3270   41.1000 N   0  0  0  0  0  0  0  0  0  0  0  0
   37.0510   25.6250   40.6870 C   0  0  0  0  0  0  0  0  0  0  0  0
   38.2280   25.2030   40.0980 F   0  0  0  0  0  0  0  0  0  0  0  0
   36.4480   24.6250   41.4210 F   0  0  0  0  0  0  0  0  0  0  0  0
   36.1330   25.9870   39.7010 F   0  0  0  0  0  0  0  0  0  0  0  0
  1  6  1  0  0  0  0
  2  1  2  0  0  0  0
  2  3  1  0  0  0  0
  3  4  2  0  0  0  0
  4  5  1  0  0  0  0
  5  8  1  0  0  0  0
  6  5  2  0  0  0  0
  7  2  1  0  0  0  0
  9  3  1  0  0  0  0
 10  9  2  0  0  0  0
 11 10  1  0  0  0  0
 12 14  1  0  0  0  0
 12 10  1  0  0  0  0
 13 12  1  0  0  0  0
 14 16  2  0  0  0  0
 15 14  1  0  0  0  0
 16  9  1  0  0  0  0
 17 19  1  0  0  0  0
 17  1  1  0  0  0  0
 18 17  1  0  0  0  0
 20 17  1  0  0  0  0
M  END
>  <minimizedAffinity>
-4.61031532

$$$$

 OpenBabel03252503523D

 20 21  0  0  0  0  0  0  0  0999 V2000
   37.9700   26.2440   42.2130 C   0  0  0  0  0  0  0  0  0  0  0  0
   37.4220   27.4170   41.6590 C   0  0  0  0  0  0  0  0  0  0  0  0
   38.0120   28.6320   42.0120 C   0  0  0  0  0  0  0  0  0  0  0  0
   39.0640   28.6190   42.8570 N   0  0  0  0  0  0  0  0  0  0  0  0
   39.5670   27.4730   43.3720 C   0  0  0  0  0  0  0  0  0  0  0  0
   39.0270   26.2930   43.0570 N   0  0  0  0  0  0  0  0  0  0  0  0
   36.5640   27.3620   40.9760 H   0  0  0  0  0  0  0  0  0  0  0  0
   40.4110   27.5800   44.0380 H   0  0  0  0  0  0  0  0  0  0  0  0
   37.4930   29.8790   41.4740 C   0  0  0  0  0  0  0  0  0  0  0  0
   36.1650   30.1650   41.2840 C   0  0  0  0  0  0  0  0  0  0  0  0
   35.2690   29.5570   41.4850 H   0  0  0  0  0  0  0  0  0  0  0  0
   36.0970   31.4210   40.7680 N   0  0  0  0  0  0  0  0  0  0  0  0
   35.2540   31.9910   40.4880 H   0  0  0  0  0  0  0  0  0  0  0  0
   37.3720   31.8920   40.6430 C   0  0  0  0  0  0  0  0  0  0  0  0
   37.7490   32.8410   40.2760 H   0  0  0  0  0  0  0  0  0  0  0  0
   38.2180   30.9280   41.0840 N   0  0  0  0  0  0  0  0  0  0  0  0
   37.3210   24.9430   41.8210 C   0  0  0  0  0  0  0  0  0  0  0  0
   38.2450   23.9160   41.7700 F   0  0  0  0  0  0  0  0  0  0  0  0
   36.3000   24.6810   42.7100 F   0  0  0  0  0  0  0  0  0  0  0  0
   36.7170   25.0960   40.5740 F   0  0  0  0  0  0  0  0  0  0  0  0
  1  6  1  0  0  0  0
  2  3  1  0  0  0  0
  2  1  2  0  0  0  0
  3  4  2  0  0  0  0
  4  5  1  0  0  0  0
  5  8  1  0  0  0  0
  6  5  2  0  0  0  0
  7  2  1  0  0  0  0
  9  3  1  0  0  0  0
 10  9  2  0  0  0  0
 10 11  1  0  0  0  0
 12 10  1  0  0  0  0
 13 12  1  0  0  0  0
 14 12  1  0  0  0  0
 14 16  2  0  0  0  0
 15 14  1  0  0  0  0
 16  9  1  0  0  0  0
 17  1  1  0  0  0  0
 17 19  1  0  0  0  0
 18 17  1  0  0  0  0
 20 17  1  0  0  0  0
M  END
>  <minimizedAffinity>
-4.59965658

$$$$

 OpenBabel03252503523D

 20 21  0  0  0  0  0  0  0  0999 V2000
   36.6920   28.9560   41.5050 C   0  0  0  0  0  0  0  0  0  0  0  0
   36.7410   27.5970   41.1360 C   0  0  0  0  0  0  0  0  0  0  0  0
   37.5020   26.7410   41.9340 C   0  0  0  0  0  0  0  0  0  0  0  0
   38.1450   27.2530   43.0030 N   0  0  0  0  0  0  0  0  0  0  0  0
   38.0780   28.5650   43.3310 C   0  0  0  0  0  0  0  0  0  0  0  0
   37.3590   29.4130   42.5910 N   0  0  0  0  0  0  0  0  0  0  0  0
   36.1950   27.2400   40.2530 H   0  0  0  0  0  0  0  0  0  0  0  0
   38.6320   28.8660   44.2080 H   0  0  0  0  0  0  0  0  0  0  0  0
   37.5930   25.3270   41.6060 C   0  0  0  0  0  0  0  0  0  0  0  0
   38.4570   24.4350   42.1900 C   0  0  0  0  0  0  0  0  0  0  0  0
   39.2140   24.5850   42.9760 H   0  0  0  0  0  0  0  0  0  0  0  0
   38.2300   23.2250   41.6120 N   0  0  0  0  0  0  0  0  0  0  0  0
   38.6940   22.2940   41.7920 H   0  0  0  0  0  0  0  0  0  0  0  0
   37.2400   23.3810   40.6870 C   0  0  0  0  0  0  0  0  0  0  0  0
   36.7700   22.6670   40.0180 H   0  0  0  0  0  0  0  0  0  0  0  0
   36.8590   24.6830   40.6980 N   0  0  0  0  0  0  0  0  0  0  0  0
   35.8660   29.8640   40.6340 C   0  0  0  0  0  0  0  0  0  0  0  0
   34.5900   29.3650   40.4530 F   0  0  0  0  0  0  0  0  0  0  0  0
   35.8570   31.1210   41.2020 F   0  0  0  0  0  0  0  0  0  0  0  0
   36.4980   30.0030   39.3990 F   0  0  0  0  0  0  0  0  0  0  0  0
  1  6  1  0  0  0  0
  2  1  2  0  0  0  0
  2  3  1  0  0  0  0
  3  4  2  0  0  0  0
  4  5  1  0  0  0  0
  5  8  1  0  0  0  0
  6  5  2  0  0  0  0
  7  2  1  0  0  0  0
  9  3  1  0  0  0  0
  9 10  2  0  0  0  0
 10 11  1  0  0  0  0
 12 13  1  0  0  0  0
 12 10  1  0  0  0  0
 14 16  2  0  0  0  0
 14 12  1  0  0  0  0
 15 14  1  0  0  0  0
 16  9  1  0  0  0  0
 17 19  1  0  0  0  0
 17  1  1  0  0  0  0
 18 17  1  0  0  0  0
 20 17  1  0  0  0  0
M  END
>  <minimizedAffinity>
-4.54742241

$$$$

 OpenBabel03252503523D

 20 21  0  0  0  0  0  0  0  0999 V2000
   37.4310   29.3660   41.2560 C   0  0  0  0  0  0  0  0  0  0  0  0
   37.8660   29.9420   40.0460 C   0  0  0  0  0  0  0  0  0  0  0  0
   38.9930   30.7650   40.0950 C   0  0  0  0  0  0  0  0  0  0  0  0
   39.5980   30.9650   41.2830 N   0  0  0  0  0  0  0  0  0  0  0  0
   39.1540   30.3950   42.4290 C   0  0  0  0  0  0  0  0  0  0  0  0
   38.0800   29.6030   42.4200 N   0  0  0  0  0  0  0  0  0  0  0  0
   37.3290   29.7410   39.1090 H   0  0  0  0  0  0  0  0  0  0  0  0
   39.7160   30.6240   43.3220 H   0  0  0  0  0  0  0  0  0  0  0  0
   39.4920   31.3900   38.8800 C   0  0  0  0  0  0  0  0  0  0  0  0
   38.7490   31.6300   37.7520 C   0  0  0  0  0  0  0  0  0  0  0  0
   37.6890   31.4170   37.5380 H   0  0  0  0  0  0  0  0  0  0  0  0
   39.5740   32.2230   36.8490 N   0  0  0  0  0  0  0  0  0  0  0  0
   39.3730   32.5570   35.8680 H   0  0  0  0  0  0  0  0  0  0  0  0
   40.8070   32.3410   37.4220 C   0  0  0  0  0  0  0  0  0  0  0  0
   41.7350   32.7550   37.0410 H   0  0  0  0  0  0  0  0  0  0  0  0
   40.7370   31.8230   38.6740 N   0  0  0  0  0  0  0  0  0  0  0  0
   36.2150   28.4810   41.1850 C   0  0  0  0  0  0  0  0  0  0  0  0
   36.3370   27.5370   40.1830 F   0  0  0  0  0  0  0  0  0  0  0  0
   36.0240   27.9050   42.4230 F   0  0  0  0  0  0  0  0  0  0  0  0
   35.0920   29.2740   40.9510 F   0  0  0  0  0  0  0  0  0  0  0  0
  1  6  1  0  0  0  0
  2  3  1  0  0  0  0
  2  1  2  0  0  0  0
  3  4  2  0  0  0  0
  4  5  1  0  0  0  0
  5  8  1  0  0  0  0
  6  5  2  0  0  0  0
  7  2  1  0  0  0  0
  9  3  1  0  0  0  0
 10  9  2  0  0  0  0
 11 10  1  0  0  0  0
 12 14  1  0  0  0  0
 12 10  1  0  0  0  0
 13 12  1  0  0  0  0
 14 16  2  0  0  0  0
 15 14  1  0  0  0  0
 16  9  1  0  0  0  0
 17  1  1  0  0  0  0
 17 19  1  0  0  0  0
 18 17  1  0  0  0  0
 20 17  1  0  0  0  0
M  END
>  <minimizedAffinity>
-4.44258165

$$$$

 OpenBabel03252503523D

 20 21  0  0  0  0  0  0  0  0999 V2000
   37.2590   26.7860   41.9820 C   0  0  0  0  0  0  0  0  0  0  0  0
   37.1170   27.7860   41.0000 C   0  0  0  0  0  0  0  0  0  0  0  0
   37.2480   29.1140   41.4110 C   0  0  0  0  0  0  0  0  0  0  0  0
   37.4990   29.3680   42.7110 N   0  0  0  0  0  0  0  0  0  0  0  0
   37.6290   28.3820   43.6310 C   0  0  0  0  0  0  0  0  0  0  0  0
   37.5100   27.1020   43.2740 N   0  0  0  0  0  0  0  0  0  0  0  0
   36.9130   27.5160   39.9550 H   0  0  0  0  0  0  0  0  0  0  0  0
   37.8290   28.7000   44.6440 H   0  0  0  0  0  0  0  0  0  0  0  0
   37.1130   30.1930   40.4450 C   0  0  0  0  0  0  0  0  0  0  0  0
   36.7900   31.4910   40.7510 C   0  0  0  0  0  0  0  0  0  0  0  0
   36.5800   31.9630   41.7240 H   0  0  0  0  0  0  0  0  0  0  0  0
   36.7650   32.1820   39.5800 N   0  0  0  0  0  0  0  0  0  0  0  0
   36.5580   33.2020   39.4030 H   0  0  0  0  0  0  0  0  0  0  0  0
   37.0680   31.3120   38.5730 C   0  0  0  0  0  0  0  0  0  0  0  0
   37.1520   31.4630   37.5020 H   0  0  0  0  0  0  0  0  0  0  0  0
   37.2800   30.0920   39.1260 N   0  0  0  0  0  0  0  0  0  0  0  0
   37.1140   25.3600   41.5210 C   0  0  0  0  0  0  0  0  0  0  0  0
   36.4150   25.2840   40.3310 F   0  0  0  0  0  0  0  0  0  0  0  0
   38.3730   24.8060   41.4210 F   0  0  0  0  0  0  0  0  0  0  0  0
   36.4480   24.6320   42.5070 F   0  0  0  0  0  0  0  0  0  0  0  0
  1  6  1  0  0  0  0
  2  3  1  0  0  0  0
  2  1  2  0  0  0  0
  3  4  2  0  0  0  0
  4  5  1  0  0  0  0
  5  8  1  0  0  0  0
  6  5  2  0  0  0  0
  7  2  1  0  0  0  0
  9 10  2  0  0  0  0
  9  3  1  0  0  0  0
 10 11  1  0  0  0  0
 12 10  1  0  0  0  0
 13 12  1  0  0  0  0
 14 16  2  0  0  0  0
 14 12  1  0  0  0  0
 15 14  1  0  0  0  0
 16  9  1  0  0  0  0
 17  1  1  0  0  0  0
 17 20  1  0  0  0  0
 18 17  1  0  0  0  0
 19 17  1  0  0  0  0
M  END
>  <minimizedAffinity>
-4.42882347

$$$$

 OpenBabel03252503523D

 20 21  0  0  0  0  0  0  0  0999 V2000
   36.7640   28.9850   41.2090 C   0  0  0  0  0  0  0  0  0  0  0  0
   37.1210   27.6300   41.3490 C   0  0  0  0  0  0  0  0  0  0  0  0
   38.0920   27.3160   42.3010 C   0  0  0  0  0  0  0  0  0  0  0  0
   38.6330   28.3140   43.0290 N   0  0  0  0  0  0  0  0  0  0  0  0
   38.2670   29.6090   42.8700 C   0  0  0  0  0  0  0  0  0  0  0  0
   37.3420   29.9460   41.9680 N   0  0  0  0  0  0  0  0  0  0  0  0
   36.6440   26.8620   40.7260 H   0  0  0  0  0  0  0  0  0  0  0  0
   38.7650   30.3260   43.5060 H   0  0  0  0  0  0  0  0  0  0  0  0
   38.5050   25.9350   42.4940 C   0  0  0  0  0  0  0  0  0  0  0  0
   37.7840   24.8340   42.1050 C   0  0  0  0  0  0  0  0  0  0  0  0
   36.8090   24.7630   41.5980 H   0  0  0  0  0  0  0  0  0  0  0  0
   38.5070   23.7380   42.4620 N   0  0  0  0  0  0  0  0  0  0  0  0
   38.2870   22.7140   42.3330 H   0  0  0  0  0  0  0  0  0  0  0  0
   39.6530   24.1700   43.0630 C   0  0  0  0  0  0  0  0  0  0  0  0
   40.4870   23.6190   43.4870 H   0  0  0  0  0  0  0  0  0  0  0  0
   39.6340   25.5260   43.0740 N   0  0  0  0  0  0  0  0  0  0  0  0
   35.7160   29.3060   40.1780 C   0  0  0  0  0  0  0  0  0  0  0  0
   35.7420   30.6450   39.8320 F   0  0  0  0  0  0  0  0  0  0  0  0
   35.9100   28.4840   39.0880 F   0  0  0  0  0  0  0  0  0  0  0  0
   34.4610   28.9770   40.6900 F   0  0  0  0  0  0  0  0  0  0  0  0
  1  2  2  0  0  0  0
  1  6  1  0  0  0  0
  2  3  1  0  0  0  0
  3  9  1  0  0  0  0
  3  4  2  0  0  0  0
  5  4  1  0  0  0  0
  5  8  1  0  0  0  0
  6  5  2  0  0  0  0
  7  2  1  0  0  0  0
  9 16  1  0  0  0  0
 10 12  1  0  0  0  0
 10  9  2  0  0  0  0
 11 10  1  0  0  0  0
 12 14  1  0  0  0  0
 13 12  1  0  0  0  0
 14 16  2  0  0  0  0
 14 15  1  0  0  0  0
 17 20  1  0  0  0  0
 17  1  1  0  0  0  0
 18 17  1  0  0  0  0
 19 17  1  0  0  0  0
M  END
>  <minimizedAffinity>
-4.37519503

$$$$
