
 OpenBabel03252509223D

 26 28  0  0  1  0  0  0  0  0999 V2000
   46.5290   35.0200   41.9640 C   0  0  1  0  0  0  0  0  0  0  0  0
   48.0550   35.2940   41.9480 C   0  0  0  0  0  0  0  0  0  0  0  0
   47.3490   34.0320   41.3660 C   0  0  2  0  0  0  0  0  0  0  0  0
   45.9380   35.7810   41.4290 H   0  0  0  0  0  0  0  0  0  0  0  0
   48.3380   36.0630   41.2350 H   0  0  0  0  0  0  0  0  0  0  0  0
   48.6350   35.1600   42.8570 H   0  0  0  0  0  0  0  0  0  0  0  0
   47.6250   33.1020   41.9020 H   0  0  0  0  0  0  0  0  0  0  0  0
   44.6610   35.3870   45.1860 C   0  0  0  0  0  0  0  0  0  0  0  0
   45.1110   35.6830   43.8740 C   0  0  0  0  0  0  0  0  0  0  0  0
   46.0540   34.8120   43.3920 C   0  0  0  0  0  0  0  0  0  0  0  0
   46.5220   33.7410   44.1280 N   0  0  0  0  0  0  0  0  0  0  0  0
   46.0590   33.5100   45.3640 C   0  0  0  0  0  0  0  0  0  0  0  0
   45.1260   34.3280   45.9040 N   0  0  0  0  0  0  0  0  0  0  0  0
   43.9250   36.0160   45.6370 H   0  0  0  0  0  0  0  0  0  0  0  0
   46.4010   32.6840   45.9700 H   0  0  0  0  0  0  0  0  0  0  0  0
   44.6350   36.7960   43.1430 N   0  0  0  0  0  0  0  0  0  0  0  0
   44.1870   36.8750   42.2180 H   0  0  0  0  0  0  0  0  0  0  0  0
   44.8230   37.6280   43.7460 H   0  0  0  0  0  0  0  0  0  0  0  0
   47.3510   33.9520   39.8600 C   0  0  0  0  0  0  0  0  0  0  0  0
   46.4160   33.3980   39.0050 C   0  0  0  0  0  0  0  0  0  0  0  0
   45.5040   32.9220   39.3320 H   0  0  0  0  0  0  0  0  0  0  0  0
   46.8800   33.5820   37.7460 N   0  0  0  0  0  0  0  0  0  0  0  0
   46.3980   33.2750   36.8760 H   0  0  0  0  0  0  0  0  0  0  0  0
   48.0790   34.2350   37.7800 C   0  0  0  0  0  0  0  0  0  0  0  0
   48.7050   34.5300   36.9450 H   0  0  0  0  0  0  0  0  0  0  0  0
   48.3360   34.4450   39.0870 N   0  0  0  0  0  0  0  0  0  0  0  0
  1  4  1  6  0  0  0
  1 10  1  0  0  0  0
  2  1  1  0  0  0  0
  2  6  1  0  0  0  0
  3  7  1  1  0  0  0
  3  2  1  0  0  0  0
  3  1  1  0  0  0  0
  5  2  1  0  0  0  0
  8 14  1  0  0  0  0
  8 13  1  0  0  0  0
  9  8  2  0  0  0  0
 10  9  1  0  0  0  0
 10 11  2  0  0  0  0
 11 12  1  0  0  0  0
 12 13  2  0  0  0  0
 12 15  1  0  0  0  0
 16 18  1  0  0  0  0
 16  9  1  0  0  0  0
 17 16  1  0  0  0  0
 19  3  1  0  0  0  0
 20 21  1  0  0  0  0
 20 19  2  0  0  0  0
 22 24  1  0  0  0  0
 22 20  1  0  0  0  0
 23 22  1  0  0  0  0
 24 26  2  0  0  0  0
 25 24  1  0  0  0  0
 26 19  1  0  0  0  0
M  END
>  <minimizedAffinity>
-5.06579161

>  <minimizedRMSD>
0.134560555

$$$$
