
 OpenBabel03242518203D

 29 31  0  0  0  0  0  0  0  0999 V2000
   38.5790   28.7580   42.7080 C   0  0  0  0  0  0  0  0  0  0  0  0
   37.5600   28.6400   43.6230 C   0  0  0  0  0  0  0  0  0  0  0  0
   37.0350   27.3550   43.4550 C   0  0  0  0  0  0  0  0  0  0  0  0
   37.7790   26.7800   42.4420 C   0  0  0  0  0  0  0  0  0  0  0  0
   38.6520   27.6390   42.0520 O   0  0  0  0  0  0  0  0  0  0  0  0
   37.1900   29.3640   44.3560 H   0  0  0  0  0  0  0  0  0  0  0  0
   36.2090   26.8890   44.0050 H   0  0  0  0  0  0  0  0  0  0  0  0
   37.6410   25.4410   41.8760 C   0  0  0  0  0  0  0  0  0  0  0  0
   38.3870   24.3550   42.2760 C   0  0  0  0  0  0  0  0  0  0  0  0
   39.1600   24.3200   43.0380 H   0  0  0  0  0  0  0  0  0  0  0  0
   37.9990   23.2910   41.5490 N   0  0  0  0  0  0  0  0  0  0  0  0
   38.4120   22.3240   41.6520 H   0  0  0  0  0  0  0  0  0  0  0  0
   37.0170   23.6740   40.6890 C   0  0  0  0  0  0  0  0  0  0  0  0
   36.5250   23.0150   39.9870 H   0  0  0  0  0  0  0  0  0  0  0  0
   36.8180   24.9940   40.9120 N   0  0  0  0  0  0  0  0  0  0  0  0
   39.4260   30.0020   42.5450 C   0  0  0  0  0  0  0  0  0  0  0  0
   39.6220   30.4720   43.5210 H   0  0  0  0  0  0  0  0  0  0  0  0
   40.4130   29.7130   42.0810 H   0  0  0  0  0  0  0  0  0  0  0  0
   38.7680   33.0820   40.6800 C   0  0  0  0  0  0  0  0  0  0  0  0
   37.5370   32.8420   40.0480 C   0  0  0  0  0  0  0  0  0  0  0  0
   36.9450   31.6180   40.2720 C   0  0  0  0  0  0  0  0  0  0  0  0
   37.5610   30.7200   41.0730 N   0  0  0  0  0  0  0  0  0  0  0  0
   38.7470   30.9830   41.6660 C   0  0  0  0  0  0  0  0  0  0  0  0
   39.3590   32.1860   41.4640 N   0  0  0  0  0  0  0  0  0  0  0  0
   39.3030   34.0280   40.5530 H   0  0  0  0  0  0  0  0  0  0  0  0
   35.9960   31.4350   39.7840 H   0  0  0  0  0  0  0  0  0  0  0  0
   37.0340   33.8790   39.2480 N   0  0  0  0  0  0  0  0  0  0  0  0
   36.0680   34.0380   39.6330 H   0  0  0  0  0  0  0  0  0  0  0  0
   37.6790   34.2500   38.4930 H   0  0  0  0  0  0  0  0  0  0  0  0
  1  2  2  0  0  0  0
  2  6  1  0  0  0  0
  3  2  1  0  0  0  0
  3  7  1  0  0  0  0
  4  3  2  0  0  0  0
  5  4  1  0  0  0  0
  5  1  1  0  0  0  0
  8  9  2  0  0  0  0
  8  4  1  0  0  0  0
  9 10  1  0  0  0  0
 11 12  1  0  0  0  0
 11  9  1  0  0  0  0
 13 15  2  0  0  0  0
 13 11  1  0  0  0  0
 14 13  1  0  0  0  0
 15  8  1  0  0  0  0
 16  1  1  0  0  0  0
 16 17  1  0  0  0  0
 18 16  1  0  0  0  0
 19 24  1  0  0  0  0
 20 21  1  0  0  0  0
 20 19  2  0  0  0  0
 21 22  2  0  0  0  0
 22 23  1  0  0  0  0
 23 16  1  0  0  0  0
 24 23  2  0  0  0  0
 25 19  1  0  0  0  0
 26 21  1  0  0  0  0
 27 28  1  0  0  0  0
 27 20  1  0  0  0  0
 29 27  1  0  0  0  0
M  END
>  <minimizedAffinity>
-5.58037615

$$$$

 OpenBabel03242518203D

 29 31  0  0  0  0  0  0  0  0999 V2000
   37.0250   29.2290   41.8110 C   0  0  0  0  0  0  0  0  0  0  0  0
   37.6920   29.1660   43.0120 C   0  0  0  0  0  0  0  0  0  0  0  0
   38.0130   27.8190   43.2070 C   0  0  0  0  0  0  0  0  0  0  0  0
   37.5140   27.1550   42.1020 C   0  0  0  0  0  0  0  0  0  0  0  0
   36.9550   28.0230   41.3340 O   0  0  0  0  0  0  0  0  0  0  0  0
   37.9480   29.9670   43.7130 H   0  0  0  0  0  0  0  0  0  0  0  0
   38.5480   27.3710   44.0530 H   0  0  0  0  0  0  0  0  0  0  0  0
   37.5810   25.7270   41.8080 C   0  0  0  0  0  0  0  0  0  0  0  0
   38.4720   24.8600   42.4000 C   0  0  0  0  0  0  0  0  0  0  0  0
   39.2300   25.0860   43.1440 H   0  0  0  0  0  0  0  0  0  0  0  0
   38.2540   23.6300   41.8980 N   0  0  0  0  0  0  0  0  0  0  0  0
   38.8020   22.7720   42.1810 H   0  0  0  0  0  0  0  0  0  0  0  0
   37.2390   23.6920   40.9940 C   0  0  0  0  0  0  0  0  0  0  0  0
   36.8590   22.8450   40.4390 H   0  0  0  0  0  0  0  0  0  0  0  0
   36.8470   24.9870   40.9600 N   0  0  0  0  0  0  0  0  0  0  0  0
   36.4910   30.5110   41.2100 C   0  0  0  0  0  0  0  0  0  0  0  0
   35.4670   30.3680   40.8310 H   0  0  0  0  0  0  0  0  0  0  0  0
   36.4690   31.3070   42.0090 H   0  0  0  0  0  0  0  0  0  0  0  0
   37.5500   31.4960   37.8470 C   0  0  0  0  0  0  0  0  0  0  0  0
   38.9120   31.8050   37.9950 C   0  0  0  0  0  0  0  0  0  0  0  0
   39.4520   31.6700   39.2560 C   0  0  0  0  0  0  0  0  0  0  0  0
   38.6650   31.2540   40.2740 N   0  0  0  0  0  0  0  0  0  0  0  0
   37.3570   30.9660   40.0970 C   0  0  0  0  0  0  0  0  0  0  0  0
   36.7920   31.0900   38.8610 N   0  0  0  0  0  0  0  0  0  0  0  0
   37.0450   31.5770   36.8810 H   0  0  0  0  0  0  0  0  0  0  0  0
   40.5020   31.9080   39.3670 H   0  0  0  0  0  0  0  0  0  0  0  0
   39.5860   32.2210   36.8380 N   0  0  0  0  0  0  0  0  0  0  0  0
   40.4070   31.5670   36.7840 H   0  0  0  0  0  0  0  0  0  0  0  0
   39.1610   33.0370   36.3100 H   0  0  0  0  0  0  0  0  0  0  0  0
  1  2  2  0  0  0  0
  2  3  1  0  0  0  0
  2  6  1  0  0  0  0
  3  7  1  0  0  0  0
  4  3  2  0  0  0  0
  5  1  1  0  0  0  0
  5  4  1  0  0  0  0
  8  4  1  0  0  0  0
  8  9  2  0  0  0  0
  9 10  1  0  0  0  0
 11 12  1  0  0  0  0
 11  9  1  0  0  0  0
 13 11  1  0  0  0  0
 14 13  1  0  0  0  0
 15 13  2  0  0  0  0
 15  8  1  0  0  0  0
 16  1  1  0  0  0  0
 16 18  1  0  0  0  0
 17 16  1  0  0  0  0
 19 20  2  0  0  0  0
 19 24  1  0  0  0  0
 20 21  1  0  0  0  0
 21 26  1  0  0  0  0
 21 22  2  0  0  0  0
 23 22  1  0  0  0  0
 23 16  1  0  0  0  0
 24 23  2  0  0  0  0
 25 19  1  0  0  0  0
 27 20  1  0  0  0  0
 28 27  1  0  0  0  0
 29 27  1  0  0  0  0
M  END
>  <minimizedAffinity>
-5.34018612

$$$$

 OpenBabel03242518203D

 29 31  0  0  0  0  0  0  0  0999 V2000
   36.6110   28.8290   41.8760 C   0  0  0  0  0  0  0  0  0  0  0  0
   35.8790   28.7700   40.7140 C   0  0  0  0  0  0  0  0  0  0  0  0
   36.1820   29.9370   40.0050 C   0  0  0  0  0  0  0  0  0  0  0  0
   37.0830   30.6260   40.7950 C   0  0  0  0  0  0  0  0  0  0  0  0
   37.2900   29.9360   41.8600 O   0  0  0  0  0  0  0  0  0  0  0  0
   35.1880   27.9980   40.3600 H   0  0  0  0  0  0  0  0  0  0  0  0
   35.7940   30.2510   39.0290 H   0  0  0  0  0  0  0  0  0  0  0  0
   37.7180   31.9120   40.5190 C   0  0  0  0  0  0  0  0  0  0  0  0
   37.2750   32.7990   39.5640 C   0  0  0  0  0  0  0  0  0  0  0  0
   36.4260   32.6930   38.8950 H   0  0  0  0  0  0  0  0  0  0  0  0
   38.0890   33.8720   39.5810 N   0  0  0  0  0  0  0  0  0  0  0  0
   37.9760   34.7080   38.9440 H   0  0  0  0  0  0  0  0  0  0  0  0
   39.0460   33.6880   40.5300 C   0  0  0  0  0  0  0  0  0  0  0  0
   39.8310   34.3970   40.7550 H   0  0  0  0  0  0  0  0  0  0  0  0
   38.7940   32.4810   41.0870 N   0  0  0  0  0  0  0  0  0  0  0  0
   36.5830   27.7570   42.9450 C   0  0  0  0  0  0  0  0  0  0  0  0
   36.4800   28.2060   43.9450 H   0  0  0  0  0  0  0  0  0  0  0  0
   35.6970   27.0830   42.7620 H   0  0  0  0  0  0  0  0  0  0  0  0
   39.9960   26.6440   43.6600 C   0  0  0  0  0  0  0  0  0  0  0  0
   40.1490   25.4900   42.8760 C   0  0  0  0  0  0  0  0  0  0  0  0
   39.0720   25.1060   42.1070 C   0  0  0  0  0  0  0  0  0  0  0  0
   37.9380   25.8410   42.1390 N   0  0  0  0  0  0  0  0  0  0  0  0
   37.8240   26.9480   42.9060 C   0  0  0  0  0  0  0  0  0  0  0  0
   38.8720   27.3540   43.6790 N   0  0  0  0  0  0  0  0  0  0  0  0
   40.8020   27.0160   44.2980 H   0  0  0  0  0  0  0  0  0  0  0  0
   39.1930   24.2150   41.5030 H   0  0  0  0  0  0  0  0  0  0  0  0
   41.3900   24.8410   42.9560 N   0  0  0  0  0  0  0  0  0  0  0  0
   41.6990   24.7770   41.9530 H   0  0  0  0  0  0  0  0  0  0  0  0
   41.7250   24.5780   43.9280 H   0  0  0  0  0  0  0  0  0  0  0  0
  1 16  1  0  0  0  0
  2  1  2  0  0  0  0
  3  2  1  0  0  0  0
  3  4  2  0  0  0  0
  4  5  1  0  0  0  0
  5  1  1  0  0  0  0
  6  2  1  0  0  0  0
  7  3  1  0  0  0  0
  8  4  1  0  0  0  0
  8 15  1  0  0  0  0
  9 11  1  0  0  0  0
  9  8  2  0  0  0  0
 10  9  1  0  0  0  0
 11 13  1  0  0  0  0
 12 11  1  0  0  0  0
 13 14  1  0  0  0  0
 13 15  2  0  0  0  0
 16 17  1  0  0  0  0
 18 16  1  0  0  0  0
 19 24  1  0  0  0  0
 19 25  1  0  0  0  0
 20 27  1  0  0  0  0
 20 19  2  0  0  0  0
 21 22  2  0  0  0  0
 21 20  1  0  0  0  0
 22 23  1  0  0  0  0
 23 16  1  0  0  0  0
 23 24  2  0  0  0  0
 26 21  1  0  0  0  0
 27 29  1  0  0  0  0
 28 27  1  0  0  0  0
M  END
>  <minimizedAffinity>
-5.30908775

$$$$

 OpenBabel03242518203D

 29 31  0  0  0  0  0  0  0  0999 V2000
   37.5960   29.9590   41.7280 C   0  0  0  0  0  0  0  0  0  0  0  0
   36.3830   30.3580   41.2190 C   0  0  0  0  0  0  0  0  0  0  0  0
   36.6610   30.9850   40.0000 C   0  0  0  0  0  0  0  0  0  0  0  0
   38.0340   30.9200   39.8550 C   0  0  0  0  0  0  0  0  0  0  0  0
   38.5160   30.3180   40.8850 O   0  0  0  0  0  0  0  0  0  0  0  0
   35.3760   30.2390   41.6330 H   0  0  0  0  0  0  0  0  0  0  0  0
   35.9500   31.4340   39.2970 H   0  0  0  0  0  0  0  0  0  0  0  0
   38.8450   31.4290   38.7530 C   0  0  0  0  0  0  0  0  0  0  0  0
   38.3450   31.7330   37.5060 C   0  0  0  0  0  0  0  0  0  0  0  0
   37.3200   31.6490   37.1590 H   0  0  0  0  0  0  0  0  0  0  0  0
   39.3640   32.1730   36.7440 N   0  0  0  0  0  0  0  0  0  0  0  0
   39.2590   32.4760   35.7370 H   0  0  0  0  0  0  0  0  0  0  0  0
   40.5090   32.1560   37.4790 C   0  0  0  0  0  0  0  0  0  0  0  0
   41.4780   32.4600   37.1100 H   0  0  0  0  0  0  0  0  0  0  0  0
   40.1610   31.6970   38.7030 N   0  0  0  0  0  0  0  0  0  0  0  0
   37.7590   29.2340   43.0470 C   0  0  0  0  0  0  0  0  0  0  0  0
   38.5900   29.6630   43.6280 H   0  0  0  0  0  0  0  0  0  0  0  0
   36.8090   29.3470   43.6450 H   0  0  0  0  0  0  0  0  0  0  0  0
   37.2150   25.7340   42.1250 C   0  0  0  0  0  0  0  0  0  0  0  0
   38.4500   25.1170   42.3830 C   0  0  0  0  0  0  0  0  0  0  0  0
   39.4600   25.9170   42.8730 C   0  0  0  0  0  0  0  0  0  0  0  0
   39.2230   27.2310   43.0810 N   0  0  0  0  0  0  0  0  0  0  0  0
   38.0220   27.7930   42.8220 C   0  0  0  0  0  0  0  0  0  0  0  0
   37.0020   27.0290   42.3350 N   0  0  0  0  0  0  0  0  0  0  0  0
   36.3630   25.1700   41.7340 H   0  0  0  0  0  0  0  0  0  0  0  0
   40.4110   25.4390   43.0710 H   0  0  0  0  0  0  0  0  0  0  0  0
   38.5290   23.7430   42.1130 N   0  0  0  0  0  0  0  0  0  0  0  0
   38.8710   23.3350   43.0190 H   0  0  0  0  0  0  0  0  0  0  0  0
   38.2510   23.4350   41.1370 H   0  0  0  0  0  0  0  0  0  0  0  0
  1 16  1  0  0  0  0
  2  6  1  0  0  0  0
  2  1  2  0  0  0  0
  3  2  1  0  0  0  0
  4  3  2  0  0  0  0
  4  5  1  0  0  0  0
  5  1  1  0  0  0  0
  7  3  1  0  0  0  0
  8  4  1  0  0  0  0
  9  8  2  0  0  0  0
 10  9  1  0  0  0  0
 11 13  1  0  0  0  0
 11  9  1  0  0  0  0
 12 11  1  0  0  0  0
 13 15  2  0  0  0  0
 14 13  1  0  0  0  0
 15  8  1  0  0  0  0
 16 17  1  0  0  0  0
 16 18  1  0  0  0  0
 19 24  2  0  0  0  0
 19 20  1  0  0  0  0
 20 21  2  0  0  0  0
 21 26  1  0  0  0  0
 21 22  1  0  0  0  0
 23 16  1  0  0  0  0
 23 22  2  0  0  0  0
 24 23  1  0  0  0  0
 25 19  1  0  0  0  0
 27 20  1  0  0  0  0
 27 28  1  0  0  0  0
 29 27  1  0  0  0  0
M  END
>  <minimizedAffinity>
-5.28127718

$$$$

 OpenBabel03242518203D

 29 31  0  0  0  0  0  0  0  0999 V2000
   36.7810   28.9060   41.8930 C   0  0  0  0  0  0  0  0  0  0  0  0
   35.7550   28.9440   40.9780 C   0  0  0  0  0  0  0  0  0  0  0  0
   35.8920   30.1560   40.2930 C   0  0  0  0  0  0  0  0  0  0  0  0
   36.9990   30.7710   40.8450 C   0  0  0  0  0  0  0  0  0  0  0  0
   37.4670   30.0010   41.7630 O   0  0  0  0  0  0  0  0  0  0  0  0
   34.9670   28.2120   40.7790 H   0  0  0  0  0  0  0  0  0  0  0  0
   35.2620   30.5460   39.4850 H   0  0  0  0  0  0  0  0  0  0  0  0
   37.5780   32.0630   40.4910 C   0  0  0  0  0  0  0  0  0  0  0  0
   37.1250   32.8520   39.4570 C   0  0  0  0  0  0  0  0  0  0  0  0
   36.3060   32.6510   38.7730 H   0  0  0  0  0  0  0  0  0  0  0  0
   37.8830   33.9640   39.4160 N   0  0  0  0  0  0  0  0  0  0  0  0
   37.7510   34.7420   38.7140 H   0  0  0  0  0  0  0  0  0  0  0  0
   38.8150   33.9030   40.4050 C   0  0  0  0  0  0  0  0  0  0  0  0
   39.5550   34.6670   40.5990 H   0  0  0  0  0  0  0  0  0  0  0  0
   38.6040   32.7300   41.0470 N   0  0  0  0  0  0  0  0  0  0  0  0
   37.0100   27.7590   42.8540 C   0  0  0  0  0  0  0  0  0  0  0  0
   37.7620   28.0280   43.6110 H   0  0  0  0  0  0  0  0  0  0  0  0
   36.0400   27.5250   43.3800 H   0  0  0  0  0  0  0  0  0  0  0  0
   38.9520   25.6220   40.6040 C   0  0  0  0  0  0  0  0  0  0  0  0
   38.3680   24.3530   40.7500 C   0  0  0  0  0  0  0  0  0  0  0  0
   37.3090   24.2470   41.6250 C   0  0  0  0  0  0  0  0  0  0  0  0
   36.8850   25.3460   42.2900 N   0  0  0  0  0  0  0  0  0  0  0  0
   37.4700   26.5530   42.1260 C   0  0  0  0  0  0  0  0  0  0  0  0
   38.5220   26.6900   41.2680 N   0  0  0  0  0  0  0  0  0  0  0  0
   39.7970   25.7900   39.9310 H   0  0  0  0  0  0  0  0  0  0  0  0
   36.8600   23.2680   41.7360 H   0  0  0  0  0  0  0  0  0  0  0  0
   38.9270   23.3180   39.9870 N   0  0  0  0  0  0  0  0  0  0  0  0
   38.1020   22.9220   39.4690 H   0  0  0  0  0  0  0  0  0  0  0  0
   39.9730   23.1680   40.0850 H   0  0  0  0  0  0  0  0  0  0  0  0
  1 16  1  0  0  0  0
  2  1  2  0  0  0  0
  3  4  2  0  0  0  0
  3  2  1  0  0  0  0
  4  5  1  0  0  0  0
  5  1  1  0  0  0  0
  6  2  1  0  0  0  0
  7  3  1  0  0  0  0
  8  4  1  0  0  0  0
  8 15  1  0  0  0  0
  9  8  2  0  0  0  0
 10  9  1  0  0  0  0
 11  9  1  0  0  0  0
 11 13  1  0  0  0  0
 12 11  1  0  0  0  0
 13 14  1  0  0  0  0
 13 15  2  0  0  0  0
 16 18  1  0  0  0  0
 16 17  1  0  0  0  0
 19 20  2  0  0  0  0
 19 24  1  0  0  0  0
 20 21  1  0  0  0  0
 21 26  1  0  0  0  0
 21 22  2  0  0  0  0
 23 22  1  0  0  0  0
 23 16  1  0  0  0  0
 24 23  2  0  0  0  0
 25 19  1  0  0  0  0
 27 29  1  0  0  0  0
 27 20  1  0  0  0  0
 28 27  1  0  0  0  0
M  END
>  <minimizedAffinity>
-5.05656815

$$$$

 OpenBabel03242518203D

 29 31  0  0  0  0  0  0  0  0999 V2000
   37.7060   28.1570   42.5900 C   0  0  0  0  0  0  0  0  0  0  0  0
   39.0270   28.3490   42.9190 C   0  0  0  0  0  0  0  0  0  0  0  0
   39.3690   29.6140   42.4300 C   0  0  0  0  0  0  0  0  0  0  0  0
   38.2220   30.1030   41.8340 C   0  0  0  0  0  0  0  0  0  0  0  0
   37.2990   29.2170   41.9590 O   0  0  0  0  0  0  0  0  0  0  0  0
   39.7180   27.6880   43.4520 H   0  0  0  0  0  0  0  0  0  0  0  0
   40.3380   30.1220   42.4990 H   0  0  0  0  0  0  0  0  0  0  0  0
   38.0360   31.3890   41.1670 C   0  0  0  0  0  0  0  0  0  0  0  0
   36.8690   31.7710   40.5460 C   0  0  0  0  0  0  0  0  0  0  0  0
   35.9450   31.2080   40.4550 H   0  0  0  0  0  0  0  0  0  0  0  0
   37.0490   33.0070   40.0420 N   0  0  0  0  0  0  0  0  0  0  0  0
   36.3080   33.5420   39.5120 H   0  0  0  0  0  0  0  0  0  0  0  0
   38.3120   33.4240   40.3300 C   0  0  0  0  0  0  0  0  0  0  0  0
   38.7220   34.3820   40.0420 H   0  0  0  0  0  0  0  0  0  0  0  0
   38.8920   32.4140   41.0190 N   0  0  0  0  0  0  0  0  0  0  0  0
   36.9250   26.9070   42.9320 C   0  0  0  0  0  0  0  0  0  0  0  0
   37.2180   26.5210   43.9210 H   0  0  0  0  0  0  0  0  0  0  0  0
   35.8250   27.1590   42.9580 H   0  0  0  0  0  0  0  0  0  0  0  0
   37.0530   25.2130   39.6900 C   0  0  0  0  0  0  0  0  0  0  0  0
   37.5640   23.9400   39.9900 C   0  0  0  0  0  0  0  0  0  0  0  0
   37.8610   23.6790   41.3100 C   0  0  0  0  0  0  0  0  0  0  0  0
   37.6500   24.6370   42.2400 N   0  0  0  0  0  0  0  0  0  0  0  0
   37.1560   25.8530   41.9160 C   0  0  0  0  0  0  0  0  0  0  0  0
   36.8540   26.1440   40.6180 N   0  0  0  0  0  0  0  0  0  0  0  0
   36.7940   25.5010   38.6670 H   0  0  0  0  0  0  0  0  0  0  0  0
   38.2540   22.6960   41.5390 H   0  0  0  0  0  0  0  0  0  0  0  0
   37.7230   23.0610   38.9090 N   0  0  0  0  0  0  0  0  0  0  0  0
   37.1910   22.2050   39.2090 H   0  0  0  0  0  0  0  0  0  0  0  0
   38.2950   23.4160   38.0890 H   0  0  0  0  0  0  0  0  0  0  0  0
  1  2  2  0  0  0  0
  1 16  1  0  0  0  0
  2  6  1  0  0  0  0
  3  7  1  0  0  0  0
  3  2  1  0  0  0  0
  4  5  1  0  0  0  0
  4  3  2  0  0  0  0
  5  1  1  0  0  0  0
  8  4  1  0  0  0  0
  9  8  2  0  0  0  0
 10  9  1  0  0  0  0
 11 13  1  0  0  0  0
 11  9  1  0  0  0  0
 12 11  1  0  0  0  0
 13 15  2  0  0  0  0
 14 13  1  0  0  0  0
 15  8  1  0  0  0  0
 16 18  1  0  0  0  0
 16 17  1  0  0  0  0
 19 20  2  0  0  0  0
 19 24  1  0  0  0  0
 20 21  1  0  0  0  0
 21 26  1  0  0  0  0
 21 22  2  0  0  0  0
 23 22  1  0  0  0  0
 23 16  1  0  0  0  0
 24 23  2  0  0  0  0
 25 19  1  0  0  0  0
 27 28  1  0  0  0  0
 27 20  1  0  0  0  0
 29 27  1  0  0  0  0
M  END
>  <minimizedAffinity>
-4.88833857

$$$$

 OpenBabel03242518203D

 29 31  0  0  0  0  0  0  0  0999 V2000
   36.6980   28.7620   41.2980 C   0  0  0  0  0  0  0  0  0  0  0  0
   36.3290   27.9230   42.3220 C   0  0  0  0  0  0  0  0  0  0  0  0
   37.4970   27.6550   43.0440 C   0  0  0  0  0  0  0  0  0  0  0  0
   38.4990   28.3570   42.4010 C   0  0  0  0  0  0  0  0  0  0  0  0
   37.9760   28.9740   41.4020 O   0  0  0  0  0  0  0  0  0  0  0  0
   35.3450   27.5150   42.5730 H   0  0  0  0  0  0  0  0  0  0  0  0
   37.6070   27.0250   43.9350 H   0  0  0  0  0  0  0  0  0  0  0  0
   39.9150   28.4210   42.7500 C   0  0  0  0  0  0  0  0  0  0  0  0
   40.5710   27.4590   43.4850 C   0  0  0  0  0  0  0  0  0  0  0  0
   40.1620   26.5440   43.9040 H   0  0  0  0  0  0  0  0  0  0  0  0
   41.8560   27.8370   43.6160 N   0  0  0  0  0  0  0  0  0  0  0  0
   42.5850   27.2780   44.1380 H   0  0  0  0  0  0  0  0  0  0  0  0
   42.0370   29.0250   42.9780 C   0  0  0  0  0  0  0  0  0  0  0  0
   42.9770   29.5570   42.9260 H   0  0  0  0  0  0  0  0  0  0  0  0
   40.8330   29.3580   42.4570 N   0  0  0  0  0  0  0  0  0  0  0  0
   35.7350   29.3050   40.2640 C   0  0  0  0  0  0  0  0  0  0  0  0
   35.2230   28.4840   39.7390 H   0  0  0  0  0  0  0  0  0  0  0  0
   34.9580   29.9360   40.7860 H   0  0  0  0  0  0  0  0  0  0  0  0
   37.4860   30.2770   37.2010 C   0  0  0  0  0  0  0  0  0  0  0  0
   37.7810   31.6360   37.3930 C   0  0  0  0  0  0  0  0  0  0  0  0
   37.3720   32.2050   38.5790 C   0  0  0  0  0  0  0  0  0  0  0  0
   36.7190   31.4470   39.4880 N   0  0  0  0  0  0  0  0  0  0  0  0
   36.4510   30.1400   39.2710 C   0  0  0  0  0  0  0  0  0  0  0  0
   36.8420   29.5470   38.1060 N   0  0  0  0  0  0  0  0  0  0  0  0
   37.7750   29.7510   36.2860 H   0  0  0  0  0  0  0  0  0  0  0  0
   37.6010   33.2530   38.7250 H   0  0  0  0  0  0  0  0  0  0  0  0
   38.4650   32.2790   36.3510 N   0  0  0  0  0  0  0  0  0  0  0  0
   39.3020   32.6980   36.8290 H   0  0  0  0  0  0  0  0  0  0  0  0
   38.0290   32.2120   35.3850 H   0  0  0  0  0  0  0  0  0  0  0  0
  1  5  1  0  0  0  0
  1  2  2  0  0  0  0
  2  6  1  0  0  0  0
  2  3  1  0  0  0  0
  3  7  1  0  0  0  0
  4  8  1  0  0  0  0
  4  3  2  0  0  0  0
  5  4  1  0  0  0  0
  8  9  2  0  0  0  0
  9 11  1  0  0  0  0
  9 10  1  0  0  0  0
 11 12  1  0  0  0  0
 13 11  1  0  0  0  0
 14 13  1  0  0  0  0
 15  8  1  0  0  0  0
 15 13  2  0  0  0  0
 16 18  1  0  0  0  0
 16  1  1  0  0  0  0
 17 16  1  0  0  0  0
 19 20  2  0  0  0  0
 19 24  1  0  0  0  0
 20 21  1  0  0  0  0
 21 26  1  0  0  0  0
 21 22  2  0  0  0  0
 23 22  1  0  0  0  0
 23 16  1  0  0  0  0
 24 23  2  0  0  0  0
 25 19  1  0  0  0  0
 27 28  1  0  0  0  0
 27 20  1  0  0  0  0
 29 27  1  0  0  0  0
M  END
>  <minimizedAffinity>
-4.80421114

$$$$

 OpenBabel03242518203D

 29 31  0  0  0  0  0  0  0  0999 V2000
   37.1610   26.8640   42.4160 C   0  0  0  0  0  0  0  0  0  0  0  0
   37.3360   27.3790   43.6800 C   0  0  0  0  0  0  0  0  0  0  0  0
   37.4510   28.7640   43.5220 C   0  0  0  0  0  0  0  0  0  0  0  0
   37.3380   28.9920   42.1630 C   0  0  0  0  0  0  0  0  0  0  0  0
   37.1740   27.8580   41.5800 O   0  0  0  0  0  0  0  0  0  0  0  0
   37.3820   26.8640   44.6440 H   0  0  0  0  0  0  0  0  0  0  0  0
   37.5990   29.5190   44.3020 H   0  0  0  0  0  0  0  0  0  0  0  0
   37.3900   30.2720   41.4620 C   0  0  0  0  0  0  0  0  0  0  0  0
   36.2760   30.9970   41.1020 C   0  0  0  0  0  0  0  0  0  0  0  0
   35.2330   30.7490   41.2720 H   0  0  0  0  0  0  0  0  0  0  0  0
   36.6900   32.1160   40.4770 N   0  0  0  0  0  0  0  0  0  0  0  0
   36.0380   32.8540   40.0940 H   0  0  0  0  0  0  0  0  0  0  0  0
   38.0500   32.1210   40.4290 C   0  0  0  0  0  0  0  0  0  0  0  0
   38.6450   32.9040   39.9820 H   0  0  0  0  0  0  0  0  0  0  0  0
   38.4500   30.9810   41.0400 N   0  0  0  0  0  0  0  0  0  0  0  0
   36.9930   25.3890   42.1230 C   0  0  0  0  0  0  0  0  0  0  0  0
   37.1320   24.7910   43.0370 H   0  0  0  0  0  0  0  0  0  0  0  0
   35.9500   25.2110   41.7330 H   0  0  0  0  0  0  0  0  0  0  0  0
   40.1930   24.7720   40.4570 C   0  0  0  0  0  0  0  0  0  0  0  0
   39.8360   24.1420   39.2540 C   0  0  0  0  0  0  0  0  0  0  0  0
   38.4920   23.9360   39.0290 C   0  0  0  0  0  0  0  0  0  0  0  0
   37.5950   24.3410   39.9560 N   0  0  0  0  0  0  0  0  0  0  0  0
   37.9730   24.9450   41.1040 C   0  0  0  0  0  0  0  0  0  0  0  0
   39.2970   25.1620   41.3570 N   0  0  0  0  0  0  0  0  0  0  0  0
   41.2380   24.9720   40.7120 H   0  0  0  0  0  0  0  0  0  0  0  0
   38.2190   23.4510   38.1010 H   0  0  0  0  0  0  0  0  0  0  0  0
   40.8900   23.7850   38.4000 N   0  0  0  0  0  0  0  0  0  0  0  0
   40.6290   24.2360   37.4870 H   0  0  0  0  0  0  0  0  0  0  0  0
   41.6590   23.1880   38.8210 H   0  0  0  0  0  0  0  0  0  0  0  0
  1  2  2  0  0  0  0
  2  6  1  0  0  0  0
  3  2  1  0  0  0  0
  3  7  1  0  0  0  0
  4  3  2  0  0  0  0
  5  4  1  0  0  0  0
  5  1  1  0  0  0  0
  8  4  1  0  0  0  0
  9 10  1  0  0  0  0
  9  8  2  0  0  0  0
 11  9  1  0  0  0  0
 12 11  1  0  0  0  0
 13 11  1  0  0  0  0
 13 15  2  0  0  0  0
 14 13  1  0  0  0  0
 15  8  1  0  0  0  0
 16  1  1  0  0  0  0
 16 17  1  0  0  0  0
 18 16  1  0  0  0  0
 19 25  1  0  0  0  0
 19 24  1  0  0  0  0
 20 19  2  0  0  0  0
 21 20  1  0  0  0  0
 21 22  2  0  0  0  0
 22 23  1  0  0  0  0
 23 24  2  0  0  0  0
 23 16  1  0  0  0  0
 26 21  1  0  0  0  0
 27 29  1  0  0  0  0
 27 20  1  0  0  0  0
 28 27  1  0  0  0  0
M  END
>  <minimizedAffinity>
-4.7126236

$$$$

 OpenBabel03242518203D

 29 31  0  0  0  0  0  0  0  0999 V2000
   36.1720   28.5350   40.3410 C   0  0  0  0  0  0  0  0  0  0  0  0
   36.0130   28.1980   39.0180 C   0  0  0  0  0  0  0  0  0  0  0  0
   36.4380   26.8710   38.9020 C   0  0  0  0  0  0  0  0  0  0  0  0
   36.8260   26.4940   40.1740 C   0  0  0  0  0  0  0  0  0  0  0  0
   36.6510   27.4970   40.9580 O   0  0  0  0  0  0  0  0  0  0  0  0
   35.6390   28.7980   38.1830 H   0  0  0  0  0  0  0  0  0  0  0  0
   36.4600   26.2480   37.9990 H   0  0  0  0  0  0  0  0  0  0  0  0
   37.3510   25.2020   40.6050 C   0  0  0  0  0  0  0  0  0  0  0  0
   37.3560   24.7710   41.9130 C   0  0  0  0  0  0  0  0  0  0  0  0
   36.9900   25.2950   42.7900 H   0  0  0  0  0  0  0  0  0  0  0  0
   37.9090   23.5440   41.9470 N   0  0  0  0  0  0  0  0  0  0  0  0
   38.0370   22.9790   42.8300 H   0  0  0  0  0  0  0  0  0  0  0  0
   38.2590   23.1790   40.6830 C   0  0  0  0  0  0  0  0  0  0  0  0
   38.7240   22.2390   40.4230 H   0  0  0  0  0  0  0  0  0  0  0  0
   37.9050   24.2120   39.8840 N   0  0  0  0  0  0  0  0  0  0  0  0
   35.8310   29.8950   40.9110 C   0  0  0  0  0  0  0  0  0  0  0  0
   35.0570   30.3900   40.3050 H   0  0  0  0  0  0  0  0  0  0  0  0
   35.4360   29.7630   41.9600 H   0  0  0  0  0  0  0  0  0  0  0  0
   39.2170   31.0570   41.6780 C   0  0  0  0  0  0  0  0  0  0  0  0
   39.2930   32.3170   41.0640 C   0  0  0  0  0  0  0  0  0  0  0  0
   38.1730   32.7540   40.3900 C   0  0  0  0  0  0  0  0  0  0  0  0
   37.0730   31.9690   40.3510 N   0  0  0  0  0  0  0  0  0  0  0  0
   37.0340   30.7600   40.9530 C   0  0  0  0  0  0  0  0  0  0  0  0
   38.1270   30.2980   41.6270 N   0  0  0  0  0  0  0  0  0  0  0  0
   40.0610   30.6360   42.2320 H   0  0  0  0  0  0  0  0  0  0  0  0
   38.2340   33.7260   39.9180 H   0  0  0  0  0  0  0  0  0  0  0  0
   40.5070   33.0050   41.2000 N   0  0  0  0  0  0  0  0  0  0  0  0
   40.2190   33.9350   41.5960 H   0  0  0  0  0  0  0  0  0  0  0  0
   41.3820   32.4850   40.9010 H   0  0  0  0  0  0  0  0  0  0  0  0
  1 16  1  0  0  0  0
  1  5  1  0  0  0  0
  2  1  2  0  0  0  0
  3  2  1  0  0  0  0
  3  4  2  0  0  0  0
  4  8  1  0  0  0  0
  4  5  1  0  0  0  0
  6  2  1  0  0  0  0
  7  3  1  0  0  0  0
  8  9  2  0  0  0  0
  9 11  1  0  0  0  0
  9 10  1  0  0  0  0
 11 12  1  0  0  0  0
 13 11  1  0  0  0  0
 14 13  1  0  0  0  0
 15  8  1  0  0  0  0
 15 13  2  0  0  0  0
 16 23  1  0  0  0  0
 16 18  1  0  0  0  0
 17 16  1  0  0  0  0
 19 25  1  0  0  0  0
 20 27  1  0  0  0  0
 20 19  2  0  0  0  0
 21 20  1  0  0  0  0
 22 21  2  0  0  0  0
 22 23  1  0  0  0  0
 23 24  2  0  0  0  0
 24 19  1  0  0  0  0
 26 21  1  0  0  0  0
 27 28  1  0  0  0  0
 29 27  1  0  0  0  0
M  END
>  <minimizedAffinity>
-4.64776421

$$$$
