
 OpenBabel03242520213D

 43 46  0  0  0  0  0  0  0  0999 V2000
   39.5990   35.5140   40.2890 C   0  0  0  0  0  0  0  0  0  0  0  0
   38.7920   36.2820   40.2100 H   0  0  0  0  0  0  0  0  0  0  0  0
   39.7230   35.3150   41.3790 H   0  0  0  0  0  0  0  0  0  0  0  0
   39.0510   33.1270   40.2620 C   0  0  0  0  0  0  0  0  0  0  0  0
   39.2010   33.0030   41.5070 O   0  0  0  0  0  0  0  0  0  0  0  0
   39.1440   34.3590   39.5490 N   0  0  0  0  0  0  0  0  0  0  0  0
   38.9130   34.4770   38.5600 H   0  0  0  0  0  0  0  0  0  0  0  0
   38.7550   31.9310   39.4360 C   0  0  0  0  0  0  0  0  0  0  0  0
   39.1140   31.9140   38.1050 C   0  0  0  0  0  0  0  0  0  0  0  0
   38.8960   30.8790   37.2340 C   0  0  0  0  0  0  0  0  0  0  0  0
   38.2530   29.7630   37.7800 C   0  0  0  0  0  0  0  0  0  0  0  0
   37.9050   29.8050   39.1120 C   0  0  0  0  0  0  0  0  0  0  0  0
   38.1420   30.8560   39.9360 N   0  0  0  0  0  0  0  0  0  0  0  0
   39.6090   32.7910   37.7110 H   0  0  0  0  0  0  0  0  0  0  0  0
   39.2100   30.9510   36.2080 H   0  0  0  0  0  0  0  0  0  0  0  0
   38.0560   28.9260   37.1520 H   0  0  0  0  0  0  0  0  0  0  0  0
   37.2310   28.6500   39.7060 C   0  0  0  0  0  0  0  0  0  0  0  0
   35.8700   28.3470   39.6090 C   0  0  0  0  0  0  0  0  0  0  0  0
   35.1860   28.9840   39.0570 H   0  0  0  0  0  0  0  0  0  0  0  0
   35.6050   27.1970   40.2870 N   0  0  0  0  0  0  0  0  0  0  0  0
   34.6020   26.8420   40.3000 H   0  0  0  0  0  0  0  0  0  0  0  0
   36.7890   26.7790   40.8060 C   0  0  0  0  0  0  0  0  0  0  0  0
   36.8190   25.8740   41.3910 H   0  0  0  0  0  0  0  0  0  0  0  0
   37.7370   27.6590   40.4460 N   0  0  0  0  0  0  0  0  0  0  0  0
   40.9310   36.0410   39.7820 C   0  0  0  0  0  0  0  0  0  0  0  0
   41.0720   37.0300   40.2840 H   0  0  0  0  0  0  0  0  0  0  0  0
   40.9540   36.1570   38.6970 H   0  0  0  0  0  0  0  0  0  0  0  0
   43.7950   34.5960   41.7950 C   0  0  0  0  0  0  0  0  0  0  0  0
   42.7550   35.4700   41.3760 C   0  0  0  0  0  0  0  0  0  0  0  0
   42.0310   35.1610   40.2440 C   0  0  0  0  0  0  0  0  0  0  0  0
   42.3820   33.9980   39.5890 N   0  0  0  0  0  0  0  0  0  0  0  0
   43.3880   33.1980   40.0360 C   0  0  0  0  0  0  0  0  0  0  0  0
   44.0860   33.4980   41.1290 N   0  0  0  0  0  0  0  0  0  0  0  0
   42.5200   36.3800   41.9350 H   0  0  0  0  0  0  0  0  0  0  0  0
   43.5910   32.3070   39.4560 H   0  0  0  0  0  0  0  0  0  0  0  0
   44.5790   34.9520   43.0180 C   0  0  0  0  0  0  0  0  0  0  0  0
   46.0590   35.3640   42.6390 C   0  0  0  0  0  0  0  0  0  0  0  0
   45.0950   36.2210   43.3300 C   0  0  0  0  0  0  0  0  0  0  0  0
   44.5590   34.1190   43.7750 H   0  0  0  0  0  0  0  0  0  0  0  0
   46.2460   35.6030   41.5870 H   0  0  0  0  0  0  0  0  0  0  0  0
   46.8350   34.8400   43.2020 H   0  0  0  0  0  0  0  0  0  0  0  0
   45.3090   36.4810   44.3840 H   0  0  0  0  0  0  0  0  0  0  0  0
   44.6910   37.1260   42.7890 H   0  0  0  0  0  0  0  0  0  0  0  0
  1  3  1  0  0  0  0
  2  1  1  0  0  0  0
  4  5  2  0  0  0  0
  6  4  1  0  0  0  0
  6  1  1  0  0  0  0
  7  6  1  0  0  0  0
  8 13  1  0  0  0  0
  8  4  1  0  0  0  0
  9  8  2  0  0  0  0
 10 11  2  0  0  0  0
 10  9  1  0  0  0  0
 11 12  1  0  0  0  0
 12 17  1  0  0  0  0
 12 13  2  0  0  0  0
 14  9  1  0  0  0  0
 15 10  1  0  0  0  0
 16 11  1  0  0  0  0
 17 24  1  0  0  0  0
 18 17  2  0  0  0  0
 18 20  1  0  0  0  0
 19 18  1  0  0  0  0
 20 21  1  0  0  0  0
 20 22  1  0  0  0  0
 22 23  1  0  0  0  0
 24 22  2  0  0  0  0
 25 30  1  0  0  0  0
 25 26  1  0  0  0  0
 25  1  1  0  0  0  0
 27 25  1  0  0  0  0
 28 36  1  0  0  0  0
 29 28  1  0  0  0  0
 29 34  1  0  0  0  0
 30 29  2  0  0  0  0
 31 32  2  0  0  0  0
 31 30  1  0  0  0  0
 32 33  1  0  0  0  0
 33 28  2  0  0  0  0
 35 32  1  0  0  0  0
 36 38  1  0  0  0  0
 36 39  1  0  0  0  0
 37 36  1  0  0  0  0
 37 41  1  0  0  0  0
 37 38  1  0  0  0  0
 38 42  1  0  0  0  0
 40 37  1  0  0  0  0
 43 38  1  0  0  0  0
M  END
>  <minimizedAffinity>
-5.24300957

>  <minimizedRMSD>
1.49204683

$$$$
