
 OpenBabel03242520233D

 43 46  0  0  0  0  0  0  0  0999 V2000
   36.0290   29.7520   39.3850 C   0  0  0  0  0  0  0  0  0  0  0  0
   35.2110   29.9090   38.6410 H   0  0  0  0  0  0  0  0  0  0  0  0
   36.7040   28.9860   38.9380 H   0  0  0  0  0  0  0  0  0  0  0  0
   37.9220   31.2340   38.9220 C   0  0  0  0  0  0  0  0  0  0  0  0
   38.4380   30.4380   38.0920 O   0  0  0  0  0  0  0  0  0  0  0  0
   36.6700   31.0340   39.5740 N   0  0  0  0  0  0  0  0  0  0  0  0
   36.2010   31.7290   40.1580 H   0  0  0  0  0  0  0  0  0  0  0  0
   38.6340   32.4860   39.2780 C   0  0  0  0  0  0  0  0  0  0  0  0
   37.9530   33.5030   39.9120 C   0  0  0  0  0  0  0  0  0  0  0  0
   38.4890   34.7060   40.2900 C   0  0  0  0  0  0  0  0  0  0  0  0
   39.8450   34.8780   39.9920 C   0  0  0  0  0  0  0  0  0  0  0  0
   40.5030   33.8470   39.3590 C   0  0  0  0  0  0  0  0  0  0  0  0
   39.9280   32.6710   39.0020 N   0  0  0  0  0  0  0  0  0  0  0  0
   36.9060   33.3420   40.1290 H   0  0  0  0  0  0  0  0  0  0  0  0
   37.8820   35.4460   40.7810 H   0  0  0  0  0  0  0  0  0  0  0  0
   40.3180   35.7930   40.2620 H   0  0  0  0  0  0  0  0  0  0  0  0
   41.9220   34.0030   39.0350 C   0  0  0  0  0  0  0  0  0  0  0  0
   42.4470   34.6520   37.9150 C   0  0  0  0  0  0  0  0  0  0  0  0
   41.8030   35.1080   37.1700 H   0  0  0  0  0  0  0  0  0  0  0  0
   43.8070   34.5990   37.9480 N   0  0  0  0  0  0  0  0  0  0  0  0
   44.3460   35.0560   37.1540 H   0  0  0  0  0  0  0  0  0  0  0  0
   44.1340   33.9210   39.0800 C   0  0  0  0  0  0  0  0  0  0  0  0
   45.1730   33.7560   39.3140 H   0  0  0  0  0  0  0  0  0  0  0  0
   42.9970   33.5790   39.7060 N   0  0  0  0  0  0  0  0  0  0  0  0
   35.5030   29.1690   40.6870 C   0  0  0  0  0  0  0  0  0  0  0  0
   34.9530   28.2390   40.3970 H   0  0  0  0  0  0  0  0  0  0  0  0
   34.8390   29.8540   41.2180 H   0  0  0  0  0  0  0  0  0  0  0  0
   38.1100   27.0680   42.4540 C   0  0  0  0  0  0  0  0  0  0  0  0
   37.0120   27.4280   41.6270 C   0  0  0  0  0  0  0  0  0  0  0  0
   36.6350   28.7520   41.5470 C   0  0  0  0  0  0  0  0  0  0  0  0
   37.3710   29.6470   42.2980 N   0  0  0  0  0  0  0  0  0  0  0  0
   38.4140   29.2440   43.0740 C   0  0  0  0  0  0  0  0  0  0  0  0
   38.7770   27.9660   43.1500 N   0  0  0  0  0  0  0  0  0  0  0  0
   36.4640   26.6760   41.0530 H   0  0  0  0  0  0  0  0  0  0  0  0
   38.9310   30.0180   43.6270 H   0  0  0  0  0  0  0  0  0  0  0  0
   38.4990   25.6260   42.5390 C   0  0  0  0  0  0  0  0  0  0  0  0
   39.7920   25.3390   41.6740 C   0  0  0  0  0  0  0  0  0  0  0  0
   39.6750   25.1190   43.1160 C   0  0  0  0  0  0  0  0  0  0  0  0
   37.6450   24.9530   42.2470 H   0  0  0  0  0  0  0  0  0  0  0  0
   40.3790   26.2120   41.3680 H   0  0  0  0  0  0  0  0  0  0  0  0
   39.6970   24.5030   40.9780 H   0  0  0  0  0  0  0  0  0  0  0  0
   39.7030   24.0730   43.4740 H   0  0  0  0  0  0  0  0  0  0  0  0
   40.2720   25.7760   43.8130 H   0  0  0  0  0  0  0  0  0  0  0  0
  1  6  1  0  0  0  0
  1 25  1  0  0  0  0
  2  1  1  0  0  0  0
  3  1  1  0  0  0  0
  4  8  1  0  0  0  0
  4  6  1  0  0  0  0
  5  4  2  0  0  0  0
  6  7  1  0  0  0  0
  8  9  1  0  0  0  0
  9 14  1  0  0  0  0
  9 10  2  0  0  0  0
 10 15  1  0  0  0  0
 11 16  1  0  0  0  0
 11 10  1  0  0  0  0
 12 11  2  0  0  0  0
 13  8  2  0  0  0  0
 13 12  1  0  0  0  0
 17 12  1  0  0  0  0
 17 24  1  0  0  0  0
 18 20  1  0  0  0  0
 18 17  2  0  0  0  0
 19 18  1  0  0  0  0
 20 22  1  0  0  0  0
 21 20  1  0  0  0  0
 22 23  1  0  0  0  0
 22 24  2  0  0  0  0
 25 27  1  0  0  0  0
 25 30  1  0  0  0  0
 26 25  1  0  0  0  0
 28 36  1  0  0  0  0
 28 33  1  0  0  0  0
 29 28  2  0  0  0  0
 30 29  1  0  0  0  0
 30 31  2  0  0  0  0
 31 32  1  0  0  0  0
 32 33  2  0  0  0  0
 32 35  1  0  0  0  0
 34 29  1  0  0  0  0
 36 38  1  0  0  0  0
 37 36  1  0  0  0  0
 37 38  1  0  0  0  0
 38 42  1  0  0  0  0
 38 43  1  0  0  0  0
 39 36  1  0  0  0  0
 40 37  1  0  0  0  0
 41 37  1  0  0  0  0
M  END
>  <minimizedAffinity>
-6.1192193

$$$$

 OpenBabel03242520233D

 43 46  0  0  0  0  0  0  0  0999 V2000
   39.5660   26.7870   44.0420 C   0  0  0  0  0  0  0  0  0  0  0  0
   40.1680   27.3800   44.7730 H   0  0  0  0  0  0  0  0  0  0  0  0
   38.7620   26.2970   44.6380 H   0  0  0  0  0  0  0  0  0  0  0  0
   37.7180   28.1760   43.2360 C   0  0  0  0  0  0  0  0  0  0  0  0
   36.9970   27.9290   44.2390 O   0  0  0  0  0  0  0  0  0  0  0  0
   39.0600   27.7240   43.0660 N   0  0  0  0  0  0  0  0  0  0  0  0
   39.6800   28.0170   42.3080 H   0  0  0  0  0  0  0  0  0  0  0  0
   37.1730   28.9930   42.1230 C   0  0  0  0  0  0  0  0  0  0  0  0
   36.1270   28.5090   41.3680 C   0  0  0  0  0  0  0  0  0  0  0  0
   35.5370   29.1590   40.3160 C   0  0  0  0  0  0  0  0  0  0  0  0
   36.0700   30.4170   40.0140 C   0  0  0  0  0  0  0  0  0  0  0  0
   37.1140   30.8770   40.7830 C   0  0  0  0  0  0  0  0  0  0  0  0
   37.6670   30.1960   41.8180 N   0  0  0  0  0  0  0  0  0  0  0  0
   35.7360   27.5340   41.6250 H   0  0  0  0  0  0  0  0  0  0  0  0
   34.7230   28.7050   39.7790 H   0  0  0  0  0  0  0  0  0  0  0  0
   35.6520   30.9700   39.2060 H   0  0  0  0  0  0  0  0  0  0  0  0
   37.6900   32.1900   40.4870 C   0  0  0  0  0  0  0  0  0  0  0  0
   37.2060   33.1130   39.5560 C   0  0  0  0  0  0  0  0  0  0  0  0
   36.3240   32.9060   38.9580 H   0  0  0  0  0  0  0  0  0  0  0  0
   37.9960   34.2220   39.5540 N   0  0  0  0  0  0  0  0  0  0  0  0
   37.7470   35.0150   38.8910 H   0  0  0  0  0  0  0  0  0  0  0  0
   38.9680   33.9980   40.4770 C   0  0  0  0  0  0  0  0  0  0  0  0
   39.7180   34.7540   40.6470 H   0  0  0  0  0  0  0  0  0  0  0  0
   38.7630   32.7860   41.0150 N   0  0  0  0  0  0  0  0  0  0  0  0
   40.3870   25.6750   43.4090 C   0  0  0  0  0  0  0  0  0  0  0  0
   40.2010   24.7700   44.0400 H   0  0  0  0  0  0  0  0  0  0  0  0
   41.4540   25.9040   43.3760 H   0  0  0  0  0  0  0  0  0  0  0  0
   38.4330   24.1370   40.5540 C   0  0  0  0  0  0  0  0  0  0  0  0
   38.9160   24.3910   41.8650 C   0  0  0  0  0  0  0  0  0  0  0  0
   39.8670   25.3730   42.0550 C   0  0  0  0  0  0  0  0  0  0  0  0
   40.2850   26.0480   40.9260 N   0  0  0  0  0  0  0  0  0  0  0  0
   39.7870   25.7610   39.6920 C   0  0  0  0  0  0  0  0  0  0  0  0
   38.8700   24.8140   39.5120 N   0  0  0  0  0  0  0  0  0  0  0  0
   38.5480   23.8250   42.7250 H   0  0  0  0  0  0  0  0  0  0  0  0
   40.1770   26.3440   38.8670 H   0  0  0  0  0  0  0  0  0  0  0  0
   37.4120   23.0620   40.3640 C   0  0  0  0  0  0  0  0  0  0  0  0
   35.9660   23.6800   40.1920 C   0  0  0  0  0  0  0  0  0  0  0  0
   36.6470   22.8410   39.2060 C   0  0  0  0  0  0  0  0  0  0  0  0
   37.4460   22.3100   41.2010 H   0  0  0  0  0  0  0  0  0  0  0  0
   35.9160   24.7500   39.9590 H   0  0  0  0  0  0  0  0  0  0  0  0
   35.2070   23.2520   40.8510 H   0  0  0  0  0  0  0  0  0  0  0  0
   36.2230   21.8380   39.0110 H   0  0  0  0  0  0  0  0  0  0  0  0
   36.9770   23.3100   38.2330 H   0  0  0  0  0  0  0  0  0  0  0  0
  1  3  1  0  0  0  0
  1  2  1  0  0  0  0
  4  5  2  0  0  0  0
  6  4  1  0  0  0  0
  6  1  1  0  0  0  0
  7  6  1  0  0  0  0
  8  4  1  0  0  0  0
  9 14  1  0  0  0  0
  9  8  2  0  0  0  0
 10  9  1  0  0  0  0
 11 10  2  0  0  0  0
 11 12  1  0  0  0  0
 12 13  2  0  0  0  0
 13  8  1  0  0  0  0
 15 10  1  0  0  0  0
 16 11  1  0  0  0  0
 17 12  1  0  0  0  0
 17 24  1  0  0  0  0
 18 17  2  0  0  0  0
 19 18  1  0  0  0  0
 20 18  1  0  0  0  0
 20 22  1  0  0  0  0
 21 20  1  0  0  0  0
 22 23  1  0  0  0  0
 22 24  2  0  0  0  0
 25 26  1  0  0  0  0
 25  1  1  0  0  0  0
 27 25  1  0  0  0  0
 28 29  1  0  0  0  0
 29 30  2  0  0  0  0
 29 34  1  0  0  0  0
 30 25  1  0  0  0  0
 31 30  1  0  0  0  0
 32 31  2  0  0  0  0
 33 32  1  0  0  0  0
 33 28  2  0  0  0  0
 35 32  1  0  0  0  0
 36 28  1  0  0  0  0
 36 39  1  0  0  0  0
 37 36  1  0  0  0  0
 37 41  1  0  0  0  0
 38 37  1  0  0  0  0
 38 36  1  0  0  0  0
 40 37  1  0  0  0  0
 42 38  1  0  0  0  0
 43 38  1  0  0  0  0
M  END
>  <minimizedAffinity>
-5.95101881

$$$$

 OpenBabel03242520233D

 43 46  0  0  0  0  0  0  0  0999 V2000
   35.9780   29.7940   37.9200 C   0  0  0  0  0  0  0  0  0  0  0  0
   35.3180   30.0640   37.0610 H   0  0  0  0  0  0  0  0  0  0  0  0
   36.6190   28.9570   37.5600 H   0  0  0  0  0  0  0  0  0  0  0  0
   38.1470   30.8500   38.3410 C   0  0  0  0  0  0  0  0  0  0  0  0
   38.7950   29.8190   38.0160 O   0  0  0  0  0  0  0  0  0  0  0  0
   36.7300   30.9820   38.2540 N   0  0  0  0  0  0  0  0  0  0  0  0
   36.2170   31.8520   38.4110 H   0  0  0  0  0  0  0  0  0  0  0  0
   38.8690   32.0390   38.8570 C   0  0  0  0  0  0  0  0  0  0  0  0
   38.2410   32.8880   39.7430 C   0  0  0  0  0  0  0  0  0  0  0  0
   38.7920   34.0180   40.2900 C   0  0  0  0  0  0  0  0  0  0  0  0
   40.1030   34.2980   39.8910 C   0  0  0  0  0  0  0  0  0  0  0  0
   40.7080   33.4340   39.0060 C   0  0  0  0  0  0  0  0  0  0  0  0
   40.1210   32.3250   38.4890 N   0  0  0  0  0  0  0  0  0  0  0  0
   37.2280   32.6460   40.0330 H   0  0  0  0  0  0  0  0  0  0  0  0
   38.2280   34.6250   40.9750 H   0  0  0  0  0  0  0  0  0  0  0  0
   40.5850   35.1620   40.2830 H   0  0  0  0  0  0  0  0  0  0  0  0
   42.0790   33.7060   38.5730 C   0  0  0  0  0  0  0  0  0  0  0  0
   42.5070   33.9030   37.2570 C   0  0  0  0  0  0  0  0  0  0  0  0
   41.8120   33.8640   36.4230 H   0  0  0  0  0  0  0  0  0  0  0  0
   43.8480   34.1310   37.2380 N   0  0  0  0  0  0  0  0  0  0  0  0
   44.3160   34.2990   36.2980 H   0  0  0  0  0  0  0  0  0  0  0  0
   44.2620   34.0780   38.5310 C   0  0  0  0  0  0  0  0  0  0  0  0
   45.3050   34.2310   38.7590 H   0  0  0  0  0  0  0  0  0  0  0  0
   43.1930   33.8240   39.3020 N   0  0  0  0  0  0  0  0  0  0  0  0
   35.1790   29.2610   39.0990 C   0  0  0  0  0  0  0  0  0  0  0  0
   34.2560   28.8110   38.6560 H   0  0  0  0  0  0  0  0  0  0  0  0
   34.9160   30.0410   39.8170 H   0  0  0  0  0  0  0  0  0  0  0  0
   36.8550   27.1000   41.7170 C   0  0  0  0  0  0  0  0  0  0  0  0
   36.1470   28.1770   41.1190 C   0  0  0  0  0  0  0  0  0  0  0  0
   35.9240   28.1630   39.7580 C   0  0  0  0  0  0  0  0  0  0  0  0
   36.4200   27.0760   39.0660 N   0  0  0  0  0  0  0  0  0  0  0  0
   37.0920   26.0720   39.6920 C   0  0  0  0  0  0  0  0  0  0  0  0
   37.3060   26.0880   41.0060 N   0  0  0  0  0  0  0  0  0  0  0  0
   35.7760   29.0140   41.7170 H   0  0  0  0  0  0  0  0  0  0  0  0
   37.4430   25.2620   39.0660 H   0  0  0  0  0  0  0  0  0  0  0  0
   37.1000   27.1370   43.1920 C   0  0  0  0  0  0  0  0  0  0  0  0
   38.5580   27.6600   43.5100 C   0  0  0  0  0  0  0  0  0  0  0  0
   37.3180   28.2880   43.9670 C   0  0  0  0  0  0  0  0  0  0  0  0
   36.9050   26.1340   43.6650 H   0  0  0  0  0  0  0  0  0  0  0  0
   39.0830   28.1710   42.6950 H   0  0  0  0  0  0  0  0  0  0  0  0
   39.1340   27.0210   44.1830 H   0  0  0  0  0  0  0  0  0  0  0  0
   37.1070   28.2670   45.0530 H   0  0  0  0  0  0  0  0  0  0  0  0
   37.0350   29.2960   43.5440 H   0  0  0  0  0  0  0  0  0  0  0  0
  1  6  1  0  0  0  0
  1 25  1  0  0  0  0
  2  1  1  0  0  0  0
  3  1  1  0  0  0  0
  4  8  1  0  0  0  0
  5  4  2  0  0  0  0
  6  4  1  0  0  0  0
  6  7  1  0  0  0  0
  8  9  1  0  0  0  0
  9 14  1  0  0  0  0
  9 10  2  0  0  0  0
 10 15  1  0  0  0  0
 11 16  1  0  0  0  0
 11 10  1  0  0  0  0
 12 11  2  0  0  0  0
 13  8  2  0  0  0  0
 13 12  1  0  0  0  0
 17 12  1  0  0  0  0
 17 24  1  0  0  0  0
 18 17  2  0  0  0  0
 19 18  1  0  0  0  0
 20 18  1  0  0  0  0
 20 22  1  0  0  0  0
 21 20  1  0  0  0  0
 22 23  1  0  0  0  0
 22 24  2  0  0  0  0
 25 30  1  0  0  0  0
 25 27  1  0  0  0  0
 26 25  1  0  0  0  0
 28 36  1  0  0  0  0
 29 34  1  0  0  0  0
 29 28  1  0  0  0  0
 30 29  2  0  0  0  0
 31 32  2  0  0  0  0
 31 30  1  0  0  0  0
 32 33  1  0  0  0  0
 33 28  2  0  0  0  0
 35 32  1  0  0  0  0
 36 37  1  0  0  0  0
 36 39  1  0  0  0  0
 36 38  1  0  0  0  0
 37 38  1  0  0  0  0
 37 41  1  0  0  0  0
 38 42  1  0  0  0  0
 40 37  1  0  0  0  0
 43 38  1  0  0  0  0
M  END
>  <minimizedAffinity>
-5.85941458

$$$$

 OpenBabel03242520233D

 43 46  0  0  0  0  0  0  0  0999 V2000
   36.3500   31.2590   40.8960 C   0  0  0  0  0  0  0  0  0  0  0  0
   36.2340   31.4690   41.9860 H   0  0  0  0  0  0  0  0  0  0  0  0
   35.6150   31.9180   40.3790 H   0  0  0  0  0  0  0  0  0  0  0  0
   37.9620   32.7790   39.8530 C   0  0  0  0  0  0  0  0  0  0  0  0
   37.0930   33.6640   39.6270 O   0  0  0  0  0  0  0  0  0  0  0  0
   37.7220   31.5630   40.5580 N   0  0  0  0  0  0  0  0  0  0  0  0
   38.4490   30.9010   40.8380 H   0  0  0  0  0  0  0  0  0  0  0  0
   39.3510   32.9730   39.3680 C   0  0  0  0  0  0  0  0  0  0  0  0
   40.0520   34.1010   39.7370 C   0  0  0  0  0  0  0  0  0  0  0  0
   41.3340   34.4010   39.3580 C   0  0  0  0  0  0  0  0  0  0  0  0
   41.9490   33.4590   38.5260 C   0  0  0  0  0  0  0  0  0  0  0  0
   41.2260   32.3420   38.1720 C   0  0  0  0  0  0  0  0  0  0  0  0
   39.9560   32.0870   38.5730 N   0  0  0  0  0  0  0  0  0  0  0  0
   39.5520   34.8110   40.3810 H   0  0  0  0  0  0  0  0  0  0  0  0
   41.8070   35.3070   39.6940 H   0  0  0  0  0  0  0  0  0  0  0  0
   42.9450   33.6370   38.1980 H   0  0  0  0  0  0  0  0  0  0  0  0
   41.8470   31.3410   37.3010 C   0  0  0  0  0  0  0  0  0  0  0  0
   41.3700   30.0520   37.0550 C   0  0  0  0  0  0  0  0  0  0  0  0
   40.4590   29.6850   37.5170 H   0  0  0  0  0  0  0  0  0  0  0  0
   42.2060   29.4090   36.1940 N   0  0  0  0  0  0  0  0  0  0  0  0
   41.9680   28.4110   35.9130 H   0  0  0  0  0  0  0  0  0  0  0  0
   43.2010   30.2870   35.9020 C   0  0  0  0  0  0  0  0  0  0  0  0
   43.9890   29.9880   35.2290 H   0  0  0  0  0  0  0  0  0  0  0  0
   42.9630   31.4260   36.5720 N   0  0  0  0  0  0  0  0  0  0  0  0
   35.9720   29.8260   40.5550 C   0  0  0  0  0  0  0  0  0  0  0  0
   36.3970   29.6390   39.5370 H   0  0  0  0  0  0  0  0  0  0  0  0
   34.8920   29.6640   40.5530 H   0  0  0  0  0  0  0  0  0  0  0  0
   37.2140   26.6620   42.2210 C   0  0  0  0  0  0  0  0  0  0  0  0
   36.5430   27.5270   41.3160 C   0  0  0  0  0  0  0  0  0  0  0  0
   36.6480   28.8920   41.4850 C   0  0  0  0  0  0  0  0  0  0  0  0
   37.4160   29.3210   42.5490 N   0  0  0  0  0  0  0  0  0  0  0  0
   38.0370   28.4450   43.3850 C   0  0  0  0  0  0  0  0  0  0  0  0
   37.9350   27.1290   43.2200 N   0  0  0  0  0  0  0  0  0  0  0  0
   35.9460   27.1310   40.4890 H   0  0  0  0  0  0  0  0  0  0  0  0
   38.6180   28.8760   44.1910 H   0  0  0  0  0  0  0  0  0  0  0  0
   37.0800   25.1840   42.0310 C   0  0  0  0  0  0  0  0  0  0  0  0
   38.0880   24.6630   40.9290 C   0  0  0  0  0  0  0  0  0  0  0  0
   38.0590   24.2200   42.3230 C   0  0  0  0  0  0  0  0  0  0  0  0
   36.0180   24.8960   41.7940 H   0  0  0  0  0  0  0  0  0  0  0  0
   38.9070   25.3380   40.6570 H   0  0  0  0  0  0  0  0  0  0  0  0
   37.6300   24.0540   40.1460 H   0  0  0  0  0  0  0  0  0  0  0  0
   37.7570   23.1740   42.5180 H   0  0  0  0  0  0  0  0  0  0  0  0
   38.9210   24.5000   42.9970 H   0  0  0  0  0  0  0  0  0  0  0  0
  1  2  1  0  0  0  0
  3  1  1  0  0  0  0
  4  6  1  0  0  0  0
  5  4  2  0  0  0  0
  6  7  1  0  0  0  0
  6  1  1  0  0  0  0
  8  9  1  0  0  0  0
  8  4  1  0  0  0  0
  9 14  1  0  0  0  0
 10 15  1  0  0  0  0
 10  9  2  0  0  0  0
 11 10  1  0  0  0  0
 12 11  2  0  0  0  0
 12 13  1  0  0  0  0
 13  8  2  0  0  0  0
 16 11  1  0  0  0  0
 17 12  1  0  0  0  0
 18 17  2  0  0  0  0
 18 19  1  0  0  0  0
 20 18  1  0  0  0  0
 21 20  1  0  0  0  0
 22 20  1  0  0  0  0
 22 24  2  0  0  0  0
 23 22  1  0  0  0  0
 24 17  1  0  0  0  0
 25  1  1  0  0  0  0
 25 30  1  0  0  0  0
 26 25  1  0  0  0  0
 27 25  1  0  0  0  0
 28 33  1  0  0  0  0
 29 30  1  0  0  0  0
 29 28  2  0  0  0  0
 30 31  2  0  0  0  0
 31 32  1  0  0  0  0
 32 35  1  0  0  0  0
 33 32  2  0  0  0  0
 34 29  1  0  0  0  0
 36 28  1  0  0  0  0
 36 38  1  0  0  0  0
 37 36  1  0  0  0  0
 37 38  1  0  0  0  0
 38 42  1  0  0  0  0
 38 43  1  0  0  0  0
 39 36  1  0  0  0  0
 40 37  1  0  0  0  0
 41 37  1  0  0  0  0
M  END
>  <minimizedAffinity>
-5.70116901

$$$$

 OpenBabel03242520233D

 43 46  0  0  0  0  0  0  0  0999 V2000
   37.0300   32.1240   39.4490 C   0  0  0  0  0  0  0  0  0  0  0  0
   37.1330   31.8760   38.3650 H   0  0  0  0  0  0  0  0  0  0  0  0
   35.9460   32.3220   39.6140 H   0  0  0  0  0  0  0  0  0  0  0  0
   36.5580   29.9980   40.5670 C   0  0  0  0  0  0  0  0  0  0  0  0
   35.3540   29.9850   40.1960 O   0  0  0  0  0  0  0  0  0  0  0  0
   37.5180   30.9800   40.1850 N   0  0  0  0  0  0  0  0  0  0  0  0
   38.5180   30.9290   40.3930 H   0  0  0  0  0  0  0  0  0  0  0  0
   37.0600   28.9320   41.4700 C   0  0  0  0  0  0  0  0  0  0  0  0
   37.5440   29.2650   42.7170 C   0  0  0  0  0  0  0  0  0  0  0  0
   38.0380   28.3820   43.6410 C   0  0  0  0  0  0  0  0  0  0  0  0
   38.0330   27.0390   43.2490 C   0  0  0  0  0  0  0  0  0  0  0  0
   37.5430   26.7330   41.9990 C   0  0  0  0  0  0  0  0  0  0  0  0
   37.0640   27.6450   41.1150 N   0  0  0  0  0  0  0  0  0  0  0  0
   37.5360   30.3100   42.9920 H   0  0  0  0  0  0  0  0  0  0  0  0
   38.3970   28.7300   44.5930 H   0  0  0  0  0  0  0  0  0  0  0  0
   38.4040   26.3060   43.9250 H   0  0  0  0  0  0  0  0  0  0  0  0
   37.5280   25.3360   41.5640 C   0  0  0  0  0  0  0  0  0  0  0  0
   38.3220   24.3040   42.0710 C   0  0  0  0  0  0  0  0  0  0  0  0
   39.0440   24.4800   42.8630 H   0  0  0  0  0  0  0  0  0  0  0  0
   38.0320   23.1410   41.4270 N   0  0  0  0  0  0  0  0  0  0  0  0
   38.5630   22.2640   41.7100 H   0  0  0  0  0  0  0  0  0  0  0  0
   37.0630   23.4380   40.5220 C   0  0  0  0  0  0  0  0  0  0  0  0
   36.6740   22.6570   39.8890 H   0  0  0  0  0  0  0  0  0  0  0  0
   36.7820   24.7460   40.6250 N   0  0  0  0  0  0  0  0  0  0  0  0
   37.7700   33.4040   39.8060 C   0  0  0  0  0  0  0  0  0  0  0  0
   37.6420   33.5240   40.9100 H   0  0  0  0  0  0  0  0  0  0  0  0
   37.3810   34.2770   39.2790 H   0  0  0  0  0  0  0  0  0  0  0  0
   41.5350   33.7400   40.0260 C   0  0  0  0  0  0  0  0  0  0  0  0
   40.1520   33.9360   40.2890 C   0  0  0  0  0  0  0  0  0  0  0  0
   39.2200   33.2350   39.5530 C   0  0  0  0  0  0  0  0  0  0  0  0
   39.7160   32.3750   38.5930 N   0  0  0  0  0  0  0  0  0  0  0  0
   41.0530   32.2270   38.3850 C   0  0  0  0  0  0  0  0  0  0  0  0
   41.9510   32.9050   39.0960 N   0  0  0  0  0  0  0  0  0  0  0  0
   39.8150   34.6310   41.0630 H   0  0  0  0  0  0  0  0  0  0  0  0
   41.3460   31.5300   37.6100 H   0  0  0  0  0  0  0  0  0  0  0  0
   42.5320   34.5170   40.8240 C   0  0  0  0  0  0  0  0  0  0  0  0
   43.1640   33.6210   41.9650 C   0  0  0  0  0  0  0  0  0  0  0  0
   43.9140   34.2710   40.8890 C   0  0  0  0  0  0  0  0  0  0  0  0
   42.0800   35.4610   41.2390 H   0  0  0  0  0  0  0  0  0  0  0  0
   43.0270   32.5380   41.8680 H   0  0  0  0  0  0  0  0  0  0  0  0
   43.1320   34.0660   42.9620 H   0  0  0  0  0  0  0  0  0  0  0  0
   44.6040   35.0870   41.1720 H   0  0  0  0  0  0  0  0  0  0  0  0
   44.3930   33.6240   40.0980 H   0  0  0  0  0  0  0  0  0  0  0  0
  1  3  1  0  0  0  0
  1 25  1  0  0  0  0
  1  6  1  0  0  0  0
  2  1  1  0  0  0  0
  4  8  1  0  0  0  0
  5  4  2  0  0  0  0
  6  7  1  0  0  0  0
  6  4  1  0  0  0  0
  8  9  1  0  0  0  0
  9 14  1  0  0  0  0
  9 10  2  0  0  0  0
 10 15  1  0  0  0  0
 11 10  1  0  0  0  0
 11 16  1  0  0  0  0
 12 11  2  0  0  0  0
 13  8  2  0  0  0  0
 13 12  1  0  0  0  0
 17 12  1  0  0  0  0
 17 18  2  0  0  0  0
 18 19  1  0  0  0  0
 20 21  1  0  0  0  0
 20 18  1  0  0  0  0
 22 24  2  0  0  0  0
 22 20  1  0  0  0  0
 23 22  1  0  0  0  0
 24 17  1  0  0  0  0
 25 26  1  0  0  0  0
 27 25  1  0  0  0  0
 28 29  1  0  0  0  0
 28 36  1  0  0  0  0
 29 34  1  0  0  0  0
 30 25  1  0  0  0  0
 30 29  2  0  0  0  0
 31 30  1  0  0  0  0
 32 31  2  0  0  0  0
 32 33  1  0  0  0  0
 33 28  2  0  0  0  0
 35 32  1  0  0  0  0
 36 38  1  0  0  0  0
 36 39  1  0  0  0  0
 36 37  1  0  0  0  0
 37 41  1  0  0  0  0
 38 42  1  0  0  0  0
 38 37  1  0  0  0  0
 40 37  1  0  0  0  0
 43 38  1  0  0  0  0
M  END
>  <minimizedAffinity>
-5.58286667

$$$$

 OpenBabel03242520233D

 43 46  0  0  0  0  0  0  0  0999 V2000
   36.2530   31.1600   40.8410 C   0  0  0  0  0  0  0  0  0  0  0  0
   36.0040   31.3660   41.9090 H   0  0  0  0  0  0  0  0  0  0  0  0
   35.5190   31.7440   40.2390 H   0  0  0  0  0  0  0  0  0  0  0  0
   37.9570   32.1100   39.3600 C   0  0  0  0  0  0  0  0  0  0  0  0
   37.1290   32.3510   38.4410 O   0  0  0  0  0  0  0  0  0  0  0  0
   37.6190   31.5880   40.6440 N   0  0  0  0  0  0  0  0  0  0  0  0
   38.2730   31.4990   41.4250 H   0  0  0  0  0  0  0  0  0  0  0  0
   39.4000   32.3730   39.1370 C   0  0  0  0  0  0  0  0  0  0  0  0
   39.9520   32.1440   37.8950 C   0  0  0  0  0  0  0  0  0  0  0  0
   41.2660   32.3410   37.5590 C   0  0  0  0  0  0  0  0  0  0  0  0
   42.0830   32.8170   38.5900 C   0  0  0  0  0  0  0  0  0  0  0  0
   41.5070   33.0370   39.8210 C   0  0  0  0  0  0  0  0  0  0  0  0
   40.1980   32.8260   40.1070 N   0  0  0  0  0  0  0  0  0  0  0  0
   39.2960   31.7770   37.1180 H   0  0  0  0  0  0  0  0  0  0  0  0
   41.6120   32.1350   36.5620 H   0  0  0  0  0  0  0  0  0  0  0  0
   43.1140   32.9890   38.3890 H   0  0  0  0  0  0  0  0  0  0  0  0
   42.3410   33.5340   40.9160 C   0  0  0  0  0  0  0  0  0  0  0  0
   42.2880   34.8100   41.4820 C   0  0  0  0  0  0  0  0  0  0  0  0
   41.5880   35.5600   41.1270 H   0  0  0  0  0  0  0  0  0  0  0  0
   43.2110   34.9110   42.4770 N   0  0  0  0  0  0  0  0  0  0  0  0
   43.2850   35.8340   43.0020 H   0  0  0  0  0  0  0  0  0  0  0  0
   43.8390   33.7080   42.5380 C   0  0  0  0  0  0  0  0  0  0  0  0
   44.6210   33.5560   43.2650 H   0  0  0  0  0  0  0  0  0  0  0  0
   43.3040   32.9090   41.6010 N   0  0  0  0  0  0  0  0  0  0  0  0
   36.0470   29.6960   40.4860 C   0  0  0  0  0  0  0  0  0  0  0  0
   36.4900   29.5700   39.4670 H   0  0  0  0  0  0  0  0  0  0  0  0
   34.9950   29.4060   40.4840 H   0  0  0  0  0  0  0  0  0  0  0  0
   37.8230   26.7230   42.0170 C   0  0  0  0  0  0  0  0  0  0  0  0
   37.0580   27.5100   41.1150 C   0  0  0  0  0  0  0  0  0  0  0  0
   36.8310   28.8390   41.4070 C   0  0  0  0  0  0  0  0  0  0  0  0
   37.3780   29.3110   42.5840 N   0  0  0  0  0  0  0  0  0  0  0  0
   38.1030   28.5090   43.4100 C   0  0  0  0  0  0  0  0  0  0  0  0
   38.3210   27.2280   43.1270 N   0  0  0  0  0  0  0  0  0  0  0  0
   36.6480   27.0830   40.1960 H   0  0  0  0  0  0  0  0  0  0  0  0
   38.4910   28.9690   44.3100 H   0  0  0  0  0  0  0  0  0  0  0  0
   38.0510   25.2810   41.6910 C   0  0  0  0  0  0  0  0  0  0  0  0
   36.8010   24.4040   42.1070 C   0  0  0  0  0  0  0  0  0  0  0  0
   37.3350   24.5220   40.7500 C   0  0  0  0  0  0  0  0  0  0  0  0
   39.0010   24.8990   42.1580 H   0  0  0  0  0  0  0  0  0  0  0  0
   35.8690   24.9450   42.3050 H   0  0  0  0  0  0  0  0  0  0  0  0
   37.0410   23.5330   42.7220 H   0  0  0  0  0  0  0  0  0  0  0  0
   37.7980   23.6210   40.3060 H   0  0  0  0  0  0  0  0  0  0  0  0
   36.7170   25.0560   39.9710 H   0  0  0  0  0  0  0  0  0  0  0  0
  1  2  1  0  0  0  0
  3  1  1  0  0  0  0
  4  6  1  0  0  0  0
  5  4  2  0  0  0  0
  6  1  1  0  0  0  0
  6  7  1  0  0  0  0
  8  4  1  0  0  0  0
  8 13  1  0  0  0  0
  9  8  2  0  0  0  0
 10  9  1  0  0  0  0
 10 11  2  0  0  0  0
 11 12  1  0  0  0  0
 12 13  2  0  0  0  0
 12 17  1  0  0  0  0
 14  9  1  0  0  0  0
 15 10  1  0  0  0  0
 16 11  1  0  0  0  0
 17 18  2  0  0  0  0
 17 24  1  0  0  0  0
 18 20  1  0  0  0  0
 19 18  1  0  0  0  0
 20 22  1  0  0  0  0
 20 21  1  0  0  0  0
 22 23  1  0  0  0  0
 24 22  2  0  0  0  0
 25  1  1  0  0  0  0
 25 30  1  0  0  0  0
 26 25  1  0  0  0  0
 27 25  1  0  0  0  0
 28 33  1  0  0  0  0
 29 30  1  0  0  0  0
 29 28  2  0  0  0  0
 30 31  2  0  0  0  0
 31 32  1  0  0  0  0
 32 35  1  0  0  0  0
 33 32  2  0  0  0  0
 34 29  1  0  0  0  0
 36 28  1  0  0  0  0
 36 37  1  0  0  0  0
 36 39  1  0  0  0  0
 37 40  1  0  0  0  0
 37 41  1  0  0  0  0
 38 36  1  0  0  0  0
 38 37  1  0  0  0  0
 42 38  1  0  0  0  0
 43 38  1  0  0  0  0
M  END
>  <minimizedAffinity>
-5.51260424

$$$$

 OpenBabel03242520233D

 43 46  0  0  0  0  0  0  0  0999 V2000
   38.7850   25.4780   42.5560 C   0  0  0  0  0  0  0  0  0  0  0  0
   39.8040   25.1860   42.2030 H   0  0  0  0  0  0  0  0  0  0  0  0
   38.8840   25.6660   43.6500 H   0  0  0  0  0  0  0  0  0  0  0  0
   37.6590   27.6520   42.5010 C   0  0  0  0  0  0  0  0  0  0  0  0
   37.4240   27.6440   43.7390 O   0  0  0  0  0  0  0  0  0  0  0  0
   38.4080   26.6550   41.8080 N   0  0  0  0  0  0  0  0  0  0  0  0
   38.6930   26.7190   40.8280 H   0  0  0  0  0  0  0  0  0  0  0  0
   37.1380   28.7590   41.6610 C   0  0  0  0  0  0  0  0  0  0  0  0
   35.9620   28.5910   40.9630 C   0  0  0  0  0  0  0  0  0  0  0  0
   35.3770   29.5280   40.1520 C   0  0  0  0  0  0  0  0  0  0  0  0
   36.0610   30.7440   40.0510 C   0  0  0  0  0  0  0  0  0  0  0  0
   37.2340   30.8860   40.7590 C   0  0  0  0  0  0  0  0  0  0  0  0
   37.7760   29.9270   41.5510 N   0  0  0  0  0  0  0  0  0  0  0  0
   35.4560   27.6410   41.0600 H   0  0  0  0  0  0  0  0  0  0  0  0
   34.4550   29.3120   39.6420 H   0  0  0  0  0  0  0  0  0  0  0  0
   35.6550   31.5120   39.4360 H   0  0  0  0  0  0  0  0  0  0  0  0
   37.9690   32.1490   40.6700 C   0  0  0  0  0  0  0  0  0  0  0  0
   39.2340   32.4080   41.2030 C   0  0  0  0  0  0  0  0  0  0  0  0
   39.7860   31.6490   41.7490 H   0  0  0  0  0  0  0  0  0  0  0  0
   39.5980   33.6890   40.9230 N   0  0  0  0  0  0  0  0  0  0  0  0
   40.5450   34.0290   41.2690 H   0  0  0  0  0  0  0  0  0  0  0  0
   38.5700   34.2320   40.2190 C   0  0  0  0  0  0  0  0  0  0  0  0
   38.6400   35.2550   39.8870 H   0  0  0  0  0  0  0  0  0  0  0  0
   37.6170   33.2970   40.0830 N   0  0  0  0  0  0  0  0  0  0  0  0
   37.7870   24.3430   42.3940 C   0  0  0  0  0  0  0  0  0  0  0  0
   36.8490   24.6960   42.8910 H   0  0  0  0  0  0  0  0  0  0  0  0
   38.1300   23.4100   42.8470 H   0  0  0  0  0  0  0  0  0  0  0  0
   35.9250   23.6580   39.1690 C   0  0  0  0  0  0  0  0  0  0  0  0
   36.1930   23.8240   40.5540 C   0  0  0  0  0  0  0  0  0  0  0  0
   37.4700   24.1500   40.9590 C   0  0  0  0  0  0  0  0  0  0  0  0
   38.4130   24.2940   39.9600 N   0  0  0  0  0  0  0  0  0  0  0  0
   38.0990   24.1230   38.6470 C   0  0  0  0  0  0  0  0  0  0  0  0
   36.8660   23.8080   38.2590 N   0  0  0  0  0  0  0  0  0  0  0  0
   35.4060   23.6980   41.3030 H   0  0  0  0  0  0  0  0  0  0  0  0
   38.9050   24.2550   37.9370 H   0  0  0  0  0  0  0  0  0  0  0  0
   34.5370   23.2920   38.7480 C   0  0  0  0  0  0  0  0  0  0  0  0
   34.3640   21.7220   38.6780 C   0  0  0  0  0  0  0  0  0  0  0  0
   33.5850   22.6190   39.5310 C   0  0  0  0  0  0  0  0  0  0  0  0
   34.2610   23.7860   37.7740 H   0  0  0  0  0  0  0  0  0  0  0  0
   35.1290   21.1220   39.1840 H   0  0  0  0  0  0  0  0  0  0  0  0
   33.9470   21.3520   37.7380 H   0  0  0  0  0  0  0  0  0  0  0  0
   32.5090   22.7310   39.3010 H   0  0  0  0  0  0  0  0  0  0  0  0
   33.7330   22.5660   40.6490 H   0  0  0  0  0  0  0  0  0  0  0  0
  1  3  1  0  0  0  0
  2  1  1  0  0  0  0
  4  5  2  0  0  0  0
  6  4  1  0  0  0  0
  6  1  1  0  0  0  0
  7  6  1  0  0  0  0
  8  4  1  0  0  0  0
  9 14  1  0  0  0  0
  9  8  2  0  0  0  0
 10  9  1  0  0  0  0
 11 10  2  0  0  0  0
 11 12  1  0  0  0  0
 12 13  2  0  0  0  0
 13  8  1  0  0  0  0
 15 10  1  0  0  0  0
 16 11  1  0  0  0  0
 17 12  1  0  0  0  0
 17 18  2  0  0  0  0
 18 19  1  0  0  0  0
 20 18  1  0  0  0  0
 20 21  1  0  0  0  0
 22 20  1  0  0  0  0
 23 22  1  0  0  0  0
 24 22  2  0  0  0  0
 24 17  1  0  0  0  0
 25  1  1  0  0  0  0
 25 27  1  0  0  0  0
 25 26  1  0  0  0  0
 28 29  1  0  0  0  0
 29 30  2  0  0  0  0
 29 34  1  0  0  0  0
 30 25  1  0  0  0  0
 31 30  1  0  0  0  0
 32 31  2  0  0  0  0
 33 32  1  0  0  0  0
 33 28  2  0  0  0  0
 35 32  1  0  0  0  0
 36 28  1  0  0  0  0
 36 38  1  0  0  0  0
 37 36  1  0  0  0  0
 37 40  1  0  0  0  0
 37 38  1  0  0  0  0
 38 43  1  0  0  0  0
 39 36  1  0  0  0  0
 41 37  1  0  0  0  0
 42 38  1  0  0  0  0
M  END
>  <minimizedAffinity>
-5.49839544

$$$$

 OpenBabel03242520233D

 43 46  0  0  0  0  0  0  0  0999 V2000
   36.8120   28.2460   41.0400 C   0  0  0  0  0  0  0  0  0  0  0  0
   35.8200   28.6660   40.7450 H   0  0  0  0  0  0  0  0  0  0  0  0
   36.9430   27.3210   40.4330 H   0  0  0  0  0  0  0  0  0  0  0  0
   37.3370   30.6120   40.6890 C   0  0  0  0  0  0  0  0  0  0  0  0
   36.1780   30.9920   41.0040 O   0  0  0  0  0  0  0  0  0  0  0  0
   37.7970   29.2630   40.7490 N   0  0  0  0  0  0  0  0  0  0  0  0
   38.7650   28.9720   40.6010 H   0  0  0  0  0  0  0  0  0  0  0  0
   38.3320   31.6050   40.2140 C   0  0  0  0  0  0  0  0  0  0  0  0
   38.2720   32.9040   40.6700 C   0  0  0  0  0  0  0  0  0  0  0  0
   39.1240   33.9150   40.3090 C   0  0  0  0  0  0  0  0  0  0  0  0
   40.1260   33.5580   39.4000 C   0  0  0  0  0  0  0  0  0  0  0  0
   40.1640   32.2540   38.9600 C   0  0  0  0  0  0  0  0  0  0  0  0
   39.2960   31.2850   39.3460 N   0  0  0  0  0  0  0  0  0  0  0  0
   37.4880   33.1500   41.3720 H   0  0  0  0  0  0  0  0  0  0  0  0
   39.0040   34.9030   40.7150 H   0  0  0  0  0  0  0  0  0  0  0  0
   40.8180   34.3010   39.0820 H   0  0  0  0  0  0  0  0  0  0  0  0
   41.2020   31.8560   38.0080 C   0  0  0  0  0  0  0  0  0  0  0  0
   42.2340   32.6630   37.5250 C   0  0  0  0  0  0  0  0  0  0  0  0
   42.3410   33.6970   37.8410 H   0  0  0  0  0  0  0  0  0  0  0  0
   43.0070   31.9540   36.6580 N   0  0  0  0  0  0  0  0  0  0  0  0
   43.8370   32.4440   36.2090 H   0  0  0  0  0  0  0  0  0  0  0  0
   42.4650   30.7090   36.5960 C   0  0  0  0  0  0  0  0  0  0  0  0
   42.9200   29.9670   35.9600 H   0  0  0  0  0  0  0  0  0  0  0  0
   41.3960   30.6780   37.4060 N   0  0  0  0  0  0  0  0  0  0  0  0
   36.8310   27.8210   42.5000 C   0  0  0  0  0  0  0  0  0  0  0  0
   35.8360   27.3440   42.6850 H   0  0  0  0  0  0  0  0  0  0  0  0
   36.9850   28.6590   43.1820 H   0  0  0  0  0  0  0  0  0  0  0  0
   40.0010   26.0310   43.5380 C   0  0  0  0  0  0  0  0  0  0  0  0
   39.0450   27.0640   43.3470 C   0  0  0  0  0  0  0  0  0  0  0  0
   37.8590   26.7730   42.7070 C   0  0  0  0  0  0  0  0  0  0  0  0
   37.6900   25.4680   42.2890 N   0  0  0  0  0  0  0  0  0  0  0  0
   38.6420   24.5190   42.4990 C   0  0  0  0  0  0  0  0  0  0  0  0
   39.7860   24.8010   43.1170 N   0  0  0  0  0  0  0  0  0  0  0  0
   39.2320   28.0820   43.7000 H   0  0  0  0  0  0  0  0  0  0  0  0
   38.4200   23.5240   42.1350 H   0  0  0  0  0  0  0  0  0  0  0  0
   41.2880   26.3650   44.2240 C   0  0  0  0  0  0  0  0  0  0  0  0
   42.4680   26.4950   43.1780 C   0  0  0  0  0  0  0  0  0  0  0  0
   42.0180   27.5560   44.0790 C   0  0  0  0  0  0  0  0  0  0  0  0
   41.5280   25.6190   45.0320 H   0  0  0  0  0  0  0  0  0  0  0  0
   42.1800   26.6030   42.1270 H   0  0  0  0  0  0  0  0  0  0  0  0
   43.3560   25.9050   43.4190 H   0  0  0  0  0  0  0  0  0  0  0  0
   42.7140   27.8740   44.8780 H   0  0  0  0  0  0  0  0  0  0  0  0
   41.5090   28.4610   43.6350 H   0  0  0  0  0  0  0  0  0  0  0  0
  1 25  1  0  0  0  0
  2  1  1  0  0  0  0
  3  1  1  0  0  0  0
  4  6  1  0  0  0  0
  4  5  2  0  0  0  0
  6  1  1  0  0  0  0
  7  6  1  0  0  0  0
  8  9  1  0  0  0  0
  8  4  1  0  0  0  0
  9 14  1  0  0  0  0
 10  9  2  0  0  0  0
 10 15  1  0  0  0  0
 11 10  1  0  0  0  0
 12 13  1  0  0  0  0
 12 11  2  0  0  0  0
 13  8  2  0  0  0  0
 16 11  1  0  0  0  0
 17 12  1  0  0  0  0
 18 19  1  0  0  0  0
 18 17  2  0  0  0  0
 20 18  1  0  0  0  0
 21 20  1  0  0  0  0
 22 20  1  0  0  0  0
 22 24  2  0  0  0  0
 23 22  1  0  0  0  0
 24 17  1  0  0  0  0
 25 26  1  0  0  0  0
 25 30  1  0  0  0  0
 25 27  1  0  0  0  0
 28 36  1  0  0  0  0
 29 28  1  0  0  0  0
 29 34  1  0  0  0  0
 30 29  2  0  0  0  0
 31 32  2  0  0  0  0
 31 30  1  0  0  0  0
 32 33  1  0  0  0  0
 33 28  2  0  0  0  0
 35 32  1  0  0  0  0
 36 39  1  0  0  0  0
 37 41  1  0  0  0  0
 37 38  1  0  0  0  0
 37 36  1  0  0  0  0
 38 36  1  0  0  0  0
 38 42  1  0  0  0  0
 40 37  1  0  0  0  0
 43 38  1  0  0  0  0
M  END
>  <minimizedAffinity>
-5.48886251

$$$$

 OpenBabel03242520233D

 43 46  0  0  0  0  0  0  0  0999 V2000
   36.9340   24.7270   40.3330 C   0  0  0  0  0  0  0  0  0  0  0  0
   36.0540   24.2140   39.8730 H   0  0  0  0  0  0  0  0  0  0  0  0
   37.8190   24.1020   40.0730 H   0  0  0  0  0  0  0  0  0  0  0  0
   36.2230   26.2800   38.5780 C   0  0  0  0  0  0  0  0  0  0  0  0
   35.4090   25.4590   38.0780 O   0  0  0  0  0  0  0  0  0  0  0  0
   36.9860   26.0530   39.7620 N   0  0  0  0  0  0  0  0  0  0  0  0
   37.5600   26.7600   40.2270 H   0  0  0  0  0  0  0  0  0  0  0  0
   36.4390   27.5930   37.9210 C   0  0  0  0  0  0  0  0  0  0  0  0
   36.5080   27.6660   36.5470 C   0  0  0  0  0  0  0  0  0  0  0  0
   36.7060   28.8110   35.8190 C   0  0  0  0  0  0  0  0  0  0  0  0
   36.8450   29.9820   36.5710 C   0  0  0  0  0  0  0  0  0  0  0  0
   36.7720   29.8810   37.9420 C   0  0  0  0  0  0  0  0  0  0  0  0
   36.5740   28.7230   38.6200 N   0  0  0  0  0  0  0  0  0  0  0  0
   36.3970   26.7450   35.9920 H   0  0  0  0  0  0  0  0  0  0  0  0
   36.7470   28.7760   34.7450 H   0  0  0  0  0  0  0  0  0  0  0  0
   37.0010   30.9030   36.0620 H   0  0  0  0  0  0  0  0  0  0  0  0
   36.9150   31.0930   38.7520 C   0  0  0  0  0  0  0  0  0  0  0  0
   36.6050   31.2210   40.1080 C   0  0  0  0  0  0  0  0  0  0  0  0
   36.2160   30.3870   40.6830 H   0  0  0  0  0  0  0  0  0  0  0  0
   36.8670   32.4910   40.5220 N   0  0  0  0  0  0  0  0  0  0  0  0
   36.6780   32.7370   41.5390 H   0  0  0  0  0  0  0  0  0  0  0  0
   37.3380   33.1560   39.4340 C   0  0  0  0  0  0  0  0  0  0  0  0
   37.6140   34.1940   39.5290 H   0  0  0  0  0  0  0  0  0  0  0  0
   37.3560   32.3030   38.3980 N   0  0  0  0  0  0  0  0  0  0  0  0
   36.8420   24.7510   41.8500 C   0  0  0  0  0  0  0  0  0  0  0  0
   37.4200   23.8590   42.1990 H   0  0  0  0  0  0  0  0  0  0  0  0
   35.8130   24.7030   42.2110 H   0  0  0  0  0  0  0  0  0  0  0  0
   39.4930   27.0630   43.2490 C   0  0  0  0  0  0  0  0  0  0  0  0
   38.8590   25.8910   42.7580 C   0  0  0  0  0  0  0  0  0  0  0  0
   37.5350   25.9490   42.3790 C   0  0  0  0  0  0  0  0  0  0  0  0
   36.9120   27.1740   42.5110 N   0  0  0  0  0  0  0  0  0  0  0  0
   37.5700   28.2660   42.9890 C   0  0  0  0  0  0  0  0  0  0  0  0
   38.8480   28.2070   43.3540 N   0  0  0  0  0  0  0  0  0  0  0  0
   39.4020   24.9450   42.6740 H   0  0  0  0  0  0  0  0  0  0  0  0
   36.9980   29.1820   43.0570 H   0  0  0  0  0  0  0  0  0  0  0  0
   40.9270   26.9800   43.6670 C   0  0  0  0  0  0  0  0  0  0  0  0
   41.8890   27.1960   42.4300 C   0  0  0  0  0  0  0  0  0  0  0  0
   41.8610   28.0280   43.6330 C   0  0  0  0  0  0  0  0  0  0  0  0
   41.1430   26.0120   44.2000 H   0  0  0  0  0  0  0  0  0  0  0  0
   41.4400   27.6350   41.5330 H   0  0  0  0  0  0  0  0  0  0  0  0
   42.6540   26.4250   42.3090 H   0  0  0  0  0  0  0  0  0  0  0  0
   42.7470   27.9950   44.2950 H   0  0  0  0  0  0  0  0  0  0  0  0
   41.4900   29.0910   43.5470 H   0  0  0  0  0  0  0  0  0  0  0  0
  1 25  1  0  0  0  0
  2  1  1  0  0  0  0
  3  1  1  0  0  0  0
  4  6  1  0  0  0  0
  5  4  2  0  0  0  0
  6  7  1  0  0  0  0
  6  1  1  0  0  0  0
  8  4  1  0  0  0  0
  8 13  1  0  0  0  0
  9  8  2  0  0  0  0
 10  9  1  0  0  0  0
 10 11  2  0  0  0  0
 11 12  1  0  0  0  0
 12 13  2  0  0  0  0
 12 17  1  0  0  0  0
 14  9  1  0  0  0  0
 15 10  1  0  0  0  0
 16 11  1  0  0  0  0
 17 18  2  0  0  0  0
 18 20  1  0  0  0  0
 18 19  1  0  0  0  0
 20 21  1  0  0  0  0
 22 23  1  0  0  0  0
 22 20  1  0  0  0  0
 24 17  1  0  0  0  0
 24 22  2  0  0  0  0
 25 26  1  0  0  0  0
 25 27  1  0  0  0  0
 25 30  1  0  0  0  0
 28 33  1  0  0  0  0
 28 36  1  0  0  0  0
 29 28  2  0  0  0  0
 30 31  2  0  0  0  0
 30 29  1  0  0  0  0
 31 32  1  0  0  0  0
 32 35  1  0  0  0  0
 32 33  2  0  0  0  0
 34 29  1  0  0  0  0
 36 39  1  0  0  0  0
 37 38  1  0  0  0  0
 37 36  1  0  0  0  0
 38 36  1  0  0  0  0
 38 42  1  0  0  0  0
 40 37  1  0  0  0  0
 41 37  1  0  0  0  0
 43 38  1  0  0  0  0
M  END
>  <minimizedAffinity>
-5.43000364

$$$$
