
 OpenBabel03252501213D

 31 32  0  0  0  0  0  0  0  0999 V2000
   37.3340   29.1940   43.4720 N   0  0  0  0  0  0  0  0  0  0  0  0
   36.4670   29.7210   43.7880 H   0  0  0  0  0  0  0  0  0  0  0  0
   37.3950   29.3780   42.0100 C   0  0  0  0  0  0  0  0  0  0  0  0
   37.7550   28.3780   41.6310 H   0  0  0  0  0  0  0  0  0  0  0  0
   36.4280   29.5320   41.5610 H   0  0  0  0  0  0  0  0  0  0  0  0
   39.6500   30.3080   42.3030 C   0  0  0  0  0  0  0  0  0  0  0  0
   38.4050   30.3710   41.6900 C   0  0  0  0  0  0  0  0  0  0  0  0
   38.2010   31.4120   40.7830 C   0  0  0  0  0  0  0  0  0  0  0  0
   39.2120   32.3150   40.5340 N   0  0  0  0  0  0  0  0  0  0  0  0
   40.4050   32.2000   41.1650 C   0  0  0  0  0  0  0  0  0  0  0  0
   40.6300   31.1970   42.0520 N   0  0  0  0  0  0  0  0  0  0  0  0
   39.8350   29.5140   43.0100 H   0  0  0  0  0  0  0  0  0  0  0  0
   41.2130   32.8890   40.9920 H   0  0  0  0  0  0  0  0  0  0  0  0
   36.8830   31.4500   40.1570 C   0  0  0  0  0  0  0  0  0  0  0  0
   36.7450   32.6560   39.4690 F   0  0  0  0  0  0  0  0  0  0  0  0
   35.9590   31.4660   41.1560 F   0  0  0  0  0  0  0  0  0  0  0  0
   36.7350   30.4600   39.2330 F   0  0  0  0  0  0  0  0  0  0  0  0
   37.0650   27.8070   43.6800 C   0  0  0  0  0  0  0  0  0  0  0  0
   36.0880   27.7280   44.2080 H   0  0  0  0  0  0  0  0  0  0  0  0
   37.8280   27.3300   44.3470 H   0  0  0  0  0  0  0  0  0  0  0  0
   36.9190   27.0290   42.3880 C   0  0  0  0  0  0  0  0  0  0  0  0
   35.8720   26.6920   42.3190 H   0  0  0  0  0  0  0  0  0  0  0  0
   37.1960   27.6360   41.5030 H   0  0  0  0  0  0  0  0  0  0  0  0
   37.7890   25.8250   42.4430 C   0  0  0  0  0  0  0  0  0  0  0  0
   37.3890   24.5430   42.0530 C   0  0  0  0  0  0  0  0  0  0  0  0
   36.4040   24.3210   41.6750 H   0  0  0  0  0  0  0  0  0  0  0  0
   38.3630   23.6340   42.2020 N   0  0  0  0  0  0  0  0  0  0  0  0
   38.2640   22.6250   41.9690 H   0  0  0  0  0  0  0  0  0  0  0  0
   39.4010   24.3510   42.6970 C   0  0  0  0  0  0  0  0  0  0  0  0
   40.3560   23.8700   42.9260 H   0  0  0  0  0  0  0  0  0  0  0  0
   39.0690   25.6440   42.8420 N   0  0  0  0  0  0  0  0  0  0  0  0
  1 18  1  0  0  0  0
  1  2  1  0  0  0  0
  3  1  1  0  0  0  0
  4  3  1  0  0  0  0
  5  3  1  0  0  0  0
  6 12  1  0  0  0  0
  7  3  1  0  0  0  0
  7  6  2  0  0  0  0
  8  7  1  0  0  0  0
  9  8  2  0  0  0  0
  9 10  1  0  0  0  0
 10 11  2  0  0  0  0
 11  6  1  0  0  0  0
 13 10  1  0  0  0  0
 14  8  1  0  0  0  0
 14 16  1  0  0  0  0
 15 14  1  0  0  0  0
 17 14  1  0  0  0  0
 18 19  1  0  0  0  0
 18 20  1  0  0  0  0
 21 24  1  0  0  0  0
 21 18  1  0  0  0  0
 22 21  1  0  0  0  0
 23 21  1  0  0  0  0
 24 31  1  0  0  0  0
 25 27  1  0  0  0  0
 25 24  2  0  0  0  0
 26 25  1  0  0  0  0
 27 29  1  0  0  0  0
 28 27  1  0  0  0  0
 29 31  2  0  0  0  0
 29 30  1  0  0  0  0
M  END
>  <minimizedAffinity>
-4.92469025

$$$$

 OpenBabel03252501213D

 31 32  0  0  0  0  0  0  0  0999 V2000
   36.8790   28.9830   42.5640 N   0  0  0  0  0  0  0  0  0  0  0  0
   37.9190   29.1800   42.6630 H   0  0  0  0  0  0  0  0  0  0  0  0
   36.7430   27.5180   42.6710 C   0  0  0  0  0  0  0  0  0  0  0  0
   36.1510   27.3760   43.6210 H   0  0  0  0  0  0  0  0  0  0  0  0
   36.1450   27.0890   41.8840 H   0  0  0  0  0  0  0  0  0  0  0  0
   39.0610   27.6630   43.4720 C   0  0  0  0  0  0  0  0  0  0  0  0
   38.0540   26.9240   42.8630 C   0  0  0  0  0  0  0  0  0  0  0  0
   38.3780   25.6270   42.4650 C   0  0  0  0  0  0  0  0  0  0  0  0
   39.6470   25.1360   42.6840 N   0  0  0  0  0  0  0  0  0  0  0  0
   40.5850   25.9060   43.2830 C   0  0  0  0  0  0  0  0  0  0  0  0
   40.2990   27.1730   43.6800 N   0  0  0  0  0  0  0  0  0  0  0  0
   38.8400   28.6700   43.7900 H   0  0  0  0  0  0  0  0  0  0  0  0
   41.5840   25.5520   43.4670 H   0  0  0  0  0  0  0  0  0  0  0  0
   37.2980   24.8780   41.8290 C   0  0  0  0  0  0  0  0  0  0  0  0
   37.7680   23.6080   41.4890 F   0  0  0  0  0  0  0  0  0  0  0  0
   37.0020   25.5070   40.6580 F   0  0  0  0  0  0  0  0  0  0  0  0
   36.2490   24.6870   42.6760 F   0  0  0  0  0  0  0  0  0  0  0  0
   36.5290   29.3100   41.2190 C   0  0  0  0  0  0  0  0  0  0  0  0
   35.6070   28.7410   40.9620 H   0  0  0  0  0  0  0  0  0  0  0  0
   37.3180   28.9860   40.4920 H   0  0  0  0  0  0  0  0  0  0  0  0
   36.1970   30.7760   41.0300 C   0  0  0  0  0  0  0  0  0  0  0  0
   35.0990   30.8630   40.9710 H   0  0  0  0  0  0  0  0  0  0  0  0
   36.5970   31.4020   41.8520 H   0  0  0  0  0  0  0  0  0  0  0  0
   36.7670   31.2440   39.7400 C   0  0  0  0  0  0  0  0  0  0  0  0
   37.2170   32.5460   39.5020 C   0  0  0  0  0  0  0  0  0  0  0  0
   37.1870   33.3270   40.2440 H   0  0  0  0  0  0  0  0  0  0  0  0
   37.6850   32.7070   38.2550 N   0  0  0  0  0  0  0  0  0  0  0  0
   38.0650   33.6010   37.8820 H   0  0  0  0  0  0  0  0  0  0  0  0
   37.5280   31.4850   37.6910 C   0  0  0  0  0  0  0  0  0  0  0  0
   37.8270   31.3030   36.6550 H   0  0  0  0  0  0  0  0  0  0  0  0
   36.9870   30.6170   38.5610 N   0  0  0  0  0  0  0  0  0  0  0  0
  1  2  1  0  0  0  0
  1  3  1  0  0  0  0
  3  7  1  0  0  0  0
  3  4  1  0  0  0  0
  5  3  1  0  0  0  0
  6 11  1  0  0  0  0
  6 12  1  0  0  0  0
  7  6  2  0  0  0  0
  8  9  2  0  0  0  0
  8  7  1  0  0  0  0
  9 10  1  0  0  0  0
 10 13  1  0  0  0  0
 10 11  2  0  0  0  0
 14  8  1  0  0  0  0
 14 17  1  0  0  0  0
 15 14  1  0  0  0  0
 16 14  1  0  0  0  0
 18  1  1  0  0  0  0
 19 18  1  0  0  0  0
 20 18  1  0  0  0  0
 21 18  1  0  0  0  0
 21 23  1  0  0  0  0
 22 21  1  0  0  0  0
 24 21  1  0  0  0  0
 25 24  2  0  0  0  0
 25 26  1  0  0  0  0
 27 25  1  0  0  0  0
 28 27  1  0  0  0  0
 29 27  1  0  0  0  0
 29 31  2  0  0  0  0
 30 29  1  0  0  0  0
 31 24  1  0  0  0  0
M  END
>  <minimizedAffinity>
-4.915061

$$$$

 OpenBabel03252501213D

 31 32  0  0  0  0  0  0  0  0999 V2000
   37.0940   29.1330   43.4160 N   0  0  0  0  0  0  0  0  0  0  0  0
   36.3070   29.2820   42.7170 H   0  0  0  0  0  0  0  0  0  0  0  0
   38.3350   29.4510   42.6850 C   0  0  0  0  0  0  0  0  0  0  0  0
   38.9990   29.9050   43.4760 H   0  0  0  0  0  0  0  0  0  0  0  0
   38.8540   28.5770   42.3300 H   0  0  0  0  0  0  0  0  0  0  0  0
   36.8030   30.5360   41.0990 C   0  0  0  0  0  0  0  0  0  0  0  0
   38.0600   30.4700   41.6880 C   0  0  0  0  0  0  0  0  0  0  0  0
   39.0000   31.4130   41.2710 C   0  0  0  0  0  0  0  0  0  0  0  0
   38.6610   32.3490   40.3180 N   0  0  0  0  0  0  0  0  0  0  0  0
   37.4180   32.3610   39.7820 C   0  0  0  0  0  0  0  0  0  0  0  0
   36.4830   31.4550   40.1680 N   0  0  0  0  0  0  0  0  0  0  0  0
   36.0560   29.8190   41.4020 H   0  0  0  0  0  0  0  0  0  0  0  0
   37.1230   33.0780   39.0370 H   0  0  0  0  0  0  0  0  0  0  0  0
   40.3100   31.3170   41.9080 C   0  0  0  0  0  0  0  0  0  0  0  0
   40.8660   30.0720   41.6130 F   0  0  0  0  0  0  0  0  0  0  0  0
   40.1100   31.3420   43.2550 F   0  0  0  0  0  0  0  0  0  0  0  0
   41.1760   32.2510   41.4250 F   0  0  0  0  0  0  0  0  0  0  0  0
   37.1450   27.7310   43.6800 C   0  0  0  0  0  0  0  0  0  0  0  0
   36.3050   27.4860   44.3700 H   0  0  0  0  0  0  0  0  0  0  0  0
   38.0880   27.4400   44.2090 H   0  0  0  0  0  0  0  0  0  0  0  0
   36.9420   26.8840   42.4400 C   0  0  0  0  0  0  0  0  0  0  0  0
   35.9150   26.4850   42.4730 H   0  0  0  0  0  0  0  0  0  0  0  0
   37.1100   27.4620   41.5100 H   0  0  0  0  0  0  0  0  0  0  0  0
   37.8840   25.7350   42.4740 C   0  0  0  0  0  0  0  0  0  0  0  0
   37.5890   24.4580   41.9890 C   0  0  0  0  0  0  0  0  0  0  0  0
   36.6420   24.1980   41.5450 H   0  0  0  0  0  0  0  0  0  0  0  0
   38.6110   23.6020   42.1410 N   0  0  0  0  0  0  0  0  0  0  0  0
   38.5910   22.6050   41.8440 H   0  0  0  0  0  0  0  0  0  0  0  0
   39.5730   24.3510   42.7330 C   0  0  0  0  0  0  0  0  0  0  0  0
   40.5440   23.9170   42.9860 H   0  0  0  0  0  0  0  0  0  0  0  0
   39.1510   25.6100   42.9330 N   0  0  0  0  0  0  0  0  0  0  0  0
  1 18  1  0  0  0  0
  2  1  1  0  0  0  0
  3  1  1  0  0  0  0
  3  4  1  0  0  0  0
  5  3  1  0  0  0  0
  6 12  1  0  0  0  0
  6  7  1  0  0  0  0
  7  3  1  0  0  0  0
  8  7  2  0  0  0  0
  8 14  1  0  0  0  0
  9  8  1  0  0  0  0
 10 11  1  0  0  0  0
 10  9  2  0  0  0  0
 11  6  2  0  0  0  0
 13 10  1  0  0  0  0
 14 16  1  0  0  0  0
 15 14  1  0  0  0  0
 17 14  1  0  0  0  0
 18 20  1  0  0  0  0
 18 19  1  0  0  0  0
 21 22  1  0  0  0  0
 21 24  1  0  0  0  0
 21 18  1  0  0  0  0
 23 21  1  0  0  0  0
 24 31  1  0  0  0  0
 25 27  1  0  0  0  0
 25 24  2  0  0  0  0
 26 25  1  0  0  0  0
 27 29  1  0  0  0  0
 28 27  1  0  0  0  0
 29 31  2  0  0  0  0
 29 30  1  0  0  0  0
M  END
>  <minimizedAffinity>
-4.76007938

$$$$

 OpenBabel03252501213D

 31 32  0  0  0  0  0  0  0  0999 V2000
   38.0010   30.0210   41.8200 N   0  0  0  0  0  0  0  0  0  0  0  0
   38.3720   29.3800   41.0570 H   0  0  0  0  0  0  0  0  0  0  0  0
   37.8370   29.1650   43.0090 C   0  0  0  0  0  0  0  0  0  0  0  0
   38.1890   29.8200   43.8580 H   0  0  0  0  0  0  0  0  0  0  0  0
   36.8070   28.9310   43.2250 H   0  0  0  0  0  0  0  0  0  0  0  0
   40.1060   28.2230   43.0320 C   0  0  0  0  0  0  0  0  0  0  0  0
   38.7350   28.0280   42.9140 C   0  0  0  0  0  0  0  0  0  0  0  0
   38.3010   26.7190   42.7060 C   0  0  0  0  0  0  0  0  0  0  0  0
   39.2190   25.6940   42.6270 N   0  0  0  0  0  0  0  0  0  0  0  0
   40.5430   25.9480   42.7500 C   0  0  0  0  0  0  0  0  0  0  0  0
   40.9940   27.2130   42.9520 N   0  0  0  0  0  0  0  0  0  0  0  0
   40.4710   29.2260   43.1930 H   0  0  0  0  0  0  0  0  0  0  0  0
   41.2830   25.1700   42.6930 H   0  0  0  0  0  0  0  0  0  0  0  0
   36.8560   26.5480   42.5870 C   0  0  0  0  0  0  0  0  0  0  0  0
   36.5650   25.1840   42.5390 F   0  0  0  0  0  0  0  0  0  0  0  0
   36.4840   27.0660   41.3840 F   0  0  0  0  0  0  0  0  0  0  0  0
   36.1980   27.0450   43.6710 F   0  0  0  0  0  0  0  0  0  0  0  0
   36.6820   30.4000   41.4260 C   0  0  0  0  0  0  0  0  0  0  0  0
   36.3400   31.2030   42.1190 H   0  0  0  0  0  0  0  0  0  0  0  0
   35.9550   29.5540   41.5340 H   0  0  0  0  0  0  0  0  0  0  0  0
   36.6220   30.9840   40.0300 C   0  0  0  0  0  0  0  0  0  0  0  0
   36.7800   30.1580   39.3160 H   0  0  0  0  0  0  0  0  0  0  0  0
   35.6580   31.4940   39.8330 H   0  0  0  0  0  0  0  0  0  0  0  0
   37.7310   31.9590   39.8600 C   0  0  0  0  0  0  0  0  0  0  0  0
   38.4980   32.0880   38.6980 C   0  0  0  0  0  0  0  0  0  0  0  0
   38.3450   31.4830   37.8190 H   0  0  0  0  0  0  0  0  0  0  0  0
   39.4360   33.0410   38.8050 N   0  0  0  0  0  0  0  0  0  0  0  0
   40.1070   33.2910   38.0510 H   0  0  0  0  0  0  0  0  0  0  0  0
   39.2610   33.5260   40.0590 C   0  0  0  0  0  0  0  0  0  0  0  0
   39.8940   34.3310   40.4410 H   0  0  0  0  0  0  0  0  0  0  0  0
   38.2570   32.8920   40.6870 N   0  0  0  0  0  0  0  0  0  0  0  0
  1  3  1  0  0  0  0
  2  1  1  0  0  0  0
  3  5  1  0  0  0  0
  3  4  1  0  0  0  0
  6 12  1  0  0  0  0
  7  3  1  0  0  0  0
  7  6  2  0  0  0  0
  8  7  1  0  0  0  0
  9  8  2  0  0  0  0
  9 10  1  0  0  0  0
 10 11  2  0  0  0  0
 11  6  1  0  0  0  0
 13 10  1  0  0  0  0
 14  8  1  0  0  0  0
 14 17  1  0  0  0  0
 15 14  1  0  0  0  0
 16 14  1  0  0  0  0
 18 20  1  0  0  0  0
 18  1  1  0  0  0  0
 18 19  1  0  0  0  0
 21 18  1  0  0  0  0
 22 21  1  0  0  0  0
 23 21  1  0  0  0  0
 24 21  1  0  0  0  0
 24 31  1  0  0  0  0
 25 27  1  0  0  0  0
 25 24  2  0  0  0  0
 26 25  1  0  0  0  0
 27 29  1  0  0  0  0
 28 27  1  0  0  0  0
 29 30  1  0  0  0  0
 29 31  2  0  0  0  0
M  END
>  <minimizedAffinity>
-4.74513578

$$$$

 OpenBabel03252501213D

 31 32  0  0  0  0  0  0  0  0999 V2000
   38.7230   28.6250   39.6040 N   0  0  0  0  0  0  0  0  0  0  0  0
   37.6800   28.8090   39.5110 H   0  0  0  0  0  0  0  0  0  0  0  0
   38.9320   28.2420   41.0120 C   0  0  0  0  0  0  0  0  0  0  0  0
   40.0550   28.2540   41.1260 H   0  0  0  0  0  0  0  0  0  0  0  0
   38.5580   28.9720   41.7100 H   0  0  0  0  0  0  0  0  0  0  0  0
   39.0580   25.8420   40.5010 C   0  0  0  0  0  0  0  0  0  0  0  0
   38.4730   26.8800   41.2160 C   0  0  0  0  0  0  0  0  0  0  0  0
   37.4550   26.5350   42.1070 C   0  0  0  0  0  0  0  0  0  0  0  0
   37.0760   25.2180   42.2420 N   0  0  0  0  0  0  0  0  0  0  0  0
   37.6860   24.2510   41.5160 C   0  0  0  0  0  0  0  0  0  0  0  0
   38.6780   24.5570   40.6410 N   0  0  0  0  0  0  0  0  0  0  0  0
   39.8470   26.0790   39.8040 H   0  0  0  0  0  0  0  0  0  0  0  0
   37.4120   23.2140   41.6000 H   0  0  0  0  0  0  0  0  0  0  0  0
   36.8620   27.6480   42.8420 C   0  0  0  0  0  0  0  0  0  0  0  0
   35.8590   27.1540   43.6780 F   0  0  0  0  0  0  0  0  0  0  0  0
   36.2470   28.4540   41.9340 F   0  0  0  0  0  0  0  0  0  0  0  0
   37.7710   28.2600   43.6520 F   0  0  0  0  0  0  0  0  0  0  0  0
   39.3750   29.8850   39.4400 C   0  0  0  0  0  0  0  0  0  0  0  0
   38.7710   30.4860   38.7230 H   0  0  0  0  0  0  0  0  0  0  0  0
   40.3920   29.7720   38.9850 H   0  0  0  0  0  0  0  0  0  0  0  0
   39.4460   30.6880   40.7220 C   0  0  0  0  0  0  0  0  0  0  0  0
   38.8760   30.1410   41.4910 H   0  0  0  0  0  0  0  0  0  0  0  0
   40.4910   30.8540   41.0520 H   0  0  0  0  0  0  0  0  0  0  0  0
   38.7880   32.0040   40.5110 C   0  0  0  0  0  0  0  0  0  0  0  0
   37.4230   32.1740   40.2650 C   0  0  0  0  0  0  0  0  0  0  0  0
   36.7260   31.3540   40.2080 H   0  0  0  0  0  0  0  0  0  0  0  0
   37.0860   33.4630   40.1090 N   0  0  0  0  0  0  0  0  0  0  0  0
   36.1200   33.7980   39.9190 H   0  0  0  0  0  0  0  0  0  0  0  0
   38.2600   34.1240   40.2590 C   0  0  0  0  0  0  0  0  0  0  0  0
   38.3030   35.2140   40.1830 H   0  0  0  0  0  0  0  0  0  0  0  0
   39.2680   33.2700   40.4960 N   0  0  0  0  0  0  0  0  0  0  0  0
  1  3  1  0  0  0  0
  2  1  1  0  0  0  0
  3  4  1  0  0  0  0
  3  7  1  0  0  0  0
  3  5  1  0  0  0  0
  6 11  2  0  0  0  0
  6  7  1  0  0  0  0
  7  8  2  0  0  0  0
  8  9  1  0  0  0  0
  8 14  1  0  0  0  0
 10 13  1  0  0  0  0
 10  9  2  0  0  0  0
 11 10  1  0  0  0  0
 12  6  1  0  0  0  0
 14 17  1  0  0  0  0
 14 15  1  0  0  0  0
 16 14  1  0  0  0  0
 18  1  1  0  0  0  0
 18 21  1  0  0  0  0
 19 18  1  0  0  0  0
 20 18  1  0  0  0  0
 21 23  1  0  0  0  0
 21 22  1  0  0  0  0
 24 21  1  0  0  0  0
 25 24  2  0  0  0  0
 26 25  1  0  0  0  0
 27 29  1  0  0  0  0
 27 25  1  0  0  0  0
 28 27  1  0  0  0  0
 29 31  2  0  0  0  0
 30 29  1  0  0  0  0
 31 24  1  0  0  0  0
M  END
>  <minimizedAffinity>
-4.59796762

$$$$

 OpenBabel03252501213D

 31 32  0  0  0  0  0  0  0  0999 V2000
   36.5350   29.7990   42.0950 N   0  0  0  0  0  0  0  0  0  0  0  0
   36.1850   28.8790   41.6930 H   0  0  0  0  0  0  0  0  0  0  0  0
   36.2720   30.8090   41.0530 C   0  0  0  0  0  0  0  0  0  0  0  0
   35.3250   31.3120   41.4050 H   0  0  0  0  0  0  0  0  0  0  0  0
   37.0200   31.5840   41.0140 H   0  0  0  0  0  0  0  0  0  0  0  0
   35.1310   29.0490   39.7730 C   0  0  0  0  0  0  0  0  0  0  0  0
   35.9880   30.1430   39.7950 C   0  0  0  0  0  0  0  0  0  0  0  0
   36.5330   30.5390   38.5730 C   0  0  0  0  0  0  0  0  0  0  0  0
   36.2130   29.8530   37.4220 N   0  0  0  0  0  0  0  0  0  0  0  0
   35.3710   28.7930   37.4670 C   0  0  0  0  0  0  0  0  0  0  0  0
   34.8260   28.3850   38.6420 N   0  0  0  0  0  0  0  0  0  0  0  0
   34.6950   28.7190   40.7040 H   0  0  0  0  0  0  0  0  0  0  0  0
   35.1020   28.2380   36.5860 H   0  0  0  0  0  0  0  0  0  0  0  0
   37.4280   31.6910   38.6300 C   0  0  0  0  0  0  0  0  0  0  0  0
   37.8250   32.0180   37.3320 F   0  0  0  0  0  0  0  0  0  0  0  0
   38.5520   31.3000   39.2910 F   0  0  0  0  0  0  0  0  0  0  0  0
   36.8030   32.7920   39.1310 F   0  0  0  0  0  0  0  0  0  0  0  0
   37.9560   29.6900   42.1830 C   0  0  0  0  0  0  0  0  0  0  0  0
   38.3550   30.6920   42.4620 H   0  0  0  0  0  0  0  0  0  0  0  0
   38.4160   29.4260   41.1960 H   0  0  0  0  0  0  0  0  0  0  0  0
   38.4140   28.7300   43.2620 C   0  0  0  0  0  0  0  0  0  0  0  0
   39.5090   28.8230   43.3480 H   0  0  0  0  0  0  0  0  0  0  0  0
   37.9230   28.9330   44.2340 H   0  0  0  0  0  0  0  0  0  0  0  0
   38.1020   27.3390   42.8410 C   0  0  0  0  0  0  0  0  0  0  0  0
   39.0230   26.2870   42.8470 C   0  0  0  0  0  0  0  0  0  0  0  0
   40.0480   26.4010   43.1600 H   0  0  0  0  0  0  0  0  0  0  0  0
   38.4870   25.1340   42.4200 N   0  0  0  0  0  0  0  0  0  0  0  0
   39.0080   24.2350   42.3500 H   0  0  0  0  0  0  0  0  0  0  0  0
   37.2020   25.4590   42.1380 C   0  0  0  0  0  0  0  0  0  0  0  0
   36.5030   24.7070   41.7630 H   0  0  0  0  0  0  0  0  0  0  0  0
   36.9680   26.7580   42.3850 N   0  0  0  0  0  0  0  0  0  0  0  0
  1 18  1  0  0  0  0
  2  1  1  0  0  0  0
  3  4  1  0  0  0  0
  3  1  1  0  0  0  0
  5  3  1  0  0  0  0
  6  7  1  0  0  0  0
  6 12  1  0  0  0  0
  7  3  1  0  0  0  0
  8 14  1  0  0  0  0
  8  7  2  0  0  0  0
  9 10  2  0  0  0  0
  9  8  1  0  0  0  0
 10 11  1  0  0  0  0
 11  6  2  0  0  0  0
 13 10  1  0  0  0  0
 14 17  1  0  0  0  0
 14 16  1  0  0  0  0
 15 14  1  0  0  0  0
 18 19  1  0  0  0  0
 18 21  1  0  0  0  0
 20 18  1  0  0  0  0
 21 22  1  0  0  0  0
 21 23  1  0  0  0  0
 24 25  2  0  0  0  0
 24 21  1  0  0  0  0
 25 26  1  0  0  0  0
 27 25  1  0  0  0  0
 28 27  1  0  0  0  0
 29 31  2  0  0  0  0
 29 27  1  0  0  0  0
 30 29  1  0  0  0  0
 31 24  1  0  0  0  0
M  END
>  <minimizedAffinity>
-4.56983232

$$$$

 OpenBabel03252501213D

 31 32  0  0  0  0  0  0  0  0999 V2000
   38.2320   28.1120   38.8530 N   0  0  0  0  0  0  0  0  0  0  0  0
   38.8960   27.9940   38.0310 H   0  0  0  0  0  0  0  0  0  0  0  0
   38.6310   27.0840   39.8330 C   0  0  0  0  0  0  0  0  0  0  0  0
   37.9920   26.1950   39.5590 H   0  0  0  0  0  0  0  0  0  0  0  0
   39.6520   26.7610   39.7160 H   0  0  0  0  0  0  0  0  0  0  0  0
   38.6120   28.7860   41.6050 C   0  0  0  0  0  0  0  0  0  0  0  0
   38.2540   27.5160   41.1670 C   0  0  0  0  0  0  0  0  0  0  0  0
   37.5390   26.7200   42.0610 C   0  0  0  0  0  0  0  0  0  0  0  0
   37.2200   27.2040   43.3110 N   0  0  0  0  0  0  0  0  0  0  0  0
   37.5980   28.4510   43.6800 C   0  0  0  0  0  0  0  0  0  0  0  0
   38.2950   29.2480   42.8300 N   0  0  0  0  0  0  0  0  0  0  0  0
   39.1670   29.4240   40.9350 H   0  0  0  0  0  0  0  0  0  0  0  0
   37.3640   28.8570   44.6480 H   0  0  0  0  0  0  0  0  0  0  0  0
   37.1790   25.3930   41.5700 C   0  0  0  0  0  0  0  0  0  0  0  0
   36.4350   24.7350   42.5510 F   0  0  0  0  0  0  0  0  0  0  0  0
   38.3330   24.6870   41.4210 F   0  0  0  0  0  0  0  0  0  0  0  0
   36.3840   25.4620   40.4660 F   0  0  0  0  0  0  0  0  0  0  0  0
   36.9380   27.7280   38.3890 C   0  0  0  0  0  0  0  0  0  0  0  0
   36.4440   27.1520   39.2040 H   0  0  0  0  0  0  0  0  0  0  0  0
   36.9980   27.0430   37.5040 H   0  0  0  0  0  0  0  0  0  0  0  0
   36.0370   28.9100   38.0920 C   0  0  0  0  0  0  0  0  0  0  0  0
   36.4070   29.3860   37.1680 H   0  0  0  0  0  0  0  0  0  0  0  0
   34.9770   28.6080   37.9820 H   0  0  0  0  0  0  0  0  0  0  0  0
   36.1480   29.8980   39.1960 C   0  0  0  0  0  0  0  0  0  0  0  0
   35.4380   29.8220   40.3980 C   0  0  0  0  0  0  0  0  0  0  0  0
   34.7430   29.0300   40.6240 H   0  0  0  0  0  0  0  0  0  0  0  0
   35.7190   30.8400   41.2260 N   0  0  0  0  0  0  0  0  0  0  0  0
   35.2950   30.9640   42.1670 H   0  0  0  0  0  0  0  0  0  0  0  0
   36.6250   31.5760   40.5360 C   0  0  0  0  0  0  0  0  0  0  0  0
   37.0490   32.4880   40.9650 H   0  0  0  0  0  0  0  0  0  0  0  0
   36.8830   31.0260   39.3380 N   0  0  0  0  0  0  0  0  0  0  0  0
  1  3  1  0  0  0  0
  2  1  1  0  0  0  0
  3  7  1  0  0  0  0
  4  3  1  0  0  0  0
  5  3  1  0  0  0  0
  6 11  1  0  0  0  0
  7  6  2  0  0  0  0
  7  8  1  0  0  0  0
  8  9  2  0  0  0  0
  9 10  1  0  0  0  0
 10 13  1  0  0  0  0
 11 10  2  0  0  0  0
 12  6  1  0  0  0  0
 14  8  1  0  0  0  0
 14 15  1  0  0  0  0
 16 14  1  0  0  0  0
 17 14  1  0  0  0  0
 18  1  1  0  0  0  0
 18 19  1  0  0  0  0
 20 18  1  0  0  0  0
 21 18  1  0  0  0  0
 21 24  1  0  0  0  0
 22 21  1  0  0  0  0
 23 21  1  0  0  0  0
 24 31  1  0  0  0  0
 24 25  2  0  0  0  0
 25 26  1  0  0  0  0
 25 27  1  0  0  0  0
 27 28  1  0  0  0  0
 29 30  1  0  0  0  0
 29 27  1  0  0  0  0
 31 29  2  0  0  0  0
M  END
>  <minimizedAffinity>
-4.56879663

$$$$

 OpenBabel03252501213D

 31 32  0  0  0  0  0  0  0  0999 V2000
   36.1830   28.1050   40.6380 N   0  0  0  0  0  0  0  0  0  0  0  0
   35.5680   27.2710   40.4000 H   0  0  0  0  0  0  0  0  0  0  0  0
   36.4810   27.9780   42.0770 C   0  0  0  0  0  0  0  0  0  0  0  0
   36.9250   28.9800   42.3450 H   0  0  0  0  0  0  0  0  0  0  0  0
   35.5970   27.8760   42.6850 H   0  0  0  0  0  0  0  0  0  0  0  0
   37.1670   25.6210   42.1610 C   0  0  0  0  0  0  0  0  0  0  0  0
   37.5020   26.9650   42.2720 C   0  0  0  0  0  0  0  0  0  0  0  0
   38.8320   27.2600   42.5720 C   0  0  0  0  0  0  0  0  0  0  0  0
   39.7420   26.2390   42.7420 N   0  0  0  0  0  0  0  0  0  0  0  0
   39.3530   24.9480   42.6210 C   0  0  0  0  0  0  0  0  0  0  0  0
   38.0650   24.6310   42.3310 N   0  0  0  0  0  0  0  0  0  0  0  0
   36.1450   25.3630   41.9310 H   0  0  0  0  0  0  0  0  0  0  0  0
   40.0400   24.1290   42.7490 H   0  0  0  0  0  0  0  0  0  0  0  0
   39.1500   28.6810   42.6810 C   0  0  0  0  0  0  0  0  0  0  0  0
   40.4650   28.8150   43.1320 F   0  0  0  0  0  0  0  0  0  0  0  0
   38.3520   29.2020   43.6530 F   0  0  0  0  0  0  0  0  0  0  0  0
   39.0910   29.3060   41.4720 F   0  0  0  0  0  0  0  0  0  0  0  0
   35.3620   29.2660   40.5090 C   0  0  0  0  0  0  0  0  0  0  0  0
   34.5470   29.1880   41.2640 H   0  0  0  0  0  0  0  0  0  0  0  0
   34.8660   29.3170   39.5060 H   0  0  0  0  0  0  0  0  0  0  0  0
   36.1020   30.5540   40.8080 C   0  0  0  0  0  0  0  0  0  0  0  0
   35.3570   31.2950   41.1430 H   0  0  0  0  0  0  0  0  0  0  0  0
   36.8890   30.4130   41.5750 H   0  0  0  0  0  0  0  0  0  0  0  0
   36.7270   31.0600   39.5580 C   0  0  0  0  0  0  0  0  0  0  0  0
   37.1180   32.3860   39.3520 C   0  0  0  0  0  0  0  0  0  0  0  0
   36.9970   33.1600   40.0920 H   0  0  0  0  0  0  0  0  0  0  0  0
   37.6550   32.5800   38.1380 N   0  0  0  0  0  0  0  0  0  0  0  0
   38.0070   33.4950   37.7910 H   0  0  0  0  0  0  0  0  0  0  0  0
   37.6030   31.3530   37.5630 C   0  0  0  0  0  0  0  0  0  0  0  0
   37.9770   31.1940   36.5480 H   0  0  0  0  0  0  0  0  0  0  0  0
   37.0560   30.4520   38.3950 N   0  0  0  0  0  0  0  0  0  0  0  0
  1  3  1  0  0  0  0
  2  1  1  0  0  0  0
  3  7  1  0  0  0  0
  3  4  1  0  0  0  0
  3  5  1  0  0  0  0
  6  7  2  0  0  0  0
  6 11  1  0  0  0  0
  7  8  1  0  0  0  0
  8 14  1  0  0  0  0
  8  9  2  0  0  0  0
 10  9  1  0  0  0  0
 10 13  1  0  0  0  0
 11 10  2  0  0  0  0
 12  6  1  0  0  0  0
 14 15  1  0  0  0  0
 14 16  1  0  0  0  0
 17 14  1  0  0  0  0
 18  1  1  0  0  0  0
 18 21  1  0  0  0  0
 18 19  1  0  0  0  0
 20 18  1  0  0  0  0
 21 22  1  0  0  0  0
 21 23  1  0  0  0  0
 24 21  1  0  0  0  0
 25 24  2  0  0  0  0
 25 26  1  0  0  0  0
 27 25  1  0  0  0  0
 28 27  1  0  0  0  0
 29 27  1  0  0  0  0
 29 31  2  0  0  0  0
 30 29  1  0  0  0  0
 31 24  1  0  0  0  0
M  END
>  <minimizedAffinity>
-4.56231785

$$$$

 OpenBabel03252501213D

 31 32  0  0  0  0  0  0  0  0999 V2000
   36.9140   28.7140   42.5100 N   0  0  0  0  0  0  0  0  0  0  0  0
   36.8300   27.8940   41.8380 H   0  0  0  0  0  0  0  0  0  0  0  0
   37.8690   29.6440   41.8790 C   0  0  0  0  0  0  0  0  0  0  0  0
   37.4730   30.6620   42.1610 H   0  0  0  0  0  0  0  0  0  0  0  0
   38.8590   29.5860   42.3010 H   0  0  0  0  0  0  0  0  0  0  0  0
   38.1290   28.3060   39.8350 C   0  0  0  0  0  0  0  0  0  0  0  0
   37.7900   29.5130   40.4350 C   0  0  0  0  0  0  0  0  0  0  0  0
   37.3850   30.5450   39.5890 C   0  0  0  0  0  0  0  0  0  0  0  0
   37.3370   30.3400   38.2270 N   0  0  0  0  0  0  0  0  0  0  0  0
   37.6810   29.1400   37.7020 C   0  0  0  0  0  0  0  0  0  0  0  0
   38.0790   28.1180   38.5020 N   0  0  0  0  0  0  0  0  0  0  0  0
   38.4470   27.4900   40.4650 H   0  0  0  0  0  0  0  0  0  0  0  0
   37.6530   28.9490   36.6440 H   0  0  0  0  0  0  0  0  0  0  0  0
   37.0350   31.7980   40.2510 C   0  0  0  0  0  0  0  0  0  0  0  0
   38.1400   32.2510   40.9730 F   0  0  0  0  0  0  0  0  0  0  0  0
   36.0640   31.5190   41.1640 F   0  0  0  0  0  0  0  0  0  0  0  0
   36.7340   32.7770   39.3520 F   0  0  0  0  0  0  0  0  0  0  0  0
   37.5650   28.2180   43.6790 C   0  0  0  0  0  0  0  0  0  0  0  0
   36.8610   27.5200   44.1870 H   0  0  0  0  0  0  0  0  0  0  0  0
   37.7880   29.0360   44.4110 H   0  0  0  0  0  0  0  0  0  0  0  0
   38.8150   27.4190   43.3710 C   0  0  0  0  0  0  0  0  0  0  0  0
   39.3690   27.9580   42.5840 H   0  0  0  0  0  0  0  0  0  0  0  0
   39.4470   27.2740   44.2690 H   0  0  0  0  0  0  0  0  0  0  0  0
   38.4240   26.0910   42.8320 C   0  0  0  0  0  0  0  0  0  0  0  0
   39.2520   24.9640   42.8330 C   0  0  0  0  0  0  0  0  0  0  0  0
   40.2540   24.9670   43.2300 H   0  0  0  0  0  0  0  0  0  0  0  0
   38.6590   23.8910   42.2870 N   0  0  0  0  0  0  0  0  0  0  0  0
   39.1080   22.9570   42.1940 H   0  0  0  0  0  0  0  0  0  0  0  0
   37.4330   24.3460   41.9320 C   0  0  0  0  0  0  0  0  0  0  0  0
   36.7070   23.6840   41.4530 H   0  0  0  0  0  0  0  0  0  0  0  0
   37.2870   25.6420   42.2510 N   0  0  0  0  0  0  0  0  0  0  0  0
  1 18  1  0  0  0  0
  2  1  1  0  0  0  0
  3  4  1  0  0  0  0
  3  5  1  0  0  0  0
  3  1  1  0  0  0  0
  6  7  1  0  0  0  0
  6 12  1  0  0  0  0
  7  3  1  0  0  0  0
  8 14  1  0  0  0  0
  8  7  2  0  0  0  0
  9  8  1  0  0  0  0
 10  9  2  0  0  0  0
 10 11  1  0  0  0  0
 11  6  2  0  0  0  0
 13 10  1  0  0  0  0
 14 15  1  0  0  0  0
 14 16  1  0  0  0  0
 17 14  1  0  0  0  0
 18 19  1  0  0  0  0
 18 20  1  0  0  0  0
 21 18  1  0  0  0  0
 21 23  1  0  0  0  0
 22 21  1  0  0  0  0
 24 25  2  0  0  0  0
 24 21  1  0  0  0  0
 25 26  1  0  0  0  0
 27 25  1  0  0  0  0
 28 27  1  0  0  0  0
 29 31  2  0  0  0  0
 29 27  1  0  0  0  0
 30 29  1  0  0  0  0
 31 24  1  0  0  0  0
M  END
>  <minimizedAffinity>
-4.47980595

$$$$
