
 OpenBabel03242520043D

 38 41  0  0  1  0  0  0  0  0999 V2000
   39.1750   32.2360   40.0340 N   0  0  0  0  0  0  0  0  0  0  0  0
   37.8130   32.0810   40.4000 C   0  0  1  0  0  0  0  0  0  0  0  0
   36.9570   32.2760   39.1600 C   0  0  0  0  0  0  0  0  0  0  0  0
   37.2880   31.1670   38.2830 N   0  0  0  0  0  0  0  0  0  0  0  0
   38.6450   31.2830   37.7970 C   0  0  0  0  0  0  0  0  0  0  0  0
   39.6380   31.6530   38.8280 C   0  0  1  0  0  0  0  0  0  0  0  0
   39.8520   32.0510   40.8000 H   0  0  0  0  0  0  0  0  0  0  0  0
   37.5300   32.8610   41.1180 H   0  0  0  0  0  0  0  0  0  0  0  0
   35.8790   32.2000   39.3860 H   0  0  0  0  0  0  0  0  0  0  0  0
   37.2140   33.2070   38.6080 H   0  0  0  0  0  0  0  0  0  0  0  0
   36.6630   31.0980   37.4570 H   0  0  0  0  0  0  0  0  0  0  0  0
   38.8970   30.3290   37.2800 H   0  0  0  0  0  0  0  0  0  0  0  0
   38.6360   32.0740   37.0150 H   0  0  0  0  0  0  0  0  0  0  0  0
   40.1810   30.7020   39.1020 H   0  0  0  0  0  0  0  0  0  0  0  0
   40.7090   32.5380   38.2740 C   0  0  0  0  0  0  0  0  0  0  0  0
   41.3710   32.3310   37.0800 C   0  0  0  0  0  0  0  0  0  0  0  0
   41.2080   31.5060   36.3830 H   0  0  0  0  0  0  0  0  0  0  0  0
   42.2480   33.3590   36.9710 N   0  0  0  0  0  0  0  0  0  0  0  0
   42.8720   33.4020   36.1150 H   0  0  0  0  0  0  0  0  0  0  0  0
   42.1370   34.1610   38.0400 C   0  0  0  0  0  0  0  0  0  0  0  0
   42.7490   35.0590   38.1680 H   0  0  0  0  0  0  0  0  0  0  0  0
   41.1830   33.6710   38.8700 N   0  0  0  0  0  0  0  0  0  0  0  0
   37.8400   28.7970   41.7640 C   0  0  0  0  0  0  0  0  0  0  0  0
   36.4840   28.9840   41.6350 C   0  0  0  0  0  0  0  0  0  0  0  0
   36.2720   30.2230   41.1130 C   0  0  0  0  0  0  0  0  0  0  0  0
   37.4930   30.7840   40.9260 N   0  0  0  0  0  0  0  0  0  0  0  0
   38.4190   29.9090   41.3240 N   0  0  0  0  0  0  0  0  0  0  0  0
   35.7390   28.2380   41.9170 H   0  0  0  0  0  0  0  0  0  0  0  0
   35.3220   30.6830   40.8860 H   0  0  0  0  0  0  0  0  0  0  0  0
   38.7290   25.2850   42.3940 C   0  0  0  0  0  0  0  0  0  0  0  0
   39.7900   25.3810   43.3000 C   0  0  0  0  0  0  0  0  0  0  0  0
   40.1810   26.6710   43.6800 C   0  0  0  0  0  0  0  0  0  0  0  0
   39.5200   27.7320   43.1550 N   0  0  0  0  0  0  0  0  0  0  0  0
   38.5010   27.6070   42.2840 C   0  0  0  0  0  0  0  0  0  0  0  0
   38.1110   26.3770   41.9090 N   0  0  0  0  0  0  0  0  0  0  0  0
   38.3780   24.2990   42.0600 H   0  0  0  0  0  0  0  0  0  0  0  0
   40.2560   24.4770   43.6650 H   0  0  0  0  0  0  0  0  0  0  0  0
   40.9990   26.7750   44.3790 H   0  0  0  0  0  0  0  0  0  0  0  0
  1  2  1  0  0  0  0
  1  7  1  0  0  0  0
  2 26  1  0  0  0  0
  2  8  1  1  0  0  0
  3  9  1  0  0  0  0
  3  2  1  0  0  0  0
  4  3  1  0  0  0  0
  5  4  1  0  0  0  0
  5  6  1  0  0  0  0
  6 14  1  1  0  0  0
  6  1  1  0  0  0  0
 10  3  1  0  0  0  0
 11  4  1  0  0  0  0
 12  5  1  0  0  0  0
 13  5  1  0  0  0  0
 15  6  1  0  0  0  0
 15 22  1  0  0  0  0
 16 15  2  0  0  0  0
 17 16  1  0  0  0  0
 18 16  1  0  0  0  0
 18 20  1  0  0  0  0
 19 18  1  0  0  0  0
 20 21  1  0  0  0  0
 20 22  2  0  0  0  0
 23 34  1  0  0  0  0
 24 23  1  0  0  0  0
 24 28  1  0  0  0  0
 25 24  2  0  0  0  0
 26 25  1  0  0  0  0
 26 27  1  0  0  0  0
 27 23  2  0  0  0  0
 29 25  1  0  0  0  0
 30 31  1  0  0  0  0
 31 37  1  0  0  0  0
 31 32  2  0  0  0  0
 32 38  1  0  0  0  0
 33 32  1  0  0  0  0
 34 33  2  0  0  0  0
 35 34  1  0  0  0  0
 35 30  2  0  0  0  0
 36 30  1  0  0  0  0
M  END
>  <minimizedAffinity>
-5.58689165

$$$$

 OpenBabel03242520043D

 38 41  0  0  1  0  0  0  0  0999 V2000
   38.6170   30.1110   40.5030 N   0  0  0  0  0  0  0  0  0  0  0  0
   37.7650   29.9490   41.6250 C   0  0  1  0  0  0  0  0  0  0  0  0
   36.4620   30.6790   41.3490 C   0  0  0  0  0  0  0  0  0  0  0  0
   35.8460   29.9650   40.2450 N   0  0  0  0  0  0  0  0  0  0  0  0
   36.6110   30.1380   39.0300 C   0  0  0  0  0  0  0  0  0  0  0  0
   38.0730   29.9970   39.1990 C   0  0  1  0  0  0  0  0  0  0  0  0
   39.5130   29.5880   40.5600 H   0  0  0  0  0  0  0  0  0  0  0  0
   38.2210   30.4160   42.5070 H   0  0  0  0  0  0  0  0  0  0  0  0
   35.7650   30.6170   42.2040 H   0  0  0  0  0  0  0  0  0  0  0  0
   36.6240   31.7230   41.0030 H   0  0  0  0  0  0  0  0  0  0  0  0
   34.8740   30.2730   40.0500 H   0  0  0  0  0  0  0  0  0  0  0  0
   36.1960   29.4360   38.2710 H   0  0  0  0  0  0  0  0  0  0  0  0
   36.3960   31.1660   38.6630 H   0  0  0  0  0  0  0  0  0  0  0  0
   38.3390   28.9690   38.8140 H   0  0  0  0  0  0  0  0  0  0  0  0
   38.8270   30.9270   38.3050 C   0  0  0  0  0  0  0  0  0  0  0  0
   38.2820   31.6320   37.2500 C   0  0  0  0  0  0  0  0  0  0  0  0
   37.2390   31.6080   36.9250 H   0  0  0  0  0  0  0  0  0  0  0  0
   39.3080   32.3410   36.7190 N   0  0  0  0  0  0  0  0  0  0  0  0
   39.1130   32.9640   35.8840 H   0  0  0  0  0  0  0  0  0  0  0  0
   40.4310   32.0910   37.4080 C   0  0  0  0  0  0  0  0  0  0  0  0
   41.3900   32.5550   37.1590 H   0  0  0  0  0  0  0  0  0  0  0  0
   40.1590   31.2110   38.4040 N   0  0  0  0  0  0  0  0  0  0  0  0
   37.1730   26.4430   41.5500 C   0  0  0  0  0  0  0  0  0  0  0  0
   36.7740   26.7200   42.8360 C   0  0  0  0  0  0  0  0  0  0  0  0
   36.9330   28.0530   43.0550 C   0  0  0  0  0  0  0  0  0  0  0  0
   37.4250   28.5830   41.9080 N   0  0  0  0  0  0  0  0  0  0  0  0
   37.5620   27.5980   41.0190 N   0  0  0  0  0  0  0  0  0  0  0  0
   36.3990   25.9650   43.5310 H   0  0  0  0  0  0  0  0  0  0  0  0
   36.7130   28.5970   43.9620 H   0  0  0  0  0  0  0  0  0  0  0  0
   37.9410   22.9370   40.7500 C   0  0  0  0  0  0  0  0  0  0  0  0
   37.1190   22.6730   39.6490 C   0  0  0  0  0  0  0  0  0  0  0  0
   36.3080   23.7230   39.2010 C   0  0  0  0  0  0  0  0  0  0  0  0
   36.3650   24.9120   39.8480 N   0  0  0  0  0  0  0  0  0  0  0  0
   37.1670   25.1360   40.9070 C   0  0  0  0  0  0  0  0  0  0  0  0
   37.9530   24.1410   41.3510 N   0  0  0  0  0  0  0  0  0  0  0  0
   38.5980   22.1530   41.1460 H   0  0  0  0  0  0  0  0  0  0  0  0
   37.1410   21.6920   39.1970 H   0  0  0  0  0  0  0  0  0  0  0  0
   35.6620   23.5460   38.3510 H   0  0  0  0  0  0  0  0  0  0  0  0
  1  7  1  0  0  0  0
  1  2  1  0  0  0  0
  2 26  1  0  0  0  0
  2  8  1  1  0  0  0
  3  2  1  0  0  0  0
  3  9  1  0  0  0  0
  4  3  1  0  0  0  0
  5  6  1  0  0  0  0
  5  4  1  0  0  0  0
  6 14  1  6  0  0  0
  6  1  1  0  0  0  0
 10  3  1  0  0  0  0
 11  4  1  0  0  0  0
 12  5  1  0  0  0  0
 13  5  1  0  0  0  0
 15 22  1  0  0  0  0
 15  6  1  0  0  0  0
 16 15  2  0  0  0  0
 17 16  1  0  0  0  0
 18 16  1  0  0  0  0
 18 20  1  0  0  0  0
 19 18  1  0  0  0  0
 20 22  2  0  0  0  0
 21 20  1  0  0  0  0
 23 24  1  0  0  0  0
 24 25  2  0  0  0  0
 24 28  1  0  0  0  0
 25 29  1  0  0  0  0
 26 25  1  0  0  0  0
 27 23  2  0  0  0  0
 27 26  1  0  0  0  0
 30 36  1  0  0  0  0
 30 35  1  0  0  0  0
 31 30  2  0  0  0  0
 32 31  1  0  0  0  0
 32 33  2  0  0  0  0
 33 34  1  0  0  0  0
 34 35  2  0  0  0  0
 34 23  1  0  0  0  0
 37 31  1  0  0  0  0
 38 32  1  0  0  0  0
M  END
>  <minimizedAffinity>
-5.46880388

$$$$

 OpenBabel03242520043D

 38 41  0  0  1  0  0  0  0  0999 V2000
   39.4260   26.6640   41.2220 N   0  0  0  0  0  0  0  0  0  0  0  0
   38.0420   26.6010   40.9140 C   0  0  1  0  0  0  0  0  0  0  0  0
   37.3070   26.0370   42.1170 C   0  0  0  0  0  0  0  0  0  0  0  0
   37.4610   27.0290   43.1650 N   0  0  0  0  0  0  0  0  0  0  0  0
   38.8380   27.1100   43.5990 C   0  0  0  0  0  0  0  0  0  0  0  0
   39.8290   27.1210   42.5010 C   0  0  1  0  0  0  0  0  0  0  0  0
   40.0130   27.1060   40.4870 H   0  0  0  0  0  0  0  0  0  0  0  0
   37.8800   25.9100   40.0770 H   0  0  0  0  0  0  0  0  0  0  0  0
   36.2240   25.9310   41.9270 H   0  0  0  0  0  0  0  0  0  0  0  0
   37.7690   25.0980   42.4960 H   0  0  0  0  0  0  0  0  0  0  0  0
   36.8790   26.8350   44.0020 H   0  0  0  0  0  0  0  0  0  0  0  0
   38.9270   27.9960   44.2670 H   0  0  0  0  0  0  0  0  0  0  0  0
   39.0240   26.2150   44.2330 H   0  0  0  0  0  0  0  0  0  0  0  0
   40.1610   28.1940   42.3850 H   0  0  0  0  0  0  0  0  0  0  0  0
   41.0790   26.3910   42.8750 C   0  0  0  0  0  0  0  0  0  0  0  0
   41.3410   25.0660   42.5860 C   0  0  0  0  0  0  0  0  0  0  0  0
   40.6820   24.3760   42.0540 H   0  0  0  0  0  0  0  0  0  0  0  0
   42.5700   24.8200   43.1030 N   0  0  0  0  0  0  0  0  0  0  0  0
   42.9780   23.8470   42.9940 H   0  0  0  0  0  0  0  0  0  0  0  0
   43.0460   25.9320   43.6800 C   0  0  0  0  0  0  0  0  0  0  0  0
   44.0270   25.9710   44.1640 H   0  0  0  0  0  0  0  0  0  0  0  0
   42.1340   26.9280   43.5520 N   0  0  0  0  0  0  0  0  0  0  0  0
   37.3340   30.0400   40.3470 C   0  0  0  0  0  0  0  0  0  0  0  0
   36.0900   29.5040   40.1110 C   0  0  0  0  0  0  0  0  0  0  0  0
   36.1660   28.1560   40.2840 C   0  0  0  0  0  0  0  0  0  0  0  0
   37.4490   27.8770   40.6240 N   0  0  0  0  0  0  0  0  0  0  0  0
   38.1320   29.0230   40.6550 N   0  0  0  0  0  0  0  0  0  0  0  0
   35.2170   30.0970   39.8320 H   0  0  0  0  0  0  0  0  0  0  0  0
   35.3680   27.4370   40.1760 H   0  0  0  0  0  0  0  0  0  0  0  0
   37.3030   33.6150   39.4870 C   0  0  0  0  0  0  0  0  0  0  0  0
   38.4240   34.1150   40.1570 C   0  0  0  0  0  0  0  0  0  0  0  0
   39.1760   33.1970   40.9000 C   0  0  0  0  0  0  0  0  0  0  0  0
   38.7810   31.9010   40.9260 N   0  0  0  0  0  0  0  0  0  0  0  0
   37.6950   31.4490   40.2700 C   0  0  0  0  0  0  0  0  0  0  0  0
   36.9610   32.3150   39.5510 N   0  0  0  0  0  0  0  0  0  0  0  0
   36.6750   34.2880   38.8880 H   0  0  0  0  0  0  0  0  0  0  0  0
   38.6620   35.1660   40.0770 H   0  0  0  0  0  0  0  0  0  0  0  0
   40.0490   33.5560   41.4290 H   0  0  0  0  0  0  0  0  0  0  0  0
  1  6  1  0  0  0  0
  2  8  1  6  0  0  0
  2  1  1  0  0  0  0
  2  3  1  0  0  0  0
  3 10  1  0  0  0  0
  3  4  1  0  0  0  0
  4  5  1  0  0  0  0
  4 11  1  0  0  0  0
  5 13  1  0  0  0  0
  5 12  1  0  0  0  0
  6 14  1  6  0  0  0
  6 15  1  0  0  0  0
  6  5  1  0  0  0  0
  7  1  1  0  0  0  0
  9  3  1  0  0  0  0
 15 22  1  0  0  0  0
 16 15  2  0  0  0  0
 16 18  1  0  0  0  0
 17 16  1  0  0  0  0
 18 20  1  0  0  0  0
 19 18  1  0  0  0  0
 20 21  1  0  0  0  0
 22 20  2  0  0  0  0
 23 27  2  0  0  0  0
 24 25  2  0  0  0  0
 24 23  1  0  0  0  0
 25 26  1  0  0  0  0
 26 27  1  0  0  0  0
 26  2  1  0  0  0  0
 28 24  1  0  0  0  0
 29 25  1  0  0  0  0
 30 35  2  0  0  0  0
 30 31  1  0  0  0  0
 31 32  2  0  0  0  0
 32 33  1  0  0  0  0
 32 38  1  0  0  0  0
 34 23  1  0  0  0  0
 34 33  2  0  0  0  0
 35 34  1  0  0  0  0
 36 30  1  0  0  0  0
 37 31  1  0  0  0  0
M  END
>  <minimizedAffinity>
-5.40467119

$$$$

 OpenBabel03242520043D

 38 41  0  0  1  0  0  0  0  0999 V2000
   38.3640   27.8730   41.0230 N   0  0  0  0  0  0  0  0  0  0  0  0
   37.4770   28.9280   40.6830 C   0  0  1  0  0  0  0  0  0  0  0  0
   36.3300   28.9300   41.6780 C   0  0  0  0  0  0  0  0  0  0  0  0
   36.9270   29.2760   42.9550 N   0  0  0  0  0  0  0  0  0  0  0  0
   37.7940   28.2170   43.4210 C   0  0  0  0  0  0  0  0  0  0  0  0
   38.6850   27.6530   42.3850 C   0  0  1  0  0  0  0  0  0  0  0  0
   39.2250   27.8280   40.4440 H   0  0  0  0  0  0  0  0  0  0  0  0
   37.0480   28.7460   39.6900 H   0  0  0  0  0  0  0  0  0  0  0  0
   35.5840   29.7120   41.4460 H   0  0  0  0  0  0  0  0  0  0  0  0
   35.8710   27.9240   41.8020 H   0  0  0  0  0  0  0  0  0  0  0  0
   36.2250   29.4570   43.6990 H   0  0  0  0  0  0  0  0  0  0  0  0
   38.3520   28.6060   44.3030 H   0  0  0  0  0  0  0  0  0  0  0  0
   37.1320   27.4060   43.7970 H   0  0  0  0  0  0  0  0  0  0  0  0
   39.7050   28.1020   42.5650 H   0  0  0  0  0  0  0  0  0  0  0  0
   38.8950   26.1850   42.5740 C   0  0  0  0  0  0  0  0  0  0  0  0
   38.1050   25.1930   42.0270 C   0  0  0  0  0  0  0  0  0  0  0  0
   37.2300   25.3390   41.3900 H   0  0  0  0  0  0  0  0  0  0  0  0
   38.6480   24.0240   42.4500 N   0  0  0  0  0  0  0  0  0  0  0  0
   38.1940   23.1170   42.1430 H   0  0  0  0  0  0  0  0  0  0  0  0
   39.7180   24.2770   43.2170 C   0  0  0  0  0  0  0  0  0  0  0  0
   40.3180   23.4820   43.6710 H   0  0  0  0  0  0  0  0  0  0  0  0
   39.8950   25.6190   43.3110 N   0  0  0  0  0  0  0  0  0  0  0  0
   39.6400   31.7340   40.9870 C   0  0  0  0  0  0  0  0  0  0  0  0
   38.4640   32.3780   40.6830 C   0  0  0  0  0  0  0  0  0  0  0  0
   37.4920   31.4390   40.5260 C   0  0  0  0  0  0  0  0  0  0  0  0
   38.0750   30.2330   40.7330 N   0  0  0  0  0  0  0  0  0  0  0  0
   39.3650   30.4340   41.0080 N   0  0  0  0  0  0  0  0  0  0  0  0
   38.3710   33.4630   40.5930 H   0  0  0  0  0  0  0  0  0  0  0  0
   36.4530   31.6080   40.2840 H   0  0  0  0  0  0  0  0  0  0  0  0
   42.4650   34.0850   40.8550 C   0  0  0  0  0  0  0  0  0  0  0  0
   43.3920   33.5200   41.7370 C   0  0  0  0  0  0  0  0  0  0  0  0
   43.0190   32.3260   42.3650 C   0  0  0  0  0  0  0  0  0  0  0  0
   41.8020   31.7970   42.0880 N   0  0  0  0  0  0  0  0  0  0  0  0
   40.9300   32.3650   41.2330 C   0  0  0  0  0  0  0  0  0  0  0  0
   41.2710   33.5100   40.6200 N   0  0  0  0  0  0  0  0  0  0  0  0
   42.7020   35.0200   40.3330 H   0  0  0  0  0  0  0  0  0  0  0  0
   44.3400   34.0150   41.8950 H   0  0  0  0  0  0  0  0  0  0  0  0
   43.7170   31.8670   43.0530 H   0  0  0  0  0  0  0  0  0  0  0  0
  1  6  1  0  0  0  0
  2  8  1  6  0  0  0
  2 26  1  0  0  0  0
  2  1  1  0  0  0  0
  2  3  1  0  0  0  0
  3 10  1  0  0  0  0
  3  4  1  0  0  0  0
  4  5  1  0  0  0  0
  4 11  1  0  0  0  0
  5 13  1  0  0  0  0
  5 12  1  0  0  0  0
  6 14  1  1  0  0  0
  6 15  1  0  0  0  0
  6  5  1  0  0  0  0
  7  1  1  0  0  0  0
  9  3  1  0  0  0  0
 15 22  1  0  0  0  0
 16 18  1  0  0  0  0
 16 15  2  0  0  0  0
 17 16  1  0  0  0  0
 18 20  1  0  0  0  0
 19 18  1  0  0  0  0
 20 22  2  0  0  0  0
 20 21  1  0  0  0  0
 23 27  2  0  0  0  0
 23 34  1  0  0  0  0
 24 23  1  0  0  0  0
 25 24  2  0  0  0  0
 25 26  1  0  0  0  0
 26 27  1  0  0  0  0
 28 24  1  0  0  0  0
 29 25  1  0  0  0  0
 30 31  1  0  0  0  0
 31 37  1  0  0  0  0
 31 32  2  0  0  0  0
 32 38  1  0  0  0  0
 33 32  1  0  0  0  0
 34 33  2  0  0  0  0
 35 30  2  0  0  0  0
 35 34  1  0  0  0  0
 36 30  1  0  0  0  0
M  END
>  <minimizedAffinity>
-5.3735075

$$$$

 OpenBabel03242520043D

 38 41  0  0  1  0  0  0  0  0999 V2000
   38.2520   27.7550   40.9380 N   0  0  0  0  0  0  0  0  0  0  0  0
   37.1020   28.5450   40.6810 C   0  0  1  0  0  0  0  0  0  0  0  0
   36.2290   28.5420   41.9240 C   0  0  0  0  0  0  0  0  0  0  0  0
   37.0000   29.2360   42.9390 N   0  0  0  0  0  0  0  0  0  0  0  0
   38.1610   28.4630   43.3220 C   0  0  0  0  0  0  0  0  0  0  0  0
   38.9050   27.8720   42.1900 C   0  0  1  0  0  0  0  0  0  0  0  0
   38.9530   27.7490   40.1710 H   0  0  0  0  0  0  0  0  0  0  0  0
   36.5160   28.0950   39.8690 H   0  0  0  0  0  0  0  0  0  0  0  0
   35.2970   29.1160   41.7760 H   0  0  0  0  0  0  0  0  0  0  0  0
   36.0430   27.5160   42.3110 H   0  0  0  0  0  0  0  0  0  0  0  0
   36.4570   29.4340   43.8020 H   0  0  0  0  0  0  0  0  0  0  0  0
   38.7990   29.1140   43.9630 H   0  0  0  0  0  0  0  0  0  0  0  0
   37.7940   27.6390   43.9720 H   0  0  0  0  0  0  0  0  0  0  0  0
   39.8150   28.5220   42.0330 H   0  0  0  0  0  0  0  0  0  0  0  0
   39.4710   26.5320   42.5370 C   0  0  0  0  0  0  0  0  0  0  0  0
   40.7740   26.2980   42.9310 C   0  0  0  0  0  0  0  0  0  0  0  0
   41.5620   27.0460   43.0420 H   0  0  0  0  0  0  0  0  0  0  0  0
   40.8520   24.9610   43.1420 N   0  0  0  0  0  0  0  0  0  0  0  0
   41.7790   24.5530   43.4570 H   0  0  0  0  0  0  0  0  0  0  0  0
   39.6630   24.3950   42.8940 C   0  0  0  0  0  0  0  0  0  0  0  0
   39.4880   23.3200   42.9990 H   0  0  0  0  0  0  0  0  0  0  0  0
   38.7820   25.3540   42.5130 N   0  0  0  0  0  0  0  0  0  0  0  0
   38.5970   31.6750   39.8970 C   0  0  0  0  0  0  0  0  0  0  0  0
   37.2800   32.0590   39.9750 C   0  0  0  0  0  0  0  0  0  0  0  0
   36.5320   30.9620   40.2750 C   0  0  0  0  0  0  0  0  0  0  0  0
   37.3920   29.9190   40.3800 N   0  0  0  0  0  0  0  0  0  0  0  0
   38.6260   30.3700   40.1480 N   0  0  0  0  0  0  0  0  0  0  0  0
   36.9360   33.0830   39.8150 H   0  0  0  0  0  0  0  0  0  0  0  0
   35.4620   30.9180   40.4080 H   0  0  0  0  0  0  0  0  0  0  0  0
   41.2930   34.1520   40.2400 C   0  0  0  0  0  0  0  0  0  0  0  0
   41.8870   34.1560   38.9730 C   0  0  0  0  0  0  0  0  0  0  0  0
   41.3370   33.2950   38.0160 C   0  0  0  0  0  0  0  0  0  0  0  0
   40.2820   32.5200   38.3670 N   0  0  0  0  0  0  0  0  0  0  0  0
   39.7320   32.5380   39.5960 C   0  0  0  0  0  0  0  0  0  0  0  0
   40.2450   33.3590   40.5270 N   0  0  0  0  0  0  0  0  0  0  0  0
   41.6810   34.8070   41.0310 H   0  0  0  0  0  0  0  0  0  0  0  0
   42.7270   34.8100   38.7860 H   0  0  0  0  0  0  0  0  0  0  0  0
   41.7770   33.2770   37.0280 H   0  0  0  0  0  0  0  0  0  0  0  0
  1  6  1  0  0  0  0
  2  8  1  6  0  0  0
  2  1  1  0  0  0  0
  2  3  1  0  0  0  0
  3 10  1  0  0  0  0
  3  4  1  0  0  0  0
  4  5  1  0  0  0  0
  4 11  1  0  0  0  0
  5 12  1  0  0  0  0
  5 13  1  0  0  0  0
  6 14  1  6  0  0  0
  6 15  1  0  0  0  0
  6  5  1  0  0  0  0
  7  1  1  0  0  0  0
  9  3  1  0  0  0  0
 15 16  2  0  0  0  0
 16 17  1  0  0  0  0
 16 18  1  0  0  0  0
 18 19  1  0  0  0  0
 20 21  1  0  0  0  0
 20 18  1  0  0  0  0
 22 15  1  0  0  0  0
 22 20  2  0  0  0  0
 23 24  1  0  0  0  0
 23 27  2  0  0  0  0
 24 25  2  0  0  0  0
 25 26  1  0  0  0  0
 25 29  1  0  0  0  0
 26  2  1  0  0  0  0
 27 26  1  0  0  0  0
 28 24  1  0  0  0  0
 30 35  1  0  0  0  0
 30 36  1  0  0  0  0
 31 30  2  0  0  0  0
 32 33  2  0  0  0  0
 32 31  1  0  0  0  0
 33 34  1  0  0  0  0
 34 23  1  0  0  0  0
 34 35  2  0  0  0  0
 37 31  1  0  0  0  0
 38 32  1  0  0  0  0
M  END
>  <minimizedAffinity>
-5.35613394

$$$$

 OpenBabel03242520043D

 38 41  0  0  1  0  0  0  0  0999 V2000
   38.4170   32.0010   39.3360 N   0  0  0  0  0  0  0  0  0  0  0  0
   39.0880   33.2490   39.3870 C   0  0  1  0  0  0  0  0  0  0  0  0
   39.2180   33.6660   40.8420 C   0  0  0  0  0  0  0  0  0  0  0  0
   40.1030   32.6870   41.4470 N   0  0  0  0  0  0  0  0  0  0  0  0
   39.4680   31.3890   41.5080 C   0  0  0  0  0  0  0  0  0  0  0  0
   38.7600   30.9930   40.2720 C   0  0  1  0  0  0  0  0  0  0  0  0
   38.3390   31.5890   38.3850 H   0  0  0  0  0  0  0  0  0  0  0  0
   38.4870   34.0140   38.8800 H   0  0  0  0  0  0  0  0  0  0  0  0
   39.7060   34.6520   40.9470 H   0  0  0  0  0  0  0  0  0  0  0  0
   38.2520   33.6060   41.3900 H   0  0  0  0  0  0  0  0  0  0  0  0
   40.3950   32.9390   42.4110 H   0  0  0  0  0  0  0  0  0  0  0  0
   40.2450   30.6510   41.8130 H   0  0  0  0  0  0  0  0  0  0  0  0
   38.7300   31.4350   42.3380 H   0  0  0  0  0  0  0  0  0  0  0  0
   39.4340   30.2590   39.7410 H   0  0  0  0  0  0  0  0  0  0  0  0
   37.5250   30.2050   40.5690 C   0  0  0  0  0  0  0  0  0  0  0  0
   36.2770   30.7450   40.8120 C   0  0  0  0  0  0  0  0  0  0  0  0
   36.0210   31.8070   40.8220 H   0  0  0  0  0  0  0  0  0  0  0  0
   35.4610   29.6850   41.0320 N   0  0  0  0  0  0  0  0  0  0  0  0
   34.4380   29.8710   41.2420 H   0  0  0  0  0  0  0  0  0  0  0  0
   36.1630   28.5480   40.9310 C   0  0  0  0  0  0  0  0  0  0  0  0
   35.7100   27.5620   41.0700 H   0  0  0  0  0  0  0  0  0  0  0  0
   37.4550   28.8440   40.6430 N   0  0  0  0  0  0  0  0  0  0  0  0
   42.1410   32.4450   37.7500 C   0  0  0  0  0  0  0  0  0  0  0  0
   42.4670   33.6800   38.2570 C   0  0  0  0  0  0  0  0  0  0  0  0
   41.3900   34.1610   38.9350 C   0  0  0  0  0  0  0  0  0  0  0  0
   40.4160   33.2220   38.8410 N   0  0  0  0  0  0  0  0  0  0  0  0
   40.8890   32.2000   38.1250 N   0  0  0  0  0  0  0  0  0  0  0  0
   43.4380   34.1580   38.1130 H   0  0  0  0  0  0  0  0  0  0  0  0
   41.3120   35.1050   39.4530 H   0  0  0  0  0  0  0  0  0  0  0  0
   43.3110   29.7620   35.5240 C   0  0  0  0  0  0  0  0  0  0  0  0
   44.6930   29.9720   35.4690 C   0  0  0  0  0  0  0  0  0  0  0  0
   45.1980   31.0470   36.2100 C   0  0  0  0  0  0  0  0  0  0  0  0
   44.3330   31.8080   36.9240 N   0  0  0  0  0  0  0  0  0  0  0  0
   43.0060   31.5810   36.9580 C   0  0  0  0  0  0  0  0  0  0  0  0
   42.5040   30.5530   36.2530 N   0  0  0  0  0  0  0  0  0  0  0  0
   42.8580   28.9340   34.9640 H   0  0  0  0  0  0  0  0  0  0  0  0
   45.3040   29.3110   34.8710 H   0  0  0  0  0  0  0  0  0  0  0  0
   46.2630   31.2330   36.1860 H   0  0  0  0  0  0  0  0  0  0  0  0
  1  2  1  0  0  0  0
  1  6  1  0  0  0  0
  2  8  1  6  0  0  0
  2  3  1  0  0  0  0
  3  9  1  0  0  0  0
  3 10  1  0  0  0  0
  3  4  1  0  0  0  0
  4  5  1  0  0  0  0
  4 11  1  0  0  0  0
  5 12  1  0  0  0  0
  5 13  1  0  0  0  0
  6 14  1  6  0  0  0
  6 15  1  0  0  0  0
  6  5  1  0  0  0  0
  7  1  1  0  0  0  0
 15 22  1  0  0  0  0
 15 16  2  0  0  0  0
 16 17  1  0  0  0  0
 16 18  1  0  0  0  0
 18 19  1  0  0  0  0
 20 18  1  0  0  0  0
 20 21  1  0  0  0  0
 22 20  2  0  0  0  0
 23 27  2  0  0  0  0
 23 24  1  0  0  0  0
 24 25  2  0  0  0  0
 25 29  1  0  0  0  0
 26 25  1  0  0  0  0
 26  2  1  0  0  0  0
 27 26  1  0  0  0  0
 28 24  1  0  0  0  0
 30 35  1  0  0  0  0
 31 30  2  0  0  0  0
 31 32  1  0  0  0  0
 32 33  2  0  0  0  0
 33 34  1  0  0  0  0
 34 23  1  0  0  0  0
 35 34  2  0  0  0  0
 36 30  1  0  0  0  0
 37 31  1  0  0  0  0
 38 32  1  0  0  0  0
M  END
>  <minimizedAffinity>
-5.34080839

$$$$

 OpenBabel03242520043D

 38 41  0  0  1  0  0  0  0  0999 V2000
   38.9100   29.5760   40.9730 N   0  0  0  0  0  0  0  0  0  0  0  0
   39.0520   28.6920   42.0730 C   0  0  1  0  0  0  0  0  0  0  0  0
   38.2800   29.2610   43.2510 C   0  0  0  0  0  0  0  0  0  0  0  0
   36.8840   29.2210   42.8540 N   0  0  0  0  0  0  0  0  0  0  0  0
   36.6280   30.1540   41.7800 C   0  0  0  0  0  0  0  0  0  0  0  0
   37.6400   30.1450   40.7030 C   0  0  1  0  0  0  0  0  0  0  0  0
   39.3430   29.2420   40.0900 H   0  0  0  0  0  0  0  0  0  0  0  0
   40.1060   28.6350   42.3700 H   0  0  0  0  0  0  0  0  0  0  0  0
   38.3790   28.6320   44.1530 H   0  0  0  0  0  0  0  0  0  0  0  0
   38.5260   30.3290   43.4450 H   0  0  0  0  0  0  0  0  0  0  0  0
   36.2310   29.4480   43.6290 H   0  0  0  0  0  0  0  0  0  0  0  0
   35.5980   29.9560   41.4040 H   0  0  0  0  0  0  0  0  0  0  0  0
   36.6080   31.1680   42.2380 H   0  0  0  0  0  0  0  0  0  0  0  0
   37.1880   29.5640   39.8470 H   0  0  0  0  0  0  0  0  0  0  0  0
   37.8620   31.5120   40.1390 C   0  0  0  0  0  0  0  0  0  0  0  0
   37.1200   32.0820   39.1230 C   0  0  0  0  0  0  0  0  0  0  0  0
   36.2810   31.6230   38.5970 H   0  0  0  0  0  0  0  0  0  0  0  0
   37.6580   33.3120   38.9300 N   0  0  0  0  0  0  0  0  0  0  0  0
   37.2360   33.9350   38.1830 H   0  0  0  0  0  0  0  0  0  0  0  0
   38.6780   33.4960   39.7790 C   0  0  0  0  0  0  0  0  0  0  0  0
   39.2640   34.4200   39.8050 H   0  0  0  0  0  0  0  0  0  0  0  0
   38.8280   32.3860   40.5460 N   0  0  0  0  0  0  0  0  0  0  0  0
   37.3910   25.7960   40.8470 C   0  0  0  0  0  0  0  0  0  0  0  0
   38.0500   25.2490   41.9220 C   0  0  0  0  0  0  0  0  0  0  0  0
   38.7610   26.2350   42.5340 C   0  0  0  0  0  0  0  0  0  0  0  0
   38.5330   27.3740   41.8340 N   0  0  0  0  0  0  0  0  0  0  0  0
   37.7080   27.0860   40.8260 N   0  0  0  0  0  0  0  0  0  0  0  0
   37.9870   24.1950   42.2010 H   0  0  0  0  0  0  0  0  0  0  0  0
   39.3880   26.1420   43.4080 H   0  0  0  0  0  0  0  0  0  0  0  0
   35.3480   24.9820   37.8990 C   0  0  0  0  0  0  0  0  0  0  0  0
   34.8590   23.7050   38.1920 C   0  0  0  0  0  0  0  0  0  0  0  0
   35.2470   23.1450   39.4150 C   0  0  0  0  0  0  0  0  0  0  0  0
   36.0620   23.8610   40.2290 N   0  0  0  0  0  0  0  0  0  0  0  0
   36.5180   25.0890   39.9190 C   0  0  0  0  0  0  0  0  0  0  0  0
   36.1550   25.6430   38.7500 N   0  0  0  0  0  0  0  0  0  0  0  0
   35.0780   25.4710   36.9550 H   0  0  0  0  0  0  0  0  0  0  0  0
   34.2130   23.2110   37.4800 H   0  0  0  0  0  0  0  0  0  0  0  0
   34.8830   22.1580   39.6680 H   0  0  0  0  0  0  0  0  0  0  0  0
  1  2  1  0  0  0  0
  2  8  1  1  0  0  0
  2  3  1  0  0  0  0
  3 10  1  0  0  0  0
  3  9  1  0  0  0  0
  4  3  1  0  0  0  0
  4 11  1  0  0  0  0
  5 13  1  0  0  0  0
  5  4  1  0  0  0  0
  6 14  1  6  0  0  0
  6  1  1  0  0  0  0
  6  5  1  0  0  0  0
  7  1  1  0  0  0  0
 12  5  1  0  0  0  0
 15 22  1  0  0  0  0
 15  6  1  0  0  0  0
 16 15  2  0  0  0  0
 17 16  1  0  0  0  0
 18 16  1  0  0  0  0
 18 20  1  0  0  0  0
 19 18  1  0  0  0  0
 20 21  1  0  0  0  0
 20 22  2  0  0  0  0
 23 24  1  0  0  0  0
 24 28  1  0  0  0  0
 24 25  2  0  0  0  0
 25 29  1  0  0  0  0
 26  2  1  0  0  0  0
 26 25  1  0  0  0  0
 27 23  2  0  0  0  0
 27 26  1  0  0  0  0
 30 31  2  0  0  0  0
 30 35  1  0  0  0  0
 31 32  1  0  0  0  0
 32 38  1  0  0  0  0
 32 33  2  0  0  0  0
 34 33  1  0  0  0  0
 34 23  1  0  0  0  0
 35 34  2  0  0  0  0
 36 30  1  0  0  0  0
 37 31  1  0  0  0  0
M  END
>  <minimizedAffinity>
-5.10159111

$$$$

 OpenBabel03242520043D

 38 41  0  0  1  0  0  0  0  0999 V2000
   38.1110   31.7380   39.7100 N   0  0  0  0  0  0  0  0  0  0  0  0
   37.1440   31.4390   38.7150 C   0  0  1  0  0  0  0  0  0  0  0  0
   37.7890   31.6100   37.3510 C   0  0  0  0  0  0  0  0  0  0  0  0
   38.8080   30.5790   37.2730 N   0  0  0  0  0  0  0  0  0  0  0  0
   39.8810   30.8440   38.2060 C   0  0  0  0  0  0  0  0  0  0  0  0
   39.4350   31.2580   39.5530 C   0  0  1  0  0  0  0  0  0  0  0  0
   37.7910   31.5820   40.6860 H   0  0  0  0  0  0  0  0  0  0  0  0
   36.3150   32.1540   38.7770 H   0  0  0  0  0  0  0  0  0  0  0  0
   37.0740   31.4220   36.5300 H   0  0  0  0  0  0  0  0  0  0  0  0
   38.3140   32.5850   37.2470 H   0  0  0  0  0  0  0  0  0  0  0  0
   39.2290   30.4900   36.3280 H   0  0  0  0  0  0  0  0  0  0  0  0
   40.5360   29.9430   38.2270 H   0  0  0  0  0  0  0  0  0  0  0  0
   40.4870   31.6670   37.7660 H   0  0  0  0  0  0  0  0  0  0  0  0
   39.5430   30.3510   40.2160 H   0  0  0  0  0  0  0  0  0  0  0  0
   40.3600   32.2640   40.1590 C   0  0  0  0  0  0  0  0  0  0  0  0
   40.0310   33.5740   40.4470 C   0  0  0  0  0  0  0  0  0  0  0  0
   39.0640   34.0520   40.2750 H   0  0  0  0  0  0  0  0  0  0  0  0
   41.1530   34.1210   40.9770 N   0  0  0  0  0  0  0  0  0  0  0  0
   41.1270   35.1380   41.2750 H   0  0  0  0  0  0  0  0  0  0  0  0
   42.1270   33.2000   41.0170 C   0  0  0  0  0  0  0  0  0  0  0  0
   43.1260   33.4160   41.4080 H   0  0  0  0  0  0  0  0  0  0  0  0
   41.6580   32.0310   40.5110 N   0  0  0  0  0  0  0  0  0  0  0  0
   36.4440   28.0360   39.4770 C   0  0  0  0  0  0  0  0  0  0  0  0
   35.5650   28.2280   38.4380 C   0  0  0  0  0  0  0  0  0  0  0  0
   35.6920   29.5110   38.0030 C   0  0  0  0  0  0  0  0  0  0  0  0
   36.6440   30.0940   38.7730 N   0  0  0  0  0  0  0  0  0  0  0  0
   37.0810   29.1900   39.6520 N   0  0  0  0  0  0  0  0  0  0  0  0
   34.8950   27.4530   38.0590 H   0  0  0  0  0  0  0  0  0  0  0  0
   35.1470   29.9860   37.2000 H   0  0  0  0  0  0  0  0  0  0  0  0
   37.1990   25.6890   42.2050 C   0  0  0  0  0  0  0  0  0  0  0  0
   36.9750   24.4370   41.6210 C   0  0  0  0  0  0  0  0  0  0  0  0
   36.5630   24.4300   40.2830 C   0  0  0  0  0  0  0  0  0  0  0  0
   36.4090   25.6150   39.6430 N   0  0  0  0  0  0  0  0  0  0  0  0
   36.6330   26.8050   40.2320 C   0  0  0  0  0  0  0  0  0  0  0  0
   37.0290   26.8310   41.5160 N   0  0  0  0  0  0  0  0  0  0  0  0
   37.5230   25.7570   43.2510 H   0  0  0  0  0  0  0  0  0  0  0  0
   37.1250   23.5450   42.2120 H   0  0  0  0  0  0  0  0  0  0  0  0
   36.3820   23.4760   39.8070 H   0  0  0  0  0  0  0  0  0  0  0  0
  1  7  1  0  0  0  0
  2 26  1  0  0  0  0
  2  8  1  1  0  0  0
  2  1  1  0  0  0  0
  3  2  1  0  0  0  0
  4  3  1  0  0  0  0
  4  5  1  0  0  0  0
  5 12  1  0  0  0  0
  5  6  1  0  0  0  0
  6  1  1  0  0  0  0
  6 15  1  0  0  0  0
  6 14  1  1  0  0  0
  9  3  1  0  0  0  0
 10  3  1  0  0  0  0
 11  4  1  0  0  0  0
 13  5  1  0  0  0  0
 15 16  2  0  0  0  0
 15 22  1  0  0  0  0
 16 18  1  0  0  0  0
 17 16  1  0  0  0  0
 18 20  1  0  0  0  0
 18 19  1  0  0  0  0
 20 21  1  0  0  0  0
 22 20  2  0  0  0  0
 23 27  2  0  0  0  0
 23 34  1  0  0  0  0
 24 23  1  0  0  0  0
 25 24  2  0  0  0  0
 25 26  1  0  0  0  0
 26 27  1  0  0  0  0
 28 24  1  0  0  0  0
 29 25  1  0  0  0  0
 30 36  1  0  0  0  0
 31 30  1  0  0  0  0
 31 37  1  0  0  0  0
 32 31  2  0  0  0  0
 33 34  2  0  0  0  0
 33 32  1  0  0  0  0
 34 35  1  0  0  0  0
 35 30  2  0  0  0  0
 38 32  1  0  0  0  0
M  END
>  <minimizedAffinity>
-5.07054138

$$$$

 OpenBabel03242520043D

 38 41  0  0  1  0  0  0  0  0999 V2000
   36.9910   27.1530   40.6890 N   0  0  0  0  0  0  0  0  0  0  0  0
   36.3570   28.2390   41.3450 C   0  0  1  0  0  0  0  0  0  0  0  0
   36.6450   28.1370   42.8330 C   0  0  0  0  0  0  0  0  0  0  0  0
   38.0760   28.3410   42.9650 N   0  0  0  0  0  0  0  0  0  0  0  0
   38.8090   27.2370   42.3870 C   0  0  0  0  0  0  0  0  0  0  0  0
   38.3050   26.7860   41.0720 C   0  0  1  0  0  0  0  0  0  0  0  0
   36.9150   27.1690   39.6530 H   0  0  0  0  0  0  0  0  0  0  0  0
   35.2690   28.1670   41.2170 H   0  0  0  0  0  0  0  0  0  0  0  0
   36.1480   28.9410   43.4060 H   0  0  0  0  0  0  0  0  0  0  0  0
   36.4280   27.1250   43.2400 H   0  0  0  0  0  0  0  0  0  0  0  0
   38.3860   28.4430   43.9510 H   0  0  0  0  0  0  0  0  0  0  0  0
   39.8840   27.5270   42.3590 H   0  0  0  0  0  0  0  0  0  0  0  0
   38.7270   26.3910   43.1050 H   0  0  0  0  0  0  0  0  0  0  0  0
   39.0100   27.2110   40.3000 H   0  0  0  0  0  0  0  0  0  0  0  0
   38.4330   25.3060   40.9070 C   0  0  0  0  0  0  0  0  0  0  0  0
   38.2150   24.3740   41.9020 C   0  0  0  0  0  0  0  0  0  0  0  0
   37.9230   24.5830   42.9340 H   0  0  0  0  0  0  0  0  0  0  0  0
   38.4410   23.1680   41.3240 N   0  0  0  0  0  0  0  0  0  0  0  0
   38.3290   22.2960   41.9160 H   0  0  0  0  0  0  0  0  0  0  0  0
   38.7800   23.3420   40.0390 C   0  0  0  0  0  0  0  0  0  0  0  0
   39.0090   22.5050   39.3720 H   0  0  0  0  0  0  0  0  0  0  0  0
   38.7840   24.6680   39.7530 N   0  0  0  0  0  0  0  0  0  0  0  0
   38.1230   31.0000   39.9640 C   0  0  0  0  0  0  0  0  0  0  0  0
   37.0620   31.6630   40.5330 C   0  0  0  0  0  0  0  0  0  0  0  0
   36.2530   30.7440   41.1260 C   0  0  0  0  0  0  0  0  0  0  0  0
   36.8200   29.5300   40.9190 N   0  0  0  0  0  0  0  0  0  0  0  0
   37.9420   29.7080   40.2190 N   0  0  0  0  0  0  0  0  0  0  0  0
   36.9300   32.7460   40.4900 H   0  0  0  0  0  0  0  0  0  0  0  0
   35.3340   30.9320   41.6620 H   0  0  0  0  0  0  0  0  0  0  0  0
   40.7940   33.3120   38.9440 C   0  0  0  0  0  0  0  0  0  0  0  0
   41.3150   32.7110   37.7930 C   0  0  0  0  0  0  0  0  0  0  0  0
   40.7260   31.5080   37.3880 C   0  0  0  0  0  0  0  0  0  0  0  0
   39.7050   31.0030   38.1230 N   0  0  0  0  0  0  0  0  0  0  0  0
   39.2250   31.6050   39.2280 C   0  0  0  0  0  0  0  0  0  0  0  0
   39.7770   32.7610   39.6310 N   0  0  0  0  0  0  0  0  0  0  0  0
   41.2160   34.2570   39.3100 H   0  0  0  0  0  0  0  0  0  0  0  0
   42.1320   33.1890   37.2720 H   0  0  0  0  0  0  0  0  0  0  0  0
   41.1090   31.0210   36.5010 H   0  0  0  0  0  0  0  0  0  0  0  0
  1  6  1  0  0  0  0
  1  2  1  0  0  0  0
  2  8  1  6  0  0  0
  2  3  1  0  0  0  0
  3  4  1  0  0  0  0
  3 10  1  0  0  0  0
  3  9  1  0  0  0  0
  4 11  1  0  0  0  0
  5  4  1  0  0  0  0
  5 13  1  0  0  0  0
  6 14  1  6  0  0  0
  6  5  1  0  0  0  0
  7  1  1  0  0  0  0
 12  5  1  0  0  0  0
 15  6  1  0  0  0  0
 15 16  2  0  0  0  0
 16 17  1  0  0  0  0
 18 16  1  0  0  0  0
 18 19  1  0  0  0  0
 20 18  1  0  0  0  0
 21 20  1  0  0  0  0
 22 20  2  0  0  0  0
 22 15  1  0  0  0  0
 23 27  2  0  0  0  0
 23 24  1  0  0  0  0
 24 25  2  0  0  0  0
 25 29  1  0  0  0  0
 26 25  1  0  0  0  0
 26  2  1  0  0  0  0
 27 26  1  0  0  0  0
 28 24  1  0  0  0  0
 30 36  1  0  0  0  0
 30 35  1  0  0  0  0
 31 30  2  0  0  0  0
 32 31  1  0  0  0  0
 32 33  2  0  0  0  0
 33 34  1  0  0  0  0
 34 35  2  0  0  0  0
 34 23  1  0  0  0  0
 37 31  1  0  0  0  0
 38 32  1  0  0  0  0
M  END
>  <minimizedAffinity>
-5.0449791

$$$$
