
 OpenBabel03252509223D

 26 28  0  0  1  0  0  0  0  0999 V2000
   46.5310   35.0210   41.9650 C   0  0  1  0  0  0  0  0  0  0  0  0
   48.0580   35.2910   41.9500 C   0  0  0  0  0  0  0  0  0  0  0  0
   47.3490   34.0310   41.3660 C   0  0  2  0  0  0  0  0  0  0  0  0
   45.9430   35.7840   41.4300 H   0  0  0  0  0  0  0  0  0  0  0  0
   48.3440   36.0600   41.2370 H   0  0  0  0  0  0  0  0  0  0  0  0
   48.6370   35.1550   42.8600 H   0  0  0  0  0  0  0  0  0  0  0  0
   47.6220   33.1000   41.9020 H   0  0  0  0  0  0  0  0  0  0  0  0
   44.6590   35.3890   45.1840 C   0  0  0  0  0  0  0  0  0  0  0  0
   45.1110   35.6850   43.8720 C   0  0  0  0  0  0  0  0  0  0  0  0
   46.0540   34.8140   43.3920 C   0  0  0  0  0  0  0  0  0  0  0  0
   46.5220   33.7430   44.1290 N   0  0  0  0  0  0  0  0  0  0  0  0
   46.0570   33.5130   45.3650 C   0  0  0  0  0  0  0  0  0  0  0  0
   45.1240   34.3310   45.9030 N   0  0  0  0  0  0  0  0  0  0  0  0
   43.9230   36.0190   45.6340 H   0  0  0  0  0  0  0  0  0  0  0  0
   46.3990   32.6870   45.9710 H   0  0  0  0  0  0  0  0  0  0  0  0
   44.6350   36.7980   43.1410 N   0  0  0  0  0  0  0  0  0  0  0  0
   44.1890   36.8760   42.2150 H   0  0  0  0  0  0  0  0  0  0  0  0
   44.8230   37.6290   43.7440 H   0  0  0  0  0  0  0  0  0  0  0  0
   47.3520   33.9520   39.8610 C   0  0  0  0  0  0  0  0  0  0  0  0
   46.4180   33.3970   39.0040 C   0  0  0  0  0  0  0  0  0  0  0  0
   45.5080   32.9180   39.3310 H   0  0  0  0  0  0  0  0  0  0  0  0
   46.8820   33.5840   37.7450 N   0  0  0  0  0  0  0  0  0  0  0  0
   46.4020   33.2740   36.8760 H   0  0  0  0  0  0  0  0  0  0  0  0
   48.0800   34.2390   37.7800 C   0  0  0  0  0  0  0  0  0  0  0  0
   48.7060   34.5350   36.9460 H   0  0  0  0  0  0  0  0  0  0  0  0
   48.3360   34.4480   39.0880 N   0  0  0  0  0  0  0  0  0  0  0  0
  1  4  1  6  0  0  0
  1 10  1  0  0  0  0
  2  1  1  0  0  0  0
  2  6  1  0  0  0  0
  3  7  1  1  0  0  0
  3  2  1  0  0  0  0
  3  1  1  0  0  0  0
  5  2  1  0  0  0  0
  8 14  1  0  0  0  0
  8 13  1  0  0  0  0
  9  8  2  0  0  0  0
 10  9  1  0  0  0  0
 10 11  2  0  0  0  0
 11 12  1  0  0  0  0
 12 13  2  0  0  0  0
 12 15  1  0  0  0  0
 16 18  1  0  0  0  0
 16  9  1  0  0  0  0
 17 16  1  0  0  0  0
 19  3  1  0  0  0  0
 20 21  1  0  0  0  0
 20 19  2  0  0  0  0
 22 24  1  0  0  0  0
 22 20  1  0  0  0  0
 23 22  1  0  0  0  0
 24 26  2  0  0  0  0
 25 24  1  0  0  0  0
 26 19  1  0  0  0  0
M  END
>  <minimizedAffinity>
-5.06666994

>  <minimizedRMSD>
0.169031292

$$$$
