
 OpenBabel03252507003D

 36 38  0  0  0  0  0  0  0  0999 V2000
   46.0480   33.9790   41.5940 N   0  0  0  0  0  0  0  0  0  0  0  0
   46.8230   33.0790   40.8210 C   0  0  0  0  0  0  0  0  0  0  0  0
   47.9670   33.9930   40.3580 C   0  0  0  0  0  0  0  0  0  0  0  0
   48.7340   34.6070   41.4710 C   0  0  0  0  0  0  0  0  0  0  0  0
   48.0910   34.6460   42.7950 C   0  0  0  0  0  0  0  0  0  0  0  0
   46.6340   34.3190   42.8820 C   0  0  0  0  0  0  0  0  0  0  0  0
   47.2840   32.3050   41.4270 H   0  0  0  0  0  0  0  0  0  0  0  0
   46.3870   32.5940   39.9620 H   0  0  0  0  0  0  0  0  0  0  0  0
   48.6000   33.4440   39.6410 H   0  0  0  0  0  0  0  0  0  0  0  0
   47.4670   34.8080   39.7630 H   0  0  0  0  0  0  0  0  0  0  0  0
   49.6960   34.0340   41.5950 H   0  0  0  0  0  0  0  0  0  0  0  0
   49.0720   35.6370   41.2270 H   0  0  0  0  0  0  0  0  0  0  0  0
   48.5780   34.8990   43.6930 H   0  0  0  0  0  0  0  0  0  0  0  0
   45.9560   34.4200   44.1450 C   0  0  0  0  0  0  0  0  0  0  0  0
   45.0370   35.3010   44.6500 C   0  0  0  0  0  0  0  0  0  0  0  0
   44.6850   36.0960   44.0350 H   0  0  0  0  0  0  0  0  0  0  0  0
   44.7300   34.9600   45.9110 N   0  0  0  0  0  0  0  0  0  0  0  0
   44.0590   35.4620   46.5260 H   0  0  0  0  0  0  0  0  0  0  0  0
   45.4570   33.8640   46.1940 C   0  0  0  0  0  0  0  0  0  0  0  0
   45.4380   33.3350   47.1440 H   0  0  0  0  0  0  0  0  0  0  0  0
   46.1980   33.5410   45.1180 N   0  0  0  0  0  0  0  0  0  0  0  0
   44.9790   34.7060   41.1890 C   0  0  0  0  0  0  0  0  0  0  0  0
   44.3020   35.1330   41.9610 H   0  0  0  0  0  0  0  0  0  0  0  0
   45.2070   35.6250   40.5410 H   0  0  0  0  0  0  0  0  0  0  0  0
   44.0880   33.8840   40.2920 C   0  0  0  0  0  0  0  0  0  0  0  0
   44.3220   32.8440   40.1730 H   0  0  0  0  0  0  0  0  0  0  0  0
   44.2250   34.3200   39.2580 H   0  0  0  0  0  0  0  0  0  0  0  0
   42.6930   34.2380   40.6120 C   0  0  0  0  0  0  0  0  0  0  0  0
   42.3380   35.4830   41.0720 C   0  0  0  0  0  0  0  0  0  0  0  0
   40.9990   35.7690   41.3560 C   0  0  0  0  0  0  0  0  0  0  0  0
   40.1020   34.7680   41.1520 N   0  0  0  0  0  0  0  0  0  0  0  0
   40.4740   33.5710   40.7050 C   0  0  0  0  0  0  0  0  0  0  0  0
   41.7570   33.3290   40.4450 N   0  0  0  0  0  0  0  0  0  0  0  0
   43.0840   36.2400   41.2160 H   0  0  0  0  0  0  0  0  0  0  0  0
   40.6810   36.7500   41.7240 H   0  0  0  0  0  0  0  0  0  0  0  0
   39.7580   32.7570   40.5370 H   0  0  0  0  0  0  0  0  0  0  0  0
  1  6  1  0  0  0  0
  2  7  1  0  0  0  0
  2  1  1  0  0  0  0
  3  2  1  0  0  0  0
  3  4  1  0  0  0  0
  4 11  1  0  0  0  0
  4  5  1  0  0  0  0
  5  6  2  0  0  0  0
  5 13  1  0  0  0  0
  6 14  1  0  0  0  0
  8  2  1  0  0  0  0
  9  3  1  0  0  0  0
 10  3  1  0  0  0  0
 12  4  1  0  0  0  0
 14 15  2  0  0  0  0
 14 21  1  0  0  0  0
 15 17  1  0  0  0  0
 16 15  1  0  0  0  0
 17 19  1  0  0  0  0
 17 18  1  0  0  0  0
 19 20  1  0  0  0  0
 21 19  2  0  0  0  0
 22  1  1  0  0  0  0
 22 23  1  0  0  0  0
 24 22  1  0  0  0  0
 25 28  1  0  0  0  0
 25 22  1  0  0  0  0
 26 25  1  0  0  0  0
 27 25  1  0  0  0  0
 28 29  1  0  0  0  0
 29 34  1  0  0  0  0
 29 30  2  0  0  0  0
 30 35  1  0  0  0  0
 31 30  1  0  0  0  0
 32 31  2  0  0  0  0
 33 28  2  0  0  0  0
 33 32  1  0  0  0  0
 36 32  1  0  0  0  0
M  END
>  <minimizedAffinity>
-4.94501257

>  <minimizedRMSD>
4.45891428

$$$$
