
 OpenBabel03252508593D

 44 46  0  0  1  0  0  0  0  0999 V2000
   46.5640   34.5930   43.5650 N   0  0  0  0  0  0  0  0  0  0  0  0
   46.0480   35.5200   42.6140 C   0  0  0  0  0  0  0  0  0  0  0  0
   44.5430   35.6600   42.6140 C   0  0  0  0  0  0  0  0  0  0  0  0
   43.8890   35.4650   43.9540 C   0  0  0  0  0  0  0  0  0  0  0  0
   44.9130   35.2890   45.0500 C   0  0  0  0  0  0  0  0  0  0  0  0
   45.7610   34.0590   44.5570 C   0  0  2  0  0  0  0  0  0  0  0  0
   46.3490   35.3650   41.5790 H   0  0  0  0  0  0  0  0  0  0  0  0
   46.4380   36.5270   42.8970 H   0  0  0  0  0  0  0  0  0  0  0  0
   44.2710   36.6800   42.2690 H   0  0  0  0  0  0  0  0  0  0  0  0
   44.1130   34.9630   41.8360 H   0  0  0  0  0  0  0  0  0  0  0  0
   43.3180   34.5030   43.9030 H   0  0  0  0  0  0  0  0  0  0  0  0
   43.1310   36.2400   44.1900 H   0  0  0  0  0  0  0  0  0  0  0  0
   44.4030   35.0400   45.9860 H   0  0  0  0  0  0  0  0  0  0  0  0
   45.5610   36.1690   45.0740 H   0  0  0  0  0  0  0  0  0  0  0  0
   45.0460   33.2720   44.2440 H   0  0  0  0  0  0  0  0  0  0  0  0
   47.6800   33.8280   43.0890 C   0  0  0  0  0  0  0  0  0  0  0  0
   48.3250   34.4900   42.5070 H   0  0  0  0  0  0  0  0  0  0  0  0
   48.2810   33.4320   43.9360 H   0  0  0  0  0  0  0  0  0  0  0  0
   47.1590   32.7020   42.2450 C   0  0  0  0  0  0  0  0  0  0  0  0
   47.4030   31.7190   42.6660 H   0  0  0  0  0  0  0  0  0  0  0  0
   46.0510   32.7320   42.1630 H   0  0  0  0  0  0  0  0  0  0  0  0
   49.3110   32.1110   39.2190 C   0  0  0  0  0  0  0  0  0  0  0  0
   48.7710   32.0020   40.5140 C   0  0  0  0  0  0  0  0  0  0  0  0
   47.7240   32.8210   40.8730 C   0  0  0  0  0  0  0  0  0  0  0  0
   47.2680   33.6890   39.9620 N   0  0  0  0  0  0  0  0  0  0  0  0
   47.7930   33.7840   38.7230 C   0  0  0  0  0  0  0  0  0  0  0  0
   48.8150   33.0000   38.3420 N   0  0  0  0  0  0  0  0  0  0  0  0
   50.1210   31.4250   39.0490 H   0  0  0  0  0  0  0  0  0  0  0  0
   49.1460   31.2960   41.2490 H   0  0  0  0  0  0  0  0  0  0  0  0
   47.4350   34.4800   37.9780 H   0  0  0  0  0  0  0  0  0  0  0  0
   46.4850   33.7470   45.6970 O   0  0  0  0  0  0  0  0  0  0  0  0
   45.7010   31.2710   45.1170 O   0  0  0  0  0  0  0  0  0  0  0  0
   46.1930   32.1850   46.2480 P   0  0  2  0  0  0  0  0  0  0  0  0
   44.8590   32.3010   47.3160 O   0  0  0  0  0  0  0  0  0  0  0  0
   45.0300   33.0230   47.9840 H   0  0  0  0  0  0  0  0  0  0  0  0
   47.4740   31.5330   47.0810 O   0  0  0  0  0  0  0  0  0  0  0  0
   47.5670   30.1610   47.2890 C   0  0  0  0  0  0  0  0  0  0  0  0
   46.5860   29.2750   47.7410 C   0  0  0  0  0  0  0  0  0  0  0  0
   45.5810   29.5370   48.0030 H   0  0  0  0  0  0  0  0  0  0  0  0
   47.0680   28.0300   47.8070 N   0  0  0  0  0  0  0  0  0  0  0  0
   46.5540   27.1750   48.1120 H   0  0  0  0  0  0  0  0  0  0  0  0
   48.3470   28.1270   47.4000 C   0  0  0  0  0  0  0  0  0  0  0  0
   49.0110   27.2730   47.3440 H   0  0  0  0  0  0  0  0  0  0  0  0
   48.6710   29.3960   47.0830 N   0  0  0  0  0  0  0  0  0  0  0  0
  1  6  1  0  0  0  0
  2  3  1  0  0  0  0
  2  8  1  0  0  0  0
  2  1  1  0  0  0  0
  3  4  1  0  0  0  0
  4 12  1  0  0  0  0
  4  5  1  0  0  0  0
  5 14  1  0  0  0  0
  5 13  1  0  0  0  0
  6 15  1  6  0  0  0
  6  5  1  0  0  0  0
  6 31  1  0  0  0  0
  7  2  1  0  0  0  0
  9  3  1  0  0  0  0
 10  3  1  0  0  0  0
 11  4  1  0  0  0  0
 16  1  1  0  0  0  0
 16 18  1  0  0  0  0
 17 16  1  0  0  0  0
 19 20  1  0  0  0  0
 19 16  1  0  0  0  0
 21 19  1  0  0  0  0
 22 23  1  0  0  0  0
 23 24  2  0  0  0  0
 23 29  1  0  0  0  0
 24 19  1  0  0  0  0
 25 24  1  0  0  0  0
 26 25  2  0  0  0  0
 27 26  1  0  0  0  0
 27 22  2  0  0  0  0
 28 22  1  0  0  0  0
 30 26  1  0  0  0  0
 31 33  1  0  0  0  0
 33 32  2  6  0  0  0
 33 36  1  0  0  0  0
 33 34  1  0  0  0  0
 34 35  1  0  0  0  0
 36 37  1  0  0  0  0
 37 38  2  0  0  0  0
 38 40  1  0  0  0  0
 38 39  1  0  0  0  0
 40 41  1  0  0  0  0
 42 40  1  0  0  0  0
 43 42  1  0  0  0  0
 44 37  1  0  0  0  0
 44 42  2  0  0  0  0
M  END
>  <minimizedAffinity>
-4.41094589

>  <minimizedRMSD>
1.50838506

$$$$
