
 OpenBabel03252509353D

 43 45  0  0  1  0  0  0  0  0999 V2000
   44.5190   35.4680   44.0510 O   0  0  0  0  0  0  0  0  0  0  0  0
   45.3870   34.2650   44.3660 P   0  0  1  0  0  0  0  0  0  0  0  0
   44.7180   32.8560   43.7030 O   0  0  0  0  0  0  0  0  0  0  0  0
   43.9270   33.0840   43.1340 H   0  0  0  0  0  0  0  0  0  0  0  0
   46.9010   34.5370   43.7140 O   0  0  0  0  0  0  0  0  0  0  0  0
   47.0300   33.8340   42.5100 C   0  0  1  0  0  0  0  0  0  0  0  0
   46.4500   34.6670   41.3630 C   0  0  0  0  0  0  0  0  0  0  0  0
   46.9590   33.8850   40.1730 C   0  0  0  0  0  0  0  0  0  0  0  0
   48.2340   33.2170   40.6210 C   0  0  0  0  0  0  0  0  0  0  0  0
   48.4450   33.6920   42.0510 C   0  0  1  0  0  0  0  0  0  0  0  0
   46.5090   32.8780   42.4960 H   0  0  0  0  0  0  0  0  0  0  0  0
   45.3290   34.6020   41.4730 H   0  0  0  0  0  0  0  0  0  0  0  0
   46.7360   35.7130   41.3900 H   0  0  0  0  0  0  0  0  0  0  0  0
   47.0930   34.5480   39.3100 H   0  0  0  0  0  0  0  0  0  0  0  0
   46.1700   33.1140   39.9330 H   0  0  0  0  0  0  0  0  0  0  0  0
   48.0610   32.1210   40.6560 H   0  0  0  0  0  0  0  0  0  0  0  0
   49.1130   33.4780   39.9770 H   0  0  0  0  0  0  0  0  0  0  0  0
   49.0060   32.8950   42.5760 H   0  0  0  0  0  0  0  0  0  0  0  0
   49.2190   34.9790   42.1030 C   0  0  0  0  0  0  0  0  0  0  0  0
   48.6280   35.8910   42.0340 H   0  0  0  0  0  0  0  0  0  0  0  0
   49.9090   34.9820   41.2180 H   0  0  0  0  0  0  0  0  0  0  0  0
   50.0120   35.0780   43.2250 O   0  0  0  0  0  0  0  0  0  0  0  0
   50.3720   34.1630   43.3990 H   0  0  0  0  0  0  0  0  0  0  0  0
   45.4850   34.0130   46.0120 O   0  0  0  0  0  0  0  0  0  0  0  0
   46.4010   33.0420   46.2610 C   0  0  0  0  0  0  0  0  0  0  0  0
   46.8450   32.5190   45.4190 H   0  0  0  0  0  0  0  0  0  0  0  0
   47.2630   33.5490   46.7880 H   0  0  0  0  0  0  0  0  0  0  0  0
   45.3820   31.4020   49.4440 C   0  0  0  0  0  0  0  0  0  0  0  0
   45.8460   32.3900   48.5610 C   0  0  0  0  0  0  0  0  0  0  0  0
   45.9160   32.0260   47.2100 C   0  0  0  0  0  0  0  0  0  0  0  0
   45.5420   30.7710   46.8380 N   0  0  0  0  0  0  0  0  0  0  0  0
   45.1020   29.8450   47.7140 C   0  0  0  0  0  0  0  0  0  0  0  0
   45.0250   30.1680   49.0100 N   0  0  0  0  0  0  0  0  0  0  0  0
   45.2980   31.6080   50.5160 H   0  0  0  0  0  0  0  0  0  0  0  0
   46.1100   33.3380   48.9570 H   0  0  0  0  0  0  0  0  0  0  0  0
   44.7480   28.5540   47.1300 C   0  0  0  0  0  0  0  0  0  0  0  0
   44.3100   28.1810   45.8700 C   0  0  0  0  0  0  0  0  0  0  0  0
   44.1940   28.9780   45.1410 H   0  0  0  0  0  0  0  0  0  0  0  0
   44.1340   26.8330   45.8910 N   0  0  0  0  0  0  0  0  0  0  0  0
   43.8030   26.3640   45.0190 H   0  0  0  0  0  0  0  0  0  0  0  0
   44.4560   26.3840   47.1340 C   0  0  0  0  0  0  0  0  0  0  0  0
   44.3600   25.3080   47.3000 H   0  0  0  0  0  0  0  0  0  0  0  0
   44.8340   27.4430   47.8990 N   0  0  0  0  0  0  0  0  0  0  0  0
  2  1  2  6  0  0  0
  2 24  1  0  0  0  0
  3  2  1  0  0  0  0
  4  3  1  0  0  0  0
  5  2  1  0  0  0  0
  6 11  1  1  0  0  0
  6  5  1  0  0  0  0
  7 13  1  0  0  0  0
  7 12  1  0  0  0  0
  7  6  1  0  0  0  0
  8  9  1  0  0  0  0
  8  7  1  0  0  0  0
  9 16  1  0  0  0  0
  9 10  1  0  0  0  0
 10 19  1  0  0  0  0
 10  6  1  0  0  0  0
 10 18  1  1  0  0  0
 14  8  1  0  0  0  0
 15  8  1  0  0  0  0
 17  9  1  0  0  0  0
 19 22  1  0  0  0  0
 20 19  1  0  0  0  0
 21 19  1  0  0  0  0
 22 23  1  0  0  0  0
 24 25  1  0  0  0  0
 25 27  1  0  0  0  0
 25 30  1  0  0  0  0
 26 25  1  0  0  0  0
 28 34  1  0  0  0  0
 29 35  1  0  0  0  0
 29 28  2  0  0  0  0
 30 29  1  0  0  0  0
 31 30  2  0  0  0  0
 31 32  1  0  0  0  0
 32 33  2  0  0  0  0
 33 28  1  0  0  0  0
 36 32  1  0  0  0  0
 36 43  1  0  0  0  0
 37 39  1  0  0  0  0
 37 36  2  0  0  0  0
 38 37  1  0  0  0  0
 39 41  1  0  0  0  0
 40 39  1  0  0  0  0
 41 42  1  0  0  0  0
 41 43  2  0  0  0  0
M  END
>  <minimizedAffinity>
-5.88121223

>  <minimizedRMSD>
0.999626577

$$$$
