
 OpenBabel03252509023D

 44 46  0  0  1  0  0  0  0  0999 V2000
   38.0940   27.8140   42.9630 N   0  0  0  0  0  0  0  0  0  0  0  0
   39.2700   27.2760   43.5600 C   0  0  0  0  0  0  0  0  0  0  0  0
   40.5690   27.8050   42.9970 C   0  0  0  0  0  0  0  0  0  0  0  0
   40.5150   29.2290   42.5150 C   0  0  0  0  0  0  0  0  0  0  0  0
   39.1800   29.8660   42.8180 C   0  0  0  0  0  0  0  0  0  0  0  0
   38.1530   28.9040   42.1140 C   0  0  2  0  0  0  0  0  0  0  0  0
   39.3520   26.1890   43.5680 H   0  0  0  0  0  0  0  0  0  0  0  0
   39.2640   27.5880   44.6320 H   0  0  0  0  0  0  0  0  0  0  0  0
   41.3520   27.7620   43.7840 H   0  0  0  0  0  0  0  0  0  0  0  0
   40.9270   27.1050   42.1870 H   0  0  0  0  0  0  0  0  0  0  0  0
   40.6010   29.2010   41.3990 H   0  0  0  0  0  0  0  0  0  0  0  0
   41.3750   29.8410   42.8570 H   0  0  0  0  0  0  0  0  0  0  0  0
   39.1390   30.8590   42.3570 H   0  0  0  0  0  0  0  0  0  0  0  0
   39.0060   29.8300   43.8960 H   0  0  0  0  0  0  0  0  0  0  0  0
   38.5310   28.7130   41.0900 H   0  0  0  0  0  0  0  0  0  0  0  0
   37.0340   26.8610   42.7960 C   0  0  0  0  0  0  0  0  0  0  0  0
   36.5490   26.7160   43.7640 H   0  0  0  0  0  0  0  0  0  0  0  0
   36.2670   27.2400   42.0880 H   0  0  0  0  0  0  0  0  0  0  0  0
   37.6260   25.5780   42.2900 C   0  0  0  0  0  0  0  0  0  0  0  0
   38.7070   25.6580   42.1190 H   0  0  0  0  0  0  0  0  0  0  0  0
   37.4930   24.7510   43.0200 H   0  0  0  0  0  0  0  0  0  0  0  0
   36.2030   25.7580   38.8140 C   0  0  0  0  0  0  0  0  0  0  0  0
   36.8510   26.1170   40.0110 C   0  0  0  0  0  0  0  0  0  0  0  0
   36.9400   25.1920   41.0270 C   0  0  0  0  0  0  0  0  0  0  0  0
   36.3980   23.9850   40.8230 N   0  0  0  0  0  0  0  0  0  0  0  0
   35.7790   23.6520   39.6720 C   0  0  0  0  0  0  0  0  0  0  0  0
   35.6760   24.5320   38.6620 N   0  0  0  0  0  0  0  0  0  0  0  0
   36.1940   26.5540   38.0940 H   0  0  0  0  0  0  0  0  0  0  0  0
   37.2890   27.0970   40.1710 H   0  0  0  0  0  0  0  0  0  0  0  0
   35.3370   22.6820   39.4940 H   0  0  0  0  0  0  0  0  0  0  0  0
   36.9910   29.6590   42.1590 O   0  0  0  0  0  0  0  0  0  0  0  0
   36.5670   31.8510   40.7100 O   0  0  0  0  0  0  0  0  0  0  0  0
   36.5830   30.3160   40.6660 P   0  0  2  0  0  0  0  0  0  0  0  0
   34.9530   29.8780   40.3830 O   0  0  0  0  0  0  0  0  0  0  0  0
   34.8430   28.8960   40.5230 H   0  0  0  0  0  0  0  0  0  0  0  0
   37.5070   29.7260   39.4160 O   0  0  0  0  0  0  0  0  0  0  0  0
   38.2130   30.5860   38.5820 C   0  0  0  0  0  0  0  0  0  0  0  0
   37.7750   31.2480   37.4330 C   0  0  0  0  0  0  0  0  0  0  0  0
   36.7930   31.1860   37.0120 H   0  0  0  0  0  0  0  0  0  0  0  0
   38.7600   31.9880   36.9100 N   0  0  0  0  0  0  0  0  0  0  0  0
   38.7090   32.5830   36.0550 H   0  0  0  0  0  0  0  0  0  0  0  0
   39.8130   31.7950   37.7240 C   0  0  0  0  0  0  0  0  0  0  0  0
   40.7750   32.2680   37.5620 H   0  0  0  0  0  0  0  0  0  0  0  0
   39.5120   30.9580   38.7360 N   0  0  0  0  0  0  0  0  0  0  0  0
  1  2  1  0  0  0  0
  2  7  1  0  0  0  0
  2  8  1  0  0  0  0
  3  2  1  0  0  0  0
  3  9  1  0  0  0  0
  4  5  1  0  0  0  0
  4 12  1  0  0  0  0
  4  3  1  0  0  0  0
  5 14  1  0  0  0  0
  6 15  1  6  0  0  0
  6 31  1  0  0  0  0
  6  5  1  0  0  0  0
  6  1  1  0  0  0  0
 10  3  1  0  0  0  0
 11  4  1  0  0  0  0
 13  5  1  0  0  0  0
 16  1  1  0  0  0  0
 16 17  1  0  0  0  0
 18 16  1  0  0  0  0
 19 16  1  0  0  0  0
 19 21  1  0  0  0  0
 20 19  1  0  0  0  0
 22 23  1  0  0  0  0
 23 29  1  0  0  0  0
 23 24  2  0  0  0  0
 24 19  1  0  0  0  0
 25 24  1  0  0  0  0
 26 25  2  0  0  0  0
 27 22  2  0  0  0  0
 27 26  1  0  0  0  0
 28 22  1  0  0  0  0
 30 26  1  0  0  0  0
 33 32  2  1  0  0  0
 33 31  1  0  0  0  0
 34 35  1  0  0  0  0
 34 33  1  0  0  0  0
 36 33  1  0  0  0  0
 37 44  1  0  0  0  0
 37 36  1  0  0  0  0
 38 37  2  0  0  0  0
 39 38  1  0  0  0  0
 40 38  1  0  0  0  0
 40 42  1  0  0  0  0
 41 40  1  0  0  0  0
 42 44  2  0  0  0  0
 43 42  1  0  0  0  0
M  END
>  <minimizedAffinity>
-5.37005377

$$$$

 OpenBabel03252509023D

 44 46  0  0  1  0  0  0  0  0999 V2000
   36.9810   29.1050   41.8350 N   0  0  0  0  0  0  0  0  0  0  0  0
   36.3540   27.8370   42.0090 C   0  0  0  0  0  0  0  0  0  0  0  0
   37.3050   26.6690   42.1280 C   0  0  0  0  0  0  0  0  0  0  0  0
   38.6230   26.9890   42.7800 C   0  0  0  0  0  0  0  0  0  0  0  0
   38.6570   28.4100   43.2910 C   0  0  0  0  0  0  0  0  0  0  0  0
   38.3440   29.2630   42.0060 C   0  0  2  0  0  0  0  0  0  0  0  0
   35.6100   27.5620   41.2620 H   0  0  0  0  0  0  0  0  0  0  0  0
   35.8090   27.8750   42.9820 H   0  0  0  0  0  0  0  0  0  0  0  0
   36.8300   25.8720   42.7390 H   0  0  0  0  0  0  0  0  0  0  0  0
   37.4470   26.2100   41.1060 H   0  0  0  0  0  0  0  0  0  0  0  0
   39.4070   26.9250   41.9820 H   0  0  0  0  0  0  0  0  0  0  0  0
   38.9260   26.2450   43.5450 H   0  0  0  0  0  0  0  0  0  0  0  0
   39.6630   28.6390   43.6560 H   0  0  0  0  0  0  0  0  0  0  0  0
   37.8420   28.5480   44.0060 H   0  0  0  0  0  0  0  0  0  0  0  0
   38.9930   28.8800   41.1920 H   0  0  0  0  0  0  0  0  0  0  0  0
   36.2890   29.9790   40.9310 C   0  0  0  0  0  0  0  0  0  0  0  0
   35.9740   30.8650   41.4860 H   0  0  0  0  0  0  0  0  0  0  0  0
   36.9610   30.3160   40.1120 H   0  0  0  0  0  0  0  0  0  0  0  0
   35.1070   29.2430   40.3710 C   0  0  0  0  0  0  0  0  0  0  0  0
   35.0400   28.2160   40.7490 H   0  0  0  0  0  0  0  0  0  0  0  0
   34.1510   29.7350   40.6500 H   0  0  0  0  0  0  0  0  0  0  0  0
   36.4710   29.6380   36.8890 C   0  0  0  0  0  0  0  0  0  0  0  0
   36.3740   29.6450   38.2930 C   0  0  0  0  0  0  0  0  0  0  0  0
   35.2020   29.2320   38.8850 C   0  0  0  0  0  0  0  0  0  0  0  0
   34.2030   28.8400   38.0870 N   0  0  0  0  0  0  0  0  0  0  0  0
   34.3060   28.8370   36.7420 C   0  0  0  0  0  0  0  0  0  0  0  0
   35.4350   29.2340   36.1340 N   0  0  0  0  0  0  0  0  0  0  0  0
   37.4270   29.9780   36.5370 H   0  0  0  0  0  0  0  0  0  0  0  0
   37.1890   29.9650   38.9350 H   0  0  0  0  0  0  0  0  0  0  0  0
   33.5070   28.5220   36.0860 H   0  0  0  0  0  0  0  0  0  0  0  0
   38.6670   30.5400   42.4370 O   0  0  0  0  0  0  0  0  0  0  0  0
   41.2510   31.1690   42.3230 O   0  0  0  0  0  0  0  0  0  0  0  0
   39.9230   31.2270   41.5540 P   0  0  2  0  0  0  0  0  0  0  0  0
   39.5660   32.8970   41.4410 O   0  0  0  0  0  0  0  0  0  0  0  0
   38.6290   33.0160   41.1170 H   0  0  0  0  0  0  0  0  0  0  0  0
   40.0530   30.6150   40.0140 O   0  0  0  0  0  0  0  0  0  0  0  0
   40.3350   31.4470   38.9370 C   0  0  0  0  0  0  0  0  0  0  0  0
   39.7070   31.5100   37.6910 C   0  0  0  0  0  0  0  0  0  0  0  0
   38.8860   30.9010   37.3740 H   0  0  0  0  0  0  0  0  0  0  0  0
   40.2740   32.4480   36.9240 N   0  0  0  0  0  0  0  0  0  0  0  0
   40.0040   32.7060   35.9490 H   0  0  0  0  0  0  0  0  0  0  0  0
   41.2530   32.9750   37.6800 C   0  0  0  0  0  0  0  0  0  0  0  0
   41.9010   33.7710   37.3300 H   0  0  0  0  0  0  0  0  0  0  0  0
   41.3120   32.3930   38.8930 N   0  0  0  0  0  0  0  0  0  0  0  0
  1  6  1  0  0  0  0
  1  2  1  0  0  0  0
  2  3  1  0  0  0  0
  2  8  1  0  0  0  0
  3  9  1  0  0  0  0
  3  4  1  0  0  0  0
  4  5  1  0  0  0  0
  4 12  1  0  0  0  0
  5 13  1  0  0  0  0
  5 14  1  0  0  0  0
  6 15  1  6  0  0  0
  6 31  1  0  0  0  0
  6  5  1  0  0  0  0
  7  2  1  0  0  0  0
 10  3  1  0  0  0  0
 11  4  1  0  0  0  0
 16 17  1  0  0  0  0
 16  1  1  0  0  0  0
 18 16  1  0  0  0  0
 19 21  1  0  0  0  0
 19 20  1  0  0  0  0
 19 16  1  0  0  0  0
 22 23  1  0  0  0  0
 23 24  2  0  0  0  0
 23 29  1  0  0  0  0
 24 19  1  0  0  0  0
 25 24  1  0  0  0  0
 26 25  2  0  0  0  0
 27 26  1  0  0  0  0
 27 22  2  0  0  0  0
 28 22  1  0  0  0  0
 30 26  1  0  0  0  0
 33 32  2  1  0  0  0
 33 31  1  0  0  0  0
 34 33  1  0  0  0  0
 35 34  1  0  0  0  0
 36 33  1  0  0  0  0
 37 36  1  0  0  0  0
 38 37  2  0  0  0  0
 39 38  1  0  0  0  0
 40 42  1  0  0  0  0
 40 38  1  0  0  0  0
 41 40  1  0  0  0  0
 42 44  2  0  0  0  0
 43 42  1  0  0  0  0
 44 37  1  0  0  0  0
M  END
>  <minimizedAffinity>
-5.30926609

$$$$

 OpenBabel03252509023D

 44 46  0  0  1  0  0  0  0  0999 V2000
   38.0700   29.8630   41.5600 N   0  0  0  0  0  0  0  0  0  0  0  0
   36.6730   29.8030   41.2850 C   0  0  0  0  0  0  0  0  0  0  0  0
   36.1480   30.9200   40.4120 C   0  0  0  0  0  0  0  0  0  0  0  0
   37.1260   31.4420   39.3950 C   0  0  0  0  0  0  0  0  0  0  0  0
   38.4030   30.6340   39.3900 C   0  0  0  0  0  0  0  0  0  0  0  0
   38.9000   30.7360   40.8800 C   0  0  2  0  0  0  0  0  0  0  0  0
   36.0140   29.7460   42.1510 H   0  0  0  0  0  0  0  0  0  0  0  0
   36.4950   28.8670   40.7040 H   0  0  0  0  0  0  0  0  0  0  0  0
   35.2620   30.5580   39.8490 H   0  0  0  0  0  0  0  0  0  0  0  0
   35.7570   31.7470   41.0750 H   0  0  0  0  0  0  0  0  0  0  0  0
   37.4130   32.4760   39.7160 H   0  0  0  0  0  0  0  0  0  0  0  0
   36.6860   31.5620   38.3840 H   0  0  0  0  0  0  0  0  0  0  0  0
   39.1290   31.1080   38.7210 H   0  0  0  0  0  0  0  0  0  0  0  0
   38.1610   29.5910   39.1760 H   0  0  0  0  0  0  0  0  0  0  0  0
   38.8420   31.8030   41.1730 H   0  0  0  0  0  0  0  0  0  0  0  0
   38.4190   29.4710   42.8950 C   0  0  0  0  0  0  0  0  0  0  0  0
   39.4610   29.1410   42.8930 H   0  0  0  0  0  0  0  0  0  0  0  0
   38.3390   30.3290   43.5960 H   0  0  0  0  0  0  0  0  0  0  0  0
   37.5020   28.3610   43.3190 C   0  0  0  0  0  0  0  0  0  0  0  0
   37.1780   28.4660   44.3620 H   0  0  0  0  0  0  0  0  0  0  0  0
   36.5720   28.3450   42.7110 H   0  0  0  0  0  0  0  0  0  0  0  0
   40.1130   25.6620   43.5040 C   0  0  0  0  0  0  0  0  0  0  0  0
   39.4500   26.8910   43.6770 C   0  0  0  0  0  0  0  0  0  0  0  0
   38.1970   27.0580   43.1320 C   0  0  0  0  0  0  0  0  0  0  0  0
   37.6660   26.0320   42.4580 N   0  0  0  0  0  0  0  0  0  0  0  0
   38.3110   24.8570   42.2970 C   0  0  0  0  0  0  0  0  0  0  0  0
   39.5350   24.6630   42.8160 N   0  0  0  0  0  0  0  0  0  0  0  0
   41.0810   25.6440   43.9690 H   0  0  0  0  0  0  0  0  0  0  0  0
   39.8860   27.7210   44.2260 H   0  0  0  0  0  0  0  0  0  0  0  0
   37.8950   24.0210   41.7550 H   0  0  0  0  0  0  0  0  0  0  0  0
   40.1920   30.2450   40.7750 O   0  0  0  0  0  0  0  0  0  0  0  0
   42.7790   30.8400   40.9720 O   0  0  0  0  0  0  0  0  0  0  0  0
   41.3590   31.4020   41.1300 P   0  0  2  0  0  0  0  0  0  0  0  0
   41.2110   31.7260   42.8050 O   0  0  0  0  0  0  0  0  0  0  0  0
   40.2560   31.9220   43.0220 H   0  0  0  0  0  0  0  0  0  0  0  0
   41.1440   32.8270   40.3020 O   0  0  0  0  0  0  0  0  0  0  0  0
   41.5150   32.9390   38.9660 C   0  0  0  0  0  0  0  0  0  0  0  0
   41.9460   34.0700   38.2690 C   0  0  0  0  0  0  0  0  0  0  0  0
   42.0570   35.0520   38.6800 H   0  0  0  0  0  0  0  0  0  0  0  0
   42.2100   33.7660   36.9930 N   0  0  0  0  0  0  0  0  0  0  0  0
   42.5470   34.4180   36.2520 H   0  0  0  0  0  0  0  0  0  0  0  0
   41.9470   32.4520   36.8850 C   0  0  0  0  0  0  0  0  0  0  0  0
   42.0670   31.9030   35.9570 H   0  0  0  0  0  0  0  0  0  0  0  0
   41.5280   31.9310   38.0550 N   0  0  0  0  0  0  0  0  0  0  0  0
  1 16  1  0  0  0  0
  2  1  1  0  0  0  0
  2  7  1  0  0  0  0
  3 10  1  0  0  0  0
  3  2  1  0  0  0  0
  4 11  1  0  0  0  0
  4  3  1  0  0  0  0
  5  4  1  0  0  0  0
  5  6  1  0  0  0  0
  6 15  1  1  0  0  0
  6  1  1  0  0  0  0
  8  2  1  0  0  0  0
  9  3  1  0  0  0  0
 12  4  1  0  0  0  0
 13  5  1  0  0  0  0
 14  5  1  0  0  0  0
 16 19  1  0  0  0  0
 16 18  1  0  0  0  0
 17 16  1  0  0  0  0
 19 20  1  0  0  0  0
 21 19  1  0  0  0  0
 22 23  1  0  0  0  0
 22 28  1  0  0  0  0
 23 29  1  0  0  0  0
 24 19  1  0  0  0  0
 24 23  2  0  0  0  0
 25 24  1  0  0  0  0
 26 25  2  0  0  0  0
 26 27  1  0  0  0  0
 27 22  2  0  0  0  0
 30 26  1  0  0  0  0
 31  6  1  0  0  0  0
 31 33  1  0  0  0  0
 33 32  2  6  0  0  0
 33 34  1  0  0  0  0
 34 35  1  0  0  0  0
 36 33  1  0  0  0  0
 37 36  1  0  0  0  0
 38 39  1  0  0  0  0
 38 37  2  0  0  0  0
 40 38  1  0  0  0  0
 41 40  1  0  0  0  0
 42 40  1  0  0  0  0
 42 44  2  0  0  0  0
 43 42  1  0  0  0  0
 44 37  1  0  0  0  0
M  END
>  <minimizedAffinity>
-5.27544451

$$$$

 OpenBabel03252509023D

 44 46  0  0  1  0  0  0  0  0999 V2000
   37.2910   29.2020   42.1280 N   0  0  0  0  0  0  0  0  0  0  0  0
   36.3650   28.1200   42.0790 C   0  0  0  0  0  0  0  0  0  0  0  0
   36.9930   26.7530   41.9270 C   0  0  0  0  0  0  0  0  0  0  0  0
   38.3440   26.6020   42.5710 C   0  0  0  0  0  0  0  0  0  0  0  0
   38.7290   27.8390   43.3470 C   0  0  0  0  0  0  0  0  0  0  0  0
   38.6490   28.9810   42.2680 C   0  0  2  0  0  0  0  0  0  0  0  0
   35.5810   28.1910   41.3250 H   0  0  0  0  0  0  0  0  0  0  0  0
   35.8400   28.0960   43.0640 H   0  0  0  0  0  0  0  0  0  0  0  0
   36.3290   25.9930   42.3910 H   0  0  0  0  0  0  0  0  0  0  0  0
   37.0230   26.4860   40.8300 H   0  0  0  0  0  0  0  0  0  0  0  0
   39.0920   26.5070   41.7440 H   0  0  0  0  0  0  0  0  0  0  0  0
   38.4460   25.6700   43.1640 H   0  0  0  0  0  0  0  0  0  0  0  0
   39.7580   27.7360   43.7070 H   0  0  0  0  0  0  0  0  0  0  0  0
   37.9700   28.0290   44.1100 H   0  0  0  0  0  0  0  0  0  0  0  0
   39.1870   28.6210   41.3680 H   0  0  0  0  0  0  0  0  0  0  0  0
   36.8460   30.3820   41.4430 C   0  0  0  0  0  0  0  0  0  0  0  0
   36.4270   31.0690   42.1810 H   0  0  0  0  0  0  0  0  0  0  0  0
   37.6970   30.8980   40.9470 H   0  0  0  0  0  0  0  0  0  0  0  0
   35.8140   29.9810   40.4290 C   0  0  0  0  0  0  0  0  0  0  0  0
   35.5350   28.9240   40.5170 H   0  0  0  0  0  0  0  0  0  0  0  0
   34.8730   30.5580   40.5550 H   0  0  0  0  0  0  0  0  0  0  0  0
   36.5370   29.6300   36.7550 C   0  0  0  0  0  0  0  0  0  0  0  0
   36.0400   29.3780   38.0470 C   0  0  0  0  0  0  0  0  0  0  0  0
   36.3430   30.2550   39.0640 C   0  0  0  0  0  0  0  0  0  0  0  0
   37.1040   31.3160   38.7690 N   0  0  0  0  0  0  0  0  0  0  0  0
   37.5750   31.5480   37.5270 C   0  0  0  0  0  0  0  0  0  0  0  0
   37.2980   30.7110   36.5130 N   0  0  0  0  0  0  0  0  0  0  0  0
   36.2380   28.8840   36.0430 H   0  0  0  0  0  0  0  0  0  0  0  0
   35.4230   28.5150   38.2810 H   0  0  0  0  0  0  0  0  0  0  0  0
   38.1900   32.4000   37.2750 H   0  0  0  0  0  0  0  0  0  0  0  0
   39.2780   30.0280   42.9250 O   0  0  0  0  0  0  0  0  0  0  0  0
   41.7930   29.3030   42.4410 O   0  0  0  0  0  0  0  0  0  0  0  0
   40.7640   30.4250   42.2440 P   0  0  2  0  0  0  0  0  0  0  0  0
   41.3730   31.7330   43.1640 O   0  0  0  0  0  0  0  0  0  0  0  0
   40.6740   32.4410   43.2400 H   0  0  0  0  0  0  0  0  0  0  0  0
   40.6490   30.9100   40.6580 O   0  0  0  0  0  0  0  0  0  0  0  0
   40.2090   32.1890   40.3330 C   0  0  0  0  0  0  0  0  0  0  0  0
   40.5600   32.9840   39.2400 C   0  0  0  0  0  0  0  0  0  0  0  0
   41.2460   32.7130   38.4650 H   0  0  0  0  0  0  0  0  0  0  0  0
   39.9170   34.1570   39.2840 N   0  0  0  0  0  0  0  0  0  0  0  0
   39.9920   34.9370   38.5950 H   0  0  0  0  0  0  0  0  0  0  0  0
   39.1650   34.1020   40.3970 C   0  0  0  0  0  0  0  0  0  0  0  0
   38.5200   34.9160   40.7100 H   0  0  0  0  0  0  0  0  0  0  0  0
   39.3210   32.9320   41.0460 N   0  0  0  0  0  0  0  0  0  0  0  0
  1  6  1  0  0  0  0
  2  1  1  0  0  0  0
  2  8  1  0  0  0  0
  3  2  1  0  0  0  0
  3  9  1  0  0  0  0
  3  4  1  0  0  0  0
  4 12  1  0  0  0  0
  4  5  1  0  0  0  0
  5 13  1  0  0  0  0
  5 14  1  0  0  0  0
  6 15  1  6  0  0  0
  6 31  1  0  0  0  0
  6  5  1  0  0  0  0
  7  2  1  0  0  0  0
 10  3  1  0  0  0  0
 11  4  1  0  0  0  0
 16  1  1  0  0  0  0
 16 17  1  0  0  0  0
 18 16  1  0  0  0  0
 19 20  1  0  0  0  0
 19 21  1  0  0  0  0
 19 16  1  0  0  0  0
 22 23  1  0  0  0  0
 23 29  1  0  0  0  0
 23 24  2  0  0  0  0
 24 19  1  0  0  0  0
 25 24  1  0  0  0  0
 26 25  2  0  0  0  0
 27 22  2  0  0  0  0
 27 26  1  0  0  0  0
 28 22  1  0  0  0  0
 30 26  1  0  0  0  0
 33 32  2  1  0  0  0
 33 31  1  0  0  0  0
 33 34  1  0  0  0  0
 34 35  1  0  0  0  0
 36 33  1  0  0  0  0
 37 36  1  0  0  0  0
 37 44  1  0  0  0  0
 38 40  1  0  0  0  0
 38 37  2  0  0  0  0
 39 38  1  0  0  0  0
 40 42  1  0  0  0  0
 41 40  1  0  0  0  0
 42 43  1  0  0  0  0
 42 44  2  0  0  0  0
M  END
>  <minimizedAffinity>
-5.27108192

$$$$

 OpenBabel03252509023D

 44 46  0  0  1  0  0  0  0  0999 V2000
   35.7850   29.1940   37.7430 N   0  0  0  0  0  0  0  0  0  0  0  0
   34.6580   28.5520   37.1530 C   0  0  0  0  0  0  0  0  0  0  0  0
   34.3220   29.0150   35.7540 C   0  0  0  0  0  0  0  0  0  0  0  0
   35.5050   29.4400   34.9270 C   0  0  0  0  0  0  0  0  0  0  0  0
   36.8060   29.1890   35.6520 C   0  0  0  0  0  0  0  0  0  0  0  0
   36.6310   29.9920   36.9940 C   0  0  2  0  0  0  0  0  0  0  0  0
   33.7310   28.5860   37.7250 H   0  0  0  0  0  0  0  0  0  0  0  0
   34.9150   27.4710   37.0520 H   0  0  0  0  0  0  0  0  0  0  0  0
   33.8270   28.1870   35.2040 H   0  0  0  0  0  0  0  0  0  0  0  0
   33.5450   29.8320   35.8170 H   0  0  0  0  0  0  0  0  0  0  0  0
   35.4300   30.5490   34.7940 H   0  0  0  0  0  0  0  0  0  0  0  0
   35.4940   29.0220   33.8990 H   0  0  0  0  0  0  0  0  0  0  0  0
   37.6320   29.6100   35.0700 H   0  0  0  0  0  0  0  0  0  0  0  0
   36.8790   28.1260   35.8910 H   0  0  0  0  0  0  0  0  0  0  0  0
   36.2540   31.0000   36.7270 H   0  0  0  0  0  0  0  0  0  0  0  0
   35.6370   29.4630   39.1440 C   0  0  0  0  0  0  0  0  0  0  0  0
   36.2940   30.2960   39.4040 H   0  0  0  0  0  0  0  0  0  0  0  0
   34.5950   29.7680   39.3830 H   0  0  0  0  0  0  0  0  0  0  0  0
   36.0080   28.2240   39.9070 C   0  0  0  0  0  0  0  0  0  0  0  0
   35.1260   27.6630   40.2400 H   0  0  0  0  0  0  0  0  0  0  0  0
   36.5990   27.5220   39.2810 H   0  0  0  0  0  0  0  0  0  0  0  0
   37.4050   28.3290   43.3960 C   0  0  0  0  0  0  0  0  0  0  0  0
   36.6230   27.9710   42.2820 C   0  0  0  0  0  0  0  0  0  0  0  0
   36.8390   28.6080   41.0810 C   0  0  0  0  0  0  0  0  0  0  0  0
   37.7920   29.5460   41.0320 N   0  0  0  0  0  0  0  0  0  0  0  0
   38.5350   29.8810   42.1070 C   0  0  0  0  0  0  0  0  0  0  0  0
   38.3490   29.2790   43.2930 N   0  0  0  0  0  0  0  0  0  0  0  0
   37.1520   27.7690   44.2770 H   0  0  0  0  0  0  0  0  0  0  0  0
   35.8510   27.2080   42.3270 H   0  0  0  0  0  0  0  0  0  0  0  0
   39.3080   30.6370   42.0820 H   0  0  0  0  0  0  0  0  0  0  0  0
   37.9250   29.9840   37.4920 O   0  0  0  0  0  0  0  0  0  0  0  0
   37.5000   32.3910   38.5450 O   0  0  0  0  0  0  0  0  0  0  0  0
   38.5190   31.5300   37.7860 P   0  0  2  0  0  0  0  0  0  0  0  0
   38.6610   32.2820   36.2550 O   0  0  0  0  0  0  0  0  0  0  0  0
   39.1650   31.6830   35.6350 H   0  0  0  0  0  0  0  0  0  0  0  0
   40.0160   31.5300   38.5090 O   0  0  0  0  0  0  0  0  0  0  0  0
   41.0760   32.2400   37.9560 C   0  0  0  0  0  0  0  0  0  0  0  0
   42.1530   31.7620   37.2070 C   0  0  0  0  0  0  0  0  0  0  0  0
   42.3240   30.7410   36.9390 H   0  0  0  0  0  0  0  0  0  0  0  0
   42.9650   32.7660   36.8550 N   0  0  0  0  0  0  0  0  0  0  0  0
   43.8420   32.6940   36.2940 H   0  0  0  0  0  0  0  0  0  0  0  0
   42.4040   33.8700   37.3790 C   0  0  0  0  0  0  0  0  0  0  0  0
   42.8350   34.8590   37.2630 H   0  0  0  0  0  0  0  0  0  0  0  0
   41.2690   33.5830   38.0450 N   0  0  0  0  0  0  0  0  0  0  0  0
  1 16  1  0  0  0  0
  2  7  1  0  0  0  0
  2  1  1  0  0  0  0
  3 10  1  0  0  0  0
  3  2  1  0  0  0  0
  4  5  1  0  0  0  0
  4  3  1  0  0  0  0
  5 14  1  0  0  0  0
  5  6  1  0  0  0  0
  6 15  1  6  0  0  0
  6 31  1  0  0  0  0
  6  1  1  0  0  0  0
  8  2  1  0  0  0  0
  9  3  1  0  0  0  0
 11  4  1  0  0  0  0
 12  4  1  0  0  0  0
 13  5  1  0  0  0  0
 16 18  1  0  0  0  0
 16 17  1  0  0  0  0
 16 19  1  0  0  0  0
 19 20  1  0  0  0  0
 19 24  1  0  0  0  0
 21 19  1  0  0  0  0
 22 28  1  0  0  0  0
 23 29  1  0  0  0  0
 23 22  2  0  0  0  0
 24 23  1  0  0  0  0
 25 24  2  0  0  0  0
 25 26  1  0  0  0  0
 26 27  2  0  0  0  0
 27 22  1  0  0  0  0
 30 26  1  0  0  0  0
 31 33  1  0  0  0  0
 33 36  1  0  0  0  0
 33 32  2  1  0  0  0
 34 33  1  0  0  0  0
 35 34  1  0  0  0  0
 37 44  1  0  0  0  0
 37 36  1  0  0  0  0
 38 37  2  0  0  0  0
 39 38  1  0  0  0  0
 40 38  1  0  0  0  0
 40 42  1  0  0  0  0
 41 40  1  0  0  0  0
 42 44  2  0  0  0  0
 43 42  1  0  0  0  0
M  END
>  <minimizedAffinity>
-5.23693085

$$$$

 OpenBabel03252509023D

 44 46  0  0  1  0  0  0  0  0999 V2000
   38.0990   27.8110   42.9840 N   0  0  0  0  0  0  0  0  0  0  0  0
   39.2630   27.2800   43.6100 C   0  0  0  0  0  0  0  0  0  0  0  0
   40.5730   27.7990   43.0630 C   0  0  0  0  0  0  0  0  0  0  0  0
   40.5310   29.2160   42.5590 C   0  0  0  0  0  0  0  0  0  0  0  0
   39.1910   29.8590   42.8280 C   0  0  0  0  0  0  0  0  0  0  0  0
   38.1750   28.8880   42.1200 C   0  0  2  0  0  0  0  0  0  0  0  0
   39.3430   26.1930   43.6350 H   0  0  0  0  0  0  0  0  0  0  0  0
   39.2380   27.6080   44.6770 H   0  0  0  0  0  0  0  0  0  0  0  0
   41.3420   27.7660   43.8640 H   0  0  0  0  0  0  0  0  0  0  0  0
   40.9440   27.0870   42.2700 H   0  0  0  0  0  0  0  0  0  0  0  0
   40.6370   29.1710   41.4450 H   0  0  0  0  0  0  0  0  0  0  0  0
   41.3850   29.8320   42.9080 H   0  0  0  0  0  0  0  0  0  0  0  0
   39.1600   30.8450   42.3520 H   0  0  0  0  0  0  0  0  0  0  0  0
   38.9980   29.8390   43.9040 H   0  0  0  0  0  0  0  0  0  0  0  0
   38.5720   28.6820   41.1060 H   0  0  0  0  0  0  0  0  0  0  0  0
   37.0410   26.8570   42.8120 C   0  0  0  0  0  0  0  0  0  0  0  0
   36.5690   26.6910   43.7830 H   0  0  0  0  0  0  0  0  0  0  0  0
   36.2630   27.2470   42.1210 H   0  0  0  0  0  0  0  0  0  0  0  0
   37.6310   25.5860   42.2730 C   0  0  0  0  0  0  0  0  0  0  0  0
   38.7140   25.6670   42.1140 H   0  0  0  0  0  0  0  0  0  0  0  0
   37.4880   24.7390   42.9770 H   0  0  0  0  0  0  0  0  0  0  0  0
   35.8080   23.6390   39.6230 C   0  0  0  0  0  0  0  0  0  0  0  0
   36.4490   23.9710   40.8310 C   0  0  0  0  0  0  0  0  0  0  0  0
   36.9540   25.2420   40.9930 C   0  0  0  0  0  0  0  0  0  0  0  0
   36.8090   26.1060   39.9820 N   0  0  0  0  0  0  0  0  0  0  0  0
   36.1920   25.7770   38.8280 C   0  0  0  0  0  0  0  0  0  0  0  0
   35.6890   24.5460   38.6390 N   0  0  0  0  0  0  0  0  0  0  0  0
   35.4530   22.6250   39.6080 H   0  0  0  0  0  0  0  0  0  0  0  0
   36.5640   23.2660   41.6480 H   0  0  0  0  0  0  0  0  0  0  0  0
   36.0680   26.4640   38.0030 H   0  0  0  0  0  0  0  0  0  0  0  0
   37.0140   29.6460   42.1330 O   0  0  0  0  0  0  0  0  0  0  0  0
   35.0100   29.1520   40.4530 O   0  0  0  0  0  0  0  0  0  0  0  0
   36.3620   29.8630   40.5980 P   0  0  2  0  0  0  0  0  0  0  0  0
   37.4010   29.0340   39.5190 O   0  0  0  0  0  0  0  0  0  0  0  0
   38.3450   29.3130   39.6860 H   0  0  0  0  0  0  0  0  0  0  0  0
   36.2940   31.4580   40.1350 O   0  0  0  0  0  0  0  0  0  0  0  0
   37.4570   32.1800   39.8880 C   0  0  0  0  0  0  0  0  0  0  0  0
   37.6220   33.5630   39.7790 C   0  0  0  0  0  0  0  0  0  0  0  0
   36.8480   34.2940   39.8750 H   0  0  0  0  0  0  0  0  0  0  0  0
   38.9030   33.8660   39.5350 N   0  0  0  0  0  0  0  0  0  0  0  0
   39.3060   34.8210   39.4090 H   0  0  0  0  0  0  0  0  0  0  0  0
   39.5410   32.6840   39.4900 C   0  0  0  0  0  0  0  0  0  0  0  0
   40.6060   32.5980   39.3060 H   0  0  0  0  0  0  0  0  0  0  0  0
   38.6960   31.6550   39.6990 N   0  0  0  0  0  0  0  0  0  0  0  0
  1  2  1  0  0  0  0
  2  7  1  0  0  0  0
  2  8  1  0  0  0  0
  3  2  1  0  0  0  0
  3  9  1  0  0  0  0
  4  5  1  0  0  0  0
  4 12  1  0  0  0  0
  4  3  1  0  0  0  0
  5 14  1  0  0  0  0
  6 15  1  6  0  0  0
  6 31  1  0  0  0  0
  6  5  1  0  0  0  0
  6  1  1  0  0  0  0
 10  3  1  0  0  0  0
 11  4  1  0  0  0  0
 13  5  1  0  0  0  0
 16  1  1  0  0  0  0
 16 17  1  0  0  0  0
 18 16  1  0  0  0  0
 19 16  1  0  0  0  0
 19 21  1  0  0  0  0
 20 19  1  0  0  0  0
 22 23  1  0  0  0  0
 23 24  2  0  0  0  0
 23 29  1  0  0  0  0
 24 19  1  0  0  0  0
 25 24  1  0  0  0  0
 26 25  2  0  0  0  0
 27 26  1  0  0  0  0
 27 22  2  0  0  0  0
 28 22  1  0  0  0  0
 30 26  1  0  0  0  0
 33 32  2  6  0  0  0
 33 31  1  0  0  0  0
 34 35  1  0  0  0  0
 34 33  1  0  0  0  0
 36 33  1  0  0  0  0
 37 36  1  0  0  0  0
 38 39  1  0  0  0  0
 38 37  2  0  0  0  0
 40 38  1  0  0  0  0
 41 40  1  0  0  0  0
 42 40  1  0  0  0  0
 42 44  2  0  0  0  0
 43 42  1  0  0  0  0
 44 37  1  0  0  0  0
M  END
>  <minimizedAffinity>
-5.20198631

$$$$

 OpenBabel03252509023D

 44 46  0  0  1  0  0  0  0  0999 V2000
   36.4330   30.1100   39.8130 N   0  0  0  0  0  0  0  0  0  0  0  0
   36.5750   30.4320   38.4320 C   0  0  0  0  0  0  0  0  0  0  0  0
   37.3150   29.4000   37.6120 C   0  0  0  0  0  0  0  0  0  0  0  0
   37.1370   27.9790   38.0720 C   0  0  0  0  0  0  0  0  0  0  0  0
   36.1400   27.8840   39.2030 C   0  0  0  0  0  0  0  0  0  0  0  0
   36.7380   28.8490   40.2920 C   0  0  2  0  0  0  0  0  0  0  0  0
   37.0300   31.3960   38.2060 H   0  0  0  0  0  0  0  0  0  0  0  0
   35.5470   30.4710   37.9990 H   0  0  0  0  0  0  0  0  0  0  0  0
   36.9570   29.4440   36.5610 H   0  0  0  0  0  0  0  0  0  0  0  0
   38.4060   29.6880   37.5630 H   0  0  0  0  0  0  0  0  0  0  0  0
   38.1190   27.6460   38.4930 H   0  0  0  0  0  0  0  0  0  0  0  0
   36.9210   27.2730   37.2440 H   0  0  0  0  0  0  0  0  0  0  0  0
   36.1200   26.8580   39.5830 H   0  0  0  0  0  0  0  0  0  0  0  0
   35.1830   28.2910   38.8670 H   0  0  0  0  0  0  0  0  0  0  0  0
   37.8140   28.6050   40.3920 H   0  0  0  0  0  0  0  0  0  0  0  0
   36.5640   31.2370   40.6910 C   0  0  0  0  0  0  0  0  0  0  0  0
   35.5820   31.7050   40.7950 H   0  0  0  0  0  0  0  0  0  0  0  0
   36.8930   30.9170   41.7030 H   0  0  0  0  0  0  0  0  0  0  0  0
   37.5570   32.1910   40.0950 C   0  0  0  0  0  0  0  0  0  0  0  0
   37.6540   32.0650   39.0090 H   0  0  0  0  0  0  0  0  0  0  0  0
   37.2550   33.2480   40.2550 H   0  0  0  0  0  0  0  0  0  0  0  0
   41.2270   32.4680   40.8670 C   0  0  0  0  0  0  0  0  0  0  0  0
   39.9750   32.6580   40.2540 C   0  0  0  0  0  0  0  0  0  0  0  0
   38.8790   31.9860   40.7480 C   0  0  0  0  0  0  0  0  0  0  0  0
   39.0620   31.1780   41.7990 N   0  0  0  0  0  0  0  0  0  0  0  0
   40.2680   31.0030   42.3790 C   0  0  0  0  0  0  0  0  0  0  0  0
   41.3560   31.6430   41.9200 N   0  0  0  0  0  0  0  0  0  0  0  0
   42.0080   33.0390   40.4010 H   0  0  0  0  0  0  0  0  0  0  0  0
   39.8320   33.3150   39.4020 H   0  0  0  0  0  0  0  0  0  0  0  0
   40.4300   30.3540   43.2280 H   0  0  0  0  0  0  0  0  0  0  0  0
   35.9750   28.5200   41.4020 O   0  0  0  0  0  0  0  0  0  0  0  0
   36.0580   27.1440   43.6790 O   0  0  0  0  0  0  0  0  0  0  0  0
   36.9030   27.9520   42.6850 P   0  0  2  0  0  0  0  0  0  0  0  0
   37.3940   29.3360   43.5650 O   0  0  0  0  0  0  0  0  0  0  0  0
   37.7940   30.0030   42.9390 H   0  0  0  0  0  0  0  0  0  0  0  0
   38.2650   27.1340   42.1960 O   0  0  0  0  0  0  0  0  0  0  0  0
   38.2370   25.7580   41.9920 C   0  0  0  0  0  0  0  0  0  0  0  0
   39.1040   24.7820   42.4880 C   0  0  0  0  0  0  0  0  0  0  0  0
   39.9470   24.9590   43.1220 H   0  0  0  0  0  0  0  0  0  0  0  0
   38.7390   23.5670   42.0610 N   0  0  0  0  0  0  0  0  0  0  0  0
   39.2080   22.6610   42.2800 H   0  0  0  0  0  0  0  0  0  0  0  0
   37.6500   23.7750   41.3020 C   0  0  0  0  0  0  0  0  0  0  0  0
   37.1150   22.9710   40.8080 H   0  0  0  0  0  0  0  0  0  0  0  0
   37.3270   25.0820   41.2430 N   0  0  0  0  0  0  0  0  0  0  0  0
  1  6  1  0  0  0  0
  1 16  1  0  0  0  0
  2  1  1  0  0  0  0
  3  4  1  0  0  0  0
  3  2  1  0  0  0  0
  4 11  1  0  0  0  0
  4  5  1  0  0  0  0
  5 13  1  0  0  0  0
  5  6  1  0  0  0  0
  6 15  1  1  0  0  0
  6 31  1  0  0  0  0
  7  2  1  0  0  0  0
  8  2  1  0  0  0  0
  9  3  1  0  0  0  0
 10  3  1  0  0  0  0
 12  4  1  0  0  0  0
 14  5  1  0  0  0  0
 16 17  1  0  0  0  0
 16 18  1  0  0  0  0
 19 21  1  0  0  0  0
 19 16  1  0  0  0  0
 19 24  1  0  0  0  0
 20 19  1  0  0  0  0
 22 27  1  0  0  0  0
 23 24  1  0  0  0  0
 23 22  2  0  0  0  0
 24 25  2  0  0  0  0
 25 26  1  0  0  0  0
 26 30  1  0  0  0  0
 27 26  2  0  0  0  0
 28 22  1  0  0  0  0
 29 23  1  0  0  0  0
 31 33  1  0  0  0  0
 33 34  1  0  0  0  0
 33 32  2  1  0  0  0
 35 34  1  0  0  0  0
 36 33  1  0  0  0  0
 37 36  1  0  0  0  0
 37 38  2  0  0  0  0
 38 39  1  0  0  0  0
 40 41  1  0  0  0  0
 40 38  1  0  0  0  0
 42 40  1  0  0  0  0
 43 42  1  0  0  0  0
 44 42  2  0  0  0  0
 44 37  1  0  0  0  0
M  END
>  <minimizedAffinity>
-5.13366365

$$$$

 OpenBabel03252509023D

 44 46  0  0  1  0  0  0  0  0999 V2000
   37.4770   27.3100   42.2210 N   0  0  0  0  0  0  0  0  0  0  0  0
   37.1190   25.9330   42.2990 C   0  0  0  0  0  0  0  0  0  0  0  0
   38.2860   24.9760   42.3680 C   0  0  0  0  0  0  0  0  0  0  0  0
   39.5040   25.5110   43.0720 C   0  0  0  0  0  0  0  0  0  0  0  0
   39.2420   26.8710   43.6720 C   0  0  0  0  0  0  0  0  0  0  0  0
   38.7780   27.7280   42.4370 C   0  0  2  0  0  0  0  0  0  0  0  0
   36.4560   25.5630   41.5170 H   0  0  0  0  0  0  0  0  0  0  0  0
   36.5660   25.7940   43.2580 H   0  0  0  0  0  0  0  0  0  0  0  0
   37.9760   24.0600   42.9140 H   0  0  0  0  0  0  0  0  0  0  0  0
   38.5320   24.6250   41.3230 H   0  0  0  0  0  0  0  0  0  0  0  0
   40.2930   25.6610   42.2920 H   0  0  0  0  0  0  0  0  0  0  0  0
   39.9420   24.7940   43.7960 H   0  0  0  0  0  0  0  0  0  0  0  0
   40.1750   27.2750   44.0770 H   0  0  0  0  0  0  0  0  0  0  0  0
   38.4080   26.7940   44.3740 H   0  0  0  0  0  0  0  0  0  0  0  0
   39.5000   27.5410   41.6170 H   0  0  0  0  0  0  0  0  0  0  0  0
   36.6330   28.0850   41.3580 C   0  0  0  0  0  0  0  0  0  0  0  0
   35.6060   27.7350   41.4790 H   0  0  0  0  0  0  0  0  0  0  0  0
   36.6580   29.1600   41.6380 H   0  0  0  0  0  0  0  0  0  0  0  0
   37.1040   27.9020   39.9440 C   0  0  0  0  0  0  0  0  0  0  0  0
   37.9350   28.5720   39.6930 H   0  0  0  0  0  0  0  0  0  0  0  0
   37.4790   26.8710   39.7700 H   0  0  0  0  0  0  0  0  0  0  0  0
   33.7980   29.0870   38.6000 C   0  0  0  0  0  0  0  0  0  0  0  0
   34.8800   28.8590   39.4710 C   0  0  0  0  0  0  0  0  0  0  0  0
   35.9630   28.1390   39.0180 C   0  0  0  0  0  0  0  0  0  0  0  0
   35.9310   27.6870   37.7590 N   0  0  0  0  0  0  0  0  0  0  0  0
   34.8890   27.9110   36.9330 C   0  0  0  0  0  0  0  0  0  0  0  0
   33.8170   28.6090   37.3440 N   0  0  0  0  0  0  0  0  0  0  0  0
   33.0120   29.6580   39.0570 H   0  0  0  0  0  0  0  0  0  0  0  0
   34.9010   29.2290   40.4910 H   0  0  0  0  0  0  0  0  0  0  0  0
   34.8500   27.5520   35.9140 H   0  0  0  0  0  0  0  0  0  0  0  0
   38.8290   29.0130   42.9560 O   0  0  0  0  0  0  0  0  0  0  0  0
   41.2950   29.4320   42.0470 O   0  0  0  0  0  0  0  0  0  0  0  0
   39.8770   30.0170   42.1070 P   0  0  2  0  0  0  0  0  0  0  0  0
   40.0380   31.4390   43.0470 O   0  0  0  0  0  0  0  0  0  0  0  0
   39.1320   31.7820   43.2890 H   0  0  0  0  0  0  0  0  0  0  0  0
   39.3020   30.4460   40.6070 O   0  0  0  0  0  0  0  0  0  0  0  0
   38.6160   31.6410   40.4200 C   0  0  0  0  0  0  0  0  0  0  0  0
   37.2400   31.8530   40.3130 C   0  0  0  0  0  0  0  0  0  0  0  0
   36.4860   31.0970   40.3610 H   0  0  0  0  0  0  0  0  0  0  0  0
   36.9760   33.1540   40.1380 N   0  0  0  0  0  0  0  0  0  0  0  0
   36.0350   33.5910   40.0290 H   0  0  0  0  0  0  0  0  0  0  0  0
   38.1770   33.7580   40.1350 C   0  0  0  0  0  0  0  0  0  0  0  0
   38.2950   34.8290   40.0110 H   0  0  0  0  0  0  0  0  0  0  0  0
   39.1790   32.8730   40.3030 N   0  0  0  0  0  0  0  0  0  0  0  0
  1  2  1  0  0  0  0
  1  6  1  0  0  0  0
  2  3  1  0  0  0  0
  2  8  1  0  0  0  0
  3  9  1  0  0  0  0
  3  4  1  0  0  0  0
  4  5  1  0  0  0  0
  4 12  1  0  0  0  0
  5 13  1  0  0  0  0
  5 14  1  0  0  0  0
  6 15  1  6  0  0  0
  6 31  1  0  0  0  0
  6  5  1  0  0  0  0
  7  2  1  0  0  0  0
 10  3  1  0  0  0  0
 11  4  1  0  0  0  0
 16 17  1  0  0  0  0
 16 18  1  0  0  0  0
 16  1  1  0  0  0  0
 19 16  1  0  0  0  0
 20 19  1  0  0  0  0
 21 19  1  0  0  0  0
 22 28  1  0  0  0  0
 22 23  1  0  0  0  0
 23 29  1  0  0  0  0
 24 23  2  0  0  0  0
 24 19  1  0  0  0  0
 25 24  1  0  0  0  0
 26 27  1  0  0  0  0
 26 25  2  0  0  0  0
 27 22  2  0  0  0  0
 30 26  1  0  0  0  0
 33 32  2  6  0  0  0
 33 31  1  0  0  0  0
 33 34  1  0  0  0  0
 34 35  1  0  0  0  0
 36 33  1  0  0  0  0
 37 36  1  0  0  0  0
 38 39  1  0  0  0  0
 38 37  2  0  0  0  0
 40 38  1  0  0  0  0
 41 40  1  0  0  0  0
 42 40  1  0  0  0  0
 42 44  2  0  0  0  0
 43 42  1  0  0  0  0
 44 37  1  0  0  0  0
M  END
>  <minimizedAffinity>
-5.10972166

$$$$

 OpenBabel03252509023D

 44 46  0  0  1  0  0  0  0  0999 V2000
   38.9100   28.4840   43.2440 N   0  0  0  0  0  0  0  0  0  0  0  0
   39.2040   27.1240   43.5530 C   0  0  0  0  0  0  0  0  0  0  0  0
   40.2700   26.4920   42.6890 C   0  0  0  0  0  0  0  0  0  0  0  0
   41.3390   27.4360   42.2090 C   0  0  0  0  0  0  0  0  0  0  0  0
   41.1720   28.8110   42.8100 C   0  0  0  0  0  0  0  0  0  0  0  0
   39.7120   29.2160   42.3870 C   0  0  2  0  0  0  0  0  0  0  0  0
   38.3570   26.4380   43.5590 H   0  0  0  0  0  0  0  0  0  0  0  0
   39.6160   27.1080   44.5900 H   0  0  0  0  0  0  0  0  0  0  0  0
   40.7820   25.6930   43.2660 H   0  0  0  0  0  0  0  0  0  0  0  0
   39.7710   25.9570   41.8280 H   0  0  0  0  0  0  0  0  0  0  0  0
   41.1960   27.5580   41.1050 H   0  0  0  0  0  0  0  0  0  0  0  0
   42.3650   27.0320   42.3270 H   0  0  0  0  0  0  0  0  0  0  0  0
   41.8960   29.4950   42.3560 H   0  0  0  0  0  0  0  0  0  0  0  0
   41.2070   28.7280   43.8990 H   0  0  0  0  0  0  0  0  0  0  0  0
   39.6110   28.9950   41.3060 H   0  0  0  0  0  0  0  0  0  0  0  0
   37.5190   28.8200   43.3500 C   0  0  0  0  0  0  0  0  0  0  0  0
   37.2860   28.9850   44.4040 H   0  0  0  0  0  0  0  0  0  0  0  0
   37.2950   29.7610   42.8040 H   0  0  0  0  0  0  0  0  0  0  0  0
   36.7130   27.6840   42.7890 C   0  0  0  0  0  0  0  0  0  0  0  0
   37.2570   26.7330   42.8240 H   0  0  0  0  0  0  0  0  0  0  0  0
   35.7780   27.5230   43.3670 H   0  0  0  0  0  0  0  0  0  0  0  0
   36.4990   27.5270   39.0390 C   0  0  0  0  0  0  0  0  0  0  0  0
   36.8500   27.2300   40.3690 C   0  0  0  0  0  0  0  0  0  0  0  0
   36.3370   28.0040   41.3850 C   0  0  0  0  0  0  0  0  0  0  0  0
   35.5190   29.0100   41.0530 N   0  0  0  0  0  0  0  0  0  0  0  0
   35.1890   29.2860   39.7740 C   0  0  0  0  0  0  0  0  0  0  0  0
   35.6740   28.5500   38.7600 N   0  0  0  0  0  0  0  0  0  0  0  0
   36.9560   26.8610   38.3310 H   0  0  0  0  0  0  0  0  0  0  0  0
   37.5140   26.4120   40.6320 H   0  0  0  0  0  0  0  0  0  0  0  0
   34.5300   30.0950   39.4920 H   0  0  0  0  0  0  0  0  0  0  0  0
   39.6990   30.5680   42.6950 O   0  0  0  0  0  0  0  0  0  0  0  0
   41.6300   32.1370   41.7490 O   0  0  0  0  0  0  0  0  0  0  0  0
   40.2560   31.5280   41.4320 P   0  0  2  0  0  0  0  0  0  0  0  0
   39.1990   32.8720   41.3550 O   0  0  0  0  0  0  0  0  0  0  0  0
   38.2540   32.5510   41.3360 H   0  0  0  0  0  0  0  0  0  0  0  0
   40.2270   30.7570   39.9590 O   0  0  0  0  0  0  0  0  0  0  0  0
   39.4870   31.2690   38.9000 C   0  0  0  0  0  0  0  0  0  0  0  0
   39.9410   31.8070   37.6940 C   0  0  0  0  0  0  0  0  0  0  0  0
   40.9650   31.9070   37.4010 H   0  0  0  0  0  0  0  0  0  0  0  0
   38.9110   32.1920   36.9320 N   0  0  0  0  0  0  0  0  0  0  0  0
   38.9620   32.6260   35.9840 H   0  0  0  0  0  0  0  0  0  0  0  0
   37.8140   31.8990   37.6510 C   0  0  0  0  0  0  0  0  0  0  0  0
   36.8080   32.0960   37.2950 H   0  0  0  0  0  0  0  0  0  0  0  0
   38.1310   31.3430   38.8360 N   0  0  0  0  0  0  0  0  0  0  0  0
  1 16  1  0  0  0  0
  1  2  1  0  0  0  0
  2  7  1  0  0  0  0
  2  8  1  0  0  0  0
  3  9  1  0  0  0  0
  3  2  1  0  0  0  0
  4 12  1  0  0  0  0
  4  3  1  0  0  0  0
  4  5  1  0  0  0  0
  5 14  1  0  0  0  0
  6 15  1  6  0  0  0
  6 31  1  0  0  0  0
  6  5  1  0  0  0  0
  6  1  1  0  0  0  0
 10  3  1  0  0  0  0
 11  4  1  0  0  0  0
 13  5  1  0  0  0  0
 16 17  1  0  0  0  0
 18 16  1  0  0  0  0
 19 20  1  0  0  0  0
 19 16  1  0  0  0  0
 19 21  1  0  0  0  0
 22 23  1  0  0  0  0
 23 29  1  0  0  0  0
 23 24  2  0  0  0  0
 24 19  1  0  0  0  0
 25 24  1  0  0  0  0
 26 25  2  0  0  0  0
 27 22  2  0  0  0  0
 27 26  1  0  0  0  0
 28 22  1  0  0  0  0
 30 26  1  0  0  0  0
 33 32  2  1  0  0  0
 33 31  1  0  0  0  0
 34 33  1  0  0  0  0
 35 34  1  0  0  0  0
 36 33  1  0  0  0  0
 37 36  1  0  0  0  0
 38 37  2  0  0  0  0
 39 38  1  0  0  0  0
 40 42  1  0  0  0  0
 40 38  1  0  0  0  0
 41 40  1  0  0  0  0
 42 44  2  0  0  0  0
 43 42  1  0  0  0  0
 44 37  1  0  0  0  0
M  END
>  <minimizedAffinity>
-5.06584978

$$$$
