
 OpenBabel03252500523D

 23 24  0  0  0  0  0  0  0  0999 V2000
   45.4180   33.1330   43.8990 C   0  0  0  0  0  0  0  0  0  0  0  0
   44.7950   34.2300   43.3460 C   0  0  0  0  0  0  0  0  0  0  0  0
   44.4750   35.2890   44.2390 C   0  0  0  0  0  0  0  0  0  0  0  0
   44.7820   35.1770   45.5640 N   0  0  0  0  0  0  0  0  0  0  0  0
   45.3860   34.0800   46.0380 C   0  0  0  0  0  0  0  0  0  0  0  0
   45.6970   33.0810   45.2210 N   0  0  0  0  0  0  0  0  0  0  0  0
   43.9950   36.2240   44.0180 H   0  0  0  0  0  0  0  0  0  0  0  0
   45.6350   33.9710   47.0720 H   0  0  0  0  0  0  0  0  0  0  0  0
   44.3970   34.4730   41.9820 C   0  0  0  0  0  0  0  0  0  0  0  0
   44.8580   34.1880   40.7250 C   0  0  0  0  0  0  0  0  0  0  0  0
   45.7670   33.6540   40.5200 H   0  0  0  0  0  0  0  0  0  0  0  0
   44.0740   34.5950   39.7420 N   0  0  0  0  0  0  0  0  0  0  0  0
   44.2120   34.4950   38.7150 H   0  0  0  0  0  0  0  0  0  0  0  0
   43.0360   35.1810   40.3540 C   0  0  0  0  0  0  0  0  0  0  0  0
   42.1580   35.6530   39.9350 H   0  0  0  0  0  0  0  0  0  0  0  0
   43.2500   35.0950   41.6690 N   0  0  0  0  0  0  0  0  0  0  0  0
   45.8210   32.0270   43.0430 C   0  0  0  0  0  0  0  0  0  0  0  0
   45.7770   32.3270   41.9760 H   0  0  0  0  0  0  0  0  0  0  0  0
   46.8050   31.5960   43.1990 H   0  0  0  0  0  0  0  0  0  0  0  0
   44.7870   30.9050   43.1550 C   0  0  0  0  0  0  0  0  0  0  0  0
   45.2440   29.9010   43.2160 H   0  0  0  0  0  0  0  0  0  0  0  0
   44.1500   30.8470   42.2210 H   0  0  0  0  0  0  0  0  0  0  0  0
   44.0500   31.0840   43.9640 H   0  0  0  0  0  0  0  0  0  0  0  0
  1  6  1  0  0  0  0
  2  1  2  0  0  0  0
  2  3  1  0  0  0  0
  3  4  2  0  0  0  0
  4  5  1  0  0  0  0
  5  8  1  0  0  0  0
  6  5  2  0  0  0  0
  7  3  1  0  0  0  0
  9  2  1  0  0  0  0
 10  9  2  0  0  0  0
 11 10  1  0  0  0  0
 12 14  1  0  0  0  0
 12 10  1  0  0  0  0
 13 12  1  0  0  0  0
 14 16  2  0  0  0  0
 15 14  1  0  0  0  0
 16  9  1  0  0  0  0
 17 20  1  0  0  0  0
 17 19  1  0  0  0  0
 17  1  1  0  0  0  0
 18 17  1  0  0  0  0
 20 21  1  0  0  0  0
 20 23  1  0  0  0  0
 22 20  1  0  0  0  0
M  END
>  <minimizedAffinity>
-3.45340037

>  <minimizedRMSD>
3.36700702

$$$$
