
 OpenBabel03242523443D

 30 32  0  0  1  0  0  0  0  0999 V2000
   47.1460   33.9110   42.5040 C   0  0  2  0  0  0  0  0  0  0  0  0
   47.7830   34.7190   42.1690 H   0  0  0  0  0  0  0  0  0  0  0  0
   45.5510   35.6470   43.2220 C   0  0  0  0  0  0  0  0  0  0  0  0
   46.2190   34.4370   43.5250 C   0  0  0  0  0  0  0  0  0  0  0  0
   45.9640   33.8430   44.7710 C   0  0  0  0  0  0  0  0  0  0  0  0
   45.0980   34.4870   45.5740 N   0  0  0  0  0  0  0  0  0  0  0  0
   44.4910   35.6200   45.2600 C   0  0  0  0  0  0  0  0  0  0  0  0
   44.7070   36.2210   44.0760 N   0  0  0  0  0  0  0  0  0  0  0  0
   45.7340   36.1210   42.2660 H   0  0  0  0  0  0  0  0  0  0  0  0
   46.4710   32.9190   45.0020 H   0  0  0  0  0  0  0  0  0  0  0  0
   43.8230   35.9990   46.0330 H   0  0  0  0  0  0  0  0  0  0  0  0
   46.3220   33.4350   41.3520 C   0  0  0  0  0  0  0  0  0  0  0  0
   46.4190   33.7270   40.0110 C   0  0  0  0  0  0  0  0  0  0  0  0
   45.4640   33.0580   39.3300 N   0  0  0  0  0  0  0  0  0  0  0  0
   44.7610   32.3400   40.2530 C   0  0  0  0  0  0  0  0  0  0  0  0
   45.2950   32.5830   41.4620 N   0  0  0  0  0  0  0  0  0  0  0  0
   47.1910   34.4090   39.6610 H   0  0  0  0  0  0  0  0  0  0  0  0
   45.4310   33.1950   38.2930 H   0  0  0  0  0  0  0  0  0  0  0  0
   43.9450   31.7320   39.9000 H   0  0  0  0  0  0  0  0  0  0  0  0
   47.8780   32.7640   43.1110 C   0  0  0  0  0  0  0  0  0  0  0  0
   47.3770   31.7840   42.8310 H   0  0  0  0  0  0  0  0  0  0  0  0
   47.8710   32.7570   44.2100 H   0  0  0  0  0  0  0  0  0  0  0  0
   49.2580   32.6660   42.5560 C   0  0  0  0  0  0  0  0  0  0  0  0
   50.0360   33.8060   42.7090 C   0  0  0  0  0  0  0  0  0  0  0  0
   49.8590   34.7870   43.1590 H   0  0  0  0  0  0  0  0  0  0  0  0
   51.2580   33.6350   42.1790 N   0  0  0  0  0  0  0  0  0  0  0  0
   52.1000   34.2250   42.0920 H   0  0  0  0  0  0  0  0  0  0  0  0
   51.2160   32.3840   41.7050 C   0  0  0  0  0  0  0  0  0  0  0  0
   51.9680   31.7760   41.1830 H   0  0  0  0  0  0  0  0  0  0  0  0
   50.0520   31.7940   41.9140 N   0  0  0  0  0  0  0  0  0  0  0  0
  1  2  1  6  0  0  0
  1 20  1  0  0  0  0
  1  4  1  0  0  0  0
  3  4  2  0  0  0  0
  3  8  1  0  0  0  0
  4  5  1  0  0  0  0
  5 10  1  0  0  0  0
  5  6  2  0  0  0  0
  7  6  1  0  0  0  0
  7 11  1  0  0  0  0
  8  7  2  0  0  0  0
  9  3  1  0  0  0  0
 12 16  1  0  0  0  0
 12  1  1  0  0  0  0
 13 12  2  0  0  0  0
 14 13  1  0  0  0  0
 14 15  1  0  0  0  0
 15 16  2  0  0  0  0
 17 13  1  0  0  0  0
 18 14  1  0  0  0  0
 19 15  1  0  0  0  0
 20 22  1  0  0  0  0
 21 20  1  0  0  0  0
 23 24  2  0  0  0  0
 23 20  1  0  0  0  0
 24 25  1  0  0  0  0
 26 24  1  0  0  0  0
 27 26  1  0  0  0  0
 28 30  2  0  0  0  0
 28 26  1  0  0  0  0
 29 28  1  0  0  0  0
 30 23  1  0  0  0  0
M  END
>  <minimizedAffinity>
-4.42028427

>  <minimizedRMSD>
3.1933558

$$$$
