
 OpenBabel03252507013D

 36 38  0  0  0  0  0  0  0  0999 V2000
   37.1810   28.7310   42.3680 N   0  0  0  0  0  0  0  0  0  0  0  0
   37.3860   28.2340   43.6790 C   0  0  0  0  0  0  0  0  0  0  0  0
   38.6730   27.4170   43.4910 C   0  0  0  0  0  0  0  0  0  0  0  0
   39.8210   28.2130   42.9890 C   0  0  0  0  0  0  0  0  0  0  0  0
   39.5210   29.4980   42.3350 C   0  0  0  0  0  0  0  0  0  0  0  0
   38.0980   29.7930   41.9810 C   0  0  0  0  0  0  0  0  0  0  0  0
   37.6310   29.0220   44.3850 H   0  0  0  0  0  0  0  0  0  0  0  0
   36.6360   27.6130   44.1420 H   0  0  0  0  0  0  0  0  0  0  0  0
   38.8930   26.8720   44.4240 H   0  0  0  0  0  0  0  0  0  0  0  0
   38.4100   26.6300   42.7300 H   0  0  0  0  0  0  0  0  0  0  0  0
   40.4990   28.4440   43.8600 H   0  0  0  0  0  0  0  0  0  0  0  0
   40.4680   27.6250   42.3020 H   0  0  0  0  0  0  0  0  0  0  0  0
   40.2370   30.2270   42.0840 H   0  0  0  0  0  0  0  0  0  0  0  0
   37.7770   31.0030   41.2740 C   0  0  0  0  0  0  0  0  0  0  0  0
   36.6260   31.4810   40.7060 C   0  0  0  0  0  0  0  0  0  0  0  0
   35.7320   30.9050   40.7750 H   0  0  0  0  0  0  0  0  0  0  0  0
   36.8640   32.6740   40.1410 N   0  0  0  0  0  0  0  0  0  0  0  0
   36.1630   33.2560   39.6400 H   0  0  0  0  0  0  0  0  0  0  0  0
   38.1650   32.9420   40.3560 C   0  0  0  0  0  0  0  0  0  0  0  0
   38.6770   33.8420   40.0210 H   0  0  0  0  0  0  0  0  0  0  0  0
   38.7120   31.9240   41.0450 N   0  0  0  0  0  0  0  0  0  0  0  0
   36.4100   28.1940   41.3930 C   0  0  0  0  0  0  0  0  0  0  0  0
   35.6810   27.4000   41.6670 H   0  0  0  0  0  0  0  0  0  0  0  0
   35.7510   28.9260   40.8050 H   0  0  0  0  0  0  0  0  0  0  0  0
   37.2690   27.5840   40.3130 C   0  0  0  0  0  0  0  0  0  0  0  0
   38.3240   27.7710   40.3490 H   0  0  0  0  0  0  0  0  0  0  0  0
   36.9330   28.0790   39.3530 H   0  0  0  0  0  0  0  0  0  0  0  0
   36.8270   26.1900   40.1320 C   0  0  0  0  0  0  0  0  0  0  0  0
   36.2740   25.7400   38.9570 C   0  0  0  0  0  0  0  0  0  0  0  0
   35.8760   24.4050   38.8360 C   0  0  0  0  0  0  0  0  0  0  0  0
   36.0670   23.6080   39.9210 N   0  0  0  0  0  0  0  0  0  0  0  0
   36.6050   24.0700   41.0460 C   0  0  0  0  0  0  0  0  0  0  0  0
   36.9740   25.3460   41.1320 N   0  0  0  0  0  0  0  0  0  0  0  0
   36.1440   26.4100   38.1290 H   0  0  0  0  0  0  0  0  0  0  0  0
   35.4310   24.0140   37.9150 H   0  0  0  0  0  0  0  0  0  0  0  0
   36.7640   23.4350   41.9270 H   0  0  0  0  0  0  0  0  0  0  0  0
  1  2  1  0  0  0  0
  2  8  1  0  0  0  0
  2  7  1  0  0  0  0
  3  2  1  0  0  0  0
  3  9  1  0  0  0  0
  4  3  1  0  0  0  0
  4 11  1  0  0  0  0
  5  4  1  0  0  0  0
  6  5  2  0  0  0  0
  6  1  1  0  0  0  0
 10  3  1  0  0  0  0
 12  4  1  0  0  0  0
 13  5  1  0  0  0  0
 14  6  1  0  0  0  0
 15 16  1  0  0  0  0
 15 14  2  0  0  0  0
 17 19  1  0  0  0  0
 17 15  1  0  0  0  0
 18 17  1  0  0  0  0
 19 21  2  0  0  0  0
 20 19  1  0  0  0  0
 21 14  1  0  0  0  0
 22 23  1  0  0  0  0
 22  1  1  0  0  0  0
 24 22  1  0  0  0  0
 25 26  1  0  0  0  0
 25 22  1  0  0  0  0
 27 25  1  0  0  0  0
 28 25  1  0  0  0  0
 28 33  1  0  0  0  0
 29 28  2  0  0  0  0
 30 29  1  0  0  0  0
 30 31  2  0  0  0  0
 31 32  1  0  0  0  0
 32 33  2  0  0  0  0
 32 36  1  0  0  0  0
 34 29  1  0  0  0  0
 35 30  1  0  0  0  0
M  END
>  <minimizedAffinity>
-5.0543108

$$$$

 OpenBabel03252507013D

 36 38  0  0  0  0  0  0  0  0999 V2000
   36.9400   29.8010   39.1660 N   0  0  0  0  0  0  0  0  0  0  0  0
   37.4510   28.6480   38.5180 C   0  0  0  0  0  0  0  0  0  0  0  0
   36.7170   28.7130   37.1710 C   0  0  0  0  0  0  0  0  0  0  0  0
   36.9690   29.9620   36.4100 C   0  0  0  0  0  0  0  0  0  0  0  0
   37.4830   31.1200   37.1590 C   0  0  0  0  0  0  0  0  0  0  0  0
   37.4660   31.0560   38.6540 C   0  0  0  0  0  0  0  0  0  0  0  0
   38.5080   28.7380   38.2890 H   0  0  0  0  0  0  0  0  0  0  0  0
   37.3010   27.6740   38.9570 H   0  0  0  0  0  0  0  0  0  0  0  0
   36.9380   27.7980   36.5950 H   0  0  0  0  0  0  0  0  0  0  0  0
   35.6230   28.6550   37.4310 H   0  0  0  0  0  0  0  0  0  0  0  0
   37.7230   29.7380   35.6030 H   0  0  0  0  0  0  0  0  0  0  0  0
   36.0720   30.2940   35.8440 H   0  0  0  0  0  0  0  0  0  0  0  0
   37.8550   32.0020   36.7230 H   0  0  0  0  0  0  0  0  0  0  0  0
   37.8900   32.1970   39.4200 C   0  0  0  0  0  0  0  0  0  0  0  0
   37.3490   33.4360   39.6360 C   0  0  0  0  0  0  0  0  0  0  0  0
   36.4090   33.6780   39.1960 H   0  0  0  0  0  0  0  0  0  0  0  0
   38.1630   34.1520   40.4260 N   0  0  0  0  0  0  0  0  0  0  0  0
   37.9910   35.1270   40.7460 H   0  0  0  0  0  0  0  0  0  0  0  0
   39.2130   33.3590   40.7040 C   0  0  0  0  0  0  0  0  0  0  0  0
   40.0590   33.6450   41.3270 H   0  0  0  0  0  0  0  0  0  0  0  0
   39.0410   32.1740   40.0910 N   0  0  0  0  0  0  0  0  0  0  0  0
   35.8880   29.8710   40.0160 C   0  0  0  0  0  0  0  0  0  0  0  0
   35.0320   30.5300   39.7510 H   0  0  0  0  0  0  0  0  0  0  0  0
   35.3580   28.8810   40.2510 H   0  0  0  0  0  0  0  0  0  0  0  0
   36.3370   30.3370   41.3780 C   0  0  0  0  0  0  0  0  0  0  0  0
   35.6310   30.8750   41.9800 H   0  0  0  0  0  0  0  0  0  0  0  0
   37.1600   31.0860   41.1790 H   0  0  0  0  0  0  0  0  0  0  0  0
   37.0610   29.2190   42.0100 C   0  0  0  0  0  0  0  0  0  0  0  0
   36.5010   27.9740   42.1670 C   0  0  0  0  0  0  0  0  0  0  0  0
   37.2340   26.9470   42.7680 C   0  0  0  0  0  0  0  0  0  0  0  0
   38.4960   27.2500   43.1720 N   0  0  0  0  0  0  0  0  0  0  0  0
   39.0140   28.4640   43.0070 C   0  0  0  0  0  0  0  0  0  0  0  0
   38.2910   29.4220   42.4310 N   0  0  0  0  0  0  0  0  0  0  0  0
   35.5000   27.7860   41.8310 H   0  0  0  0  0  0  0  0  0  0  0  0
   36.8170   25.9440   42.9100 H   0  0  0  0  0  0  0  0  0  0  0  0
   40.0320   28.7180   43.3290 H   0  0  0  0  0  0  0  0  0  0  0  0
  1 22  1  0  0  0  0
  2  8  1  0  0  0  0
  2  1  1  0  0  0  0
  3 10  1  0  0  0  0
  3  2  1  0  0  0  0
  4  5  1  0  0  0  0
  4  3  1  0  0  0  0
  5  6  2  0  0  0  0
  6  1  1  0  0  0  0
  6 14  1  0  0  0  0
  7  2  1  0  0  0  0
  9  3  1  0  0  0  0
 11  4  1  0  0  0  0
 12  4  1  0  0  0  0
 13  5  1  0  0  0  0
 14 15  2  0  0  0  0
 14 21  1  0  0  0  0
 15 17  1  0  0  0  0
 16 15  1  0  0  0  0
 17 19  1  0  0  0  0
 17 18  1  0  0  0  0
 19 20  1  0  0  0  0
 21 19  2  0  0  0  0
 22 24  1  0  0  0  0
 22 25  1  0  0  0  0
 23 22  1  0  0  0  0
 25 26  1  0  0  0  0
 25 28  1  0  0  0  0
 27 25  1  0  0  0  0
 28 29  2  0  0  0  0
 28 33  1  0  0  0  0
 29 30  1  0  0  0  0
 30 35  1  0  0  0  0
 30 31  2  0  0  0  0
 32 31  1  0  0  0  0
 32 36  1  0  0  0  0
 33 32  2  0  0  0  0
 34 29  1  0  0  0  0
M  END
>  <minimizedAffinity>
-4.85832119

$$$$

 OpenBabel03252507013D

 36 38  0  0  0  0  0  0  0  0999 V2000
   37.2270   31.2380   40.2280 N   0  0  0  0  0  0  0  0  0  0  0  0
   37.1230   31.9410   39.0010 C   0  0  0  0  0  0  0  0  0  0  0  0
   37.2070   33.3970   39.4850 C   0  0  0  0  0  0  0  0  0  0  0  0
   38.4530   33.7110   40.2280 C   0  0  0  0  0  0  0  0  0  0  0  0
   39.2140   32.5810   40.7860 C   0  0  0  0  0  0  0  0  0  0  0  0
   38.5630   31.2340   40.8040 C   0  0  0  0  0  0  0  0  0  0  0  0
   37.9880   31.7870   38.3630 H   0  0  0  0  0  0  0  0  0  0  0  0
   36.2470   31.8220   38.3850 H   0  0  0  0  0  0  0  0  0  0  0  0
   37.0250   34.0710   38.6320 H   0  0  0  0  0  0  0  0  0  0  0  0
   36.3250   33.5270   40.1730 H   0  0  0  0  0  0  0  0  0  0  0  0
   39.1500   34.2590   39.5330 H   0  0  0  0  0  0  0  0  0  0  0  0
   38.2760   34.4400   41.0490 H   0  0  0  0  0  0  0  0  0  0  0  0
   40.1840   32.6490   41.1860 H   0  0  0  0  0  0  0  0  0  0  0  0
   39.2450   30.1230   41.4080 C   0  0  0  0  0  0  0  0  0  0  0  0
   39.5870   29.8200   42.6990 C   0  0  0  0  0  0  0  0  0  0  0  0
   39.3090   30.4870   43.4820 H   0  0  0  0  0  0  0  0  0  0  0  0
   40.2460   28.6520   42.7300 N   0  0  0  0  0  0  0  0  0  0  0  0
   40.6190   28.1910   43.5840 H   0  0  0  0  0  0  0  0  0  0  0  0
   40.3150   28.2230   41.4570 C   0  0  0  0  0  0  0  0  0  0  0  0
   40.7900   27.2980   41.1390 H   0  0  0  0  0  0  0  0  0  0  0  0
   39.7050   29.1200   40.6600 N   0  0  0  0  0  0  0  0  0  0  0  0
   36.2160   30.7830   41.0060 C   0  0  0  0  0  0  0  0  0  0  0  0
   36.4540   30.4250   42.0310 H   0  0  0  0  0  0  0  0  0  0  0  0
   35.3600   31.5200   41.2070 H   0  0  0  0  0  0  0  0  0  0  0  0
   35.5100   29.6300   40.3380 C   0  0  0  0  0  0  0  0  0  0  0  0
   35.3070   29.7090   39.2880 H   0  0  0  0  0  0  0  0  0  0  0  0
   34.4850   29.5940   40.8160 H   0  0  0  0  0  0  0  0  0  0  0  0
   36.1380   28.3880   40.8220 C   0  0  0  0  0  0  0  0  0  0  0  0
   36.5370   27.3850   39.9700 C   0  0  0  0  0  0  0  0  0  0  0  0
   37.1330   26.2280   40.4810 C   0  0  0  0  0  0  0  0  0  0  0  0
   37.2890   26.1640   41.8300 N   0  0  0  0  0  0  0  0  0  0  0  0
   36.8950   27.1500   42.6310 C   0  0  0  0  0  0  0  0  0  0  0  0
   36.3290   28.2390   42.1150 N   0  0  0  0  0  0  0  0  0  0  0  0
   36.3910   27.4850   38.9120 H   0  0  0  0  0  0  0  0  0  0  0  0
   37.4620   25.4110   39.8310 H   0  0  0  0  0  0  0  0  0  0  0  0
   37.0170   27.1070   43.7200 H   0  0  0  0  0  0  0  0  0  0  0  0
  1  6  1  0  0  0  0
  1 22  1  0  0  0  0
  2  3  1  0  0  0  0
  2  1  1  0  0  0  0
  3 10  1  0  0  0  0
  3  4  1  0  0  0  0
  4  5  1  0  0  0  0
  4 12  1  0  0  0  0
  5  6  2  0  0  0  0
  5 13  1  0  0  0  0
  6 14  1  0  0  0  0
  7  2  1  0  0  0  0
  8  2  1  0  0  0  0
  9  3  1  0  0  0  0
 11  4  1  0  0  0  0
 14 15  2  0  0  0  0
 15 17  1  0  0  0  0
 15 16  1  0  0  0  0
 17 18  1  0  0  0  0
 19 17  1  0  0  0  0
 20 19  1  0  0  0  0
 21 14  1  0  0  0  0
 21 19  2  0  0  0  0
 22 24  1  0  0  0  0
 22 23  1  0  0  0  0
 25 27  1  0  0  0  0
 25 28  1  0  0  0  0
 25 22  1  0  0  0  0
 26 25  1  0  0  0  0
 28 33  1  0  0  0  0
 29 30  1  0  0  0  0
 29 28  2  0  0  0  0
 30 31  2  0  0  0  0
 31 32  1  0  0  0  0
 32 36  1  0  0  0  0
 33 32  2  0  0  0  0
 34 29  1  0  0  0  0
 35 30  1  0  0  0  0
M  END
>  <minimizedAffinity>
-4.69093084

$$$$

 OpenBabel03252507013D

 36 38  0  0  0  0  0  0  0  0999 V2000
   37.7950   27.9760   38.1750 N   0  0  0  0  0  0  0  0  0  0  0  0
   38.7100   27.9630   37.0920 C   0  0  0  0  0  0  0  0  0  0  0  0
   37.7720   27.6610   35.9130 C   0  0  0  0  0  0  0  0  0  0  0  0
   36.6860   28.6580   35.7400 C   0  0  0  0  0  0  0  0  0  0  0  0
   36.3600   29.5130   36.8930 C   0  0  0  0  0  0  0  0  0  0  0  0
   36.9430   29.1540   38.2230 C   0  0  0  0  0  0  0  0  0  0  0  0
   39.1310   28.9450   36.8970 H   0  0  0  0  0  0  0  0  0  0  0  0
   39.5250   27.2580   37.0850 H   0  0  0  0  0  0  0  0  0  0  0  0
   38.3760   27.5090   35.0030 H   0  0  0  0  0  0  0  0  0  0  0  0
   37.3170   26.6590   36.1510 H   0  0  0  0  0  0  0  0  0  0  0  0
   36.9710   29.3480   34.8960 H   0  0  0  0  0  0  0  0  0  0  0  0
   35.7420   28.1890   35.3870 H   0  0  0  0  0  0  0  0  0  0  0  0
   35.7350   30.3580   36.8580 H   0  0  0  0  0  0  0  0  0  0  0  0
   36.5870   29.9210   39.3860 C   0  0  0  0  0  0  0  0  0  0  0  0
   35.5500   29.8500   40.2770 C   0  0  0  0  0  0  0  0  0  0  0  0
   34.8210   29.0810   40.1670 H   0  0  0  0  0  0  0  0  0  0  0  0
   35.6680   30.8280   41.1870 N   0  0  0  0  0  0  0  0  0  0  0  0
   35.0140   31.0010   41.9770 H   0  0  0  0  0  0  0  0  0  0  0  0
   36.7820   31.5110   40.8660 C   0  0  0  0  0  0  0  0  0  0  0  0
   37.1610   32.3720   41.4120 H   0  0  0  0  0  0  0  0  0  0  0  0
   37.3350   30.9550   39.7720 N   0  0  0  0  0  0  0  0  0  0  0  0
   37.4800   26.9500   39.0010 C   0  0  0  0  0  0  0  0  0  0  0  0
   36.5450   27.0150   39.5980 H   0  0  0  0  0  0  0  0  0  0  0  0
   37.3750   25.9180   38.5110 H   0  0  0  0  0  0  0  0  0  0  0  0
   38.5780   26.7260   40.0100 C   0  0  0  0  0  0  0  0  0  0  0  0
   39.5890   26.8880   39.6920 H   0  0  0  0  0  0  0  0  0  0  0  0
   38.5370   25.6220   40.2520 H   0  0  0  0  0  0  0  0  0  0  0  0
   38.1510   27.3510   41.2740 C   0  0  0  0  0  0  0  0  0  0  0  0
   37.0570   26.9110   41.9790 C   0  0  0  0  0  0  0  0  0  0  0  0
   36.6970   27.5380   43.1770 C   0  0  0  0  0  0  0  0  0  0  0  0
   37.4760   28.5750   43.5840 N   0  0  0  0  0  0  0  0  0  0  0  0
   38.5300   28.9800   42.8810 C   0  0  0  0  0  0  0  0  0  0  0  0
   38.8470   28.3640   41.7440 N   0  0  0  0  0  0  0  0  0  0  0  0
   36.4740   26.0880   41.6150 H   0  0  0  0  0  0  0  0  0  0  0  0
   35.8310   27.2120   43.7630 H   0  0  0  0  0  0  0  0  0  0  0  0
   39.1650   29.8160   43.2010 H   0  0  0  0  0  0  0  0  0  0  0  0
  1  6  1  0  0  0  0
  1 22  1  0  0  0  0
  2  1  1  0  0  0  0
  3 10  1  0  0  0  0
  3  2  1  0  0  0  0
  4  3  1  0  0  0  0
  4  5  1  0  0  0  0
  5  6  2  0  0  0  0
  6 14  1  0  0  0  0
  7  2  1  0  0  0  0
  8  2  1  0  0  0  0
  9  3  1  0  0  0  0
 11  4  1  0  0  0  0
 12  4  1  0  0  0  0
 13  5  1  0  0  0  0
 14 21  1  0  0  0  0
 14 15  2  0  0  0  0
 15 17  1  0  0  0  0
 16 15  1  0  0  0  0
 17 18  1  0  0  0  0
 19 17  1  0  0  0  0
 19 20  1  0  0  0  0
 21 19  2  0  0  0  0
 22 23  1  0  0  0  0
 22 25  1  0  0  0  0
 24 22  1  0  0  0  0
 25 27  1  0  0  0  0
 25 28  1  0  0  0  0
 26 25  1  0  0  0  0
 28 33  2  0  0  0  0
 28 29  1  0  0  0  0
 29 30  2  0  0  0  0
 30 31  1  0  0  0  0
 30 35  1  0  0  0  0
 32 36  1  0  0  0  0
 32 31  2  0  0  0  0
 33 32  1  0  0  0  0
 34 29  1  0  0  0  0
M  END
>  <minimizedAffinity>
-4.68690157

$$$$

 OpenBabel03252507013D

 36 38  0  0  0  0  0  0  0  0999 V2000
   37.0540   25.7140   40.2980 N   0  0  0  0  0  0  0  0  0  0  0  0
   36.3490   24.4990   40.1110 C   0  0  0  0  0  0  0  0  0  0  0  0
   37.5000   23.4820   40.1080 C   0  0  0  0  0  0  0  0  0  0  0  0
   38.3130   23.4930   41.3500 C   0  0  0  0  0  0  0  0  0  0  0  0
   38.2320   24.6910   42.2030 C   0  0  0  0  0  0  0  0  0  0  0  0
   37.5640   25.9080   41.6470 C   0  0  0  0  0  0  0  0  0  0  0  0
   35.7280   24.2470   40.9650 H   0  0  0  0  0  0  0  0  0  0  0  0
   35.7480   24.3560   39.2270 H   0  0  0  0  0  0  0  0  0  0  0  0
   37.1010   22.4860   39.8550 H   0  0  0  0  0  0  0  0  0  0  0  0
   38.1510   23.7820   39.2390 H   0  0  0  0  0  0  0  0  0  0  0  0
   37.9950   22.6200   41.9880 H   0  0  0  0  0  0  0  0  0  0  0  0
   39.3870   23.2920   41.1470 H   0  0  0  0  0  0  0  0  0  0  0  0
   38.6220   24.7630   43.1770 H   0  0  0  0  0  0  0  0  0  0  0  0
   37.5320   27.1190   42.4210 C   0  0  0  0  0  0  0  0  0  0  0  0
   36.5590   27.7340   43.1610 C   0  0  0  0  0  0  0  0  0  0  0  0
   35.6020   27.2750   43.2490 H   0  0  0  0  0  0  0  0  0  0  0  0
   37.0390   28.8750   43.6790 N   0  0  0  0  0  0  0  0  0  0  0  0
   36.5090   29.5370   44.2810 H   0  0  0  0  0  0  0  0  0  0  0  0
   38.3140   28.9720   43.2610 C   0  0  0  0  0  0  0  0  0  0  0  0
   38.9880   29.7900   43.5090 H   0  0  0  0  0  0  0  0  0  0  0  0
   38.6070   27.9020   42.4990 N   0  0  0  0  0  0  0  0  0  0  0  0
   37.4880   26.5710   39.3430 C   0  0  0  0  0  0  0  0  0  0  0  0
   38.3560   27.2270   39.5710 H   0  0  0  0  0  0  0  0  0  0  0  0
   37.8030   26.1020   38.3450 H   0  0  0  0  0  0  0  0  0  0  0  0
   36.3820   27.5100   38.9310 C   0  0  0  0  0  0  0  0  0  0  0  0
   35.3720   27.1580   39.0140 H   0  0  0  0  0  0  0  0  0  0  0  0
   36.5280   27.6720   37.8210 H   0  0  0  0  0  0  0  0  0  0  0  0
   36.6930   28.8340   39.4970 C   0  0  0  0  0  0  0  0  0  0  0  0
   35.7590   29.5860   40.1680 C   0  0  0  0  0  0  0  0  0  0  0  0
   36.1090   30.8350   40.6900 C   0  0  0  0  0  0  0  0  0  0  0  0
   37.3920   31.2420   40.4990 N   0  0  0  0  0  0  0  0  0  0  0  0
   38.2760   30.4930   39.8460 C   0  0  0  0  0  0  0  0  0  0  0  0
   37.9130   29.3090   39.3590 N   0  0  0  0  0  0  0  0  0  0  0  0
   34.7580   29.2200   40.2920 H   0  0  0  0  0  0  0  0  0  0  0  0
   35.3890   31.4600   41.2290 H   0  0  0  0  0  0  0  0  0  0  0  0
   39.3130   30.8130   39.6860 H   0  0  0  0  0  0  0  0  0  0  0  0
  1  6  1  0  0  0  0
  2  1  1  0  0  0  0
  2  7  1  0  0  0  0
  3  2  1  0  0  0  0
  3  4  1  0  0  0  0
  4 11  1  0  0  0  0
  4  5  1  0  0  0  0
  5 13  1  0  0  0  0
  6  5  2  0  0  0  0
  6 14  1  0  0  0  0
  8  2  1  0  0  0  0
  9  3  1  0  0  0  0
 10  3  1  0  0  0  0
 12  4  1  0  0  0  0
 14 21  1  0  0  0  0
 14 15  2  0  0  0  0
 15 16  1  0  0  0  0
 15 17  1  0  0  0  0
 17 18  1  0  0  0  0
 19 20  1  0  0  0  0
 19 17  1  0  0  0  0
 21 19  2  0  0  0  0
 22 23  1  0  0  0  0
 22  1  1  0  0  0  0
 24 22  1  0  0  0  0
 25 26  1  0  0  0  0
 25 22  1  0  0  0  0
 25 28  1  0  0  0  0
 27 25  1  0  0  0  0
 28 29  1  0  0  0  0
 29 34  1  0  0  0  0
 29 30  2  0  0  0  0
 30 35  1  0  0  0  0
 31 30  1  0  0  0  0
 32 31  2  0  0  0  0
 33 28  2  0  0  0  0
 33 32  1  0  0  0  0
 36 32  1  0  0  0  0
M  END
>  <minimizedAffinity>
-4.67288113

$$$$

 OpenBabel03252507013D

 36 38  0  0  0  0  0  0  0  0999 V2000
   38.9920   27.7590   41.5850 N   0  0  0  0  0  0  0  0  0  0  0  0
   39.6860   28.5820   42.5060 C   0  0  0  0  0  0  0  0  0  0  0  0
   38.5440   29.4550   43.0460 C   0  0  0  0  0  0  0  0  0  0  0  0
   37.4440   28.6830   43.6760 C   0  0  0  0  0  0  0  0  0  0  0  0
   37.3410   27.2530   43.3400 C   0  0  0  0  0  0  0  0  0  0  0  0
   38.1640   26.7350   42.2030 C   0  0  0  0  0  0  0  0  0  0  0  0
   40.0630   28.0220   43.3570 H   0  0  0  0  0  0  0  0  0  0  0  0
   40.4870   29.2180   42.1630 H   0  0  0  0  0  0  0  0  0  0  0  0
   38.9650   30.2330   43.7040 H   0  0  0  0  0  0  0  0  0  0  0  0
   38.1430   30.0000   42.1450 H   0  0  0  0  0  0  0  0  0  0  0  0
   37.5640   28.7440   44.7950 H   0  0  0  0  0  0  0  0  0  0  0  0
   36.4500   29.1470   43.4940 H   0  0  0  0  0  0  0  0  0  0  0  0
   36.7190   26.5630   43.8340 H   0  0  0  0  0  0  0  0  0  0  0  0
   38.0330   25.3620   41.7980 C   0  0  0  0  0  0  0  0  0  0  0  0
   38.8280   24.2580   41.9530 C   0  0  0  0  0  0  0  0  0  0  0  0
   39.7430   24.3460   42.4920 H   0  0  0  0  0  0  0  0  0  0  0  0
   38.2520   23.2000   41.3620 N   0  0  0  0  0  0  0  0  0  0  0  0
   38.6450   22.2380   41.3300 H   0  0  0  0  0  0  0  0  0  0  0  0
   37.0960   23.6440   40.8380 C   0  0  0  0  0  0  0  0  0  0  0  0
   36.3870   23.0280   40.2870 H   0  0  0  0  0  0  0  0  0  0  0  0
   36.9690   24.9560   41.1070 N   0  0  0  0  0  0  0  0  0  0  0  0
   38.8390   27.9580   40.2540 C   0  0  0  0  0  0  0  0  0  0  0  0
   39.5420   28.6440   39.7340 H   0  0  0  0  0  0  0  0  0  0  0  0
   38.8890   27.0220   39.5910 H   0  0  0  0  0  0  0  0  0  0  0  0
   37.4640   28.5010   39.9530 C   0  0  0  0  0  0  0  0  0  0  0  0
   36.6740   28.2690   40.6410 H   0  0  0  0  0  0  0  0  0  0  0  0
   37.1500   27.9960   38.9910 H   0  0  0  0  0  0  0  0  0  0  0  0
   37.6240   29.9080   39.5450 C   0  0  0  0  0  0  0  0  0  0  0  0
   36.8310   30.9130   40.0440 C   0  0  0  0  0  0  0  0  0  0  0  0
   37.0300   32.2330   39.6270 C   0  0  0  0  0  0  0  0  0  0  0  0
   38.0260   32.4490   38.7280 N   0  0  0  0  0  0  0  0  0  0  0  0
   38.7800   31.4560   38.2630 C   0  0  0  0  0  0  0  0  0  0  0  0
   38.5670   30.2100   38.6770 N   0  0  0  0  0  0  0  0  0  0  0  0
   36.0570   30.6900   40.7520 H   0  0  0  0  0  0  0  0  0  0  0  0
   36.4150   33.0580   40.0040 H   0  0  0  0  0  0  0  0  0  0  0  0
   39.5860   31.6210   37.5370 H   0  0  0  0  0  0  0  0  0  0  0  0
  1  6  1  0  0  0  0
  1  2  1  0  0  0  0
  2  3  1  0  0  0  0
  2  7  1  0  0  0  0
  3  4  1  0  0  0  0
  3  9  1  0  0  0  0
  4 11  1  0  0  0  0
  5  4  1  0  0  0  0
  5 13  1  0  0  0  0
  6  5  2  0  0  0  0
  8  2  1  0  0  0  0
 10  3  1  0  0  0  0
 12  4  1  0  0  0  0
 14 15  2  0  0  0  0
 14  6  1  0  0  0  0
 15 16  1  0  0  0  0
 17 15  1  0  0  0  0
 18 17  1  0  0  0  0
 19 21  2  0  0  0  0
 19 17  1  0  0  0  0
 20 19  1  0  0  0  0
 21 14  1  0  0  0  0
 22  1  1  0  0  0  0
 23 22  1  0  0  0  0
 24 22  1  0  0  0  0
 25 22  1  0  0  0  0
 25 26  1  0  0  0  0
 27 25  1  0  0  0  0
 28 25  1  0  0  0  0
 28 29  1  0  0  0  0
 29 34  1  0  0  0  0
 30 35  1  0  0  0  0
 30 29  2  0  0  0  0
 31 30  1  0  0  0  0
 32 33  1  0  0  0  0
 32 31  2  0  0  0  0
 33 28  2  0  0  0  0
 36 32  1  0  0  0  0
M  END
>  <minimizedAffinity>
-4.63442326

$$$$

 OpenBabel03252507013D

 36 38  0  0  0  0  0  0  0  0999 V2000
   39.9890   30.4380   39.8250 N   0  0  0  0  0  0  0  0  0  0  0  0
   41.0430   31.3850   39.8160 C   0  0  0  0  0  0  0  0  0  0  0  0
   41.3330   31.4960   38.3120 C   0  0  0  0  0  0  0  0  0  0  0  0
   40.1630   31.9260   37.5050 C   0  0  0  0  0  0  0  0  0  0  0  0
   38.8300   31.7710   38.1100 C   0  0  0  0  0  0  0  0  0  0  0  0
   38.7130   30.9600   39.3610 C   0  0  0  0  0  0  0  0  0  0  0  0
   40.7150   32.3710   40.1320 H   0  0  0  0  0  0  0  0  0  0  0  0
   41.9620   31.1730   40.3390 H   0  0  0  0  0  0  0  0  0  0  0  0
   42.2240   32.1280   38.1620 H   0  0  0  0  0  0  0  0  0  0  0  0
   41.6360   30.4580   37.9960 H   0  0  0  0  0  0  0  0  0  0  0  0
   40.2840   33.0200   37.2630 H   0  0  0  0  0  0  0  0  0  0  0  0
   40.1430   31.4370   36.5070 H   0  0  0  0  0  0  0  0  0  0  0  0
   37.9420   32.1810   37.7210 H   0  0  0  0  0  0  0  0  0  0  0  0
   37.4170   30.7250   39.9380 C   0  0  0  0  0  0  0  0  0  0  0  0
   36.7360   31.2930   40.9810 C   0  0  0  0  0  0  0  0  0  0  0  0
   37.1830   32.0990   41.5170 H   0  0  0  0  0  0  0  0  0  0  0  0
   35.5490   30.6880   41.1280 N   0  0  0  0  0  0  0  0  0  0  0  0
   34.8340   30.9250   41.8460 H   0  0  0  0  0  0  0  0  0  0  0  0
   35.4870   29.7400   40.1760 C   0  0  0  0  0  0  0  0  0  0  0  0
   34.6450   29.0670   40.0250 H   0  0  0  0  0  0  0  0  0  0  0  0
   36.6230   29.7680   39.4570 N   0  0  0  0  0  0  0  0  0  0  0  0
   40.0860   29.0970   39.9910 C   0  0  0  0  0  0  0  0  0  0  0  0
   39.2250   28.4600   39.6930 H   0  0  0  0  0  0  0  0  0  0  0  0
   40.9580   28.5810   39.4530 H   0  0  0  0  0  0  0  0  0  0  0  0
   40.3450   28.7590   41.4380 C   0  0  0  0  0  0  0  0  0  0  0  0
   40.9460   29.4390   42.0090 H   0  0  0  0  0  0  0  0  0  0  0  0
   40.9500   27.8040   41.4160 H   0  0  0  0  0  0  0  0  0  0  0  0
   39.0660   28.3200   42.0240 C   0  0  0  0  0  0  0  0  0  0  0  0
   38.5420   28.8910   43.1590 C   0  0  0  0  0  0  0  0  0  0  0  0
   37.3210   28.4390   43.6700 C   0  0  0  0  0  0  0  0  0  0  0  0
   36.7070   27.4340   42.9930 N   0  0  0  0  0  0  0  0  0  0  0  0
   37.2370   26.9000   41.8950 C   0  0  0  0  0  0  0  0  0  0  0  0
   38.4010   27.3500   41.4320 N   0  0  0  0  0  0  0  0  0  0  0  0
   39.0670   29.6820   43.6580 H   0  0  0  0  0  0  0  0  0  0  0  0
   36.8760   28.8710   44.5730 H   0  0  0  0  0  0  0  0  0  0  0  0
   36.7480   26.0890   41.3410 H   0  0  0  0  0  0  0  0  0  0  0  0
  1 22  1  0  0  0  0
  2  1  1  0  0  0  0
  2  7  1  0  0  0  0
  2  8  1  0  0  0  0
  3  2  1  0  0  0  0
  4  5  1  0  0  0  0
  4  3  1  0  0  0  0
  5  6  2  0  0  0  0
  6  1  1  0  0  0  0
  6 14  1  0  0  0  0
  9  3  1  0  0  0  0
 10  3  1  0  0  0  0
 11  4  1  0  0  0  0
 12  4  1  0  0  0  0
 13  5  1  0  0  0  0
 14 15  2  0  0  0  0
 15 17  1  0  0  0  0
 15 16  1  0  0  0  0
 17 18  1  0  0  0  0
 19 17  1  0  0  0  0
 20 19  1  0  0  0  0
 21 14  1  0  0  0  0
 21 19  2  0  0  0  0
 22 25  1  0  0  0  0
 23 22  1  0  0  0  0
 24 22  1  0  0  0  0
 25 26  1  0  0  0  0
 25 28  1  0  0  0  0
 27 25  1  0  0  0  0
 28 29  1  0  0  0  0
 29 34  1  0  0  0  0
 29 30  2  0  0  0  0
 30 35  1  0  0  0  0
 31 30  1  0  0  0  0
 32 31  2  0  0  0  0
 33 32  1  0  0  0  0
 33 28  2  0  0  0  0
 36 32  1  0  0  0  0
M  END
>  <minimizedAffinity>
-4.63124371

$$$$

 OpenBabel03252507013D

 36 38  0  0  0  0  0  0  0  0999 V2000
   36.8940   29.7500   39.4870 N   0  0  0  0  0  0  0  0  0  0  0  0
   36.0280   30.5560   40.2670 C   0  0  0  0  0  0  0  0  0  0  0  0
   36.9510   31.7330   40.6160 C   0  0  0  0  0  0  0  0  0  0  0  0
   37.4910   32.4450   39.4300 C   0  0  0  0  0  0  0  0  0  0  0  0
   37.4650   31.7320   38.1420 C   0  0  0  0  0  0  0  0  0  0  0  0
   37.1540   30.2690   38.1530 C   0  0  0  0  0  0  0  0  0  0  0  0
   35.2150   30.9750   39.6810 H   0  0  0  0  0  0  0  0  0  0  0  0
   35.5980   30.1630   41.1740 H   0  0  0  0  0  0  0  0  0  0  0  0
   36.4340   32.3990   41.3270 H   0  0  0  0  0  0  0  0  0  0  0  0
   37.8040   31.2750   41.1900 H   0  0  0  0  0  0  0  0  0  0  0  0
   36.8990   33.3930   39.2870 H   0  0  0  0  0  0  0  0  0  0  0  0
   38.5290   32.8070   39.5970 H   0  0  0  0  0  0  0  0  0  0  0  0
   37.6620   32.1720   37.2070 H   0  0  0  0  0  0  0  0  0  0  0  0
   37.1940   29.5240   36.9240 C   0  0  0  0  0  0  0  0  0  0  0  0
   38.0880   28.6320   36.3950 C   0  0  0  0  0  0  0  0  0  0  0  0
   38.9520   28.3650   36.9580 H   0  0  0  0  0  0  0  0  0  0  0  0
   37.6640   28.2310   35.1870 N   0  0  0  0  0  0  0  0  0  0  0  0
   38.1560   27.5550   34.5680 H   0  0  0  0  0  0  0  0  0  0  0  0
   36.5040   28.8720   34.9610 C   0  0  0  0  0  0  0  0  0  0  0  0
   35.9000   28.7640   34.0620 H   0  0  0  0  0  0  0  0  0  0  0  0
   36.2240   29.6550   36.0190 N   0  0  0  0  0  0  0  0  0  0  0  0
   37.6570   28.7130   39.9070 C   0  0  0  0  0  0  0  0  0  0  0  0
   37.7230   27.8060   39.2670 H   0  0  0  0  0  0  0  0  0  0  0  0
   38.7640   28.9440   40.1030 H   0  0  0  0  0  0  0  0  0  0  0  0
   37.1820   28.2150   41.2500 C   0  0  0  0  0  0  0  0  0  0  0  0
   36.4100   28.7710   41.7440 H   0  0  0  0  0  0  0  0  0  0  0  0
   38.0770   28.3120   41.9350 H   0  0  0  0  0  0  0  0  0  0  0  0
   37.0110   26.7550   41.1430 C   0  0  0  0  0  0  0  0  0  0  0  0
   37.2020   25.9120   42.2120 C   0  0  0  0  0  0  0  0  0  0  0  0
   37.0220   24.5340   42.0580 C   0  0  0  0  0  0  0  0  0  0  0  0
   36.6560   24.0980   40.8230 N   0  0  0  0  0  0  0  0  0  0  0  0
   36.4780   24.9370   39.8060 C   0  0  0  0  0  0  0  0  0  0  0  0
   36.6580   26.2440   39.9830 N   0  0  0  0  0  0  0  0  0  0  0  0
   37.4900   26.3070   43.1660 H   0  0  0  0  0  0  0  0  0  0  0  0
   37.1660   23.8350   42.8880 H   0  0  0  0  0  0  0  0  0  0  0  0
   36.1830   24.5950   38.8060 H   0  0  0  0  0  0  0  0  0  0  0  0
  1 22  1  0  0  0  0
  1  2  1  0  0  0  0
  2  3  1  0  0  0  0
  2  8  1  0  0  0  0
  3 10  1  0  0  0  0
  3  9  1  0  0  0  0
  4 12  1  0  0  0  0
  4  3  1  0  0  0  0
  5  6  2  0  0  0  0
  5  4  1  0  0  0  0
  6  1  1  0  0  0  0
  7  2  1  0  0  0  0
 11  4  1  0  0  0  0
 13  5  1  0  0  0  0
 14  6  1  0  0  0  0
 15 14  2  0  0  0  0
 15 16  1  0  0  0  0
 17 15  1  0  0  0  0
 18 17  1  0  0  0  0
 19 17  1  0  0  0  0
 19 21  2  0  0  0  0
 20 19  1  0  0  0  0
 21 14  1  0  0  0  0
 22 24  1  0  0  0  0
 22 25  1  0  0  0  0
 23 22  1  0  0  0  0
 25 26  1  0  0  0  0
 25 27  1  0  0  0  0
 28 25  1  0  0  0  0
 28 29  1  0  0  0  0
 29 34  1  0  0  0  0
 30 29  2  0  0  0  0
 30 35  1  0  0  0  0
 31 30  1  0  0  0  0
 32 33  1  0  0  0  0
 32 31  2  0  0  0  0
 33 28  2  0  0  0  0
 36 32  1  0  0  0  0
M  END
>  <minimizedAffinity>
-4.61450911

$$$$

 OpenBabel03252507013D

 36 38  0  0  0  0  0  0  0  0999 V2000
   37.8310   29.4070   40.7860 N   0  0  0  0  0  0  0  0  0  0  0  0
   37.2560   29.6100   42.0660 C   0  0  0  0  0  0  0  0  0  0  0  0
   38.4940   29.5060   42.9690 C   0  0  0  0  0  0  0  0  0  0  0  0
   39.5560   30.4930   42.6480 C   0  0  0  0  0  0  0  0  0  0  0  0
   39.5200   31.1180   41.3160 C   0  0  0  0  0  0  0  0  0  0  0  0
   38.6000   30.5380   40.2900 C   0  0  0  0  0  0  0  0  0  0  0  0
   36.8770   30.6200   42.1920 H   0  0  0  0  0  0  0  0  0  0  0  0
   36.4960   28.9360   42.4280 H   0  0  0  0  0  0  0  0  0  0  0  0
   38.1750   29.5340   44.0240 H   0  0  0  0  0  0  0  0  0  0  0  0
   38.8940   28.4670   42.7970 H   0  0  0  0  0  0  0  0  0  0  0  0
   39.4980   31.3310   43.4000 H   0  0  0  0  0  0  0  0  0  0  0  0
   40.5740   30.0750   42.8010 H   0  0  0  0  0  0  0  0  0  0  0  0
   40.1050   31.9420   41.0220 H   0  0  0  0  0  0  0  0  0  0  0  0
   38.5930   31.0740   38.9560 C   0  0  0  0  0  0  0  0  0  0  0  0
   39.5740   31.5650   38.1360 C   0  0  0  0  0  0  0  0  0  0  0  0
   40.5840   31.5670   38.4760 H   0  0  0  0  0  0  0  0  0  0  0  0
   39.0330   31.9670   36.9760 N   0  0  0  0  0  0  0  0  0  0  0  0
   39.5550   32.3810   36.1770 H   0  0  0  0  0  0  0  0  0  0  0  0
   37.7130   31.7270   37.0710 C   0  0  0  0  0  0  0  0  0  0  0  0
   36.9860   31.9430   36.2910 H   0  0  0  0  0  0  0  0  0  0  0  0
   37.4530   31.1840   38.2740 N   0  0  0  0  0  0  0  0  0  0  0  0
   37.9320   28.2420   40.1030 C   0  0  0  0  0  0  0  0  0  0  0  0
   38.2050   28.2780   39.0260 H   0  0  0  0  0  0  0  0  0  0  0  0
   38.6860   27.4780   40.5110 H   0  0  0  0  0  0  0  0  0  0  0  0
   36.6310   27.4810   40.1560 C   0  0  0  0  0  0  0  0  0  0  0  0
   35.9460   27.6070   39.3410 H   0  0  0  0  0  0  0  0  0  0  0  0
   36.0790   27.9000   41.0500 H   0  0  0  0  0  0  0  0  0  0  0  0
   36.9410   26.1050   40.5810 C   0  0  0  0  0  0  0  0  0  0  0  0
   36.5430   25.0040   39.8600 C   0  0  0  0  0  0  0  0  0  0  0  0
   36.8690   23.7200   40.3050 C   0  0  0  0  0  0  0  0  0  0  0  0
   37.5830   23.6330   41.4590 N   0  0  0  0  0  0  0  0  0  0  0  0
   37.9560   24.7160   42.1370 C   0  0  0  0  0  0  0  0  0  0  0  0
   37.6300   25.9260   41.6880 N   0  0  0  0  0  0  0  0  0  0  0  0
   35.9810   25.1260   38.9550 H   0  0  0  0  0  0  0  0  0  0  0  0
   36.5680   22.8220   39.7550 H   0  0  0  0  0  0  0  0  0  0  0  0
   38.5320   24.6570   43.0690 H   0  0  0  0  0  0  0  0  0  0  0  0
  1  2  1  0  0  0  0
  2  7  1  0  0  0  0
  2  8  1  0  0  0  0
  2  3  1  0  0  0  0
  3  9  1  0  0  0  0
  4 12  1  0  0  0  0
  4  3  1  0  0  0  0
  4 11  1  0  0  0  0
  5  4  1  0  0  0  0
  6  1  1  0  0  0  0
  6  5  2  0  0  0  0
 10  3  1  0  0  0  0
 13  5  1  0  0  0  0
 14  6  1  0  0  0  0
 15 16  1  0  0  0  0
 15 14  2  0  0  0  0
 17 19  1  0  0  0  0
 17 15  1  0  0  0  0
 18 17  1  0  0  0  0
 19 21  2  0  0  0  0
 20 19  1  0  0  0  0
 21 14  1  0  0  0  0
 22 25  1  0  0  0  0
 22 24  1  0  0  0  0
 22  1  1  0  0  0  0
 23 22  1  0  0  0  0
 25 28  1  0  0  0  0
 25 27  1  0  0  0  0
 26 25  1  0  0  0  0
 28 33  1  0  0  0  0
 29 30  1  0  0  0  0
 29 28  2  0  0  0  0
 30 31  2  0  0  0  0
 31 32  1  0  0  0  0
 32 36  1  0  0  0  0
 33 32  2  0  0  0  0
 34 29  1  0  0  0  0
 35 30  1  0  0  0  0
M  END
>  <minimizedAffinity>
-4.5878191

$$$$
