
 OpenBabel03252509203D

 24 26  0  0  0  0  0  0  0  0999 V2000
   44.9870   34.2730   44.9530 C   0  0  0  0  0  0  0  0  0  0  0  0
   45.4580   33.9300   43.6770 C   0  0  0  0  0  0  0  0  0  0  0  0
   46.5920   33.1450   43.6690 C   0  0  0  0  0  0  0  0  0  0  0  0
   47.1750   32.7620   44.8620 N   0  0  0  0  0  0  0  0  0  0  0  0
   46.6840   33.1190   46.0580 C   0  0  0  0  0  0  0  0  0  0  0  0
   45.5840   33.8780   46.0730 N   0  0  0  0  0  0  0  0  0  0  0  0
   44.1060   34.8840   45.1440 H   0  0  0  0  0  0  0  0  0  0  0  0
   47.2790   32.7210   46.8510 H   0  0  0  0  0  0  0  0  0  0  0  0
   47.1100   32.5950   42.3570 C   0  0  0  0  0  0  0  0  0  0  0  0
   48.2240   33.4950   41.8190 C   0  0  0  0  0  0  0  0  0  0  0  0
   48.4520   32.0480   42.3330 C   0  0  0  0  0  0  0  0  0  0  0  0
   46.3340   32.5340   41.5660 H   0  0  0  0  0  0  0  0  0  0  0  0
   48.6940   34.2430   42.4850 H   0  0  0  0  0  0  0  0  0  0  0  0
   48.3190   33.6660   40.7520 H   0  0  0  0  0  0  0  0  0  0  0  0
   48.6570   31.3230   41.4950 H   0  0  0  0  0  0  0  0  0  0  0  0
   49.0160   31.9050   43.2570 H   0  0  0  0  0  0  0  0  0  0  0  0
   44.7190   34.4380   42.5450 C   0  0  0  0  0  0  0  0  0  0  0  0
   44.6420   35.5960   41.8440 C   0  0  0  0  0  0  0  0  0  0  0  0
   45.2000   36.4780   41.9950 H   0  0  0  0  0  0  0  0  0  0  0  0
   43.7110   35.5550   40.8860 N   0  0  0  0  0  0  0  0  0  0  0  0
   43.4340   36.2850   40.2000 H   0  0  0  0  0  0  0  0  0  0  0  0
   43.1580   34.3440   40.9550 C   0  0  0  0  0  0  0  0  0  0  0  0
   42.3680   33.8900   40.3700 H   0  0  0  0  0  0  0  0  0  0  0  0
   43.7680   33.7000   41.9430 N   0  0  0  0  0  0  0  0  0  0  0  0
  1  7  1  0  0  0  0
  1  6  1  0  0  0  0
  2  1  2  0  0  0  0
  3  2  1  0  0  0  0
  3  4  2  0  0  0  0
  4  5  1  0  0  0  0
  5  6  2  0  0  0  0
  5  8  1  0  0  0  0
  9  3  1  0  0  0  0
 10 11  1  0  0  0  0
 10  9  1  0  0  0  0
 10 13  1  0  0  0  0
 11  9  1  0  0  0  0
 11 16  1  0  0  0  0
 12  9  1  0  0  0  0
 14 10  1  0  0  0  0
 15 11  1  0  0  0  0
 17  2  1  0  0  0  0
 18 19  1  0  0  0  0
 18 17  2  0  0  0  0
 20 22  1  0  0  0  0
 20 18  1  0  0  0  0
 21 20  1  0  0  0  0
 22 24  2  0  0  0  0
 23 22  1  0  0  0  0
 24 17  1  0  0  0  0
M  END
>  <minimizedAffinity>
-3.23151088

>  <minimizedRMSD>
2.40472937

$$$$
