
 OpenBabel03242515063D

 38 40  0  0  0  0  0  0  0  0999 V2000
   38.5920   31.2410   38.7860 C   0  0  0  0  0  0  0  0  0  0  0  0
   39.7220   30.9090   38.0470 C   0  0  0  0  0  0  0  0  0  0  0  0
   40.8070   31.8020   38.0200 C   0  0  0  0  0  0  0  0  0  0  0  0
   40.6770   32.9450   38.7250 N   0  0  0  0  0  0  0  0  0  0  0  0
   39.5790   33.2550   39.4350 C   0  0  0  0  0  0  0  0  0  0  0  0
   38.5580   32.3970   39.4510 N   0  0  0  0  0  0  0  0  0  0  0  0
   39.8190   30.0020   37.4900 H   0  0  0  0  0  0  0  0  0  0  0  0
   42.0100   31.4940   37.2590 C   0  0  0  0  0  0  0  0  0  0  0  0
   43.1310   32.2890   37.2170 C   0  0  0  0  0  0  0  0  0  0  0  0
   43.3660   33.2290   37.6850 H   0  0  0  0  0  0  0  0  0  0  0  0
   43.9680   31.6100   36.4020 N   0  0  0  0  0  0  0  0  0  0  0  0
   44.9430   31.9580   36.1530 H   0  0  0  0  0  0  0  0  0  0  0  0
   43.4260   30.4450   35.9410 C   0  0  0  0  0  0  0  0  0  0  0  0
   43.9760   29.7850   35.2730 H   0  0  0  0  0  0  0  0  0  0  0  0
   42.1960   30.4020   36.4980 N   0  0  0  0  0  0  0  0  0  0  0  0
   39.5650   34.5130   40.1530 C   0  0  0  0  0  0  0  0  0  0  0  0
   40.2510   35.4610   39.6960 O   0  0  0  0  0  0  0  0  0  0  0  0
   38.7570   34.5750   41.3420 N   0  0  0  0  0  0  0  0  0  0  0  0
   38.0330   35.3230   41.2780 H   0  0  0  0  0  0  0  0  0  0  0  0
   38.8640   33.9620   42.1770 H   0  0  0  0  0  0  0  0  0  0  0  0
   37.2580   30.0560   38.7630 S   0  0  0  0  0  0  0  0  0  0  0  0
   36.0870   30.2980   40.1170 C   0  0  0  0  0  0  0  0  0  0  0  0
   35.2380   30.8730   39.6960 H   0  0  0  0  0  0  0  0  0  0  0  0
   36.6270   30.8850   40.9090 H   0  0  0  0  0  0  0  0  0  0  0  0
   35.5960   29.0360   40.7280 C   0  0  0  0  0  0  0  0  0  0  0  0
   35.1920   28.3170   39.9820 H   0  0  0  0  0  0  0  0  0  0  0  0
   34.7240   29.3010   41.3700 H   0  0  0  0  0  0  0  0  0  0  0  0
   36.4760   26.2620   39.8500 Cl  0  0  0  0  0  0  0  0  0  0  0  0
   37.1160   27.1040   41.2160 C   0  0  0  0  0  0  0  0  0  0  0  0
   36.6420   28.3700   41.5290 C   0  0  0  0  0  0  0  0  0  0  0  0
   37.2040   28.9790   42.6370 C   0  0  0  0  0  0  0  0  0  0  0  0
   38.1910   28.4450   43.4610 C   0  0  0  0  0  0  0  0  0  0  0  0
   38.6400   27.1850   43.1210 C   0  0  0  0  0  0  0  0  0  0  0  0
   39.8850   26.4190   44.0940 Cl  0  0  0  0  0  0  0  0  0  0  0  0
   38.1130   26.5400   42.0300 C   0  0  0  0  0  0  0  0  0  0  0  0
   36.8420   29.9710   42.8970 H   0  0  0  0  0  0  0  0  0  0  0  0
   38.5590   29.0050   44.3010 H   0  0  0  0  0  0  0  0  0  0  0  0
   38.4570   25.5470   41.7500 H   0  0  0  0  0  0  0  0  0  0  0  0
  1  6  1  0  0  0  0
  2  1  2  0  0  0  0
  3  2  1  0  0  0  0
  3  4  2  0  0  0  0
  4  5  1  0  0  0  0
  5  6  2  0  0  0  0
  5 16  1  0  0  0  0
  7  2  1  0  0  0  0
  8  3  1  0  0  0  0
  9  8  2  0  0  0  0
  9 10  1  0  0  0  0
 11  9  1  0  0  0  0
 12 11  1  0  0  0  0
 13 11  1  0  0  0  0
 13 15  2  0  0  0  0
 14 13  1  0  0  0  0
 15  8  1  0  0  0  0
 16 18  1  0  0  0  0
 17 16  2  0  0  0  0
 18 20  1  0  0  0  0
 19 18  1  0  0  0  0
 21  1  1  0  0  0  0
 21 22  1  0  0  0  0
 22 25  1  0  0  0  0
 22 24  1  0  0  0  0
 23 22  1  0  0  0  0
 25 27  1  0  0  0  0
 25 30  1  0  0  0  0
 26 25  1  0  0  0  0
 28 29  1  0  0  0  0
 29 30  2  0  0  0  0
 29 35  1  0  0  0  0
 30 31  1  0  0  0  0
 31 36  1  0  0  0  0
 31 32  2  0  0  0  0
 32 37  1  0  0  0  0
 33 32  1  0  0  0  0
 33 34  1  0  0  0  0
 35 33  2  0  0  0  0
 38 35  1  0  0  0  0
M  END
>  <minimizedAffinity>
-6.2967782

$$$$

 OpenBabel03242515063D

 38 40  0  0  0  0  0  0  0  0999 V2000
   42.8190   32.0590   40.9850 C   0  0  0  0  0  0  0  0  0  0  0  0
   41.4300   32.1020   41.0480 C   0  0  0  0  0  0  0  0  0  0  0  0
   40.7220   32.7850   40.0440 C   0  0  0  0  0  0  0  0  0  0  0  0
   41.4500   33.3640   39.0670 N   0  0  0  0  0  0  0  0  0  0  0  0
   42.7930   33.3150   39.0180 C   0  0  0  0  0  0  0  0  0  0  0  0
   43.4500   32.6630   39.9780 N   0  0  0  0  0  0  0  0  0  0  0  0
   40.8590   31.6420   41.8250 H   0  0  0  0  0  0  0  0  0  0  0  0
   39.2670   32.8560   40.0710 C   0  0  0  0  0  0  0  0  0  0  0  0
   38.5440   34.0240   40.0830 C   0  0  0  0  0  0  0  0  0  0  0  0
   38.8440   35.0580   40.0770 H   0  0  0  0  0  0  0  0  0  0  0  0
   37.2610   33.6000   40.1060 N   0  0  0  0  0  0  0  0  0  0  0  0
   36.4310   34.2670   40.1220 H   0  0  0  0  0  0  0  0  0  0  0  0
   37.1560   32.2390   40.1080 C   0  0  0  0  0  0  0  0  0  0  0  0
   36.1880   31.7420   40.1260 H   0  0  0  0  0  0  0  0  0  0  0  0
   38.4330   31.8020   40.0860 N   0  0  0  0  0  0  0  0  0  0  0  0
   43.4580   33.9750   37.9130 C   0  0  0  0  0  0  0  0  0  0  0  0
   44.7060   34.1100   37.9710 O   0  0  0  0  0  0  0  0  0  0  0  0
   42.6270   34.4260   36.8290 N   0  0  0  0  0  0  0  0  0  0  0  0
   42.9090   33.9960   35.9220 H   0  0  0  0  0  0  0  0  0  0  0  0
   41.8370   35.1000   36.9130 H   0  0  0  0  0  0  0  0  0  0  0  0
   43.6400   31.1770   42.3010 S   0  0  0  0  0  0  0  0  0  0  0  0
   42.5010   30.1860   43.2930 C   0  0  0  0  0  0  0  0  0  0  0  0
   41.5770   30.7890   43.4020 H   0  0  0  0  0  0  0  0  0  0  0  0
   43.0000   30.0170   44.2850 H   0  0  0  0  0  0  0  0  0  0  0  0
   42.1780   28.8610   42.7030 C   0  0  0  0  0  0  0  0  0  0  0  0
   42.8500   28.0490   43.0550 H   0  0  0  0  0  0  0  0  0  0  0  0
   42.3690   28.9360   41.6070 H   0  0  0  0  0  0  0  0  0  0  0  0
   41.6870   26.1870   44.0630 Cl  0  0  0  0  0  0  0  0  0  0  0  0
   40.4400   27.2770   43.5700 C   0  0  0  0  0  0  0  0  0  0  0  0
   40.7750   28.4740   42.9550 C   0  0  0  0  0  0  0  0  0  0  0  0
   39.7210   29.2920   42.5890 C   0  0  0  0  0  0  0  0  0  0  0  0
   38.3680   29.0290   42.7770 C   0  0  0  0  0  0  0  0  0  0  0  0
   38.0700   27.8280   43.3910 C   0  0  0  0  0  0  0  0  0  0  0  0
   36.3910   27.3970   43.6780 Cl  0  0  0  0  0  0  0  0  0  0  0  0
   39.0810   26.9840   43.7730 C   0  0  0  0  0  0  0  0  0  0  0  0
   39.9670   30.2350   42.1060 H   0  0  0  0  0  0  0  0  0  0  0  0
   37.6260   29.7350   42.4540 H   0  0  0  0  0  0  0  0  0  0  0  0
   38.8610   26.0350   44.2580 H   0  0  0  0  0  0  0  0  0  0  0  0
  1  2  1  0  0  0  0
  1 21  1  0  0  0  0
  2  7  1  0  0  0  0
  3  8  1  0  0  0  0
  3  2  2  0  0  0  0
  4  3  1  0  0  0  0
  5  4  2  0  0  0  0
  5  6  1  0  0  0  0
  6  1  2  0  0  0  0
  8  9  2  0  0  0  0
  8 15  1  0  0  0  0
  9 11  1  0  0  0  0
 10  9  1  0  0  0  0
 11 13  1  0  0  0  0
 11 12  1  0  0  0  0
 13 14  1  0  0  0  0
 15 13  2  0  0  0  0
 16 17  2  0  0  0  0
 16  5  1  0  0  0  0
 18 20  1  0  0  0  0
 18 16  1  0  0  0  0
 19 18  1  0  0  0  0
 21 22  1  0  0  0  0
 22 23  1  0  0  0  0
 22 24  1  0  0  0  0
 25 30  1  0  0  0  0
 25 26  1  0  0  0  0
 25 22  1  0  0  0  0
 27 25  1  0  0  0  0
 29 35  1  0  0  0  0
 29 28  1  0  0  0  0
 30 29  2  0  0  0  0
 31 32  2  0  0  0  0
 31 30  1  0  0  0  0
 32 33  1  0  0  0  0
 33 34  1  0  0  0  0
 33 35  2  0  0  0  0
 35 38  1  0  0  0  0
 36 31  1  0  0  0  0
 37 32  1  0  0  0  0
M  END
>  <minimizedAffinity>
-6.29366589

$$$$

 OpenBabel03242515063D

 38 40  0  0  0  0  0  0  0  0999 V2000
   39.0690   30.6410   40.4710 C   0  0  0  0  0  0  0  0  0  0  0  0
   40.0330   31.5390   40.0280 C   0  0  0  0  0  0  0  0  0  0  0  0
   39.9710   32.0110   38.7060 C   0  0  0  0  0  0  0  0  0  0  0  0
   38.9610   31.5520   37.9380 N   0  0  0  0  0  0  0  0  0  0  0  0
   38.0340   30.6830   38.3780 C   0  0  0  0  0  0  0  0  0  0  0  0
   38.1070   30.2450   39.6360 N   0  0  0  0  0  0  0  0  0  0  0  0
   40.8310   31.8990   40.6410 H   0  0  0  0  0  0  0  0  0  0  0  0
   40.9610   32.9520   38.2000 C   0  0  0  0  0  0  0  0  0  0  0  0
   41.6830   32.7780   37.0430 C   0  0  0  0  0  0  0  0  0  0  0  0
   41.6910   31.9910   36.3100 H   0  0  0  0  0  0  0  0  0  0  0  0
   42.4570   33.8850   36.9860 N   0  0  0  0  0  0  0  0  0  0  0  0
   43.1490   34.0670   36.1970 H   0  0  0  0  0  0  0  0  0  0  0  0
   42.2520   34.7270   38.0400 C   0  0  0  0  0  0  0  0  0  0  0  0
   42.8000   35.6620   38.1390 H   0  0  0  0  0  0  0  0  0  0  0  0
   41.3070   34.1120   38.7840 N   0  0  0  0  0  0  0  0  0  0  0  0
   36.9970   30.2680   37.4560 C   0  0  0  0  0  0  0  0  0  0  0  0
   35.8850   29.9290   37.9320 O   0  0  0  0  0  0  0  0  0  0  0  0
   37.3280   30.2810   36.0560 N   0  0  0  0  0  0  0  0  0  0  0  0
   36.6900   30.9030   35.5140 H   0  0  0  0  0  0  0  0  0  0  0  0
   38.1040   29.7440   35.6140 H   0  0  0  0  0  0  0  0  0  0  0  0
   39.2230   30.0880   42.1610 S   0  0  0  0  0  0  0  0  0  0  0  0
   37.7130   29.3120   42.7800 C   0  0  0  0  0  0  0  0  0  0  0  0
   37.1630   28.9460   41.8900 H   0  0  0  0  0  0  0  0  0  0  0  0
   37.1380   30.1130   43.3180 H   0  0  0  0  0  0  0  0  0  0  0  0
   37.9520   28.1930   43.7280 C   0  0  0  0  0  0  0  0  0  0  0  0
   37.1650   28.1030   44.5080 H   0  0  0  0  0  0  0  0  0  0  0  0
   38.8850   28.4330   44.2900 H   0  0  0  0  0  0  0  0  0  0  0  0
   40.5690   26.6880   44.0800 Cl  0  0  0  0  0  0  0  0  0  0  0  0
   39.2440   26.1330   43.1200 C   0  0  0  0  0  0  0  0  0  0  0  0
   38.0920   26.9010   43.0280 C   0  0  0  0  0  0  0  0  0  0  0  0
   37.0750   26.3880   42.2410 C   0  0  0  0  0  0  0  0  0  0  0  0
   37.1000   25.1870   41.5390 C   0  0  0  0  0  0  0  0  0  0  0  0
   38.2610   24.4490   41.6530 C   0  0  0  0  0  0  0  0  0  0  0  0
   38.3970   22.9150   40.8080 Cl  0  0  0  0  0  0  0  0  0  0  0  0
   39.2970   24.9150   42.4220 C   0  0  0  0  0  0  0  0  0  0  0  0
   36.1650   26.9790   42.1580 H   0  0  0  0  0  0  0  0  0  0  0  0
   36.2520   24.8810   40.9540 H   0  0  0  0  0  0  0  0  0  0  0  0
   40.2180   24.3440   42.5220 H   0  0  0  0  0  0  0  0  0  0  0  0
  1 21  1  0  0  0  0
  2  1  1  0  0  0  0
  2  7  1  0  0  0  0
  3  2  2  0  0  0  0
  4  5  2  0  0  0  0
  4  3  1  0  0  0  0
  5  6  1  0  0  0  0
  6  1  2  0  0  0  0
  8  3  1  0  0  0  0
  8 15  1  0  0  0  0
  9  8  2  0  0  0  0
 10  9  1  0  0  0  0
 11  9  1  0  0  0  0
 11 13  1  0  0  0  0
 12 11  1  0  0  0  0
 13 14  1  0  0  0  0
 13 15  2  0  0  0  0
 16 17  2  0  0  0  0
 16  5  1  0  0  0  0
 18 16  1  0  0  0  0
 19 18  1  0  0  0  0
 20 18  1  0  0  0  0
 21 22  1  0  0  0  0
 22 24  1  0  0  0  0
 22 25  1  0  0  0  0
 23 22  1  0  0  0  0
 25 27  1  0  0  0  0
 25 26  1  0  0  0  0
 29 28  1  0  0  0  0
 30 29  1  0  0  0  0
 30 25  1  0  0  0  0
 31 30  2  0  0  0  0
 32 33  2  0  0  0  0
 32 31  1  0  0  0  0
 33 35  1  0  0  0  0
 34 33  1  0  0  0  0
 35 38  1  0  0  0  0
 35 29  2  0  0  0  0
 36 31  1  0  0  0  0
 37 32  1  0  0  0  0
M  END
>  <minimizedAffinity>
-6.13001633

$$$$

 OpenBabel03242515063D

 38 40  0  0  0  0  0  0  0  0999 V2000
   39.4410   30.9790   41.3230 C   0  0  0  0  0  0  0  0  0  0  0  0
   40.2160   30.5050   40.2700 C   0  0  0  0  0  0  0  0  0  0  0  0
   40.3390   31.2850   39.1080 C   0  0  0  0  0  0  0  0  0  0  0  0
   39.6850   32.4650   39.0890 N   0  0  0  0  0  0  0  0  0  0  0  0
   38.9380   32.9120   40.1130 C   0  0  0  0  0  0  0  0  0  0  0  0
   38.8310   32.1600   41.2100 N   0  0  0  0  0  0  0  0  0  0  0  0
   40.7320   29.5690   40.2910 H   0  0  0  0  0  0  0  0  0  0  0  0
   41.1410   30.8270   37.9810 C   0  0  0  0  0  0  0  0  0  0  0  0
   40.9920   29.6090   37.3620 C   0  0  0  0  0  0  0  0  0  0  0  0
   40.3210   28.7870   37.5400 H   0  0  0  0  0  0  0  0  0  0  0  0
   41.9340   29.6310   36.3930 N   0  0  0  0  0  0  0  0  0  0  0  0
   42.0890   28.8220   35.7180 H   0  0  0  0  0  0  0  0  0  0  0  0
   42.6510   30.7910   36.3810 C   0  0  0  0  0  0  0  0  0  0  0  0
   43.4480   30.9630   35.6590 H   0  0  0  0  0  0  0  0  0  0  0  0
   42.1290   31.5210   37.3900 N   0  0  0  0  0  0  0  0  0  0  0  0
   38.2880   34.1980   39.9710 C   0  0  0  0  0  0  0  0  0  0  0  0
   38.9180   35.2220   40.3350 O   0  0  0  0  0  0  0  0  0  0  0  0
   36.9600   34.1980   39.4160 N   0  0  0  0  0  0  0  0  0  0  0  0
   36.9030   34.7770   38.5500 H   0  0  0  0  0  0  0  0  0  0  0  0
   36.1400   33.6920   39.8120 H   0  0  0  0  0  0  0  0  0  0  0  0
   39.3320   29.9260   42.7590 S   0  0  0  0  0  0  0  0  0  0  0  0
   37.7350   29.0920   42.8930 C   0  0  0  0  0  0  0  0  0  0  0  0
   37.4510   28.7950   41.8630 H   0  0  0  0  0  0  0  0  0  0  0  0
   37.0150   29.8430   43.3170 H   0  0  0  0  0  0  0  0  0  0  0  0
   37.7450   27.9020   43.7820 C   0  0  0  0  0  0  0  0  0  0  0  0
   36.8260   27.8090   44.4010 H   0  0  0  0  0  0  0  0  0  0  0  0
   38.5700   28.0500   44.5170 H   0  0  0  0  0  0  0  0  0  0  0  0
   40.4570   26.5510   44.0180 Cl  0  0  0  0  0  0  0  0  0  0  0  0
   39.1470   25.9540   43.0600 C   0  0  0  0  0  0  0  0  0  0  0  0
   37.9490   26.6520   43.0240 C   0  0  0  0  0  0  0  0  0  0  0  0
   36.9480   26.1100   42.2350 C   0  0  0  0  0  0  0  0  0  0  0  0
   37.0320   24.9440   41.4810 C   0  0  0  0  0  0  0  0  0  0  0  0
   38.2390   24.2750   41.5410 C   0  0  0  0  0  0  0  0  0  0  0  0
   38.4510   22.7900   40.6270 Cl  0  0  0  0  0  0  0  0  0  0  0  0
   39.2610   24.7730   42.3090 C   0  0  0  0  0  0  0  0  0  0  0  0
   36.0020   26.6450   42.1950 H   0  0  0  0  0  0  0  0  0  0  0  0
   36.1920   24.6100   40.9000 H   0  0  0  0  0  0  0  0  0  0  0  0
   40.2170   24.2570   42.3660 H   0  0  0  0  0  0  0  0  0  0  0  0
  1 21  1  0  0  0  0
  2  7  1  0  0  0  0
  2  1  2  0  0  0  0
  3  2  1  0  0  0  0
  4  3  2  0  0  0  0
  4  5  1  0  0  0  0
  5  6  2  0  0  0  0
  6  1  1  0  0  0  0
  8  3  1  0  0  0  0
  9 10  1  0  0  0  0
  9  8  2  0  0  0  0
 11  9  1  0  0  0  0
 12 11  1  0  0  0  0
 13 11  1  0  0  0  0
 13 15  2  0  0  0  0
 14 13  1  0  0  0  0
 15  8  1  0  0  0  0
 16  5  1  0  0  0  0
 16 17  2  0  0  0  0
 18 20  1  0  0  0  0
 18 16  1  0  0  0  0
 19 18  1  0  0  0  0
 21 22  1  0  0  0  0
 22 24  1  0  0  0  0
 22 25  1  0  0  0  0
 23 22  1  0  0  0  0
 25 26  1  0  0  0  0
 25 27  1  0  0  0  0
 29 28  1  0  0  0  0
 30 29  1  0  0  0  0
 30 25  1  0  0  0  0
 31 30  2  0  0  0  0
 32 33  2  0  0  0  0
 32 31  1  0  0  0  0
 33 35  1  0  0  0  0
 34 33  1  0  0  0  0
 35 38  1  0  0  0  0
 35 29  2  0  0  0  0
 36 31  1  0  0  0  0
 37 32  1  0  0  0  0
M  END
>  <minimizedAffinity>
-6.10561275

$$$$

 OpenBabel03242515063D

 38 40  0  0  0  0  0  0  0  0999 V2000
   40.1690   30.6020   41.5230 C   0  0  0  0  0  0  0  0  0  0  0  0
   40.9400   31.3750   40.6610 C   0  0  0  0  0  0  0  0  0  0  0  0
   40.3140   32.0260   39.5850 C   0  0  0  0  0  0  0  0  0  0  0  0
   38.9820   31.8550   39.4550 N   0  0  0  0  0  0  0  0  0  0  0  0
   38.2480   31.1050   40.2960 C   0  0  0  0  0  0  0  0  0  0  0  0
   38.8570   30.4930   41.3130 N   0  0  0  0  0  0  0  0  0  0  0  0
   41.9950   31.5070   40.7690 H   0  0  0  0  0  0  0  0  0  0  0  0
   41.0830   32.8450   38.6570 C   0  0  0  0  0  0  0  0  0  0  0  0
   41.3280   32.5170   37.3450 C   0  0  0  0  0  0  0  0  0  0  0  0
   41.0430   31.6670   36.7490 H   0  0  0  0  0  0  0  0  0  0  0  0
   42.0640   33.5560   36.8920 N   0  0  0  0  0  0  0  0  0  0  0  0
   42.4270   33.6160   35.8940 H   0  0  0  0  0  0  0  0  0  0  0  0
   42.2840   34.5030   37.8500 C   0  0  0  0  0  0  0  0  0  0  0  0
   42.8610   35.4020   37.6420 H   0  0  0  0  0  0  0  0  0  0  0  0
   41.6550   34.0260   38.9460 N   0  0  0  0  0  0  0  0  0  0  0  0
   36.8240   31.0030   40.0500 C   0  0  0  0  0  0  0  0  0  0  0  0
   36.4380   30.8580   38.8630 O   0  0  0  0  0  0  0  0  0  0  0  0
   35.9590   31.0750   41.1980 N   0  0  0  0  0  0  0  0  0  0  0  0
   35.3690   30.2200   41.2910 H   0  0  0  0  0  0  0  0  0  0  0  0
   35.9090   31.8720   41.8670 H   0  0  0  0  0  0  0  0  0  0  0  0
   41.0420   29.8060   42.8610 S   0  0  0  0  0  0  0  0  0  0  0  0
   41.1830   28.0190   42.6350 C   0  0  0  0  0  0  0  0  0  0  0  0
   42.2620   27.7780   42.7200 H   0  0  0  0  0  0  0  0  0  0  0  0
   40.7910   27.7930   41.6070 H   0  0  0  0  0  0  0  0  0  0  0  0
   40.4030   27.2200   43.6160 C   0  0  0  0  0  0  0  0  0  0  0  0
   39.9530   27.8370   44.4240 H   0  0  0  0  0  0  0  0  0  0  0  0
   41.1250   26.5490   44.1380 H   0  0  0  0  0  0  0  0  0  0  0  0
   37.5630   28.2930   43.7590 Cl  0  0  0  0  0  0  0  0  0  0  0  0
   38.0150   26.8250   42.9660 C   0  0  0  0  0  0  0  0  0  0  0  0
   39.3440   26.4270   42.9610 C   0  0  0  0  0  0  0  0  0  0  0  0
   39.6270   25.2410   42.3060 C   0  0  0  0  0  0  0  0  0  0  0  0
   38.7110   24.4180   41.6580 C   0  0  0  0  0  0  0  0  0  0  0  0
   37.3980   24.8440   41.6830 C   0  0  0  0  0  0  0  0  0  0  0  0
   36.1600   23.8780   40.8940 Cl  0  0  0  0  0  0  0  0  0  0  0  0
   37.0680   26.0130   42.3200 C   0  0  0  0  0  0  0  0  0  0  0  0
   40.6640   24.9150   42.2930 H   0  0  0  0  0  0  0  0  0  0  0  0
   39.0370   23.5140   41.1780 H   0  0  0  0  0  0  0  0  0  0  0  0
   36.0380   26.3620   42.3480 H   0  0  0  0  0  0  0  0  0  0  0  0
  1 21  1  0  0  0  0
  2  7  1  0  0  0  0
  2  1  2  0  0  0  0
  3  2  1  0  0  0  0
  4  3  2  0  0  0  0
  4  5  1  0  0  0  0
  5  6  2  0  0  0  0
  6  1  1  0  0  0  0
  8 15  1  0  0  0  0
  8  3  1  0  0  0  0
  9  8  2  0  0  0  0
 10  9  1  0  0  0  0
 11  9  1  0  0  0  0
 11 13  1  0  0  0  0
 12 11  1  0  0  0  0
 13 15  2  0  0  0  0
 14 13  1  0  0  0  0
 16  5  1  0  0  0  0
 16 18  1  0  0  0  0
 17 16  2  0  0  0  0
 18 19  1  0  0  0  0
 18 20  1  0  0  0  0
 22 23  1  0  0  0  0
 22 21  1  0  0  0  0
 22 25  1  0  0  0  0
 24 22  1  0  0  0  0
 25 27  1  0  0  0  0
 25 26  1  0  0  0  0
 29 28  1  0  0  0  0
 30 29  1  0  0  0  0
 30 25  1  0  0  0  0
 31 30  2  0  0  0  0
 32 33  2  0  0  0  0
 32 31  1  0  0  0  0
 33 35  1  0  0  0  0
 34 33  1  0  0  0  0
 35 38  1  0  0  0  0
 35 29  2  0  0  0  0
 36 31  1  0  0  0  0
 37 32  1  0  0  0  0
M  END
>  <minimizedAffinity>
-6.07126522

$$$$

 OpenBabel03242515063D

 38 40  0  0  0  0  0  0  0  0999 V2000
   39.2510   30.1650   38.0210 C   0  0  0  0  0  0  0  0  0  0  0  0
   38.9650   31.2410   38.8550 C   0  0  0  0  0  0  0  0  0  0  0  0
   39.8910   32.2920   38.9570 C   0  0  0  0  0  0  0  0  0  0  0  0
   41.0200   32.1880   38.2240 N   0  0  0  0  0  0  0  0  0  0  0  0
   41.2850   31.1420   37.4210 C   0  0  0  0  0  0  0  0  0  0  0  0
   40.3960   30.1520   37.3360 N   0  0  0  0  0  0  0  0  0  0  0  0
   38.0690   31.3180   39.4330 H   0  0  0  0  0  0  0  0  0  0  0  0
   39.6320   33.4380   39.8190 C   0  0  0  0  0  0  0  0  0  0  0  0
   38.7770   33.4260   40.8950 C   0  0  0  0  0  0  0  0  0  0  0  0
   38.1600   32.6520   41.3170 H   0  0  0  0  0  0  0  0  0  0  0  0
   38.8610   34.6860   41.3770 N   0  0  0  0  0  0  0  0  0  0  0  0
   38.3110   35.0180   42.2270 H   0  0  0  0  0  0  0  0  0  0  0  0
   39.7160   35.4690   40.6590 C   0  0  0  0  0  0  0  0  0  0  0  0
   39.8930   36.5110   40.9210 H   0  0  0  0  0  0  0  0  0  0  0  0
   40.1840   34.6560   39.6870 N   0  0  0  0  0  0  0  0  0  0  0  0
   42.5320   31.1500   36.6840 C   0  0  0  0  0  0  0  0  0  0  0  0
   42.7720   30.1830   35.9190 O   0  0  0  0  0  0  0  0  0  0  0  0
   43.4020   32.2780   36.8890 N   0  0  0  0  0  0  0  0  0  0  0  0
   43.5970   32.7820   35.9970 H   0  0  0  0  0  0  0  0  0  0  0  0
   43.8010   32.5740   37.8040 H   0  0  0  0  0  0  0  0  0  0  0  0
   38.0260   28.8710   37.9540 S   0  0  0  0  0  0  0  0  0  0  0  0
   36.3420   29.4940   38.1510 C   0  0  0  0  0  0  0  0  0  0  0  0
   35.8650   29.4250   37.1530 H   0  0  0  0  0  0  0  0  0  0  0  0
   36.4310   30.5620   38.4910 H   0  0  0  0  0  0  0  0  0  0  0  0
   35.5340   28.7530   39.1550 C   0  0  0  0  0  0  0  0  0  0  0  0
   35.0460   27.8450   38.7400 H   0  0  0  0  0  0  0  0  0  0  0  0
   34.6910   29.4200   39.4530 H   0  0  0  0  0  0  0  0  0  0  0  0
   36.1610   30.9390   41.1700 Cl  0  0  0  0  0  0  0  0  0  0  0  0
   36.6780   29.2970   41.3170 C   0  0  0  0  0  0  0  0  0  0  0  0
   36.3350   28.3770   40.3360 C   0  0  0  0  0  0  0  0  0  0  0  0
   36.7860   27.0830   40.5250 C   0  0  0  0  0  0  0  0  0  0  0  0
   37.5450   26.6210   41.5960 C   0  0  0  0  0  0  0  0  0  0  0  0
   37.8680   27.5620   42.5530 C   0  0  0  0  0  0  0  0  0  0  0  0
   38.8240   27.0840   43.9480 Cl  0  0  0  0  0  0  0  0  0  0  0  0
   37.4440   28.8590   42.4100 C   0  0  0  0  0  0  0  0  0  0  0  0
   36.5260   26.3490   39.7650 H   0  0  0  0  0  0  0  0  0  0  0  0
   37.8450   25.5900   41.6460 H   0  0  0  0  0  0  0  0  0  0  0  0
   37.6910   29.6110   43.1560 H   0  0  0  0  0  0  0  0  0  0  0  0
  1  2  1  0  0  0  0
  2  3  2  0  0  0  0
  2  7  1  0  0  0  0
  3  8  1  0  0  0  0
  4  3  1  0  0  0  0
  5  4  2  0  0  0  0
  6  5  1  0  0  0  0
  6  1  2  0  0  0  0
  8  9  2  0  0  0  0
  9 10  1  0  0  0  0
  9 11  1  0  0  0  0
 11 12  1  0  0  0  0
 13 14  1  0  0  0  0
 13 11  1  0  0  0  0
 15  8  1  0  0  0  0
 15 13  2  0  0  0  0
 16 18  1  0  0  0  0
 16  5  1  0  0  0  0
 17 16  2  0  0  0  0
 18 20  1  0  0  0  0
 19 18  1  0  0  0  0
 21  1  1  0  0  0  0
 21 22  1  0  0  0  0
 22 24  1  0  0  0  0
 22 25  1  0  0  0  0
 23 22  1  0  0  0  0
 25 27  1  0  0  0  0
 25 30  1  0  0  0  0
 26 25  1  0  0  0  0
 28 29  1  0  0  0  0
 29 35  1  0  0  0  0
 30 31  1  0  0  0  0
 30 29  2  0  0  0  0
 31 32  2  0  0  0  0
 32 37  1  0  0  0  0
 32 33  1  0  0  0  0
 33 34  1  0  0  0  0
 35 33  2  0  0  0  0
 35 38  1  0  0  0  0
 36 31  1  0  0  0  0
M  END
>  <minimizedAffinity>
-6.00305557

$$$$

 OpenBabel03242515063D

 38 40  0  0  0  0  0  0  0  0999 V2000
   38.2730   30.5530   40.8390 C   0  0  0  0  0  0  0  0  0  0  0  0
   39.3850   31.1450   41.4280 C   0  0  0  0  0  0  0  0  0  0  0  0
   40.2400   31.9300   40.6360 C   0  0  0  0  0  0  0  0  0  0  0  0
   39.9200   32.0590   39.3310 N   0  0  0  0  0  0  0  0  0  0  0  0
   38.8420   31.4810   38.7740 C   0  0  0  0  0  0  0  0  0  0  0  0
   38.0400   30.7390   39.5390 N   0  0  0  0  0  0  0  0  0  0  0  0
   39.6330   31.0390   42.4620 H   0  0  0  0  0  0  0  0  0  0  0  0
   41.4160   32.5680   41.2110 C   0  0  0  0  0  0  0  0  0  0  0  0
   41.7960   33.8660   40.9680 C   0  0  0  0  0  0  0  0  0  0  0  0
   41.3640   34.6430   40.3600 H   0  0  0  0  0  0  0  0  0  0  0  0
   42.9210   34.0080   41.7040 N   0  0  0  0  0  0  0  0  0  0  0  0
   43.4790   34.9140   41.7390 H   0  0  0  0  0  0  0  0  0  0  0  0
   43.2530   32.8720   42.3830 C   0  0  0  0  0  0  0  0  0  0  0  0
   44.1340   32.8260   43.0200 H   0  0  0  0  0  0  0  0  0  0  0  0
   42.2880   31.9870   42.0520 N   0  0  0  0  0  0  0  0  0  0  0  0
   38.6060   31.7000   37.3620 C   0  0  0  0  0  0  0  0  0  0  0  0
   37.5090   31.3210   36.8800 O   0  0  0  0  0  0  0  0  0  0  0  0
   39.6580   32.3400   36.6180 N   0  0  0  0  0  0  0  0  0  0  0  0
   39.3310   33.2230   36.1680 H   0  0  0  0  0  0  0  0  0  0  0  0
   40.6330   31.9860   36.5240 H   0  0  0  0  0  0  0  0  0  0  0  0
   37.2420   29.5690   41.9130 S   0  0  0  0  0  0  0  0  0  0  0  0
   38.1210   28.9850   43.3790 C   0  0  0  0  0  0  0  0  0  0  0  0
   38.0770   29.8100   44.1190 H   0  0  0  0  0  0  0  0  0  0  0  0
   39.1780   28.7760   43.0600 H   0  0  0  0  0  0  0  0  0  0  0  0
   37.5590   27.7410   43.9690 C   0  0  0  0  0  0  0  0  0  0  0  0
   36.4660   27.8030   44.1600 H   0  0  0  0  0  0  0  0  0  0  0  0
   38.0200   27.6200   44.9770 H   0  0  0  0  0  0  0  0  0  0  0  0
   40.3730   26.5980   44.0630 Cl  0  0  0  0  0  0  0  0  0  0  0  0
   39.0900   25.9590   43.0980 C   0  0  0  0  0  0  0  0  0  0  0  0
   37.8400   26.5600   43.1290 C   0  0  0  0  0  0  0  0  0  0  0  0
   36.8660   25.9900   42.3290 C   0  0  0  0  0  0  0  0  0  0  0  0
   37.0210   24.8820   41.5020 C   0  0  0  0  0  0  0  0  0  0  0  0
   38.2770   24.3090   41.4950 C   0  0  0  0  0  0  0  0  0  0  0  0
   38.5810   22.9040   40.4850 Cl  0  0  0  0  0  0  0  0  0  0  0  0
   39.2760   24.8380   42.2720 C   0  0  0  0  0  0  0  0  0  0  0  0
   35.8800   26.4500   42.3420 H   0  0  0  0  0  0  0  0  0  0  0  0
   36.1950   24.5190   40.9180 H   0  0  0  0  0  0  0  0  0  0  0  0
   40.2710   24.3970   42.2760 H   0  0  0  0  0  0  0  0  0  0  0  0
  1  2  1  0  0  0  0
  1 21  1  0  0  0  0
  2  7  1  0  0  0  0
  3  8  1  0  0  0  0
  3  2  2  0  0  0  0
  4  3  1  0  0  0  0
  5  4  2  0  0  0  0
  5  6  1  0  0  0  0
  6  1  2  0  0  0  0
  8 15  1  0  0  0  0
  9  8  2  0  0  0  0
  9 11  1  0  0  0  0
 10  9  1  0  0  0  0
 11 12  1  0  0  0  0
 11 13  1  0  0  0  0
 13 14  1  0  0  0  0
 15 13  2  0  0  0  0
 16  5  1  0  0  0  0
 17 16  2  0  0  0  0
 18 16  1  0  0  0  0
 19 18  1  0  0  0  0
 20 18  1  0  0  0  0
 21 22  1  0  0  0  0
 22 25  1  0  0  0  0
 22 23  1  0  0  0  0
 24 22  1  0  0  0  0
 25 26  1  0  0  0  0
 25 27  1  0  0  0  0
 29 30  1  0  0  0  0
 29 28  1  0  0  0  0
 30 25  1  0  0  0  0
 31 36  1  0  0  0  0
 31 30  2  0  0  0  0
 32 31  1  0  0  0  0
 33 32  2  0  0  0  0
 33 35  1  0  0  0  0
 34 33  1  0  0  0  0
 35 38  1  0  0  0  0
 35 29  2  0  0  0  0
 37 32  1  0  0  0  0
M  END
>  <minimizedAffinity>
-5.91672373

$$$$

 OpenBabel03242515063D

 38 40  0  0  0  0  0  0  0  0999 V2000
   36.3110   29.5900   39.1340 C   0  0  0  0  0  0  0  0  0  0  0  0
   37.3480   30.4960   39.3300 C   0  0  0  0  0  0  0  0  0  0  0  0
   38.0210   31.0170   38.2120 C   0  0  0  0  0  0  0  0  0  0  0  0
   37.6090   30.5950   36.9980 N   0  0  0  0  0  0  0  0  0  0  0  0
   36.6050   29.7190   36.8210 C   0  0  0  0  0  0  0  0  0  0  0  0
   35.9760   29.2340   37.8930 N   0  0  0  0  0  0  0  0  0  0  0  0
   37.6700   30.8260   40.2940 H   0  0  0  0  0  0  0  0  0  0  0  0
   39.1130   31.9670   38.3710 C   0  0  0  0  0  0  0  0  0  0  0  0
   40.1180   32.1610   37.4540 C   0  0  0  0  0  0  0  0  0  0  0  0
   40.3200   31.7080   36.4990 H   0  0  0  0  0  0  0  0  0  0  0  0
   40.8830   33.1200   38.0220 N   0  0  0  0  0  0  0  0  0  0  0  0
   41.7610   33.5080   37.5630 H   0  0  0  0  0  0  0  0  0  0  0  0
   40.4040   33.5250   39.2350 C   0  0  0  0  0  0  0  0  0  0  0  0
   40.9090   34.2920   39.8200 H   0  0  0  0  0  0  0  0  0  0  0  0
   39.2930   32.7820   39.4250 N   0  0  0  0  0  0  0  0  0  0  0  0
   36.2550   29.3480   35.4660 C   0  0  0  0  0  0  0  0  0  0  0  0
   35.0640   29.5060   35.0980 O   0  0  0  0  0  0  0  0  0  0  0  0
   37.3120   28.8260   34.6400 N   0  0  0  0  0  0  0  0  0  0  0  0
   37.4500   29.4000   33.7810 H   0  0  0  0  0  0  0  0  0  0  0  0
   37.8820   27.9810   34.8530 H   0  0  0  0  0  0  0  0  0  0  0  0
   35.5140   28.9740   40.6060 S   0  0  0  0  0  0  0  0  0  0  0  0
   36.6350   28.8810   42.0200 C   0  0  0  0  0  0  0  0  0  0  0  0
   36.3520   29.7120   42.6970 H   0  0  0  0  0  0  0  0  0  0  0  0
   37.6740   29.0170   41.6160 H   0  0  0  0  0  0  0  0  0  0  0  0
   36.5840   27.5880   42.7510 C   0  0  0  0  0  0  0  0  0  0  0  0
   35.8390   26.8780   42.3330 H   0  0  0  0  0  0  0  0  0  0  0  0
   36.2210   27.8100   43.7820 H   0  0  0  0  0  0  0  0  0  0  0  0
   37.0830   25.2960   40.8180 Cl  0  0  0  0  0  0  0  0  0  0  0  0
   38.2390   25.8790   41.9630 C   0  0  0  0  0  0  0  0  0  0  0  0
   37.9070   26.9330   42.8010 C   0  0  0  0  0  0  0  0  0  0  0  0
   38.8850   27.3420   43.6900 C   0  0  0  0  0  0  0  0  0  0  0  0
   40.1600   26.7990   43.8220 C   0  0  0  0  0  0  0  0  0  0  0  0
   40.4570   25.7510   42.9730 C   0  0  0  0  0  0  0  0  0  0  0  0
   42.0390   24.9930   43.0560 Cl  0  0  0  0  0  0  0  0  0  0  0  0
   39.5190   25.3100   42.0740 C   0  0  0  0  0  0  0  0  0  0  0  0
   38.6400   28.1680   44.3540 H   0  0  0  0  0  0  0  0  0  0  0  0
   40.8460   27.1930   44.5480 H   0  0  0  0  0  0  0  0  0  0  0  0
   39.7390   24.4860   41.3990 H   0  0  0  0  0  0  0  0  0  0  0  0
  1  2  1  0  0  0  0
  1 21  1  0  0  0  0
  2  7  1  0  0  0  0
  3  8  1  0  0  0  0
  3  2  2  0  0  0  0
  4  3  1  0  0  0  0
  5  4  2  0  0  0  0
  5  6  1  0  0  0  0
  6  1  2  0  0  0  0
  8 15  1  0  0  0  0
  9 11  1  0  0  0  0
  9  8  2  0  0  0  0
 10  9  1  0  0  0  0
 11 13  1  0  0  0  0
 12 11  1  0  0  0  0
 13 15  2  0  0  0  0
 13 14  1  0  0  0  0
 16  5  1  0  0  0  0
 17 16  2  0  0  0  0
 18 20  1  0  0  0  0
 18 16  1  0  0  0  0
 19 18  1  0  0  0  0
 21 22  1  0  0  0  0
 22 23  1  0  0  0  0
 22 25  1  0  0  0  0
 24 22  1  0  0  0  0
 25 30  1  0  0  0  0
 25 27  1  0  0  0  0
 26 25  1  0  0  0  0
 28 29  1  0  0  0  0
 29 35  2  0  0  0  0
 29 30  1  0  0  0  0
 30 31  2  0  0  0  0
 31 32  1  0  0  0  0
 31 36  1  0  0  0  0
 32 37  1  0  0  0  0
 33 34  1  0  0  0  0
 33 32  2  0  0  0  0
 35 33  1  0  0  0  0
 38 35  1  0  0  0  0
M  END
>  <minimizedAffinity>
-5.86655617

$$$$

 OpenBabel03242515063D

 38 40  0  0  0  0  0  0  0  0999 V2000
   37.7230   29.8900   40.4180 C   0  0  0  0  0  0  0  0  0  0  0  0
   38.7680   30.2030   41.2810 C   0  0  0  0  0  0  0  0  0  0  0  0
   39.7990   31.0430   40.8280 C   0  0  0  0  0  0  0  0  0  0  0  0
   39.7070   31.4990   39.5610 N   0  0  0  0  0  0  0  0  0  0  0  0
   38.6910   31.1890   38.7370 C   0  0  0  0  0  0  0  0  0  0  0  0
   37.7190   30.3910   39.1820 N   0  0  0  0  0  0  0  0  0  0  0  0
   38.8360   29.8380   42.2830 H   0  0  0  0  0  0  0  0  0  0  0  0
   40.9130   31.3950   41.6980 C   0  0  0  0  0  0  0  0  0  0  0  0
   41.7100   32.5030   41.5340 C   0  0  0  0  0  0  0  0  0  0  0  0
   41.7060   33.2930   40.8030 H   0  0  0  0  0  0  0  0  0  0  0  0
   42.5880   32.4140   42.5580 N   0  0  0  0  0  0  0  0  0  0  0  0
   43.3580   33.1300   42.7240 H   0  0  0  0  0  0  0  0  0  0  0  0
   42.3750   31.3160   43.3400 C   0  0  0  0  0  0  0  0  0  0  0  0
   42.9990   31.1020   44.2060 H   0  0  0  0  0  0  0  0  0  0  0  0
   41.3170   30.6980   42.7730 N   0  0  0  0  0  0  0  0  0  0  0  0
   38.7050   31.7470   37.4000 C   0  0  0  0  0  0  0  0  0  0  0  0
   37.6420   31.7080   36.7320 O   0  0  0  0  0  0  0  0  0  0  0  0
   39.9490   32.3070   36.9420 N   0  0  0  0  0  0  0  0  0  0  0  0
   39.8480   33.3120   36.6830 H   0  0  0  0  0  0  0  0  0  0  0  0
   40.8520   31.7930   36.8680 H   0  0  0  0  0  0  0  0  0  0  0  0
   36.4570   28.8150   41.0700 S   0  0  0  0  0  0  0  0  0  0  0  0
   36.8460   28.2030   42.7240 C   0  0  0  0  0  0  0  0  0  0  0  0
   36.0100   28.5220   43.3790 H   0  0  0  0  0  0  0  0  0  0  0  0
   37.8130   28.6880   43.0280 H   0  0  0  0  0  0  0  0  0  0  0  0
   37.0190   26.7290   42.8010 C   0  0  0  0  0  0  0  0  0  0  0  0
   36.5900   26.1910   41.9290 H   0  0  0  0  0  0  0  0  0  0  0  0
   36.4250   26.3750   43.6760 H   0  0  0  0  0  0  0  0  0  0  0  0
   37.8360   23.9550   41.8650 Cl  0  0  0  0  0  0  0  0  0  0  0  0
   38.9170   25.1090   42.5620 C   0  0  0  0  0  0  0  0  0  0  0  0
   38.4380   26.3500   42.9560 C   0  0  0  0  0  0  0  0  0  0  0  0
   39.3650   27.2190   43.5050 C   0  0  0  0  0  0  0  0  0  0  0  0
   40.7200   26.9670   43.6970 C   0  0  0  0  0  0  0  0  0  0  0  0
   41.1620   25.7230   43.2940 C   0  0  0  0  0  0  0  0  0  0  0  0
   42.8560   25.3020   43.4910 Cl  0  0  0  0  0  0  0  0  0  0  0  0
   40.2810   24.8270   42.7440 C   0  0  0  0  0  0  0  0  0  0  0  0
   39.0050   28.1960   43.8190 H   0  0  0  0  0  0  0  0  0  0  0  0
   41.3550   27.7150   44.1340 H   0  0  0  0  0  0  0  0  0  0  0  0
   40.6150   23.8430   42.4210 H   0  0  0  0  0  0  0  0  0  0  0  0
  1 21  1  0  0  0  0
  1  2  1  0  0  0  0
  2  7  1  0  0  0  0
  3  2  2  0  0  0  0
  3  8  1  0  0  0  0
  4  3  1  0  0  0  0
  5  6  1  0  0  0  0
  5  4  2  0  0  0  0
  6  1  2  0  0  0  0
  8 15  1  0  0  0  0
  9  8  2  0  0  0  0
  9 11  1  0  0  0  0
 10  9  1  0  0  0  0
 11 12  1  0  0  0  0
 11 13  1  0  0  0  0
 13 14  1  0  0  0  0
 15 13  2  0  0  0  0
 16  5  1  0  0  0  0
 17 16  2  0  0  0  0
 18 16  1  0  0  0  0
 19 18  1  0  0  0  0
 20 18  1  0  0  0  0
 21 22  1  0  0  0  0
 22 25  1  0  0  0  0
 22 24  1  0  0  0  0
 22 23  1  0  0  0  0
 25 30  1  0  0  0  0
 25 27  1  0  0  0  0
 26 25  1  0  0  0  0
 28 29  1  0  0  0  0
 29 35  2  0  0  0  0
 29 30  1  0  0  0  0
 30 31  2  0  0  0  0
 31 32  1  0  0  0  0
 31 36  1  0  0  0  0
 32 37  1  0  0  0  0
 33 34  1  0  0  0  0
 33 32  2  0  0  0  0
 35 33  1  0  0  0  0
 38 35  1  0  0  0  0
M  END
>  <minimizedAffinity>
-5.8410182

$$$$
