
 OpenBabel03242513133D

 29 31  0  0  0  0  0  0  0  0999 V2000
   44.7850   30.7810   48.1700 Cl  0  0  0  0  0  0  0  0  0  0  0  0
   45.9700   30.6440   46.8670 C   0  0  0  0  0  0  0  0  0  0  0  0
   46.3380   31.7540   46.1760 C   0  0  0  0  0  0  0  0  0  0  0  0
   47.2900   31.6070   45.2010 C   0  0  0  0  0  0  0  0  0  0  0  0
   47.8480   30.3810   44.9340 C   0  0  0  0  0  0  0  0  0  0  0  0
   47.4610   29.2420   45.6510 C   0  0  0  0  0  0  0  0  0  0  0  0
   46.5060   29.4130   46.6240 C   0  0  0  0  0  0  0  0  0  0  0  0
   47.7070   32.3700   44.5770 H   0  0  0  0  0  0  0  0  0  0  0  0
   48.6160   30.2280   44.1570 H   0  0  0  0  0  0  0  0  0  0  0  0
   47.9500   28.3030   45.3800 H   0  0  0  0  0  0  0  0  0  0  0  0
   46.1720   28.1690   47.3100 C   0  0  0  0  0  0  0  0  0  0  0  0
   45.0350   27.6990   47.9210 C   0  0  0  0  0  0  0  0  0  0  0  0
   44.0940   28.2010   48.0200 H   0  0  0  0  0  0  0  0  0  0  0  0
   45.1640   26.4700   48.4360 N   0  0  0  0  0  0  0  0  0  0  0  0
   44.4720   25.8830   48.9450 H   0  0  0  0  0  0  0  0  0  0  0  0
   46.4110   26.1220   48.1590 C   0  0  0  0  0  0  0  0  0  0  0  0
   46.9790   25.2340   48.3650 H   0  0  0  0  0  0  0  0  0  0  0  0
   46.9990   27.1270   47.4960 N   0  0  0  0  0  0  0  0  0  0  0  0
   45.7000   33.0260   46.4650 C   0  0  0  0  0  0  0  0  0  0  0  0
   45.3250   33.2180   47.6560 O   0  0  0  0  0  0  0  0  0  0  0  0
   44.4850   35.9890   44.7750 C   0  0  0  0  0  0  0  0  0  0  0  0
   45.0800   35.9900   43.5200 C   0  0  0  0  0  0  0  0  0  0  0  0
   45.9230   34.9120   43.2850 C   0  0  0  0  0  0  0  0  0  0  0  0
   46.1080   33.9620   44.2550 N   0  0  0  0  0  0  0  0  0  0  0  0
   45.5030   34.0250   45.4440 C   0  0  0  0  0  0  0  0  0  0  0  0
   44.6870   35.0560   45.6870 N   0  0  0  0  0  0  0  0  0  0  0  0
   43.8120   36.8170   45.0090 H   0  0  0  0  0  0  0  0  0  0  0  0
   44.9240   36.7470   42.7640 H   0  0  0  0  0  0  0  0  0  0  0  0
   46.4270   34.8400   42.3250 H   0  0  0  0  0  0  0  0  0  0  0  0
  2  1  1  0  0  0  0
  3 19  1  0  0  0  0
  3  2  2  0  0  0  0
  4  3  1  0  0  0  0
  5  4  2  0  0  0  0
  5  6  1  0  0  0  0
  6  7  2  0  0  0  0
  7  2  1  0  0  0  0
  7 11  1  0  0  0  0
  8  4  1  0  0  0  0
  9  5  1  0  0  0  0
 10  6  1  0  0  0  0
 11 18  1  0  0  0  0
 11 12  2  0  0  0  0
 12 13  1  0  0  0  0
 12 14  1  0  0  0  0
 14 15  1  0  0  0  0
 16 17  1  0  0  0  0
 16 14  1  0  0  0  0
 18 16  2  0  0  0  0
 19 20  2  0  0  0  0
 21 27  1  0  0  0  0
 21 26  1  0  0  0  0
 22 21  2  0  0  0  0
 23 22  1  0  0  0  0
 23 24  2  0  0  0  0
 24 25  1  0  0  0  0
 25 26  2  0  0  0  0
 25 19  1  0  0  0  0
 28 22  1  0  0  0  0
 29 23  1  0  0  0  0
M  END
>  <minimizedAffinity>
-4.97910833

>  <minimizedRMSD>
0.796289623

$$$$
