
 OpenBabel03252505223D

 27 29  0  0  0  0  0  0  0  0999 V2000
   39.4130   29.8990   41.3880 F   0  0  0  0  0  0  0  0  0  0  0  0
   38.1000   29.6650   41.1620 C   0  0  0  0  0  0  0  0  0  0  0  0
   37.6210   28.3940   41.4040 C   0  0  0  0  0  0  0  0  0  0  0  0
   36.2970   28.1380   41.1820 C   0  0  0  0  0  0  0  0  0  0  0  0
   35.4630   29.1320   40.7260 C   0  0  0  0  0  0  0  0  0  0  0  0
   35.9240   30.4150   40.4760 C   0  0  0  0  0  0  0  0  0  0  0  0
   37.2890   30.6670   40.7090 C   0  0  0  0  0  0  0  0  0  0  0  0
   35.8790   27.1530   41.3590 H   0  0  0  0  0  0  0  0  0  0  0  0
   34.4150   28.8860   40.5630 H   0  0  0  0  0  0  0  0  0  0  0  0
   35.2230   31.1570   40.1190 H   0  0  0  0  0  0  0  0  0  0  0  0
   39.7900   25.4550   41.4500 C   0  0  0  0  0  0  0  0  0  0  0  0
   40.1990   25.3740   42.8030 C   0  0  0  0  0  0  0  0  0  0  0  0
   39.7110   26.3460   43.6800 C   0  0  0  0  0  0  0  0  0  0  0  0
   38.8790   27.3020   43.1770 N   0  0  0  0  0  0  0  0  0  0  0  0
   38.5160   27.3440   41.8890 C   0  0  0  0  0  0  0  0  0  0  0  0
   38.9690   26.4210   41.0190 N   0  0  0  0  0  0  0  0  0  0  0  0
   40.1490   24.7180   40.7390 H   0  0  0  0  0  0  0  0  0  0  0  0
   40.8670   24.5820   43.1430 H   0  0  0  0  0  0  0  0  0  0  0  0
   39.9850   26.3390   44.7190 H   0  0  0  0  0  0  0  0  0  0  0  0
   37.7440   32.0250   40.4380 C   0  0  0  0  0  0  0  0  0  0  0  0
   37.2960   32.9520   39.5220 C   0  0  0  0  0  0  0  0  0  0  0  0
   36.4860   32.8030   38.8220 H   0  0  0  0  0  0  0  0  0  0  0  0
   37.9880   34.0950   39.5910 N   0  0  0  0  0  0  0  0  0  0  0  0
   37.8910   34.9730   39.0400 H   0  0  0  0  0  0  0  0  0  0  0  0
   38.8870   33.8750   40.5690 C   0  0  0  0  0  0  0  0  0  0  0  0
   39.6570   34.5590   40.9520 H   0  0  0  0  0  0  0  0  0  0  0  0
   38.7400   32.6390   41.0750 N   0  0  0  0  0  0  0  0  0  0  0  0
  2  1  1  0  0  0  0
  2  3  1  0  0  0  0
  3 15  1  0  0  0  0
  4  8  1  0  0  0  0
  4  3  2  0  0  0  0
  5  4  1  0  0  0  0
  6  7  1  0  0  0  0
  6  5  2  0  0  0  0
  7  2  2  0  0  0  0
  9  5  1  0  0  0  0
 10  6  1  0  0  0  0
 11 12  1  0  0  0  0
 12 18  1  0  0  0  0
 12 13  2  0  0  0  0
 13 19  1  0  0  0  0
 14 13  1  0  0  0  0
 15 14  2  0  0  0  0
 16 11  2  0  0  0  0
 16 15  1  0  0  0  0
 17 11  1  0  0  0  0
 20  7  1  0  0  0  0
 20 27  1  0  0  0  0
 21 23  1  0  0  0  0
 21 20  2  0  0  0  0
 22 21  1  0  0  0  0
 23 25  1  0  0  0  0
 24 23  1  0  0  0  0
 25 26  1  0  0  0  0
 25 27  2  0  0  0  0
M  END
>  <minimizedAffinity>
-5.16165018

$$$$

 OpenBabel03252505223D

 27 29  0  0  0  0  0  0  0  0999 V2000
   37.3960   27.9440   39.6630 F   0  0  0  0  0  0  0  0  0  0  0  0
   37.6000   27.8530   40.9970 C   0  0  0  0  0  0  0  0  0  0  0  0
   37.7660   26.5950   41.5380 C   0  0  0  0  0  0  0  0  0  0  0  0
   37.9730   26.4820   42.8840 C   0  0  0  0  0  0  0  0  0  0  0  0
   38.0140   27.6030   43.6800 C   0  0  0  0  0  0  0  0  0  0  0  0
   37.8480   28.8760   43.1560 C   0  0  0  0  0  0  0  0  0  0  0  0
   37.6360   28.9800   41.7680 C   0  0  0  0  0  0  0  0  0  0  0  0
   38.1090   25.5120   43.3510 H   0  0  0  0  0  0  0  0  0  0  0  0
   38.1810   27.4680   44.7470 H   0  0  0  0  0  0  0  0  0  0  0  0
   37.8890   29.7220   43.8280 H   0  0  0  0  0  0  0  0  0  0  0  0
   38.8160   23.9390   39.2610 C   0  0  0  0  0  0  0  0  0  0  0  0
   37.6350   23.1800   39.0800 C   0  0  0  0  0  0  0  0  0  0  0  0
   36.4890   23.6060   39.7560 C   0  0  0  0  0  0  0  0  0  0  0  0
   36.5840   24.7180   40.5400 N   0  0  0  0  0  0  0  0  0  0  0  0
   37.7220   25.4090   40.6840 C   0  0  0  0  0  0  0  0  0  0  0  0
   38.8430   25.0230   40.0450 N   0  0  0  0  0  0  0  0  0  0  0  0
   39.7260   23.6380   38.7520 H   0  0  0  0  0  0  0  0  0  0  0  0
   37.6250   22.2990   38.4370 H   0  0  0  0  0  0  0  0  0  0  0  0
   35.5610   23.0720   39.6600 H   0  0  0  0  0  0  0  0  0  0  0  0
   37.4660   30.3310   41.2470 C   0  0  0  0  0  0  0  0  0  0  0  0
   36.3220   31.0240   40.9170 C   0  0  0  0  0  0  0  0  0  0  0  0
   35.3130   30.6470   41.0010 H   0  0  0  0  0  0  0  0  0  0  0  0
   36.5970   32.2540   40.4680 N   0  0  0  0  0  0  0  0  0  0  0  0
   35.9570   33.0100   40.1450 H   0  0  0  0  0  0  0  0  0  0  0  0
   37.9400   32.3280   40.5180 C   0  0  0  0  0  0  0  0  0  0  0  0
   38.5860   33.1710   40.2370 H   0  0  0  0  0  0  0  0  0  0  0  0
   38.4580   31.1800   40.9840 N   0  0  0  0  0  0  0  0  0  0  0  0
  1  2  1  0  0  0  0
  2  3  2  0  0  0  0
  2  7  1  0  0  0  0
  3  4  1  0  0  0  0
  4  8  1  0  0  0  0
  4  5  2  0  0  0  0
  5  9  1  0  0  0  0
  6  5  1  0  0  0  0
  6 10  1  0  0  0  0
  7  6  2  0  0  0  0
 11 16  1  0  0  0  0
 12 11  2  0  0  0  0
 12 13  1  0  0  0  0
 13 14  2  0  0  0  0
 14 15  1  0  0  0  0
 15  3  1  0  0  0  0
 16 15  2  0  0  0  0
 17 11  1  0  0  0  0
 18 12  1  0  0  0  0
 19 13  1  0  0  0  0
 20  7  1  0  0  0  0
 21 22  1  0  0  0  0
 21 20  2  0  0  0  0
 23 25  1  0  0  0  0
 23 21  1  0  0  0  0
 24 23  1  0  0  0  0
 25 27  2  0  0  0  0
 26 25  1  0  0  0  0
 27 20  1  0  0  0  0
M  END
>  <minimizedAffinity>
-4.98967075

$$$$

 OpenBabel03252505223D

 27 29  0  0  0  0  0  0  0  0999 V2000
   38.7100   28.3130   39.0350 F   0  0  0  0  0  0  0  0  0  0  0  0
   37.7680   29.0850   39.6230 C   0  0  0  0  0  0  0  0  0  0  0  0
   36.8460   28.4660   40.4410 C   0  0  0  0  0  0  0  0  0  0  0  0
   35.8870   29.2300   41.0440 C   0  0  0  0  0  0  0  0  0  0  0  0
   35.8460   30.5890   40.8360 C   0  0  0  0  0  0  0  0  0  0  0  0
   36.7630   31.2310   40.0170 C   0  0  0  0  0  0  0  0  0  0  0  0
   37.7460   30.4340   39.4020 C   0  0  0  0  0  0  0  0  0  0  0  0
   35.1420   28.7850   41.6950 H   0  0  0  0  0  0  0  0  0  0  0  0
   35.0650   31.1610   41.3360 H   0  0  0  0  0  0  0  0  0  0  0  0
   36.6840   32.3010   39.8900 H   0  0  0  0  0  0  0  0  0  0  0  0
   37.4250   25.2320   42.0350 C   0  0  0  0  0  0  0  0  0  0  0  0
   36.9950   24.3050   41.0560 C   0  0  0  0  0  0  0  0  0  0  0  0
   36.5080   24.8220   39.8530 C   0  0  0  0  0  0  0  0  0  0  0  0
   36.4810   26.1770   39.7030 N   0  0  0  0  0  0  0  0  0  0  0  0
   36.8980   27.0210   40.6560 C   0  0  0  0  0  0  0  0  0  0  0  0
   37.3730   26.5520   41.8260 N   0  0  0  0  0  0  0  0  0  0  0  0
   37.8090   24.8660   42.9830 H   0  0  0  0  0  0  0  0  0  0  0  0
   37.0430   23.2300   41.2380 H   0  0  0  0  0  0  0  0  0  0  0  0
   36.1660   24.1700   39.0700 H   0  0  0  0  0  0  0  0  0  0  0  0
   38.6960   31.1360   38.5480 C   0  0  0  0  0  0  0  0  0  0  0  0
   38.5270   31.7120   37.3090 C   0  0  0  0  0  0  0  0  0  0  0  0
   37.6050   31.7330   36.7460 H   0  0  0  0  0  0  0  0  0  0  0  0
   39.6600   32.2640   36.8570 N   0  0  0  0  0  0  0  0  0  0  0  0
   39.8520   32.7690   35.9670 H   0  0  0  0  0  0  0  0  0  0  0  0
   40.5530   32.0260   37.8350 C   0  0  0  0  0  0  0  0  0  0  0  0
   41.6140   32.3100   37.8730 H   0  0  0  0  0  0  0  0  0  0  0  0
   39.9770   31.3520   38.8450 N   0  0  0  0  0  0  0  0  0  0  0  0
  1  2  1  0  0  0  0
  2  3  1  0  0  0  0
  3 15  1  0  0  0  0
  3  4  2  0  0  0  0
  4  8  1  0  0  0  0
  5  4  1  0  0  0  0
  5  9  1  0  0  0  0
  6  5  2  0  0  0  0
  7  2  2  0  0  0  0
  7  6  1  0  0  0  0
 10  6  1  0  0  0  0
 11 17  1  0  0  0  0
 12 18  1  0  0  0  0
 12 11  2  0  0  0  0
 13 12  1  0  0  0  0
 14 13  2  0  0  0  0
 14 15  1  0  0  0  0
 15 16  2  0  0  0  0
 16 11  1  0  0  0  0
 19 13  1  0  0  0  0
 20 27  1  0  0  0  0
 20  7  1  0  0  0  0
 21 20  2  0  0  0  0
 22 21  1  0  0  0  0
 23 21  1  0  0  0  0
 23 25  1  0  0  0  0
 24 23  1  0  0  0  0
 25 26  1  0  0  0  0
 25 27  2  0  0  0  0
M  END
>  <minimizedAffinity>
-4.95524073

$$$$

 OpenBabel03252505223D

 27 29  0  0  0  0  0  0  0  0999 V2000
   40.1500   29.3820   40.1820 F   0  0  0  0  0  0  0  0  0  0  0  0
   38.9320   29.9270   40.4070 C   0  0  0  0  0  0  0  0  0  0  0  0
   38.0970   29.2900   41.3020 C   0  0  0  0  0  0  0  0  0  0  0  0
   36.8630   29.8250   41.5430 C   0  0  0  0  0  0  0  0  0  0  0  0
   36.4660   30.9760   40.9030 C   0  0  0  0  0  0  0  0  0  0  0  0
   37.2890   31.6310   39.9990 C   0  0  0  0  0  0  0  0  0  0  0  0
   38.5580   31.0700   39.7600 C   0  0  0  0  0  0  0  0  0  0  0  0
   36.1750   29.3580   42.2390 H   0  0  0  0  0  0  0  0  0  0  0  0
   35.4750   31.3690   41.1240 H   0  0  0  0  0  0  0  0  0  0  0  0
   36.9250   32.5320   39.5260 H   0  0  0  0  0  0  0  0  0  0  0  0
   38.4520   25.7550   42.1500 C   0  0  0  0  0  0  0  0  0  0  0  0
   39.3430   25.7720   43.2490 C   0  0  0  0  0  0  0  0  0  0  0  0
   39.8070   27.0170   43.6790 C   0  0  0  0  0  0  0  0  0  0  0  0
   39.3740   28.1260   43.0150 N   0  0  0  0  0  0  0  0  0  0  0  0
   38.5290   28.0680   41.9780 C   0  0  0  0  0  0  0  0  0  0  0  0
   38.0640   26.8820   41.5400 N   0  0  0  0  0  0  0  0  0  0  0  0
   38.0700   24.8060   41.7870 H   0  0  0  0  0  0  0  0  0  0  0  0
   39.6510   24.8470   43.7380 H   0  0  0  0  0  0  0  0  0  0  0  0
   40.4860   27.0960   44.5080 H   0  0  0  0  0  0  0  0  0  0  0  0
   39.4010   31.7810   38.8060 C   0  0  0  0  0  0  0  0  0  0  0  0
   39.3500   31.8280   37.4310 C   0  0  0  0  0  0  0  0  0  0  0  0
   38.6300   31.3130   36.8100 H   0  0  0  0  0  0  0  0  0  0  0  0
   40.3150   32.6050   36.9220 N   0  0  0  0  0  0  0  0  0  0  0  0
   40.5360   32.8390   35.9320 H   0  0  0  0  0  0  0  0  0  0  0  0
   40.9800   33.0490   38.0040 C   0  0  0  0  0  0  0  0  0  0  0  0
   41.8510   33.7190   38.0400 H   0  0  0  0  0  0  0  0  0  0  0  0
   40.4340   32.5580   39.1290 N   0  0  0  0  0  0  0  0  0  0  0  0
  1  2  1  0  0  0  0
  2  3  1  0  0  0  0
  3  4  2  0  0  0  0
  3 15  1  0  0  0  0
  4  8  1  0  0  0  0
  5  9  1  0  0  0  0
  5  4  1  0  0  0  0
  6  5  2  0  0  0  0
  7  6  1  0  0  0  0
  7  2  2  0  0  0  0
 10  6  1  0  0  0  0
 11 12  1  0  0  0  0
 12 13  2  0  0  0  0
 12 18  1  0  0  0  0
 13 19  1  0  0  0  0
 14 13  1  0  0  0  0
 15 14  2  0  0  0  0
 16 15  1  0  0  0  0
 16 11  2  0  0  0  0
 17 11  1  0  0  0  0
 20 27  1  0  0  0  0
 20  7  1  0  0  0  0
 21 20  2  0  0  0  0
 22 21  1  0  0  0  0
 23 21  1  0  0  0  0
 23 25  1  0  0  0  0
 24 23  1  0  0  0  0
 25 26  1  0  0  0  0
 25 27  2  0  0  0  0
M  END
>  <minimizedAffinity>
-4.89317608

$$$$

 OpenBabel03252505223D

 27 29  0  0  0  0  0  0  0  0999 V2000
   37.9130   27.4030   39.6500 F   0  0  0  0  0  0  0  0  0  0  0  0
   37.6980   27.6650   40.9600 C   0  0  0  0  0  0  0  0  0  0  0  0
   37.6770   28.9860   41.3580 C   0  0  0  0  0  0  0  0  0  0  0  0
   37.4620   29.2700   42.6770 C   0  0  0  0  0  0  0  0  0  0  0  0
   37.2690   28.2560   43.5850 C   0  0  0  0  0  0  0  0  0  0  0  0
   37.2870   26.9220   43.2070 C   0  0  0  0  0  0  0  0  0  0  0  0
   37.5090   26.6420   41.8450 C   0  0  0  0  0  0  0  0  0  0  0  0
   37.4370   30.2950   43.0330 H   0  0  0  0  0  0  0  0  0  0  0  0
   37.1000   28.5260   44.6270 H   0  0  0  0  0  0  0  0  0  0  0  0
   37.1290   26.1660   43.9630 H   0  0  0  0  0  0  0  0  0  0  0  0
   36.9820   31.6480   38.9560 C   0  0  0  0  0  0  0  0  0  0  0  0
   38.2720   32.0690   38.5530 C   0  0  0  0  0  0  0  0  0  0  0  0
   39.3660   31.4170   39.1260 C   0  0  0  0  0  0  0  0  0  0  0  0
   39.1200   30.4250   40.0290 N   0  0  0  0  0  0  0  0  0  0  0  0
   37.8830   30.0570   40.3840 C   0  0  0  0  0  0  0  0  0  0  0  0
   36.8070   30.6660   39.8480 N   0  0  0  0  0  0  0  0  0  0  0  0
   36.1070   32.1320   38.5330 H   0  0  0  0  0  0  0  0  0  0  0  0
   38.4010   32.8700   37.8240 H   0  0  0  0  0  0  0  0  0  0  0  0
   40.3720   31.6900   38.8620 H   0  0  0  0  0  0  0  0  0  0  0  0
   37.5220   25.2310   41.4770 C   0  0  0  0  0  0  0  0  0  0  0  0
   38.3600   24.2120   41.8720 C   0  0  0  0  0  0  0  0  0  0  0  0
   39.1880   24.3100   42.5600 H   0  0  0  0  0  0  0  0  0  0  0  0
   38.0330   23.0470   41.2990 N   0  0  0  0  0  0  0  0  0  0  0  0
   38.4680   22.1060   41.3950 H   0  0  0  0  0  0  0  0  0  0  0  0
   36.9700   23.3480   40.5300 C   0  0  0  0  0  0  0  0  0  0  0  0
   36.3850   22.6790   39.8840 H   0  0  0  0  0  0  0  0  0  0  0  0
   36.6650   24.6530   40.6370 N   0  0  0  0  0  0  0  0  0  0  0  0
  1  2  1  0  0  0  0
  2  3  2  0  0  0  0
  2  7  1  0  0  0  0
  3  4  1  0  0  0  0
  4  8  1  0  0  0  0
  4  5  2  0  0  0  0
  5  9  1  0  0  0  0
  6  5  1  0  0  0  0
  6 10  1  0  0  0  0
  7  6  2  0  0  0  0
 11 16  1  0  0  0  0
 12 11  2  0  0  0  0
 12 13  1  0  0  0  0
 13 14  2  0  0  0  0
 14 15  1  0  0  0  0
 15  3  1  0  0  0  0
 16 15  2  0  0  0  0
 17 11  1  0  0  0  0
 18 12  1  0  0  0  0
 19 13  1  0  0  0  0
 20  7  1  0  0  0  0
 20 21  2  0  0  0  0
 21 22  1  0  0  0  0
 23 24  1  0  0  0  0
 23 21  1  0  0  0  0
 25 27  2  0  0  0  0
 25 23  1  0  0  0  0
 26 25  1  0  0  0  0
 27 20  1  0  0  0  0
M  END
>  <minimizedAffinity>
-4.83768988

$$$$

 OpenBabel03252505223D

 27 29  0  0  0  0  0  0  0  0999 V2000
   37.5740   27.1130   39.8890 F   0  0  0  0  0  0  0  0  0  0  0  0
   38.0670   27.1370   41.1480 C   0  0  0  0  0  0  0  0  0  0  0  0
   38.6200   25.9750   41.6460 C   0  0  0  0  0  0  0  0  0  0  0  0
   39.1240   25.9800   42.9160 C   0  0  0  0  0  0  0  0  0  0  0  0
   39.0780   27.1230   43.6800 C   0  0  0  0  0  0  0  0  0  0  0  0
   38.5260   28.3000   43.1990 C   0  0  0  0  0  0  0  0  0  0  0  0
   38.0110   28.2830   41.8890 C   0  0  0  0  0  0  0  0  0  0  0  0
   39.5680   25.0880   43.3470 H   0  0  0  0  0  0  0  0  0  0  0  0
   39.4910   27.0830   44.6860 H   0  0  0  0  0  0  0  0  0  0  0  0
   38.5160   29.1690   43.8430 H   0  0  0  0  0  0  0  0  0  0  0  0
   37.8310   22.6540   40.3470 C   0  0  0  0  0  0  0  0  0  0  0  0
   38.7500   22.4930   39.2830 C   0  0  0  0  0  0  0  0  0  0  0  0
   39.6330   23.5470   39.0340 C   0  0  0  0  0  0  0  0  0  0  0  0
   39.5500   24.6530   39.8280 N   0  0  0  0  0  0  0  0  0  0  0  0
   38.6650   24.7650   40.8260 C   0  0  0  0  0  0  0  0  0  0  0  0
   37.8020   23.7660   41.0910 N   0  0  0  0  0  0  0  0  0  0  0  0
   37.1300   21.8560   40.5700 H   0  0  0  0  0  0  0  0  0  0  0  0
   38.7660   21.5820   38.6850 H   0  0  0  0  0  0  0  0  0  0  0  0
   40.3550   23.4870   38.2400 H   0  0  0  0  0  0  0  0  0  0  0  0
   37.4370   29.5360   41.4120 C   0  0  0  0  0  0  0  0  0  0  0  0
   36.1230   29.9340   41.3050 C   0  0  0  0  0  0  0  0  0  0  0  0
   35.2620   29.3400   41.5780 H   0  0  0  0  0  0  0  0  0  0  0  0
   36.0160   31.1740   40.8140 N   0  0  0  0  0  0  0  0  0  0  0  0
   35.1700   31.7490   40.6190 H   0  0  0  0  0  0  0  0  0  0  0  0
   37.2900   31.5560   40.6100 C   0  0  0  0  0  0  0  0  0  0  0  0
   37.6590   32.5120   40.2130 H   0  0  0  0  0  0  0  0  0  0  0  0
   38.1390   30.5780   40.9680 N   0  0  0  0  0  0  0  0  0  0  0  0
  1  2  1  0  0  0  0
  2  3  2  0  0  0  0
  2  7  1  0  0  0  0
  3  4  1  0  0  0  0
  4  8  1  0  0  0  0
  4  5  2  0  0  0  0
  5  9  1  0  0  0  0
  6  5  1  0  0  0  0
  6 10  1  0  0  0  0
  7  6  2  0  0  0  0
 11 17  1  0  0  0  0
 11 16  1  0  0  0  0
 12 11  2  0  0  0  0
 13 12  1  0  0  0  0
 13 14  2  0  0  0  0
 14 15  1  0  0  0  0
 15 16  2  0  0  0  0
 15  3  1  0  0  0  0
 18 12  1  0  0  0  0
 19 13  1  0  0  0  0
 20  7  1  0  0  0  0
 21 20  2  0  0  0  0
 21 22  1  0  0  0  0
 23 21  1  0  0  0  0
 24 23  1  0  0  0  0
 25 23  1  0  0  0  0
 25 27  2  0  0  0  0
 26 25  1  0  0  0  0
 27 20  1  0  0  0  0
M  END
>  <minimizedAffinity>
-4.79287958

$$$$

 OpenBabel03252505223D

 27 29  0  0  0  0  0  0  0  0999 V2000
   38.3950   28.3850   39.8780 F   0  0  0  0  0  0  0  0  0  0  0  0
   37.9670   28.1780   41.1450 C   0  0  0  0  0  0  0  0  0  0  0  0
   37.3730   26.9680   41.4350 C   0  0  0  0  0  0  0  0  0  0  0  0
   36.9340   26.7410   42.7090 C   0  0  0  0  0  0  0  0  0  0  0  0
   37.0840   27.7040   43.6790 C   0  0  0  0  0  0  0  0  0  0  0  0
   37.6770   28.9270   43.4090 C   0  0  0  0  0  0  0  0  0  0  0  0
   38.1260   29.1490   42.0930 C   0  0  0  0  0  0  0  0  0  0  0  0
   36.4620   25.8020   42.9810 H   0  0  0  0  0  0  0  0  0  0  0  0
   36.7210   27.4820   44.6820 H   0  0  0  0  0  0  0  0  0  0  0  0
   37.7700   29.6470   44.2100 H   0  0  0  0  0  0  0  0  0  0  0  0
   36.1200   25.1960   38.4970 C   0  0  0  0  0  0  0  0  0  0  0  0
   36.9310   24.0370   38.4450 C   0  0  0  0  0  0  0  0  0  0  0  0
   37.9040   23.8900   39.4370 C   0  0  0  0  0  0  0  0  0  0  0  0
   38.0070   24.8680   40.3830 N   0  0  0  0  0  0  0  0  0  0  0  0
   37.2190   25.9500   40.3960 C   0  0  0  0  0  0  0  0  0  0  0  0
   36.2710   26.1190   39.4540 N   0  0  0  0  0  0  0  0  0  0  0  0
   35.3530   25.3440   37.7430 H   0  0  0  0  0  0  0  0  0  0  0  0
   36.7970   23.2900   37.6610 H   0  0  0  0  0  0  0  0  0  0  0  0
   38.5520   23.0330   39.4520 H   0  0  0  0  0  0  0  0  0  0  0  0
   38.7460   30.4440   41.8390 C   0  0  0  0  0  0  0  0  0  0  0  0
   39.9090   30.9900   42.3340 C   0  0  0  0  0  0  0  0  0  0  0  0
   40.5830   30.5110   43.0300 H   0  0  0  0  0  0  0  0  0  0  0  0
   40.1300   32.2180   41.8480 N   0  0  0  0  0  0  0  0  0  0  0  0
   40.9120   32.8810   42.0270 H   0  0  0  0  0  0  0  0  0  0  0  0
   39.0810   32.4410   41.0340 C   0  0  0  0  0  0  0  0  0  0  0  0
   38.8660   33.3330   40.4300 H   0  0  0  0  0  0  0  0  0  0  0  0
   38.2560   31.3810   41.0280 N   0  0  0  0  0  0  0  0  0  0  0  0
  1  2  1  0  0  0  0
  2  3  2  0  0  0  0
  2  7  1  0  0  0  0
  3  4  1  0  0  0  0
  4  8  1  0  0  0  0
  4  5  2  0  0  0  0
  5  9  1  0  0  0  0
  6  5  1  0  0  0  0
  6 10  1  0  0  0  0
  7  6  2  0  0  0  0
 11 16  1  0  0  0  0
 12 11  2  0  0  0  0
 12 13  1  0  0  0  0
 13 19  1  0  0  0  0
 13 14  2  0  0  0  0
 14 15  1  0  0  0  0
 15  3  1  0  0  0  0
 16 15  2  0  0  0  0
 17 11  1  0  0  0  0
 18 12  1  0  0  0  0
 20  7  1  0  0  0  0
 20 21  2  0  0  0  0
 21 22  1  0  0  0  0
 23 24  1  0  0  0  0
 23 21  1  0  0  0  0
 25 23  1  0  0  0  0
 26 25  1  0  0  0  0
 27 25  2  0  0  0  0
 27 20  1  0  0  0  0
M  END
>  <minimizedAffinity>
-4.78193378

$$$$

 OpenBabel03252505223D

 27 29  0  0  0  0  0  0  0  0999 V2000
   37.2540   28.4240   40.4400 F   0  0  0  0  0  0  0  0  0  0  0  0
   38.3410   28.6210   41.2200 C   0  0  0  0  0  0  0  0  0  0  0  0
   38.9510   27.5120   41.7680 C   0  0  0  0  0  0  0  0  0  0  0  0
   40.0510   27.6910   42.5590 C   0  0  0  0  0  0  0  0  0  0  0  0
   40.5350   28.9550   42.8020 C   0  0  0  0  0  0  0  0  0  0  0  0
   39.9360   30.0830   42.2630 C   0  0  0  0  0  0  0  0  0  0  0  0
   38.8050   29.8860   41.4490 C   0  0  0  0  0  0  0  0  0  0  0  0
   40.5610   26.8470   43.0100 H   0  0  0  0  0  0  0  0  0  0  0  0
   41.4140   29.0540   43.4380 H   0  0  0  0  0  0  0  0  0  0  0  0
   40.3600   31.0520   42.4870 H   0  0  0  0  0  0  0  0  0  0  0  0
   36.8340   24.5400   41.9210 C   0  0  0  0  0  0  0  0  0  0  0  0
   37.4480   23.6550   41.0030 C   0  0  0  0  0  0  0  0  0  0  0  0
   38.5930   24.1080   40.3440 C   0  0  0  0  0  0  0  0  0  0  0  0
   39.0390   25.3650   40.6270 N   0  0  0  0  0  0  0  0  0  0  0  0
   38.4280   26.1720   41.5030 C   0  0  0  0  0  0  0  0  0  0  0  0
   37.3230   25.7630   42.1550 N   0  0  0  0  0  0  0  0  0  0  0  0
   35.9420   24.2220   42.4520 H   0  0  0  0  0  0  0  0  0  0  0  0
   37.0410   22.6590   40.8220 H   0  0  0  0  0  0  0  0  0  0  0  0
   39.1050   23.4840   39.6340 H   0  0  0  0  0  0  0  0  0  0  0  0
   38.1980   31.0900   40.8950 C   0  0  0  0  0  0  0  0  0  0  0  0
   36.8740   31.4520   40.7830 C   0  0  0  0  0  0  0  0  0  0  0  0
   36.0300   30.8610   41.1100 H   0  0  0  0  0  0  0  0  0  0  0  0
   36.7330   32.6540   40.2090 N   0  0  0  0  0  0  0  0  0  0  0  0
   35.8710   33.1960   39.9890 H   0  0  0  0  0  0  0  0  0  0  0  0
   37.9950   33.0460   39.9580 C   0  0  0  0  0  0  0  0  0  0  0  0
   38.3370   33.9800   39.4900 H   0  0  0  0  0  0  0  0  0  0  0  0
   38.8700   32.1130   40.3690 N   0  0  0  0  0  0  0  0  0  0  0  0
  1  2  1  0  0  0  0
  2  7  2  0  0  0  0
  2  3  1  0  0  0  0
  3  4  2  0  0  0  0
  4  5  1  0  0  0  0
  4  8  1  0  0  0  0
  5  9  1  0  0  0  0
  6 10  1  0  0  0  0
  6  5  2  0  0  0  0
  7  6  1  0  0  0  0
 11 16  1  0  0  0  0
 11 17  1  0  0  0  0
 12 11  2  0  0  0  0
 13 14  2  0  0  0  0
 13 12  1  0  0  0  0
 14 15  1  0  0  0  0
 15  3  1  0  0  0  0
 15 16  2  0  0  0  0
 18 12  1  0  0  0  0
 19 13  1  0  0  0  0
 20  7  1  0  0  0  0
 21 20  2  0  0  0  0
 21 22  1  0  0  0  0
 23 21  1  0  0  0  0
 24 23  1  0  0  0  0
 25 23  1  0  0  0  0
 25 27  2  0  0  0  0
 26 25  1  0  0  0  0
 27 20  1  0  0  0  0
M  END
>  <minimizedAffinity>
-4.78065205

$$$$

 OpenBabel03252505223D

 27 29  0  0  0  0  0  0  0  0999 V2000
   36.9760   30.9350   37.3430 F   0  0  0  0  0  0  0  0  0  0  0  0
   36.4100   30.3650   38.4310 C   0  0  0  0  0  0  0  0  0  0  0  0
   35.6280   29.2450   38.2390 C   0  0  0  0  0  0  0  0  0  0  0  0
   35.0480   28.6550   39.3260 C   0  0  0  0  0  0  0  0  0  0  0  0
   35.2430   29.1720   40.5860 C   0  0  0  0  0  0  0  0  0  0  0  0
   36.0240   30.2970   40.8010 C   0  0  0  0  0  0  0  0  0  0  0  0
   36.6170   30.8950   39.6740 C   0  0  0  0  0  0  0  0  0  0  0  0
   34.4260   27.7720   39.2200 H   0  0  0  0  0  0  0  0  0  0  0  0
   34.7630   28.6700   41.4250 H   0  0  0  0  0  0  0  0  0  0  0  0
   36.1430   30.6590   41.8130 H   0  0  0  0  0  0  0  0  0  0  0  0
   34.1410   28.5850   34.9690 C   0  0  0  0  0  0  0  0  0  0  0  0
   35.0540   27.6840   34.3720 C   0  0  0  0  0  0  0  0  0  0  0  0
   36.1760   27.3180   35.1190 C   0  0  0  0  0  0  0  0  0  0  0  0
   36.3160   27.8520   36.3670 N   0  0  0  0  0  0  0  0  0  0  0  0
   35.4280   28.7030   36.8960 C   0  0  0  0  0  0  0  0  0  0  0  0
   34.3360   29.0730   36.1990 N   0  0  0  0  0  0  0  0  0  0  0  0
   33.2580   28.8920   34.4180 H   0  0  0  0  0  0  0  0  0  0  0  0
   34.8840   27.2910   33.3680 H   0  0  0  0  0  0  0  0  0  0  0  0
   36.9070   26.6380   34.7220 H   0  0  0  0  0  0  0  0  0  0  0  0
   37.4330   32.0760   39.9310 C   0  0  0  0  0  0  0  0  0  0  0  0
   37.3170   33.3630   39.4550 C   0  0  0  0  0  0  0  0  0  0  0  0
   36.5540   33.7160   38.7760 H   0  0  0  0  0  0  0  0  0  0  0  0
   38.2770   34.1610   39.9380 N   0  0  0  0  0  0  0  0  0  0  0  0
   38.4580   35.1730   39.7690 H   0  0  0  0  0  0  0  0  0  0  0  0
   39.0070   33.3530   40.7290 C   0  0  0  0  0  0  0  0  0  0  0  0
   39.8960   33.6040   41.3230 H   0  0  0  0  0  0  0  0  0  0  0  0
   38.5010   32.1080   40.7260 N   0  0  0  0  0  0  0  0  0  0  0  0
  1  2  1  0  0  0  0
  2  7  1  0  0  0  0
  3  2  2  0  0  0  0
  3  4  1  0  0  0  0
  4  5  2  0  0  0  0
  5  6  1  0  0  0  0
  5  9  1  0  0  0  0
  6 10  1  0  0  0  0
  7 20  1  0  0  0  0
  7  6  2  0  0  0  0
  8  4  1  0  0  0  0
 11 16  1  0  0  0  0
 12 11  2  0  0  0  0
 12 13  1  0  0  0  0
 13 14  2  0  0  0  0
 14 15  1  0  0  0  0
 15  3  1  0  0  0  0
 16 15  2  0  0  0  0
 17 11  1  0  0  0  0
 18 12  1  0  0  0  0
 19 13  1  0  0  0  0
 20 27  1  0  0  0  0
 21 20  2  0  0  0  0
 21 23  1  0  0  0  0
 22 21  1  0  0  0  0
 23 25  1  0  0  0  0
 24 23  1  0  0  0  0
 25 26  1  0  0  0  0
 27 25  2  0  0  0  0
M  END
>  <minimizedAffinity>
-4.76754332

$$$$
