
 OpenBabel03252509153D

 24 26  0  0  0  0  0  0  0  0999 V2000
   45.8740   33.2000   46.2710 C   0  0  0  0  0  0  0  0  0  0  0  0
   45.3320   33.0420   47.5720 C   0  0  0  0  0  0  0  0  0  0  0  0
   45.9800   32.2230   48.4200 C   0  0  0  0  0  0  0  0  0  0  0  0
   47.1570   31.5580   48.0060 C   0  0  0  0  0  0  0  0  0  0  0  0
   47.3580   32.1360   46.2860 S   0  0  0  0  0  0  0  0  0  0  0  0
   44.4310   33.5620   47.8630 H   0  0  0  0  0  0  0  0  0  0  0  0
   45.6970   31.9990   49.4290 H   0  0  0  0  0  0  0  0  0  0  0  0
   44.2560   35.9320   44.3540 C   0  0  0  0  0  0  0  0  0  0  0  0
   44.2770   35.3570   43.0560 C   0  0  0  0  0  0  0  0  0  0  0  0
   44.8330   34.0880   42.9010 C   0  0  0  0  0  0  0  0  0  0  0  0
   45.3270   33.4710   44.0140 N   0  0  0  0  0  0  0  0  0  0  0  0
   45.2860   34.0550   45.2340 C   0  0  0  0  0  0  0  0  0  0  0  0
   44.7520   35.2880   45.4130 N   0  0  0  0  0  0  0  0  0  0  0  0
   43.8290   36.9130   44.4900 H   0  0  0  0  0  0  0  0  0  0  0  0
   43.8760   35.8760   42.1950 H   0  0  0  0  0  0  0  0  0  0  0  0
   44.8880   33.5800   41.9520 H   0  0  0  0  0  0  0  0  0  0  0  0
   48.0680   30.6540   48.6110 C   0  0  0  0  0  0  0  0  0  0  0  0
   48.2900   29.3710   48.1660 C   0  0  0  0  0  0  0  0  0  0  0  0
   47.8560   28.8150   47.3300 H   0  0  0  0  0  0  0  0  0  0  0  0
   49.2110   28.8480   48.9950 N   0  0  0  0  0  0  0  0  0  0  0  0
   49.5940   27.8620   48.9120 H   0  0  0  0  0  0  0  0  0  0  0  0
   49.5730   29.7610   49.9430 C   0  0  0  0  0  0  0  0  0  0  0  0
   50.3170   29.5060   50.7050 H   0  0  0  0  0  0  0  0  0  0  0  0
   48.8420   30.8860   49.6810 N   0  0  0  0  0  0  0  0  0  0  0  0
  1  5  1  0  0  0  0
  1  2  2  0  0  0  0
  2  6  1  0  0  0  0
  2  3  1  0  0  0  0
  3  7  1  0  0  0  0
  4  3  2  0  0  0  0
  4 17  1  0  0  0  0
  5  4  1  0  0  0  0
  8 14  1  0  0  0  0
  8 13  1  0  0  0  0
  9  8  2  0  0  0  0
 10  9  1  0  0  0  0
 10 11  2  0  0  0  0
 11 12  1  0  0  0  0
 12 13  2  0  0  0  0
 12  1  1  0  0  0  0
 15  9  1  0  0  0  0
 16 10  1  0  0  0  0
 17 24  1  0  0  0  0
 18 17  2  0  0  0  0
 18 20  1  0  0  0  0
 19 18  1  0  0  0  0
 20 22  1  0  0  0  0
 21 20  1  0  0  0  0
 22 23  1  0  0  0  0
 24 22  2  0  0  0  0
M  END
>  <minimizedAffinity>
-4.43750763

>  <minimizedRMSD>
1.05651617

$$$$
