REMARK  Name = 
REMARK  9 active torsions:
REMARK  status: ('A' for Active; 'I' for Inactive)
REMARK    1  A    between atoms: O_1  and  C_2
REMARK    2  A    between atoms: O_1  and  P_10
REMARK    3  A    between atoms: C_6  and  C_7
REMARK    4  A    between atoms: C_7  and  O_8
REMARK    5  A    between atoms: P_10  and  O_11
REMARK    6  A    between atoms: P_10  and  O_12
REMARK    7  A    between atoms: O_12  and  C_13
REMARK    8  A    between atoms: C_13  and  C_16
REMARK    9  A    between atoms: C_18  and  C_36
REMARK                            x       y       z     vdW  Elec       q    Type
REMARK                         _______ _______ _______ _____ _____    ______ ____
ROOT
ATOM      1  O   UNL     1      44.727  35.347  44.995  0.00  0.00    +0.000 OA
ATOM      2  P   UNL     1      45.581  34.237  44.413  0.00  0.00    +0.000 P 
ENDROOT
BRANCH   2   3
ATOM      3  O   UNL     1      44.607  33.037  43.717  0.00  0.00    +0.000 OA
ATOM      4  H   UNL     1      43.649  33.325  43.721  0.00  0.00    +0.000 HD
ENDBRANCH   2   3
BRANCH   2   5
ATOM      5  O   UNL     1      46.575  34.908  43.250  0.00  0.00    +0.000 OA
BRANCH   5   6
ATOM      6  C   UNL     1      46.804  33.976  42.230  0.00  0.00    +0.000 C 
ATOM      7  C   UNL     1      46.075  34.417  40.957  0.00  0.00    +0.000 C 
ATOM      8  C   UNL     1      46.693  33.475  39.949  0.00  0.00    +0.000 C 
ATOM      9  C   UNL     1      48.069  33.144  40.468  0.00  0.00    +0.000 C 
ATOM     10  C   UNL     1      48.216  33.964  41.741  0.00  0.00    +0.000 C 
ATOM     11  H   UNL     1      46.453  32.972  42.459  0.00  0.00    +0.000 HD
ATOM     12  H   UNL     1      44.983  34.199  41.138  0.00  0.00    +0.000 HD
ATOM     13  H   UNL     1      46.180  35.473  40.733  0.00  0.00    +0.000 HD
ATOM     14  H   UNL     1      46.700  33.934  38.953  0.00  0.00    +0.000 HD
ATOM     15  H   UNL     1      46.043  32.552  39.930  0.00  0.00    +0.000 HD
ATOM     16  H   UNL     1      48.085  32.072  40.758  0.00  0.00    +0.000 HD
ATOM     17  H   UNL     1      48.882  33.388  39.736  0.00  0.00    +0.000 HD
ATOM     18  H   UNL     1      48.912  33.411  42.401  0.00  0.00    +0.000 HD
BRANCH  10  19
ATOM     19  C   UNL     1      48.761  35.336  41.461  0.00  0.00    +0.000 C 
ATOM     20  H   UNL     1      48.020  36.123  41.331  0.00  0.00    +0.000 HD
ATOM     21  H   UNL     1      49.328  35.272  40.495  0.00  0.00    +0.000 HD
BRANCH  19  22
ATOM     22  O   UNL     1      49.656  35.758  42.419  0.00  0.00    +0.000 OA
ATOM     23  H   UNL     1      50.185  34.955  42.687  0.00  0.00    +0.000 HD
ENDBRANCH  19  22
ENDBRANCH  10  19
ENDBRANCH   5   6
ENDBRANCH   2   5
BRANCH   2  24
ATOM     24  O   UNL     1      46.478  33.487  45.602  0.00  0.00    +0.000 OA
BRANCH  24  25
ATOM     25  C   UNL     1      46.235  32.151  45.569  0.00  0.00    +0.000 C 
ATOM     26  H   UNL     1      45.511  31.773  44.852  0.00  0.00    +0.000 HD
ATOM     27  H   UNL     1      47.214  31.658  45.296  0.00  0.00    +0.000 HD
BRANCH  25  30
ATOM     28  C   UNL     1      45.647  31.905  49.236  0.00  0.00    +0.000 A 
ATOM     29  C   UNL     1      45.986  32.456  47.991  0.00  0.00    +0.000 A 
ATOM     30  C   UNL     1      45.883  31.599  46.888  0.00  0.00    +0.000 A 
ATOM     31  N   UNL     1      45.472  30.315  47.078  0.00  0.00    +0.000 NA
ATOM     32  C   UNL     1      45.154  29.817  48.291  0.00  0.00    +0.000 A 
ATOM     33  N   UNL     1      45.244  30.616  49.360  0.00  0.00    +0.000 NA
ATOM     34  H   UNL     1      45.701  32.510  50.147  0.00  0.00    +0.000 HD
ATOM     35  H   UNL     1      46.294  33.471  47.955  0.00  0.00    +0.000 HD
BRANCH  32  36
ATOM     36  C   UNL     1      44.735  28.418  48.298  0.00  0.00    +0.000 A 
ATOM     37  C   UNL     1      43.567  27.784  47.908  0.00  0.00    +0.000 A 
ATOM     38  H   UNL     1      42.780  28.419  47.512  0.00  0.00    +0.000 HD
ATOM     39  N   UNL     1      43.736  26.456  48.142  0.00  0.00    +0.000 N 
ATOM     40  H   UNL     1      42.950  25.809  47.908  0.00  0.00    +0.000 HD
ATOM     41  C   UNL     1      44.978  26.273  48.664  0.00  0.00    +0.000 A 
ATOM     42  H   UNL     1      45.256  25.243  48.905  0.00  0.00    +0.000 HD
ATOM     43  N   UNL     1      45.596  27.481  48.761  0.00  0.00    +0.000 NA
ENDBRANCH  32  36
ENDBRANCH  25  30
ENDBRANCH  24  25
ENDBRANCH   2  24
TORSDOF 9
