
 OpenBabel03242517473D

 42 45  0  0  0  0  0  0  0  0999 V2000
   38.5590   31.7840   41.2440 C   0  0  0  0  0  0  0  0  0  0  0  0
   39.9150   31.5870   40.9680 C   0  0  0  0  0  0  0  0  0  0  0  0
   40.3180   30.3120   40.5760 C   0  0  0  0  0  0  0  0  0  0  0  0
   39.3910   29.3400   40.4820 N   0  0  0  0  0  0  0  0  0  0  0  0
   38.0840   29.5760   40.7600 C   0  0  0  0  0  0  0  0  0  0  0  0
   37.6390   30.7760   41.1410 N   0  0  0  0  0  0  0  0  0  0  0  0
   38.1860   32.7610   41.5560 H   0  0  0  0  0  0  0  0  0  0  0  0
   41.3610   30.1870   40.3690 H   0  0  0  0  0  0  0  0  0  0  0  0
   37.1280   28.4320   40.6280 C   0  0  0  0  0  0  0  0  0  0  0  0
   36.3840   28.4570   41.4480 H   0  0  0  0  0  0  0  0  0  0  0  0
   37.6480   27.4730   40.6690 H   0  0  0  0  0  0  0  0  0  0  0  0
   36.3700   28.4950   39.3170 C   0  0  0  0  0  0  0  0  0  0  0  0
   36.9390   28.0650   38.4810 H   0  0  0  0  0  0  0  0  0  0  0  0
   36.1730   29.5880   39.1300 H   0  0  0  0  0  0  0  0  0  0  0  0
   35.0700   27.8170   39.5180 C   0  0  0  0  0  0  0  0  0  0  0  0
   34.9760   26.4860   39.9400 C   0  0  0  0  0  0  0  0  0  0  0  0
   35.7710   25.8080   40.1640 H   0  0  0  0  0  0  0  0  0  0  0  0
   33.6260   26.2860   39.9870 N   0  0  0  0  0  0  0  0  0  0  0  0
   33.2630   25.3420   40.2830 H   0  0  0  0  0  0  0  0  0  0  0  0
   32.9660   27.4140   39.6210 C   0  0  0  0  0  0  0  0  0  0  0  0
   31.8860   27.3750   39.6200 H   0  0  0  0  0  0  0  0  0  0  0  0
   33.8610   28.3750   39.3260 N   0  0  0  0  0  0  0  0  0  0  0  0
   41.0630   32.9340   41.1200 S   0  0  0  0  0  0  0  0  0  0  0  0
   40.9560   33.9840   39.6920 C   0  0  0  0  0  0  0  0  0  0  0  0
   39.8610   34.0070   38.8320 C   0  0  0  0  0  0  0  0  0  0  0  0
   39.8560   34.8620   37.7320 C   0  0  0  0  0  0  0  0  0  0  0  0
   40.9070   35.6880   37.4700 C   0  0  0  0  0  0  0  0  0  0  0  0
   41.9940   35.6620   38.3270 C   0  0  0  0  0  0  0  0  0  0  0  0
   42.0290   34.8270   39.4240 C   0  0  0  0  0  0  0  0  0  0  0  0
   39.0510   33.3480   39.0640 H   0  0  0  0  0  0  0  0  0  0  0  0
   38.9950   34.8630   37.0780 H   0  0  0  0  0  0  0  0  0  0  0  0
   40.9240   36.3590   36.6220 H   0  0  0  0  0  0  0  0  0  0  0  0
   42.8620   36.2990   38.1680 H   0  0  0  0  0  0  0  0  0  0  0  0
   43.1850   34.8150   40.3170 C   0  0  0  0  0  0  0  0  0  0  0  0
   44.2790   34.0330   40.1510 C   0  0  0  0  0  0  0  0  0  0  0  0
   45.3730   34.0440   41.0230 C   0  0  0  0  0  0  0  0  0  0  0  0
   45.3350   34.8690   42.0770 N   0  0  0  0  0  0  0  0  0  0  0  0
   44.2490   35.6460   42.2440 C   0  0  0  0  0  0  0  0  0  0  0  0
   43.2110   35.6210   41.3950 N   0  0  0  0  0  0  0  0  0  0  0  0
   44.3010   33.3610   39.2860 H   0  0  0  0  0  0  0  0  0  0  0  0
   46.2350   33.4000   40.8580 H   0  0  0  0  0  0  0  0  0  0  0  0
   44.1230   36.3530   43.0730 H   0  0  0  0  0  0  0  0  0  0  0  0
  1  7  1  0  0  0  0
  2 23  1  0  0  0  0
  2  1  2  0  0  0  0
  3  2  1  0  0  0  0
  4  3  2  0  0  0  0
  4  5  1  0  0  0  0
  5  6  2  0  0  0  0
  6  1  1  0  0  0  0
  8  3  1  0  0  0  0
  9 11  1  0  0  0  0
  9  5  1  0  0  0  0
  9 10  1  0  0  0  0
 12 15  1  0  0  0  0
 12  9  1  0  0  0  0
 13 12  1  0  0  0  0
 14 12  1  0  0  0  0
 15 16  2  0  0  0  0
 16 18  1  0  0  0  0
 16 17  1  0  0  0  0
 18 19  1  0  0  0  0
 20 18  1  0  0  0  0
 21 20  1  0  0  0  0
 22 15  1  0  0  0  0
 22 20  2  0  0  0  0
 24 23  1  0  0  0  0
 25 30  1  0  0  0  0
 25 24  2  0  0  0  0
 26 25  1  0  0  0  0
 27 26  2  0  0  0  0
 27 28  1  0  0  0  0
 28 29  2  0  0  0  0
 29 24  1  0  0  0  0
 29 34  1  0  0  0  0
 31 26  1  0  0  0  0
 32 27  1  0  0  0  0
 33 28  1  0  0  0  0
 34 39  1  0  0  0  0
 35 34  2  0  0  0  0
 35 36  1  0  0  0  0
 36 37  2  0  0  0  0
 37 38  1  0  0  0  0
 38 42  1  0  0  0  0
 39 38  2  0  0  0  0
 40 35  1  0  0  0  0
 41 36  1  0  0  0  0
M  END
>  <minimizedAffinity>
-5.41237068

>  <minimizedRMSD>
0.476582408

$$$$
