
 OpenBabel03242515033D

 38 40  0  0  0  0  0  0  0  0999 V2000
   45.1730   34.4820   42.2900 C   0  0  0  0  0  0  0  0  0  0  0  0
   46.5070   34.2680   41.9630 C   0  0  0  0  0  0  0  0  0  0  0  0
   47.4330   34.0260   42.9920 C   0  0  0  0  0  0  0  0  0  0  0  0
   46.9570   34.0170   44.2550 N   0  0  0  0  0  0  0  0  0  0  0  0
   45.6640   34.2260   44.5590 C   0  0  0  0  0  0  0  0  0  0  0  0
   44.7980   34.4540   43.5700 N   0  0  0  0  0  0  0  0  0  0  0  0
   46.8780   34.2760   40.9610 H   0  0  0  0  0  0  0  0  0  0  0  0
   48.8400   33.7970   42.6940 C   0  0  0  0  0  0  0  0  0  0  0  0
   49.7980   34.7810   42.6540 C   0  0  0  0  0  0  0  0  0  0  0  0
   49.7480   35.8440   42.8150 H   0  0  0  0  0  0  0  0  0  0  0  0
   50.9290   34.1070   42.3450 N   0  0  0  0  0  0  0  0  0  0  0  0
   51.8750   34.5840   42.2340 H   0  0  0  0  0  0  0  0  0  0  0  0
   50.7190   32.7670   42.1940 C   0  0  0  0  0  0  0  0  0  0  0  0
   51.5310   32.0870   41.9440 H   0  0  0  0  0  0  0  0  0  0  0  0
   49.3970   32.6050   42.4200 N   0  0  0  0  0  0  0  0  0  0  0  0
   45.2780   34.1880   45.9540 C   0  0  0  0  0  0  0  0  0  0  0  0
   44.3900   34.9880   46.3440 O   0  0  0  0  0  0  0  0  0  0  0  0
   45.9490   33.2270   46.7890 N   0  0  0  0  0  0  0  0  0  0  0  0
   45.2760   32.5650   47.2330 H   0  0  0  0  0  0  0  0  0  0  0  0
   46.9770   33.1780   46.9470 H   0  0  0  0  0  0  0  0  0  0  0  0
   44.0640   34.7870   40.9260 S   0  0  0  0  0  0  0  0  0  0  0  0
   42.3260   34.6540   41.3970 C   0  0  0  0  0  0  0  0  0  0  0  0
   42.2950   34.7350   42.5020 H   0  0  0  0  0  0  0  0  0  0  0  0
   41.9740   33.6460   41.0500 H   0  0  0  0  0  0  0  0  0  0  0  0
   41.4510   35.6890   40.7860 C   0  0  0  0  0  0  0  0  0  0  0  0
   42.0190   36.5080   40.2940 H   0  0  0  0  0  0  0  0  0  0  0  0
   40.8990   36.1840   41.6190 H   0  0  0  0  0  0  0  0  0  0  0  0
   42.1050   35.9910   37.8330 Cl  0  0  0  0  0  0  0  0  0  0  0  0
   40.7050   35.1840   38.4470 C   0  0  0  0  0  0  0  0  0  0  0  0
   40.5030   35.1040   39.8170 C   0  0  0  0  0  0  0  0  0  0  0  0
   39.3600   34.4420   40.2300 C   0  0  0  0  0  0  0  0  0  0  0  0
   38.4020   33.8560   39.4070 C   0  0  0  0  0  0  0  0  0  0  0  0
   38.6350   33.9540   38.0500 C   0  0  0  0  0  0  0  0  0  0  0  0
   37.4890   33.2480   36.9230 Cl  0  0  0  0  0  0  0  0  0  0  0  0
   39.7550   34.6010   37.5920 C   0  0  0  0  0  0  0  0  0  0  0  0
   39.1860   34.3700   41.3010 H   0  0  0  0  0  0  0  0  0  0  0  0
   37.5470   33.3640   39.8330 H   0  0  0  0  0  0  0  0  0  0  0  0
   39.9520   34.6860   36.5250 H   0  0  0  0  0  0  0  0  0  0  0  0
  1  6  1  0  0  0  0
  2  1  2  0  0  0  0
  2  3  1  0  0  0  0
  3  4  2  0  0  0  0
  4  5  1  0  0  0  0
  5 16  1  0  0  0  0
  6  5  2  0  0  0  0
  7  2  1  0  0  0  0
  8  3  1  0  0  0  0
  9  8  2  0  0  0  0
  9 10  1  0  0  0  0
 11  9  1  0  0  0  0
 12 11  1  0  0  0  0
 13 11  1  0  0  0  0
 13 15  2  0  0  0  0
 14 13  1  0  0  0  0
 15  8  1  0  0  0  0
 16 17  2  0  0  0  0
 16 18  1  0  0  0  0
 18 20  1  0  0  0  0
 18 19  1  0  0  0  0
 21 22  1  0  0  0  0
 21  1  1  0  0  0  0
 22 23  1  0  0  0  0
 24 22  1  0  0  0  0
 25 22  1  0  0  0  0
 25 27  1  0  0  0  0
 26 25  1  0  0  0  0
 28 29  1  0  0  0  0
 29 30  1  0  0  0  0
 30 31  2  0  0  0  0
 30 25  1  0  0  0  0
 31 36  1  0  0  0  0
 32 37  1  0  0  0  0
 32 31  1  0  0  0  0
 33 32  2  0  0  0  0
 34 33  1  0  0  0  0
 35 33  1  0  0  0  0
 35 29  2  0  0  0  0
 38 35  1  0  0  0  0
M  END
>  <minimizedAffinity>
-7.13971424

>  <minimizedRMSD>
0.824066997

$$$$
