
 OpenBabel03252508593D

 44 46  0  0  1  0  0  0  0  0999 V2000
   46.7930   34.3700   43.5050 N   0  0  0  0  0  0  0  0  0  0  0  0
   46.3570   35.5210   42.7870 C   0  0  0  0  0  0  0  0  0  0  0  0
   44.8760   35.8070   42.8820 C   0  0  0  0  0  0  0  0  0  0  0  0
   44.2350   35.4040   44.1820 C   0  0  0  0  0  0  0  0  0  0  0  0
   45.2600   34.9040   45.1720 C   0  0  0  0  0  0  0  0  0  0  0  0
   45.9600   33.7240   44.4010 C   0  0  2  0  0  0  0  0  0  0  0  0
   46.6160   35.5550   41.7290 H   0  0  0  0  0  0  0  0  0  0  0  0
   46.8580   36.4040   43.2520 H   0  0  0  0  0  0  0  0  0  0  0  0
   44.7060   36.8990   42.7650 H   0  0  0  0  0  0  0  0  0  0  0  0
   44.3570   35.3330   41.9980 H   0  0  0  0  0  0  0  0  0  0  0  0
   43.5640   34.5350   43.9610 H   0  0  0  0  0  0  0  0  0  0  0  0
   43.5700   36.1850   44.6040 H   0  0  0  0  0  0  0  0  0  0  0  0
   44.7480   34.5180   46.0590 H   0  0  0  0  0  0  0  0  0  0  0  0
   45.9970   35.6910   45.3470 H   0  0  0  0  0  0  0  0  0  0  0  0
   45.1580   33.0940   43.9660 H   0  0  0  0  0  0  0  0  0  0  0  0
   47.8100   33.6140   42.8340 C   0  0  0  0  0  0  0  0  0  0  0  0
   48.4740   34.3130   42.3200 H   0  0  0  0  0  0  0  0  0  0  0  0
   48.4240   33.0400   43.5610 H   0  0  0  0  0  0  0  0  0  0  0  0
   47.1460   32.6840   41.8600 C   0  0  0  0  0  0  0  0  0  0  0  0
   47.2370   31.6330   42.1620 H   0  0  0  0  0  0  0  0  0  0  0  0
   46.0560   32.8860   41.7810 H   0  0  0  0  0  0  0  0  0  0  0  0
   49.1850   32.1020   38.7550 C   0  0  0  0  0  0  0  0  0  0  0  0
   48.6110   31.9230   40.0270 C   0  0  0  0  0  0  0  0  0  0  0  0
   47.7490   32.8800   40.5140 C   0  0  0  0  0  0  0  0  0  0  0  0
   47.4980   33.9450   39.7430 N   0  0  0  0  0  0  0  0  0  0  0  0
   48.0540   34.1070   38.5250 C   0  0  0  0  0  0  0  0  0  0  0  0
   48.8990   33.1920   38.0220 N   0  0  0  0  0  0  0  0  0  0  0  0
   49.8390   31.2970   38.4780 H   0  0  0  0  0  0  0  0  0  0  0  0
   48.8190   31.0570   40.6480 H   0  0  0  0  0  0  0  0  0  0  0  0
   47.8600   34.9620   37.8920 H   0  0  0  0  0  0  0  0  0  0  0  0
   46.6730   33.1120   45.4210 O   0  0  0  0  0  0  0  0  0  0  0  0
   45.4610   30.9600   44.4310 O   0  0  0  0  0  0  0  0  0  0  0  0
   46.2520   31.4980   45.6320 P   0  0  2  0  0  0  0  0  0  0  0  0
   45.1360   31.4650   46.9300 O   0  0  0  0  0  0  0  0  0  0  0  0
   45.5120   31.9690   47.7050 H   0  0  0  0  0  0  0  0  0  0  0  0
   47.5430   30.5300   46.0290 O   0  0  0  0  0  0  0  0  0  0  0  0
   47.3540   29.3250   46.6960 C   0  0  0  0  0  0  0  0  0  0  0  0
   48.2440   28.6280   47.5160 C   0  0  0  0  0  0  0  0  0  0  0  0
   49.2410   28.9340   47.7580 H   0  0  0  0  0  0  0  0  0  0  0  0
   47.6820   27.5030   47.9730 N   0  0  0  0  0  0  0  0  0  0  0  0
   48.1220   26.7960   48.6020 H   0  0  0  0  0  0  0  0  0  0  0  0
   46.4460   27.4880   47.4450 C   0  0  0  0  0  0  0  0  0  0  0  0
   45.7360   26.6910   47.6340 H   0  0  0  0  0  0  0  0  0  0  0  0
   46.2230   28.5710   46.6750 N   0  0  0  0  0  0  0  0  0  0  0  0
  1  6  1  0  0  0  0
  2  3  1  0  0  0  0
  2  8  1  0  0  0  0
  2  1  1  0  0  0  0
  3  4  1  0  0  0  0
  4 12  1  0  0  0  0
  4  5  1  0  0  0  0
  5 14  1  0  0  0  0
  5 13  1  0  0  0  0
  6 15  1  6  0  0  0
  6  5  1  0  0  0  0
  6 31  1  0  0  0  0
  7  2  1  0  0  0  0
  9  3  1  0  0  0  0
 10  3  1  0  0  0  0
 11  4  1  0  0  0  0
 16  1  1  0  0  0  0
 16 18  1  0  0  0  0
 17 16  1  0  0  0  0
 19 20  1  0  0  0  0
 19 16  1  0  0  0  0
 21 19  1  0  0  0  0
 22 23  1  0  0  0  0
 23 24  2  0  0  0  0
 23 29  1  0  0  0  0
 24 19  1  0  0  0  0
 25 24  1  0  0  0  0
 26 25  2  0  0  0  0
 27 26  1  0  0  0  0
 27 22  2  0  0  0  0
 28 22  1  0  0  0  0
 30 26  1  0  0  0  0
 31 33  1  0  0  0  0
 33 32  2  6  0  0  0
 33 36  1  0  0  0  0
 33 34  1  0  0  0  0
 34 35  1  0  0  0  0
 36 37  1  0  0  0  0
 37 38  2  0  0  0  0
 38 39  1  0  0  0  0
 38 40  1  0  0  0  0
 40 41  1  0  0  0  0
 42 43  1  0  0  0  0
 42 40  1  0  0  0  0
 44 37  1  0  0  0  0
 44 42  2  0  0  0  0
M  END
>  <minimizedAffinity>
-4.2730031

>  <minimizedRMSD>
1.0629257

$$$$
