
 OpenBabel03252507553D

 43 46  0  0  1  0  0  0  0  0999 V2000
   47.1160   34.8280   42.1090 C   0  0  2  0  0  0  0  0  0  0  0  0
   46.3290   34.3410   40.8920 C   0  0  0  0  0  0  0  0  0  0  0  0
   47.5130   34.1700   39.9230 C   0  0  0  0  0  0  0  0  0  0  0  0
   48.6460   33.6900   40.7770 C   0  0  1  0  0  0  0  0  0  0  0  0
   48.1440   33.7350   42.1900 C   0  0  0  0  0  0  0  0  0  0  0  0
   47.5020   35.8070   41.8330 H   0  0  0  0  0  0  0  0  0  0  0  0
   45.6970   35.1760   40.5430 H   0  0  0  0  0  0  0  0  0  0  0  0
   45.8020   33.4010   41.0810 H   0  0  0  0  0  0  0  0  0  0  0  0
   47.7170   35.1200   39.4020 H   0  0  0  0  0  0  0  0  0  0  0  0
   47.2450   33.3460   39.2050 H   0  0  0  0  0  0  0  0  0  0  0  0
   49.5500   34.3420   40.6730 H   0  0  0  0  0  0  0  0  0  0  0  0
   47.6780   32.8050   42.5140 H   0  0  0  0  0  0  0  0  0  0  0  0
   48.9830   34.0240   42.8620 H   0  0  0  0  0  0  0  0  0  0  0  0
   44.5330   35.7960   44.6740 C   0  0  0  0  0  0  0  0  0  0  0  0
   45.2650   35.8430   43.4930 C   0  0  0  0  0  0  0  0  0  0  0  0
   46.2490   34.8690   43.3210 C   0  0  0  0  0  0  0  0  0  0  0  0
   46.4690   33.8980   44.3110 N   0  0  0  0  0  0  0  0  0  0  0  0
   45.7180   33.9090   45.4420 C   0  0  0  0  0  0  0  0  0  0  0  0
   44.7620   34.8520   45.6140 N   0  0  0  0  0  0  0  0  0  0  0  0
   43.7670   36.5470   44.8180 H   0  0  0  0  0  0  0  0  0  0  0  0
   45.1120   36.5760   42.7270 H   0  0  0  0  0  0  0  0  0  0  0  0
   45.9440   33.1370   46.1530 H   0  0  0  0  0  0  0  0  0  0  0  0
   49.0760   32.2650   40.5020 C   0  0  2  0  0  0  0  0  0  0  0  0
   49.8920   31.6400   41.5330 C   0  0  0  0  0  0  0  0  0  0  0  0
   50.4660   31.9380   40.1840 C   0  0  1  0  0  0  0  0  0  0  0  0
   48.2900   31.6550   40.0230 H   0  0  0  0  0  0  0  0  0  0  0  0
   50.2930   32.2700   42.3730 H   0  0  0  0  0  0  0  0  0  0  0  0
   49.7680   30.5860   41.8560 H   0  0  0  0  0  0  0  0  0  0  0  0
   51.1210   32.7920   39.9690 H   0  0  0  0  0  0  0  0  0  0  0  0
   50.6940   30.8340   39.3240 O   0  0  0  0  0  0  0  0  0  0  0  0
   51.1340   30.3790   36.7960 O   0  0  0  0  0  0  0  0  0  0  0  0
   51.3120   31.4180   37.8750 P   0  0  1  0  0  0  0  0  0  0  0  0
   50.4390   32.8140   37.3870 O   0  0  0  0  0  0  0  0  0  0  0  0
   49.4960   32.6980   37.6540 H   0  0  0  0  0  0  0  0  0  0  0  0
   52.9140   31.8530   37.9310 O   0  0  0  0  0  0  0  0  0  0  0  0
   53.9180   30.9450   38.2640 C   0  0  0  0  0  0  0  0  0  0  0  0
   54.9510   30.8120   37.3330 C   0  0  0  0  0  0  0  0  0  0  0  0
   55.2110   31.2430   36.3630 H   0  0  0  0  0  0  0  0  0  0  0  0
   55.7970   29.8920   37.8630 N   0  0  0  0  0  0  0  0  0  0  0  0
   56.7030   29.4960   37.4900 H   0  0  0  0  0  0  0  0  0  0  0  0
   55.3360   29.4640   39.0510 C   0  0  0  0  0  0  0  0  0  0  0  0
   55.7240   28.7480   39.7600 H   0  0  0  0  0  0  0  0  0  0  0  0
   54.1840   30.1150   39.2890 N   0  0  0  0  0  0  0  0  0  0  0  0
  1  6  1  6  0  0  0
  1  5  1  0  0  0  0
  1 16  1  0  0  0  0
  2  8  1  0  0  0  0
  2  1  1  0  0  0  0
  3  4  1  0  0  0  0
  3  2  1  0  0  0  0
  4 11  1  6  0  0  0
  4  5  1  0  0  0  0
  5 12  1  0  0  0  0
  5 13  1  0  0  0  0
  7  2  1  0  0  0  0
  9  3  1  0  0  0  0
 10  3  1  0  0  0  0
 14 20  1  0  0  0  0
 14 19  1  0  0  0  0
 15 14  2  0  0  0  0
 16 15  1  0  0  0  0
 16 17  2  0  0  0  0
 17 18  1  0  0  0  0
 18 19  2  0  0  0  0
 18 22  1  0  0  0  0
 21 15  1  0  0  0  0
 23 26  1  6  0  0  0
 23  4  1  0  0  0  0
 23 24  1  0  0  0  0
 24 28  1  0  0  0  0
 24 27  1  0  0  0  0
 25 29  1  6  0  0  0
 25 23  1  0  0  0  0
 25 24  1  0  0  0  0
 30 25  1  0  0  0  0
 32 31  2  6  0  0  0
 32 35  1  0  0  0  0
 32 30  1  0  0  0  0
 33 34  1  0  0  0  0
 33 32  1  0  0  0  0
 35 36  1  0  0  0  0
 36 43  1  0  0  0  0
 37 39  1  0  0  0  0
 37 36  2  0  0  0  0
 38 37  1  0  0  0  0
 39 41  1  0  0  0  0
 40 39  1  0  0  0  0
 41 43  2  0  0  0  0
 41 42  1  0  0  0  0
M  END
>  <minimizedAffinity>
-5.3097086

>  <minimizedRMSD>
1.00747275

$$$$
