
 OpenBabel03252507053D

 46 49  0  0  0  0  0  0  0  0999 V2000
   36.7110   27.5160   42.3310 C   0  0  0  0  0  0  0  0  0  0  0  0
   35.7550   27.2070   42.8030 H   0  0  0  0  0  0  0  0  0  0  0  0
   36.4350   28.4910   41.7990 H   0  0  0  0  0  0  0  0  0  0  0  0
   37.2140   26.5840   41.5110 N   0  0  0  0  0  0  0  0  0  0  0  0
   37.9610   25.4250   41.8780 C   0  0  0  0  0  0  0  0  0  0  0  0
   36.8830   24.3670   41.6660 C   0  0  0  0  0  0  0  0  0  0  0  0
   36.3720   24.3050   40.3080 C   0  0  0  0  0  0  0  0  0  0  0  0
   36.4710   25.4790   39.4670 C   0  0  0  0  0  0  0  0  0  0  0  0
   36.9210   26.7890   40.0730 C   0  0  0  0  0  0  0  0  0  0  0  0
   38.1590   25.4660   42.9730 H   0  0  0  0  0  0  0  0  0  0  0  0
   38.9010   25.2250   41.3960 H   0  0  0  0  0  0  0  0  0  0  0  0
   37.3370   23.3860   41.9860 H   0  0  0  0  0  0  0  0  0  0  0  0
   36.1140   24.5950   42.4490 H   0  0  0  0  0  0  0  0  0  0  0  0
   35.2880   23.9890   40.3260 H   0  0  0  0  0  0  0  0  0  0  0  0
   36.8910   23.4660   39.7570 H   0  0  0  0  0  0  0  0  0  0  0  0
   36.2430   25.5340   38.4410 H   0  0  0  0  0  0  0  0  0  0  0  0
   37.0460   28.2720   39.2150 S   0  0  0  0  0  0  0  0  0  0  0  0
   37.4390   28.2550   37.5150 C   0  0  0  0  0  0  0  0  0  0  0  0
   38.1710   27.7970   36.4600 C   0  0  0  0  0  0  0  0  0  0  0  0
   38.8650   27.0710   36.7880 H   0  0  0  0  0  0  0  0  0  0  0  0
   37.7660   28.4150   35.3480 N   0  0  0  0  0  0  0  0  0  0  0  0
   38.2900   28.1090   34.4870 H   0  0  0  0  0  0  0  0  0  0  0  0
   36.7830   29.2690   35.6590 C   0  0  0  0  0  0  0  0  0  0  0  0
   36.4230   29.7950   34.7750 H   0  0  0  0  0  0  0  0  0  0  0  0
   36.5660   29.1830   37.0060 N   0  0  0  0  0  0  0  0  0  0  0  0
   37.6520   27.9380   43.4010 C   0  0  0  0  0  0  0  0  0  0  0  0
   37.0520   28.4960   44.1650 H   0  0  0  0  0  0  0  0  0  0  0  0
   38.1490   27.0480   43.8540 H   0  0  0  0  0  0  0  0  0  0  0  0
   38.6330   28.8690   42.8170 C   0  0  0  0  0  0  0  0  0  0  0  0
   39.9810   28.6150   42.9200 C   0  0  0  0  0  0  0  0  0  0  0  0
   40.8690   29.5260   42.3640 C   0  0  0  0  0  0  0  0  0  0  0  0
   40.3550   30.6290   41.7390 N   0  0  0  0  0  0  0  0  0  0  0  0
   39.0450   30.8380   41.6580 C   0  0  0  0  0  0  0  0  0  0  0  0
   38.2080   29.9500   42.2020 N   0  0  0  0  0  0  0  0  0  0  0  0
   40.5710   27.8210   43.3440 H   0  0  0  0  0  0  0  0  0  0  0  0
   41.9630   29.4940   42.3480 H   0  0  0  0  0  0  0  0  0  0  0  0
   38.5850   32.0290   40.9480 C   0  0  0  0  0  0  0  0  0  0  0  0
   37.4970   31.9620   40.0830 C   0  0  0  0  0  0  0  0  0  0  0  0
   37.0790   33.0890   39.4130 C   0  0  0  0  0  0  0  0  0  0  0  0
   37.8120   34.2200   39.6760 C   0  0  0  0  0  0  0  0  0  0  0  0
   38.9020   34.3400   40.5280 C   0  0  0  0  0  0  0  0  0  0  0  0
   39.2440   33.1800   41.1460 N   0  0  0  0  0  0  0  0  0  0  0  0
   36.9560   31.0270   39.9180 H   0  0  0  0  0  0  0  0  0  0  0  0
   36.2460   33.1280   38.7240 H   0  0  0  0  0  0  0  0  0  0  0  0
   37.5180   35.1410   39.1670 H   0  0  0  0  0  0  0  0  0  0  0  0
   39.4150   35.2740   40.6710 H   0  0  0  0  0  0  0  0  0  0  0  0
  1  2  1  0  0  0  0
  1 26  1  0  0  0  0
  3  1  1  0  0  0  0
  4  5  1  0  0  0  0
  4  1  1  0  0  0  0
  5 10  1  0  0  0  0
  6  5  1  0  0  0  0
  6 12  1  0  0  0  0
  6 13  1  0  0  0  0
  7 14  1  0  0  0  0
  7  6  1  0  0  0  0
  8  9  2  0  0  0  0
  8  7  1  0  0  0  0
  9  4  1  0  0  0  0
 11  5  1  0  0  0  0
 15  7  1  0  0  0  0
 16  8  1  0  0  0  0
 17  9  1  0  0  0  0
 18 17  1  0  0  0  0
 19 20  1  0  0  0  0
 19 18  2  0  0  0  0
 21 23  1  0  0  0  0
 21 19  1  0  0  0  0
 22 21  1  0  0  0  0
 23 25  2  0  0  0  0
 24 23  1  0  0  0  0
 25 18  1  0  0  0  0
 26 28  1  0  0  0  0
 26 27  1  0  0  0  0
 29 30  1  0  0  0  0
 29 26  1  0  0  0  0
 30 35  1  0  0  0  0
 31 30  2  0  0  0  0
 32 31  1  0  0  0  0
 33 32  2  0  0  0  0
 33 34  1  0  0  0  0
 34 29  2  0  0  0  0
 36 31  1  0  0  0  0
 37 42  1  0  0  0  0
 37 33  1  0  0  0  0
 38 37  2  0  0  0  0
 39 40  2  0  0  0  0
 39 38  1  0  0  0  0
 40 41  1  0  0  0  0
 41 46  1  0  0  0  0
 41 42  2  0  0  0  0
 43 38  1  0  0  0  0
 44 39  1  0  0  0  0
 45 40  1  0  0  0  0
M  END
>  <minimizedAffinity>
-5.91983604

$$$$

 OpenBabel03252507053D

 46 49  0  0  0  0  0  0  0  0999 V2000
   40.0440   28.0680   40.5370 C   0  0  0  0  0  0  0  0  0  0  0  0
   41.1520   28.0340   40.5930 H   0  0  0  0  0  0  0  0  0  0  0  0
   39.8050   29.1620   40.7730 H   0  0  0  0  0  0  0  0  0  0  0  0
   39.4520   27.2010   41.3690 N   0  0  0  0  0  0  0  0  0  0  0  0
   39.1980   25.8160   41.1340 C   0  0  0  0  0  0  0  0  0  0  0  0
   40.2830   25.2190   42.0230 C   0  0  0  0  0  0  0  0  0  0  0  0
   40.1700   25.5840   43.4240 C   0  0  0  0  0  0  0  0  0  0  0  0
   39.4750   26.8050   43.7760 C   0  0  0  0  0  0  0  0  0  0  0  0
   39.0570   27.7610   42.6830 C   0  0  0  0  0  0  0  0  0  0  0  0
   39.4800   25.5810   40.0820 H   0  0  0  0  0  0  0  0  0  0  0  0
   38.2100   25.4240   41.2900 H   0  0  0  0  0  0  0  0  0  0  0  0
   40.2290   24.1020   41.8790 H   0  0  0  0  0  0  0  0  0  0  0  0
   41.2440   25.5240   41.5330 H   0  0  0  0  0  0  0  0  0  0  0  0
   41.1980   25.6330   43.8870 H   0  0  0  0  0  0  0  0  0  0  0  0
   39.6590   24.7470   43.9840 H   0  0  0  0  0  0  0  0  0  0  0  0
   39.2280   27.1260   44.7470 H   0  0  0  0  0  0  0  0  0  0  0  0
   38.2660   29.2630   42.9460 S   0  0  0  0  0  0  0  0  0  0  0  0
   36.9970   29.7720   41.8630 C   0  0  0  0  0  0  0  0  0  0  0  0
   36.2950   30.7450   41.2130 C   0  0  0  0  0  0  0  0  0  0  0  0
   36.6910   31.6960   41.4490 H   0  0  0  0  0  0  0  0  0  0  0  0
   35.3340   30.1740   40.4830 N   0  0  0  0  0  0  0  0  0  0  0  0
   34.7480   30.8690   39.9500 H   0  0  0  0  0  0  0  0  0  0  0  0
   35.3960   28.8460   40.6460 C   0  0  0  0  0  0  0  0  0  0  0  0
   34.6250   28.3420   40.0640 H   0  0  0  0  0  0  0  0  0  0  0  0
   36.4260   28.5780   41.5030 N   0  0  0  0  0  0  0  0  0  0  0  0
   39.6360   27.9040   39.1180 C   0  0  0  0  0  0  0  0  0  0  0  0
   40.5750   27.8060   38.5150 H   0  0  0  0  0  0  0  0  0  0  0  0
   38.9900   27.0020   39.0010 H   0  0  0  0  0  0  0  0  0  0  0  0
   38.9410   29.1290   38.6890 C   0  0  0  0  0  0  0  0  0  0  0  0
   37.8620   29.0560   37.8380 C   0  0  0  0  0  0  0  0  0  0  0  0
   37.2440   30.2380   37.4520 C   0  0  0  0  0  0  0  0  0  0  0  0
   37.7410   31.4160   37.9410 N   0  0  0  0  0  0  0  0  0  0  0  0
   38.7840   31.4450   38.7630 C   0  0  0  0  0  0  0  0  0  0  0  0
   39.3650   30.2960   39.1210 N   0  0  0  0  0  0  0  0  0  0  0  0
   37.3230   28.2530   37.3670 H   0  0  0  0  0  0  0  0  0  0  0  0
   36.3850   30.3770   36.7880 H   0  0  0  0  0  0  0  0  0  0  0  0
   39.2280   32.7450   39.2580 C   0  0  0  0  0  0  0  0  0  0  0  0
   38.3460   33.5860   39.9310 C   0  0  0  0  0  0  0  0  0  0  0  0
   38.7750   34.8130   40.3840 C   0  0  0  0  0  0  0  0  0  0  0  0
   40.0910   35.0990   40.1150 C   0  0  0  0  0  0  0  0  0  0  0  0
   41.0100   34.2970   39.4510 C   0  0  0  0  0  0  0  0  0  0  0  0
   40.5010   33.1070   39.0390 N   0  0  0  0  0  0  0  0  0  0  0  0
   37.3090   33.2970   40.1120 H   0  0  0  0  0  0  0  0  0  0  0  0
   38.1600   35.5270   40.9140 H   0  0  0  0  0  0  0  0  0  0  0  0
   40.4780   36.0620   40.4560 H   0  0  0  0  0  0  0  0  0  0  0  0
   42.0250   34.6080   39.2860 H   0  0  0  0  0  0  0  0  0  0  0  0
  1  2  1  0  0  0  0
  1  3  1  0  0  0  0
  1  4  1  0  0  0  0
  4  9  1  0  0  0  0
  5 11  1  0  0  0  0
  5  4  1  0  0  0  0
  5  6  1  0  0  0  0
  6  7  1  0  0  0  0
  7  8  1  0  0  0  0
  7 14  1  0  0  0  0
  7 15  1  0  0  0  0
  8 16  1  0  0  0  0
  9 17  1  0  0  0  0
  9  8  2  0  0  0  0
 10  5  1  0  0  0  0
 12  6  1  0  0  0  0
 13  6  1  0  0  0  0
 18 17  1  0  0  0  0
 19 20  1  0  0  0  0
 19 18  2  0  0  0  0
 21 23  1  0  0  0  0
 21 19  1  0  0  0  0
 22 21  1  0  0  0  0
 23 25  2  0  0  0  0
 24 23  1  0  0  0  0
 25 18  1  0  0  0  0
 26  1  1  0  0  0  0
 27 26  1  0  0  0  0
 28 26  1  0  0  0  0
 29 26  1  0  0  0  0
 29 34  1  0  0  0  0
 30 29  2  0  0  0  0
 31 30  1  0  0  0  0
 31 32  2  0  0  0  0
 32 33  1  0  0  0  0
 33 34  2  0  0  0  0
 33 37  1  0  0  0  0
 35 30  1  0  0  0  0
 36 31  1  0  0  0  0
 37 38  1  0  0  0  0
 38 43  1  0  0  0  0
 38 39  2  0  0  0  0
 39 44  1  0  0  0  0
 40 39  1  0  0  0  0
 40 45  1  0  0  0  0
 41 40  2  0  0  0  0
 42 37  2  0  0  0  0
 42 41  1  0  0  0  0
 46 41  1  0  0  0  0
M  END
>  <minimizedAffinity>
-5.90501165

$$$$

 OpenBabel03252507053D

 46 49  0  0  0  0  0  0  0  0999 V2000
   40.0770   29.9410   40.7630 C   0  0  0  0  0  0  0  0  0  0  0  0
   41.1260   30.2860   40.6500 H   0  0  0  0  0  0  0  0  0  0  0  0
   40.1390   28.8300   40.4970 H   0  0  0  0  0  0  0  0  0  0  0  0
   39.2170   30.6260   39.9960 N   0  0  0  0  0  0  0  0  0  0  0  0
   38.2890   30.0920   39.0530 C   0  0  0  0  0  0  0  0  0  0  0  0
   37.0030   30.2740   39.8520 C   0  0  0  0  0  0  0  0  0  0  0  0
   36.7170   31.6520   40.2090 C   0  0  0  0  0  0  0  0  0  0  0  0
   37.8100   32.5970   40.2890 C   0  0  0  0  0  0  0  0  0  0  0  0
   39.2330   32.0950   40.1920 C   0  0  0  0  0  0  0  0  0  0  0  0
   38.4630   28.9940   38.9710 H   0  0  0  0  0  0  0  0  0  0  0  0
   38.2660   30.4820   38.0520 H   0  0  0  0  0  0  0  0  0  0  0  0
   36.1780   29.8250   39.2280 H   0  0  0  0  0  0  0  0  0  0  0  0
   37.1150   29.5760   40.7220 H   0  0  0  0  0  0  0  0  0  0  0  0
   36.1680   31.6810   41.1950 H   0  0  0  0  0  0  0  0  0  0  0  0
   35.9730   32.0770   39.4720 H   0  0  0  0  0  0  0  0  0  0  0  0
   37.7290   33.6370   40.4270 H   0  0  0  0  0  0  0  0  0  0  0  0
   40.6310   33.0860   40.3120 S   0  0  0  0  0  0  0  0  0  0  0  0
   41.4400   33.6170   38.8610 C   0  0  0  0  0  0  0  0  0  0  0  0
   41.9310   34.6020   38.0550 C   0  0  0  0  0  0  0  0  0  0  0  0
   41.7700   35.5480   38.5000 H   0  0  0  0  0  0  0  0  0  0  0  0
   42.4620   34.0480   36.9630 N   0  0  0  0  0  0  0  0  0  0  0  0
   42.8640   34.7530   36.2920 H   0  0  0  0  0  0  0  0  0  0  0  0
   42.3260   32.7180   37.0420 C   0  0  0  0  0  0  0  0  0  0  0  0
   42.7490   32.2260   36.1660 H   0  0  0  0  0  0  0  0  0  0  0  0
   41.6900   32.4320   38.2180 N   0  0  0  0  0  0  0  0  0  0  0  0
   39.7260   29.9530   42.2060 C   0  0  0  0  0  0  0  0  0  0  0  0
   40.6760   29.7850   42.7760 H   0  0  0  0  0  0  0  0  0  0  0  0
   39.2600   30.9270   42.4850 H   0  0  0  0  0  0  0  0  0  0  0  0
   38.8230   28.8210   42.4750 C   0  0  0  0  0  0  0  0  0  0  0  0
   37.8310   28.9310   43.4210 C   0  0  0  0  0  0  0  0  0  0  0  0
   37.0100   27.8350   43.6490 C   0  0  0  0  0  0  0  0  0  0  0  0
   37.2300   26.7010   42.9150 N   0  0  0  0  0  0  0  0  0  0  0  0
   38.1980   26.6340   42.0070 C   0  0  0  0  0  0  0  0  0  0  0  0
   38.9780   27.7000   41.8060 N   0  0  0  0  0  0  0  0  0  0  0  0
   37.4930   29.7160   44.0750 H   0  0  0  0  0  0  0  0  0  0  0  0
   36.1790   27.7350   44.3540 H   0  0  0  0  0  0  0  0  0  0  0  0
   38.3410   25.3930   41.2510 C   0  0  0  0  0  0  0  0  0  0  0  0
   37.6240   24.2560   41.6120 C   0  0  0  0  0  0  0  0  0  0  0  0
   37.7750   23.0900   40.8970 C   0  0  0  0  0  0  0  0  0  0  0  0
   38.6600   23.1670   39.8500 C   0  0  0  0  0  0  0  0  0  0  0  0
   39.3980   24.2730   39.4490 C   0  0  0  0  0  0  0  0  0  0  0  0
   39.1870   25.3780   40.2100 N   0  0  0  0  0  0  0  0  0  0  0  0
   36.9340   24.2630   42.4590 H   0  0  0  0  0  0  0  0  0  0  0  0
   37.2600   22.1630   41.1070 H   0  0  0  0  0  0  0  0  0  0  0  0
   38.8150   22.2660   39.2520 H   0  0  0  0  0  0  0  0  0  0  0  0
   40.0700   24.2380   38.6110 H   0  0  0  0  0  0  0  0  0  0  0  0
  1 26  1  0  0  0  0
  2  1  1  0  0  0  0
  3  1  1  0  0  0  0
  4  9  1  0  0  0  0
  4  1  1  0  0  0  0
  5  6  1  0  0  0  0
  5  4  1  0  0  0  0
  6  7  1  0  0  0  0
  6 13  1  0  0  0  0
  7  8  1  0  0  0  0
  7 14  1  0  0  0  0
  8 16  1  0  0  0  0
  9  8  2  0  0  0  0
  9 17  1  0  0  0  0
 10  5  1  0  0  0  0
 11  5  1  0  0  0  0
 12  6  1  0  0  0  0
 15  7  1  0  0  0  0
 18 17  1  0  0  0  0
 19 20  1  0  0  0  0
 19 18  2  0  0  0  0
 21 23  1  0  0  0  0
 21 19  1  0  0  0  0
 22 21  1  0  0  0  0
 23 25  2  0  0  0  0
 24 23  1  0  0  0  0
 25 18  1  0  0  0  0
 26 29  1  0  0  0  0
 26 28  1  0  0  0  0
 26 27  1  0  0  0  0
 29 30  1  0  0  0  0
 30 31  2  0  0  0  0
 30 35  1  0  0  0  0
 31 36  1  0  0  0  0
 32 31  1  0  0  0  0
 33 32  2  0  0  0  0
 34 33  1  0  0  0  0
 34 29  2  0  0  0  0
 37 38  1  0  0  0  0
 37 33  1  0  0  0  0
 38 43  1  0  0  0  0
 39 44  1  0  0  0  0
 39 38  2  0  0  0  0
 40 39  1  0  0  0  0
 41 40  2  0  0  0  0
 41 42  1  0  0  0  0
 42 37  2  0  0  0  0
 45 40  1  0  0  0  0
 46 41  1  0  0  0  0
M  END
>  <minimizedAffinity>
-5.81167936

$$$$

 OpenBabel03252507053D

 46 49  0  0  0  0  0  0  0  0999 V2000
   38.4210   26.5460   39.5550 C   0  0  0  0  0  0  0  0  0  0  0  0
   39.4020   26.3120   39.0910 H   0  0  0  0  0  0  0  0  0  0  0  0
   38.6940   27.2870   40.3830 H   0  0  0  0  0  0  0  0  0  0  0  0
   37.7830   25.4560   40.0050 N   0  0  0  0  0  0  0  0  0  0  0  0
   36.6590   24.8080   39.4100 C   0  0  0  0  0  0  0  0  0  0  0  0
   37.3660   23.5880   38.8280 C   0  0  0  0  0  0  0  0  0  0  0  0
   38.0370   22.7630   39.8170 C   0  0  0  0  0  0  0  0  0  0  0  0
   38.4480   23.3640   41.0680 C   0  0  0  0  0  0  0  0  0  0  0  0
   38.3480   24.8630   41.2390 C   0  0  0  0  0  0  0  0  0  0  0  0
   36.3160   25.4220   38.5460 H   0  0  0  0  0  0  0  0  0  0  0  0
   35.7930   24.5940   40.0080 H   0  0  0  0  0  0  0  0  0  0  0  0
   36.5810   23.0070   38.2650 H   0  0  0  0  0  0  0  0  0  0  0  0
   38.0350   24.0080   38.0330 H   0  0  0  0  0  0  0  0  0  0  0  0
   38.9480   22.2830   39.3540 H   0  0  0  0  0  0  0  0  0  0  0  0
   37.3720   21.8880   40.0800 H   0  0  0  0  0  0  0  0  0  0  0  0
   38.8390   22.8600   41.9050 H   0  0  0  0  0  0  0  0  0  0  0  0
   38.8350   25.7220   42.6450 S   0  0  0  0  0  0  0  0  0  0  0  0
   38.0370   27.2160   43.0630 C   0  0  0  0  0  0  0  0  0  0  0  0
   36.9530   27.9080   43.5160 C   0  0  0  0  0  0  0  0  0  0  0  0
   36.1710   27.2400   43.7590 H   0  0  0  0  0  0  0  0  0  0  0  0
   37.2360   29.2130   43.5100 N   0  0  0  0  0  0  0  0  0  0  0  0
   36.4410   29.8140   43.8500 H   0  0  0  0  0  0  0  0  0  0  0  0
   38.4860   29.3840   43.0600 C   0  0  0  0  0  0  0  0  0  0  0  0
   38.7570   30.4390   43.0400 H   0  0  0  0  0  0  0  0  0  0  0  0
   39.0000   28.1490   42.7770 N   0  0  0  0  0  0  0  0  0  0  0  0
   37.6210   27.3490   38.5940 C   0  0  0  0  0  0  0  0  0  0  0  0
   38.3300   27.7290   37.8150 H   0  0  0  0  0  0  0  0  0  0  0  0
   36.8210   26.7220   38.1350 H   0  0  0  0  0  0  0  0  0  0  0  0
   37.0600   28.5070   39.3100 C   0  0  0  0  0  0  0  0  0  0  0  0
   35.8080   28.4360   39.8750 C   0  0  0  0  0  0  0  0  0  0  0  0
   35.3150   29.5570   40.5310 C   0  0  0  0  0  0  0  0  0  0  0  0
   36.1040   30.6730   40.5830 N   0  0  0  0  0  0  0  0  0  0  0  0
   37.3100   30.7020   40.0260 C   0  0  0  0  0  0  0  0  0  0  0  0
   37.7640   29.6140   39.3980 N   0  0  0  0  0  0  0  0  0  0  0  0
   35.0570   27.6700   39.9570 H   0  0  0  0  0  0  0  0  0  0  0  0
   34.3510   29.6880   41.0340 H   0  0  0  0  0  0  0  0  0  0  0  0
   38.0940   31.9270   40.1550 C   0  0  0  0  0  0  0  0  0  0  0  0
   37.5110   33.1690   39.9190 C   0  0  0  0  0  0  0  0  0  0  0  0
   38.2620   34.3160   40.0350 C   0  0  0  0  0  0  0  0  0  0  0  0
   39.5740   34.1120   40.3870 C   0  0  0  0  0  0  0  0  0  0  0  0
   40.2030   32.8990   40.6330 C   0  0  0  0  0  0  0  0  0  0  0  0
   39.3860   31.8220   40.4960 N   0  0  0  0  0  0  0  0  0  0  0  0
   36.4590   33.2610   39.6410 H   0  0  0  0  0  0  0  0  0  0  0  0
   37.8920   35.3190   39.8710 H   0  0  0  0  0  0  0  0  0  0  0  0
   40.2110   34.9940   40.4910 H   0  0  0  0  0  0  0  0  0  0  0  0
   41.2410   32.8380   40.9050 H   0  0  0  0  0  0  0  0  0  0  0  0
  1  4  1  0  0  0  0
  1  3  1  0  0  0  0
  2  1  1  0  0  0  0
  4  9  1  0  0  0  0
  5  4  1  0  0  0  0
  5 11  1  0  0  0  0
  6  5  1  0  0  0  0
  6  7  1  0  0  0  0
  7 15  1  0  0  0  0
  7  8  1  0  0  0  0
  8  9  2  0  0  0  0
  8 16  1  0  0  0  0
  9 17  1  0  0  0  0
 10  5  1  0  0  0  0
 12  6  1  0  0  0  0
 13  6  1  0  0  0  0
 14  7  1  0  0  0  0
 17 18  1  0  0  0  0
 18 19  2  0  0  0  0
 19 20  1  0  0  0  0
 21 19  1  0  0  0  0
 21 22  1  0  0  0  0
 23 21  1  0  0  0  0
 24 23  1  0  0  0  0
 25 23  2  0  0  0  0
 25 18  1  0  0  0  0
 26 29  1  0  0  0  0
 26  1  1  0  0  0  0
 27 26  1  0  0  0  0
 28 26  1  0  0  0  0
 29 34  2  0  0  0  0
 29 30  1  0  0  0  0
 30 35  1  0  0  0  0
 30 31  2  0  0  0  0
 31 32  1  0  0  0  0
 31 36  1  0  0  0  0
 33 37  1  0  0  0  0
 33 32  2  0  0  0  0
 34 33  1  0  0  0  0
 37 42  1  0  0  0  0
 38 39  1  0  0  0  0
 38 37  2  0  0  0  0
 39 40  2  0  0  0  0
 40 45  1  0  0  0  0
 40 41  1  0  0  0  0
 41 46  1  0  0  0  0
 42 41  2  0  0  0  0
 43 38  1  0  0  0  0
 44 39  1  0  0  0  0
M  END
>  <minimizedAffinity>
-5.69061518

$$$$

 OpenBabel03252507053D

 46 49  0  0  0  0  0  0  0  0999 V2000
   37.7600   28.6400   39.7160 C   0  0  0  0  0  0  0  0  0  0  0  0
   37.5920   27.5640   39.5040 H   0  0  0  0  0  0  0  0  0  0  0  0
   38.8840   28.7670   39.5400 H   0  0  0  0  0  0  0  0  0  0  0  0
   37.3700   28.9970   40.9470 N   0  0  0  0  0  0  0  0  0  0  0  0
   36.1420   28.6610   41.5930 C   0  0  0  0  0  0  0  0  0  0  0  0
   36.6630   27.6070   42.5650 C   0  0  0  0  0  0  0  0  0  0  0  0
   37.6720   28.0990   43.4870 C   0  0  0  0  0  0  0  0  0  0  0  0
   38.4590   29.2550   43.1140 C   0  0  0  0  0  0  0  0  0  0  0  0
   38.3520   29.8030   41.7090 C   0  0  0  0  0  0  0  0  0  0  0  0
   35.4940   28.1280   40.8600 H   0  0  0  0  0  0  0  0  0  0  0  0
   35.5450   29.4370   42.0360 H   0  0  0  0  0  0  0  0  0  0  0  0
   35.7610   27.2070   43.1100 H   0  0  0  0  0  0  0  0  0  0  0  0
   36.9970   26.7640   41.9080 H   0  0  0  0  0  0  0  0  0  0  0  0
   38.3900   27.2650   43.7410 H   0  0  0  0  0  0  0  0  0  0  0  0
   37.1810   28.3440   44.4740 H   0  0  0  0  0  0  0  0  0  0  0  0
   39.1380   29.7740   43.7280 H   0  0  0  0  0  0  0  0  0  0  0  0
   39.2510   31.1380   41.1080 S   0  0  0  0  0  0  0  0  0  0  0  0
   38.4120   32.5080   40.4300 C   0  0  0  0  0  0  0  0  0  0  0  0
   37.3750   33.0520   39.7310 C   0  0  0  0  0  0  0  0  0  0  0  0
   36.7030   32.2920   39.4310 H   0  0  0  0  0  0  0  0  0  0  0  0
   37.5440   34.3740   39.6570 N   0  0  0  0  0  0  0  0  0  0  0  0
   36.7760   34.8640   39.1280 H   0  0  0  0  0  0  0  0  0  0  0  0
   38.6750   34.7030   40.2950 C   0  0  0  0  0  0  0  0  0  0  0  0
   38.8500   35.7780   40.2580 H   0  0  0  0  0  0  0  0  0  0  0  0
   39.2290   33.5520   40.7830 N   0  0  0  0  0  0  0  0  0  0  0  0
   37.1280   29.4410   38.6360 C   0  0  0  0  0  0  0  0  0  0  0  0
   36.7010   30.3590   39.1140 H   0  0  0  0  0  0  0  0  0  0  0  0
   37.8820   29.7090   37.8590 H   0  0  0  0  0  0  0  0  0  0  0  0
   36.0170   28.6590   38.0670 C   0  0  0  0  0  0  0  0  0  0  0  0
   36.0560   27.2840   38.0780 C   0  0  0  0  0  0  0  0  0  0  0  0
   34.9910   26.5890   37.5200 C   0  0  0  0  0  0  0  0  0  0  0  0
   33.9560   27.3100   36.9910 N   0  0  0  0  0  0  0  0  0  0  0  0
   33.9540   28.6390   37.0020 C   0  0  0  0  0  0  0  0  0  0  0  0
   34.9890   29.2880   37.5410 N   0  0  0  0  0  0  0  0  0  0  0  0
   36.7500   26.5500   38.4480 H   0  0  0  0  0  0  0  0  0  0  0  0
   34.8480   25.5070   37.4370 H   0  0  0  0  0  0  0  0  0  0  0  0
   32.7940   29.3250   36.4400 C   0  0  0  0  0  0  0  0  0  0  0  0
   31.7080   29.6580   37.2460 C   0  0  0  0  0  0  0  0  0  0  0  0
   30.6170   30.2960   36.7020 C   0  0  0  0  0  0  0  0  0  0  0  0
   30.7120   30.5540   35.3560 C   0  0  0  0  0  0  0  0  0  0  0  0
   31.7690   30.2450   34.5100 C   0  0  0  0  0  0  0  0  0  0  0  0
   32.8010   29.6160   35.1310 N   0  0  0  0  0  0  0  0  0  0  0  0
   31.6970   29.4240   38.3120 H   0  0  0  0  0  0  0  0  0  0  0  0
   29.7340   30.5910   37.2510 H   0  0  0  0  0  0  0  0  0  0  0  0
   29.8690   31.0600   34.8780 H   0  0  0  0  0  0  0  0  0  0  0  0
   31.7530   30.4870   33.4630 H   0  0  0  0  0  0  0  0  0  0  0  0
  1  4  1  0  0  0  0
  2  1  1  0  0  0  0
  3  1  1  0  0  0  0
  4  5  1  0  0  0  0
  4  9  1  0  0  0  0
  5 11  1  0  0  0  0
  5  6  1  0  0  0  0
  6 12  1  0  0  0  0
  6  7  1  0  0  0  0
  7 14  1  0  0  0  0
  7 15  1  0  0  0  0
  8  7  1  0  0  0  0
  8 16  1  0  0  0  0
  9  8  2  0  0  0  0
 10  5  1  0  0  0  0
 13  6  1  0  0  0  0
 17  9  1  0  0  0  0
 18 25  1  0  0  0  0
 18 17  1  0  0  0  0
 19 18  2  0  0  0  0
 20 19  1  0  0  0  0
 21 19  1  0  0  0  0
 21 23  1  0  0  0  0
 22 21  1  0  0  0  0
 23 25  2  0  0  0  0
 24 23  1  0  0  0  0
 26 27  1  0  0  0  0
 26  1  1  0  0  0  0
 28 26  1  0  0  0  0
 29 30  1  0  0  0  0
 29 26  1  0  0  0  0
 30 35  1  0  0  0  0
 31 30  2  0  0  0  0
 32 33  2  0  0  0  0
 32 31  1  0  0  0  0
 33 34  1  0  0  0  0
 34 29  2  0  0  0  0
 36 31  1  0  0  0  0
 37 33  1  0  0  0  0
 37 38  1  0  0  0  0
 38 43  1  0  0  0  0
 39 38  2  0  0  0  0
 39 44  1  0  0  0  0
 40 39  1  0  0  0  0
 41 42  1  0  0  0  0
 41 40  2  0  0  0  0
 42 37  2  0  0  0  0
 45 40  1  0  0  0  0
 46 41  1  0  0  0  0
M  END
>  <minimizedAffinity>
-5.65789747

$$$$

 OpenBabel03252507053D

 46 49  0  0  0  0  0  0  0  0999 V2000
   40.0770   32.2700   41.4280 C   0  0  0  0  0  0  0  0  0  0  0  0
   39.3810   31.4220   41.6040 H   0  0  0  0  0  0  0  0  0  0  0  0
   39.8510   32.9760   42.3000 H   0  0  0  0  0  0  0  0  0  0  0  0
   39.9140   32.8380   40.2260 N   0  0  0  0  0  0  0  0  0  0  0  0
   39.8780   34.2340   39.9290 C   0  0  0  0  0  0  0  0  0  0  0  0
   41.2580   34.3810   39.2990 C   0  0  0  0  0  0  0  0  0  0  0  0
   41.4630   33.5570   38.1200 C   0  0  0  0  0  0  0  0  0  0  0  0
   40.6680   32.3590   37.9560 C   0  0  0  0  0  0  0  0  0  0  0  0
   39.7900   31.8890   39.0940 C   0  0  0  0  0  0  0  0  0  0  0  0
   39.9020   34.7980   40.8900 H   0  0  0  0  0  0  0  0  0  0  0  0
   39.0640   34.6320   39.3510 H   0  0  0  0  0  0  0  0  0  0  0  0
   41.3840   35.4770   39.0670 H   0  0  0  0  0  0  0  0  0  0  0  0
   41.9710   34.1830   40.1410 H   0  0  0  0  0  0  0  0  0  0  0  0
   42.5490   33.2580   38.0520 H   0  0  0  0  0  0  0  0  0  0  0  0
   41.2960   34.1870   37.1970 H   0  0  0  0  0  0  0  0  0  0  0  0
   40.6380   31.7390   37.1050 H   0  0  0  0  0  0  0  0  0  0  0  0
   38.8270   30.4670   39.0650 S   0  0  0  0  0  0  0  0  0  0  0  0
   37.3450   30.4100   39.9840 C   0  0  0  0  0  0  0  0  0  0  0  0
   36.4570   30.9610   40.8610 C   0  0  0  0  0  0  0  0  0  0  0  0
   36.7900   31.9200   41.1580 H   0  0  0  0  0  0  0  0  0  0  0  0
   35.4490   30.1070   41.0550 N   0  0  0  0  0  0  0  0  0  0  0  0
   34.7200   30.4680   41.7240 H   0  0  0  0  0  0  0  0  0  0  0  0
   35.6650   29.0080   40.3200 C   0  0  0  0  0  0  0  0  0  0  0  0
   34.8610   28.2840   40.4510 H   0  0  0  0  0  0  0  0  0  0  0  0
   36.8420   29.1790   39.6470 N   0  0  0  0  0  0  0  0  0  0  0  0
   41.4640   31.8050   41.6840 C   0  0  0  0  0  0  0  0  0  0  0  0
   41.9760   31.7340   40.6900 H   0  0  0  0  0  0  0  0  0  0  0  0
   41.9950   32.5180   42.3570 H   0  0  0  0  0  0  0  0  0  0  0  0
   41.4020   30.4530   42.2670 C   0  0  0  0  0  0  0  0  0  0  0  0
   42.5340   29.8610   42.7740 C   0  0  0  0  0  0  0  0  0  0  0  0
   42.4300   28.5810   43.3040 C   0  0  0  0  0  0  0  0  0  0  0  0
   41.2030   27.9770   43.2940 N   0  0  0  0  0  0  0  0  0  0  0  0
   40.1300   28.5840   42.7950 C   0  0  0  0  0  0  0  0  0  0  0  0
   40.2530   29.8140   42.2900 N   0  0  0  0  0  0  0  0  0  0  0  0
   43.5610   30.1640   42.8880 H   0  0  0  0  0  0  0  0  0  0  0  0
   43.2130   27.9570   43.7460 H   0  0  0  0  0  0  0  0  0  0  0  0
   38.8560   27.8740   42.8520 C   0  0  0  0  0  0  0  0  0  0  0  0
   37.8130   28.3520   43.6410 C   0  0  0  0  0  0  0  0  0  0  0  0
   36.6190   27.6690   43.6930 C   0  0  0  0  0  0  0  0  0  0  0  0
   36.5730   26.5300   42.9260 C   0  0  0  0  0  0  0  0  0  0  0  0
   37.5820   26.0110   42.1250 C   0  0  0  0  0  0  0  0  0  0  0  0
   38.7220   26.7490   42.1340 N   0  0  0  0  0  0  0  0  0  0  0  0
   37.9150   29.2670   44.2270 H   0  0  0  0  0  0  0  0  0  0  0  0
   35.7590   27.9670   44.2760 H   0  0  0  0  0  0  0  0  0  0  0  0
   35.6460   25.9530   42.9350 H   0  0  0  0  0  0  0  0  0  0  0  0
   37.4530   25.1080   41.5570 H   0  0  0  0  0  0  0  0  0  0  0  0
  1  2  1  0  0  0  0
  1 26  1  0  0  0  0
  1  3  1  0  0  0  0
  4  1  1  0  0  0  0
  5  4  1  0  0  0  0
  5 10  1  0  0  0  0
  6  5  1  0  0  0  0
  6 13  1  0  0  0  0
  7  6  1  0  0  0  0
  8  7  1  0  0  0  0
  8  9  2  0  0  0  0
  9  4  1  0  0  0  0
 11  5  1  0  0  0  0
 12  6  1  0  0  0  0
 14  7  1  0  0  0  0
 15  7  1  0  0  0  0
 16  8  1  0  0  0  0
 17  9  1  0  0  0  0
 17 18  1  0  0  0  0
 18 19  2  0  0  0  0
 19 21  1  0  0  0  0
 19 20  1  0  0  0  0
 21 22  1  0  0  0  0
 23 24  1  0  0  0  0
 23 21  1  0  0  0  0
 25 18  1  0  0  0  0
 25 23  2  0  0  0  0
 26 29  1  0  0  0  0
 26 28  1  0  0  0  0
 27 26  1  0  0  0  0
 29 34  2  0  0  0  0
 29 30  1  0  0  0  0
 30 35  1  0  0  0  0
 30 31  2  0  0  0  0
 31 36  1  0  0  0  0
 32 31  1  0  0  0  0
 33 37  1  0  0  0  0
 33 32  2  0  0  0  0
 34 33  1  0  0  0  0
 37 38  1  0  0  0  0
 38 39  2  0  0  0  0
 38 43  1  0  0  0  0
 39 44  1  0  0  0  0
 40 45  1  0  0  0  0
 40 39  1  0  0  0  0
 41 42  1  0  0  0  0
 41 40  2  0  0  0  0
 42 37  2  0  0  0  0
 46 41  1  0  0  0  0
M  END
>  <minimizedAffinity>
-5.6437254

$$$$

 OpenBabel03252507053D

 46 49  0  0  0  0  0  0  0  0999 V2000
   39.7000   30.6240   41.5350 C   0  0  0  0  0  0  0  0  0  0  0  0
   40.4570   30.7320   40.7300 H   0  0  0  0  0  0  0  0  0  0  0  0
   40.2630   30.9730   42.4680 H   0  0  0  0  0  0  0  0  0  0  0  0
   39.2210   29.3770   41.6370 N   0  0  0  0  0  0  0  0  0  0  0  0
   39.2140   28.5480   42.7990 C   0  0  0  0  0  0  0  0  0  0  0  0
   37.7350   28.6510   43.1580 C   0  0  0  0  0  0  0  0  0  0  0  0
   36.8390   28.1760   42.1190 C   0  0  0  0  0  0  0  0  0  0  0  0
   37.2970   28.1720   40.7460 C   0  0  0  0  0  0  0  0  0  0  0  0
   38.6100   28.8350   40.4000 C   0  0  0  0  0  0  0  0  0  0  0  0
   39.7770   29.0700   43.6070 H   0  0  0  0  0  0  0  0  0  0  0  0
   39.6030   27.5480   42.7400 H   0  0  0  0  0  0  0  0  0  0  0  0
   37.6030   28.0740   44.1180 H   0  0  0  0  0  0  0  0  0  0  0  0
   37.5940   29.7240   43.4480 H   0  0  0  0  0  0  0  0  0  0  0  0
   35.8740   28.7620   42.1550 H   0  0  0  0  0  0  0  0  0  0  0  0
   36.5230   27.1180   42.3590 H   0  0  0  0  0  0  0  0  0  0  0  0
   36.7940   27.7560   39.9200 H   0  0  0  0  0  0  0  0  0  0  0  0
   39.2630   28.9490   38.8150 S   0  0  0  0  0  0  0  0  0  0  0  0
   39.2950   30.4930   38.0040 C   0  0  0  0  0  0  0  0  0  0  0  0
   38.6670   31.5410   37.3980 C   0  0  0  0  0  0  0  0  0  0  0  0
   37.6210   31.3910   37.4070 H   0  0  0  0  0  0  0  0  0  0  0  0
   39.5840   32.4230   36.9930 N   0  0  0  0  0  0  0  0  0  0  0  0
   39.1700   33.2650   36.5140 H   0  0  0  0  0  0  0  0  0  0  0  0
   40.8000   31.9680   37.3230 C   0  0  0  0  0  0  0  0  0  0  0  0
   41.5790   32.6620   37.0090 H   0  0  0  0  0  0  0  0  0  0  0  0
   40.6380   30.7660   37.9540 N   0  0  0  0  0  0  0  0  0  0  0  0
   38.6470   31.6520   41.3370 C   0  0  0  0  0  0  0  0  0  0  0  0
   37.9670   31.2750   40.5300 H   0  0  0  0  0  0  0  0  0  0  0  0
   38.0860   31.8220   42.2860 H   0  0  0  0  0  0  0  0  0  0  0  0
   39.2890   32.8880   40.8560 C   0  0  0  0  0  0  0  0  0  0  0  0
   38.5240   33.9510   40.4360 C   0  0  0  0  0  0  0  0  0  0  0  0
   39.1720   35.0920   39.9810 C   0  0  0  0  0  0  0  0  0  0  0  0
   40.5400   35.0990   39.9770 N   0  0  0  0  0  0  0  0  0  0  0  0
   41.2450   34.0510   40.3930 C   0  0  0  0  0  0  0  0  0  0  0  0
   40.6010   32.9630   40.8250 N   0  0  0  0  0  0  0  0  0  0  0  0
   37.4670   34.1470   40.3770 H   0  0  0  0  0  0  0  0  0  0  0  0
   38.7370   36.0250   39.6090 H   0  0  0  0  0  0  0  0  0  0  0  0
   42.7000   34.1580   40.3800 C   0  0  0  0  0  0  0  0  0  0  0  0
   43.3910   34.5710   41.5160 C   0  0  0  0  0  0  0  0  0  0  0  0
   44.7630   34.6760   41.4880 C   0  0  0  0  0  0  0  0  0  0  0  0
   45.3420   34.3470   40.2860 C   0  0  0  0  0  0  0  0  0  0  0  0
   44.7000   33.9310   39.1270 C   0  0  0  0  0  0  0  0  0  0  0  0
   43.3490   33.8560   39.2460 N   0  0  0  0  0  0  0  0  0  0  0  0
   42.8690   34.8180   42.4430 H   0  0  0  0  0  0  0  0  0  0  0  0
   45.3780   34.9880   42.3210 H   0  0  0  0  0  0  0  0  0  0  0  0
   46.4300   34.4160   40.2150 H   0  0  0  0  0  0  0  0  0  0  0  0
   45.2410   33.6940   38.2290 H   0  0  0  0  0  0  0  0  0  0  0  0
  1  4  1  0  0  0  0
  1  3  1  0  0  0  0
  2  1  1  0  0  0  0
  4  5  1  0  0  0  0
  5  6  1  0  0  0  0
  5 10  1  0  0  0  0
  6 13  1  0  0  0  0
  6 12  1  0  0  0  0
  7 14  1  0  0  0  0
  7 15  1  0  0  0  0
  7  6  1  0  0  0  0
  8  7  1  0  0  0  0
  9  8  2  0  0  0  0
  9  4  1  0  0  0  0
 11  5  1  0  0  0  0
 16  8  1  0  0  0  0
 17  9  1  0  0  0  0
 18 17  1  0  0  0  0
 19 20  1  0  0  0  0
 19 18  2  0  0  0  0
 21 23  1  0  0  0  0
 21 19  1  0  0  0  0
 22 21  1  0  0  0  0
 23 25  2  0  0  0  0
 24 23  1  0  0  0  0
 25 18  1  0  0  0  0
 26  1  1  0  0  0  0
 26 28  1  0  0  0  0
 27 26  1  0  0  0  0
 29 26  1  0  0  0  0
 30 29  2  0  0  0  0
 31 30  1  0  0  0  0
 32 31  2  0  0  0  0
 32 33  1  0  0  0  0
 33 34  2  0  0  0  0
 34 29  1  0  0  0  0
 35 30  1  0  0  0  0
 36 31  1  0  0  0  0
 37 33  1  0  0  0  0
 37 38  1  0  0  0  0
 38 43  1  0  0  0  0
 39 38  2  0  0  0  0
 39 44  1  0  0  0  0
 40 39  1  0  0  0  0
 41 42  1  0  0  0  0
 41 40  2  0  0  0  0
 42 37  2  0  0  0  0
 45 40  1  0  0  0  0
 46 41  1  0  0  0  0
M  END
>  <minimizedAffinity>
-5.64072943

$$$$

 OpenBabel03252507053D

 46 49  0  0  0  0  0  0  0  0999 V2000
   39.7930   30.0120   39.5950 C   0  0  0  0  0  0  0  0  0  0  0  0
   40.7840   29.8670   39.1180 H   0  0  0  0  0  0  0  0  0  0  0  0
   39.2780   29.0030   39.4360 H   0  0  0  0  0  0  0  0  0  0  0  0
   39.1120   31.0460   39.0810 N   0  0  0  0  0  0  0  0  0  0  0  0
   37.8450   31.0030   38.4260 C   0  0  0  0  0  0  0  0  0  0  0  0
   36.9790   31.5830   39.5390 C   0  0  0  0  0  0  0  0  0  0  0  0
   37.3600   32.9240   39.9470 C   0  0  0  0  0  0  0  0  0  0  0  0
   38.7200   33.3660   39.7240 C   0  0  0  0  0  0  0  0  0  0  0  0
   39.7550   32.3690   39.2530 C   0  0  0  0  0  0  0  0  0  0  0  0
   37.5450   29.9360   38.3100 H   0  0  0  0  0  0  0  0  0  0  0  0
   37.7290   31.4680   37.4640 H   0  0  0  0  0  0  0  0  0  0  0  0
   35.9170   31.5490   39.1620 H   0  0  0  0  0  0  0  0  0  0  0  0
   37.0200   30.8140   40.3520 H   0  0  0  0  0  0  0  0  0  0  0  0
   37.1320   33.0640   41.0440 H   0  0  0  0  0  0  0  0  0  0  0  0
   36.6870   33.6710   39.4330 H   0  0  0  0  0  0  0  0  0  0  0  0
   39.0940   34.3390   39.8700 H   0  0  0  0  0  0  0  0  0  0  0  0
   41.4130   32.7330   38.9860 S   0  0  0  0  0  0  0  0  0  0  0  0
   42.2410   33.8250   40.0650 C   0  0  0  0  0  0  0  0  0  0  0  0
   42.2410   34.8510   40.9640 C   0  0  0  0  0  0  0  0  0  0  0  0
   41.2520   35.1850   41.1310 H   0  0  0  0  0  0  0  0  0  0  0  0
   43.4960   35.0980   41.3440 N   0  0  0  0  0  0  0  0  0  0  0  0
   43.5730   35.8830   42.0420 H   0  0  0  0  0  0  0  0  0  0  0  0
   44.3170   34.2510   40.7090 C   0  0  0  0  0  0  0  0  0  0  0  0
   45.3550   34.4210   40.9930 H   0  0  0  0  0  0  0  0  0  0  0  0
   43.5510   33.4510   39.9070 N   0  0  0  0  0  0  0  0  0  0  0  0
   39.9840   30.0970   41.0660 C   0  0  0  0  0  0  0  0  0  0  0  0
   40.9970   29.6750   41.2910 H   0  0  0  0  0  0  0  0  0  0  0  0
   39.9070   31.1560   41.4070 H   0  0  0  0  0  0  0  0  0  0  0  0
   38.9750   29.2430   41.7160 C   0  0  0  0  0  0  0  0  0  0  0  0
   38.5190   29.5420   42.9790 C   0  0  0  0  0  0  0  0  0  0  0  0
   37.5760   28.7030   43.5570 C   0  0  0  0  0  0  0  0  0  0  0  0
   37.1470   27.6210   42.8360 N   0  0  0  0  0  0  0  0  0  0  0  0
   37.6100   27.3670   41.6160 C   0  0  0  0  0  0  0  0  0  0  0  0
   38.5180   28.1870   41.0800 N   0  0  0  0  0  0  0  0  0  0  0  0
   38.7120   30.3300   43.6860 H   0  0  0  0  0  0  0  0  0  0  0  0
   37.1030   28.7770   44.5410 H   0  0  0  0  0  0  0  0  0  0  0  0
   37.0750   26.2070   40.9100 C   0  0  0  0  0  0  0  0  0  0  0  0
   36.9820   24.9710   41.5450 C   0  0  0  0  0  0  0  0  0  0  0  0
   36.4850   23.8830   40.8650 C   0  0  0  0  0  0  0  0  0  0  0  0
   36.1110   24.1360   39.5670 C   0  0  0  0  0  0  0  0  0  0  0  0
   36.1830   25.3460   38.8890 C   0  0  0  0  0  0  0  0  0  0  0  0
   36.6860   26.3630   39.6360 N   0  0  0  0  0  0  0  0  0  0  0  0
   37.2970   24.8390   42.5820 H   0  0  0  0  0  0  0  0  0  0  0  0
   36.3770   22.8900   41.2790 H   0  0  0  0  0  0  0  0  0  0  0  0
   35.7100   23.3020   38.9860 H   0  0  0  0  0  0  0  0  0  0  0  0
   35.8650   25.4470   37.8680 H   0  0  0  0  0  0  0  0  0  0  0  0
  1 26  1  0  0  0  0
  2  1  1  0  0  0  0
  3  1  1  0  0  0  0
  4  9  1  0  0  0  0
  4  1  1  0  0  0  0
  5  4  1  0  0  0  0
  5  6  1  0  0  0  0
  6  7  1  0  0  0  0
  6 13  1  0  0  0  0
  7 14  1  0  0  0  0
  8 16  1  0  0  0  0
  8  7  1  0  0  0  0
  9  8  2  0  0  0  0
 10  5  1  0  0  0  0
 11  5  1  0  0  0  0
 12  6  1  0  0  0  0
 15  7  1  0  0  0  0
 17  9  1  0  0  0  0
 17 18  1  0  0  0  0
 18 19  2  0  0  0  0
 19 20  1  0  0  0  0
 19 21  1  0  0  0  0
 21 22  1  0  0  0  0
 23 24  1  0  0  0  0
 23 21  1  0  0  0  0
 25 18  1  0  0  0  0
 25 23  2  0  0  0  0
 26 27  1  0  0  0  0
 26 28  1  0  0  0  0
 26 29  1  0  0  0  0
 29 30  1  0  0  0  0
 30 31  2  0  0  0  0
 30 35  1  0  0  0  0
 31 36  1  0  0  0  0
 32 31  1  0  0  0  0
 33 32  2  0  0  0  0
 34 33  1  0  0  0  0
 34 29  2  0  0  0  0
 37 38  1  0  0  0  0
 37 33  1  0  0  0  0
 38 43  1  0  0  0  0
 39 44  1  0  0  0  0
 39 38  2  0  0  0  0
 40 39  1  0  0  0  0
 41 40  2  0  0  0  0
 41 42  1  0  0  0  0
 42 37  2  0  0  0  0
 45 40  1  0  0  0  0
 46 41  1  0  0  0  0
M  END
>  <minimizedAffinity>
-5.61746597

$$$$

 OpenBabel03252507053D

 46 49  0  0  0  0  0  0  0  0999 V2000
   39.2230   27.9390   40.3080 C   0  0  0  0  0  0  0  0  0  0  0  0
   39.7690   27.0200   40.6080 H   0  0  0  0  0  0  0  0  0  0  0  0
   40.0410   28.7400   40.3140 H   0  0  0  0  0  0  0  0  0  0  0  0
   38.1930   28.2220   41.1160 N   0  0  0  0  0  0  0  0  0  0  0  0
   36.9330   27.5530   41.1730 C   0  0  0  0  0  0  0  0  0  0  0  0
   37.1350   26.7720   42.4670 C   0  0  0  0  0  0  0  0  0  0  0  0
   37.3860   27.6050   43.6300 C   0  0  0  0  0  0  0  0  0  0  0  0
   37.9430   28.9270   43.4370 C   0  0  0  0  0  0  0  0  0  0  0  0
   38.4260   29.3360   42.0640 C   0  0  0  0  0  0  0  0  0  0  0  0
   36.8950   26.8040   40.3490 H   0  0  0  0  0  0  0  0  0  0  0  0
   36.0260   28.1260   41.1200 H   0  0  0  0  0  0  0  0  0  0  0  0
   36.2110   26.1390   42.6010 H   0  0  0  0  0  0  0  0  0  0  0  0
   37.9490   26.0410   42.2260 H   0  0  0  0  0  0  0  0  0  0  0  0
   38.0580   27.0550   44.3510 H   0  0  0  0  0  0  0  0  0  0  0  0
   36.4230   27.7380   44.2040 H   0  0  0  0  0  0  0  0  0  0  0  0
   38.0690   29.6670   44.1760 H   0  0  0  0  0  0  0  0  0  0  0  0
   39.1460   30.8500   41.6910 S   0  0  0  0  0  0  0  0  0  0  0  0
   38.2090   32.0730   40.8720 C   0  0  0  0  0  0  0  0  0  0  0  0
   37.0710   32.4910   40.2470 C   0  0  0  0  0  0  0  0  0  0  0  0
   36.3570   31.7110   40.2340 H   0  0  0  0  0  0  0  0  0  0  0  0
   37.2290   33.7580   39.8560 N   0  0  0  0  0  0  0  0  0  0  0  0
   36.3850   34.1510   39.3640 H   0  0  0  0  0  0  0  0  0  0  0  0
   38.4510   34.1730   40.2150 C   0  0  0  0  0  0  0  0  0  0  0  0
   38.6200   35.2070   39.9140 H   0  0  0  0  0  0  0  0  0  0  0  0
   39.0760   33.1360   40.8490 N   0  0  0  0  0  0  0  0  0  0  0  0
   38.8420   27.8160   38.8770 C   0  0  0  0  0  0  0  0  0  0  0  0
   39.6550   27.2370   38.3690 H   0  0  0  0  0  0  0  0  0  0  0  0
   37.8600   27.2970   38.7800 H   0  0  0  0  0  0  0  0  0  0  0  0
   38.8020   29.1660   38.2890 C   0  0  0  0  0  0  0  0  0  0  0  0
   37.6210   29.6830   37.8100 C   0  0  0  0  0  0  0  0  0  0  0  0
   37.6330   30.9550   37.2550 C   0  0  0  0  0  0  0  0  0  0  0  0
   38.8230   31.6310   37.2150 N   0  0  0  0  0  0  0  0  0  0  0  0
   39.9440   31.0980   37.6910 C   0  0  0  0  0  0  0  0  0  0  0  0
   39.9100   29.8720   38.2200 N   0  0  0  0  0  0  0  0  0  0  0  0
   36.6050   29.3300   37.7630 H   0  0  0  0  0  0  0  0  0  0  0  0
   36.8020   31.5240   36.8250 H   0  0  0  0  0  0  0  0  0  0  0  0
   41.1610   31.9020   37.6330 C   0  0  0  0  0  0  0  0  0  0  0  0
   42.3780   31.3220   37.2840 C   0  0  0  0  0  0  0  0  0  0  0  0
   43.5190   32.0890   37.2420 C   0  0  0  0  0  0  0  0  0  0  0  0
   43.3370   33.4120   37.5640 C   0  0  0  0  0  0  0  0  0  0  0  0
   42.1490   34.0390   37.9170 C   0  0  0  0  0  0  0  0  0  0  0  0
   41.0750   33.2060   37.9330 N   0  0  0  0  0  0  0  0  0  0  0  0
   42.4540   30.2610   37.0390 H   0  0  0  0  0  0  0  0  0  0  0  0
   44.5030   31.7230   36.9820 H   0  0  0  0  0  0  0  0  0  0  0  0
   44.2150   34.0620   37.5450 H   0  0  0  0  0  0  0  0  0  0  0  0
   42.1040   35.0860   38.1530 H   0  0  0  0  0  0  0  0  0  0  0  0
  1  3  1  0  0  0  0
  1  2  1  0  0  0  0
  1  4  1  0  0  0  0
  4  5  1  0  0  0  0
  4  9  1  0  0  0  0
  5  6  1  0  0  0  0
  6 12  1  0  0  0  0
  6  7  1  0  0  0  0
  7 15  1  0  0  0  0
  7 14  1  0  0  0  0
  8  7  1  0  0  0  0
  8 16  1  0  0  0  0
  9  8  2  0  0  0  0
 10  5  1  0  0  0  0
 11  5  1  0  0  0  0
 13  6  1  0  0  0  0
 17  9  1  0  0  0  0
 18 17  1  0  0  0  0
 19 18  2  0  0  0  0
 20 19  1  0  0  0  0
 21 23  1  0  0  0  0
 21 19  1  0  0  0  0
 22 21  1  0  0  0  0
 23 25  2  0  0  0  0
 24 23  1  0  0  0  0
 25 18  1  0  0  0  0
 26  1  1  0  0  0  0
 27 26  1  0  0  0  0
 28 26  1  0  0  0  0
 29 26  1  0  0  0  0
 30 29  2  0  0  0  0
 31 30  1  0  0  0  0
 32 31  2  0  0  0  0
 32 33  1  0  0  0  0
 33 34  2  0  0  0  0
 34 29  1  0  0  0  0
 35 30  1  0  0  0  0
 36 31  1  0  0  0  0
 37 33  1  0  0  0  0
 37 42  1  0  0  0  0
 38 37  2  0  0  0  0
 39 38  1  0  0  0  0
 39 40  2  0  0  0  0
 40 41  1  0  0  0  0
 41 42  2  0  0  0  0
 41 46  1  0  0  0  0
 43 38  1  0  0  0  0
 44 39  1  0  0  0  0
 45 40  1  0  0  0  0
M  END
>  <minimizedAffinity>
-5.60430384

$$$$
