
 OpenBabel03242518543D

 41 43  0  0  1  0  0  0  0  0999 V2000
   45.7750   31.2650   46.6290 C   0  0  2  0  0  0  0  0  0  0  0  0
   45.7870   30.5260   47.9290 C   0  0  0  0  0  0  0  0  0  0  0  0
   45.0130   29.2720   47.7360 C   0  0  0  0  0  0  0  0  0  0  0  0
   44.3680   29.1090   46.4000 C   0  0  0  0  0  0  0  0  0  0  0  0
   45.4020   29.2340   45.3090 C   0  0  0  0  0  0  0  0  0  0  0  0
   46.3050   30.3490   45.5460 C   0  0  2  0  0  0  0  0  0  0  0  0
   44.7220   31.4590   46.3340 H   0  0  0  0  0  0  0  0  0  0  0  0
   46.7980   30.3460   48.3240 H   0  0  0  0  0  0  0  0  0  0  0  0
   45.2960   31.2090   48.6850 H   0  0  0  0  0  0  0  0  0  0  0  0
   45.5630   28.3310   48.0020 H   0  0  0  0  0  0  0  0  0  0  0  0
   44.1640   29.2770   48.4790 H   0  0  0  0  0  0  0  0  0  0  0  0
   43.9260   28.0910   46.3760 H   0  0  0  0  0  0  0  0  0  0  0  0
   43.5170   29.8040   46.2390 H   0  0  0  0  0  0  0  0  0  0  0  0
   44.8340   29.3730   44.3540 H   0  0  0  0  0  0  0  0  0  0  0  0
   45.8570   28.2150   45.2130 H   0  0  0  0  0  0  0  0  0  0  0  0
   46.5120   30.9090   44.6120 H   0  0  0  0  0  0  0  0  0  0  0  0
   47.5890   29.7230   45.9750 C   0  0  0  0  0  0  0  0  0  0  0  0
   48.0290   30.2690   46.8420 H   0  0  0  0  0  0  0  0  0  0  0  0
   47.5390   28.6460   46.2180 H   0  0  0  0  0  0  0  0  0  0  0  0
   48.5540   29.9200   44.8340 C   0  0  0  0  0  0  0  0  0  0  0  0
   48.1480   30.8030   43.8270 C   0  0  0  0  0  0  0  0  0  0  0  0
   47.3020   31.4350   43.5870 H   0  0  0  0  0  0  0  0  0  0  0  0
   49.1370   30.8410   42.9100 N   0  0  0  0  0  0  0  0  0  0  0  0
   49.3500   31.3190   41.9880 H   0  0  0  0  0  0  0  0  0  0  0  0
   50.1290   30.0190   43.3140 C   0  0  0  0  0  0  0  0  0  0  0  0
   51.1120   29.6770   42.9870 H   0  0  0  0  0  0  0  0  0  0  0  0
   49.7870   29.4630   44.4660 N   0  0  0  0  0  0  0  0  0  0  0  0
   46.4610   32.5780   46.6600 C   0  0  0  0  0  0  0  0  0  0  0  0
   47.3910   32.8400   47.4530 O   0  0  0  0  0  0  0  0  0  0  0  0
   44.5950   35.3460   45.1750 C   0  0  0  0  0  0  0  0  0  0  0  0
   45.1190   35.4630   43.8620 C   0  0  0  0  0  0  0  0  0  0  0  0
   46.1260   34.5680   43.5260 C   0  0  0  0  0  0  0  0  0  0  0  0
   46.4790   33.7040   44.4800 N   0  0  0  0  0  0  0  0  0  0  0  0
   45.9940   33.5910   45.7000 C   0  0  0  0  0  0  0  0  0  0  0  0
   45.0180   34.4450   46.0540 N   0  0  0  0  0  0  0  0  0  0  0  0
   43.7990   36.0680   45.4120 H   0  0  0  0  0  0  0  0  0  0  0  0
   44.7620   36.2030   43.1620 H   0  0  0  0  0  0  0  0  0  0  0  0
   46.6730   34.6720   42.1770 C   0  0  0  0  0  0  0  0  0  0  0  0
   47.3680   33.5160   41.8650 F   0  0  0  0  0  0  0  0  0  0  0  0
   47.5300   35.7240   42.1820 F   0  0  0  0  0  0  0  0  0  0  0  0
   45.6730   34.7860   41.2170 F   0  0  0  0  0  0  0  0  0  0  0  0
  1  7  1  6  0  0  0
  1 28  1  0  0  0  0
  1  2  1  0  0  0  0
  2  8  1  0  0  0  0
  2  9  1  0  0  0  0
  3  2  1  0  0  0  0
  3 10  1  0  0  0  0
  3 11  1  0  0  0  0
  4  3  1  0  0  0  0
  5  6  1  0  0  0  0
  5  4  1  0  0  0  0
  6 16  1  6  0  0  0
  6 17  1  0  0  0  0
  6  1  1  0  0  0  0
 12  4  1  0  0  0  0
 13  4  1  0  0  0  0
 14  5  1  0  0  0  0
 15  5  1  0  0  0  0
 17 19  1  0  0  0  0
 17 18  1  0  0  0  0
 20 17  1  0  0  0  0
 21 20  2  0  0  0  0
 22 21  1  0  0  0  0
 23 25  1  0  0  0  0
 23 21  1  0  0  0  0
 24 23  1  0  0  0  0
 25 27  2  0  0  0  0
 26 25  1  0  0  0  0
 27 20  1  0  0  0  0
 28 29  2  0  0  0  0
 30 36  1  0  0  0  0
 30 35  1  0  0  0  0
 31 30  2  0  0  0  0
 32 31  1  0  0  0  0
 32 33  2  0  0  0  0
 33 34  1  0  0  0  0
 34 35  2  0  0  0  0
 34 28  1  0  0  0  0
 37 31  1  0  0  0  0
 38 40  1  0  0  0  0
 38 32  1  0  0  0  0
 39 38  1  0  0  0  0
 41 38  1  0  0  0  0
M  END
>  <minimizedAffinity>
-5.23556805

>  <minimizedRMSD>
1.10882843

$$$$
