
 OpenBabel03252508203D

 33 35  0  0  0  0  0  0  0  0999 V2000
   45.9300   34.0870   41.2520 C   0  0  0  0  0  0  0  0  0  0  0  0
   46.7570   34.0720   40.1340 C   0  0  0  0  0  0  0  0  0  0  0  0
   48.0670   34.5240   40.0870 C   0  0  0  0  0  0  0  0  0  0  0  0
   48.5560   35.0270   41.2770 C   0  0  0  0  0  0  0  0  0  0  0  0
   47.7590   35.0520   42.3930 C   0  0  0  0  0  0  0  0  0  0  0  0
   46.4500   34.5970   42.4280 C   0  0  0  0  0  0  0  0  0  0  0  0
   46.2940   33.6560   39.2260 H   0  0  0  0  0  0  0  0  0  0  0  0
   48.5640   34.4370   39.1380 H   0  0  0  0  0  0  0  0  0  0  0  0
   49.5730   35.3800   41.2480 H   0  0  0  0  0  0  0  0  0  0  0  0
   48.2950   35.4780   43.2400 H   0  0  0  0  0  0  0  0  0  0  0  0
   45.8060   34.7290   43.7200 C   0  0  0  0  0  0  0  0  0  0  0  0
   45.8070   34.0160   44.8850 C   0  0  0  0  0  0  0  0  0  0  0  0
   46.3500   33.1150   45.0680 H   0  0  0  0  0  0  0  0  0  0  0  0
   45.0700   34.5270   45.8480 N   0  0  0  0  0  0  0  0  0  0  0  0
   44.8900   34.2080   46.8120 H   0  0  0  0  0  0  0  0  0  0  0  0
   44.5480   35.6370   45.3070 C   0  0  0  0  0  0  0  0  0  0  0  0
   43.8780   36.3940   45.7060 H   0  0  0  0  0  0  0  0  0  0  0  0
   44.9950   35.7350   44.0520 N   0  0  0  0  0  0  0  0  0  0  0  0
   44.5510   33.6150   41.2400 C   0  0  0  0  0  0  0  0  0  0  0  0
   44.0390   34.0510   42.1270 H   0  0  0  0  0  0  0  0  0  0  0  0
   44.4390   32.5290   41.2390 H   0  0  0  0  0  0  0  0  0  0  0  0
   43.7570   34.2170   40.0620 C   0  0  0  0  0  0  0  0  0  0  0  0
   44.0780   35.2540   39.9530 H   0  0  0  0  0  0  0  0  0  0  0  0
   43.8810   33.6070   39.1520 H   0  0  0  0  0  0  0  0  0  0  0  0
   40.1230   35.1590   40.5330 C   0  0  0  0  0  0  0  0  0  0  0  0
   41.4830   35.2550   40.1340 C   0  0  0  0  0  0  0  0  0  0  0  0
   42.3170   34.1910   40.4470 C   0  0  0  0  0  0  0  0  0  0  0  0
   41.7560   33.1280   41.1190 N   0  0  0  0  0  0  0  0  0  0  0  0
   40.4820   33.0690   41.4770 C   0  0  0  0  0  0  0  0  0  0  0  0
   39.6550   34.0790   41.1890 N   0  0  0  0  0  0  0  0  0  0  0  0
   39.5380   36.0360   40.2480 H   0  0  0  0  0  0  0  0  0  0  0  0
   41.8590   36.1220   39.6080 H   0  0  0  0  0  0  0  0  0  0  0  0
   40.1400   32.1920   42.0000 H   0  0  0  0  0  0  0  0  0  0  0  0
  1  6  1  0  0  0  0
  2  1  2  0  0  0  0
  3  2  1  0  0  0  0
  3  4  2  0  0  0  0
  4  5  1  0  0  0  0
  5  6  2  0  0  0  0
  5 10  1  0  0  0  0
  6 11  1  0  0  0  0
  7  2  1  0  0  0  0
  8  3  1  0  0  0  0
  9  4  1  0  0  0  0
 11 18  1  0  0  0  0
 11 12  2  0  0  0  0
 12 13  1  0  0  0  0
 12 14  1  0  0  0  0
 14 15  1  0  0  0  0
 16 17  1  0  0  0  0
 16 14  1  0  0  0  0
 18 16  2  0  0  0  0
 19  1  1  0  0  0  0
 19 20  1  0  0  0  0
 21 19  1  0  0  0  0
 22 27  1  0  0  0  0
 22 19  1  0  0  0  0
 23 22  1  0  0  0  0
 24 22  1  0  0  0  0
 25 30  1  0  0  0  0
 26 27  1  0  0  0  0
 26 25  2  0  0  0  0
 27 28  2  0  0  0  0
 28 29  1  0  0  0  0
 29 33  1  0  0  0  0
 30 29  2  0  0  0  0
 31 25  1  0  0  0  0
 32 26  1  0  0  0  0
M  END
>  <minimizedAffinity>
-5.63720942

>  <minimizedRMSD>
1.03146768

$$$$
