
     RDKit          3D

 43 46  0  0  0  0  0  0  0  0999 V2000
   47.0746   34.8220   41.9612 C   0  0  2  0  0  0  0  0  0  0  0  0
   46.3124   34.2098   40.7858 C   0  0  0  0  0  0  0  0  0  0  0  0
   47.5069   34.0028   39.8375 C   0  0  0  0  0  0  0  0  0  0  0  0
   48.6513   33.6343   40.7296 C   0  0  1  0  0  0  0  0  0  0  0  0
   48.1400   33.7755   42.1344 C   0  0  0  0  0  0  0  0  0  0  0  0
   44.5356   35.9811   44.4905 C   0  0  0  0  0  0  0  0  0  0  0  0
   45.2814   35.9687   43.3164 C   0  0  0  0  0  0  0  0  0  0  0  0
   46.2006   34.9312   43.1639 C   0  0  0  0  0  0  0  0  0  0  0  0
   46.3466   33.9584   44.1636 N   0  0  0  0  0  0  0  0  0  0  0  0
   45.5872   34.0293   45.2866 C   0  0  0  0  0  0  0  0  0  0  0  0
   44.6926   35.0340   45.4406 N   0  0  0  0  0  0  0  0  0  0  0  0
   49.1321   32.2084   40.5742 C   0  0  2  0  0  0  0  0  0  0  0  0
   49.7766   31.6248   41.7419 C   0  0  0  0  0  0  0  0  0  0  0  0
   50.5576   31.8895   40.4937 C   0  0  1  0  0  0  0  0  0  0  0  0
   50.9306   30.7642   39.7176 O   0  0  0  0  0  0  0  0  0  0  0  0
   52.0244   30.1944   37.4210 O   0  0  0  0  0  0  0  0  0  0  0  0
   51.8727   31.3025   38.4335 P   0  0  1  0  0  0  0  0  0  0  0  0
   51.0919   32.6118   37.6453 O   0  0  0  0  0  0  0  0  0  0  0  0
   53.3858   31.8372   38.8616 O   0  0  0  0  0  0  0  0  0  0  0  0
   47.4282   35.7885   41.6068 H   0  0  0  0  0  0  0  0  0  0  0  0
   45.6530   34.9913   40.3681 H   0  0  0  0  0  0  0  0  0  0  0  0
   45.8169   33.2713   41.0502 H   0  0  0  0  0  0  0  0  0  0  0  0
   47.6799   34.9144   39.2412 H   0  0  0  0  0  0  0  0  0  0  0  0
   47.2715   33.1142   39.1880 H   0  0  0  0  0  0  0  0  0  0  0  0
   49.5321   34.3067   40.5756 H   0  0  0  0  0  0  0  0  0  0  0  0
   47.7046   32.8602   42.5308 H   0  0  0  0  0  0  0  0  0  0  0  0
   48.9650   34.1490   42.7823 H   0  0  0  0  0  0  0  0  0  0  0  0
   43.8186   36.7818   44.6193 H   0  0  0  0  0  0  0  0  0  0  0  0
   45.1840   36.7029   42.5418 H   0  0  0  0  0  0  0  0  0  0  0  0
   45.7546   33.2500   46.0080 H   0  0  0  0  0  0  0  0  0  0  0  0
   48.4394   31.5730   39.9941 H   0  0  0  0  0  0  0  0  0  0  0  0
   50.0307   32.2848   42.6148 H   0  0  0  0  0  0  0  0  0  0  0  0
   49.6114   30.5798   42.0740 H   0  0  0  0  0  0  0  0  0  0  0  0
   51.2319   32.7460   40.3602 H   0  0  0  0  0  0  0  0  0  0  0  0
   50.1176   32.4527   37.6716 H   0  0  0  0  0  0  0  0  0  0  0  0
   54.2188   31.1072   39.7086 C   0  0  0  0  0  0  0  0  0  0  0  0
   55.5522   31.0004   39.3057 C   0  0  0  0  0  0  0  0  0  0  0  0
   56.1629   31.3457   38.4681 H   0  0  0  0  0  0  0  0  0  0  0  0
   56.1613   30.2598   40.2678 N   0  0  0  0  0  0  0  0  0  0  0  0
   57.1640   29.9418   40.3583 H   0  0  0  0  0  0  0  0  0  0  0  0
   55.2768   29.9167   41.2206 C   0  0  0  0  0  0  0  0  0  0  0  0
   55.3820   29.3408   42.1288 H   0  0  0  0  0  0  0  0  0  0  0  0
   54.0897   30.4398   40.8705 N   0  0  0  0  0  0  0  0  0  0  0  0
  1  5  1  0
  1  8  1  0
  2  1  1  0
  3  4  1  0
  3  2  1  0
  4  5  1  0
  6 11  2  0
  7  6  1  0
  8  7  2  0
  8  9  1  0
  9 10  2  0
 10 11  1  0
 12  4  1  0
 12 13  1  0
 14 12  1  0
 14 13  1  0
 15 14  1  0
 16 17  2  0
 17 19  1  1
 17 15  1  0
 18 17  1  0
  1 20  1  6
  2 21  1  0
  2 22  1  0
  3 23  1  0
  3 24  1  0
  4 25  1  1
  5 26  1  0
  5 27  1  0
  6 28  1  0
  7 29  1  0
 10 30  1  0
 12 31  1  6
 13 32  1  0
 13 33  1  0
 14 34  1  1
 18 35  1  0
 36 37  2  0
 37 38  1  0
 37 39  1  0
 39 40  1  0
 39 41  1  0
 41 42  1  0
 41 43  2  0
 43 36  1  0
 19 36  1  0
M  ISO  8  20  13  21  13  22  13  23  13  24  13  25  13  26  13  27  13
M  ISO  8  28  14  29  14  30  14  31  13  32  13  33  13  34  13  35   3
M  ISO  3  38  15  40   5  42  14
M  END
>  <DihAtoms>  (1) 
16,18,35,36

>  <DihDeg>  (1) 
179.99964849929685

$$$$
