
 OpenBabel03252508203D

 33 35  0  0  0  0  0  0  0  0999 V2000
   45.0250   34.0490   40.5970 C   0  0  0  0  0  0  0  0  0  0  0  0
   44.5330   34.8940   41.5860 C   0  0  0  0  0  0  0  0  0  0  0  0
   43.2830   35.4930   41.5940 C   0  0  0  0  0  0  0  0  0  0  0  0
   42.4860   35.2010   40.5030 C   0  0  0  0  0  0  0  0  0  0  0  0
   42.9490   34.3700   39.5160 C   0  0  0  0  0  0  0  0  0  0  0  0
   44.2010   33.7750   39.5190 C   0  0  0  0  0  0  0  0  0  0  0  0
   45.2270   35.0780   42.4200 H   0  0  0  0  0  0  0  0  0  0  0  0
   43.0640   36.1190   42.4400 H   0  0  0  0  0  0  0  0  0  0  0  0
   41.5140   35.6640   40.5030 H   0  0  0  0  0  0  0  0  0  0  0  0
   42.2010   34.2460   38.7350 H   0  0  0  0  0  0  0  0  0  0  0  0
   44.4700   32.9400   38.3650 C   0  0  0  0  0  0  0  0  0  0  0  0
   45.1390   33.0990   37.1840 C   0  0  0  0  0  0  0  0  0  0  0  0
   45.6390   33.9850   36.8600 H   0  0  0  0  0  0  0  0  0  0  0  0
   45.1550   32.0340   36.4100 N   0  0  0  0  0  0  0  0  0  0  0  0
   45.5770   31.8720   35.4830 H   0  0  0  0  0  0  0  0  0  0  0  0
   44.4670   31.1160   37.1020 C   0  0  0  0  0  0  0  0  0  0  0  0
   44.2090   30.0830   36.8820 H   0  0  0  0  0  0  0  0  0  0  0  0
   44.0730   31.6710   38.2510 N   0  0  0  0  0  0  0  0  0  0  0  0
   46.3580   33.4590   40.6300 C   0  0  0  0  0  0  0  0  0  0  0  0
   46.6110   33.1410   39.5940 H   0  0  0  0  0  0  0  0  0  0  0  0
   46.4680   32.6170   41.3170 H   0  0  0  0  0  0  0  0  0  0  0  0
   47.4370   34.5180   40.9330 C   0  0  0  0  0  0  0  0  0  0  0  0
   47.5500   35.1300   40.0370 H   0  0  0  0  0  0  0  0  0  0  0  0
   47.1830   35.0890   41.8410 H   0  0  0  0  0  0  0  0  0  0  0  0
   50.2510   31.9970   40.7570 C   0  0  0  0  0  0  0  0  0  0  0  0
   49.0210   32.6410   40.4630 C   0  0  0  0  0  0  0  0  0  0  0  0
   48.7100   33.7850   41.1850 C   0  0  0  0  0  0  0  0  0  0  0  0
   49.6230   34.2010   42.1280 N   0  0  0  0  0  0  0  0  0  0  0  0
   50.7640   33.5760   42.3780 C   0  0  0  0  0  0  0  0  0  0  0  0
   51.0900   32.4720   41.6990 N   0  0  0  0  0  0  0  0  0  0  0  0
   50.4170   31.1070   40.1450 H   0  0  0  0  0  0  0  0  0  0  0  0
   48.3480   32.2590   39.7070 H   0  0  0  0  0  0  0  0  0  0  0  0
   51.4110   33.9820   43.1380 H   0  0  0  0  0  0  0  0  0  0  0  0
  1 19  1  0  0  0  0
  1  2  1  0  0  0  0
  2  3  2  0  0  0  0
  2  7  1  0  0  0  0
  3  8  1  0  0  0  0
  4  3  1  0  0  0  0
  5  6  1  0  0  0  0
  5  4  2  0  0  0  0
  6  1  2  0  0  0  0
  9  4  1  0  0  0  0
 10  5  1  0  0  0  0
 11  6  1  0  0  0  0
 12 11  2  0  0  0  0
 13 12  1  0  0  0  0
 14 16  1  0  0  0  0
 14 12  1  0  0  0  0
 15 14  1  0  0  0  0
 16 18  2  0  0  0  0
 17 16  1  0  0  0  0
 18 11  1  0  0  0  0
 19 22  1  0  0  0  0
 19 21  1  0  0  0  0
 20 19  1  0  0  0  0
 22 27  1  0  0  0  0
 22 24  1  0  0  0  0
 23 22  1  0  0  0  0
 25 30  1  0  0  0  0
 26 25  2  0  0  0  0
 26 27  1  0  0  0  0
 27 28  2  0  0  0  0
 28 29  1  0  0  0  0
 29 33  1  0  0  0  0
 30 29  2  0  0  0  0
 31 25  1  0  0  0  0
 32 26  1  0  0  0  0
M  END
>  <minimizedAffinity>
-4.17967129

>  <minimizedRMSD>
7.30107403

$$$$
