
 OpenBabel03242521033D

 26 28  0  0  0  0  0  0  0  0999 V2000
   37.5910   28.5750   41.6460 C   0  0  0  0  0  0  0  0  0  0  0  0
   36.3020   28.2850   41.2870 C   0  0  0  0  0  0  0  0  0  0  0  0
   35.4410   29.1790   40.6730 C   0  0  0  0  0  0  0  0  0  0  0  0
   35.8950   30.4470   40.3980 C   0  0  0  0  0  0  0  0  0  0  0  0
   37.1850   30.7080   40.7690 C   0  0  0  0  0  0  0  0  0  0  0  0
   37.9830   29.8200   41.3580 N   0  0  0  0  0  0  0  0  0  0  0  0
   35.8840   27.2950   41.4780 H   0  0  0  0  0  0  0  0  0  0  0  0
   34.4220   28.8830   40.4120 H   0  0  0  0  0  0  0  0  0  0  0  0
   35.2540   31.1770   39.9190 H   0  0  0  0  0  0  0  0  0  0  0  0
   40.2730   26.8600   43.6790 C   0  0  0  0  0  0  0  0  0  0  0  0
   39.5230   27.9040   43.1330 C   0  0  0  0  0  0  0  0  0  0  0  0
   38.4660   27.6050   42.2920 C   0  0  0  0  0  0  0  0  0  0  0  0
   38.2150   26.2870   42.0450 N   0  0  0  0  0  0  0  0  0  0  0  0
   38.9490   25.2880   42.5800 C   0  0  0  0  0  0  0  0  0  0  0  0
   39.9700   25.5760   43.3920 N   0  0  0  0  0  0  0  0  0  0  0  0
   41.0960   27.1410   44.3350 H   0  0  0  0  0  0  0  0  0  0  0  0
   39.7000   28.9420   43.3120 H   0  0  0  0  0  0  0  0  0  0  0  0
   38.6420   24.2870   42.3000 H   0  0  0  0  0  0  0  0  0  0  0  0
   37.7530   32.0420   40.5120 C   0  0  0  0  0  0  0  0  0  0  0  0
   37.2920   32.9630   39.5980 C   0  0  0  0  0  0  0  0  0  0  0  0
   36.4300   32.7830   38.9510 H   0  0  0  0  0  0  0  0  0  0  0  0
   38.0210   34.0910   39.5960 N   0  0  0  0  0  0  0  0  0  0  0  0
   37.9070   34.9490   39.0160 H   0  0  0  0  0  0  0  0  0  0  0  0
   38.9630   33.8540   40.5440 C   0  0  0  0  0  0  0  0  0  0  0  0
   39.7620   34.5170   40.8640 H   0  0  0  0  0  0  0  0  0  0  0  0
   38.8080   32.6380   41.0910 N   0  0  0  0  0  0  0  0  0  0  0  0
  1 12  1  0  0  0  0
  2  7  1  0  0  0  0
  2  1  2  0  0  0  0
  3  2  1  0  0  0  0
  4  3  2  0  0  0  0
  4  5  1  0  0  0  0
  5  6  2  0  0  0  0
  6  1  1  0  0  0  0
  8  3  1  0  0  0  0
  9  4  1  0  0  0  0
 10 16  1  0  0  0  0
 11 17  1  0  0  0  0
 11 10  2  0  0  0  0
 12 11  1  0  0  0  0
 13 12  2  0  0  0  0
 13 14  1  0  0  0  0
 14 15  2  0  0  0  0
 15 10  1  0  0  0  0
 18 14  1  0  0  0  0
 19  5  1  0  0  0  0
 19 26  1  0  0  0  0
 20 19  2  0  0  0  0
 21 20  1  0  0  0  0
 22 20  1  0  0  0  0
 22 24  1  0  0  0  0
 23 22  1  0  0  0  0
 24 25  1  0  0  0  0
 24 26  2  0  0  0  0
M  END
>  <minimizedAffinity>
-5.21494102

$$$$

 OpenBabel03242521033D

 26 28  0  0  0  0  0  0  0  0999 V2000
   37.2520   27.0970   41.4750 C   0  0  0  0  0  0  0  0  0  0  0  0
   37.5660   26.8880   42.7910 C   0  0  0  0  0  0  0  0  0  0  0  0
   37.9260   27.8890   43.6780 C   0  0  0  0  0  0  0  0  0  0  0  0
   37.9770   29.1850   43.2220 C   0  0  0  0  0  0  0  0  0  0  0  0
   37.6600   29.3630   41.9040 C   0  0  0  0  0  0  0  0  0  0  0  0
   37.3170   28.3730   41.0830 N   0  0  0  0  0  0  0  0  0  0  0  0
   37.5420   25.8810   43.2130 H   0  0  0  0  0  0  0  0  0  0  0  0
   38.1640   27.6540   44.7180 H   0  0  0  0  0  0  0  0  0  0  0  0
   38.2540   29.9970   43.8830 H   0  0  0  0  0  0  0  0  0  0  0  0
   36.1700   25.0230   38.5090 C   0  0  0  0  0  0  0  0  0  0  0  0
   36.5010   26.1600   39.2490 C   0  0  0  0  0  0  0  0  0  0  0  0
   36.8780   26.0160   40.5730 C   0  0  0  0  0  0  0  0  0  0  0  0
   36.9050   24.7500   41.0830 N   0  0  0  0  0  0  0  0  0  0  0  0
   36.5830   23.6600   40.3540 C   0  0  0  0  0  0  0  0  0  0  0  0
   36.2190   23.7980   39.0770 N   0  0  0  0  0  0  0  0  0  0  0  0
   35.8800   25.1830   37.4720 H   0  0  0  0  0  0  0  0  0  0  0  0
   36.4870   27.1590   38.8730 H   0  0  0  0  0  0  0  0  0  0  0  0
   36.6460   22.7160   40.8830 H   0  0  0  0  0  0  0  0  0  0  0  0
   37.6880   30.7200   41.3330 C   0  0  0  0  0  0  0  0  0  0  0  0
   36.6150   31.4110   40.8150 C   0  0  0  0  0  0  0  0  0  0  0  0
   35.6040   31.0000   40.7760 H   0  0  0  0  0  0  0  0  0  0  0  0
   36.9580   32.6300   40.3690 N   0  0  0  0  0  0  0  0  0  0  0  0
   36.3620   33.3640   39.9320 H   0  0  0  0  0  0  0  0  0  0  0  0
   38.2910   32.6910   40.6220 C   0  0  0  0  0  0  0  0  0  0  0  0
   38.9670   33.5140   40.4150 H   0  0  0  0  0  0  0  0  0  0  0  0
   38.7280   31.5580   41.1960 N   0  0  0  0  0  0  0  0  0  0  0  0
  1  2  1  0  0  0  0
  2  7  1  0  0  0  0
  2  3  2  0  0  0  0
  3  8  1  0  0  0  0
  4  3  1  0  0  0  0
  4  9  1  0  0  0  0
  5  4  2  0  0  0  0
  6  1  2  0  0  0  0
  6  5  1  0  0  0  0
 10 15  2  0  0  0  0
 10 11  1  0  0  0  0
 11 12  2  0  0  0  0
 12 13  1  0  0  0  0
 12  1  1  0  0  0  0
 14 18  1  0  0  0  0
 14 13  2  0  0  0  0
 15 14  1  0  0  0  0
 16 10  1  0  0  0  0
 17 11  1  0  0  0  0
 19  5  1  0  0  0  0
 20 19  2  0  0  0  0
 21 20  1  0  0  0  0
 22 24  1  0  0  0  0
 22 20  1  0  0  0  0
 23 22  1  0  0  0  0
 24 26  2  0  0  0  0
 25 24  1  0  0  0  0
 26 19  1  0  0  0  0
M  END
>  <minimizedAffinity>
-5.04938889

$$$$

 OpenBabel03242521033D

 26 28  0  0  0  0  0  0  0  0999 V2000
   37.3480   29.0180   41.3250 C   0  0  0  0  0  0  0  0  0  0  0  0
   37.3860   29.3230   42.6600 C   0  0  0  0  0  0  0  0  0  0  0  0
   37.4350   28.3840   43.6760 C   0  0  0  0  0  0  0  0  0  0  0  0
   37.4460   27.0510   43.3400 C   0  0  0  0  0  0  0  0  0  0  0  0
   37.4050   26.7760   42.0010 C   0  0  0  0  0  0  0  0  0  0  0  0
   37.3600   27.7100   41.0530 N   0  0  0  0  0  0  0  0  0  0  0  0
   37.3810   30.3640   42.9890 H   0  0  0  0  0  0  0  0  0  0  0  0
   37.4640   28.6950   44.7230 H   0  0  0  0  0  0  0  0  0  0  0  0
   37.4830   26.2840   44.1040 H   0  0  0  0  0  0  0  0  0  0  0  0
   37.3810   32.2540   39.3760 C   0  0  0  0  0  0  0  0  0  0  0  0
   37.4560   31.3980   40.4770 C   0  0  0  0  0  0  0  0  0  0  0  0
   37.2960   30.0370   40.2850 C   0  0  0  0  0  0  0  0  0  0  0  0
   37.0730   29.6060   39.0090 N   0  0  0  0  0  0  0  0  0  0  0  0
   37.0030   30.4460   37.9550 C   0  0  0  0  0  0  0  0  0  0  0  0
   37.1560   31.7590   38.1390 N   0  0  0  0  0  0  0  0  0  0  0  0
   37.5120   33.3170   39.5740 H   0  0  0  0  0  0  0  0  0  0  0  0
   37.6300   31.7110   41.4840 H   0  0  0  0  0  0  0  0  0  0  0  0
   36.8200   29.9710   36.9970 H   0  0  0  0  0  0  0  0  0  0  0  0
   37.4140   25.3740   41.5520 C   0  0  0  0  0  0  0  0  0  0  0  0
   38.1800   24.3550   42.0730 C   0  0  0  0  0  0  0  0  0  0  0  0
   38.8810   24.4970   42.8990 H   0  0  0  0  0  0  0  0  0  0  0  0
   37.9640   23.1840   41.4520 N   0  0  0  0  0  0  0  0  0  0  0  0
   38.3970   22.2540   41.6300 H   0  0  0  0  0  0  0  0  0  0  0  0
   37.0320   23.4950   40.5150 C   0  0  0  0  0  0  0  0  0  0  0  0
   36.5750   22.8300   39.7900 H   0  0  0  0  0  0  0  0  0  0  0  0
   36.7020   24.7960   40.5720 N   0  0  0  0  0  0  0  0  0  0  0  0
  1  2  1  0  0  0  0
  2  7  1  0  0  0  0
  2  3  2  0  0  0  0
  3  8  1  0  0  0  0
  4  3  1  0  0  0  0
  4  9  1  0  0  0  0
  5  4  2  0  0  0  0
  6  1  2  0  0  0  0
  6  5  1  0  0  0  0
 10 16  1  0  0  0  0
 10 11  1  0  0  0  0
 11 17  1  0  0  0  0
 12 11  2  0  0  0  0
 12  1  1  0  0  0  0
 13 12  1  0  0  0  0
 14 15  1  0  0  0  0
 14 13  2  0  0  0  0
 15 10  2  0  0  0  0
 18 14  1  0  0  0  0
 19  5  1  0  0  0  0
 19 20  2  0  0  0  0
 20 21  1  0  0  0  0
 22 23  1  0  0  0  0
 22 20  1  0  0  0  0
 24 26  2  0  0  0  0
 24 22  1  0  0  0  0
 25 24  1  0  0  0  0
 26 19  1  0  0  0  0
M  END
>  <minimizedAffinity>
-4.78571606

$$$$

 OpenBabel03242521033D

 26 28  0  0  0  0  0  0  0  0999 V2000
   38.6260   25.6090   41.5700 C   0  0  0  0  0  0  0  0  0  0  0  0
   39.2390   25.6470   42.7940 C   0  0  0  0  0  0  0  0  0  0  0  0
   39.1690   26.7170   43.6710 C   0  0  0  0  0  0  0  0  0  0  0  0
   38.4380   27.8220   43.3040 C   0  0  0  0  0  0  0  0  0  0  0  0
   37.8380   27.7560   42.0770 C   0  0  0  0  0  0  0  0  0  0  0  0
   37.9300   26.7070   41.2610 N   0  0  0  0  0  0  0  0  0  0  0  0
   39.8330   24.8000   43.1430 H   0  0  0  0  0  0  0  0  0  0  0  0
   39.6820   26.6830   44.6350 H   0  0  0  0  0  0  0  0  0  0  0  0
   38.3570   28.6790   43.9610 H   0  0  0  0  0  0  0  0  0  0  0  0
   39.4150   23.2560   38.7220 C   0  0  0  0  0  0  0  0  0  0  0  0
   39.4100   24.4340   39.4730 C   0  0  0  0  0  0  0  0  0  0  0  0
   38.7260   24.4640   40.6750 C   0  0  0  0  0  0  0  0  0  0  0  0
   38.0880   23.3210   41.0620 N   0  0  0  0  0  0  0  0  0  0  0  0
   38.1020   22.1890   40.3250 C   0  0  0  0  0  0  0  0  0  0  0  0
   38.7610   22.1600   39.1650 N   0  0  0  0  0  0  0  0  0  0  0  0
   39.9660   23.2780   37.7830 H   0  0  0  0  0  0  0  0  0  0  0  0
   39.9010   25.3400   39.1910 H   0  0  0  0  0  0  0  0  0  0  0  0
   37.5540   21.3560   40.7490 H   0  0  0  0  0  0  0  0  0  0  0  0
   37.0360   28.8960   41.6040 C   0  0  0  0  0  0  0  0  0  0  0  0
   35.7560   28.8400   41.0990 C   0  0  0  0  0  0  0  0  0  0  0  0
   35.1960   27.9080   40.9950 H   0  0  0  0  0  0  0  0  0  0  0  0
   35.2900   30.0510   40.7530 N   0  0  0  0  0  0  0  0  0  0  0  0
   34.3660   30.3100   40.3480 H   0  0  0  0  0  0  0  0  0  0  0  0
   36.3200   30.8800   41.0570 C   0  0  0  0  0  0  0  0  0  0  0  0
   36.3610   31.9580   40.9320 H   0  0  0  0  0  0  0  0  0  0  0  0
   37.3600   30.1980   41.5640 N   0  0  0  0  0  0  0  0  0  0  0  0
  1  2  1  0  0  0  0
  2  7  1  0  0  0  0
  2  3  2  0  0  0  0
  3  8  1  0  0  0  0
  4  3  1  0  0  0  0
  4  9  1  0  0  0  0
  5  4  2  0  0  0  0
  6  1  2  0  0  0  0
  6  5  1  0  0  0  0
 10 15  2  0  0  0  0
 10 11  1  0  0  0  0
 11 12  2  0  0  0  0
 12 13  1  0  0  0  0
 12  1  1  0  0  0  0
 14 18  1  0  0  0  0
 14 13  2  0  0  0  0
 15 14  1  0  0  0  0
 16 10  1  0  0  0  0
 17 11  1  0  0  0  0
 19  5  1  0  0  0  0
 20 19  2  0  0  0  0
 21 20  1  0  0  0  0
 22 24  1  0  0  0  0
 22 20  1  0  0  0  0
 23 22  1  0  0  0  0
 24 26  2  0  0  0  0
 25 24  1  0  0  0  0
 26 19  1  0  0  0  0
M  END
>  <minimizedAffinity>
-4.7605896

$$$$

 OpenBabel03242521033D

 26 28  0  0  0  0  0  0  0  0999 V2000
   37.6290   29.4370   41.7360 C   0  0  0  0  0  0  0  0  0  0  0  0
   37.7240   29.1860   43.0790 C   0  0  0  0  0  0  0  0  0  0  0  0
   37.5300   27.9430   43.6580 C   0  0  0  0  0  0  0  0  0  0  0  0
   37.2190   26.8790   42.8440 C   0  0  0  0  0  0  0  0  0  0  0  0
   37.1300   27.1600   41.5080 C   0  0  0  0  0  0  0  0  0  0  0  0
   37.3250   28.3710   40.9900 N   0  0  0  0  0  0  0  0  0  0  0  0
   37.9680   29.9890   43.7770 H   0  0  0  0  0  0  0  0  0  0  0  0
   37.6210   27.8090   44.7380 H   0  0  0  0  0  0  0  0  0  0  0  0
   37.0600   25.8900   43.2560 H   0  0  0  0  0  0  0  0  0  0  0  0
   37.2890   32.7200   39.8980 C   0  0  0  0  0  0  0  0  0  0  0  0
   36.9420   31.4520   40.3720 C   0  0  0  0  0  0  0  0  0  0  0  0
   37.8400   30.7610   41.1660 C   0  0  0  0  0  0  0  0  0  0  0  0
   39.0290   31.3710   41.4450 N   0  0  0  0  0  0  0  0  0  0  0  0
   39.3500   32.5970   40.9800 C   0  0  0  0  0  0  0  0  0  0  0  0
   38.4840   33.2640   40.2130 N   0  0  0  0  0  0  0  0  0  0  0  0
   36.5530   33.2270   39.2760 H   0  0  0  0  0  0  0  0  0  0  0  0
   36.0190   30.9560   40.1670 H   0  0  0  0  0  0  0  0  0  0  0  0
   40.3270   32.9620   41.2770 H   0  0  0  0  0  0  0  0  0  0  0  0
   36.8020   26.0790   40.5640 C   0  0  0  0  0  0  0  0  0  0  0  0
   36.4670   26.2270   39.2370 C   0  0  0  0  0  0  0  0  0  0  0  0
   36.4080   27.1990   38.7420 H   0  0  0  0  0  0  0  0  0  0  0  0
   36.2220   25.0510   38.6370 N   0  0  0  0  0  0  0  0  0  0  0  0
   35.9500   24.8590   37.6500 H   0  0  0  0  0  0  0  0  0  0  0  0
   36.4150   24.1480   39.6310 C   0  0  0  0  0  0  0  0  0  0  0  0
   36.3200   23.0680   39.5720 H   0  0  0  0  0  0  0  0  0  0  0  0
   36.7600   24.7540   40.7780 N   0  0  0  0  0  0  0  0  0  0  0  0
  1  2  1  0  0  0  0
  2  3  2  0  0  0  0
  2  7  1  0  0  0  0
  3  8  1  0  0  0  0
  4  9  1  0  0  0  0
  4  3  1  0  0  0  0
  5  4  2  0  0  0  0
  6  5  1  0  0  0  0
  6  1  2  0  0  0  0
 10 15  2  0  0  0  0
 10 11  1  0  0  0  0
 11 12  2  0  0  0  0
 12 13  1  0  0  0  0
 12  1  1  0  0  0  0
 14 18  1  0  0  0  0
 14 13  2  0  0  0  0
 15 14  1  0  0  0  0
 16 10  1  0  0  0  0
 17 11  1  0  0  0  0
 19 26  1  0  0  0  0
 19  5  1  0  0  0  0
 20 19  2  0  0  0  0
 21 20  1  0  0  0  0
 22 20  1  0  0  0  0
 22 24  1  0  0  0  0
 23 22  1  0  0  0  0
 24 26  2  0  0  0  0
 25 24  1  0  0  0  0
M  END
>  <minimizedAffinity>
-4.69544935

$$$$

 OpenBabel03242521033D

 26 28  0  0  0  0  0  0  0  0999 V2000
   37.3430   28.2070   40.7350 C   0  0  0  0  0  0  0  0  0  0  0  0
   36.0480   28.6280   40.8770 C   0  0  0  0  0  0  0  0  0  0  0  0
   35.5240   29.7610   40.2770 C   0  0  0  0  0  0  0  0  0  0  0  0
   36.3460   30.5250   39.4820 C   0  0  0  0  0  0  0  0  0  0  0  0
   37.6330   30.0810   39.3600 C   0  0  0  0  0  0  0  0  0  0  0  0
   38.0990   28.9840   39.9530 N   0  0  0  0  0  0  0  0  0  0  0  0
   35.3470   28.0640   41.4940 H   0  0  0  0  0  0  0  0  0  0  0  0
   34.4800   30.0420   40.4310 H   0  0  0  0  0  0  0  0  0  0  0  0
   35.9750   31.4190   38.9950 H   0  0  0  0  0  0  0  0  0  0  0  0
   37.8300   24.7280   42.1250 C   0  0  0  0  0  0  0  0  0  0  0  0
   37.2050   25.7900   41.4670 C   0  0  0  0  0  0  0  0  0  0  0  0
   37.8570   27.0080   41.3840 C   0  0  0  0  0  0  0  0  0  0  0  0
   39.0920   27.0980   41.9570 N   0  0  0  0  0  0  0  0  0  0  0  0
   39.6830   26.0620   42.5900 C   0  0  0  0  0  0  0  0  0  0  0  0
   39.0550   24.8870   42.6710 N   0  0  0  0  0  0  0  0  0  0  0  0
   37.2800   23.7890   42.1670 H   0  0  0  0  0  0  0  0  0  0  0  0
   36.2400   25.7440   41.0110 H   0  0  0  0  0  0  0  0  0  0  0  0
   40.6650   26.2710   43.0010 H   0  0  0  0  0  0  0  0  0  0  0  0
   38.5810   30.8390   38.5270 C   0  0  0  0  0  0  0  0  0  0  0  0
   38.2680   31.6100   37.4290 C   0  0  0  0  0  0  0  0  0  0  0  0
   37.2480   31.7340   37.0580 H   0  0  0  0  0  0  0  0  0  0  0  0
   39.3520   32.1790   36.8780 N   0  0  0  0  0  0  0  0  0  0  0  0
   39.4180   32.8060   36.0480 H   0  0  0  0  0  0  0  0  0  0  0  0
   40.3680   31.7430   37.6660 C   0  0  0  0  0  0  0  0  0  0  0  0
   41.4250   31.9700   37.5690 H   0  0  0  0  0  0  0  0  0  0  0  0
   39.9140   30.9460   38.6470 N   0  0  0  0  0  0  0  0  0  0  0  0
  1  2  1  0  0  0  0
  1 12  1  0  0  0  0
  2  7  1  0  0  0  0
  3  8  1  0  0  0  0
  3  2  2  0  0  0  0
  4  3  1  0  0  0  0
  5  4  2  0  0  0  0
  5  6  1  0  0  0  0
  6  1  2  0  0  0  0
  9  4  1  0  0  0  0
 10 16  1  0  0  0  0
 10 15  1  0  0  0  0
 11 10  2  0  0  0  0
 12 11  1  0  0  0  0
 12 13  2  0  0  0  0
 13 14  1  0  0  0  0
 14 15  2  0  0  0  0
 14 18  1  0  0  0  0
 17 11  1  0  0  0  0
 19 26  1  0  0  0  0
 19  5  1  0  0  0  0
 20 19  2  0  0  0  0
 21 20  1  0  0  0  0
 22 20  1  0  0  0  0
 22 24  1  0  0  0  0
 23 22  1  0  0  0  0
 24 26  2  0  0  0  0
 25 24  1  0  0  0  0
M  END
>  <minimizedAffinity>
-4.69296455

$$$$

 OpenBabel03242521033D

 26 28  0  0  0  0  0  0  0  0999 V2000
   39.4720   32.4230   40.3090 C   0  0  0  0  0  0  0  0  0  0  0  0
   38.5000   33.0440   39.5710 C   0  0  0  0  0  0  0  0  0  0  0  0
   37.1700   32.6590   39.5470 C   0  0  0  0  0  0  0  0  0  0  0  0
   36.7830   31.5820   40.3080 C   0  0  0  0  0  0  0  0  0  0  0  0
   37.7740   30.9810   41.0330 C   0  0  0  0  0  0  0  0  0  0  0  0
   39.0440   31.3820   41.0300 N   0  0  0  0  0  0  0  0  0  0  0  0
   38.7450   33.9060   38.9470 H   0  0  0  0  0  0  0  0  0  0  0  0
   36.4440   33.1990   38.9350 H   0  0  0  0  0  0  0  0  0  0  0  0
   35.7520   31.2480   40.3170 H   0  0  0  0  0  0  0  0  0  0  0  0
   43.1190   33.0080   41.1030 C   0  0  0  0  0  0  0  0  0  0  0  0
   41.8220   32.5070   41.2400 C   0  0  0  0  0  0  0  0  0  0  0  0
   40.8620   32.8590   40.3070 C   0  0  0  0  0  0  0  0  0  0  0  0
   41.2480   33.6860   39.2920 N   0  0  0  0  0  0  0  0  0  0  0  0
   42.5060   34.1610   39.1730 C   0  0  0  0  0  0  0  0  0  0  0  0
   43.4320   33.8230   40.0730 N   0  0  0  0  0  0  0  0  0  0  0  0
   43.8410   32.7050   41.8600 H   0  0  0  0  0  0  0  0  0  0  0  0
   41.4960   31.8590   42.0250 H   0  0  0  0  0  0  0  0  0  0  0  0
   42.6760   34.8090   38.3200 H   0  0  0  0  0  0  0  0  0  0  0  0
   37.4470   29.8190   41.8770 C   0  0  0  0  0  0  0  0  0  0  0  0
   36.4270   28.9190   41.6670 C   0  0  0  0  0  0  0  0  0  0  0  0
   35.7370   28.9850   40.8230 H   0  0  0  0  0  0  0  0  0  0  0  0
   36.3830   27.9660   42.6120 N   0  0  0  0  0  0  0  0  0  0  0  0
   35.7260   27.1640   42.7100 H   0  0  0  0  0  0  0  0  0  0  0  0
   37.4140   28.2930   43.4330 C   0  0  0  0  0  0  0  0  0  0  0  0
   37.7340   27.7760   44.3320 H   0  0  0  0  0  0  0  0  0  0  0  0
   38.0500   29.3940   42.9990 N   0  0  0  0  0  0  0  0  0  0  0  0
  1  6  1  0  0  0  0
  2  1  2  0  0  0  0
  3  2  1  0  0  0  0
  3  4  2  0  0  0  0
  4  9  1  0  0  0  0
  4  5  1  0  0  0  0
  5 19  1  0  0  0  0
  6  5  2  0  0  0  0
  7  2  1  0  0  0  0
  8  3  1  0  0  0  0
 10 11  1  0  0  0  0
 10 16  1  0  0  0  0
 11 17  1  0  0  0  0
 12  1  1  0  0  0  0
 12 11  2  0  0  0  0
 13 12  1  0  0  0  0
 14 13  2  0  0  0  0
 14 15  1  0  0  0  0
 15 10  2  0  0  0  0
 18 14  1  0  0  0  0
 19 26  1  0  0  0  0
 20 19  2  0  0  0  0
 20 22  1  0  0  0  0
 21 20  1  0  0  0  0
 22 23  1  0  0  0  0
 22 24  1  0  0  0  0
 24 25  1  0  0  0  0
 26 24  2  0  0  0  0
M  END
>  <minimizedAffinity>
-4.68368769

$$$$

 OpenBabel03242521033D

 26 28  0  0  0  0  0  0  0  0999 V2000
   38.4420   29.3760   42.1910 C   0  0  0  0  0  0  0  0  0  0  0  0
   37.3360   28.9390   42.8710 C   0  0  0  0  0  0  0  0  0  0  0  0
   37.2840   27.7690   43.6100 C   0  0  0  0  0  0  0  0  0  0  0  0
   38.4080   26.9810   43.6750 C   0  0  0  0  0  0  0  0  0  0  0  0
   39.4960   27.4410   42.9860 C   0  0  0  0  0  0  0  0  0  0  0  0
   39.5070   28.5740   42.2870 N   0  0  0  0  0  0  0  0  0  0  0  0
   36.4130   29.5220   42.8580 H   0  0  0  0  0  0  0  0  0  0  0  0
   36.3680   27.4780   44.1300 H   0  0  0  0  0  0  0  0  0  0  0  0
   38.4090   26.0580   44.2420 H   0  0  0  0  0  0  0  0  0  0  0  0
   37.5460   32.3700   40.0700 C   0  0  0  0  0  0  0  0  0  0  0  0
   37.3740   31.1720   40.7670 C   0  0  0  0  0  0  0  0  0  0  0  0
   38.4570   30.6140   41.4230 C   0  0  0  0  0  0  0  0  0  0  0  0
   39.6460   31.2810   41.3510 N   0  0  0  0  0  0  0  0  0  0  0  0
   39.7950   32.4390   40.6730 C   0  0  0  0  0  0  0  0  0  0  0  0
   38.7510   32.9770   40.0380 N   0  0  0  0  0  0  0  0  0  0  0  0
   36.6670   32.7720   39.5680 H   0  0  0  0  0  0  0  0  0  0  0  0
   36.4550   30.6320   40.8380 H   0  0  0  0  0  0  0  0  0  0  0  0
   40.7940   32.8610   40.6960 H   0  0  0  0  0  0  0  0  0  0  0  0
   40.7440   26.6590   43.0030 C   0  0  0  0  0  0  0  0  0  0  0  0
   40.8520   25.2920   42.8760 C   0  0  0  0  0  0  0  0  0  0  0  0
   39.9890   24.6340   42.7480 H   0  0  0  0  0  0  0  0  0  0  0  0
   42.1270   24.8730   42.9300 N   0  0  0  0  0  0  0  0  0  0  0  0
   42.5050   23.9050   42.8630 H   0  0  0  0  0  0  0  0  0  0  0  0
   42.8260   26.0240   43.0950 C   0  0  0  0  0  0  0  0  0  0  0  0
   43.9020   26.1370   43.1860 H   0  0  0  0  0  0  0  0  0  0  0  0
   42.0080   27.0880   43.1390 N   0  0  0  0  0  0  0  0  0  0  0  0
  1  6  2  0  0  0  0
  1  2  1  0  0  0  0
  2  3  2  0  0  0  0
  3  4  1  0  0  0  0
  3  8  1  0  0  0  0
  4  9  1  0  0  0  0
  5 19  1  0  0  0  0
  5  4  2  0  0  0  0
  6  5  1  0  0  0  0
  7  2  1  0  0  0  0
 10 11  1  0  0  0  0
 11 17  1  0  0  0  0
 11 12  2  0  0  0  0
 12  1  1  0  0  0  0
 13 12  1  0  0  0  0
 14 18  1  0  0  0  0
 14 13  2  0  0  0  0
 15 10  2  0  0  0  0
 15 14  1  0  0  0  0
 16 10  1  0  0  0  0
 19 26  1  0  0  0  0
 20 22  1  0  0  0  0
 20 19  2  0  0  0  0
 21 20  1  0  0  0  0
 22 24  1  0  0  0  0
 23 22  1  0  0  0  0
 24 26  2  0  0  0  0
 24 25  1  0  0  0  0
M  END
>  <minimizedAffinity>
-4.67738867

$$$$

 OpenBabel03242521033D

 26 28  0  0  0  0  0  0  0  0999 V2000
   36.5100   27.3420   39.1110 C   0  0  0  0  0  0  0  0  0  0  0  0
   36.1110   27.1410   37.8160 C   0  0  0  0  0  0  0  0  0  0  0  0
   35.9240   28.1540   36.8900 C   0  0  0  0  0  0  0  0  0  0  0  0
   36.1480   29.4530   37.2800 C   0  0  0  0  0  0  0  0  0  0  0  0
   36.5440   29.6220   38.5780 C   0  0  0  0  0  0  0  0  0  0  0  0
   36.7130   28.6210   39.4390 N   0  0  0  0  0  0  0  0  0  0  0  0
   35.9180   26.1320   37.4460 H   0  0  0  0  0  0  0  0  0  0  0  0
   35.6050   27.9250   35.8700 H   0  0  0  0  0  0  0  0  0  0  0  0
   36.0130   30.2740   36.5860 H   0  0  0  0  0  0  0  0  0  0  0  0
   36.6570   23.9770   40.8220 C   0  0  0  0  0  0  0  0  0  0  0  0
   36.4270   24.9130   39.8110 C   0  0  0  0  0  0  0  0  0  0  0  0
   36.6950   26.2480   40.0560 C   0  0  0  0  0  0  0  0  0  0  0  0
   37.1770   26.5750   41.2900 N   0  0  0  0  0  0  0  0  0  0  0  0
   37.3950   25.6580   42.2570 C   0  0  0  0  0  0  0  0  0  0  0  0
   37.1360   24.3700   42.0220 N   0  0  0  0  0  0  0  0  0  0  0  0
   36.4320   22.9380   40.5860 H   0  0  0  0  0  0  0  0  0  0  0  0
   36.0500   24.6820   38.8390 H   0  0  0  0  0  0  0  0  0  0  0  0
   37.7800   26.0540   43.1910 H   0  0  0  0  0  0  0  0  0  0  0  0
   36.8060   30.9810   39.0800 C   0  0  0  0  0  0  0  0  0  0  0  0
   36.7120   31.4010   40.3880 C   0  0  0  0  0  0  0  0  0  0  0  0
   36.4190   30.7410   41.2070 H   0  0  0  0  0  0  0  0  0  0  0  0
   37.0150   32.7020   40.5310 N   0  0  0  0  0  0  0  0  0  0  0  0
   37.0290   33.2840   41.3940 H   0  0  0  0  0  0  0  0  0  0  0  0
   37.3070   33.0940   39.2650 C   0  0  0  0  0  0  0  0  0  0  0  0
   37.6060   34.0830   38.9310 H   0  0  0  0  0  0  0  0  0  0  0  0
   37.1850   32.0750   38.3990 N   0  0  0  0  0  0  0  0  0  0  0  0
  1  6  1  0  0  0  0
  1 12  1  0  0  0  0
  2  1  2  0  0  0  0
  3  4  2  0  0  0  0
  3  2  1  0  0  0  0
  4  5  1  0  0  0  0
  5 19  1  0  0  0  0
  5  6  2  0  0  0  0
  7  2  1  0  0  0  0
  8  3  1  0  0  0  0
  9  4  1  0  0  0  0
 10 15  1  0  0  0  0
 11 12  1  0  0  0  0
 11 10  2  0  0  0  0
 12 13  2  0  0  0  0
 13 14  1  0  0  0  0
 14 18  1  0  0  0  0
 15 14  2  0  0  0  0
 16 10  1  0  0  0  0
 17 11  1  0  0  0  0
 19 20  2  0  0  0  0
 20 22  1  0  0  0  0
 20 21  1  0  0  0  0
 22 23  1  0  0  0  0
 24 22  1  0  0  0  0
 25 24  1  0  0  0  0
 26 19  1  0  0  0  0
 26 24  2  0  0  0  0
M  END
>  <minimizedAffinity>
-4.66795826

$$$$
