
 OpenBabel03242520143D

 24 26  0  0  0  0  0  0  0  0999 V2000
   45.5590   34.0580   43.3980 C   0  0  0  0  0  0  0  0  0  0  0  0
   46.9040   34.1750   42.9910 C   0  0  0  0  0  0  0  0  0  0  0  0
   47.7640   33.0660   43.1190 C   0  0  0  0  0  0  0  0  0  0  0  0
   47.2240   31.9300   43.6400 N   0  0  0  0  0  0  0  0  0  0  0  0
   45.9230   31.8610   44.0210 C   0  0  0  0  0  0  0  0  0  0  0  0
   45.1100   32.9080   43.8990 N   0  0  0  0  0  0  0  0  0  0  0  0
   47.3330   35.0620   42.5810 H   0  0  0  0  0  0  0  0  0  0  0  0
   45.5440   30.9320   44.4300 H   0  0  0  0  0  0  0  0  0  0  0  0
   44.6890   35.2450   43.2580 C   0  0  0  0  0  0  0  0  0  0  0  0
   44.5780   36.0570   44.5780 C   0  0  0  0  0  0  0  0  0  0  0  0
   45.1820   36.6030   43.3230 C   0  0  0  0  0  0  0  0  0  0  0  0
   43.7140   35.0380   42.7590 H   0  0  0  0  0  0  0  0  0  0  0  0
   45.2220   35.7540   45.4230 H   0  0  0  0  0  0  0  0  0  0  0  0
   43.5450   36.3760   44.8100 H   0  0  0  0  0  0  0  0  0  0  0  0
   46.2830   36.8120   43.3890 H   0  0  0  0  0  0  0  0  0  0  0  0
   44.6230   37.3980   42.8140 H   0  0  0  0  0  0  0  0  0  0  0  0
   49.1650   33.1200   42.7150 C   0  0  0  0  0  0  0  0  0  0  0  0
   49.9230   34.2740   42.7090 C   0  0  0  0  0  0  0  0  0  0  0  0
   49.6870   35.2970   42.9720 H   0  0  0  0  0  0  0  0  0  0  0  0
   51.1320   33.8590   42.2730 N   0  0  0  0  0  0  0  0  0  0  0  0
   51.9800   34.4860   42.1420 H   0  0  0  0  0  0  0  0  0  0  0  0
   51.1620   32.5200   42.0110 C   0  0  0  0  0  0  0  0  0  0  0  0
   52.0380   31.9990   41.6540 H   0  0  0  0  0  0  0  0  0  0  0  0
   49.9040   32.0770   42.2990 N   0  0  0  0  0  0  0  0  0  0  0  0
  1  6  1  0  0  0  0
  2  3  1  0  0  0  0
  2  1  2  0  0  0  0
  3  4  2  0  0  0  0
  4  5  1  0  0  0  0
  5  8  1  0  0  0  0
  6  5  2  0  0  0  0
  7  2  1  0  0  0  0
  9 11  1  0  0  0  0
  9  1  1  0  0  0  0
  9 10  1  0  0  0  0
 10 14  1  0  0  0  0
 10 13  1  0  0  0  0
 11 15  1  0  0  0  0
 11 10  1  0  0  0  0
 12  9  1  0  0  0  0
 16 11  1  0  0  0  0
 17  3  1  0  0  0  0
 18 17  2  0  0  0  0
 18 19  1  0  0  0  0
 20 18  1  0  0  0  0
 21 20  1  0  0  0  0
 22 20  1  0  0  0  0
 22 24  2  0  0  0  0
 23 22  1  0  0  0  0
 24 17  1  0  0  0  0
M  END
>  <minimizedAffinity>
-4.10817146

>  <minimizedRMSD>
2.1398797

$$$$
