
 OpenBabel03252508203D

 33 35  0  0  0  0  0  0  0  0999 V2000
   46.1060   33.6590   39.5370 C   0  0  0  0  0  0  0  0  0  0  0  0
   45.6680   33.2290   38.2890 C   0  0  0  0  0  0  0  0  0  0  0  0
   46.4620   33.0480   37.1680 C   0  0  0  0  0  0  0  0  0  0  0  0
   47.8030   33.3300   37.3480 C   0  0  0  0  0  0  0  0  0  0  0  0
   48.2590   33.7550   38.5690 C   0  0  0  0  0  0  0  0  0  0  0  0
   47.4540   33.9320   39.6840 C   0  0  0  0  0  0  0  0  0  0  0  0
   44.5880   33.0250   38.2260 H   0  0  0  0  0  0  0  0  0  0  0  0
   45.9590   32.7090   36.2800 H   0  0  0  0  0  0  0  0  0  0  0  0
   48.4260   33.1910   36.4800 H   0  0  0  0  0  0  0  0  0  0  0  0
   49.3320   33.9330   38.5400 H   0  0  0  0  0  0  0  0  0  0  0  0
   48.1600   34.3930   40.8640 C   0  0  0  0  0  0  0  0  0  0  0  0
   48.4530   33.8650   42.0890 C   0  0  0  0  0  0  0  0  0  0  0  0
   48.1690   32.8970   42.4400 H   0  0  0  0  0  0  0  0  0  0  0  0
   49.1620   34.6490   42.8740 N   0  0  0  0  0  0  0  0  0  0  0  0
   49.5180   34.5120   43.8320 H   0  0  0  0  0  0  0  0  0  0  0  0
   49.3560   35.7540   42.1440 C   0  0  0  0  0  0  0  0  0  0  0  0
   49.8810   36.6830   42.3540 H   0  0  0  0  0  0  0  0  0  0  0  0
   48.7570   35.5820   40.9620 N   0  0  0  0  0  0  0  0  0  0  0  0
   45.2210   33.8500   40.6790 C   0  0  0  0  0  0  0  0  0  0  0  0
   44.8810   34.9110   40.6670 H   0  0  0  0  0  0  0  0  0  0  0  0
   45.6660   33.6120   41.6480 H   0  0  0  0  0  0  0  0  0  0  0  0
   43.9010   33.0700   40.5100 C   0  0  0  0  0  0  0  0  0  0  0  0
   43.9670   32.5260   39.5660 H   0  0  0  0  0  0  0  0  0  0  0  0
   43.7080   32.4310   41.3860 H   0  0  0  0  0  0  0  0  0  0  0  0
   41.2580   35.4230   39.1730 C   0  0  0  0  0  0  0  0  0  0  0  0
   42.3000   34.4590   39.1820 C   0  0  0  0  0  0  0  0  0  0  0  0
   42.8070   34.0770   40.4170 C   0  0  0  0  0  0  0  0  0  0  0  0
   42.2550   34.6670   41.5320 N   0  0  0  0  0  0  0  0  0  0  0  0
   41.2820   35.5640   41.4890 C   0  0  0  0  0  0  0  0  0  0  0  0
   40.7740   35.9500   40.3140 N   0  0  0  0  0  0  0  0  0  0  0  0
   40.9180   35.6660   38.1630 H   0  0  0  0  0  0  0  0  0  0  0  0
   42.6890   34.0350   38.2660 H   0  0  0  0  0  0  0  0  0  0  0  0
   40.9180   35.9660   42.4200 H   0  0  0  0  0  0  0  0  0  0  0  0
  1  6  1  0  0  0  0
  1 19  1  0  0  0  0
  2  1  2  0  0  0  0
  3  4  2  0  0  0  0
  3  2  1  0  0  0  0
  4  5  1  0  0  0  0
  5  6  2  0  0  0  0
  6 11  1  0  0  0  0
  7  2  1  0  0  0  0
  8  3  1  0  0  0  0
  9  4  1  0  0  0  0
 10  5  1  0  0  0  0
 11 18  1  0  0  0  0
 11 12  2  0  0  0  0
 12 13  1  0  0  0  0
 12 14  1  0  0  0  0
 14 15  1  0  0  0  0
 16 17  1  0  0  0  0
 16 14  1  0  0  0  0
 18 16  2  0  0  0  0
 19 21  1  0  0  0  0
 20 19  1  0  0  0  0
 22 19  1  0  0  0  0
 22 24  1  0  0  0  0
 23 22  1  0  0  0  0
 25 26  2  0  0  0  0
 25 30  1  0  0  0  0
 26 27  1  0  0  0  0
 27 22  1  0  0  0  0
 27 28  2  0  0  0  0
 29 28  1  0  0  0  0
 29 33  1  0  0  0  0
 30 29  2  0  0  0  0
 31 25  1  0  0  0  0
 32 26  1  0  0  0  0
M  END
>  <minimizedAffinity>
-4.51499462

>  <minimizedRMSD>
3.14934897

$$$$
