
 OpenBabel03242523293D

 20 21  0  0  0  0  0  0  0  0999 V2000
   39.0290   29.9450   40.5430 C   0  0  0  0  0  0  0  0  0  0  0  0
   39.0230   29.4980   39.5330 H   0  0  0  0  0  0  0  0  0  0  0  0
   40.0750   29.9590   40.9300 H   0  0  0  0  0  0  0  0  0  0  0  0
   37.5330   28.6330   43.6790 C   0  0  0  0  0  0  0  0  0  0  0  0
   36.7870   27.5510   43.2130 C   0  0  0  0  0  0  0  0  0  0  0  0
   36.8090   27.2890   41.8330 C   0  0  0  0  0  0  0  0  0  0  0  0
   37.5450   28.0900   41.0250 N   0  0  0  0  0  0  0  0  0  0  0  0
   38.2570   29.1330   41.5200 C   0  0  0  0  0  0  0  0  0  0  0  0
   38.2430   29.3910   42.8320 N   0  0  0  0  0  0  0  0  0  0  0  0
   37.5040   28.8240   44.7620 H   0  0  0  0  0  0  0  0  0  0  0  0
   36.1950   26.9020   43.8360 H   0  0  0  0  0  0  0  0  0  0  0  0
   36.2730   26.4810   41.3530 H   0  0  0  0  0  0  0  0  0  0  0  0
   38.5530   31.3510   40.4900 C   0  0  0  0  0  0  0  0  0  0  0  0
   37.2050   31.6570   40.3030 C   0  0  0  0  0  0  0  0  0  0  0  0
   36.3400   30.9910   40.1730 H   0  0  0  0  0  0  0  0  0  0  0  0
   37.0300   33.0010   40.2920 N   0  0  0  0  0  0  0  0  0  0  0  0
   36.1490   33.5500   40.1730 H   0  0  0  0  0  0  0  0  0  0  0  0
   38.2640   33.5100   40.4720 C   0  0  0  0  0  0  0  0  0  0  0  0
   38.5630   34.5680   40.5270 H   0  0  0  0  0  0  0  0  0  0  0  0
   39.2020   32.5440   40.5960 N   0  0  0  0  0  0  0  0  0  0  0  0
  1  3  1  0  0  0  0
  1  8  1  0  0  0  0
  2  1  1  0  0  0  0
  4 10  1  0  0  0  0
  5  4  1  0  0  0  0
  5 11  1  0  0  0  0
  6  5  2  0  0  0  0
  7  8  2  0  0  0  0
  7  6  1  0  0  0  0
  8  9  1  0  0  0  0
  9  4  2  0  0  0  0
 12  6  1  0  0  0  0
 13  1  1  0  0  0  0
 13 20  1  0  0  0  0
 14 13  2  0  0  0  0
 15 14  1  0  0  0  0
 16 14  1  0  0  0  0
 16 18  1  0  0  0  0
 17 16  1  0  0  0  0
 18 19  1  0  0  0  0
 18 20  2  0  0  0  0
M  END
>  <minimizedAffinity>
-3.85456491

$$$$

 OpenBabel03242523293D

 20 21  0  0  0  0  0  0  0  0999 V2000
   36.1870   30.7950   41.0220 C   0  0  0  0  0  0  0  0  0  0  0  0
   36.0380   31.6910   41.6520 H   0  0  0  0  0  0  0  0  0  0  0  0
   35.1980   30.3170   40.8260 H   0  0  0  0  0  0  0  0  0  0  0  0
   38.9180   29.0300   42.8160 C   0  0  0  0  0  0  0  0  0  0  0  0
   38.3920   27.7440   42.9500 C   0  0  0  0  0  0  0  0  0  0  0  0
   37.1120   27.5050   42.4230 C   0  0  0  0  0  0  0  0  0  0  0  0
   36.4520   28.5200   41.8160 N   0  0  0  0  0  0  0  0  0  0  0  0
   37.0000   29.7560   41.7070 C   0  0  0  0  0  0  0  0  0  0  0  0
   38.2180   29.9950   42.2050 N   0  0  0  0  0  0  0  0  0  0  0  0
   39.9200   29.1990   43.2340 H   0  0  0  0  0  0  0  0  0  0  0  0
   38.8980   26.9230   43.4280 H   0  0  0  0  0  0  0  0  0  0  0  0
   36.6000   26.5530   42.4650 H   0  0  0  0  0  0  0  0  0  0  0  0
   36.7660   31.1770   39.7090 C   0  0  0  0  0  0  0  0  0  0  0  0
   37.1850   32.4810   39.4480 C   0  0  0  0  0  0  0  0  0  0  0  0
   37.1660   33.3720   40.0930 H   0  0  0  0  0  0  0  0  0  0  0  0
   37.6730   32.5710   38.1870 N   0  0  0  0  0  0  0  0  0  0  0  0
   38.0630   33.4020   37.6890 H   0  0  0  0  0  0  0  0  0  0  0  0
   37.5520   31.3280   37.6830 C   0  0  0  0  0  0  0  0  0  0  0  0
   37.8350   30.9680   36.6810 H   0  0  0  0  0  0  0  0  0  0  0  0
   37.0120   30.4650   38.5720 N   0  0  0  0  0  0  0  0  0  0  0  0
  1  2  1  0  0  0  0
  1  8  1  0  0  0  0
  3  1  1  0  0  0  0
  4  5  1  0  0  0  0
  4 10  1  0  0  0  0
  5 11  1  0  0  0  0
  6 12  1  0  0  0  0
  6  5  2  0  0  0  0
  7  6  1  0  0  0  0
  8  7  2  0  0  0  0
  8  9  1  0  0  0  0
  9  4  2  0  0  0  0
 13  1  1  0  0  0  0
 14 13  2  0  0  0  0
 14 15  1  0  0  0  0
 16 14  1  0  0  0  0
 17 16  1  0  0  0  0
 18 16  1  0  0  0  0
 18 20  2  0  0  0  0
 19 18  1  0  0  0  0
 20 13  1  0  0  0  0
M  END
>  <minimizedAffinity>
-3.80144525

$$$$

 OpenBabel03242523293D

 20 21  0  0  0  0  0  0  0  0999 V2000
   36.2100   30.8160   40.9890 C   0  0  0  0  0  0  0  0  0  0  0  0
   36.0940   31.7180   41.6160 H   0  0  0  0  0  0  0  0  0  0  0  0
   35.2060   30.3640   40.8090 H   0  0  0  0  0  0  0  0  0  0  0  0
   37.2970   27.5920   42.4780 C   0  0  0  0  0  0  0  0  0  0  0  0
   38.5760   27.9040   42.9420 C   0  0  0  0  0  0  0  0  0  0  0  0
   39.0430   29.2130   42.7370 C   0  0  0  0  0  0  0  0  0  0  0  0
   38.2410   30.1040   42.1050 N   0  0  0  0  0  0  0  0  0  0  0  0
   37.0040   29.7590   41.6690 C   0  0  0  0  0  0  0  0  0  0  0  0
   36.5490   28.5160   41.8600 N   0  0  0  0  0  0  0  0  0  0  0  0
   36.9480   26.5630   42.6470 H   0  0  0  0  0  0  0  0  0  0  0  0
   39.2300   27.2130   43.4460 H   0  0  0  0  0  0  0  0  0  0  0  0
   40.0130   29.5740   43.0500 H   0  0  0  0  0  0  0  0  0  0  0  0
   36.7820   31.1750   39.6670 C   0  0  0  0  0  0  0  0  0  0  0  0
   37.1640   32.4830   39.3680 C   0  0  0  0  0  0  0  0  0  0  0  0
   37.1180   33.3910   39.9870 H   0  0  0  0  0  0  0  0  0  0  0  0
   37.6530   32.5500   38.1060 N   0  0  0  0  0  0  0  0  0  0  0  0
   38.0200   33.3770   37.5840 H   0  0  0  0  0  0  0  0  0  0  0  0
   37.5690   31.2890   37.6390 C   0  0  0  0  0  0  0  0  0  0  0  0
   37.8650   30.9090   36.6490 H   0  0  0  0  0  0  0  0  0  0  0  0
   37.0510   30.4380   38.5520 N   0  0  0  0  0  0  0  0  0  0  0  0
  1  2  1  0  0  0  0
  1  8  1  0  0  0  0
  3  1  1  0  0  0  0
  4 10  1  0  0  0  0
  4  5  1  0  0  0  0
  5 11  1  0  0  0  0
  6  5  2  0  0  0  0
  6 12  1  0  0  0  0
  7  6  1  0  0  0  0
  8  9  1  0  0  0  0
  8  7  2  0  0  0  0
  9  4  2  0  0  0  0
 13  1  1  0  0  0  0
 14 13  2  0  0  0  0
 14 15  1  0  0  0  0
 16 14  1  0  0  0  0
 17 16  1  0  0  0  0
 18 16  1  0  0  0  0
 18 20  2  0  0  0  0
 19 18  1  0  0  0  0
 20 13  1  0  0  0  0
M  END
>  <minimizedAffinity>
-3.76067853

$$$$

 OpenBabel03242523293D

 20 21  0  0  0  0  0  0  0  0999 V2000
   38.0480   28.0290   41.8990 C   0  0  0  0  0  0  0  0  0  0  0  0
   39.0110   28.4640   41.5750 H   0  0  0  0  0  0  0  0  0  0  0  0
   37.9820   28.0750   43.0110 H   0  0  0  0  0  0  0  0  0  0  0  0
   38.4640   24.7280   40.2490 C   0  0  0  0  0  0  0  0  0  0  0  0
   37.6520   23.9080   41.0340 C   0  0  0  0  0  0  0  0  0  0  0  0
   36.9760   24.5000   42.1140 C   0  0  0  0  0  0  0  0  0  0  0  0
   37.1410   25.8250   42.3440 N   0  0  0  0  0  0  0  0  0  0  0  0
   37.9410   26.5870   41.5550 C   0  0  0  0  0  0  0  0  0  0  0  0
   38.5880   26.0330   40.5240 N   0  0  0  0  0  0  0  0  0  0  0  0
   38.9850   24.2480   39.4080 H   0  0  0  0  0  0  0  0  0  0  0  0
   37.5060   22.8540   40.8700 H   0  0  0  0  0  0  0  0  0  0  0  0
   36.3200   23.9710   42.7920 H   0  0  0  0  0  0  0  0  0  0  0  0
   36.9150   28.8160   41.3510 C   0  0  0  0  0  0  0  0  0  0  0  0
   36.7520   30.1680   41.6530 C   0  0  0  0  0  0  0  0  0  0  0  0
   37.3640   30.8290   42.2840 H   0  0  0  0  0  0  0  0  0  0  0  0
   35.6500   30.6560   41.0350 N   0  0  0  0  0  0  0  0  0  0  0  0
   35.2540   31.6220   41.0570 H   0  0  0  0  0  0  0  0  0  0  0  0
   35.1430   29.6060   40.3590 C   0  0  0  0  0  0  0  0  0  0  0  0
   34.2460   29.5740   39.7220 H   0  0  0  0  0  0  0  0  0  0  0  0
   35.8810   28.4850   40.5270 N   0  0  0  0  0  0  0  0  0  0  0  0
  1  3  1  0  0  0  0
  2  1  1  0  0  0  0
  4  9  2  0  0  0  0
  4  5  1  0  0  0  0
  5  6  2  0  0  0  0
  6  7  1  0  0  0  0
  6 12  1  0  0  0  0
  8  1  1  0  0  0  0
  8  7  2  0  0  0  0
  9  8  1  0  0  0  0
 10  4  1  0  0  0  0
 11  5  1  0  0  0  0
 13 14  2  0  0  0  0
 13  1  1  0  0  0  0
 14 15  1  0  0  0  0
 16 17  1  0  0  0  0
 16 14  1  0  0  0  0
 18 20  2  0  0  0  0
 18 16  1  0  0  0  0
 19 18  1  0  0  0  0
 20 13  1  0  0  0  0
M  END
>  <minimizedAffinity>
-3.62328863

$$$$

 OpenBabel03242523293D

 20 21  0  0  0  0  0  0  0  0999 V2000
   37.6550   28.4650   43.6430 C   0  0  0  0  0  0  0  0  0  0  0  0
   38.1850   28.8410   44.5360 H   0  0  0  0  0  0  0  0  0  0  0  0
   36.5790   28.3130   43.8930 H   0  0  0  0  0  0  0  0  0  0  0  0
   37.9450   25.1220   42.0510 C   0  0  0  0  0  0  0  0  0  0  0  0
   39.1940   24.6940   42.5030 C   0  0  0  0  0  0  0  0  0  0  0  0
   39.9150   25.5580   43.3450 C   0  0  0  0  0  0  0  0  0  0  0  0
   39.3720   26.7540   43.6770 N   0  0  0  0  0  0  0  0  0  0  0  0
   38.1530   27.1320   43.2150 C   0  0  0  0  0  0  0  0  0  0  0  0
   37.4590   26.3170   42.4130 N   0  0  0  0  0  0  0  0  0  0  0  0
   37.3950   24.4340   41.3930 H   0  0  0  0  0  0  0  0  0  0  0  0
   39.6440   23.7480   42.2520 H   0  0  0  0  0  0  0  0  0  0  0  0
   40.8900   25.3390   43.7580 H   0  0  0  0  0  0  0  0  0  0  0  0
   37.7220   29.4620   42.5440 C   0  0  0  0  0  0  0  0  0  0  0  0
   38.9120   30.1180   42.2260 C   0  0  0  0  0  0  0  0  0  0  0  0
   39.9090   30.0300   42.6800 H   0  0  0  0  0  0  0  0  0  0  0  0
   38.7120   30.9720   41.1940 N   0  0  0  0  0  0  0  0  0  0  0  0
   39.3940   31.6060   40.7210 H   0  0  0  0  0  0  0  0  0  0  0  0
   37.4080   30.8360   40.8840 C   0  0  0  0  0  0  0  0  0  0  0  0
   36.8370   31.3540   40.0970 H   0  0  0  0  0  0  0  0  0  0  0  0
   36.7840   29.9360   41.6760 N   0  0  0  0  0  0  0  0  0  0  0  0
  1  3  1  0  0  0  0
  1  2  1  0  0  0  0
  4  9  2  0  0  0  0
  4  5  1  0  0  0  0
  5  6  2  0  0  0  0
  6  7  1  0  0  0  0
  6 12  1  0  0  0  0
  8  1  1  0  0  0  0
  8  7  2  0  0  0  0
  9  8  1  0  0  0  0
 10  4  1  0  0  0  0
 11  5  1  0  0  0  0
 13  1  1  0  0  0  0
 14 13  2  0  0  0  0
 14 15  1  0  0  0  0
 16 14  1  0  0  0  0
 17 16  1  0  0  0  0
 18 16  1  0  0  0  0
 18 20  2  0  0  0  0
 19 18  1  0  0  0  0
 20 13  1  0  0  0  0
M  END
>  <minimizedAffinity>
-3.58356071

$$$$

 OpenBabel03242523293D

 20 21  0  0  0  0  0  0  0  0999 V2000
   39.1330   29.4990   40.9870 C   0  0  0  0  0  0  0  0  0  0  0  0
   40.1170   29.5540   41.4850 H   0  0  0  0  0  0  0  0  0  0  0  0
   39.2380   28.9340   40.0310 H   0  0  0  0  0  0  0  0  0  0  0  0
   38.6500   33.1710   40.7030 C   0  0  0  0  0  0  0  0  0  0  0  0
   37.5930   33.2550   39.7960 C   0  0  0  0  0  0  0  0  0  0  0  0
   37.0640   32.0520   39.2970 C   0  0  0  0  0  0  0  0  0  0  0  0
   37.5980   30.8780   39.7140 N   0  0  0  0  0  0  0  0  0  0  0  0
   38.6260   30.8410   40.5990 C   0  0  0  0  0  0  0  0  0  0  0  0
   39.1360   31.9800   41.0800 N   0  0  0  0  0  0  0  0  0  0  0  0
   39.0510   34.1210   41.0830 H   0  0  0  0  0  0  0  0  0  0  0  0
   37.1540   34.1750   39.4510 H   0  0  0  0  0  0  0  0  0  0  0  0
   36.2470   31.9870   38.5910 H   0  0  0  0  0  0  0  0  0  0  0  0
   38.1620   28.7640   41.8370 C   0  0  0  0  0  0  0  0  0  0  0  0
   37.8220   29.2150   43.1120 C   0  0  0  0  0  0  0  0  0  0  0  0
   38.1700   30.0990   43.6650 H   0  0  0  0  0  0  0  0  0  0  0  0
   36.9230   28.3740   43.6790 N   0  0  0  0  0  0  0  0  0  0  0  0
   36.4720   28.4280   44.6200 H   0  0  0  0  0  0  0  0  0  0  0  0
   36.7180   27.4160   42.7540 C   0  0  0  0  0  0  0  0  0  0  0  0
   36.0540   26.5400   42.8170 H   0  0  0  0  0  0  0  0  0  0  0  0
   37.4470   27.6220   41.6340 N   0  0  0  0  0  0  0  0  0  0  0  0
  1  2  1  0  0  0  0
  1 13  1  0  0  0  0
  3  1  1  0  0  0  0
  4  9  1  0  0  0  0
  4 10  1  0  0  0  0
  5  4  2  0  0  0  0
  6  7  2  0  0  0  0
  6  5  1  0  0  0  0
  7  8  1  0  0  0  0
  8  1  1  0  0  0  0
  8  9  2  0  0  0  0
 11  5  1  0  0  0  0
 12  6  1  0  0  0  0
 13 14  2  0  0  0  0
 14 15  1  0  0  0  0
 14 16  1  0  0  0  0
 16 17  1  0  0  0  0
 18 19  1  0  0  0  0
 18 16  1  0  0  0  0
 20 13  1  0  0  0  0
 20 18  2  0  0  0  0
M  END
>  <minimizedAffinity>
-3.55326176

$$$$

 OpenBabel03242523293D

 20 21  0  0  0  0  0  0  0  0999 V2000
   38.7630   25.9640   42.9290 C   0  0  0  0  0  0  0  0  0  0  0  0
   39.8550   25.8000   42.9040 H   0  0  0  0  0  0  0  0  0  0  0  0
   38.3400   25.4760   43.8380 H   0  0  0  0  0  0  0  0  0  0  0  0
   36.4340   23.9420   40.8600 C   0  0  0  0  0  0  0  0  0  0  0  0
   36.8950   24.1990   39.5690 C   0  0  0  0  0  0  0  0  0  0  0  0
   37.9960   25.0620   39.4290 C   0  0  0  0  0  0  0  0  0  0  0  0
   38.5540   25.5980   40.5410 N   0  0  0  0  0  0  0  0  0  0  0  0
   38.0730   25.3210   41.7790 C   0  0  0  0  0  0  0  0  0  0  0  0
   37.0260   24.5010   41.9240 N   0  0  0  0  0  0  0  0  0  0  0  0
   35.5720   23.2650   40.9510 H   0  0  0  0  0  0  0  0  0  0  0  0
   36.4670   23.7850   38.6710 H   0  0  0  0  0  0  0  0  0  0  0  0
   38.4430   25.3380   38.4840 H   0  0  0  0  0  0  0  0  0  0  0  0
   38.4580   27.4150   43.0170 C   0  0  0  0  0  0  0  0  0  0  0  0
   37.3230   27.8830   43.6790 C   0  0  0  0  0  0  0  0  0  0  0  0
   36.5300   27.3270   44.1990 H   0  0  0  0  0  0  0  0  0  0  0  0
   37.2720   29.2350   43.6190 N   0  0  0  0  0  0  0  0  0  0  0  0
   36.5570   29.8870   44.0120 H   0  0  0  0  0  0  0  0  0  0  0  0
   38.3720   29.5890   42.9240 C   0  0  0  0  0  0  0  0  0  0  0  0
   38.7090   30.6010   42.6530 H   0  0  0  0  0  0  0  0  0  0  0  0
   39.1060   28.5190   42.5490 N   0  0  0  0  0  0  0  0  0  0  0  0
  1 13  1  0  0  0  0
  1  3  1  0  0  0  0
  2  1  1  0  0  0  0
  4 10  1  0  0  0  0
  4  9  1  0  0  0  0
  5  4  2  0  0  0  0
  6  5  1  0  0  0  0
  6  7  2  0  0  0  0
  7  8  1  0  0  0  0
  8  9  2  0  0  0  0
  8  1  1  0  0  0  0
 11  5  1  0  0  0  0
 12  6  1  0  0  0  0
 13 14  2  0  0  0  0
 14 15  1  0  0  0  0
 16 14  1  0  0  0  0
 16 17  1  0  0  0  0
 18 16  1  0  0  0  0
 19 18  1  0  0  0  0
 20 18  2  0  0  0  0
 20 13  1  0  0  0  0
M  END
>  <minimizedAffinity>
-3.53877831

$$$$

 OpenBabel03242523293D

 20 21  0  0  0  0  0  0  0  0999 V2000
   36.8110   27.1920   42.8880 C   0  0  0  0  0  0  0  0  0  0  0  0
   35.8350   26.8670   43.2910 H   0  0  0  0  0  0  0  0  0  0  0  0
   37.4810   27.4730   43.7340 H   0  0  0  0  0  0  0  0  0  0  0  0
   37.3910   30.5370   41.3820 C   0  0  0  0  0  0  0  0  0  0  0  0
   36.3580   30.6170   40.4480 C   0  0  0  0  0  0  0  0  0  0  0  0
   35.4800   29.5240   40.3510 C   0  0  0  0  0  0  0  0  0  0  0  0
   35.6740   28.4530   41.1580 N   0  0  0  0  0  0  0  0  0  0  0  0
   36.6930   28.4160   42.0530 C   0  0  0  0  0  0  0  0  0  0  0  0
   37.5340   29.4510   42.1540 N   0  0  0  0  0  0  0  0  0  0  0  0
   38.0690   31.4000   41.4450 H   0  0  0  0  0  0  0  0  0  0  0  0
   36.1850   31.4570   39.7970 H   0  0  0  0  0  0  0  0  0  0  0  0
   34.6430   29.4680   39.6670 H   0  0  0  0  0  0  0  0  0  0  0  0
   37.4630   26.0790   42.1520 C   0  0  0  0  0  0  0  0  0  0  0  0
   36.9330   24.7890   42.1620 C   0  0  0  0  0  0  0  0  0  0  0  0
   36.0350   24.3980   42.6620 H   0  0  0  0  0  0  0  0  0  0  0  0
   37.7070   23.9600   41.4210 N   0  0  0  0  0  0  0  0  0  0  0  0
   37.5870   22.9410   41.2290 H   0  0  0  0  0  0  0  0  0  0  0  0
   38.7040   24.7420   40.9610 C   0  0  0  0  0  0  0  0  0  0  0  0
   39.5490   24.4590   40.3150 H   0  0  0  0  0  0  0  0  0  0  0  0
   38.5860   26.0220   41.3810 N   0  0  0  0  0  0  0  0  0  0  0  0
  1  2  1  0  0  0  0
  1  3  1  0  0  0  0
  4 10  1  0  0  0  0
  4  9  1  0  0  0  0
  5  4  2  0  0  0  0
  6  5  1  0  0  0  0
  6  7  2  0  0  0  0
  7  8  1  0  0  0  0
  8  9  2  0  0  0  0
  8  1  1  0  0  0  0
 11  5  1  0  0  0  0
 12  6  1  0  0  0  0
 13 14  2  0  0  0  0
 13  1  1  0  0  0  0
 14 15  1  0  0  0  0
 16 14  1  0  0  0  0
 17 16  1  0  0  0  0
 18 20  2  0  0  0  0
 18 16  1  0  0  0  0
 19 18  1  0  0  0  0
 20 13  1  0  0  0  0
M  END
>  <minimizedAffinity>
-3.52266431

$$$$

 OpenBabel03242523293D

 20 21  0  0  0  0  0  0  0  0999 V2000
   39.1140   28.8530   40.7280 C   0  0  0  0  0  0  0  0  0  0  0  0
   40.1030   29.0920   41.1600 H   0  0  0  0  0  0  0  0  0  0  0  0
   39.2150   27.9770   40.0450 H   0  0  0  0  0  0  0  0  0  0  0  0
   38.6860   32.1200   39.0130 C   0  0  0  0  0  0  0  0  0  0  0  0
   37.5230   31.9080   38.2730 C   0  0  0  0  0  0  0  0  0  0  0  0
   36.9050   30.6500   38.3730 C   0  0  0  0  0  0  0  0  0  0  0  0
   37.4600   29.7090   39.1750 N   0  0  0  0  0  0  0  0  0  0  0  0
   38.5930   29.9570   39.8790 C   0  0  0  0  0  0  0  0  0  0  0  0
   39.1890   31.1520   39.7910 N   0  0  0  0  0  0  0  0  0  0  0  0
   39.1560   33.1100   38.9230 H   0  0  0  0  0  0  0  0  0  0  0  0
   37.0640   32.6400   37.6290 H   0  0  0  0  0  0  0  0  0  0  0  0
   36.0020   30.3660   37.8500 H   0  0  0  0  0  0  0  0  0  0  0  0
   38.1570   28.4780   41.7990 C   0  0  0  0  0  0  0  0  0  0  0  0
   37.8420   29.3560   42.8360 C   0  0  0  0  0  0  0  0  0  0  0  0
   38.2030   30.3760   43.0320 H   0  0  0  0  0  0  0  0  0  0  0  0
   36.9510   28.7810   43.6800 N   0  0  0  0  0  0  0  0  0  0  0  0
   36.5180   29.1710   44.5470 H   0  0  0  0  0  0  0  0  0  0  0  0
   36.7250   27.5590   43.1590 C   0  0  0  0  0  0  0  0  0  0  0  0
   36.0600   26.7690   43.5400 H   0  0  0  0  0  0  0  0  0  0  0  0
   37.4340   27.3460   42.0280 N   0  0  0  0  0  0  0  0  0  0  0  0
  1  2  1  0  0  0  0
  1 13  1  0  0  0  0
  3  1  1  0  0  0  0
  4  9  1  0  0  0  0
  5  6  1  0  0  0  0
  5  4  2  0  0  0  0
  6  7  2  0  0  0  0
  7  8  1  0  0  0  0
  8  1  1  0  0  0  0
  9  8  2  0  0  0  0
 10  4  1  0  0  0  0
 11  5  1  0  0  0  0
 12  6  1  0  0  0  0
 13 20  1  0  0  0  0
 13 14  2  0  0  0  0
 14 15  1  0  0  0  0
 14 16  1  0  0  0  0
 16 17  1  0  0  0  0
 18 19  1  0  0  0  0
 18 16  1  0  0  0  0
 20 18  2  0  0  0  0
M  END
>  <minimizedAffinity>
-3.43670273

$$$$
