
 OpenBabel03242514363D

 32 34  0  0  0  0  0  0  0  0999 V2000
   47.4500   34.0210   39.4180 C   0  0  0  0  0  0  0  0  0  0  0  0
   46.3120   33.5570   39.8160 O   0  0  0  0  0  0  0  0  0  0  0  0
   47.6460   33.5000   38.0610 C   0  0  0  0  0  0  0  0  0  0  0  0
   48.7420   33.7290   37.1860 C   0  0  0  0  0  0  0  0  0  0  0  0
   48.6760   33.1240   35.9760 C   0  0  0  0  0  0  0  0  0  0  0  0
   47.6390   32.3530   35.6210 C   0  0  0  0  0  0  0  0  0  0  0  0
   46.5330   32.4390   37.1810 S   0  0  0  0  0  0  0  0  0  0  0  0
   49.5400   34.3620   37.5470 H   0  0  0  0  0  0  0  0  0  0  0  0
   49.4580   33.2330   35.2340 H   0  0  0  0  0  0  0  0  0  0  0  0
   47.1950   31.5810   34.5220 C   0  0  0  0  0  0  0  0  0  0  0  0
   45.9150   31.2270   34.1680 C   0  0  0  0  0  0  0  0  0  0  0  0
   44.9900   31.4730   34.6670 H   0  0  0  0  0  0  0  0  0  0  0  0
   46.0840   30.4870   33.0330 N   0  0  0  0  0  0  0  0  0  0  0  0
   45.3180   30.0400   32.4670 H   0  0  0  0  0  0  0  0  0  0  0  0
   47.4070   30.3940   32.7100 C   0  0  0  0  0  0  0  0  0  0  0  0
   47.7950   29.8600   31.8530 H   0  0  0  0  0  0  0  0  0  0  0  0
   48.0960   31.0900   33.6590 N   0  0  0  0  0  0  0  0  0  0  0  0
   48.0390   34.7960   40.3550 O   0  0  0  0  0  0  0  0  0  0  0  0
   49.3840   35.4900   42.4310 O   0  0  0  0  0  0  0  0  0  0  0  0
   48.8040   34.2900   41.7400 P   0  0  2  0  0  0  0  0  0  0  0  0
   50.0590   33.2660   41.3260 O   0  0  0  0  0  0  0  0  0  0  0  0
   50.7970   33.8260   40.9350 H   0  0  0  0  0  0  0  0  0  0  0  0
   47.6830   33.4820   42.7630 O   0  0  0  0  0  0  0  0  0  0  0  0
   46.1320   35.3080   42.7670 C   0  0  0  0  0  0  0  0  0  0  0  0
   46.6680   34.1940   43.4060 C   0  0  0  0  0  0  0  0  0  0  0  0
   46.1660   33.8390   44.6610 C   0  0  0  0  0  0  0  0  0  0  0  0
   45.1730   34.6070   45.1940 N   0  0  0  0  0  0  0  0  0  0  0  0
   44.6800   35.6770   44.5480 C   0  0  0  0  0  0  0  0  0  0  0  0
   45.1590   36.0160   43.3500 N   0  0  0  0  0  0  0  0  0  0  0  0
   46.4440   35.6660   41.8060 H   0  0  0  0  0  0  0  0  0  0  0  0
   46.5790   32.9790   45.1540 H   0  0  0  0  0  0  0  0  0  0  0  0
   43.8950   36.1640   45.1310 H   0  0  0  0  0  0  0  0  0  0  0  0
  1  2  2  0  0  0  0
  1 18  1  0  0  0  0
  3  1  1  0  0  0  0
  4  8  1  0  0  0  0
  4  3  2  0  0  0  0
  5  4  1  0  0  0  0
  6  5  2  0  0  0  0
  6  7  1  0  0  0  0
  7  3  1  0  0  0  0
  9  5  1  0  0  0  0
 10  6  1  0  0  0  0
 11 10  2  0  0  0  0
 11 12  1  0  0  0  0
 13 11  1  0  0  0  0
 14 13  1  0  0  0  0
 15 13  1  0  0  0  0
 15 17  2  0  0  0  0
 16 15  1  0  0  0  0
 17 10  1  0  0  0  0
 18 20  1  0  0  0  0
 20 19  2  1  0  0  0
 20 23  1  0  0  0  0
 21 20  1  0  0  0  0
 22 21  1  0  0  0  0
 23 25  1  0  0  0  0
 24 29  2  0  0  0  0
 24 25  1  0  0  0  0
 25 26  2  0  0  0  0
 26 31  1  0  0  0  0
 26 27  1  0  0  0  0
 28 32  1  0  0  0  0
 28 27  2  0  0  0  0
 29 28  1  0  0  0  0
 30 24  1  0  0  0  0
M  END
>  <minimizedAffinity>
-5.22606039

>  <minimizedRMSD>
0.342692405

$$$$
