REMARK  Name = 
REMARK  4 active torsions:
REMARK  status: ('A' for Active; 'I' for Inactive)
REMARK    1  A    between atoms: C_1  and  C_4
REMARK    2  A    between atoms: C_1  and  C_8
REMARK    3  A    between atoms: C_8  and  C_9
REMARK    4  A    between atoms: C_14  and  C_26
REMARK                            x       y       z     vdW  Elec       q    Type
REMARK                         _______ _______ _______ _____ _____    ______ ____
ROOT
ATOM      1  C   UNL     1      46.049  34.393  41.479  0.00  0.00    +0.000 A 
ATOM      2  C   UNL     1      46.633  34.039  40.267  0.00  0.00    +0.000 A 
ATOM      3  C   UNL     1      47.921  34.354  39.864  0.00  0.00    +0.000 A 
ATOM      4  C   UNL     1      48.658  35.086  40.776  0.00  0.00    +0.000 A 
ATOM      5  C   UNL     1      48.104  35.446  41.977  0.00  0.00    +0.000 A 
ATOM      6  C   UNL     1      46.814  35.125  42.370  0.00  0.00    +0.000 A 
ATOM      7  H   UNL     1      45.982  33.458  39.596  0.00  0.00    +0.000 HD
ATOM      8  H   UNL     1      48.213  34.000  38.892  0.00  0.00    +0.000 HD
ATOM      9  H   UNL     1      49.660  35.334  40.469  0.00  0.00    +0.000 HD
ATOM     10  H   UNL     1      48.814  36.016  42.574  0.00  0.00    +0.000 HD
ENDROOT
BRANCH   6  11
ATOM     11  C   UNL     1      46.448  35.618  43.683  0.00  0.00    +0.000 A 
ATOM     12  C   UNL     1      47.099  35.798  44.871  0.00  0.00    +0.000 A 
ATOM     13  H   UNL     1      48.123  35.569  45.066  0.00  0.00    +0.000 HD
ATOM     14  N   UNL     1      46.363  36.314  45.832  0.00  0.00    +0.000 N 
ATOM     15  H   UNL     1      46.589  36.553  46.810  0.00  0.00    +0.000 HD
ATOM     16  C   UNL     1      45.162  36.492  45.266  0.00  0.00    +0.000 A 
ATOM     17  H   UNL     1      44.227  36.888  45.653  0.00  0.00    +0.000 HD
ATOM     18  N   UNL     1      45.235  36.075  43.999  0.00  0.00    +0.000 NA
ENDBRANCH   6  11
BRANCH   1  19
ATOM     19  C   UNL     1      44.680  34.050  41.844  0.00  0.00    +0.000 C 
ATOM     20  H   UNL     1      44.167  34.991  42.145  0.00  0.00    +0.000 HD
ATOM     21  H   UNL     1      44.591  33.305  42.638  0.00  0.00    +0.000 HD
BRANCH  19  22
ATOM     22  C   UNL     1      43.864  33.597  40.616  0.00  0.00    +0.000 C 
ATOM     23  H   UNL     1      44.035  34.330  39.826  0.00  0.00    +0.000 HD
ATOM     24  H   UNL     1      44.119  32.562  40.335  0.00  0.00    +0.000 HD
BRANCH  22  27
ATOM     25  C   UNL     1      40.380  34.793  41.477  0.00  0.00    +0.000 A 
ATOM     26  C   UNL     1      41.747  34.839  41.097  0.00  0.00    +0.000 A 
ATOM     27  C   UNL     1      42.427  33.632  41.010  0.00  0.00    +0.000 A 
ATOM     28  N   UNL     1      41.717  32.488  41.300  0.00  0.00    +0.000 NA
ATOM     29  C   UNL     1      40.440  32.480  41.652  0.00  0.00    +0.000 A 
ATOM     30  N   UNL     1      39.760  33.627  41.744  0.00  0.00    +0.000 NA
ATOM     31  H   UNL     1      39.922  35.784  41.521  0.00  0.00    +0.000 HD
ATOM     32  H   UNL     1      42.245  35.775  40.883  0.00  0.00    +0.000 HD
ATOM     33  H   UNL     1      39.975  31.530  41.859  0.00  0.00    +0.000 HD
ENDBRANCH  22  27
ENDBRANCH  19  22
ENDBRANCH   1  19
TORSDOF 4
