
 OpenBabel03252507553D

 43 46  0  0  1  0  0  0  0  0999 V2000
   47.1020   34.8230   42.1050 C   0  0  2  0  0  0  0  0  0  0  0  0
   46.3130   34.3340   40.8910 C   0  0  0  0  0  0  0  0  0  0  0  0
   47.4970   34.1450   39.9250 C   0  0  0  0  0  0  0  0  0  0  0  0
   48.6240   33.6610   40.7850 C   0  0  1  0  0  0  0  0  0  0  0  0
   48.1200   33.7210   42.1970 C   0  0  0  0  0  0  0  0  0  0  0  0
   47.4980   35.7960   41.8230 H   0  0  0  0  0  0  0  0  0  0  0  0
   45.6890   35.1720   40.5340 H   0  0  0  0  0  0  0  0  0  0  0  0
   45.7770   33.4000   41.0870 H   0  0  0  0  0  0  0  0  0  0  0  0
   47.7100   35.0890   39.3980 H   0  0  0  0  0  0  0  0  0  0  0  0
   47.2230   33.3180   39.2130 H   0  0  0  0  0  0  0  0  0  0  0  0
   49.5340   34.3040   40.6780 H   0  0  0  0  0  0  0  0  0  0  0  0
   47.6450   32.7980   42.5270 H   0  0  0  0  0  0  0  0  0  0  0  0
   48.9610   34.0080   42.8680 H   0  0  0  0  0  0  0  0  0  0  0  0
   44.5250   35.8340   44.6590 C   0  0  0  0  0  0  0  0  0  0  0  0
   45.2590   35.8660   43.4780 C   0  0  0  0  0  0  0  0  0  0  0  0
   46.2340   34.8810   43.3160 C   0  0  0  0  0  0  0  0  0  0  0  0
   46.4440   33.9170   44.3130 N   0  0  0  0  0  0  0  0  0  0  0  0
   45.6910   33.9430   45.4430 C   0  0  0  0  0  0  0  0  0  0  0  0
   44.7430   34.8960   45.6060 N   0  0  0  0  0  0  0  0  0  0  0  0
   43.7650   36.5940   44.7950 H   0  0  0  0  0  0  0  0  0  0  0  0
   45.1140   36.5940   42.7060 H   0  0  0  0  0  0  0  0  0  0  0  0
   45.9080   33.1740   46.1610 H   0  0  0  0  0  0  0  0  0  0  0  0
   49.0420   32.2300   40.5220 C   0  0  2  0  0  0  0  0  0  0  0  0
   49.7770   31.5770   41.5960 C   0  0  0  0  0  0  0  0  0  0  0  0
   50.4420   31.8760   40.2900 C   0  0  1  0  0  0  0  0  0  0  0  0
   48.2760   31.6420   39.9860 H   0  0  0  0  0  0  0  0  0  0  0  0
   50.1350   32.1900   42.4670 H   0  0  0  0  0  0  0  0  0  0  0  0
   49.6100   30.5230   41.8980 H   0  0  0  0  0  0  0  0  0  0  0  0
   51.1270   32.7180   40.1270 H   0  0  0  0  0  0  0  0  0  0  0  0
   50.7020   30.7770   39.4340 O   0  0  0  0  0  0  0  0  0  0  0  0
   52.4610   29.9140   37.7140 O   0  0  0  0  0  0  0  0  0  0  0  0
   52.1840   31.0350   38.6850 P   0  0  1  0  0  0  0  0  0  0  0  0
   52.1350   32.4940   37.7790 O   0  0  0  0  0  0  0  0  0  0  0  0
   51.2270   32.5940   37.4040 H   0  0  0  0  0  0  0  0  0  0  0  0
   53.4730   31.1640   39.7250 O   0  0  0  0  0  0  0  0  0  0  0  0
   53.7250   30.2150   40.7150 C   0  0  0  0  0  0  0  0  0  0  0  0
   54.8760   29.4430   40.5380 C   0  0  0  0  0  0  0  0  0  0  0  0
   55.6800   29.3670   39.8030 H   0  0  0  0  0  0  0  0  0  0  0  0
   54.9140   28.6040   41.6050 N   0  0  0  0  0  0  0  0  0  0  0  0
   55.6120   27.8560   41.8670 H   0  0  0  0  0  0  0  0  0  0  0  0
   53.8590   28.8250   42.4090 C   0  0  0  0  0  0  0  0  0  0  0  0
   53.5500   28.3640   43.3360 H   0  0  0  0  0  0  0  0  0  0  0  0
   53.1350   29.8130   41.8570 N   0  0  0  0  0  0  0  0  0  0  0  0
  1  6  1  6  0  0  0
  1  5  1  0  0  0  0
  1 16  1  0  0  0  0
  2  8  1  0  0  0  0
  2  1  1  0  0  0  0
  3  4  1  0  0  0  0
  3  2  1  0  0  0  0
  4 11  1  6  0  0  0
  4  5  1  0  0  0  0
  5 12  1  0  0  0  0
  5 13  1  0  0  0  0
  7  2  1  0  0  0  0
  9  3  1  0  0  0  0
 10  3  1  0  0  0  0
 14 20  1  0  0  0  0
 14 19  1  0  0  0  0
 15 14  2  0  0  0  0
 16 15  1  0  0  0  0
 16 17  2  0  0  0  0
 17 18  1  0  0  0  0
 18 19  2  0  0  0  0
 18 22  1  0  0  0  0
 21 15  1  0  0  0  0
 23 26  1  6  0  0  0
 23  4  1  0  0  0  0
 23 24  1  0  0  0  0
 24 28  1  0  0  0  0
 24 27  1  0  0  0  0
 25 29  1  6  0  0  0
 25 23  1  0  0  0  0
 25 24  1  0  0  0  0
 30 25  1  0  0  0  0
 32 31  2  6  0  0  0
 32 30  1  0  0  0  0
 32 35  1  0  0  0  0
 33 32  1  0  0  0  0
 34 33  1  0  0  0  0
 35 36  1  0  0  0  0
 36 43  1  0  0  0  0
 37 36  2  0  0  0  0
 37 39  1  0  0  0  0
 38 37  1  0  0  0  0
 39 40  1  0  0  0  0
 39 41  1  0  0  0  0
 41 42  1  0  0  0  0
 43 41  2  0  0  0  0
M  END
>  <minimizedAffinity>
-5.15278864

>  <minimizedRMSD>
1.01215267

$$$$
