
 OpenBabel03252500463D

 25 27  0  0  0  0  0  0  0  0999 V2000
   45.3680   33.9990   45.7270 C   0  0  0  0  0  0  0  0  0  0  0  0
   45.6940   33.8900   44.3730 C   0  0  0  0  0  0  0  0  0  0  0  0
   46.6550   32.9840   43.9400 C   0  0  0  0  0  0  0  0  0  0  0  0
   47.2550   32.2150   44.8970 N   0  0  0  0  0  0  0  0  0  0  0  0
   46.9310   32.3310   46.2030 C   0  0  0  0  0  0  0  0  0  0  0  0
   46.0030   33.2060   46.6210 N   0  0  0  0  0  0  0  0  0  0  0  0
   44.6360   34.6820   46.1040 H   0  0  0  0  0  0  0  0  0  0  0  0
   46.9110   32.8930   42.9040 H   0  0  0  0  0  0  0  0  0  0  0  0
   47.6020   31.4860   47.1900 C   0  0  0  0  0  0  0  0  0  0  0  0
   47.8620   30.1710   46.9670 C   0  0  0  0  0  0  0  0  0  0  0  0
   48.4870   29.3540   47.8690 C   0  0  0  0  0  0  0  0  0  0  0  0
   48.8570   29.9340   49.0590 N   0  0  0  0  0  0  0  0  0  0  0  0
   48.5980   31.2320   49.2750 C   0  0  0  0  0  0  0  0  0  0  0  0
   47.9780   32.0480   48.3860 N   0  0  0  0  0  0  0  0  0  0  0  0
   47.5500   29.7580   46.0120 H   0  0  0  0  0  0  0  0  0  0  0  0
   48.6560   28.3190   47.6130 H   0  0  0  0  0  0  0  0  0  0  0  0
   48.9200   31.6130   50.2350 H   0  0  0  0  0  0  0  0  0  0  0  0
   44.9950   34.7560   43.4270 C   0  0  0  0  0  0  0  0  0  0  0  0
   44.9420   36.1350   43.4770 C   0  0  0  0  0  0  0  0  0  0  0  0
   45.4080   36.7670   44.2190 H   0  0  0  0  0  0  0  0  0  0  0  0
   44.1860   36.4900   42.3990 N   0  0  0  0  0  0  0  0  0  0  0  0
   43.9940   37.4980   42.2110 H   0  0  0  0  0  0  0  0  0  0  0  0
   43.7950   35.3800   41.7230 C   0  0  0  0  0  0  0  0  0  0  0  0
   43.1870   35.5050   40.8430 H   0  0  0  0  0  0  0  0  0  0  0  0
   44.3060   34.3010   42.3740 N   0  0  0  0  0  0  0  0  0  0  0  0
  1  7  1  0  0  0  0
  1  6  1  0  0  0  0
  2  1  2  0  0  0  0
  3  2  1  0  0  0  0
  3  4  2  0  0  0  0
  4  5  1  0  0  0  0
  5  6  2  0  0  0  0
  5  9  1  0  0  0  0
  8  3  1  0  0  0  0
  9 14  1  0  0  0  0
 10  9  2  0  0  0  0
 10 11  1  0  0  0  0
 11 12  2  0  0  0  0
 12 13  1  0  0  0  0
 13 17  1  0  0  0  0
 14 13  2  0  0  0  0
 15 10  1  0  0  0  0
 16 11  1  0  0  0  0
 18 19  2  0  0  0  0
 18  2  1  0  0  0  0
 19 20  1  0  0  0  0
 21 19  1  0  0  0  0
 22 21  1  0  0  0  0
 23 25  2  0  0  0  0
 23 21  1  0  0  0  0
 24 23  1  0  0  0  0
 25 18  1  0  0  0  0
M  END
>  <minimizedAffinity>
-4.58377409

>  <minimizedRMSD>
2.39920259

$$$$
