
     RDKit          3D

 51 54  0  0  0  0  0  0  0  0999 V2000
   45.3124   34.2841   43.7549 C   0  0  0  0  0  0  0  0  0  0  0  0
   46.4748   34.7694   43.1289 C   0  0  0  0  0  0  0  0  0  0  0  0
   47.6463   34.0723   43.2528 C   0  0  0  0  0  0  0  0  0  0  0  0
   47.5913   32.9474   43.9851 N   0  0  0  0  0  0  0  0  0  0  0  0
   46.5014   32.4918   44.5722 C   0  0  0  0  0  0  0  0  0  0  0  0
   45.3588   33.1606   44.4575 N   0  0  0  0  0  0  0  0  0  0  0  0
   48.9122   34.4666   42.6189 C   0  0  0  0  0  0  0  0  0  0  0  0
   48.7599   35.6574   41.7181 C   0  0  0  0  0  0  0  0  0  0  0  0
   48.5073   35.3051   40.3197 C   0  0  0  0  0  0  0  0  0  0  0  0
   48.2690   34.2592   39.5386 C   0  0  0  0  0  0  0  0  0  0  0  0
   48.1585   34.2669   38.0243 C   0  0  0  0  0  0  0  0  0  0  0  0
   46.4663   31.3359   45.3170 O   0  0  0  0  0  0  0  0  0  0  0  0
   45.4389   30.1872   47.2408 C   0  0  0  0  0  0  0  0  0  0  0  0
   46.0638   31.2294   46.6466 C   0  0  0  0  0  0  0  0  0  0  0  0
   46.3606   32.3397   47.4138 C   0  0  0  0  0  0  0  0  0  0  0  0
   46.0480   32.4271   48.7491 C   0  0  0  0  0  0  0  0  0  0  0  0
   45.4125   31.3605   49.3438 C   0  0  0  0  0  0  0  0  0  0  0  0
   45.1116   30.2421   48.5802 C   0  0  0  0  0  0  0  0  0  0  0  0
   44.9979   28.8619   46.1950 S   0  0  0  0  0  0  0  0  0  0  0  0
   43.5542   28.7472   45.9322 O   0  0  0  0  0  0  0  0  0  0  0  0
   45.3561   27.5830   46.9898 O   0  0  0  0  0  0  0  0  0  0  0  0
   44.3937   34.8355   43.6543 H   0  0  0  0  0  0  0  0  0  0  0  0
   46.3628   35.6836   42.5742 H   0  0  0  0  0  0  0  0  0  0  0  0
   49.2573   33.5989   42.0037 H   0  0  0  0  0  0  0  0  0  0  0  0
   49.7083   34.6348   43.3735 H   0  0  0  0  0  0  0  0  0  0  0  0
   49.7938   36.1347   41.7153 H   0  0  0  0  0  0  0  0  0  0  0  0
   48.1083   36.4344   42.0810 H   0  0  0  0  0  0  0  0  0  0  0  0
   48.5139   36.2189   39.6920 H   0  0  0  0  0  0  0  0  0  0  0  0
   48.2125   33.2611   39.9731 H   0  0  0  0  0  0  0  0  0  0  0  0
   48.2541   35.3320   37.7314 H   0  0  0  0  0  0  0  0  0  0  0  0
   48.9458   33.6164   37.6097 H   0  0  0  0  0  0  0  0  0  0  0  0
   47.1274   33.9473   37.8089 H   0  0  0  0  0  0  0  0  0  0  0  0
   46.8580   33.2141   47.0172 H   0  0  0  0  0  0  0  0  0  0  0  0
   46.2819   33.2995   49.3480 H   0  0  0  0  0  0  0  0  0  0  0  0
   45.1223   31.3209   50.3781 H   0  0  0  0  0  0  0  0  0  0  0  0
   44.6064   29.3507   48.9816 H   0  0  0  0  0  0  0  0  0  0  0  0
   46.6399   27.5427   44.3633 C   0  0  0  0  0  0  0  0  0  0  0  0
   46.0565   28.7077   44.8116 C   0  0  0  0  0  0  0  0  0  0  0  0
   46.3834   29.8235   44.0325 C   0  0  0  0  0  0  0  0  0  0  0  0
   45.9352   30.7745   44.3604 H   0  0  0  0  0  0  0  0  0  0  0  0
   47.1948   29.8456   42.9189 C   0  0  0  0  0  0  0  0  0  0  0  0
   47.5536   30.8612   42.1263 N   0  0  0  0  0  0  0  0  0  0  0  0
   47.2963   31.8685   42.1767 H   0  0  0  0  0  0  0  0  0  0  0  0
   48.3600   30.2941   41.1951 C   0  0  0  0  0  0  0  0  0  0  0  0
   48.8413   30.8103   40.3844 H   0  0  0  0  0  0  0  0  0  0  0  0
   48.4964   28.9321   41.4155 C   0  0  0  0  0  0  0  0  0  0  0  0
   47.7403   28.6437   42.5331 C   0  0  0  0  0  0  0  0  0  0  0  0
   47.4603   27.5088   43.2540 C   0  0  0  0  0  0  0  0  0  0  0  0
   46.4074   26.6396   44.9501 H   0  0  0  0  0  0  0  0  0  0  0  0
   49.0730   28.2198   40.8413 H   0  0  0  0  0  0  0  0  0  0  0  0
   47.8986   26.5568   42.9402 H   0  0  0  0  0  0  0  0  0  0  0  0
  1  6  2  0
  2  3  2  0
  2  1  1  0
  3  4  1  0
  4  5  2  0
  5 12  1  0
  6  5  1  0
  7  3  1  0
  8  7  1  0
  9  8  1  0
 10  9  2  0
 11 10  1  0
 12 14  1  0
 13 18  2  0
 14 13  1  0
 14 15  2  0
 15 16  1  0
 16 17  2  0
 18 17  1  0
 19 21  2  0
 19 13  1  0
 20 19  2  0
  1 22  1  0
  2 23  1  0
  7 24  1  0
  7 25  1  0
  8 26  1  0
  8 27  1  0
  9 28  1  0
 10 29  1  0
 11 30  1  0
 11 31  1  0
 11 32  1  0
 15 33  1  0
 16 34  1  0
 17 35  1  0
 18 36  1  0
 37 38  2  0
 38 39  1  0
 39 40  1  0
 39 41  2  0
 41 42  1  0
 42 43  1  0
 42 44  1  0
 44 45  1  0
 44 46  2  0
 46 47  1  0
 47 48  2  0
 48 37  1  0
 47 41  1  0
 37 49  1  0
 46 50  1  0
 48 51  1  0
 19 38  1  0
M  ISO  8  22  14  23  14  24   8  25   8  26   8  27   8  30   8  31   8
M  ISO  8  32   8  33  14  34  14  35  14  36  14  40  15  43   5  45  14
M  END
>  <DihAtoms>  (1) 
20,18,37,36

>  <DihDeg>  (1) 
-24.50470198432585

$$$$
