
     RDKit          3D

 37 40  0  0  0  0  0  0  0  0999 V2000
   46.9458   32.4664   45.7037 C   0  0  0  0  0  0  0  0  0  0  0  0
   44.5687   35.3356   45.3429 C   0  0  0  0  0  0  0  0  0  0  0  0
   44.8405   35.7619   44.0361 C   0  0  0  0  0  0  0  0  0  0  0  0
   45.8070   35.0800   43.3168 C   0  0  0  0  0  0  0  0  0  0  0  0
   46.4581   34.0263   43.8943 N   0  0  0  0  0  0  0  0  0  0  0  0
   46.1707   33.6331   45.1730 C   0  0  0  0  0  0  0  0  0  0  0  0
   45.2250   34.3056   45.8675 N   0  0  0  0  0  0  0  0  0  0  0  0
   45.4401   29.7640   45.1243 Br  0  0  0  0  0  0  0  0  0  0  0  0
   45.5874   30.6438   46.8329 C   0  0  0  0  0  0  0  0  0  0  0  0
   46.3034   31.8315   46.8473 C   0  0  0  0  0  0  0  0  0  0  0  0
   46.3803   32.4251   48.1014 C   0  0  0  0  0  0  0  0  0  0  0  0
   45.8107   31.9119   49.2492 C   0  0  0  0  0  0  0  0  0  0  0  0
   45.1189   30.7324   49.1489 C   0  0  0  0  0  0  0  0  0  0  0  0
   44.9934   30.0702   47.9266 C   0  0  0  0  0  0  0  0  0  0  0  0
   47.9929   32.7372   45.9367 H   0  0  0  0  0  0  0  0  0  0  0  0
   46.9605   31.7135   44.8651 H   0  0  0  0  0  0  0  0  0  0  0  0
   43.8230   35.8521   45.9151 H   0  0  0  0  0  0  0  0  0  0  0  0
   44.3278   36.5961   43.5735 H   0  0  0  0  0  0  0  0  0  0  0  0
   46.0890   35.3338   42.2977 H   0  0  0  0  0  0  0  0  0  0  0  0
   46.9223   33.3589   48.2057 H   0  0  0  0  0  0  0  0  0  0  0  0
   45.9137   32.4281   50.1788 H   0  0  0  0  0  0  0  0  0  0  0  0
   44.6835   30.3551   50.0665 H   0  0  0  0  0  0  0  0  0  0  0  0
   43.1560   28.8461   47.0499 C   0  0  0  0  0  0  0  0  0  0  0  0
   44.2540   28.8346   47.8858 C   0  0  0  0  0  0  0  0  0  0  0  0
   44.5117   27.6718   48.5689 C   0  0  0  0  0  0  0  0  0  0  0  0
   45.3775   27.6945   49.2147 H   0  0  0  0  0  0  0  0  0  0  0  0
   43.7409   26.5497   48.4565 C   0  0  0  0  0  0  0  0  0  0  0  0
   43.8849   25.3711   49.0604 N   0  0  0  0  0  0  0  0  0  0  0  0
   44.6319   25.0996   49.7398 H   0  0  0  0  0  0  0  0  0  0  0  0
   42.8951   24.5774   48.6444 C   0  0  0  0  0  0  0  0  0  0  0  0
   42.7608   23.5521   48.9732 H   0  0  0  0  0  0  0  0  0  0  0  0
   42.1067   25.2880   47.7493 C   0  0  0  0  0  0  0  0  0  0  0  0
   42.6413   26.5543   47.6223 C   0  0  0  0  0  0  0  0  0  0  0  0
   42.3704   27.7150   46.9299 C   0  0  0  0  0  0  0  0  0  0  0  0
   42.8398   29.7042   46.4503 H   0  0  0  0  0  0  0  0  0  0  0  0
   41.2322   24.9535   47.2277 H   0  0  0  0  0  0  0  0  0  0  0  0
   41.4918   27.6564   46.2895 H   0  0  0  0  0  0  0  0  0  0  0  0
  1 10  1  0
  2  7  2  0
  3  2  1  0
  4  5  1  0
  4  3  2  0
  5  6  2  0
  6  1  1  0
  6  7  1  0
  8  9  1  0
  9 10  2  0
  9 14  1  0
 10 11  1  0
 11 12  2  0
 13 12  1  0
 14 13  2  0
  1 15  1  0
  1 16  1  0
  2 17  1  0
  3 18  1  0
  4 19  1  0
 11 20  1  0
 12 21  1  0
 13 22  1  0
 23 24  2  0
 24 25  1  0
 25 26  1  0
 25 27  2  0
 27 28  1  0
 28 29  1  0
 28 30  1  0
 30 31  1  0
 30 32  2  0
 32 33  1  0
 33 34  2  0
 34 23  1  0
 33 27  1  0
 23 35  1  0
 32 36  1  0
 34 37  1  0
 14 24  1  0
M  ISO  8  15   8  16   8  17  14  18  14  19  14  20  14  21  14  22  14
M  ISO  3  26  15  29   5  31  14
M  END
>  <DihAtoms>  (1) 
8,13,23,22

>  <DihDeg>  (1) 
134.93762685210433

$$$$
