
 OpenBabel03252502523D

 34 37  0  0  0  0  0  0  0  0999 V2000
   45.9740   30.8980   44.8310 Br  0  0  0  0  0  0  0  0  0  0  0  0
   45.9390   29.8930   43.1860 C   0  0  0  0  0  0  0  0  0  0  0  0
   45.1340   28.7650   43.1790 C   0  0  0  0  0  0  0  0  0  0  0  0
   45.1440   28.0760   41.9720 C   0  0  0  0  0  0  0  0  0  0  0  0
   45.8740   28.4490   40.8610 C   0  0  0  0  0  0  0  0  0  0  0  0
   46.6460   29.5790   40.9520 C   0  0  0  0  0  0  0  0  0  0  0  0
   46.6930   30.3290   42.1270 C   0  0  0  0  0  0  0  0  0  0  0  0
   44.5410   27.1790   41.8750 H   0  0  0  0  0  0  0  0  0  0  0  0
   45.8300   27.8660   39.9660 H   0  0  0  0  0  0  0  0  0  0  0  0
   47.2070   29.8460   40.0650 H   0  0  0  0  0  0  0  0  0  0  0  0
   48.8210   31.2860   42.5730 C   0  0  0  0  0  3  0  0  0  0  0  0
   47.5220   31.5060   42.1600 C   0  0  0  0  0  0  0  0  0  0  0  0
   47.1760   32.7940   41.8350 C   0  0  0  0  0  0  0  0  0  0  0  0
   46.1530   32.9340   41.5160 H   0  0  0  0  0  0  0  0  0  0  0  0
   48.0470   33.8440   41.9020 C   0  0  0  0  0  0  0  0  0  0  0  0
   47.8330   35.1280   41.6160 N   0  0  0  0  0  0  0  0  0  0  0  0
   46.9410   35.5590   41.2830 H   0  0  0  0  0  0  0  0  0  0  0  0
   48.9750   35.7870   41.8290 C   0  0  0  0  0  0  0  0  0  0  0  0
   49.0970   36.8540   41.6770 H   0  0  0  0  0  0  0  0  0  0  0  0
   49.9330   34.8810   42.2640 C   0  0  0  0  0  3  0  0  0  0  0  0
   49.3460   33.6310   42.3140 C   0  0  0  0  0  0  0  0  0  0  0  0
   49.7080   32.3430   42.6440 C   0  0  0  0  0  3  0  0  0  0  0  0
   44.3230   28.2750   44.2850 C   0  0  0  0  0  0  0  0  0  0  0  0
   44.3860   27.1730   44.3670 H   0  0  0  0  0  0  0  0  0  0  0  0
   44.7440   28.7170   45.2330 H   0  0  0  0  0  0  0  0  0  0  0  0
   41.1390   29.9580   43.2630 C   0  0  0  0  0  0  0  0  0  0  0  0
   40.2600   29.5300   44.2660 C   0  0  0  0  0  0  0  0  0  0  0  0
   40.7560   28.6930   45.2510 C   0  0  0  0  0  0  0  0  0  0  0  0
   42.0690   28.3150   45.2170 N   0  0  0  0  0  0  0  0  0  0  0  0
   42.9040   28.7510   44.2240 C   0  0  0  0  0  0  0  0  0  0  0  0
   42.4090   29.5680   43.2660 N   0  0  0  0  0  0  0  0  0  0  0  0
   40.7730   30.6070   42.4920 H   0  0  0  0  0  0  0  0  0  0  0  0
   39.2190   29.8250   44.2980 H   0  0  0  0  0  0  0  0  0  0  0  0
   40.1550   28.3060   46.0710 H   0  0  0  0  0  0  0  0  0  0  0  0
  2  1  1  0  0  0  0
  3  2  1  0  0  0  0
  3 23  1  0  0  0  0
  4  3  2  0  0  0  0
  5  6  2  0  0  0  0
  5  4  1  0  0  0  0
  6  7  1  0  0  0  0
  7 12  1  0  0  0  0
  7  2  2  0  0  0  0
  8  4  1  0  0  0  0
  9  5  1  0  0  0  0
 10  6  1  0  0  0  0
 11 22  1  0  0  0  0
 12 11  2  0  0  0  0
 13 15  2  0  0  0  0
 13 12  1  0  0  0  0
 14 13  1  0  0  0  0
 15 21  1  0  0  0  0
 16 18  1  0  0  0  0
 16 15  1  0  0  0  0
 17 16  1  0  0  0  0
 18 20  2  0  0  0  0
 19 18  1  0  0  0  0
 20 21  1  0  0  0  0
 21 22  2  0  0  0  0
 23 24  1  0  0  0  0
 23 25  1  0  0  0  0
 26 31  2  0  0  0  0
 26 27  1  0  0  0  0
 27 33  1  0  0  0  0
 27 28  2  0  0  0  0
 28 34  1  0  0  0  0
 29 28  1  0  0  0  0
 30 23  1  0  0  0  0
 30 29  2  0  0  0  0
 31 30  1  0  0  0  0
 32 26  1  0  0  0  0
M  END
>  <minimizedAffinity>
-3.7519381

>  <minimizedRMSD>
8.46989536

$$$$
