
     RDKit          3D

 37 40  0  0  0  0  0  0  0  0999 V2000
   46.9458   32.4664   45.7037 C   0  0  0  0  0  0  0  0  0  0  0  0
   44.5687   35.3356   45.3429 C   0  0  0  0  0  0  0  0  0  0  0  0
   44.8405   35.7619   44.0361 C   0  0  0  0  0  0  0  0  0  0  0  0
   45.8070   35.0800   43.3168 C   0  0  0  0  0  0  0  0  0  0  0  0
   46.4581   34.0263   43.8943 N   0  0  0  0  0  0  0  0  0  0  0  0
   46.1707   33.6331   45.1730 C   0  0  0  0  0  0  0  0  0  0  0  0
   45.2250   34.3056   45.8675 N   0  0  0  0  0  0  0  0  0  0  0  0
   45.4401   29.7640   45.1243 Br  0  0  0  0  0  0  0  0  0  0  0  0
   45.5874   30.6438   46.8329 C   0  0  0  0  0  0  0  0  0  0  0  0
   46.3034   31.8315   46.8473 C   0  0  0  0  0  0  0  0  0  0  0  0
   46.3803   32.4251   48.1014 C   0  0  0  0  0  0  0  0  0  0  0  0
   45.8107   31.9119   49.2492 C   0  0  0  0  0  0  0  0  0  0  0  0
   45.1189   30.7324   49.1489 C   0  0  0  0  0  0  0  0  0  0  0  0
   44.9934   30.0702   47.9266 C   0  0  0  0  0  0  0  0  0  0  0  0
   47.9929   32.7372   45.9367 H   0  0  0  0  0  0  0  0  0  0  0  0
   46.9605   31.7135   44.8651 H   0  0  0  0  0  0  0  0  0  0  0  0
   43.8230   35.8521   45.9151 H   0  0  0  0  0  0  0  0  0  0  0  0
   44.3278   36.5961   43.5735 H   0  0  0  0  0  0  0  0  0  0  0  0
   46.0890   35.3338   42.2977 H   0  0  0  0  0  0  0  0  0  0  0  0
   46.9223   33.3589   48.2057 H   0  0  0  0  0  0  0  0  0  0  0  0
   45.9137   32.4281   50.1788 H   0  0  0  0  0  0  0  0  0  0  0  0
   44.6835   30.3551   50.0665 H   0  0  0  0  0  0  0  0  0  0  0  0
   43.3690   28.7258   46.8326 C   0  0  0  0  0  0  0  0  0  0  0  0
   44.2540   28.8346   47.8858 C   0  0  0  0  0  0  0  0  0  0  0  0
   44.3279   27.7756   48.7565 C   0  0  0  0  0  0  0  0  0  0  0  0
   45.0295   27.8911   49.5700 H   0  0  0  0  0  0  0  0  0  0  0  0
   43.5763   26.6426   48.6246 C   0  0  0  0  0  0  0  0  0  0  0  0
   43.5566   25.5565   49.3955 N   0  0  0  0  0  0  0  0  0  0  0  0
   44.1283   25.3840   50.2539 H   0  0  0  0  0  0  0  0  0  0  0  0
   42.6661   24.7067   48.8783 C   0  0  0  0  0  0  0  0  0  0  0  0
   42.4395   23.7336   49.3013 H   0  0  0  0  0  0  0  0  0  0  0  0
   42.1117   25.2852   47.7444 C   0  0  0  0  0  0  0  0  0  0  0  0
   42.6892   26.5273   47.5735 C   0  0  0  0  0  0  0  0  0  0  0  0
   42.6044   27.5829   46.6912 C   0  0  0  0  0  0  0  0  0  0  0  0
   43.2127   29.4936   46.0697 H   0  0  0  0  0  0  0  0  0  0  0  0
   41.3671   24.8773   47.0902 H   0  0  0  0  0  0  0  0  0  0  0  0
   41.8884   27.4324   45.8848 H   0  0  0  0  0  0  0  0  0  0  0  0
  1 10  1  0
  2  7  2  0
  3  2  1  0
  4  5  1  0
  4  3  2  0
  5  6  2  0
  6  1  1  0
  6  7  1  0
  8  9  1  0
  9 10  2  0
  9 14  1  0
 10 11  1  0
 11 12  2  0
 13 12  1  0
 14 13  2  0
  1 15  1  0
  1 16  1  0
  2 17  1  0
  3 18  1  0
  4 19  1  0
 11 20  1  0
 12 21  1  0
 13 22  1  0
 23 24  2  0
 24 25  1  0
 25 26  1  0
 25 27  2  0
 27 28  1  0
 28 29  1  0
 28 30  1  0
 30 31  1  0
 30 32  2  0
 32 33  1  0
 33 34  2  0
 34 23  1  0
 33 27  1  0
 23 35  1  0
 32 36  1  0
 34 37  1  0
 14 24  1  0
M  ISO  8  15   8  16   8  17  14  18  14  19  14  20  14  21  14  22  14
M  ISO  3  26  15  29   5  31  14
M  END
>  <DihAtoms>  (1) 
8,13,23,22

>  <DihDeg>  (1) 
134.93762685210433

$$$$
