
 OpenBabel03242523223D

 46 50  0  0  1  0  0  0  0  0999 V2000
   47.4520   32.6450   43.7610 C   0  0  0  0  0  0  0  0  0  0  0  0
   48.3500   33.2280   42.9730 C   0  0  0  0  0  0  0  0  0  0  0  0
   49.1350   32.3670   42.2730 C   0  0  0  0  0  0  0  0  0  0  0  0
   48.9470   30.9850   42.4260 N   0  0  0  0  0  0  0  0  0  0  0  0
   48.0370   30.4730   43.2270 C   0  0  0  0  0  0  0  0  0  0  0  0
   47.2260   31.3080   43.9500 N   0  0  0  0  0  0  0  0  0  0  0  0
   49.9520   32.4890   41.5910 H   0  0  0  0  0  0  0  0  0  0  0  0
   47.9430   29.3740   43.3010 H   0  0  0  0  0  0  0  0  0  0  0  0
   48.6390   34.6090   42.8750 C   0  0  1  0  0  0  0  0  0  0  0  0
   49.6270   35.2420   42.1860 C   0  0  0  0  0  0  0  0  0  0  0  0
   48.2950   35.3750   41.5660 C   0  0  1  0  0  0  0  0  0  0  0  0
   48.3680   35.1660   43.8290 H   0  0  0  0  0  0  0  0  0  0  0  0
   50.4310   34.6650   41.6550 H   0  0  0  0  0  0  0  0  0  0  0  0
   50.0800   36.2600   42.4040 H   0  0  0  0  0  0  0  0  0  0  0  0
   47.6510   36.2620   41.8370 H   0  0  0  0  0  0  0  0  0  0  0  0
   48.6760   34.4390   39.1450 C   0  0  0  0  0  3  0  0  0  0  0  0
   47.9890   34.6750   40.3180 C   0  0  0  0  0  0  0  0  0  0  0  0
   46.7020   34.1130   40.2890 C   0  0  0  0  0  0  0  0  0  0  0  0
   46.0270   34.1990   41.0990 H   0  0  0  0  0  0  0  0  0  0  0  0
   46.1940   33.4110   39.2140 C   0  0  0  0  0  0  0  0  0  0  0  0
   45.0240   32.7970   38.9630 N   0  0  0  0  0  0  0  0  0  0  0  0
   44.2090   32.7430   39.6140 H   0  0  0  0  0  0  0  0  0  0  0  0
   45.0260   32.2520   37.7520 C   0  0  0  0  0  0  0  0  0  0  0  0
   44.2200   31.6970   37.2850 H   0  0  0  0  0  0  0  0  0  0  0  0
   46.2290   32.4990   37.1600 C   0  0  0  0  0  3  0  0  0  0  0  0
   46.9370   33.2210   38.0910 C   0  0  0  0  0  0  0  0  0  0  0  0
   48.2070   33.7480   38.0540 C   0  0  0  0  0  3  0  0  0  0  0  0
   46.4310   33.3230   44.5870 C   0  0  0  0  0  0  0  0  0  0  0  0
   45.9170   33.6350   45.6230 O   0  0  0  0  0  0  0  0  0  0  0  0
   44.4810   31.6690   42.8580 Cl  0  0  0  0  0  0  0  0  0  0  0  0
   44.5460   33.4200   42.8080 C   0  0  0  0  0  0  0  0  0  0  0  0
   45.4850   34.0310   43.6710 C   0  0  0  0  0  0  0  0  0  0  0  0
   45.4310   35.4000   43.5430 C   0  0  0  0  0  0  0  0  0  0  0  0
   44.6760   36.1740   42.7750 C   0  0  0  0  0  0  0  0  0  0  0  0
   43.7840   35.5140   41.9590 C   0  0  0  0  0  0  0  0  0  0  0  0
   43.7040   34.1420   41.9620 C   0  0  0  0  0  0  0  0  0  0  0  0
   46.0990   36.0090   44.1960 H   0  0  0  0  0  0  0  0  0  0  0  0
   44.7050   37.2620   42.7400 H   0  0  0  0  0  0  0  0  0  0  0  0
   43.1350   36.1210   41.3010 H   0  0  0  0  0  0  0  0  0  0  0  0
   42.7850   33.6140   41.1150 O   0  0  0  0  0  0  0  0  0  0  0  0
   40.4710   33.0210   40.0290 O   0  0  0  0  0  0  0  0  0  0  0  0
   41.1380   33.2910   41.3590 P   0  0  0  0  0  0  0  0  0  0  0  0
   40.9850   31.9660   42.4040 O   0  0  0  0  0  0  0  0  0  0  0  0
   40.0360   31.8410   42.6530 H   0  0  0  0  0  0  0  0  0  0  0  0
   40.3640   34.5760   42.1410 O   0  0  0  0  0  0  0  0  0  0  0  0
   39.8030   35.1230   41.5680 H   0  0  0  0  0  0  0  0  0  0  0  0
  1  6  1  0  0  0  0
  1 28  1  0  0  0  0
  2  1  2  0  0  0  0
  3  4  2  0  0  0  0
  3  2  1  0  0  0  0
  4  5  1  0  0  0  0
  5  8  1  0  0  0  0
  5  6  2  0  0  0  0
  7  3  1  0  0  0  0
  9  2  1  0  0  0  0
  9 12  1  1  0  0  0
 10 14  1  0  0  0  0
 10  9  1  0  0  0  0
 11 15  1  1  0  0  0
 11 10  1  0  0  0  0
 11  9  1  0  0  0  0
 13 10  1  0  0  0  0
 16 17  1  0  0  0  0
 17 11  1  0  0  0  0
 18 17  2  0  0  0  0
 18 19  1  0  0  0  0
 20 18  1  0  0  0  0
 21 20  1  0  0  0  0
 21 22  1  0  0  0  0
 23 21  1  0  0  0  0
 24 23  1  0  0  0  0
 25 23  2  0  0  0  0
 25 26  1  0  0  0  0
 26 20  2  0  0  0  0
 27 26  1  0  0  0  0
 27 16  2  0  0  0  0
 28 29  2  0  0  0  0
 31 30  1  0  0  0  0
 31 32  1  0  0  0  0
 32 28  1  0  0  0  0
 33 32  2  0  0  0  0
 33 37  1  0  0  0  0
 34 33  1  0  0  0  0
 35 36  1  0  0  0  0
 35 34  2  0  0  0  0
 36 31  2  0  0  0  0
 38 34  1  0  0  0  0
 39 35  1  0  0  0  0
 40 42  1  0  0  0  0
 40 36  1  0  0  0  0
 41 42  2  0  0  0  0
 42 45  1  0  0  0  0
 42 43  1  0  0  0  0
 43 44  1  0  0  0  0
 46 45  1  0  0  0  0
M  END
>  <minimizedAffinity>
-6.82088232

>  <minimizedRMSD>
1.30386961

$$$$
