
 OpenBabel03252505103D

 47 51  0  0  1  0  0  0  0  0999 V2000
   44.6270   35.5180   44.5400 C   0  0  0  0  0  0  0  0  0  0  0  0
   45.2930   35.4690   43.2920 C   0  0  0  0  0  0  0  0  0  0  0  0
   46.3730   34.5330   43.1510 C   0  0  0  0  0  0  0  0  0  0  0  0
   46.6970   33.7470   44.2210 N   0  0  0  0  0  0  0  0  0  0  0  0
   46.0360   33.8300   45.3800 C   0  0  0  0  0  0  0  0  0  0  0  0
   44.9970   34.7140   45.5520 N   0  0  0  0  0  0  0  0  0  0  0  0
   43.8190   36.2350   44.6050 H   0  0  0  0  0  0  0  0  0  0  0  0
   45.0280   36.0970   42.4500 H   0  0  0  0  0  0  0  0  0  0  0  0
   46.4320   32.9530   46.5170 C   0  0  2  0  0  0  0  0  0  0  0  0
   46.9720   31.6960   45.8680 C   0  0  0  0  0  0  0  0  0  0  0  0
   46.0950   30.5160   45.9050 C   0  0  0  0  0  0  0  0  0  0  0  0
   45.7860   30.2990   47.3830 C   0  0  0  0  0  0  0  0  0  0  0  0
   44.9810   31.3950   47.9450 C   0  0  0  0  0  0  0  0  0  0  0  0
   45.3660   32.7460   47.4530 C   0  0  0  0  0  0  0  0  0  0  0  0
   47.2730   33.4980   47.0150 H   0  0  0  0  0  0  0  0  0  0  0  0
   47.9040   31.4260   46.4130 H   0  0  0  0  0  0  0  0  0  0  0  0
   47.3150   31.8710   44.8200 H   0  0  0  0  0  0  0  0  0  0  0  0
   45.1520   30.7230   45.3870 H   0  0  0  0  0  0  0  0  0  0  0  0
   46.6470   29.6550   45.5360 H   0  0  0  0  0  0  0  0  0  0  0  0
   45.0870   29.4200   47.3750 H   0  0  0  0  0  0  0  0  0  0  0  0
   46.6600   30.0180   47.9710 H   0  0  0  0  0  0  0  0  0  0  0  0
   44.1750   31.4700   48.6260 H   0  0  0  0  0  0  0  0  0  0  0  0
   44.6660   33.8960   47.9150 N   0  0  0  0  0  0  0  0  0  0  0  0
   45.1190   34.5500   48.6080 H   0  0  0  0  0  0  0  0  0  0  0  0
   43.7090   34.2560   47.6840 H   0  0  0  0  0  0  0  0  0  0  0  0
   47.0730   34.4550   41.8930 C   0  0  0  0  0  0  0  0  0  0  0  0
   47.9840   35.4020   41.5890 C   0  0  0  0  0  0  0  0  0  0  0  0
   48.6340   35.2740   40.3480 C   0  0  0  0  0  0  0  0  0  0  0  0
   48.2720   34.1870   39.5630 C   0  0  0  0  0  0  0  0  0  0  0  0
   47.3470   33.2270   39.8750 C   0  0  0  0  0  0  0  0  0  0  0  0
   46.7650   33.4250   41.0920 N   0  0  0  0  0  0  0  0  0  0  0  0
   48.2290   36.2270   42.2330 H   0  0  0  0  0  0  0  0  0  0  0  0
   49.3800   35.9850   40.0150 H   0  0  0  0  0  0  0  0  0  0  0  0
   48.7940   34.1170   38.6100 H   0  0  0  0  0  0  0  0  0  0  0  0
   47.0460   32.1820   39.0400 O   0  0  0  0  0  0  0  0  0  0  0  0
   46.0010   32.3320   36.8040 C   0  0  0  0  0  3  0  0  0  0  0  0
   47.0510   32.2200   37.6780 C   0  0  0  0  0  0  0  0  0  0  0  0
   48.3300   32.1290   37.1260 C   0  0  0  0  0  0  0  0  0  0  0  0
   49.2620   32.0350   37.6890 H   0  0  0  0  0  0  0  0  0  0  0  0
   48.5390   32.1500   35.7560 C   0  0  0  0  0  0  0  0  0  0  0  0
   49.6250   32.0820   34.9520 N   0  0  0  0  0  0  0  0  0  0  0  0
   50.6130   31.9900   35.2920 H   0  0  0  0  0  0  0  0  0  0  0  0
   49.2660   32.1480   33.6760 C   0  0  0  0  0  0  0  0  0  0  0  0
   49.9280   32.1180   32.8050 H   0  0  0  0  0  0  0  0  0  0  0  0
   47.9040   32.2650   33.5930 C   0  0  0  0  0  3  0  0  0  0  0  0
   47.4550   32.2650   34.8980 C   0  0  0  0  0  0  0  0  0  0  0  0
   46.1890   32.3560   35.4300 C   0  0  0  0  0  3  0  0  0  0  0  0
  1  7  1  0  0  0  0
  1  6  1  0  0  0  0
  2  1  2  0  0  0  0
  3  2  1  0  0  0  0
  3  4  2  0  0  0  0
  4  5  1  0  0  0  0
  5  6  2  0  0  0  0
  5  9  1  0  0  0  0
  8  2  1  0  0  0  0
  9 15  1  1  0  0  0
  9 14  1  0  0  0  0
 10 11  1  0  0  0  0
 10 16  1  0  0  0  0
 10  9  1  0  0  0  0
 11 12  1  0  0  0  0
 12 13  1  0  0  0  0
 12 21  1  0  0  0  0
 13 22  1  0  0  0  0
 14 23  1  0  0  0  0
 14 13  2  0  0  0  0
 17 10  1  0  0  0  0
 18 11  1  0  0  0  0
 19 11  1  0  0  0  0
 20 12  1  0  0  0  0
 23 24  1  0  0  0  0
 25 23  1  0  0  0  0
 26  3  1  0  0  0  0
 27 26  1  0  0  0  0
 27 32  1  0  0  0  0
 28 27  2  0  0  0  0
 29 30  2  0  0  0  0
 29 28  1  0  0  0  0
 30 31  1  0  0  0  0
 31 26  2  0  0  0  0
 33 28  1  0  0  0  0
 34 29  1  0  0  0  0
 35 30  1  0  0  0  0
 36 37  1  0  0  0  0
 37 35  1  0  0  0  0
 38 37  2  0  0  0  0
 38 39  1  0  0  0  0
 40 38  1  0  0  0  0
 41 42  1  0  0  0  0
 41 40  1  0  0  0  0
 43 41  1  0  0  0  0
 44 43  1  0  0  0  0
 45 43  2  0  0  0  0
 45 46  1  0  0  0  0
 46 47  1  0  0  0  0
 46 40  2  0  0  0  0
 47 36  2  0  0  0  0
M  END
>  <minimizedAffinity>
-7.62010717

>  <minimizedRMSD>
0.729314268

$$$$
