
     RDKit          3D

 43 46  0  0  0  0  0  0  0  0999 V2000
   45.1439   36.0061   43.0614 C   0  0  0  0  0  0  0  0  0  0  0  0
   44.1486   35.8009   42.0900 C   0  0  0  0  0  0  0  0  0  0  0  0
   44.3740   34.8119   41.1242 C   0  0  0  0  0  0  0  0  0  0  0  0
   45.5328   34.1084   41.1758 N   0  0  0  0  0  0  0  0  0  0  0  0
   46.4665   34.3404   42.1323 C   0  0  0  0  0  0  0  0  0  0  0  0
   46.2688   35.2894   43.0729 N   0  0  0  0  0  0  0  0  0  0  0  0
   48.9615   35.8021   41.2447 Cl  0  0  0  0  0  0  0  0  0  0  0  0
   48.8721   34.1353   41.7082 C   0  0  0  0  0  0  0  0  0  0  0  0
   47.6900   33.5271   42.1062 C   0  0  0  0  0  0  0  0  0  0  0  0
   47.5946   32.2164   42.4756 C   0  0  0  0  0  0  0  0  0  0  0  0
   48.7522   31.4691   42.4450 C   0  0  0  0  0  0  0  0  0  0  0  0
   49.9875   31.9742   42.0640 C   0  0  0  0  0  0  0  0  0  0  0  0
   49.9757   33.3150   41.7079 C   0  0  0  0  0  0  0  0  0  0  0  0
   44.9001   37.0442   44.0698 C   0  0  0  0  0  0  0  0  0  0  0  0
   45.4742   38.2067   43.9310 C   0  0  0  0  0  0  0  0  0  0  0  0
   45.2450   39.2766   44.9372 C   0  0  0  0  0  0  0  0  0  0  0  0
   44.7705   40.4601   44.2209 N   0  0  0  0  0  0  0  0  0  0  0  0
   43.2400   36.3551   42.0524 H   0  0  0  0  0  0  0  0  0  0  0  0
   43.6391   34.6159   40.3559 H   0  0  0  0  0  0  0  0  0  0  0  0
   46.6698   31.7512   42.7841 H   0  0  0  0  0  0  0  0  0  0  0  0
   48.7416   30.4184   42.7281 H   0  0  0  0  0  0  0  0  0  0  0  0
   50.8922   31.4103   42.0347 H   0  0  0  0  0  0  0  0  0  0  0  0
   50.9185   33.7680   41.3990 H   0  0  0  0  0  0  0  0  0  0  0  0
   44.2605   36.8859   44.9290 H   0  0  0  0  0  0  0  0  0  0  0  0
   46.1372   38.5144   43.1295 H   0  0  0  0  0  0  0  0  0  0  0  0
   46.1769   39.5559   45.4696 H   0  0  0  0  0  0  0  0  0  0  0  0
   44.5202   38.9644   45.7126 H   0  0  0  0  0  0  0  0  0  0  0  0
   44.6441   40.4571   43.1667 H   0  0  0  0  0  0  0  0  0  0  0  0
   44.5630   41.8423   46.2549 C   0  0  0  0  0  0  0  0  0  0  0  0
   44.4499   41.6828   44.8855 C   0  0  0  0  0  0  0  0  0  0  0  0
   44.0047   42.7781   44.1736 C   0  0  0  0  0  0  0  0  0  0  0  0
   43.8837   42.7524   43.1024 H   0  0  0  0  0  0  0  0  0  0  0  0
   43.6737   43.9950   44.7367 C   0  0  0  0  0  0  0  0  0  0  0  0
   43.2300   45.1756   44.2685 N   0  0  0  0  0  0  0  0  0  0  0  0
   43.0334   45.4142   43.2888 H   0  0  0  0  0  0  0  0  0  0  0  0
   43.0709   46.0396   45.2965 C   0  0  0  0  0  0  0  0  0  0  0  0
   42.7352   47.0702   45.3148 H   0  0  0  0  0  0  0  0  0  0  0  0
   43.4234   45.3951   46.4648 C   0  0  0  0  0  0  0  0  0  0  0  0
   43.8029   44.1125   46.1257 C   0  0  0  0  0  0  0  0  0  0  0  0
   44.2456   43.0363   46.8680 C   0  0  0  0  0  0  0  0  0  0  0  0
   44.9154   40.9782   46.8258 H   0  0  0  0  0  0  0  0  0  0  0  0
   43.4339   45.7394   47.4863 H   0  0  0  0  0  0  0  0  0  0  0  0
   44.3608   43.0827   47.9473 H   0  0  0  0  0  0  0  0  0  0  0  0
  1  6  1  0
  1 14  1  0
  2  1  2  0
  3  4  2  0
  3  2  1  0
  4  5  1  0
  5  6  2  0
  7  8  1  0
  8 13  2  0
  8  9  1  0
  9  5  1  0
  9 10  2  0
 11 10  1  0
 12 11  2  0
 13 12  1  0
 15 14  2  0
 15 16  1  0
 17 16  1  0
  2 18  1  0
  3 19  1  0
 10 20  1  0
 11 21  1  0
 12 22  1  0
 13 23  1  0
 14 24  1  0
 15 25  1  0
 16 26  1  0
 16 27  1  0
 17 28  1  0
 29 30  2  0
 30 31  1  0
 31 32  1  0
 31 33  2  0
 33 34  1  0
 34 35  1  0
 34 36  1  0
 36 37  1  0
 36 38  2  0
 38 39  1  0
 39 40  2  0
 40 29  1  0
 39 33  1  0
 29 41  1  0
 38 42  1  0
 40 43  1  0
 17 30  1  0
M  ISO  8  18  14  19  14  20  14  21  14  22  14  23  14  26   8  27   8
M  ISO  4  28   5  32  15  35   5  37  14
M  END
>  <DihAtoms>  (1) 
15,16,29,28

>  <DihDeg>  (1) 
-179.9998225395662

$$$$
