
 OpenBabel03242518543D

 45 48  0  0  1  0  0  0  0  0999 V2000
   45.7210   31.1350   46.5690 C   0  0  2  0  0  0  0  0  0  0  0  0
   45.8330   30.3050   47.8090 C   0  0  0  0  0  0  0  0  0  0  0  0
   45.0600   29.0540   47.5650 C   0  0  0  0  0  0  0  0  0  0  0  0
   44.3050   28.9990   46.2900 C   0  0  0  0  0  0  0  0  0  0  0  0
   45.2400   29.2300   45.1110 C   0  0  0  0  0  0  0  0  0  0  0  0
   46.1650   30.3110   45.3820 C   0  0  2  0  0  0  0  0  0  0  0  0
   44.6500   31.3420   46.3670 H   0  0  0  0  0  0  0  0  0  0  0  0
   45.3770   30.9170   48.6440 H   0  0  0  0  0  0  0  0  0  0  0  0
   46.8650   30.1230   48.1360 H   0  0  0  0  0  0  0  0  0  0  0  0
   44.2830   28.9750   48.3860 H   0  0  0  0  0  0  0  0  0  0  0  0
   45.6510   28.1130   47.7040 H   0  0  0  0  0  0  0  0  0  0  0  0
   43.4370   29.6670   46.2370 H   0  0  0  0  0  0  0  0  0  0  0  0
   43.8780   27.9650   46.2240 H   0  0  0  0  0  0  0  0  0  0  0  0
   44.5880   29.5450   44.2300 H   0  0  0  0  0  0  0  0  0  0  0  0
   45.6060   28.2450   44.8030 H   0  0  0  0  0  0  0  0  0  0  0  0
   46.2690   30.9960   44.5250 H   0  0  0  0  0  0  0  0  0  0  0  0
   47.4940   29.6990   45.6580 C   0  0  0  0  0  0  0  0  0  0  0  0
   47.4740   28.5910   45.7450 H   0  0  0  0  0  0  0  0  0  0  0  0
   47.9400   30.0710   46.6290 H   0  0  0  0  0  0  0  0  0  0  0  0
   49.6880   29.4350   44.5820 C   0  0  0  0  0  0  0  0  0  0  0  0
   48.4610   30.1040   44.6180 C   0  0  0  0  0  0  0  0  0  0  0  0
   48.3370   31.0440   43.6200 C   0  0  0  0  0  0  0  0  0  0  0  0
   47.4060   31.5890   43.5710 H   0  0  0  0  0  0  0  0  0  0  0  0
   49.3160   31.2900   42.6980 C   0  0  0  0  0  0  0  0  0  0  0  0
   49.3340   32.1700   41.6790 N   0  0  0  0  0  0  0  0  0  0  0  0
   48.6270   32.8620   41.3460 H   0  0  0  0  0  0  0  0  0  0  0  0
   50.5110   32.0570   41.0380 C   0  0  0  0  0  0  0  0  0  0  0  0
   50.9480   32.5600   40.1770 H   0  0  0  0  0  0  0  0  0  0  0  0
   51.2800   31.0750   41.6630 C   0  0  0  0  0  0  0  0  0  0  0  0
   50.5090   30.6070   42.7020 C   0  0  0  0  0  0  0  0  0  0  0  0
   50.7040   29.6480   43.6740 C   0  0  0  0  0  0  0  0  0  0  0  0
   46.3980   32.4500   46.6570 C   0  0  0  0  0  0  0  0  0  0  0  0
   47.3800   32.6700   47.4080 O   0  0  0  0  0  0  0  0  0  0  0  0
   44.5040   35.3690   45.5490 C   0  0  0  0  0  0  0  0  0  0  0  0
   44.8700   35.5330   44.1940 C   0  0  0  0  0  0  0  0  0  0  0  0
   45.7800   34.6220   43.6890 C   0  0  0  0  0  0  0  0  0  0  0  0
   46.2010   33.6950   44.5540 N   0  0  0  0  0  0  0  0  0  0  0  0
   45.8680   33.5330   45.8110 C   0  0  0  0  0  0  0  0  0  0  0  0
   44.9860   34.4080   46.3200 N   0  0  0  0  0  0  0  0  0  0  0  0
   43.7800   36.0890   45.9650 H   0  0  0  0  0  0  0  0  0  0  0  0
   44.4690   36.3140   43.5960 H   0  0  0  0  0  0  0  0  0  0  0  0
   46.1660   34.7680   42.2890 C   0  0  0  0  0  0  0  0  0  0  0  0
   46.5130   33.5470   41.7660 F   0  0  0  0  0  0  0  0  0  0  0  0
   47.2480   35.5890   42.2660 F   0  0  0  0  0  0  0  0  0  0  0  0
   45.1150   35.2430   41.5140 F   0  0  0  0  0  0  0  0  0  0  0  0
  1  7  1  6  0  0  0
  1 32  1  0  0  0  0
  1  2  1  0  0  0  0
  2  9  1  0  0  0  0
  2  8  1  0  0  0  0
  3 11  1  0  0  0  0
  3  2  1  0  0  0  0
  3 10  1  0  0  0  0
  4  3  1  0  0  0  0
  5  6  1  0  0  0  0
  5  4  1  0  0  0  0
  6 16  1  6  0  0  0
  6 17  1  0  0  0  0
  6  1  1  0  0  0  0
 12  4  1  0  0  0  0
 13  4  1  0  0  0  0
 14  5  1  0  0  0  0
 15  5  1  0  0  0  0
 17 18  1  0  0  0  0
 17 19  1  0  0  0  0
 20 21  1  0  0  0  0
 21 17  1  0  0  0  0
 22 21  2  0  0  0  0
 23 22  1  0  0  0  0
 24 30  2  0  0  0  0
 24 22  1  0  0  0  0
 25 24  1  0  0  0  0
 26 25  1  0  0  0  0
 27 29  2  0  0  0  0
 27 25  1  0  0  0  0
 28 27  1  0  0  0  0
 29 30  1  0  0  0  0
 30 31  1  0  0  0  0
 31 20  2  0  0  0  0
 32 33  2  0  0  0  0
 34 40  1  0  0  0  0
 34 39  1  0  0  0  0
 35 34  2  0  0  0  0
 36 35  1  0  0  0  0
 36 37  2  0  0  0  0
 37 38  1  0  0  0  0
 38 39  2  0  0  0  0
 38 32  1  0  0  0  0
 41 35  1  0  0  0  0
 42 36  1  0  0  0  0
 43 42  1  0  0  0  0
 44 42  1  0  0  0  0
 45 42  1  0  0  0  0
M  END
>  <minimizedAffinity>
-5.79449654

>  <minimizedRMSD>
2.15887547

$$$$
