
 OpenBabel03252502523D

 34 37  0  0  0  0  0  0  0  0999 V2000
   46.4960   30.3980   45.4770 Br  0  0  0  0  0  0  0  0  0  0  0  0
   47.1930   28.6030   45.3870 C   0  0  0  0  0  0  0  0  0  0  0  0
   46.6710   27.7010   46.3020 C   0  0  0  0  0  0  0  0  0  0  0  0
   47.2060   26.4220   46.1960 C   0  0  0  0  0  0  0  0  0  0  0  0
   48.1680   26.0470   45.2810 C   0  0  0  0  0  0  0  0  0  0  0  0
   48.6310   27.0000   44.4110 C   0  0  0  0  0  0  0  0  0  0  0  0
   48.1470   28.3090   44.4490 C   0  0  0  0  0  0  0  0  0  0  0  0
   46.8550   25.6500   46.8730 H   0  0  0  0  0  0  0  0  0  0  0  0
   48.5300   25.0420   45.2610 H   0  0  0  0  0  0  0  0  0  0  0  0
   49.3850   26.6760   43.7040 H   0  0  0  0  0  0  0  0  0  0  0  0
   47.9000   29.4510   42.3810 C   0  0  0  0  0  3  0  0  0  0  0  0
   48.6730   29.2650   43.5090 C   0  0  0  0  0  0  0  0  0  0  0  0
   49.8310   29.9970   43.6050 C   0  0  0  0  0  0  0  0  0  0  0  0
   50.4140   29.8300   44.5000 H   0  0  0  0  0  0  0  0  0  0  0  0
   50.2400   30.8840   42.6500 C   0  0  0  0  0  0  0  0  0  0  0  0
   51.3320   31.6460   42.6270 N   0  0  0  0  0  0  0  0  0  0  0  0
   52.0800   31.6950   43.3560 H   0  0  0  0  0  0  0  0  0  0  0  0
   51.3120   32.3510   41.4930 C   0  0  0  0  0  0  0  0  0  0  0  0
   52.0820   33.0590   41.2070 H   0  0  0  0  0  0  0  0  0  0  0  0
   50.1660   32.0150   40.7850 C   0  0  0  0  0  3  0  0  0  0  0  0
   49.4720   31.0740   41.5190 C   0  0  0  0  0  0  0  0  0  0  0  0
   48.3060   30.3460   41.4080 C   0  0  0  0  0  3  0  0  0  0  0  0
   45.6580   27.9810   47.3110 C   0  0  0  0  0  0  0  0  0  0  0  0
   46.0310   27.7440   48.3250 H   0  0  0  0  0  0  0  0  0  0  0  0
   45.4400   29.0860   47.2710 H   0  0  0  0  0  0  0  0  0  0  0  0
   42.3750   27.0050   45.8000 C   0  0  0  0  0  0  0  0  0  0  0  0
   41.9720   25.9660   46.6500 C   0  0  0  0  0  0  0  0  0  0  0  0
   42.8090   25.6230   47.6980 C   0  0  0  0  0  0  0  0  0  0  0  0
   43.9840   26.2990   47.8720 N   0  0  0  0  0  0  0  0  0  0  0  0
   44.3490   27.3100   47.0260 C   0  0  0  0  0  0  0  0  0  0  0  0
   43.5260   27.6370   46.0040 N   0  0  0  0  0  0  0  0  0  0  0  0
   41.7400   27.2840   44.9820 H   0  0  0  0  0  0  0  0  0  0  0  0
   41.0430   25.4270   46.5170 H   0  0  0  0  0  0  0  0  0  0  0  0
   42.5860   24.8320   48.4110 H   0  0  0  0  0  0  0  0  0  0  0  0
  2  1  1  0  0  0  0
  2  3  1  0  0  0  0
  3 23  1  0  0  0  0
  4  3  2  0  0  0  0
  4  8  1  0  0  0  0
  5  4  1  0  0  0  0
  6  7  1  0  0  0  0
  6  5  2  0  0  0  0
  7  2  2  0  0  0  0
  9  5  1  0  0  0  0
 10  6  1  0  0  0  0
 11 12  1  0  0  0  0
 12 13  2  0  0  0  0
 12  7  1  0  0  0  0
 13 14  1  0  0  0  0
 15 13  1  0  0  0  0
 16 15  1  0  0  0  0
 16 17  1  0  0  0  0
 18 16  1  0  0  0  0
 19 18  1  0  0  0  0
 20 18  2  0  0  0  0
 20 21  1  0  0  0  0
 21 15  2  0  0  0  0
 22 21  1  0  0  0  0
 22 11  2  0  0  0  0
 23 24  1  0  0  0  0
 25 23  1  0  0  0  0
 26 31  2  0  0  0  0
 26 27  1  0  0  0  0
 27 28  2  0  0  0  0
 28 29  1  0  0  0  0
 28 34  1  0  0  0  0
 30 23  1  0  0  0  0
 30 29  2  0  0  0  0
 31 30  1  0  0  0  0
 32 26  1  0  0  0  0
 33 27  1  0  0  0  0
M  END
>  <minimizedAffinity>
-3.16632724

>  <minimizedRMSD>
8.29563522

$$$$
