
 OpenBabel03252502523D

 34 37  0  0  0  0  0  0  0  0999 V2000
   46.0440   30.0050   44.4590 Br  0  0  0  0  0  0  0  0  0  0  0  0
   45.7890   30.6310   46.2640 C   0  0  0  0  0  0  0  0  0  0  0  0
   46.3310   31.8720   46.5600 C   0  0  0  0  0  0  0  0  0  0  0  0
   46.1200   32.2770   47.8730 C   0  0  0  0  0  0  0  0  0  0  0  0
   45.4410   31.5420   48.8220 C   0  0  0  0  0  0  0  0  0  0  0  0
   44.9360   30.3230   48.4480 C   0  0  0  0  0  0  0  0  0  0  0  0
   45.1020   29.8400   47.1490 C   0  0  0  0  0  0  0  0  0  0  0  0
   46.5100   33.2380   48.1930 H   0  0  0  0  0  0  0  0  0  0  0  0
   45.3190   31.9210   49.8140 H   0  0  0  0  0  0  0  0  0  0  0  0
   44.4080   29.7690   49.2140 H   0  0  0  0  0  0  0  0  0  0  0  0
   43.4080   28.5980   46.0400 C   0  0  0  0  0  3  0  0  0  0  0  0
   44.5480   28.5540   46.8160 C   0  0  0  0  0  0  0  0  0  0  0  0
   45.0160   27.3130   47.1750 C   0  0  0  0  0  0  0  0  0  0  0  0
   45.9090   27.3110   47.7810 H   0  0  0  0  0  0  0  0  0  0  0  0
   44.4100   26.1470   46.8030 C   0  0  0  0  0  0  0  0  0  0  0  0
   44.7620   24.8930   47.0820 N   0  0  0  0  0  0  0  0  0  0  0  0
   45.5830   24.5830   47.6510 H   0  0  0  0  0  0  0  0  0  0  0  0
   43.8720   24.0820   46.5060 C   0  0  0  0  0  0  0  0  0  0  0  0
   43.9100   23.0000   46.5680 H   0  0  0  0  0  0  0  0  0  0  0  0
   42.9330   24.8590   45.8420 C   0  0  0  0  0  3  0  0  0  0  0  0
   43.2690   26.1840   46.0260 C   0  0  0  0  0  0  0  0  0  0  0  0
   42.7880   27.4230   45.6580 C   0  0  0  0  0  3  0  0  0  0  0  0
   47.0660   32.7350   45.6450 C   0  0  0  0  0  0  0  0  0  0  0  0
   47.9770   33.1390   46.1240 H   0  0  0  0  0  0  0  0  0  0  0  0
   47.3860   32.1010   44.7690 H   0  0  0  0  0  0  0  0  0  0  0  0
   44.5080   35.4240   45.1450 C   0  0  0  0  0  0  0  0  0  0  0  0
   44.7470   35.7940   43.8150 C   0  0  0  0  0  0  0  0  0  0  0  0
   45.7530   35.1370   43.1270 C   0  0  0  0  0  0  0  0  0  0  0  0
   46.4720   34.1600   43.7560 N   0  0  0  0  0  0  0  0  0  0  0  0
   46.2160   33.8190   45.0570 C   0  0  0  0  0  0  0  0  0  0  0  0
   45.2310   34.4680   45.7200 N   0  0  0  0  0  0  0  0  0  0  0  0
   43.7330   35.9210   45.6930 H   0  0  0  0  0  0  0  0  0  0  0  0
   44.1810   36.5670   43.3120 H   0  0  0  0  0  0  0  0  0  0  0  0
   46.0150   35.3520   42.0940 H   0  0  0  0  0  0  0  0  0  0  0  0
  1  2  1  0  0  0  0
  2  3  2  0  0  0  0
  2  7  1  0  0  0  0
  3  4  1  0  0  0  0
  4  8  1  0  0  0  0
  4  5  2  0  0  0  0
  5  9  1  0  0  0  0
  6  5  1  0  0  0  0
  6 10  1  0  0  0  0
  7  6  2  0  0  0  0
 11 12  1  0  0  0  0
 12  7  1  0  0  0  0
 12 13  2  0  0  0  0
 13 14  1  0  0  0  0
 15 16  1  0  0  0  0
 15 13  1  0  0  0  0
 16 17  1  0  0  0  0
 18 19  1  0  0  0  0
 18 16  1  0  0  0  0
 20 21  1  0  0  0  0
 20 18  2  0  0  0  0
 21 15  2  0  0  0  0
 22 21  1  0  0  0  0
 22 11  2  0  0  0  0
 23 24  1  0  0  0  0
 23  3  1  0  0  0  0
 25 23  1  0  0  0  0
 26 32  1  0  0  0  0
 26 31  1  0  0  0  0
 27 26  2  0  0  0  0
 28 29  2  0  0  0  0
 28 27  1  0  0  0  0
 29 30  1  0  0  0  0
 30 23  1  0  0  0  0
 30 31  2  0  0  0  0
 33 27  1  0  0  0  0
 34 28  1  0  0  0  0
M  END
>  <minimizedAffinity>
-5.62945652

>  <minimizedRMSD>
1.25495768

$$$$
