
     RDKit          3D

 50 54  0  0  0  0  0  0  0  0999 V2000
   44.5608   35.5795   44.6093 C   0  0  0  0  0  0  0  0  0  0  0  0
   45.2196   35.5947   43.3557 C   0  0  0  0  0  0  0  0  0  0  0  0
   46.3178   34.6891   43.1714 C   0  0  0  0  0  0  0  0  0  0  0  0
   46.6655   33.8680   44.2071 N   0  0  0  0  0  0  0  0  0  0  0  0
   46.0120   33.8907   45.3731 C   0  0  0  0  0  0  0  0  0  0  0  0
   44.9547   34.7451   45.5862 N   0  0  0  0  0  0  0  0  0  0  0  0
   46.4342   32.9780   46.4708 C   0  0  2  0  0  0  0  0  0  0  0  0
   46.9688   31.7485   45.7698 C   0  0  0  0  0  0  0  0  0  0  0  0
   46.0992   30.5625   45.7832 C   0  0  0  0  0  0  0  0  0  0  0  0
   45.8202   30.2925   47.2585 C   0  0  0  0  0  0  0  0  0  0  0  0
   45.0187   31.3641   47.8718 C   0  0  0  0  0  0  0  0  0  0  0  0
   45.3874   32.7333   47.4203 C   0  0  0  0  0  0  0  0  0  0  0  0
   44.6893   33.8622   47.9327 N   0  0  0  0  0  0  0  0  0  0  0  0
   47.0115   34.6763   41.9071 C   0  0  0  0  0  0  0  0  0  0  0  0
   48.1535   35.3801   41.7767 C   0  0  0  0  0  0  0  0  0  0  0  0
   48.7836   35.3296   40.5208 C   0  0  0  0  0  0  0  0  0  0  0  0
   48.1674   34.5615   39.5426 C   0  0  0  0  0  0  0  0  0  0  0  0
   47.0065   33.8475   39.6785 C   0  0  0  0  0  0  0  0  0  0  0  0
   46.4608   33.9489   40.9226 N   0  0  0  0  0  0  0  0  0  0  0  0
   46.4605   33.1118   38.6578 O   0  0  0  0  0  0  0  0  0  0  0  0
   43.7388   36.2771   44.7071 H   0  0  0  0  0  0  0  0  0  0  0  0
   44.9358   36.2502   42.5405 H   0  0  0  0  0  0  0  0  0  0  0  0
   47.2813   33.5106   46.9719 H   0  0  0  0  0  0  0  0  0  0  0  0
   47.9116   31.4651   46.2884 H   0  0  0  0  0  0  0  0  0  0  0  0
   47.2905   31.9603   44.7225 H   0  0  0  0  0  0  0  0  0  0  0  0
   45.1457   30.7797   45.2899 H   0  0  0  0  0  0  0  0  0  0  0  0
   46.6489   29.7168   45.3751 H   0  0  0  0  0  0  0  0  0  0  0  0
   45.1255   29.4099   47.2335 H   0  0  0  0  0  0  0  0  0  0  0  0
   46.7061   29.9975   47.8204 H   0  0  0  0  0  0  0  0  0  0  0  0
   44.2259   31.4096   48.5700 H   0  0  0  0  0  0  0  0  0  0  0  0
   45.1522   34.4947   48.6397 H   0  0  0  0  0  0  0  0  0  0  0  0
   43.7260   34.2243   47.7335 H   0  0  0  0  0  0  0  0  0  0  0  0
   48.5922   35.9624   42.5682 H   0  0  0  0  0  0  0  0  0  0  0  0
   49.7059   35.8626   40.3204 H   0  0  0  0  0  0  0  0  0  0  0  0
   48.6815   34.5441   38.5827 H   0  0  0  0  0  0  0  0  0  0  0  0
   48.1094   33.5314   36.8628 C   0  0  0  0  0  0  0  0  0  0  0  0
   46.9731   32.9842   37.4014 C   0  0  0  0  0  0  0  0  0  0  0  0
   46.2036   32.1710   36.5680 C   0  0  0  0  0  0  0  0  0  0  0  0
   45.2763   31.6660   36.8492 H   0  0  0  0  0  0  0  0  0  0  0  0
   46.5639   31.9219   35.2532 C   0  0  0  0  0  0  0  0  0  0  0  0
   46.0371   31.2005   34.2365 N   0  0  0  0  0  0  0  0  0  0  0  0
   45.1520   30.6421   34.2984 H   0  0  0  0  0  0  0  0  0  0  0  0
   46.7975   31.2993   33.1525 C   0  0  0  0  0  0  0  0  0  0  0  0
   46.6219   30.8253   32.1816 H   0  0  0  0  0  0  0  0  0  0  0  0
   47.8724   32.1049   33.4225 C   0  0  0  0  0  0  0  0  0  0  0  0
   47.7205   32.4913   34.7385 C   0  0  0  0  0  0  0  0  0  0  0  0
   48.4872   33.2946   35.5502 C   0  0  0  0  0  0  0  0  0  0  0  0
   48.6685   34.1570   37.5624 H   0  0  0  0  0  0  0  0  0  0  0  0
   48.6723   32.3758   32.7340 H   0  0  0  0  0  0  0  0  0  0  0  0
   49.4104   33.7742   35.2073 H   0  0  0  0  0  0  0  0  0  0  0  0
  1  6  2  0
  2  1  1  0
  3  2  2  0
  3  4  1  0
  4  5  2  0
  5  6  1  0
  5  7  1  0
  7 12  1  0
  8  9  1  0
  8  7  1  0
  9 10  1  0
 10 11  1  0
 12 11  2  0
 12 13  1  0
 14  3  1  0
 15 14  2  0
 16 15  1  0
 17 18  1  0
 17 16  2  0
 18 19  2  0
 19 14  1  0
 20 18  1  0
  1 21  1  0
  2 22  1  0
  7 23  1  1
  8 24  1  0
  8 25  1  0
  9 26  1  0
  9 27  1  0
 10 28  1  0
 10 29  1  0
 11 30  1  0
 13 31  1  0
 13 32  1  0
 15 33  1  0
 16 34  1  0
 17 35  1  0
 36 37  2  0
 37 38  1  0
 38 39  1  0
 38 40  2  0
 40 41  1  0
 41 42  1  0
 41 43  1  0
 43 44  1  0
 43 45  2  0
 45 46  1  0
 46 47  2  0
 47 36  1  0
 46 40  1  0
 36 48  1  0
 45 49  1  0
 47 50  1  0
 20 37  1  0
M  ISO  8  21  14  22  14  23  13  24  13  25  13  26  13  27  13  28  13
M  ISO  8  29  13  30  13  33  14  34  14  35  14  39  15  42   5  44  14
M  END
>  <DihAtoms>  (1) 
17,19,36,35

>  <DihDeg>  (1) 
89.99882537051907

$$$$
