
 OpenBabel03252505133D

 47 51  0  0  1  0  0  0  0  0999 V2000
   36.7330   31.1010   40.4670 C   0  0  0  0  0  0  0  0  0  0  0  0
   37.3940   32.3290   40.2190 C   0  0  0  0  0  0  0  0  0  0  0  0
   38.6900   32.5160   40.8060 C   0  0  0  0  0  0  0  0  0  0  0  0
   39.2120   31.5080   41.5670 N   0  0  0  0  0  0  0  0  0  0  0  0
   38.5480   30.3660   41.7730 C   0  0  0  0  0  0  0  0  0  0  0  0
   37.3040   30.1510   41.2260 N   0  0  0  0  0  0  0  0  0  0  0  0
   35.7590   31.0000   40.0060 H   0  0  0  0  0  0  0  0  0  0  0  0
   36.9710   33.1210   39.6140 H   0  0  0  0  0  0  0  0  0  0  0  0
   39.1600   29.3000   42.6140 C   0  0  2  0  0  0  0  0  0  0  0  0
   40.1110   28.5720   41.6880 C   0  0  0  0  0  0  0  0  0  0  0  0
   39.6680   27.2540   41.2080 C   0  0  0  0  0  0  0  0  0  0  0  0
   39.3850   26.4480   42.4710 C   0  0  0  0  0  0  0  0  0  0  0  0
   38.2400   26.9870   43.2240 C   0  0  0  0  0  0  0  0  0  0  0  0
   38.1810   28.4730   43.2580 C   0  0  0  0  0  0  0  0  0  0  0  0
   39.7530   29.8540   43.3850 H   0  0  0  0  0  0  0  0  0  0  0  0
   41.0540   28.4120   42.2550 H   0  0  0  0  0  0  0  0  0  0  0  0
   40.4220   29.1980   40.8180 H   0  0  0  0  0  0  0  0  0  0  0  0
   38.7340   27.3450   40.6450 H   0  0  0  0  0  0  0  0  0  0  0  0
   40.4880   26.7810   40.6730 H   0  0  0  0  0  0  0  0  0  0  0  0
   39.0140   25.4650   42.0730 H   0  0  0  0  0  0  0  0  0  0  0  0
   40.2760   26.2460   43.0660 H   0  0  0  0  0  0  0  0  0  0  0  0
   37.4260   26.5760   43.7590 H   0  0  0  0  0  0  0  0  0  0  0  0
   37.1230   29.1260   43.9490 N   0  0  0  0  0  0  0  0  0  0  0  0
   37.3060   29.5950   44.8780 H   0  0  0  0  0  0  0  0  0  0  0  0
   36.1120   29.2480   43.7020 H   0  0  0  0  0  0  0  0  0  0  0  0
   39.3930   33.7530   40.5730 C   0  0  0  0  0  0  0  0  0  0  0  0
   38.6890   34.8600   40.2580 C   0  0  0  0  0  0  0  0  0  0  0  0
   39.4290   36.0350   40.0410 C   0  0  0  0  0  0  0  0  0  0  0  0
   40.8080   35.9390   40.1730 C   0  0  0  0  0  0  0  0  0  0  0  0
   41.5200   34.8140   40.4950 C   0  0  0  0  0  0  0  0  0  0  0  0
   40.7290   33.7210   40.6880 N   0  0  0  0  0  0  0  0  0  0  0  0
   37.6180   34.8820   40.1670 H   0  0  0  0  0  0  0  0  0  0  0  0
   38.9520   36.9740   39.7830 H   0  0  0  0  0  0  0  0  0  0  0  0
   41.3500   36.8670   40.0000 H   0  0  0  0  0  0  0  0  0  0  0  0
   42.8860   34.8030   40.6050 O   0  0  0  0  0  0  0  0  0  0  0  0
   44.0000   35.8940   42.5250 C   0  0  0  0  0  3  0  0  0  0  0  0
   43.5950   34.8240   41.7690 C   0  0  0  0  0  0  0  0  0  0  0  0
   43.9440   33.5530   42.2280 C   0  0  0  0  0  0  0  0  0  0  0  0
   43.6960   32.6070   41.7380 H   0  0  0  0  0  0  0  0  0  0  0  0
   44.6670   33.3700   43.3960 C   0  0  0  0  0  0  0  0  0  0  0  0
   45.1380   32.2960   44.0720 N   0  0  0  0  0  0  0  0  0  0  0  0
   45.0090   31.3010   43.7720 H   0  0  0  0  0  0  0  0  0  0  0  0
   45.7850   32.6830   45.1650 C   0  0  0  0  0  0  0  0  0  0  0  0
   46.2710   32.0370   45.9040 H   0  0  0  0  0  0  0  0  0  0  0  0
   45.7630   34.0500   45.2490 C   0  0  0  0  0  3  0  0  0  0  0  0
   45.0620   34.4740   44.1390 C   0  0  0  0  0  0  0  0  0  0  0  0
   44.7240   35.7320   43.6970 C   0  0  0  0  0  3  0  0  0  0  0  0
  1  6  1  0  0  0  0
  2  1  2  0  0  0  0
  2  3  1  0  0  0  0
  3  4  2  0  0  0  0
  4  5  1  0  0  0  0
  5  9  1  0  0  0  0
  6  5  2  0  0  0  0
  7  1  1  0  0  0  0
  8  2  1  0  0  0  0
  9 14  1  0  0  0  0
  9 15  1  1  0  0  0
 10 16  1  0  0  0  0
 10  9  1  0  0  0  0
 11 10  1  0  0  0  0
 11 12  1  0  0  0  0
 12 21  1  0  0  0  0
 12 13  1  0  0  0  0
 13 14  2  0  0  0  0
 13 22  1  0  0  0  0
 14 23  1  0  0  0  0
 17 10  1  0  0  0  0
 18 11  1  0  0  0  0
 19 11  1  0  0  0  0
 20 12  1  0  0  0  0
 23 24  1  0  0  0  0
 25 23  1  0  0  0  0
 26 31  1  0  0  0  0
 26  3  1  0  0  0  0
 27 26  2  0  0  0  0
 28 29  2  0  0  0  0
 28 27  1  0  0  0  0
 29 30  1  0  0  0  0
 30 35  1  0  0  0  0
 30 31  2  0  0  0  0
 32 27  1  0  0  0  0
 33 28  1  0  0  0  0
 34 29  1  0  0  0  0
 35 37  1  0  0  0  0
 36 47  1  0  0  0  0
 37 38  1  0  0  0  0
 37 36  2  0  0  0  0
 38 40  2  0  0  0  0
 39 38  1  0  0  0  0
 40 41  1  0  0  0  0
 40 46  1  0  0  0  0
 41 43  1  0  0  0  0
 42 41  1  0  0  0  0
 43 45  2  0  0  0  0
 43 44  1  0  0  0  0
 46 45  1  0  0  0  0
 47 46  2  0  0  0  0
M  END
>  <minimizedAffinity>
-8.02384949

$$$$

 OpenBabel03252505133D

 47 51  0  0  1  0  0  0  0  0999 V2000
   39.6810   36.0280   40.2990 C   0  0  0  0  0  0  0  0  0  0  0  0
   38.7450   34.9760   40.1460 C   0  0  0  0  0  0  0  0  0  0  0  0
   39.2590   33.6410   40.0250 C   0  0  0  0  0  0  0  0  0  0  0  0
   40.6130   33.4600   40.0610 N   0  0  0  0  0  0  0  0  0  0  0  0
   41.4570   34.4860   40.2070 C   0  0  0  0  0  0  0  0  0  0  0  0
   41.0010   35.7780   40.3270 N   0  0  0  0  0  0  0  0  0  0  0  0
   39.2520   37.0180   40.3880 H   0  0  0  0  0  0  0  0  0  0  0  0
   37.6730   35.1310   40.1190 H   0  0  0  0  0  0  0  0  0  0  0  0
   42.9240   34.2340   40.2360 C   0  0  2  0  0  0  0  0  0  0  0  0
   43.3130   34.0300   38.7880 C   0  0  0  0  0  0  0  0  0  0  0  0
   43.5810   32.6440   38.3760 C   0  0  0  0  0  0  0  0  0  0  0  0
   44.6680   32.1520   39.3250 C   0  0  0  0  0  0  0  0  0  0  0  0
   44.1860   32.0540   40.7120 C   0  0  0  0  0  0  0  0  0  0  0  0
   43.2840   33.1640   41.1220 C   0  0  0  0  0  0  0  0  0  0  0  0
   43.3690   35.1930   40.6030 H   0  0  0  0  0  0  0  0  0  0  0  0
   44.2510   34.6050   38.6210 H   0  0  0  0  0  0  0  0  0  0  0  0
   42.5840   34.4930   38.0810 H   0  0  0  0  0  0  0  0  0  0  0  0
   42.6920   32.0220   38.5230 H   0  0  0  0  0  0  0  0  0  0  0  0
   43.9800   32.6480   37.3640 H   0  0  0  0  0  0  0  0  0  0  0  0
   44.8220   31.0840   39.0110 H   0  0  0  0  0  0  0  0  0  0  0  0
   45.6190   32.6700   39.2010 H   0  0  0  0  0  0  0  0  0  0  0  0
   44.3190   31.3760   41.5130 H   0  0  0  0  0  0  0  0  0  0  0  0
   42.7430   33.1910   42.4370 N   0  0  0  0  0  0  0  0  0  0  0  0
   43.1150   33.8770   43.1490 H   0  0  0  0  0  0  0  0  0  0  0  0
   41.9840   32.6210   42.8800 H   0  0  0  0  0  0  0  0  0  0  0  0
   38.3350   32.5460   39.8700 C   0  0  0  0  0  0  0  0  0  0  0  0
   37.7970   32.3060   38.6570 C   0  0  0  0  0  0  0  0  0  0  0  0
   36.9030   31.2250   38.5680 C   0  0  0  0  0  0  0  0  0  0  0  0
   36.6630   30.5150   39.7360 C   0  0  0  0  0  0  0  0  0  0  0  0
   37.2120   30.7590   40.9670 C   0  0  0  0  0  0  0  0  0  0  0  0
   38.0660   31.8220   40.9670 N   0  0  0  0  0  0  0  0  0  0  0  0
   38.0150   32.8880   37.7800 H   0  0  0  0  0  0  0  0  0  0  0  0
   36.4200   30.9550   37.6360 H   0  0  0  0  0  0  0  0  0  0  0  0
   35.9670   29.6840   39.6330 H   0  0  0  0  0  0  0  0  0  0  0  0
   36.9210   30.0080   42.0760 O   0  0  0  0  0  0  0  0  0  0  0  0
   36.9010   27.5460   42.3100 C   0  0  0  0  0  3  0  0  0  0  0  0
   37.4610   28.7950   42.3850 C   0  0  0  0  0  0  0  0  0  0  0  0
   38.7780   28.8760   42.8420 C   0  0  0  0  0  0  0  0  0  0  0  0
   39.3580   29.7940   42.9560 H   0  0  0  0  0  0  0  0  0  0  0  0
   39.4960   27.7470   43.2050 C   0  0  0  0  0  0  0  0  0  0  0  0
   40.7470   27.5160   43.6690 N   0  0  0  0  0  0  0  0  0  0  0  0
   41.4610   28.2610   43.8480 H   0  0  0  0  0  0  0  0  0  0  0  0
   40.9370   26.2170   43.8630 C   0  0  0  0  0  0  0  0  0  0  0  0
   41.8500   25.7350   44.2320 H   0  0  0  0  0  0  0  0  0  0  0  0
   39.7990   25.5340   43.5290 C   0  0  0  0  0  3  0  0  0  0  0  0
   38.9000   26.4960   43.1180 C   0  0  0  0  0  0  0  0  0  0  0  0
   37.6030   26.4050   42.6690 C   0  0  0  0  0  3  0  0  0  0  0  0
  1  6  1  0  0  0  0
  1  7  1  0  0  0  0
  2  1  2  0  0  0  0
  3  4  2  0  0  0  0
  3  2  1  0  0  0  0
  4  5  1  0  0  0  0
  5  9  1  0  0  0  0
  5  6  2  0  0  0  0
  8  2  1  0  0  0  0
  9 15  1  1  0  0  0
  9 14  1  0  0  0  0
 10  9  1  0  0  0  0
 11 18  1  0  0  0  0
 11 10  1  0  0  0  0
 11 12  1  0  0  0  0
 12 13  1  0  0  0  0
 13 14  2  0  0  0  0
 13 22  1  0  0  0  0
 14 23  1  0  0  0  0
 16 10  1  0  0  0  0
 17 10  1  0  0  0  0
 19 11  1  0  0  0  0
 20 12  1  0  0  0  0
 21 12  1  0  0  0  0
 23 25  1  0  0  0  0
 23 24  1  0  0  0  0
 26  3  1  0  0  0  0
 26 31  1  0  0  0  0
 27 26  2  0  0  0  0
 28 27  1  0  0  0  0
 28 29  2  0  0  0  0
 29 30  1  0  0  0  0
 30 31  2  0  0  0  0
 30 35  1  0  0  0  0
 32 27  1  0  0  0  0
 33 28  1  0  0  0  0
 34 29  1  0  0  0  0
 35 37  1  0  0  0  0
 36 37  2  0  0  0  0
 36 47  1  0  0  0  0
 37 38  1  0  0  0  0
 38 39  1  0  0  0  0
 38 40  2  0  0  0  0
 40 41  1  0  0  0  0
 41 42  1  0  0  0  0
 41 43  1  0  0  0  0
 43 44  1  0  0  0  0
 45 43  2  0  0  0  0
 46 40  1  0  0  0  0
 46 45  1  0  0  0  0
 47 46  2  0  0  0  0
M  END
>  <minimizedAffinity>
-7.61114407

$$$$

 OpenBabel03252505133D

 47 51  0  0  1  0  0  0  0  0999 V2000
   36.1630   25.3110   38.9860 C   0  0  0  0  0  0  0  0  0  0  0  0
   36.2960   26.6070   38.4310 C   0  0  0  0  0  0  0  0  0  0  0  0
   36.8750   27.6280   39.2590 C   0  0  0  0  0  0  0  0  0  0  0  0
   37.2620   27.2960   40.5270 N   0  0  0  0  0  0  0  0  0  0  0  0
   37.1150   26.0560   41.0060 C   0  0  0  0  0  0  0  0  0  0  0  0
   36.5650   25.0530   40.2420 N   0  0  0  0  0  0  0  0  0  0  0  0
   35.7230   24.5710   38.3300 H   0  0  0  0  0  0  0  0  0  0  0  0
   35.9870   26.8600   37.4240 H   0  0  0  0  0  0  0  0  0  0  0  0
   37.5490   25.7490   42.3960 C   0  0  2  0  0  0  0  0  0  0  0  0
   37.7810   27.0990   43.0390 C   0  0  0  0  0  0  0  0  0  0  0  0
   39.1840   27.5030   43.2150 C   0  0  0  0  0  0  0  0  0  0  0  0
   39.8210   26.3780   44.0240 C   0  0  0  0  0  0  0  0  0  0  0  0
   39.8760   25.1170   43.2660 C   0  0  0  0  0  0  0  0  0  0  0  0
   38.6670   24.8510   42.4410 C   0  0  0  0  0  0  0  0  0  0  0  0
   36.6580   25.2660   42.8710 H   0  0  0  0  0  0  0  0  0  0  0  0
   37.3250   27.0570   44.0530 H   0  0  0  0  0  0  0  0  0  0  0  0
   37.2210   27.9180   42.5260 H   0  0  0  0  0  0  0  0  0  0  0  0
   39.6920   27.5570   42.2470 H   0  0  0  0  0  0  0  0  0  0  0  0
   39.2170   28.4150   43.8060 H   0  0  0  0  0  0  0  0  0  0  0  0
   40.8950   26.6960   44.1080 H   0  0  0  0  0  0  0  0  0  0  0  0
   39.4240   26.2930   45.0360 H   0  0  0  0  0  0  0  0  0  0  0  0
   40.5750   24.3320   43.1540 H   0  0  0  0  0  0  0  0  0  0  0  0
   38.5890   23.6670   41.6550 N   0  0  0  0  0  0  0  0  0  0  0  0
   37.9660   22.8710   41.9570 H   0  0  0  0  0  0  0  0  0  0  0  0
   39.0670   23.4040   40.7600 H   0  0  0  0  0  0  0  0  0  0  0  0
   37.0280   28.9590   38.7260 C   0  0  0  0  0  0  0  0  0  0  0  0
   37.1470   29.1230   37.3930 C   0  0  0  0  0  0  0  0  0  0  0  0
   37.2940   30.4440   36.9330 C   0  0  0  0  0  0  0  0  0  0  0  0
   37.3020   31.4430   37.8960 C   0  0  0  0  0  0  0  0  0  0  0  0
   37.1800   31.2740   39.2490 C   0  0  0  0  0  0  0  0  0  0  0  0
   37.0420   29.9660   39.6110 N   0  0  0  0  0  0  0  0  0  0  0  0
   37.1350   28.3130   36.6860 H   0  0  0  0  0  0  0  0  0  0  0  0
   37.3980   30.6760   35.8790 H   0  0  0  0  0  0  0  0  0  0  0  0
   37.4170   32.4540   37.5070 H   0  0  0  0  0  0  0  0  0  0  0  0
   37.1990   32.3180   40.1370 O   0  0  0  0  0  0  0  0  0  0  0  0
   38.0820   34.6220   39.9620 C   0  0  0  0  0  3  0  0  0  0  0  0
   38.1630   33.2780   40.2220 C   0  0  0  0  0  0  0  0  0  0  0  0
   39.4010   32.7850   40.6360 C   0  0  0  0  0  0  0  0  0  0  0  0
   39.6240   31.7430   40.8800 H   0  0  0  0  0  0  0  0  0  0  0  0
   40.5060   33.6090   40.7820 C   0  0  0  0  0  0  0  0  0  0  0  0
   41.7940   33.4270   41.1550 N   0  0  0  0  0  0  0  0  0  0  0  0
   42.2100   32.5050   41.4280 H   0  0  0  0  0  0  0  0  0  0  0  0
   42.4540   34.5790   41.1250 C   0  0  0  0  0  0  0  0  0  0  0  0
   43.5080   34.7390   41.3760 H   0  0  0  0  0  0  0  0  0  0  0  0
   41.6080   35.5780   40.7240 C   0  0  0  0  0  3  0  0  0  0  0  0
   40.3900   34.9660   40.5110 C   0  0  0  0  0  0  0  0  0  0  0  0
   39.1760   35.4640   40.1020 C   0  0  0  0  0  3  0  0  0  0  0  0
  1  6  1  0  0  0  0
  2  1  2  0  0  0  0
  2  3  1  0  0  0  0
  3  4  2  0  0  0  0
  4  5  1  0  0  0  0
  5  9  1  0  0  0  0
  6  5  2  0  0  0  0
  7  1  1  0  0  0  0
  8  2  1  0  0  0  0
  9 14  1  0  0  0  0
  9 15  1  1  0  0  0
  9 10  1  0  0  0  0
 10 11  1  0  0  0  0
 10 16  1  0  0  0  0
 11 19  1  0  0  0  0
 11 12  1  0  0  0  0
 12 20  1  0  0  0  0
 12 21  1  0  0  0  0
 13 12  1  0  0  0  0
 14 13  2  0  0  0  0
 17 10  1  0  0  0  0
 18 11  1  0  0  0  0
 22 13  1  0  0  0  0
 23 24  1  0  0  0  0
 23 14  1  0  0  0  0
 25 23  1  0  0  0  0
 26  3  1  0  0  0  0
 26 31  1  0  0  0  0
 27 26  2  0  0  0  0
 28 27  1  0  0  0  0
 28 29  2  0  0  0  0
 29 30  1  0  0  0  0
 30 31  2  0  0  0  0
 30 35  1  0  0  0  0
 32 27  1  0  0  0  0
 33 28  1  0  0  0  0
 34 29  1  0  0  0  0
 35 37  1  0  0  0  0
 36 47  2  0  0  0  0
 36 37  1  0  0  0  0
 37 38  2  0  0  0  0
 38 40  1  0  0  0  0
 38 39  1  0  0  0  0
 40 41  1  0  0  0  0
 41 42  1  0  0  0  0
 43 41  1  0  0  0  0
 43 44  1  0  0  0  0
 45 43  2  0  0  0  0
 46 45  1  0  0  0  0
 46 40  2  0  0  0  0
 47 46  1  0  0  0  0
M  END
>  <minimizedAffinity>
-7.42740822

$$$$

 OpenBabel03252505133D

 47 51  0  0  1  0  0  0  0  0999 V2000
   40.4760   35.6970   40.7150 C   0  0  0  0  0  0  0  0  0  0  0  0
   39.3890   34.8180   40.4910 C   0  0  0  0  0  0  0  0  0  0  0  0
   39.6750   33.4130   40.4160 C   0  0  0  0  0  0  0  0  0  0  0  0
   40.9710   33.0040   40.5620 N   0  0  0  0  0  0  0  0  0  0  0  0
   41.9640   33.8740   40.7720 C   0  0  0  0  0  0  0  0  0  0  0  0
   41.7280   35.2270   40.8510 N   0  0  0  0  0  0  0  0  0  0  0  0
   40.2170   36.7470   40.7660 H   0  0  0  0  0  0  0  0  0  0  0  0
   38.3650   35.1520   40.3770 H   0  0  0  0  0  0  0  0  0  0  0  0
   43.3600   33.3770   40.9200 C   0  0  2  0  0  0  0  0  0  0  0  0
   43.5960   33.3210   42.4140 C   0  0  0  0  0  0  0  0  0  0  0  0
   44.4380   34.3860   42.9790 C   0  0  0  0  0  0  0  0  0  0  0  0
   45.7470   34.3100   42.1990 C   0  0  0  0  0  0  0  0  0  0  0  0
   45.5670   34.6720   40.7840 C   0  0  0  0  0  0  0  0  0  0  0  0
   44.3080   34.1580   40.1810 C   0  0  0  0  0  0  0  0  0  0  0  0
   43.3320   32.3340   40.5150 H   0  0  0  0  0  0  0  0  0  0  0  0
   44.1070   32.3560   42.6250 H   0  0  0  0  0  0  0  0  0  0  0  0
   42.6440   33.2540   42.9950 H   0  0  0  0  0  0  0  0  0  0  0  0
   43.9890   35.3680   42.7970 H   0  0  0  0  0  0  0  0  0  0  0  0
   44.6440   34.1570   44.0230 H   0  0  0  0  0  0  0  0  0  0  0  0
   46.3510   35.1560   42.6250 H   0  0  0  0  0  0  0  0  0  0  0  0
   46.3030   33.3890   42.3740 H   0  0  0  0  0  0  0  0  0  0  0  0
   46.1180   35.2210   40.0680 H   0  0  0  0  0  0  0  0  0  0  0  0
   44.0070   34.4390   38.8190 N   0  0  0  0  0  0  0  0  0  0  0  0
   44.0960   33.6810   38.0890 H   0  0  0  0  0  0  0  0  0  0  0  0
   43.6860   35.3210   38.3530 H   0  0  0  0  0  0  0  0  0  0  0  0
   38.5930   32.4880   40.1900 C   0  0  0  0  0  0  0  0  0  0  0  0
   37.9360   32.5190   39.0130 C   0  0  0  0  0  0  0  0  0  0  0  0
   36.8890   31.5940   38.8520 C   0  0  0  0  0  0  0  0  0  0  0  0
   36.6380   30.7440   39.9190 C   0  0  0  0  0  0  0  0  0  0  0  0
   37.3070   30.7130   41.1140 C   0  0  0  0  0  0  0  0  0  0  0  0
   38.3040   31.6400   41.1890 N   0  0  0  0  0  0  0  0  0  0  0  0
   38.1700   33.2010   38.2150 H   0  0  0  0  0  0  0  0  0  0  0  0
   36.3030   31.5440   37.9410 H   0  0  0  0  0  0  0  0  0  0  0  0
   35.8220   30.0400   39.7620 H   0  0  0  0  0  0  0  0  0  0  0  0
   36.9940   29.8390   42.1220 O   0  0  0  0  0  0  0  0  0  0  0  0
   38.7590   28.3880   43.0700 C   0  0  0  0  0  3  0  0  0  0  0  0
   37.6100   28.6480   42.3680 C   0  0  0  0  0  0  0  0  0  0  0  0
   36.9480   27.5550   41.8070 C   0  0  0  0  0  0  0  0  0  0  0  0
   36.0250   27.5990   41.2220 H   0  0  0  0  0  0  0  0  0  0  0  0
   37.4210   26.2600   41.9490 C   0  0  0  0  0  0  0  0  0  0  0  0
   37.0110   25.0390   41.5330 N   0  0  0  0  0  0  0  0  0  0  0  0
   36.1510   24.8640   40.9610 H   0  0  0  0  0  0  0  0  0  0  0  0
   37.8500   24.0990   41.9530 C   0  0  0  0  0  0  0  0  0  0  0  0
   37.7740   23.0220   41.7700 H   0  0  0  0  0  0  0  0  0  0  0  0
   38.8610   24.6790   42.6720 C   0  0  0  0  0  3  0  0  0  0  0  0
   38.5880   26.0310   42.6660 C   0  0  0  0  0  0  0  0  0  0  0  0
   39.2500   27.1000   43.2240 C   0  0  0  0  0  3  0  0  0  0  0  0
  1  7  1  0  0  0  0
  1  6  1  0  0  0  0
  2  1  2  0  0  0  0
  3  2  1  0  0  0  0
  3  4  2  0  0  0  0
  4  5  1  0  0  0  0
  5  6  2  0  0  0  0
  5  9  1  0  0  0  0
  8  2  1  0  0  0  0
  9 15  1  6  0  0  0
  9 10  1  0  0  0  0
 10 16  1  0  0  0  0
 10 11  1  0  0  0  0
 10 17  1  0  0  0  0
 11 19  1  0  0  0  0
 12 21  1  0  0  0  0
 12 20  1  0  0  0  0
 12 11  1  0  0  0  0
 13 12  1  0  0  0  0
 14 13  2  0  0  0  0
 14  9  1  0  0  0  0
 18 11  1  0  0  0  0
 22 13  1  0  0  0  0
 23 14  1  0  0  0  0
 24 23  1  0  0  0  0
 25 23  1  0  0  0  0
 26  3  1  0  0  0  0
 26 31  1  0  0  0  0
 27 26  2  0  0  0  0
 28 27  1  0  0  0  0
 28 29  2  0  0  0  0
 29 30  1  0  0  0  0
 30 31  2  0  0  0  0
 30 35  1  0  0  0  0
 32 27  1  0  0  0  0
 33 28  1  0  0  0  0
 34 29  1  0  0  0  0
 35 37  1  0  0  0  0
 36 47  1  0  0  0  0
 37 36  2  0  0  0  0
 38 40  2  0  0  0  0
 38 37  1  0  0  0  0
 39 38  1  0  0  0  0
 40 46  1  0  0  0  0
 41 40  1  0  0  0  0
 41 43  1  0  0  0  0
 42 41  1  0  0  0  0
 43 45  2  0  0  0  0
 44 43  1  0  0  0  0
 46 45  1  0  0  0  0
 46 47  2  0  0  0  0
M  END
>  <minimizedAffinity>
-7.42573309

$$$$

 OpenBabel03252505133D

 47 51  0  0  1  0  0  0  0  0999 V2000
   35.1350   28.3520   37.1280 C   0  0  0  0  0  0  0  0  0  0  0  0
   35.4900   27.2460   37.9370 C   0  0  0  0  0  0  0  0  0  0  0  0
   36.2830   27.5040   39.1060 C   0  0  0  0  0  0  0  0  0  0  0  0
   36.6500   28.7930   39.3710 N   0  0  0  0  0  0  0  0  0  0  0  0
   36.2900   29.8050   38.5750 C   0  0  0  0  0  0  0  0  0  0  0  0
   35.5300   29.5960   37.4480 N   0  0  0  0  0  0  0  0  0  0  0  0
   34.5370   28.1150   36.2580 H   0  0  0  0  0  0  0  0  0  0  0  0
   35.1930   26.2270   37.7180 H   0  0  0  0  0  0  0  0  0  0  0  0
   36.7200   31.1920   38.9080 C   0  0  2  0  0  0  0  0  0  0  0  0
   37.9710   31.4190   38.0860 C   0  0  0  0  0  0  0  0  0  0  0  0
   39.2460   31.3740   38.8170 C   0  0  0  0  0  0  0  0  0  0  0  0
   39.1040   32.4130   39.9240 C   0  0  0  0  0  0  0  0  0  0  0  0
   38.0820   32.0300   40.9110 C   0  0  0  0  0  0  0  0  0  0  0  0
   36.8710   31.4010   40.3190 C   0  0  0  0  0  0  0  0  0  0  0  0
   35.9000   31.8440   38.5150 H   0  0  0  0  0  0  0  0  0  0  0  0
   37.8860   32.4350   37.6420 H   0  0  0  0  0  0  0  0  0  0  0  0
   38.0270   30.7420   37.1990 H   0  0  0  0  0  0  0  0  0  0  0  0
   39.3860   30.3940   39.2850 H   0  0  0  0  0  0  0  0  0  0  0  0
   40.0460   31.6870   38.1490 H   0  0  0  0  0  0  0  0  0  0  0  0
   40.0740   32.3280   40.4840 H   0  0  0  0  0  0  0  0  0  0  0  0
   39.0290   33.4350   39.5520 H   0  0  0  0  0  0  0  0  0  0  0  0
   37.9870   32.0890   41.9630 H   0  0  0  0  0  0  0  0  0  0  0  0
   35.8050   30.9790   41.1620 N   0  0  0  0  0  0  0  0  0  0  0  0
   34.9070   31.5340   41.1980 H   0  0  0  0  0  0  0  0  0  0  0  0
   35.7240   30.1590   41.8100 H   0  0  0  0  0  0  0  0  0  0  0  0
   36.6610   26.4010   39.9540 C   0  0  0  0  0  0  0  0  0  0  0  0
   36.3270   25.1470   39.5890 C   0  0  0  0  0  0  0  0  0  0  0  0
   36.7220   24.1130   40.4570 C   0  0  0  0  0  0  0  0  0  0  0  0
   37.4150   24.4870   41.5990 C   0  0  0  0  0  0  0  0  0  0  0  0
   37.7540   25.7620   41.9670 C   0  0  0  0  0  0  0  0  0  0  0  0
   37.3350   26.7030   41.0740 N   0  0  0  0  0  0  0  0  0  0  0  0
   35.7860   24.9080   38.6910 H   0  0  0  0  0  0  0  0  0  0  0  0
   36.4980   23.0730   40.2490 H   0  0  0  0  0  0  0  0  0  0  0  0
   37.7070   23.6630   42.2490 H   0  0  0  0  0  0  0  0  0  0  0  0
   38.4420   26.0480   43.1180 O   0  0  0  0  0  0  0  0  0  0  0  0
   40.2580   27.7270   43.1890 C   0  0  0  0  0  3  0  0  0  0  0  0
   39.7400   26.4570   43.1930 C   0  0  0  0  0  0  0  0  0  0  0  0
   40.6480   25.4010   43.2870 C   0  0  0  0  0  0  0  0  0  0  0  0
   40.3920   24.3380   43.3030 H   0  0  0  0  0  0  0  0  0  0  0  0
   42.0150   25.6160   43.3740 C   0  0  0  0  0  0  0  0  0  0  0  0
   43.1060   24.8210   43.4720 N   0  0  0  0  0  0  0  0  0  0  0  0
   43.0770   23.7740   43.5020 H   0  0  0  0  0  0  0  0  0  0  0  0
   44.2120   25.5540   43.5240 C   0  0  0  0  0  0  0  0  0  0  0  0
   45.2400   25.1850   43.6060 H   0  0  0  0  0  0  0  0  0  0  0  0
   43.8820   26.8810   43.4610 C   0  0  0  0  0  3  0  0  0  0  0  0
   42.5060   26.9150   43.3660 C   0  0  0  0  0  0  0  0  0  0  0  0
   41.6210   27.9630   43.2740 C   0  0  0  0  0  3  0  0  0  0  0  0
  1  6  2  0  0  0  0
  1  2  1  0  0  0  0
  2  3  2  0  0  0  0
  3  4  1  0  0  0  0
  3 26  1  0  0  0  0
  5  9  1  0  0  0  0
  5  4  2  0  0  0  0
  6  5  1  0  0  0  0
  7  1  1  0  0  0  0
  8  2  1  0  0  0  0
  9 15  1  6  0  0  0
  9 14  1  0  0  0  0
 10 11  1  0  0  0  0
 10  9  1  0  0  0  0
 11 18  1  0  0  0  0
 11 12  1  0  0  0  0
 12 20  1  0  0  0  0
 12 13  1  0  0  0  0
 13 22  1  0  0  0  0
 14 13  2  0  0  0  0
 14 23  1  0  0  0  0
 16 10  1  0  0  0  0
 17 10  1  0  0  0  0
 19 11  1  0  0  0  0
 21 12  1  0  0  0  0
 23 24  1  0  0  0  0
 23 25  1  0  0  0  0
 26 31  1  0  0  0  0
 27 26  2  0  0  0  0
 27 28  1  0  0  0  0
 28 29  2  0  0  0  0
 29 30  1  0  0  0  0
 29 34  1  0  0  0  0
 30 35  1  0  0  0  0
 31 30  2  0  0  0  0
 32 27  1  0  0  0  0
 33 28  1  0  0  0  0
 35 37  1  0  0  0  0
 36 37  2  0  0  0  0
 36 47  1  0  0  0  0
 37 38  1  0  0  0  0
 38 39  1  0  0  0  0
 38 40  2  0  0  0  0
 40 41  1  0  0  0  0
 41 42  1  0  0  0  0
 41 43  1  0  0  0  0
 43 44  1  0  0  0  0
 45 43  2  0  0  0  0
 46 40  1  0  0  0  0
 46 45  1  0  0  0  0
 47 46  2  0  0  0  0
M  END
>  <minimizedAffinity>
-7.27953339

$$$$

 OpenBabel03252505133D

 47 51  0  0  1  0  0  0  0  0999 V2000
   36.7850   30.2600   37.9720 C   0  0  0  0  0  0  0  0  0  0  0  0
   37.3880   31.5150   38.2300 C   0  0  0  0  0  0  0  0  0  0  0  0
   38.2310   31.6230   39.3870 C   0  0  0  0  0  0  0  0  0  0  0  0
   38.4030   30.5170   40.1720 N   0  0  0  0  0  0  0  0  0  0  0  0
   37.8110   29.3530   39.8870 C   0  0  0  0  0  0  0  0  0  0  0  0
   36.9980   29.2120   38.7860 N   0  0  0  0  0  0  0  0  0  0  0  0
   36.1590   30.2210   37.0900 H   0  0  0  0  0  0  0  0  0  0  0  0
   37.2450   32.3860   37.6010 H   0  0  0  0  0  0  0  0  0  0  0  0
   38.0290   28.1790   40.7770 C   0  0  2  0  0  0  0  0  0  0  0  0
   36.9520   28.2890   41.8350 C   0  0  0  0  0  0  0  0  0  0  0  0
   37.3880   28.7540   43.1610 C   0  0  0  0  0  0  0  0  0  0  0  0
   38.4900   27.7840   43.5760 C   0  0  0  0  0  0  0  0  0  0  0  0
   39.6790   27.9010   42.7180 C   0  0  0  0  0  0  0  0  0  0  0  0
   39.3710   28.1060   41.2770 C   0  0  0  0  0  0  0  0  0  0  0  0
   37.8170   27.2910   40.1300 H   0  0  0  0  0  0  0  0  0  0  0  0
   36.5280   27.2700   41.9720 H   0  0  0  0  0  0  0  0  0  0  0  0
   36.0810   28.9000   41.4960 H   0  0  0  0  0  0  0  0  0  0  0  0
   37.8240   29.7560   43.0920 H   0  0  0  0  0  0  0  0  0  0  0  0
   36.5600   28.6560   43.8590 H   0  0  0  0  0  0  0  0  0  0  0  0
   38.8270   28.1870   44.5700 H   0  0  0  0  0  0  0  0  0  0  0  0
   38.1340   26.7670   43.7390 H   0  0  0  0  0  0  0  0  0  0  0  0
   40.7260   27.8770   42.8680 H   0  0  0  0  0  0  0  0  0  0  0  0
   40.4300   28.2370   40.3350 N   0  0  0  0  0  0  0  0  0  0  0  0
   40.6550   27.4430   39.6770 H   0  0  0  0  0  0  0  0  0  0  0  0
   41.0870   29.0310   40.1470 H   0  0  0  0  0  0  0  0  0  0  0  0
   38.8620   32.8850   39.6800 C   0  0  0  0  0  0  0  0  0  0  0  0
   38.1010   33.9230   40.0820 C   0  0  0  0  0  0  0  0  0  0  0  0
   38.7730   35.1290   40.3510 C   0  0  0  0  0  0  0  0  0  0  0  0
   40.1500   35.1290   40.1760 C   0  0  0  0  0  0  0  0  0  0  0  0
   40.9210   34.0730   39.7690 C   0  0  0  0  0  0  0  0  0  0  0  0
   40.1940   32.9450   39.5290 N   0  0  0  0  0  0  0  0  0  0  0  0
   37.0340   33.8720   40.2020 H   0  0  0  0  0  0  0  0  0  0  0  0
   38.2470   36.0180   40.6790 H   0  0  0  0  0  0  0  0  0  0  0  0
   40.6390   36.0770   40.3940 H   0  0  0  0  0  0  0  0  0  0  0  0
   42.2810   34.1560   39.6190 O   0  0  0  0  0  0  0  0  0  0  0  0
   44.3230   33.3910   40.7860 C   0  0  0  0  0  3  0  0  0  0  0  0
   43.1980   34.1590   40.6280 C   0  0  0  0  0  0  0  0  0  0  0  0
   42.9190   35.0920   41.6270 C   0  0  0  0  0  0  0  0  0  0  0  0
   42.0640   35.7730   41.6440 H   0  0  0  0  0  0  0  0  0  0  0  0
   43.7370   35.2440   42.7360 C   0  0  0  0  0  0  0  0  0  0  0  0
   43.7260   36.0360   43.8330 N   0  0  0  0  0  0  0  0  0  0  0  0
   42.9940   36.7570   44.0390 H   0  0  0  0  0  0  0  0  0  0  0  0
   44.7710   35.7710   44.6080 C   0  0  0  0  0  0  0  0  0  0  0  0
   45.0230   36.2540   45.5580 H   0  0  0  0  0  0  0  0  0  0  0  0
   45.5210   34.7770   44.0380 C   0  0  0  0  0  3  0  0  0  0  0  0
   44.8690   34.4500   42.8670 C   0  0  0  0  0  0  0  0  0  0  0  0
   45.1550   33.5280   41.8880 C   0  0  0  0  0  3  0  0  0  0  0  0
  1  2  2  0  0  0  0
  1  6  1  0  0  0  0
  2  3  1  0  0  0  0
  3 26  1  0  0  0  0
  3  4  2  0  0  0  0
  5  4  1  0  0  0  0
  5  9  1  0  0  0  0
  6  5  2  0  0  0  0
  7  1  1  0  0  0  0
  8  2  1  0  0  0  0
  9 15  1  6  0  0  0
  9 14  1  0  0  0  0
  9 10  1  0  0  0  0
 10 16  1  0  0  0  0
 10 11  1  0  0  0  0
 11 12  1  0  0  0  0
 11 19  1  0  0  0  0
 12 21  1  0  0  0  0
 12 20  1  0  0  0  0
 13 22  1  0  0  0  0
 13 12  1  0  0  0  0
 14 13  2  0  0  0  0
 17 10  1  0  0  0  0
 18 11  1  0  0  0  0
 23 14  1  0  0  0  0
 24 23  1  0  0  0  0
 25 23  1  0  0  0  0
 26 27  1  0  0  0  0
 27 32  1  0  0  0  0
 27 28  2  0  0  0  0
 28 33  1  0  0  0  0
 29 28  1  0  0  0  0
 29 34  1  0  0  0  0
 30 29  2  0  0  0  0
 31 26  2  0  0  0  0
 31 30  1  0  0  0  0
 35 30  1  0  0  0  0
 35 37  1  0  0  0  0
 36 47  1  0  0  0  0
 37 36  2  0  0  0  0
 37 38  1  0  0  0  0
 38 39  1  0  0  0  0
 38 40  2  0  0  0  0
 40 46  1  0  0  0  0
 40 41  1  0  0  0  0
 41 42  1  0  0  0  0
 41 43  1  0  0  0  0
 43 44  1  0  0  0  0
 45 43  2  0  0  0  0
 46 45  1  0  0  0  0
 47 46  2  0  0  0  0
M  END
>  <minimizedAffinity>
-7.19571352

$$$$

 OpenBabel03252505133D

 47 51  0  0  1  0  0  0  0  0999 V2000
   37.2660   31.5580   40.4710 C   0  0  0  0  0  0  0  0  0  0  0  0
   36.7960   31.3020   39.1610 C   0  0  0  0  0  0  0  0  0  0  0  0
   36.7790   29.9370   38.7150 C   0  0  0  0  0  0  0  0  0  0  0  0
   37.2170   28.9670   39.5720 N   0  0  0  0  0  0  0  0  0  0  0  0
   37.6530   29.2600   40.8020 C   0  0  0  0  0  0  0  0  0  0  0  0
   37.6820   30.5550   41.2640 N   0  0  0  0  0  0  0  0  0  0  0  0
   37.2620   32.5990   40.7680 H   0  0  0  0  0  0  0  0  0  0  0  0
   36.4510   32.0790   38.4890 H   0  0  0  0  0  0  0  0  0  0  0  0
   38.1230   28.1650   41.6960 C   0  0  2  0  0  0  0  0  0  0  0  0
   38.2610   26.9590   40.7930 C   0  0  0  0  0  0  0  0  0  0  0  0
   37.2110   25.9360   40.9090 C   0  0  0  0  0  0  0  0  0  0  0  0
   37.2060   25.5390   42.3810 C   0  0  0  0  0  0  0  0  0  0  0  0
   36.7640   26.6440   43.2480 C   0  0  0  0  0  0  0  0  0  0  0  0
   37.2740   27.9800   42.8370 C   0  0  0  0  0  0  0  0  0  0  0  0
   39.1400   28.4900   42.0300 H   0  0  0  0  0  0  0  0  0  0  0  0
   39.2240   26.4670   41.0550 H   0  0  0  0  0  0  0  0  0  0  0  0
   38.3870   27.2410   39.7200 H   0  0  0  0  0  0  0  0  0  0  0  0
   36.2320   26.3620   40.6670 H   0  0  0  0  0  0  0  0  0  0  0  0
   37.4970   25.0680   40.3180 H   0  0  0  0  0  0  0  0  0  0  0  0
   36.3720   24.7890   42.4450 H   0  0  0  0  0  0  0  0  0  0  0  0
   38.1210   25.0390   42.6990 H   0  0  0  0  0  0  0  0  0  0  0  0
   36.1600   26.7320   44.1110 H   0  0  0  0  0  0  0  0  0  0  0  0
   36.9200   29.1360   43.5860 N   0  0  0  0  0  0  0  0  0  0  0  0
   37.6310   29.5970   44.2170 H   0  0  0  0  0  0  0  0  0  0  0  0
   36.0200   29.6700   43.6430 H   0  0  0  0  0  0  0  0  0  0  0  0
   36.3050   29.6390   37.3870 C   0  0  0  0  0  0  0  0  0  0  0  0
   37.1780   29.6510   36.3590 C   0  0  0  0  0  0  0  0  0  0  0  0
   36.6560   29.3540   35.0870 C   0  0  0  0  0  0  0  0  0  0  0  0
   35.2970   29.0790   35.0180 C   0  0  0  0  0  0  0  0  0  0  0  0
   34.4130   29.0660   36.0640 C   0  0  0  0  0  0  0  0  0  0  0  0
   34.9980   29.3640   37.2590 N   0  0  0  0  0  0  0  0  0  0  0  0
   38.2250   29.8720   36.4650 H   0  0  0  0  0  0  0  0  0  0  0  0
   37.2790   29.3390   34.2010 H   0  0  0  0  0  0  0  0  0  0  0  0
   34.9260   28.8520   34.0200 H   0  0  0  0  0  0  0  0  0  0  0  0
   33.0800   28.7840   35.9110 O   0  0  0  0  0  0  0  0  0  0  0  0
   31.5120   30.5790   35.2500 C   0  0  0  0  0  3  0  0  0  0  0  0
   32.0510   29.6550   36.1080 C   0  0  0  0  0  0  0  0  0  0  0  0
   31.4860   29.5660   37.3820 C   0  0  0  0  0  0  0  0  0  0  0  0
   31.8030   28.8830   38.1740 H   0  0  0  0  0  0  0  0  0  0  0  0
   30.4280   30.3710   37.7710 C   0  0  0  0  0  0  0  0  0  0  0  0
   29.6950   30.5100   38.9000 N   0  0  0  0  0  0  0  0  0  0  0  0
   29.8380   29.9510   39.7750 H   0  0  0  0  0  0  0  0  0  0  0  0
   28.7730   31.4530   38.7430 C   0  0  0  0  0  0  0  0  0  0  0  0
   28.0380   31.7820   39.4850 H   0  0  0  0  0  0  0  0  0  0  0  0
   28.8680   31.9780   37.4820 C   0  0  0  0  0  3  0  0  0  0  0  0
   29.9050   31.2970   36.8780 C   0  0  0  0  0  0  0  0  0  0  0  0
   30.4530   31.3950   35.6200 C   0  0  0  0  0  3  0  0  0  0  0  0
  1  7  1  0  0  0  0
  1  6  1  0  0  0  0
  2  1  2  0  0  0  0
  3  2  1  0  0  0  0
  3  4  2  0  0  0  0
  4  5  1  0  0  0  0
  5  6  2  0  0  0  0
  5  9  1  0  0  0  0
  8  2  1  0  0  0  0
  9 15  1  1  0  0  0
  9 14  1  0  0  0  0
 10 11  1  0  0  0  0
 10 16  1  0  0  0  0
 10  9  1  0  0  0  0
 11 12  1  0  0  0  0
 12 20  1  0  0  0  0
 12 21  1  0  0  0  0
 12 13  1  0  0  0  0
 13 22  1  0  0  0  0
 14 13  2  0  0  0  0
 14 23  1  0  0  0  0
 17 10  1  0  0  0  0
 18 11  1  0  0  0  0
 19 11  1  0  0  0  0
 23 25  1  0  0  0  0
 23 24  1  0  0  0  0
 26  3  1  0  0  0  0
 27 32  1  0  0  0  0
 27 26  2  0  0  0  0
 28 27  1  0  0  0  0
 29 28  2  0  0  0  0
 29 30  1  0  0  0  0
 30 31  2  0  0  0  0
 31 26  1  0  0  0  0
 33 28  1  0  0  0  0
 34 29  1  0  0  0  0
 35 30  1  0  0  0  0
 35 37  1  0  0  0  0
 36 47  2  0  0  0  0
 36 37  1  0  0  0  0
 37 38  2  0  0  0  0
 38 40  1  0  0  0  0
 38 39  1  0  0  0  0
 40 41  1  0  0  0  0
 41 42  1  0  0  0  0
 43 41  1  0  0  0  0
 43 44  1  0  0  0  0
 45 43  2  0  0  0  0
 46 45  1  0  0  0  0
 46 40  2  0  0  0  0
 47 46  1  0  0  0  0
M  END
>  <minimizedAffinity>
-7.03347588

$$$$

 OpenBabel03252505133D

 47 51  0  0  1  0  0  0  0  0999 V2000
   36.7080   30.9380   39.4100 C   0  0  0  0  0  0  0  0  0  0  0  0
   37.4460   32.1300   39.2160 C   0  0  0  0  0  0  0  0  0  0  0  0
   38.4410   32.4630   40.1960 C   0  0  0  0  0  0  0  0  0  0  0  0
   38.6200   31.6180   41.2550 N   0  0  0  0  0  0  0  0  0  0  0  0
   37.8970   30.5020   41.3940 C   0  0  0  0  0  0  0  0  0  0  0  0
   36.9360   30.1500   40.4760 N   0  0  0  0  0  0  0  0  0  0  0  0
   35.9690   30.7230   38.6490 H   0  0  0  0  0  0  0  0  0  0  0  0
   37.2960   32.7930   38.3730 H   0  0  0  0  0  0  0  0  0  0  0  0
   38.1290   29.6170   42.5690 C   0  0  2  0  0  0  0  0  0  0  0  0
   39.6350   29.5250   42.6950 C   0  0  0  0  0  0  0  0  0  0  0  0
   40.2490   28.2660   42.2470 C   0  0  0  0  0  0  0  0  0  0  0  0
   39.5490   27.1760   43.0520 C   0  0  0  0  0  0  0  0  0  0  0  0
   38.1250   27.0570   42.6980 C   0  0  0  0  0  0  0  0  0  0  0  0
   37.4480   28.3600   42.4590 C   0  0  0  0  0  0  0  0  0  0  0  0
   37.7240   30.1920   43.4400 H   0  0  0  0  0  0  0  0  0  0  0  0
   39.8760   29.6380   43.7750 H   0  0  0  0  0  0  0  0  0  0  0  0
   40.1570   30.3850   42.2110 H   0  0  0  0  0  0  0  0  0  0  0  0
   40.0400   28.0940   41.1860 H   0  0  0  0  0  0  0  0  0  0  0  0
   41.3030   28.2720   42.5160 H   0  0  0  0  0  0  0  0  0  0  0  0
   40.0100   26.2290   42.6610 H   0  0  0  0  0  0  0  0  0  0  0  0
   39.7570   27.2250   44.1210 H   0  0  0  0  0  0  0  0  0  0  0  0
   37.4430   26.2600   42.5640 H   0  0  0  0  0  0  0  0  0  0  0  0
   36.0700   28.3900   42.1050 N   0  0  0  0  0  0  0  0  0  0  0  0
   35.3470   28.6940   42.8120 H   0  0  0  0  0  0  0  0  0  0  0  0
   35.5850   28.1510   41.2070 H   0  0  0  0  0  0  0  0  0  0  0  0
   39.2120   33.6700   40.0290 C   0  0  0  0  0  0  0  0  0  0  0  0
   38.6200   34.8630   40.2410 C   0  0  0  0  0  0  0  0  0  0  0  0
   39.4220   36.0040   40.0620 C   0  0  0  0  0  0  0  0  0  0  0  0
   40.7410   35.7870   39.6870 C   0  0  0  0  0  0  0  0  0  0  0  0
   41.3400   34.5740   39.4740 C   0  0  0  0  0  0  0  0  0  0  0  0
   40.4950   33.5220   39.6670 N   0  0  0  0  0  0  0  0  0  0  0  0
   37.5910   34.9780   40.5320 H   0  0  0  0  0  0  0  0  0  0  0  0
   39.0360   37.0050   40.2090 H   0  0  0  0  0  0  0  0  0  0  0  0
   41.3350   36.6910   39.5580 H   0  0  0  0  0  0  0  0  0  0  0  0
   42.6530   34.4460   39.1010 O   0  0  0  0  0  0  0  0  0  0  0  0
   43.9550   32.4440   39.7450 C   0  0  0  0  0  3  0  0  0  0  0  0
   43.3070   33.2740   38.8660 C   0  0  0  0  0  0  0  0  0  0  0  0
   43.2970   32.8940   37.5230 C   0  0  0  0  0  0  0  0  0  0  0  0
   42.8250   33.4470   36.7070 H   0  0  0  0  0  0  0  0  0  0  0  0
   43.9100   31.7300   37.0870 C   0  0  0  0  0  0  0  0  0  0  0  0
   44.0630   31.1180   35.8900 N   0  0  0  0  0  0  0  0  0  0  0  0
   43.6860   31.4840   34.9830 H   0  0  0  0  0  0  0  0  0  0  0  0
   44.7550   29.9930   36.0270 C   0  0  0  0  0  0  0  0  0  0  0  0
   45.0310   29.2910   35.2330 H   0  0  0  0  0  0  0  0  0  0  0  0
   45.0890   29.8210   37.3440 C   0  0  0  0  0  3  0  0  0  0  0  0
   44.5580   30.9110   38.0030 C   0  0  0  0  0  0  0  0  0  0  0  0
   44.5750   31.2750   39.3290 C   0  0  0  0  0  3  0  0  0  0  0  0
  1  6  1  0  0  0  0
  2  1  2  0  0  0  0
  2  3  1  0  0  0  0
  3  4  2  0  0  0  0
  4  5  1  0  0  0  0
  5  9  1  0  0  0  0
  6  5  2  0  0  0  0
  7  1  1  0  0  0  0
  8  2  1  0  0  0  0
  9 10  1  0  0  0  0
  9 15  1  1  0  0  0
 10 16  1  0  0  0  0
 11 19  1  0  0  0  0
 11 10  1  0  0  0  0
 11 12  1  0  0  0  0
 12 21  1  0  0  0  0
 13 12  1  0  0  0  0
 14  9  1  0  0  0  0
 14 13  2  0  0  0  0
 17 10  1  0  0  0  0
 18 11  1  0  0  0  0
 20 12  1  0  0  0  0
 22 13  1  0  0  0  0
 23 14  1  0  0  0  0
 23 24  1  0  0  0  0
 25 23  1  0  0  0  0
 26  3  1  0  0  0  0
 26 27  1  0  0  0  0
 27 32  1  0  0  0  0
 28 33  1  0  0  0  0
 28 27  2  0  0  0  0
 29 28  1  0  0  0  0
 30 31  1  0  0  0  0
 30 29  2  0  0  0  0
 31 26  2  0  0  0  0
 34 29  1  0  0  0  0
 35 30  1  0  0  0  0
 37 35  1  0  0  0  0
 37 36  2  0  0  0  0
 38 37  1  0  0  0  0
 39 38  1  0  0  0  0
 40 38  2  0  0  0  0
 40 46  1  0  0  0  0
 41 43  1  0  0  0  0
 41 40  1  0  0  0  0
 42 41  1  0  0  0  0
 43 45  2  0  0  0  0
 44 43  1  0  0  0  0
 45 46  1  0  0  0  0
 46 47  2  0  0  0  0
 47 36  1  0  0  0  0
M  END
>  <minimizedAffinity>
-7.02619553

$$$$

 OpenBabel03252505133D

 47 51  0  0  1  0  0  0  0  0999 V2000
   36.7980   27.5780   43.1030 C   0  0  0  0  0  0  0  0  0  0  0  0
   38.1170   27.3670   43.5740 C   0  0  0  0  0  0  0  0  0  0  0  0
   39.1900   27.9800   42.8430 C   0  0  0  0  0  0  0  0  0  0  0  0
   38.8840   28.7270   41.7410 N   0  0  0  0  0  0  0  0  0  0  0  0
   37.6210   28.8970   41.3350 C   0  0  0  0  0  0  0  0  0  0  0  0
   36.5670   28.3260   42.0100 N   0  0  0  0  0  0  0  0  0  0  0  0
   36.0190   27.1000   43.6820 H   0  0  0  0  0  0  0  0  0  0  0  0
   38.3490   26.7730   44.4500 H   0  0  0  0  0  0  0  0  0  0  0  0
   37.3420   29.7180   40.1240 C   0  0  2  0  0  0  0  0  0  0  0  0
   38.6610   29.7830   39.3860 C   0  0  0  0  0  0  0  0  0  0  0  0
   39.3950   31.0540   39.4760 C   0  0  0  0  0  0  0  0  0  0  0  0
   38.4170   32.1110   38.9750 C   0  0  0  0  0  0  0  0  0  0  0  0
   37.2650   32.2680   39.8770 C   0  0  0  0  0  0  0  0  0  0  0  0
   36.7560   30.9890   40.4410 C   0  0  0  0  0  0  0  0  0  0  0  0
   36.6190   29.1060   39.5290 H   0  0  0  0  0  0  0  0  0  0  0  0
   38.4380   29.6120   38.3090 H   0  0  0  0  0  0  0  0  0  0  0  0
   39.3430   28.9410   39.6560 H   0  0  0  0  0  0  0  0  0  0  0  0
   39.6400   31.2830   40.5180 H   0  0  0  0  0  0  0  0  0  0  0  0
   40.2450   31.0190   38.7970 H   0  0  0  0  0  0  0  0  0  0  0  0
   38.9910   33.0700   39.0910 H   0  0  0  0  0  0  0  0  0  0  0  0
   38.1680   32.0060   37.9190 H   0  0  0  0  0  0  0  0  0  0  0  0
   36.6920   33.0800   40.2380 H   0  0  0  0  0  0  0  0  0  0  0  0
   35.6470   30.9960   41.3310 N   0  0  0  0  0  0  0  0  0  0  0  0
   34.6990   30.6670   41.0010 H   0  0  0  0  0  0  0  0  0  0  0  0
   35.5730   31.2870   42.3350 H   0  0  0  0  0  0  0  0  0  0  0  0
   40.5450   27.7870   43.2960 C   0  0  0  0  0  0  0  0  0  0  0  0
   40.8180   26.7740   44.1430 C   0  0  0  0  0  0  0  0  0  0  0  0
   42.1560   26.6370   44.5500 C   0  0  0  0  0  0  0  0  0  0  0  0
   43.0620   27.5570   44.0390 C   0  0  0  0  0  0  0  0  0  0  0  0
   42.7830   28.5840   43.1780 C   0  0  0  0  0  0  0  0  0  0  0  0
   41.4650   28.6470   42.8340 N   0  0  0  0  0  0  0  0  0  0  0  0
   40.0780   26.0860   44.5110 H   0  0  0  0  0  0  0  0  0  0  0  0
   42.4720   25.8540   45.2290 H   0  0  0  0  0  0  0  0  0  0  0  0
   44.0890   27.4220   44.3730 H   0  0  0  0  0  0  0  0  0  0  0  0
   43.7380   29.4540   42.7190 O   0  0  0  0  0  0  0  0  0  0  0  0
   43.2410   30.7800   40.6910 C   0  0  0  0  0  3  0  0  0  0  0  0
   43.5070   30.6040   42.0250 C   0  0  0  0  0  0  0  0  0  0  0  0
   43.5560   31.7500   42.8200 C   0  0  0  0  0  0  0  0  0  0  0  0
   43.7560   31.7730   43.8940 H   0  0  0  0  0  0  0  0  0  0  0  0
   43.3460   33.0150   42.2940 C   0  0  0  0  0  0  0  0  0  0  0  0
   43.3310   34.2710   42.7970 N   0  0  0  0  0  0  0  0  0  0  0  0
   43.4990   34.5110   43.8030 H   0  0  0  0  0  0  0  0  0  0  0  0
   43.0730   35.1530   41.8380 C   0  0  0  0  0  0  0  0  0  0  0  0
   42.9980   36.2400   41.9490 H   0  0  0  0  0  0  0  0  0  0  0  0
   42.9070   34.4960   40.6480 C   0  0  0  0  0  3  0  0  0  0  0  0
   43.0790   33.1590   40.9390 C   0  0  0  0  0  0  0  0  0  0  0  0
   43.0280   32.0370   40.1450 C   0  0  0  0  0  3  0  0  0  0  0  0
  1  2  1  0  0  0  0
  1  7  1  0  0  0  0
  2  8  1  0  0  0  0
  3 26  1  0  0  0  0
  3  2  2  0  0  0  0
  4  3  1  0  0  0  0
  5  4  2  0  0  0  0
  5  6  1  0  0  0  0
  6  1  2  0  0  0  0
  9 15  1  6  0  0  0
  9 14  1  0  0  0  0
  9  5  1  0  0  0  0
 10 11  1  0  0  0  0
 10 17  1  0  0  0  0
 10  9  1  0  0  0  0
 11 18  1  0  0  0  0
 12 20  1  0  0  0  0
 12 11  1  0  0  0  0
 12 13  1  0  0  0  0
 13 22  1  0  0  0  0
 13 14  2  0  0  0  0
 14 23  1  0  0  0  0
 16 10  1  0  0  0  0
 19 11  1  0  0  0  0
 21 12  1  0  0  0  0
 23 25  1  0  0  0  0
 24 23  1  0  0  0  0
 26 27  1  0  0  0  0
 27 32  1  0  0  0  0
 27 28  2  0  0  0  0
 28 33  1  0  0  0  0
 29 34  1  0  0  0  0
 29 28  1  0  0  0  0
 30 29  2  0  0  0  0
 31 30  1  0  0  0  0
 31 26  2  0  0  0  0
 35 30  1  0  0  0  0
 36 37  1  0  0  0  0
 37 35  1  0  0  0  0
 37 38  2  0  0  0  0
 38 39  1  0  0  0  0
 40 41  1  0  0  0  0
 40 38  1  0  0  0  0
 41 42  1  0  0  0  0
 43 44  1  0  0  0  0
 43 41  1  0  0  0  0
 45 46  1  0  0  0  0
 45 43  2  0  0  0  0
 46 40  2  0  0  0  0
 47 36  2  0  0  0  0
 47 46  1  0  0  0  0
M  END
>  <minimizedAffinity>
-7.02477789

$$$$
