
 OpenBabel03242515113D

 39 42  0  0  0  0  0  0  0  0999 V2000
   36.3150   29.8850   41.7370 N   0  0  0  0  0  0  0  0  0  0  0  0
   35.6050   30.5120   42.1930 H   0  0  0  0  0  0  0  0  0  0  0  0
   36.8430   30.3860   39.3760 C   0  0  0  0  0  0  0  0  0  0  0  0
   36.4190   30.1880   38.0910 C   0  0  0  0  0  0  0  0  0  0  0  0
   35.3030   29.4690   37.7260 C   0  0  0  0  0  0  0  0  0  0  0  0
   34.5480   28.9040   38.7190 C   0  0  0  0  0  0  0  0  0  0  0  0
   34.9230   29.0700   40.0170 C   0  0  0  0  0  0  0  0  0  0  0  0
   36.0660   29.8080   40.3420 C   0  0  0  0  0  0  0  0  0  0  0  0
   36.9990   30.6240   37.2730 H   0  0  0  0  0  0  0  0  0  0  0  0
   35.0320   29.3560   36.6900 H   0  0  0  0  0  0  0  0  0  0  0  0
   33.6740   28.3440   38.4070 H   0  0  0  0  0  0  0  0  0  0  0  0
   34.2910   28.6020   40.7610 H   0  0  0  0  0  0  0  0  0  0  0  0
   38.9680   32.9600   40.8670 C   0  0  0  0  0  0  0  0  0  0  0  0
   40.2250   32.6730   40.3620 C   0  0  0  0  0  0  0  0  0  0  0  0
   40.3560   31.5830   39.4970 C   0  0  0  0  0  0  0  0  0  0  0  0
   39.2550   30.8280   39.1680 N   0  0  0  0  0  0  0  0  0  0  0  0
   38.0250   31.1510   39.6940 C   0  0  0  0  0  0  0  0  0  0  0  0
   37.9310   32.2070   40.5230 N   0  0  0  0  0  0  0  0  0  0  0  0
   38.8810   33.8070   41.5350 H   0  0  0  0  0  0  0  0  0  0  0  0
   41.0550   33.2900   40.6450 H   0  0  0  0  0  0  0  0  0  0  0  0
   41.3380   31.3850   39.1220 H   0  0  0  0  0  0  0  0  0  0  0  0
   37.4950   29.1830   42.7550 S   0  0  0  0  0  0  0  0  0  0  0  0
   38.5530   30.2570   43.0440 O   0  0  0  0  0  0  0  0  0  0  0  0
   38.8760   30.8480   42.3280 H   0  0  0  0  0  0  0  0  0  0  0  0
   36.9810   28.6880   44.0550 O   0  0  0  0  0  0  0  0  0  0  0  0
   37.0460   29.1100   44.9500 H   0  0  0  0  0  0  0  0  0  0  0  0
   38.2840   28.0210   41.8330 O   0  0  0  0  0  0  0  0  0  0  0  0
   37.4430   25.9280   42.3520 C   0  0  0  0  0  3  0  0  0  0  0  0
   37.6930   26.8700   41.3480 C   0  0  0  0  0  0  0  0  0  0  0  0
   37.3510   26.5950   40.0390 C   0  0  0  0  0  0  0  0  0  0  0  0
   37.5770   27.3720   39.3220 H   0  0  0  0  0  0  0  0  0  0  0  0
   36.7670   25.4040   39.6970 C   0  0  0  0  0  0  0  0  0  0  0  0
   36.3450   24.8940   38.5250 N   0  0  0  0  0  0  0  0  0  0  0  0
   36.4000   25.3740   37.5880 H   0  0  0  0  0  0  0  0  0  0  0  0
   35.8230   23.6640   38.6660 C   0  0  0  0  0  0  0  0  0  0  0  0
   35.4050   23.0030   37.9210 H   0  0  0  0  0  0  0  0  0  0  0  0
   35.9410   23.4150   40.0300 C   0  0  0  0  0  3  0  0  0  0  0  0
   36.5230   24.4760   40.6950 C   0  0  0  0  0  0  0  0  0  0  0  0
   36.8470   24.7110   42.0090 C   0  0  0  0  0  3  0  0  0  0  0  0
  1  2  1  0  0  0  0
  1 22  1  0  0  0  0
  3 17  1  0  0  0  0
  3  8  1  0  0  0  0
  4  3  2  0  0  0  0
  5  4  1  0  0  0  0
  5  6  2  0  0  0  0
  6  7  1  0  0  0  0
  7  8  2  0  0  0  0
  7 12  1  0  0  0  0
  8  1  1  0  0  0  0
  9  4  1  0  0  0  0
 10  5  1  0  0  0  0
 11  6  1  0  0  0  0
 13 19  1  0  0  0  0
 14 20  1  0  0  0  0
 14 13  2  0  0  0  0
 15 14  1  0  0  0  0
 16 15  2  0  0  0  0
 16 17  1  0  0  0  0
 17 18  2  0  0  0  0
 18 13  1  0  0  0  0
 21 15  1  0  0  0  0
 22 23  1  0  0  0  0
 22 25  1  0  0  0  0
 24 23  1  0  0  0  0
 25 26  1  0  0  0  0
 27 22  1  0  0  0  0
 29 27  1  0  0  0  0
 29 28  2  0  0  0  0
 30 29  1  0  0  0  0
 31 30  1  0  0  0  0
 32 30  2  0  0  0  0
 32 38  1  0  0  0  0
 33 35  1  0  0  0  0
 33 32  1  0  0  0  0
 34 33  1  0  0  0  0
 35 37  2  0  0  0  0
 36 35  1  0  0  0  0
 37 38  1  0  0  0  0
 38 39  2  0  0  0  0
 39 28  1  0  0  0  0
M  END
>  <minimizedAffinity>
-6.65776777

$$$$

 OpenBabel03242515113D

 39 42  0  0  0  0  0  0  0  0999 V2000
   37.6240   27.0110   42.4630 N   0  0  0  0  0  0  0  0  0  0  0  0
   36.9150   26.2400   42.3630 H   0  0  0  0  0  0  0  0  0  0  0  0
   39.3870   25.2940   42.2460 C   0  0  0  0  0  0  0  0  0  0  0  0
   40.6390   24.9480   42.6720 C   0  0  0  0  0  0  0  0  0  0  0  0
   41.4050   25.6750   43.5550 C   0  0  0  0  0  0  0  0  0  0  0  0
   40.8830   26.8380   44.0540 C   0  0  0  0  0  0  0  0  0  0  0  0
   39.6400   27.2310   43.6650 C   0  0  0  0  0  0  0  0  0  0  0  0
   38.8970   26.4610   42.7630 C   0  0  0  0  0  0  0  0  0  0  0  0
   41.0870   24.0250   42.2930 H   0  0  0  0  0  0  0  0  0  0  0  0
   42.3860   25.3360   43.8450 H   0  0  0  0  0  0  0  0  0  0  0  0
   41.5060   27.3920   44.7480 H   0  0  0  0  0  0  0  0  0  0  0  0
   39.2770   28.1590   44.0890 H   0  0  0  0  0  0  0  0  0  0  0  0
   36.5550   23.5600   40.7180 C   0  0  0  0  0  0  0  0  0  0  0  0
   37.1070   22.9640   39.5980 C   0  0  0  0  0  0  0  0  0  0  0  0
   38.4700   23.1540   39.3530 C   0  0  0  0  0  0  0  0  0  0  0  0
   39.2250   23.9150   40.2140 N   0  0  0  0  0  0  0  0  0  0  0  0
   38.6320   24.4880   41.3160 C   0  0  0  0  0  0  0  0  0  0  0  0
   37.3180   24.2860   41.5240 N   0  0  0  0  0  0  0  0  0  0  0  0
   35.4990   23.4040   40.8950 H   0  0  0  0  0  0  0  0  0  0  0  0
   36.4810   22.3780   38.9540 H   0  0  0  0  0  0  0  0  0  0  0  0
   38.8710   22.6820   38.4800 H   0  0  0  0  0  0  0  0  0  0  0  0
   37.0620   28.6110   42.2420 S   0  0  0  0  0  0  0  0  0  0  0  0
   35.6110   28.5270   41.7490 O   0  0  0  0  0  0  0  0  0  0  0  0
   35.3490   27.8640   41.0720 H   0  0  0  0  0  0  0  0  0  0  0  0
   37.0820   29.4520   43.4620 O   0  0  0  0  0  0  0  0  0  0  0  0
   36.3280   29.7030   44.0570 H   0  0  0  0  0  0  0  0  0  0  0  0
   37.9320   29.2430   40.9500 O   0  0  0  0  0  0  0  0  0  0  0  0
   37.1220   31.2710   40.1850 C   0  0  0  0  0  3  0  0  0  0  0  0
   38.1960   30.5870   40.7640 C   0  0  0  0  0  0  0  0  0  0  0  0
   39.3560   31.2620   41.0840 C   0  0  0  0  0  0  0  0  0  0  0  0
   40.1400   30.6630   41.5270 H   0  0  0  0  0  0  0  0  0  0  0  0
   39.4830   32.6040   40.8420 C   0  0  0  0  0  0  0  0  0  0  0  0
   40.4790   33.4830   41.0510 N   0  0  0  0  0  0  0  0  0  0  0  0
   41.4190   33.2610   41.4760 H   0  0  0  0  0  0  0  0  0  0  0  0
   40.1550   34.7240   40.6510 C   0  0  0  0  0  0  0  0  0  0  0  0
   40.7340   35.6340   40.6860 H   0  0  0  0  0  0  0  0  0  0  0  0
   38.8590   34.5790   40.1630 C   0  0  0  0  0  3  0  0  0  0  0  0
   38.4160   33.2760   40.2680 C   0  0  0  0  0  0  0  0  0  0  0  0
   37.2440   32.6410   39.9360 C   0  0  0  0  0  3  0  0  0  0  0  0
  1  8  1  0  0  0  0
  2  1  1  0  0  0  0
  3  4  2  0  0  0  0
  3  8  1  0  0  0  0
  4  5  1  0  0  0  0
  5 10  1  0  0  0  0
  5  6  2  0  0  0  0
  6 11  1  0  0  0  0
  7  6  1  0  0  0  0
  7 12  1  0  0  0  0
  8  7  2  0  0  0  0
  9  4  1  0  0  0  0
 13 19  1  0  0  0  0
 13 18  1  0  0  0  0
 14 13  2  0  0  0  0
 15 14  1  0  0  0  0
 15 16  2  0  0  0  0
 16 17  1  0  0  0  0
 17 18  2  0  0  0  0
 17  3  1  0  0  0  0
 20 14  1  0  0  0  0
 21 15  1  0  0  0  0
 22  1  1  0  0  0  0
 22 25  1  0  0  0  0
 23 22  1  0  0  0  0
 24 23  1  0  0  0  0
 25 26  1  0  0  0  0
 27 22  1  0  0  0  0
 28 29  1  0  0  0  0
 29 27  1  0  0  0  0
 29 30  2  0  0  0  0
 30 31  1  0  0  0  0
 32 33  1  0  0  0  0
 32 30  1  0  0  0  0
 33 34  1  0  0  0  0
 35 36  1  0  0  0  0
 35 33  1  0  0  0  0
 37 38  1  0  0  0  0
 37 35  2  0  0  0  0
 38 32  2  0  0  0  0
 39 28  2  0  0  0  0
 39 38  1  0  0  0  0
M  END
>  <minimizedAffinity>
-6.58977365

$$$$

 OpenBabel03242515113D

 39 42  0  0  0  0  0  0  0  0999 V2000
   36.0620   28.3440   41.7440 N   0  0  0  0  0  0  0  0  0  0  0  0
   35.1640   27.9770   42.1530 H   0  0  0  0  0  0  0  0  0  0  0  0
   37.5320   26.3640   41.6080 C   0  0  0  0  0  0  0  0  0  0  0  0
   38.6120   25.7570   42.1860 C   0  0  0  0  0  0  0  0  0  0  0  0
   39.3120   26.2470   43.2670 C   0  0  0  0  0  0  0  0  0  0  0  0
   38.9040   27.4330   43.8140 C   0  0  0  0  0  0  0  0  0  0  0  0
   37.8330   28.0810   43.2780 C   0  0  0  0  0  0  0  0  0  0  0  0
   37.1520   27.5460   42.1790 C   0  0  0  0  0  0  0  0  0  0  0  0
   38.9660   24.8080   41.7740 H   0  0  0  0  0  0  0  0  0  0  0  0
   40.1550   25.7100   43.6680 H   0  0  0  0  0  0  0  0  0  0  0  0
   39.4700   27.7980   44.6630 H   0  0  0  0  0  0  0  0  0  0  0  0
   37.5540   29.0140   43.7490 H   0  0  0  0  0  0  0  0  0  0  0  0
   35.9170   26.1370   38.3360 C   0  0  0  0  0  0  0  0  0  0  0  0
   35.5210   24.8120   38.2620 C   0  0  0  0  0  0  0  0  0  0  0  0
   35.8090   23.9760   39.3450 C   0  0  0  0  0  0  0  0  0  0  0  0
   36.4670   24.4740   40.4450 N   0  0  0  0  0  0  0  0  0  0  0  0
   36.8400   25.7980   40.4730 C   0  0  0  0  0  0  0  0  0  0  0  0
   36.5480   26.5780   39.4160 N   0  0  0  0  0  0  0  0  0  0  0  0
   35.6870   26.7720   37.4920 H   0  0  0  0  0  0  0  0  0  0  0  0
   35.0110   24.4670   37.3850 H   0  0  0  0  0  0  0  0  0  0  0  0
   35.4920   22.9570   39.2610 H   0  0  0  0  0  0  0  0  0  0  0  0
   35.9450   29.7160   40.7310 S   0  0  0  0  0  0  0  0  0  0  0  0
   34.8770   29.4180   39.6710 O   0  0  0  0  0  0  0  0  0  0  0  0
   34.8320   28.5380   39.2370 H   0  0  0  0  0  0  0  0  0  0  0  0
   35.5650   30.9700   41.4220 O   0  0  0  0  0  0  0  0  0  0  0  0
   34.6830   31.4220   41.4510 H   0  0  0  0  0  0  0  0  0  0  0  0
   37.3950   29.8020   39.8850 O   0  0  0  0  0  0  0  0  0  0  0  0
   39.4070   30.3920   40.8670 C   0  0  0  0  0  3  0  0  0  0  0  0
   38.3430   30.7940   40.0520 C   0  0  0  0  0  0  0  0  0  0  0  0
   38.3250   32.0650   39.5140 C   0  0  0  0  0  0  0  0  0  0  0  0
   37.4690   32.3010   38.8960 H   0  0  0  0  0  0  0  0  0  0  0  0
   39.3370   32.9530   39.7650 C   0  0  0  0  0  0  0  0  0  0  0  0
   39.5600   34.2220   39.3770 N   0  0  0  0  0  0  0  0  0  0  0  0
   38.9310   34.7960   38.7550 H   0  0  0  0  0  0  0  0  0  0  0  0
   40.7080   34.7110   39.8740 C   0  0  0  0  0  0  0  0  0  0  0  0
   41.1570   35.6840   39.7450 H   0  0  0  0  0  0  0  0  0  0  0  0
   41.2160   33.6520   40.6220 C   0  0  0  0  0  3  0  0  0  0  0  0
   40.3870   32.5490   40.5730 C   0  0  0  0  0  0  0  0  0  0  0  0
   40.4430   31.2930   41.1270 C   0  0  0  0  0  3  0  0  0  0  0  0
  1  2  1  0  0  0  0
  1  8  1  0  0  0  0
  3  8  2  0  0  0  0
  3  4  1  0  0  0  0
  4  5  2  0  0  0  0
  5 10  1  0  0  0  0
  5  6  1  0  0  0  0
  6 11  1  0  0  0  0
  7 12  1  0  0  0  0
  7  6  2  0  0  0  0
  8  7  1  0  0  0  0
  9  4  1  0  0  0  0
 13 18  1  0  0  0  0
 14 13  2  0  0  0  0
 14 15  1  0  0  0  0
 15 16  2  0  0  0  0
 16 17  1  0  0  0  0
 17  3  1  0  0  0  0
 18 17  2  0  0  0  0
 19 13  1  0  0  0  0
 20 14  1  0  0  0  0
 21 15  1  0  0  0  0
 22 25  1  0  0  0  0
 22  1  1  0  0  0  0
 23 22  1  0  0  0  0
 24 23  1  0  0  0  0
 25 26  1  0  0  0  0
 27 29  1  0  0  0  0
 27 22  1  0  0  0  0
 28 39  1  0  0  0  0
 29 28  2  0  0  0  0
 30 32  2  0  0  0  0
 30 29  1  0  0  0  0
 31 30  1  0  0  0  0
 32 38  1  0  0  0  0
 33 32  1  0  0  0  0
 33 35  1  0  0  0  0
 34 33  1  0  0  0  0
 35 37  2  0  0  0  0
 36 35  1  0  0  0  0
 38 37  1  0  0  0  0
 38 39  2  0  0  0  0
M  END
>  <minimizedAffinity>
-6.50620174

$$$$

 OpenBabel03242515113D

 39 42  0  0  0  0  0  0  0  0999 V2000
   37.1690   29.5650   39.7330 N   0  0  0  0  0  0  0  0  0  0  0  0
   38.0860   29.0840   39.9220 H   0  0  0  0  0  0  0  0  0  0  0  0
   37.5400   31.0030   37.7590 C   0  0  0  0  0  0  0  0  0  0  0  0
   37.3230   31.0940   36.4120 C   0  0  0  0  0  0  0  0  0  0  0  0
   36.6760   30.1500   35.6470 C   0  0  0  0  0  0  0  0  0  0  0  0
   36.2060   29.0270   36.2730 C   0  0  0  0  0  0  0  0  0  0  0  0
   36.3930   28.8830   37.6140 C   0  0  0  0  0  0  0  0  0  0  0  0
   37.0590   29.8680   38.3520 C   0  0  0  0  0  0  0  0  0  0  0  0
   37.6850   31.9780   35.8800 H   0  0  0  0  0  0  0  0  0  0  0  0
   36.5430   30.2930   34.5880 H   0  0  0  0  0  0  0  0  0  0  0  0
   35.7000   28.2980   35.6500 H   0  0  0  0  0  0  0  0  0  0  0  0
   36.0030   27.9760   38.0570 H   0  0  0  0  0  0  0  0  0  0  0  0
   38.0770   33.8410   40.0000 C   0  0  0  0  0  0  0  0  0  0  0  0
   39.4490   34.0210   39.9700 C   0  0  0  0  0  0  0  0  0  0  0  0
   40.2110   33.1610   39.1730 C   0  0  0  0  0  0  0  0  0  0  0  0
   39.5950   32.1700   38.4450 N   0  0  0  0  0  0  0  0  0  0  0  0
   38.2280   32.0300   38.5060 C   0  0  0  0  0  0  0  0  0  0  0  0
   37.5220   32.8730   39.2820 N   0  0  0  0  0  0  0  0  0  0  0  0
   37.5000   34.5130   40.6200 H   0  0  0  0  0  0  0  0  0  0  0  0
   39.8860   34.8070   40.5530 H   0  0  0  0  0  0  0  0  0  0  0  0
   41.2680   33.3230   39.1690 H   0  0  0  0  0  0  0  0  0  0  0  0
   36.1400   29.8210   41.0740 S   0  0  0  0  0  0  0  0  0  0  0  0
   35.8000   31.3160   41.1170 O   0  0  0  0  0  0  0  0  0  0  0  0
   36.4930   31.9930   40.9510 H   0  0  0  0  0  0  0  0  0  0  0  0
   34.8660   29.0640   41.0340 O   0  0  0  0  0  0  0  0  0  0  0  0
   33.9590   29.3850   40.7940 H   0  0  0  0  0  0  0  0  0  0  0  0
   37.0710   29.5390   42.4450 O   0  0  0  0  0  0  0  0  0  0  0  0
   39.1870   28.8000   43.0250 C   0  0  0  0  0  3  0  0  0  0  0  0
   37.8950   28.4440   42.6220 C   0  0  0  0  0  0  0  0  0  0  0  0
   37.5670   27.1150   42.4450 C   0  0  0  0  0  0  0  0  0  0  0  0
   36.5500   26.9210   42.1320 H   0  0  0  0  0  0  0  0  0  0  0  0
   38.4890   26.1240   42.6560 C   0  0  0  0  0  0  0  0  0  0  0  0
   38.4330   24.7840   42.5580 N   0  0  0  0  0  0  0  0  0  0  0  0
   37.5870   24.2210   42.2740 H   0  0  0  0  0  0  0  0  0  0  0  0
   39.6030   24.2030   42.8680 C   0  0  0  0  0  0  0  0  0  0  0  0
   39.8720   23.1570   42.8840 H   0  0  0  0  0  0  0  0  0  0  0  0
   40.4300   25.2790   43.1780 C   0  0  0  0  0  3  0  0  0  0  0  0
   39.7660   26.4840   43.0540 C   0  0  0  0  0  0  0  0  0  0  0  0
   40.1330   27.7950   43.2420 C   0  0  0  0  0  3  0  0  0  0  0  0
  1  2  1  0  0  0  0
  1 22  1  0  0  0  0
  3  8  1  0  0  0  0
  3 17  1  0  0  0  0
  4  3  2  0  0  0  0
  5  6  2  0  0  0  0
  5  4  1  0  0  0  0
  6  7  1  0  0  0  0
  7 12  1  0  0  0  0
  7  8  2  0  0  0  0
  8  1  1  0  0  0  0
  9  4  1  0  0  0  0
 10  5  1  0  0  0  0
 11  6  1  0  0  0  0
 13 19  1  0  0  0  0
 14 13  1  0  0  0  0
 14 20  1  0  0  0  0
 15 14  2  0  0  0  0
 16 17  2  0  0  0  0
 16 15  1  0  0  0  0
 17 18  1  0  0  0  0
 18 13  2  0  0  0  0
 21 15  1  0  0  0  0
 22 23  1  0  0  0  0
 22 27  1  0  0  0  0
 24 23  1  0  0  0  0
 25 22  1  0  0  0  0
 26 25  1  0  0  0  0
 27 29  1  0  0  0  0
 28 39  1  0  0  0  0
 29 28  2  0  0  0  0
 30 29  1  0  0  0  0
 30 32  2  0  0  0  0
 31 30  1  0  0  0  0
 32 38  1  0  0  0  0
 33 32  1  0  0  0  0
 33 35  1  0  0  0  0
 34 33  1  0  0  0  0
 35 36  1  0  0  0  0
 35 37  2  0  0  0  0
 38 37  1  0  0  0  0
 38 39  2  0  0  0  0
M  END
>  <minimizedAffinity>
-6.50592089

$$$$

 OpenBabel03242515113D

 39 42  0  0  0  0  0  0  0  0999 V2000
   38.5040   27.4600   42.1670 N   0  0  0  0  0  0  0  0  0  0  0  0
   38.6750   27.8160   41.1920 H   0  0  0  0  0  0  0  0  0  0  0  0
   40.0210   25.5180   42.3370 C   0  0  0  0  0  0  0  0  0  0  0  0
   41.1790   25.0780   42.9150 C   0  0  0  0  0  0  0  0  0  0  0  0
   41.9760   25.8190   43.7590 C   0  0  0  0  0  0  0  0  0  0  0  0
   41.5880   27.0980   44.0510 C   0  0  0  0  0  0  0  0  0  0  0  0
   40.4420   27.5890   43.5040 C   0  0  0  0  0  0  0  0  0  0  0  0
   39.6640   26.8000   42.6500 C   0  0  0  0  0  0  0  0  0  0  0  0
   41.5200   24.0600   42.7030 H   0  0  0  0  0  0  0  0  0  0  0  0
   42.8770   25.4020   44.1770 H   0  0  0  0  0  0  0  0  0  0  0  0
   42.2310   27.6610   44.7180 H   0  0  0  0  0  0  0  0  0  0  0  0
   40.1840   28.6060   43.7680 H   0  0  0  0  0  0  0  0  0  0  0  0
   39.0650   23.5620   39.4000 C   0  0  0  0  0  0  0  0  0  0  0  0
   37.7930   23.1120   39.7120 C   0  0  0  0  0  0  0  0  0  0  0  0
   37.2470   23.4790   40.9450 C   0  0  0  0  0  0  0  0  0  0  0  0
   37.9680   24.2660   41.8110 N   0  0  0  0  0  0  0  0  0  0  0  0
   39.2290   24.6900   41.4580 C   0  0  0  0  0  0  0  0  0  0  0  0
   39.7270   24.3210   40.2640 N   0  0  0  0  0  0  0  0  0  0  0  0
   39.4750   23.2710   38.4420 H   0  0  0  0  0  0  0  0  0  0  0  0
   37.2670   22.5010   39.0050 H   0  0  0  0  0  0  0  0  0  0  0  0
   36.2630   23.1170   41.1590 H   0  0  0  0  0  0  0  0  0  0  0  0
   36.9660   27.7690   42.8440 S   0  0  0  0  0  0  0  0  0  0  0  0
   36.3510   26.4180   43.2310 O   0  0  0  0  0  0  0  0  0  0  0  0
   36.4280   25.6420   42.6330 H   0  0  0  0  0  0  0  0  0  0  0  0
   36.9780   28.6280   44.0530 O   0  0  0  0  0  0  0  0  0  0  0  0
   36.8940   28.3630   45.0050 H   0  0  0  0  0  0  0  0  0  0  0  0
   36.0060   28.3490   41.5920 O   0  0  0  0  0  0  0  0  0  0  0  0
   36.5060   29.0580   39.4460 C   0  0  0  0  0  3  0  0  0  0  0  0
   36.3330   29.4230   40.7860 C   0  0  0  0  0  0  0  0  0  0  0  0
   36.4930   30.7390   41.1720 C   0  0  0  0  0  0  0  0  0  0  0  0
   36.3440   30.9400   42.2240 H   0  0  0  0  0  0  0  0  0  0  0  0
   36.8210   31.7080   40.2610 C   0  0  0  0  0  0  0  0  0  0  0  0
   37.0320   33.0320   40.3680 N   0  0  0  0  0  0  0  0  0  0  0  0
   36.9730   33.5960   41.2570 H   0  0  0  0  0  0  0  0  0  0  0  0
   37.3370   33.5940   39.1870 C   0  0  0  0  0  0  0  0  0  0  0  0
   37.5570   34.6250   38.9490 H   0  0  0  0  0  0  0  0  0  0  0  0
   37.3080   32.5230   38.2980 C   0  0  0  0  0  3  0  0  0  0  0  0
   36.9910   31.3400   38.9360 C   0  0  0  0  0  0  0  0  0  0  0  0
   36.8410   30.0420   38.5110 C   0  0  0  0  0  3  0  0  0  0  0  0
  1  8  1  0  0  0  0
  1 22  1  0  0  0  0
  2  1  1  0  0  0  0
  3  8  2  0  0  0  0
  3  4  1  0  0  0  0
  4  5  2  0  0  0  0
  5  6  1  0  0  0  0
  5 10  1  0  0  0  0
  6 11  1  0  0  0  0
  7 12  1  0  0  0  0
  7  6  2  0  0  0  0
  8  7  1  0  0  0  0
  9  4  1  0  0  0  0
 13 14  2  0  0  0  0
 13 18  1  0  0  0  0
 14 15  1  0  0  0  0
 15 21  1  0  0  0  0
 15 16  2  0  0  0  0
 17 16  1  0  0  0  0
 17  3  1  0  0  0  0
 18 17  2  0  0  0  0
 19 13  1  0  0  0  0
 20 14  1  0  0  0  0
 22 23  1  0  0  0  0
 22 25  1  0  0  0  0
 24 23  1  0  0  0  0
 25 26  1  0  0  0  0
 27 22  1  0  0  0  0
 28 29  1  0  0  0  0
 29 30  2  0  0  0  0
 29 27  1  0  0  0  0
 30 31  1  0  0  0  0
 32 33  1  0  0  0  0
 32 30  1  0  0  0  0
 33 34  1  0  0  0  0
 35 33  1  0  0  0  0
 36 35  1  0  0  0  0
 37 38  1  0  0  0  0
 37 35  2  0  0  0  0
 38 32  2  0  0  0  0
 39 38  1  0  0  0  0
 39 28  2  0  0  0  0
M  END
>  <minimizedAffinity>
-6.49963093

$$$$

 OpenBabel03242515113D

 39 42  0  0  0  0  0  0  0  0999 V2000
   38.7640   30.8730   40.9890 N   0  0  0  0  0  0  0  0  0  0  0  0
   39.7610   30.5850   40.8150 H   0  0  0  0  0  0  0  0  0  0  0  0
   37.1730   28.9900   40.8310 C   0  0  0  0  0  0  0  0  0  0  0  0
   36.5740   27.9970   41.5550 C   0  0  0  0  0  0  0  0  0  0  0  0
   36.7790   27.7580   42.8960 C   0  0  0  0  0  0  0  0  0  0  0  0
   37.6480   28.5740   43.5690 C   0  0  0  0  0  0  0  0  0  0  0  0
   38.2730   29.5800   42.8980 C   0  0  0  0  0  0  0  0  0  0  0  0
   38.0350   29.7850   41.5340 C   0  0  0  0  0  0  0  0  0  0  0  0
   35.8750   27.3260   41.0490 H   0  0  0  0  0  0  0  0  0  0  0  0
   36.2690   26.9540   43.3980 H   0  0  0  0  0  0  0  0  0  0  0  0
   37.7920   28.3670   44.6230 H   0  0  0  0  0  0  0  0  0  0  0  0
   38.9500   30.1940   43.4790 H   0  0  0  0  0  0  0  0  0  0  0  0
   35.3300   29.3440   37.6950 C   0  0  0  0  0  0  0  0  0  0  0  0
   36.3260   29.5560   36.7570 C   0  0  0  0  0  0  0  0  0  0  0  0
   37.6530   29.5800   37.1960 C   0  0  0  0  0  0  0  0  0  0  0  0
   37.9400   29.3950   38.5280 N   0  0  0  0  0  0  0  0  0  0  0  0
   36.9170   29.1880   39.4240 C   0  0  0  0  0  0  0  0  0  0  0  0
   35.6500   29.1690   38.9700 N   0  0  0  0  0  0  0  0  0  0  0  0
   34.3080   29.3270   37.3400 H   0  0  0  0  0  0  0  0  0  0  0  0
   36.0550   29.6950   35.7290 H   0  0  0  0  0  0  0  0  0  0  0  0
   38.4010   29.7460   36.4500 H   0  0  0  0  0  0  0  0  0  0  0  0
   38.3420   32.4800   40.5860 S   0  0  0  0  0  0  0  0  0  0  0  0
   36.8120   32.5470   40.4940 O   0  0  0  0  0  0  0  0  0  0  0  0
   36.3050   31.8290   40.0550 H   0  0  0  0  0  0  0  0  0  0  0  0
   38.7860   33.5030   41.5630 O   0  0  0  0  0  0  0  0  0  0  0  0
   38.2550   33.9700   42.2590 H   0  0  0  0  0  0  0  0  0  0  0  0
   38.8920   32.7340   39.0180 O   0  0  0  0  0  0  0  0  0  0  0  0
   40.5750   31.9270   37.6490 C   0  0  0  0  0  3  0  0  0  0  0  0
   40.2230   32.8290   38.6590 C   0  0  0  0  0  0  0  0  0  0  0  0
   41.1700   33.6850   39.1840 C   0  0  0  0  0  0  0  0  0  0  0  0
   40.8210   34.3510   39.9610 H   0  0  0  0  0  0  0  0  0  0  0  0
   42.4640   33.6710   38.7320 C   0  0  0  0  0  0  0  0  0  0  0  0
   43.5570   34.3810   39.0630 N   0  0  0  0  0  0  0  0  0  0  0  0
   43.6030   35.1390   39.7950 H   0  0  0  0  0  0  0  0  0  0  0  0
   44.6330   34.0220   38.3430 C   0  0  0  0  0  0  0  0  0  0  0  0
   45.6430   34.4010   38.3740 H   0  0  0  0  0  0  0  0  0  0  0  0
   44.1470   33.0150   37.5130 C   0  0  0  0  0  3  0  0  0  0  0  0
   42.8050   32.7750   37.7320 C   0  0  0  0  0  0  0  0  0  0  0  0
   41.8920   31.9070   37.1840 C   0  0  0  0  0  3  0  0  0  0  0  0
  1  8  1  0  0  0  0
  2  1  1  0  0  0  0
  3  8  2  0  0  0  0
  3  4  1  0  0  0  0
  4  5  2  0  0  0  0
  5 10  1  0  0  0  0
  5  6  1  0  0  0  0
  6 11  1  0  0  0  0
  7 12  1  0  0  0  0
  7  6  2  0  0  0  0
  8  7  1  0  0  0  0
  9  4  1  0  0  0  0
 13 18  1  0  0  0  0
 14 15  1  0  0  0  0
 14 13  2  0  0  0  0
 15 16  2  0  0  0  0
 16 17  1  0  0  0  0
 17  3  1  0  0  0  0
 18 17  2  0  0  0  0
 19 13  1  0  0  0  0
 20 14  1  0  0  0  0
 21 15  1  0  0  0  0
 22  1  1  0  0  0  0
 22 25  1  0  0  0  0
 23 22  1  0  0  0  0
 24 23  1  0  0  0  0
 25 26  1  0  0  0  0
 27 22  1  0  0  0  0
 28 29  1  0  0  0  0
 29 27  1  0  0  0  0
 29 30  2  0  0  0  0
 30 31  1  0  0  0  0
 32 33  1  0  0  0  0
 32 30  1  0  0  0  0
 33 34  1  0  0  0  0
 35 36  1  0  0  0  0
 35 33  1  0  0  0  0
 37 38  1  0  0  0  0
 37 35  2  0  0  0  0
 38 32  2  0  0  0  0
 39 28  2  0  0  0  0
 39 38  1  0  0  0  0
M  END
>  <minimizedAffinity>
-6.46489525

$$$$

 OpenBabel03242515113D

 39 42  0  0  0  0  0  0  0  0999 V2000
   37.8680   30.1370   40.5790 N   0  0  0  0  0  0  0  0  0  0  0  0
   38.4670   29.4330   41.0810 H   0  0  0  0  0  0  0  0  0  0  0  0
   39.1620   31.0870   38.7010 C   0  0  0  0  0  0  0  0  0  0  0  0
   39.9380   32.1500   38.3300 C   0  0  0  0  0  0  0  0  0  0  0  0
   40.2580   33.2180   39.1380 C   0  0  0  0  0  0  0  0  0  0  0  0
   39.7670   33.2290   40.4150 C   0  0  0  0  0  0  0  0  0  0  0  0
   38.9890   32.1950   40.8390 C   0  0  0  0  0  0  0  0  0  0  0  0
   38.6890   31.1300   39.9830 C   0  0  0  0  0  0  0  0  0  0  0  0
   40.3470   32.1740   37.3160 H   0  0  0  0  0  0  0  0  0  0  0  0
   40.8770   34.0210   38.7730 H   0  0  0  0  0  0  0  0  0  0  0  0
   40.0330   34.0800   41.0320 H   0  0  0  0  0  0  0  0  0  0  0  0
   38.6280   32.2550   41.8570 H   0  0  0  0  0  0  0  0  0  0  0  0
   39.6120   28.0420   36.7300 C   0  0  0  0  0  0  0  0  0  0  0  0
   38.3860   27.8740   36.1100 C   0  0  0  0  0  0  0  0  0  0  0  0
   37.3830   28.8130   36.3660 C   0  0  0  0  0  0  0  0  0  0  0  0
   37.6270   29.8690   37.2120 N   0  0  0  0  0  0  0  0  0  0  0  0
   38.8620   29.9950   37.8050 C   0  0  0  0  0  0  0  0  0  0  0  0
   39.8070   29.0740   37.5390 N   0  0  0  0  0  0  0  0  0  0  0  0
   40.3790   27.3070   36.5220 H   0  0  0  0  0  0  0  0  0  0  0  0
   38.2400   27.0360   35.4570 H   0  0  0  0  0  0  0  0  0  0  0  0
   36.4460   28.6590   35.8730 H   0  0  0  0  0  0  0  0  0  0  0  0
   36.1780   29.8890   40.6260 S   0  0  0  0  0  0  0  0  0  0  0  0
   35.5640   31.0420   41.4320 O   0  0  0  0  0  0  0  0  0  0  0  0
   35.9910   31.3590   42.2580 H   0  0  0  0  0  0  0  0  0  0  0  0
   35.5160   29.8570   39.3000 O   0  0  0  0  0  0  0  0  0  0  0  0
   34.9900   30.5670   38.8500 H   0  0  0  0  0  0  0  0  0  0  0  0
   35.9280   28.5140   41.5590 O   0  0  0  0  0  0  0  0  0  0  0  0
   37.5100   28.2870   43.2330 C   0  0  0  0  0  3  0  0  0  0  0  0
   36.9360   27.7290   42.0860 C   0  0  0  0  0  0  0  0  0  0  0  0
   37.3920   26.5200   41.6020 C   0  0  0  0  0  0  0  0  0  0  0  0
   36.8990   26.1550   40.7110 H   0  0  0  0  0  0  0  0  0  0  0  0
   38.4070   25.8450   42.2270 C   0  0  0  0  0  0  0  0  0  0  0  0
   39.0260   24.6790   41.9710 N   0  0  0  0  0  0  0  0  0  0  0  0
   38.8110   24.0290   41.1680 H   0  0  0  0  0  0  0  0  0  0  0  0
   39.9860   24.4050   42.8700 C   0  0  0  0  0  0  0  0  0  0  0  0
   40.6500   23.5560   42.9350 H   0  0  0  0  0  0  0  0  0  0  0  0
   39.9400   25.4940   43.7370 C   0  0  0  0  0  3  0  0  0  0  0  0
   38.9710   26.4040   43.3620 C   0  0  0  0  0  0  0  0  0  0  0  0
   38.5460   27.6050   43.8770 C   0  0  0  0  0  3  0  0  0  0  0  0
  1 22  1  0  0  0  0
  1  2  1  0  0  0  0
  3  8  1  0  0  0  0
  4  3  2  0  0  0  0
  4  5  1  0  0  0  0
  5  6  2  0  0  0  0
  6  7  1  0  0  0  0
  6 11  1  0  0  0  0
  7 12  1  0  0  0  0
  8  1  1  0  0  0  0
  8  7  2  0  0  0  0
  9  4  1  0  0  0  0
 10  5  1  0  0  0  0
 13 18  1  0  0  0  0
 14 15  1  0  0  0  0
 14 13  2  0  0  0  0
 15 16  2  0  0  0  0
 16 17  1  0  0  0  0
 17  3  1  0  0  0  0
 18 17  2  0  0  0  0
 19 13  1  0  0  0  0
 20 14  1  0  0  0  0
 21 15  1  0  0  0  0
 22 23  1  0  0  0  0
 22 27  1  0  0  0  0
 23 24  1  0  0  0  0
 25 22  1  0  0  0  0
 26 25  1  0  0  0  0
 27 29  1  0  0  0  0
 28 39  1  0  0  0  0
 29 28  2  0  0  0  0
 30 29  1  0  0  0  0
 30 32  2  0  0  0  0
 31 30  1  0  0  0  0
 32 38  1  0  0  0  0
 33 32  1  0  0  0  0
 33 35  1  0  0  0  0
 34 33  1  0  0  0  0
 35 36  1  0  0  0  0
 35 37  2  0  0  0  0
 38 37  1  0  0  0  0
 38 39  2  0  0  0  0
M  END
>  <minimizedAffinity>
-6.30355692

$$$$

 OpenBabel03242515113D

 39 42  0  0  0  0  0  0  0  0999 V2000
   38.6200   32.3010   38.3260 N   0  0  0  0  0  0  0  0  0  0  0  0
   37.8940   32.3300   37.5650 H   0  0  0  0  0  0  0  0  0  0  0  0
   39.8110   30.1880   37.8570 C   0  0  0  0  0  0  0  0  0  0  0  0
   40.9930   29.6720   37.4040 C   0  0  0  0  0  0  0  0  0  0  0  0
   42.0780   30.4160   36.9950 C   0  0  0  0  0  0  0  0  0  0  0  0
   41.9770   31.7800   37.0430 C   0  0  0  0  0  0  0  0  0  0  0  0
   40.8230   32.3480   37.4870 C   0  0  0  0  0  0  0  0  0  0  0  0
   39.7450   31.5530   37.8920 C   0  0  0  0  0  0  0  0  0  0  0  0
   41.1080   28.5860   37.3520 H   0  0  0  0  0  0  0  0  0  0  0  0
   42.9780   29.9360   36.6500 H   0  0  0  0  0  0  0  0  0  0  0  0
   42.8440   32.3430   36.7170 H   0  0  0  0  0  0  0  0  0  0  0  0
   40.7980   33.4300   37.5030 H   0  0  0  0  0  0  0  0  0  0  0  0
   36.3800   29.0200   38.3330 C   0  0  0  0  0  0  0  0  0  0  0  0
   36.5370   27.8290   39.0210 C   0  0  0  0  0  0  0  0  0  0  0  0
   37.8340   27.4110   39.3300 C   0  0  0  0  0  0  0  0  0  0  0  0
   38.9130   28.1760   38.9540 N   0  0  0  0  0  0  0  0  0  0  0  0
   38.7080   29.3530   38.2720 C   0  0  0  0  0  0  0  0  0  0  0  0
   37.4470   29.7290   37.9890 N   0  0  0  0  0  0  0  0  0  0  0  0
   35.3700   29.3310   38.1000 H   0  0  0  0  0  0  0  0  0  0  0  0
   35.6670   27.2640   39.2950 H   0  0  0  0  0  0  0  0  0  0  0  0
   37.9260   26.4870   39.8620 H   0  0  0  0  0  0  0  0  0  0  0  0
   38.2510   33.1230   39.7790 S   0  0  0  0  0  0  0  0  0  0  0  0
   38.8110   34.5460   39.6600 O   0  0  0  0  0  0  0  0  0  0  0  0
   39.7000   34.7040   39.2720 H   0  0  0  0  0  0  0  0  0  0  0  0
   36.8040   33.2260   40.0850 O   0  0  0  0  0  0  0  0  0  0  0  0
   36.1980   34.0020   39.9690 H   0  0  0  0  0  0  0  0  0  0  0  0
   39.1640   32.3860   40.9830 O   0  0  0  0  0  0  0  0  0  0  0  0
   40.0290   30.4750   41.9600 C   0  0  0  0  0  3  0  0  0  0  0  0
   38.8800   31.1530   41.5380 C   0  0  0  0  0  0  0  0  0  0  0  0
   37.6370   30.5760   41.7000 C   0  0  0  0  0  0  0  0  0  0  0  0
   36.7980   31.1620   41.3490 H   0  0  0  0  0  0  0  0  0  0  0  0
   37.5010   29.3380   42.2700 C   0  0  0  0  0  0  0  0  0  0  0  0
   36.4330   28.5650   42.5380 N   0  0  0  0  0  0  0  0  0  0  0  0
   35.4270   28.8100   42.3340 H   0  0  0  0  0  0  0  0  0  0  0  0
   36.7790   27.4030   43.1160 C   0  0  0  0  0  0  0  0  0  0  0  0
   36.1580   26.5840   43.4460 H   0  0  0  0  0  0  0  0  0  0  0  0
   38.1670   27.4830   43.2020 C   0  0  0  0  0  3  0  0  0  0  0  0
   38.6420   28.6720   42.6840 C   0  0  0  0  0  0  0  0  0  0  0  0
   39.8980   29.2110   42.5420 C   0  0  0  0  0  3  0  0  0  0  0  0
  1 22  1  0  0  0  0
  2  1  1  0  0  0  0
  3  8  1  0  0  0  0
  3 17  1  0  0  0  0
  4  3  2  0  0  0  0
  5  6  2  0  0  0  0
  5  4  1  0  0  0  0
  6  7  1  0  0  0  0
  7 12  1  0  0  0  0
  7  8  2  0  0  0  0
  8  1  1  0  0  0  0
  9  4  1  0  0  0  0
 10  5  1  0  0  0  0
 11  6  1  0  0  0  0
 13 14  1  0  0  0  0
 14 20  1  0  0  0  0
 14 15  2  0  0  0  0
 15 21  1  0  0  0  0
 16 15  1  0  0  0  0
 17 16  2  0  0  0  0
 18 17  1  0  0  0  0
 18 13  2  0  0  0  0
 19 13  1  0  0  0  0
 22 25  1  0  0  0  0
 22 27  1  0  0  0  0
 23 22  1  0  0  0  0
 24 23  1  0  0  0  0
 26 25  1  0  0  0  0
 27 29  1  0  0  0  0
 28 39  1  0  0  0  0
 29 30  1  0  0  0  0
 29 28  2  0  0  0  0
 30 32  2  0  0  0  0
 31 30  1  0  0  0  0
 32 33  1  0  0  0  0
 32 38  1  0  0  0  0
 33 35  1  0  0  0  0
 34 33  1  0  0  0  0
 35 37  2  0  0  0  0
 35 36  1  0  0  0  0
 38 37  1  0  0  0  0
 39 38  2  0  0  0  0
M  END
>  <minimizedAffinity>
-6.25261593

$$$$

 OpenBabel03242515113D

 39 42  0  0  0  0  0  0  0  0999 V2000
   38.5080   27.6560   42.1420 N   0  0  0  0  0  0  0  0  0  0  0  0
   38.5810   27.6510   41.0920 H   0  0  0  0  0  0  0  0  0  0  0  0
   40.8240   28.3730   42.6140 C   0  0  0  0  0  0  0  0  0  0  0  0
   41.9800   28.0040   43.2440 C   0  0  0  0  0  0  0  0  0  0  0  0
   42.1600   26.8340   43.9490 C   0  0  0  0  0  0  0  0  0  0  0  0
   41.1060   25.9640   44.0320 C   0  0  0  0  0  0  0  0  0  0  0  0
   39.9310   26.2800   43.4220 C   0  0  0  0  0  0  0  0  0  0  0  0
   39.7930   27.4810   42.7160 C   0  0  0  0  0  0  0  0  0  0  0  0
   42.8410   28.6750   43.1990 H   0  0  0  0  0  0  0  0  0  0  0  0
   43.1020   26.6130   44.4200 H   0  0  0  0  0  0  0  0  0  0  0  0
   41.2730   25.0510   44.5920 H   0  0  0  0  0  0  0  0  0  0  0  0
   39.1320   25.5570   43.5200 H   0  0  0  0  0  0  0  0  0  0  0  0
   41.1770   30.8360   39.9360 C   0  0  0  0  0  0  0  0  0  0  0  0
   40.5120   31.9460   40.4280 C   0  0  0  0  0  0  0  0  0  0  0  0
   39.9290   31.8580   41.6960 C   0  0  0  0  0  0  0  0  0  0  0  0
   40.0270   30.6930   42.4190 N   0  0  0  0  0  0  0  0  0  0  0  0
   40.6980   29.6150   41.8890 C   0  0  0  0  0  0  0  0  0  0  0  0
   41.2480   29.7310   40.6660 N   0  0  0  0  0  0  0  0  0  0  0  0
   41.6230   30.9180   38.9530 H   0  0  0  0  0  0  0  0  0  0  0  0
   40.4610   32.8340   39.8290 H   0  0  0  0  0  0  0  0  0  0  0  0
   39.4220   32.7300   42.0510 H   0  0  0  0  0  0  0  0  0  0  0  0
   36.9470   27.8660   42.8070 S   0  0  0  0  0  0  0  0  0  0  0  0
   36.3890   26.4720   43.1240 O   0  0  0  0  0  0  0  0  0  0  0  0
   36.5090   25.7280   42.4930 H   0  0  0  0  0  0  0  0  0  0  0  0
   36.9030   28.6690   44.0510 O   0  0  0  0  0  0  0  0  0  0  0  0
   36.8170   28.3580   44.9890 H   0  0  0  0  0  0  0  0  0  0  0  0
   35.9800   28.4570   41.5650 O   0  0  0  0  0  0  0  0  0  0  0  0
   36.5570   29.1430   39.4310 C   0  0  0  0  0  3  0  0  0  0  0  0
   36.3120   29.5260   40.7540 C   0  0  0  0  0  0  0  0  0  0  0  0
   36.4130   30.8520   41.1210 C   0  0  0  0  0  0  0  0  0  0  0  0
   36.2100   31.0680   42.1610 H   0  0  0  0  0  0  0  0  0  0  0  0
   36.7540   31.8150   40.2080 C   0  0  0  0  0  0  0  0  0  0  0  0
   36.9200   33.1460   40.2990 N   0  0  0  0  0  0  0  0  0  0  0  0
   36.8030   33.7240   41.1730 H   0  0  0  0  0  0  0  0  0  0  0  0
   37.2620   33.6970   39.1220 C   0  0  0  0  0  0  0  0  0  0  0  0
   37.4620   34.7290   38.8750 H   0  0  0  0  0  0  0  0  0  0  0  0
   37.3060   32.6090   38.2540 C   0  0  0  0  0  3  0  0  0  0  0  0
   36.9960   31.4280   38.9000 C   0  0  0  0  0  0  0  0  0  0  0  0
   36.9050   30.1190   38.4930 C   0  0  0  0  0  3  0  0  0  0  0  0
  1  8  1  0  0  0  0
  1 22  1  0  0  0  0
  2  1  1  0  0  0  0
  3  8  2  0  0  0  0
  3  4  1  0  0  0  0
  4  5  2  0  0  0  0
  5  6  1  0  0  0  0
  5 10  1  0  0  0  0
  6 11  1  0  0  0  0
  7 12  1  0  0  0  0
  7  6  2  0  0  0  0
  8  7  1  0  0  0  0
  9  4  1  0  0  0  0
 13 14  2  0  0  0  0
 13 18  1  0  0  0  0
 14 15  1  0  0  0  0
 15 21  1  0  0  0  0
 15 16  2  0  0  0  0
 17 16  1  0  0  0  0
 17  3  1  0  0  0  0
 18 17  2  0  0  0  0
 19 13  1  0  0  0  0
 20 14  1  0  0  0  0
 22 23  1  0  0  0  0
 22 25  1  0  0  0  0
 24 23  1  0  0  0  0
 25 26  1  0  0  0  0
 27 22  1  0  0  0  0
 28 29  1  0  0  0  0
 29 30  2  0  0  0  0
 29 27  1  0  0  0  0
 30 31  1  0  0  0  0
 32 33  1  0  0  0  0
 32 30  1  0  0  0  0
 33 34  1  0  0  0  0
 35 33  1  0  0  0  0
 36 35  1  0  0  0  0
 37 38  1  0  0  0  0
 37 35  2  0  0  0  0
 38 32  2  0  0  0  0
 39 38  1  0  0  0  0
 39 28  2  0  0  0  0
M  END
>  <minimizedAffinity>
-6.16586113

$$$$
