
 OpenBabel03242523223D

 46 50  0  0  1  0  0  0  0  0999 V2000
   47.3410   32.7140   43.9340 C   0  0  0  0  0  0  0  0  0  0  0  0
   48.2720   33.2290   43.1360 C   0  0  0  0  0  0  0  0  0  0  0  0
   49.0550   32.3100   42.5100 C   0  0  0  0  0  0  0  0  0  0  0  0
   48.8310   30.9440   42.7420 N   0  0  0  0  0  0  0  0  0  0  0  0
   47.8900   30.5020   43.5490 C   0  0  0  0  0  0  0  0  0  0  0  0
   47.0810   31.3960   44.1980 N   0  0  0  0  0  0  0  0  0  0  0  0
   49.8910   32.3730   41.8440 H   0  0  0  0  0  0  0  0  0  0  0  0
   47.7700   29.4110   43.6860 H   0  0  0  0  0  0  0  0  0  0  0  0
   48.5950   34.5940   42.9620 C   0  0  1  0  0  0  0  0  0  0  0  0
   49.5410   35.1690   42.1710 C   0  0  0  0  0  0  0  0  0  0  0  0
   48.1670   35.3250   41.6580 C   0  0  1  0  0  0  0  0  0  0  0  0
   48.4220   35.1940   43.9130 H   0  0  0  0  0  0  0  0  0  0  0  0
   50.2800   34.5460   41.5970 H   0  0  0  0  0  0  0  0  0  0  0  0
   50.0420   36.1770   42.3110 H   0  0  0  0  0  0  0  0  0  0  0  0
   47.5760   36.2430   41.9470 H   0  0  0  0  0  0  0  0  0  0  0  0
   46.6230   33.8450   40.1370 C   0  0  0  0  0  3  0  0  0  0  0  0
   47.7370   34.5920   40.4670 C   0  0  0  0  0  0  0  0  0  0  0  0
   48.6580   34.6470   39.4070 C   0  0  0  0  0  0  0  0  0  0  0  0
   49.5760   35.1690   39.4800 H   0  0  0  0  0  0  0  0  0  0  0  0
   48.4650   34.0270   38.1890 C   0  0  0  0  0  0  0  0  0  0  0  0
   49.1850   33.9420   37.0570 N   0  0  0  0  0  0  0  0  0  0  0  0
   50.1190   34.3800   36.8900 H   0  0  0  0  0  0  0  0  0  0  0  0
   48.5510   33.2120   36.1470 C   0  0  0  0  0  0  0  0  0  0  0  0
   48.8930   32.9750   35.1450 H   0  0  0  0  0  0  0  0  0  0  0  0
   47.3660   32.7870   36.6700 C   0  0  0  0  0  3  0  0  0  0  0  0
   47.3380   33.3090   37.9420 C   0  0  0  0  0  0  0  0  0  0  0  0
   46.3950   33.2150   38.9390 C   0  0  0  0  0  3  0  0  0  0  0  0
   46.3160   33.4630   44.6900 C   0  0  0  0  0  0  0  0  0  0  0  0
   45.7800   33.8440   45.6920 O   0  0  0  0  0  0  0  0  0  0  0  0
   44.4140   31.7700   42.9470 Cl  0  0  0  0  0  0  0  0  0  0  0  0
   44.5090   33.5170   42.8310 C   0  0  0  0  0  0  0  0  0  0  0  0
   45.4200   34.1480   43.7090 C   0  0  0  0  0  0  0  0  0  0  0  0
   45.3930   35.5110   43.5260 C   0  0  0  0  0  0  0  0  0  0  0  0
   44.6840   36.2650   42.6980 C   0  0  0  0  0  0  0  0  0  0  0  0
   43.8150   35.5870   41.8710 C   0  0  0  0  0  0  0  0  0  0  0  0
   43.7140   34.2170   41.9240 C   0  0  0  0  0  0  0  0  0  0  0  0
   46.0440   36.1360   44.1830 H   0  0  0  0  0  0  0  0  0  0  0  0
   44.7310   37.3510   42.6230 H   0  0  0  0  0  0  0  0  0  0  0  0
   43.2040   36.1770   41.1640 H   0  0  0  0  0  0  0  0  0  0  0  0
   42.8220   33.6690   41.0600 O   0  0  0  0  0  0  0  0  0  0  0  0
   40.5260   33.1210   39.9140 O   0  0  0  0  0  0  0  0  0  0  0  0
   41.1710   33.3370   41.2640 P   0  0  0  0  0  0  0  0  0  0  0  0
   41.0030   31.9710   42.2510 O   0  0  0  0  0  0  0  0  0  0  0  0
   40.0500   31.8350   42.4790 H   0  0  0  0  0  0  0  0  0  0  0  0
   40.3840   34.5900   42.0850 O   0  0  0  0  0  0  0  0  0  0  0  0
   39.8330   35.1590   41.5250 H   0  0  0  0  0  0  0  0  0  0  0  0
  1  6  1  0  0  0  0
  1 28  1  0  0  0  0
  2  1  2  0  0  0  0
  3  4  2  0  0  0  0
  3  2  1  0  0  0  0
  4  5  1  0  0  0  0
  5  8  1  0  0  0  0
  5  6  2  0  0  0  0
  7  3  1  0  0  0  0
  9  2  1  0  0  0  0
  9 12  1  1  0  0  0
 10 14  1  0  0  0  0
 10  9  1  0  0  0  0
 11 15  1  1  0  0  0
 11 10  1  0  0  0  0
 11  9  1  0  0  0  0
 13 10  1  0  0  0  0
 16 17  1  0  0  0  0
 17 11  1  0  0  0  0
 18 19  1  0  0  0  0
 18 17  2  0  0  0  0
 20 18  1  0  0  0  0
 21 20  1  0  0  0  0
 22 21  1  0  0  0  0
 23 25  2  0  0  0  0
 23 21  1  0  0  0  0
 24 23  1  0  0  0  0
 25 26  1  0  0  0  0
 26 20  2  0  0  0  0
 26 27  1  0  0  0  0
 27 16  2  0  0  0  0
 28 29  2  0  0  0  0
 31 30  1  0  0  0  0
 31 32  1  0  0  0  0
 32 28  1  0  0  0  0
 33 32  2  0  0  0  0
 33 37  1  0  0  0  0
 34 33  1  0  0  0  0
 35 36  1  0  0  0  0
 35 34  2  0  0  0  0
 36 31  2  0  0  0  0
 38 34  1  0  0  0  0
 39 35  1  0  0  0  0
 40 42  1  0  0  0  0
 40 36  1  0  0  0  0
 41 42  2  0  0  0  0
 42 45  1  0  0  0  0
 42 43  1  0  0  0  0
 43 44  1  0  0  0  0
 46 45  1  0  0  0  0
M  END
>  <minimizedAffinity>
-7.32582092

>  <minimizedRMSD>
0.591498375

$$$$
