
 OpenBabel03252502543D

 34 37  0  0  0  0  0  0  0  0999 V2000
   38.8040   27.7830   39.4080 Br  0  0  0  0  0  0  0  0  0  0  0  0
   37.8810   27.4960   41.0760 C   0  0  0  0  0  0  0  0  0  0  0  0
   37.5550   26.1820   41.3730 C   0  0  0  0  0  0  0  0  0  0  0  0
   36.8920   26.0280   42.5840 C   0  0  0  0  0  0  0  0  0  0  0  0
   36.5700   27.0620   43.4400 C   0  0  0  0  0  0  0  0  0  0  0  0
   36.9290   28.3340   43.0720 C   0  0  0  0  0  0  0  0  0  0  0  0
   37.5980   28.5760   41.8710 C   0  0  0  0  0  0  0  0  0  0  0  0
   36.5970   25.0320   42.8980 H   0  0  0  0  0  0  0  0  0  0  0  0
   36.0580   26.8640   44.3570 H   0  0  0  0  0  0  0  0  0  0  0  0
   36.6640   29.1240   43.7630 H   0  0  0  0  0  0  0  0  0  0  0  0
   39.1870   30.3370   41.9970 C   0  0  0  0  0  3  0  0  0  0  0  0
   37.9490   29.9330   41.5400 C   0  0  0  0  0  0  0  0  0  0  0  0
   37.2090   30.8510   40.8380 C   0  0  0  0  0  0  0  0  0  0  0  0
   36.2440   30.5050   40.4930 H   0  0  0  0  0  0  0  0  0  0  0  0
   37.6390   32.1210   40.5770 C   0  0  0  0  0  0  0  0  0  0  0  0
   37.0190   33.0950   39.9130 N   0  0  0  0  0  0  0  0  0  0  0  0
   36.0750   33.0510   39.4670 H   0  0  0  0  0  0  0  0  0  0  0  0
   37.8230   34.1610   39.9110 C   0  0  0  0  0  0  0  0  0  0  0  0
   37.5770   35.1060   39.4390 H   0  0  0  0  0  0  0  0  0  0  0  0
   38.9850   33.8380   40.6000 C   0  0  0  0  0  3  0  0  0  0  0  0
   38.8760   32.5320   41.0310 C   0  0  0  0  0  0  0  0  0  0  0  0
   39.6310   31.6200   41.7380 C   0  0  0  0  0  3  0  0  0  0  0  0
   37.8400   25.0130   40.5500 C   0  0  0  0  0  0  0  0  0  0  0  0
   38.7450   25.1730   39.9340 H   0  0  0  0  0  0  0  0  0  0  0  0
   38.0430   24.1520   41.2480 H   0  0  0  0  0  0  0  0  0  0  0  0
   35.1830   24.7990   37.9210 C   0  0  0  0  0  0  0  0  0  0  0  0
   34.4900   23.6480   38.3160 C   0  0  0  0  0  0  0  0  0  0  0  0
   34.9300   22.9790   39.4460 C   0  0  0  0  0  0  0  0  0  0  0  0
   36.0110   23.4550   40.1320 N   0  0  0  0  0  0  0  0  0  0  0  0
   36.6680   24.5830   39.7220 C   0  0  0  0  0  0  0  0  0  0  0  0
   36.2300   25.2290   38.6170 N   0  0  0  0  0  0  0  0  0  0  0  0
   34.8560   25.3310   37.0490 H   0  0  0  0  0  0  0  0  0  0  0  0
   33.6330   23.2660   37.7760 H   0  0  0  0  0  0  0  0  0  0  0  0
   34.4600   22.0780   39.8320 H   0  0  0  0  0  0  0  0  0  0  0  0
  1  2  1  0  0  0  0
  2  3  2  0  0  0  0
  2  7  1  0  0  0  0
  3  4  1  0  0  0  0
  4  8  1  0  0  0  0
  4  5  2  0  0  0  0
  5  9  1  0  0  0  0
  6  5  1  0  0  0  0
  6 10  1  0  0  0  0
  7  6  2  0  0  0  0
 12  7  1  0  0  0  0
 12 11  2  0  0  0  0
 13 12  1  0  0  0  0
 14 13  1  0  0  0  0
 15 13  2  0  0  0  0
 15 21  1  0  0  0  0
 16 15  1  0  0  0  0
 17 16  1  0  0  0  0
 18 16  1  0  0  0  0
 18 20  2  0  0  0  0
 19 18  1  0  0  0  0
 20 21  1  0  0  0  0
 21 22  2  0  0  0  0
 22 11  1  0  0  0  0
 23 25  1  0  0  0  0
 23  3  1  0  0  0  0
 24 23  1  0  0  0  0
 26 27  2  0  0  0  0
 26 31  1  0  0  0  0
 27 28  1  0  0  0  0
 28 34  1  0  0  0  0
 28 29  2  0  0  0  0
 30 29  1  0  0  0  0
 30 23  1  0  0  0  0
 31 30  2  0  0  0  0
 32 26  1  0  0  0  0
 33 27  1  0  0  0  0
M  END
>  <minimizedAffinity>
-5.91140366

$$$$

 OpenBabel03252502543D

 34 37  0  0  0  0  0  0  0  0999 V2000
   38.6870   27.9870   39.1890 Br  0  0  0  0  0  0  0  0  0  0  0  0
   37.8490   27.7290   40.9060 C   0  0  0  0  0  0  0  0  0  0  0  0
   37.5940   26.4150   41.2670 C   0  0  0  0  0  0  0  0  0  0  0  0
   36.9900   26.2820   42.5120 C   0  0  0  0  0  0  0  0  0  0  0  0
   36.6590   27.3360   43.3400 C   0  0  0  0  0  0  0  0  0  0  0  0
   36.9450   28.6050   42.9070 C   0  0  0  0  0  0  0  0  0  0  0  0
   37.5520   28.8270   41.6700 C   0  0  0  0  0  0  0  0  0  0  0  0
   36.7540   25.2880   42.8760 H   0  0  0  0  0  0  0  0  0  0  0  0
   36.1950   27.1530   44.2850 H   0  0  0  0  0  0  0  0  0  0  0  0
   36.6740   29.4100   43.5780 H   0  0  0  0  0  0  0  0  0  0  0  0
   36.7850   30.8180   40.6250 C   0  0  0  0  0  3  0  0  0  0  0  0
   37.8270   30.1830   41.2720 C   0  0  0  0  0  0  0  0  0  0  0  0
   38.9820   30.9020   41.4570 C   0  0  0  0  0  0  0  0  0  0  0  0
   39.7790   30.3770   41.9650 H   0  0  0  0  0  0  0  0  0  0  0  0
   39.1390   32.1920   41.0360 C   0  0  0  0  0  0  0  0  0  0  0  0
   40.2010   32.9880   41.1560 N   0  0  0  0  0  0  0  0  0  0  0  0
   41.1160   32.7530   41.6020 H   0  0  0  0  0  0  0  0  0  0  0  0
   39.8930   34.1610   40.5970 C   0  0  0  0  0  0  0  0  0  0  0  0
   40.5720   35.0060   40.5490 H   0  0  0  0  0  0  0  0  0  0  0  0
   38.5940   34.0920   40.1130 C   0  0  0  0  0  3  0  0  0  0  0  0
   38.1020   32.8330   40.3900 C   0  0  0  0  0  0  0  0  0  0  0  0
   36.9350   32.1230   40.1970 C   0  0  0  0  0  3  0  0  0  0  0  0
   37.8970   25.2270   40.4790 C   0  0  0  0  0  0  0  0  0  0  0  0
   38.7870   25.3900   39.8420 H   0  0  0  0  0  0  0  0  0  0  0  0
   38.1350   24.3950   41.2010 H   0  0  0  0  0  0  0  0  0  0  0  0
   35.2150   24.8440   37.8950 C   0  0  0  0  0  0  0  0  0  0  0  0
   34.5450   23.7020   38.3540 C   0  0  0  0  0  0  0  0  0  0  0  0
   35.0090   23.0960   39.5080 C   0  0  0  0  0  0  0  0  0  0  0  0
   36.0900   23.6220   40.1590 N   0  0  0  0  0  0  0  0  0  0  0  0
   36.7230   24.7390   39.6860 C   0  0  0  0  0  0  0  0  0  0  0  0
   36.2620   25.3240   38.5570 N   0  0  0  0  0  0  0  0  0  0  0  0
   34.8690   25.3280   37.0020 H   0  0  0  0  0  0  0  0  0  0  0  0
   33.6880   23.2810   37.8430 H   0  0  0  0  0  0  0  0  0  0  0  0
   34.5580   22.2060   39.9430 H   0  0  0  0  0  0  0  0  0  0  0  0
  1  2  1  0  0  0  0
  2  3  2  0  0  0  0
  2  7  1  0  0  0  0
  3  4  1  0  0  0  0
  4  8  1  0  0  0  0
  4  5  2  0  0  0  0
  5  9  1  0  0  0  0
  6  5  1  0  0  0  0
  6 10  1  0  0  0  0
  7  6  2  0  0  0  0
 11 12  1  0  0  0  0
 12 13  2  0  0  0  0
 12  7  1  0  0  0  0
 13 14  1  0  0  0  0
 15 16  1  0  0  0  0
 15 13  1  0  0  0  0
 16 17  1  0  0  0  0
 18 16  1  0  0  0  0
 19 18  1  0  0  0  0
 20 21  1  0  0  0  0
 20 18  2  0  0  0  0
 21 15  2  0  0  0  0
 22 21  1  0  0  0  0
 22 11  2  0  0  0  0
 23 25  1  0  0  0  0
 23  3  1  0  0  0  0
 24 23  1  0  0  0  0
 26 27  2  0  0  0  0
 26 31  1  0  0  0  0
 27 28  1  0  0  0  0
 28 34  1  0  0  0  0
 28 29  2  0  0  0  0
 30 29  1  0  0  0  0
 30 23  1  0  0  0  0
 31 30  2  0  0  0  0
 32 26  1  0  0  0  0
 33 27  1  0  0  0  0
M  END
>  <minimizedAffinity>
-5.90116405

$$$$

 OpenBabel03252502543D

 34 37  0  0  0  0  0  0  0  0999 V2000
   39.8500   28.0850   39.9400 Br  0  0  0  0  0  0  0  0  0  0  0  0
   38.6210   27.8730   41.4110 C   0  0  0  0  0  0  0  0  0  0  0  0
   37.2860   28.1140   41.1280 C   0  0  0  0  0  0  0  0  0  0  0  0
   36.4420   27.9480   42.2200 C   0  0  0  0  0  0  0  0  0  0  0  0
   36.8570   27.5800   43.4830 C   0  0  0  0  0  0  0  0  0  0  0  0
   38.1970   27.3600   43.6790 C   0  0  0  0  0  0  0  0  0  0  0  0
   39.1120   27.5040   42.6360 C   0  0  0  0  0  0  0  0  0  0  0  0
   35.3780   28.1160   42.0900 H   0  0  0  0  0  0  0  0  0  0  0  0
   36.1470   27.4730   44.2740 H   0  0  0  0  0  0  0  0  0  0  0  0
   38.4920   27.0730   44.6810 H   0  0  0  0  0  0  0  0  0  0  0  0
   41.2610   28.3950   43.1180 C   0  0  0  0  0  3  0  0  0  0  0  0
   40.5060   27.2590   42.9040 C   0  0  0  0  0  0  0  0  0  0  0  0
   41.1560   26.0520   42.9700 C   0  0  0  0  0  0  0  0  0  0  0  0
   40.5380   25.1820   42.7980 H   0  0  0  0  0  0  0  0  0  0  0  0
   42.4910   25.9310   43.2330 C   0  0  0  0  0  0  0  0  0  0  0  0
   43.2300   24.8270   43.3230 N   0  0  0  0  0  0  0  0  0  0  0  0
   42.9040   23.8400   43.2030 H   0  0  0  0  0  0  0  0  0  0  0  0
   44.4830   25.1980   43.5970 C   0  0  0  0  0  0  0  0  0  0  0  0
   45.3060   24.5030   43.7260 H   0  0  0  0  0  0  0  0  0  0  0  0
   44.5250   26.5830   43.6800 C   0  0  0  0  0  3  0  0  0  0  0  0
   43.2510   27.0630   43.4490 C   0  0  0  0  0  0  0  0  0  0  0  0
   42.6120   28.2830   43.3850 C   0  0  0  0  0  3  0  0  0  0  0  0
   36.7330   28.5070   39.8380 C   0  0  0  0  0  0  0  0  0  0  0  0
   37.1210   27.8640   39.0260 H   0  0  0  0  0  0  0  0  0  0  0  0
   35.6160   28.3610   39.8920 H   0  0  0  0  0  0  0  0  0  0  0  0
   36.9310   32.2360   40.1130 C   0  0  0  0  0  0  0  0  0  0  0  0
   37.3280   32.5920   38.8170 C   0  0  0  0  0  0  0  0  0  0  0  0
   37.5190   31.5780   37.8940 C   0  0  0  0  0  0  0  0  0  0  0  0
   37.3150   30.2790   38.2670 N   0  0  0  0  0  0  0  0  0  0  0  0
   36.9260   29.9620   39.5400 C   0  0  0  0  0  0  0  0  0  0  0  0
   36.7430   30.9600   40.4350 N   0  0  0  0  0  0  0  0  0  0  0  0
   36.7780   33.0070   40.8420 H   0  0  0  0  0  0  0  0  0  0  0  0
   37.4910   33.6180   38.5160 H   0  0  0  0  0  0  0  0  0  0  0  0
   37.8270   31.7520   36.8660 H   0  0  0  0  0  0  0  0  0  0  0  0
  1  2  1  0  0  0  0
  2  7  1  0  0  0  0
  3  2  2  0  0  0  0
  3  4  1  0  0  0  0
  4  5  2  0  0  0  0
  5  6  1  0  0  0  0
  5  9  1  0  0  0  0
  6 10  1  0  0  0  0
  7 12  1  0  0  0  0
  7  6  2  0  0  0  0
  8  4  1  0  0  0  0
 11 22  1  0  0  0  0
 12 13  1  0  0  0  0
 12 11  2  0  0  0  0
 13 15  2  0  0  0  0
 14 13  1  0  0  0  0
 15 16  1  0  0  0  0
 15 21  1  0  0  0  0
 16 18  1  0  0  0  0
 17 16  1  0  0  0  0
 18 20  2  0  0  0  0
 18 19  1  0  0  0  0
 21 20  1  0  0  0  0
 22 21  2  0  0  0  0
 23 25  1  0  0  0  0
 23  3  1  0  0  0  0
 24 23  1  0  0  0  0
 26 31  1  0  0  0  0
 26 32  1  0  0  0  0
 27 26  2  0  0  0  0
 28 29  2  0  0  0  0
 28 27  1  0  0  0  0
 29 30  1  0  0  0  0
 30 23  1  0  0  0  0
 30 31  2  0  0  0  0
 33 27  1  0  0  0  0
 34 28  1  0  0  0  0
M  END
>  <minimizedAffinity>
-5.88712025

$$$$

 OpenBabel03252502543D

 34 37  0  0  0  0  0  0  0  0999 V2000
   39.3340   27.5220   39.6380 Br  0  0  0  0  0  0  0  0  0  0  0  0
   38.4070   27.7900   41.3070 C   0  0  0  0  0  0  0  0  0  0  0  0
   38.6330   29.0030   41.9400 C   0  0  0  0  0  0  0  0  0  0  0  0
   37.9440   29.1470   43.1380 C   0  0  0  0  0  0  0  0  0  0  0  0
   37.1030   28.1950   43.6800 C   0  0  0  0  0  0  0  0  0  0  0  0
   36.9340   27.0220   42.9890 C   0  0  0  0  0  0  0  0  0  0  0  0
   37.5900   26.7960   41.7780 C   0  0  0  0  0  0  0  0  0  0  0  0
   38.0610   30.0660   43.7030 H   0  0  0  0  0  0  0  0  0  0  0  0
   36.6070   28.3800   44.6080 H   0  0  0  0  0  0  0  0  0  0  0  0
   36.2690   26.2960   43.4390 H   0  0  0  0  0  0  0  0  0  0  0  0
   38.1220   24.4900   41.5800 C   0  0  0  0  0  3  0  0  0  0  0  0
   37.3720   25.5450   41.1000 C   0  0  0  0  0  0  0  0  0  0  0  0
   36.5220   25.2860   40.0540 C   0  0  0  0  0  0  0  0  0  0  0  0
   35.9480   26.1320   39.7010 H   0  0  0  0  0  0  0  0  0  0  0  0
   36.3900   24.0530   39.4800 C   0  0  0  0  0  0  0  0  0  0  0  0
   35.6070   23.6790   38.4700 N   0  0  0  0  0  0  0  0  0  0  0  0
   34.9440   24.2820   37.9310 H   0  0  0  0  0  0  0  0  0  0  0  0
   35.8150   22.3780   38.2550 C   0  0  0  0  0  0  0  0  0  0  0  0
   35.3100   21.8020   37.4880 H   0  0  0  0  0  0  0  0  0  0  0  0
   36.7620   21.9260   39.1650 C   0  0  0  0  0  3  0  0  0  0  0  0
   37.1370   22.9940   39.9550 C   0  0  0  0  0  0  0  0  0  0  0  0
   37.9950   23.2390   41.0060 C   0  0  0  0  0  3  0  0  0  0  0  0
   39.4960   30.0780   41.4670 C   0  0  0  0  0  0  0  0  0  0  0  0
   40.1280   30.4700   42.2860 H   0  0  0  0  0  0  0  0  0  0  0  0
   40.1770   29.6420   40.6810 H   0  0  0  0  0  0  0  0  0  0  0  0
   37.0730   31.9750   39.3340 C   0  0  0  0  0  0  0  0  0  0  0  0
   37.4600   33.2990   39.5800 C   0  0  0  0  0  0  0  0  0  0  0  0
   38.5150   33.5170   40.4490 C   0  0  0  0  0  0  0  0  0  0  0  0
   39.1400   32.4510   41.0320 N   0  0  0  0  0  0  0  0  0  0  0  0
   38.7390   31.1690   40.7720 C   0  0  0  0  0  0  0  0  0  0  0  0
   37.7070   30.9660   39.9220 N   0  0  0  0  0  0  0  0  0  0  0  0
   36.2580   31.7860   38.6630 H   0  0  0  0  0  0  0  0  0  0  0  0
   36.9690   34.1470   39.1210 H   0  0  0  0  0  0  0  0  0  0  0  0
   38.8890   34.5060   40.7040 H   0  0  0  0  0  0  0  0  0  0  0  0
  1  2  1  0  0  0  0
  2  7  2  0  0  0  0
  2  3  1  0  0  0  0
  3  4  2  0  0  0  0
  4  5  1  0  0  0  0
  4  8  1  0  0  0  0
  5  9  1  0  0  0  0
  6 10  1  0  0  0  0
  6  5  2  0  0  0  0
  7  6  1  0  0  0  0
 12 11  1  0  0  0  0
 12  7  1  0  0  0  0
 13 12  2  0  0  0  0
 14 13  1  0  0  0  0
 15 21  2  0  0  0  0
 15 13  1  0  0  0  0
 16 15  1  0  0  0  0
 17 16  1  0  0  0  0
 18 16  1  0  0  0  0
 18 20  2  0  0  0  0
 19 18  1  0  0  0  0
 20 21  1  0  0  0  0
 21 22  1  0  0  0  0
 22 11  2  0  0  0  0
 23  3  1  0  0  0  0
 23 24  1  0  0  0  0
 25 23  1  0  0  0  0
 26 27  2  0  0  0  0
 26 31  1  0  0  0  0
 27 28  1  0  0  0  0
 28 34  1  0  0  0  0
 28 29  2  0  0  0  0
 30 29  1  0  0  0  0
 30 23  1  0  0  0  0
 31 30  2  0  0  0  0
 32 26  1  0  0  0  0
 33 27  1  0  0  0  0
M  END
>  <minimizedAffinity>
-5.87015629

$$$$

 OpenBabel03252502543D

 34 37  0  0  0  0  0  0  0  0999 V2000
   37.8240   28.1450   39.0940 Br  0  0  0  0  0  0  0  0  0  0  0  0
   37.4810   27.9080   40.9760 C   0  0  0  0  0  0  0  0  0  0  0  0
   37.1690   26.6190   41.3800 C   0  0  0  0  0  0  0  0  0  0  0  0
   36.9300   26.5000   42.7440 C   0  0  0  0  0  0  0  0  0  0  0  0
   36.9870   27.5440   43.6450 C   0  0  0  0  0  0  0  0  0  0  0  0
   37.3030   28.7890   43.1630 C   0  0  0  0  0  0  0  0  0  0  0  0
   37.5580   28.9960   41.8070 C   0  0  0  0  0  0  0  0  0  0  0  0
   36.6780   25.5260   43.1490 H   0  0  0  0  0  0  0  0  0  0  0  0
   36.7900   27.3740   44.6810 H   0  0  0  0  0  0  0  0  0  0  0  0
   37.3410   29.5880   43.8930 H   0  0  0  0  0  0  0  0  0  0  0  0
   36.8410   31.0100   40.7730 C   0  0  0  0  0  3  0  0  0  0  0  0
   37.8850   30.3250   41.3620 C   0  0  0  0  0  0  0  0  0  0  0  0
   39.0900   30.9770   41.4540 C   0  0  0  0  0  0  0  0  0  0  0  0
   39.8870   30.4150   41.9200 H   0  0  0  0  0  0  0  0  0  0  0  0
   39.2940   32.2480   40.9970 C   0  0  0  0  0  0  0  0  0  0  0  0
   40.4050   32.9810   41.0290 N   0  0  0  0  0  0  0  0  0  0  0  0
   41.3340   32.6990   41.4180 H   0  0  0  0  0  0  0  0  0  0  0  0
   40.1300   34.1600   40.4670 C   0  0  0  0  0  0  0  0  0  0  0  0
   40.8520   34.9620   40.3560 H   0  0  0  0  0  0  0  0  0  0  0  0
   38.7990   34.1610   40.0720 C   0  0  0  0  0  3  0  0  0  0  0  0
   38.2540   32.9380   40.4080 C   0  0  0  0  0  0  0  0  0  0  0  0
   37.0370   32.2970   40.3080 C   0  0  0  0  0  3  0  0  0  0  0  0
   37.0770   25.4430   40.5240 C   0  0  0  0  0  0  0  0  0  0  0  0
   36.5630   24.6120   41.0430 H   0  0  0  0  0  0  0  0  0  0  0  0
   36.4580   25.7280   39.6260 H   0  0  0  0  0  0  0  0  0  0  0  0
   40.7360   24.7990   40.0580 C   0  0  0  0  0  0  0  0  0  0  0  0
   40.7540   24.1800   38.8010 C   0  0  0  0  0  0  0  0  0  0  0  0
   39.5460   23.9960   38.1490 C   0  0  0  0  0  0  0  0  0  0  0  0
   38.3890   24.4190   38.7420 N   0  0  0  0  0  0  0  0  0  0  0  0
   38.4040   25.0210   39.9710 C   0  0  0  0  0  0  0  0  0  0  0  0
   39.5890   25.1950   40.5990 N   0  0  0  0  0  0  0  0  0  0  0  0
   41.6620   24.9500   40.5770 H   0  0  0  0  0  0  0  0  0  0  0  0
   41.6670   23.8430   38.3270 H   0  0  0  0  0  0  0  0  0  0  0  0
   39.4560   23.5270   37.1730 H   0  0  0  0  0  0  0  0  0  0  0  0
  1  2  1  0  0  0  0
  2  3  2  0  0  0  0
  2  7  1  0  0  0  0
  3  4  1  0  0  0  0
  4  8  1  0  0  0  0
  4  5  2  0  0  0  0
  5  9  1  0  0  0  0
  6  5  1  0  0  0  0
  6 10  1  0  0  0  0
  7  6  2  0  0  0  0
 11 12  1  0  0  0  0
 12 13  2  0  0  0  0
 12  7  1  0  0  0  0
 13 14  1  0  0  0  0
 15 16  1  0  0  0  0
 15 13  1  0  0  0  0
 16 17  1  0  0  0  0
 18 16  1  0  0  0  0
 19 18  1  0  0  0  0
 20 21  1  0  0  0  0
 20 18  2  0  0  0  0
 21 15  2  0  0  0  0
 22 21  1  0  0  0  0
 22 11  2  0  0  0  0
 23 24  1  0  0  0  0
 23  3  1  0  0  0  0
 25 23  1  0  0  0  0
 26 32  1  0  0  0  0
 26 31  1  0  0  0  0
 27 26  2  0  0  0  0
 28 29  2  0  0  0  0
 28 27  1  0  0  0  0
 29 30  1  0  0  0  0
 30 23  1  0  0  0  0
 30 31  2  0  0  0  0
 33 27  1  0  0  0  0
 34 28  1  0  0  0  0
M  END
>  <minimizedAffinity>
-5.82275438

$$$$

 OpenBabel03252502543D

 34 37  0  0  0  0  0  0  0  0999 V2000
   40.5150   29.7120   41.7630 Br  0  0  0  0  0  0  0  0  0  0  0  0
   38.9940   30.7200   41.1400 C   0  0  0  0  0  0  0  0  0  0  0  0
   39.2300   32.0520   40.8360 C   0  0  0  0  0  0  0  0  0  0  0  0
   38.1030   32.7330   40.3920 C   0  0  0  0  0  0  0  0  0  0  0  0
   36.8490   32.1720   40.2550 C   0  0  0  0  0  0  0  0  0  0  0  0
   36.7010   30.8480   40.5780 C   0  0  0  0  0  0  0  0  0  0  0  0
   37.7820   30.0900   41.0310 C   0  0  0  0  0  0  0  0  0  0  0  0
   38.1940   33.7820   40.1300 H   0  0  0  0  0  0  0  0  0  0  0  0
   36.0290   32.7630   39.9070 H   0  0  0  0  0  0  0  0  0  0  0  0
   35.7070   30.4360   40.4600 H   0  0  0  0  0  0  0  0  0  0  0  0
   37.1960   28.4680   42.6640 C   0  0  0  0  0  3  0  0  0  0  0  0
   37.5630   28.7040   41.3550 C   0  0  0  0  0  0  0  0  0  0  0  0
   37.6760   27.6140   40.5280 C   0  0  0  0  0  0  0  0  0  0  0  0
   37.9650   27.8310   39.5090 H   0  0  0  0  0  0  0  0  0  0  0  0
   37.4440   26.3320   40.9390 C   0  0  0  0  0  0  0  0  0  0  0  0
   37.5190   25.2020   40.2390 N   0  0  0  0  0  0  0  0  0  0  0  0
   37.7750   25.1020   39.2300 H   0  0  0  0  0  0  0  0  0  0  0  0
   37.2060   24.1950   41.0580 C   0  0  0  0  0  0  0  0  0  0  0  0
   37.1840   23.1530   40.7580 H   0  0  0  0  0  0  0  0  0  0  0  0
   36.9270   24.7180   42.3140 C   0  0  0  0  0  3  0  0  0  0  0  0
   37.0760   26.0890   42.2470 C   0  0  0  0  0  0  0  0  0  0  0  0
   36.9590   27.1740   43.0890 C   0  0  0  0  0  3  0  0  0  0  0  0
   40.5040   32.7500   40.9410 C   0  0  0  0  0  0  0  0  0  0  0  0
   40.3910   33.7000   41.4970 H   0  0  0  0  0  0  0  0  0  0  0  0
   41.2040   32.0870   41.5260 H   0  0  0  0  0  0  0  0  0  0  0  0
   41.4850   32.4960   37.3370 C   0  0  0  0  0  0  0  0  0  0  0  0
   42.5010   33.4570   37.2540 C   0  0  0  0  0  0  0  0  0  0  0  0
   42.8270   34.1590   38.4020 C   0  0  0  0  0  0  0  0  0  0  0  0
   42.1580   33.8980   39.5650 N   0  0  0  0  0  0  0  0  0  0  0  0
   41.1700   32.9530   39.6140 C   0  0  0  0  0  0  0  0  0  0  0  0
   40.8590   32.2720   38.4880 N   0  0  0  0  0  0  0  0  0  0  0  0
   41.2190   31.9420   36.4580 H   0  0  0  0  0  0  0  0  0  0  0  0
   43.0340   33.6680   36.3360 H   0  0  0  0  0  0  0  0  0  0  0  0
   43.5990   34.9240   38.4400 H   0  0  0  0  0  0  0  0  0  0  0  0
  2  1  1  0  0  0  0
  3 23  1  0  0  0  0
  3  2  2  0  0  0  0
  4  3  1  0  0  0  0
  5  4  2  0  0  0  0
  5  6  1  0  0  0  0
  6  7  2  0  0  0  0
  7  2  1  0  0  0  0
  7 12  1  0  0  0  0
  8  4  1  0  0  0  0
  9  5  1  0  0  0  0
 10  6  1  0  0  0  0
 11 22  1  0  0  0  0
 12 11  2  0  0  0  0
 13 15  2  0  0  0  0
 13 12  1  0  0  0  0
 14 13  1  0  0  0  0
 15 21  1  0  0  0  0
 16 15  1  0  0  0  0
 16 18  1  0  0  0  0
 17 16  1  0  0  0  0
 18 20  2  0  0  0  0
 19 18  1  0  0  0  0
 21 20  1  0  0  0  0
 21 22  2  0  0  0  0
 23 24  1  0  0  0  0
 23 25  1  0  0  0  0
 26 31  1  0  0  0  0
 27 26  2  0  0  0  0
 27 28  1  0  0  0  0
 28 34  1  0  0  0  0
 28 29  2  0  0  0  0
 29 30  1  0  0  0  0
 30 23  1  0  0  0  0
 31 30  2  0  0  0  0
 32 26  1  0  0  0  0
 33 27  1  0  0  0  0
M  END
>  <minimizedAffinity>
-5.81390572

$$$$

 OpenBabel03252502543D

 34 37  0  0  0  0  0  0  0  0999 V2000
   40.7150   30.1080   39.3660 Br  0  0  0  0  0  0  0  0  0  0  0  0
   39.5130   31.5940   39.6170 C   0  0  0  0  0  0  0  0  0  0  0  0
   38.1720   31.2750   39.7640 C   0  0  0  0  0  0  0  0  0  0  0  0
   37.3480   32.3800   39.9410 C   0  0  0  0  0  0  0  0  0  0  0  0
   37.7850   33.6880   39.9730 C   0  0  0  0  0  0  0  0  0  0  0  0
   39.1290   33.9190   39.8200 C   0  0  0  0  0  0  0  0  0  0  0  0
   40.0260   32.8650   39.6380 C   0  0  0  0  0  0  0  0  0  0  0  0
   36.2810   32.2230   40.0640 H   0  0  0  0  0  0  0  0  0  0  0  0
   37.0890   34.4860   40.1140 H   0  0  0  0  0  0  0  0  0  0  0  0
   39.4410   34.9550   39.8510 H   0  0  0  0  0  0  0  0  0  0  0  0
   42.1040   33.3800   40.6660 C   0  0  0  0  0  3  0  0  0  0  0  0
   41.4240   33.1710   39.4830 C   0  0  0  0  0  0  0  0  0  0  0  0
   42.1440   33.2760   38.3190 C   0  0  0  0  0  0  0  0  0  0  0  0
   41.5840   33.1070   37.4100 H   0  0  0  0  0  0  0  0  0  0  0  0
   43.4770   33.5730   38.2840 C   0  0  0  0  0  0  0  0  0  0  0  0
   44.2790   33.7020   37.2290 N   0  0  0  0  0  0  0  0  0  0  0  0
   44.0160   33.5950   36.2220 H   0  0  0  0  0  0  0  0  0  0  0  0
   45.5000   33.9970   37.6800 C   0  0  0  0  0  0  0  0  0  0  0  0
   46.3610   34.1580   37.0400 H   0  0  0  0  0  0  0  0  0  0  0  0
   45.4560   34.0540   39.0670 C   0  0  0  0  0  3  0  0  0  0  0  0
   44.1630   33.7830   39.4640 C   0  0  0  0  0  0  0  0  0  0  0  0
   43.4520   33.6810   40.6410 C   0  0  0  0  0  3  0  0  0  0  0  0
   37.5950   29.9370   39.7450 C   0  0  0  0  0  0  0  0  0  0  0  0
   36.6170   29.9320   39.2290 H   0  0  0  0  0  0  0  0  0  0  0  0
   38.2980   29.2750   39.1630 H   0  0  0  0  0  0  0  0  0  0  0  0
   38.1240   29.1280   43.3630 C   0  0  0  0  0  0  0  0  0  0  0  0
   37.2260   28.0680   43.5470 C   0  0  0  0  0  0  0  0  0  0  0  0
   36.4720   27.6570   42.4600 C   0  0  0  0  0  0  0  0  0  0  0  0
   36.6250   28.2870   41.2570 N   0  0  0  0  0  0  0  0  0  0  0  0
   37.5110   29.3200   41.1080 C   0  0  0  0  0  0  0  0  0  0  0  0
   38.2420   29.7130   42.1760 N   0  0  0  0  0  0  0  0  0  0  0  0
   38.7160   29.4590   44.1930 H   0  0  0  0  0  0  0  0  0  0  0  0
   37.1010   27.5650   44.4970 H   0  0  0  0  0  0  0  0  0  0  0  0
   35.7500   26.8460   42.5020 H   0  0  0  0  0  0  0  0  0  0  0  0
  1  2  1  0  0  0  0
  2  7  2  0  0  0  0
  2  3  1  0  0  0  0
  3  4  2  0  0  0  0
  4  5  1  0  0  0  0
  4  8  1  0  0  0  0
  5  9  1  0  0  0  0
  6 10  1  0  0  0  0
  6  5  2  0  0  0  0
  7  6  1  0  0  0  0
 12  7  1  0  0  0  0
 12 11  2  0  0  0  0
 13 12  1  0  0  0  0
 14 13  1  0  0  0  0
 15 13  2  0  0  0  0
 15 21  1  0  0  0  0
 16 18  1  0  0  0  0
 16 15  1  0  0  0  0
 17 16  1  0  0  0  0
 18 20  2  0  0  0  0
 19 18  1  0  0  0  0
 20 21  1  0  0  0  0
 21 22  2  0  0  0  0
 22 11  1  0  0  0  0
 23  3  1  0  0  0  0
 23 30  1  0  0  0  0
 24 23  1  0  0  0  0
 25 23  1  0  0  0  0
 26 27  1  0  0  0  0
 26 32  1  0  0  0  0
 27 33  1  0  0  0  0
 28 34  1  0  0  0  0
 28 27  2  0  0  0  0
 29 28  1  0  0  0  0
 30 29  2  0  0  0  0
 30 31  1  0  0  0  0
 31 26  2  0  0  0  0
M  END
>  <minimizedAffinity>
-5.5767746

$$$$

 OpenBabel03252502543D

 34 37  0  0  0  0  0  0  0  0999 V2000
   36.7990   27.9620   40.7840 Br  0  0  0  0  0  0  0  0  0  0  0  0
   38.2350   27.4820   41.9780 C   0  0  0  0  0  0  0  0  0  0  0  0
   38.1020   26.2670   42.6320 C   0  0  0  0  0  0  0  0  0  0  0  0
   39.1610   25.9680   43.4800 C   0  0  0  0  0  0  0  0  0  0  0  0
   40.2610   26.7790   43.6800 C   0  0  0  0  0  0  0  0  0  0  0  0
   40.3150   27.9650   42.9930 C   0  0  0  0  0  0  0  0  0  0  0  0
   39.2920   28.3420   42.1210 C   0  0  0  0  0  0  0  0  0  0  0  0
   39.1420   25.0360   44.0350 H   0  0  0  0  0  0  0  0  0  0  0  0
   41.0370   26.4800   44.3500 H   0  0  0  0  0  0  0  0  0  0  0  0
   41.1890   28.5790   43.1700 H   0  0  0  0  0  0  0  0  0  0  0  0
   39.9900   29.5200   40.1800 C   0  0  0  0  0  3  0  0  0  0  0  0
   39.4070   29.5990   41.4290 C   0  0  0  0  0  0  0  0  0  0  0  0
   39.0110   30.8410   41.8590 C   0  0  0  0  0  0  0  0  0  0  0  0
   38.5580   30.8710   42.8400 H   0  0  0  0  0  0  0  0  0  0  0  0
   39.1670   31.9780   41.1170 C   0  0  0  0  0  0  0  0  0  0  0  0
   38.8270   33.2290   41.4220 N   0  0  0  0  0  0  0  0  0  0  0  0
   38.3720   33.5610   42.3020 H   0  0  0  0  0  0  0  0  0  0  0  0
   39.1720   34.0060   40.3920 C   0  0  0  0  0  0  0  0  0  0  0  0
   39.0130   35.0780   40.3610 H   0  0  0  0  0  0  0  0  0  0  0  0
   39.7480   33.2080   39.4110 C   0  0  0  0  0  3  0  0  0  0  0  0
   39.7490   31.9060   39.8680 C   0  0  0  0  0  0  0  0  0  0  0  0
   40.1520   30.6640   39.4220 C   0  0  0  0  0  3  0  0  0  0  0  0
   36.9920   25.3320   42.5030 C   0  0  0  0  0  0  0  0  0  0  0  0
   36.7630   24.8500   43.4720 H   0  0  0  0  0  0  0  0  0  0  0  0
   36.0860   25.9270   42.1890 H   0  0  0  0  0  0  0  0  0  0  0  0
   38.4150   22.6490   40.3150 C   0  0  0  0  0  0  0  0  0  0  0  0
   37.4210   22.5280   39.3360 C   0  0  0  0  0  0  0  0  0  0  0  0
   36.3070   23.3440   39.4360 C   0  0  0  0  0  0  0  0  0  0  0  0
   36.2120   24.2310   40.4710 N   0  0  0  0  0  0  0  0  0  0  0  0
   37.2010   24.3260   41.4130 C   0  0  0  0  0  0  0  0  0  0  0  0
   38.2850   23.5240   41.3060 N   0  0  0  0  0  0  0  0  0  0  0  0
   39.2860   22.0250   40.2530 H   0  0  0  0  0  0  0  0  0  0  0  0
   37.4900   21.8270   38.5140 H   0  0  0  0  0  0  0  0  0  0  0  0
   35.4820   23.3250   38.7280 H   0  0  0  0  0  0  0  0  0  0  0  0
  1  2  1  0  0  0  0
  2  7  2  0  0  0  0
  2  3  1  0  0  0  0
  3  4  2  0  0  0  0
  4  5  1  0  0  0  0
  4  8  1  0  0  0  0
  5  9  1  0  0  0  0
  6 10  1  0  0  0  0
  6  5  2  0  0  0  0
  7  6  1  0  0  0  0
 11 12  1  0  0  0  0
 12 13  2  0  0  0  0
 12  7  1  0  0  0  0
 13 14  1  0  0  0  0
 15 16  1  0  0  0  0
 15 13  1  0  0  0  0
 16 17  1  0  0  0  0
 18 16  1  0  0  0  0
 19 18  1  0  0  0  0
 20 21  1  0  0  0  0
 20 18  2  0  0  0  0
 21 15  2  0  0  0  0
 22 21  1  0  0  0  0
 22 11  2  0  0  0  0
 23  3  1  0  0  0  0
 23 24  1  0  0  0  0
 25 23  1  0  0  0  0
 26 31  1  0  0  0  0
 27 28  1  0  0  0  0
 27 26  2  0  0  0  0
 28 29  2  0  0  0  0
 29 30  1  0  0  0  0
 30 23  1  0  0  0  0
 31 30  2  0  0  0  0
 32 26  1  0  0  0  0
 33 27  1  0  0  0  0
 34 28  1  0  0  0  0
M  END
>  <minimizedAffinity>
-5.56417274

$$$$

 OpenBabel03252502543D

 34 37  0  0  0  0  0  0  0  0999 V2000
   37.1450   30.5140   40.1940 Br  0  0  0  0  0  0  0  0  0  0  0  0
   37.0650   28.6230   40.5570 C   0  0  0  0  0  0  0  0  0  0  0  0
   37.4330   28.2320   41.8360 C   0  0  0  0  0  0  0  0  0  0  0  0
   37.3580   26.8610   42.0470 C   0  0  0  0  0  0  0  0  0  0  0  0
   36.9600   25.9410   41.0980 C   0  0  0  0  0  0  0  0  0  0  0  0
   36.6130   26.4100   39.8570 C   0  0  0  0  0  0  0  0  0  0  0  0
   36.6590   27.7730   39.5610 C   0  0  0  0  0  0  0  0  0  0  0  0
   37.6280   26.4650   43.0200 H   0  0  0  0  0  0  0  0  0  0  0  0
   36.9290   24.9000   41.3360 H   0  0  0  0  0  0  0  0  0  0  0  0
   36.3050   25.6650   39.1340 H   0  0  0  0  0  0  0  0  0  0  0  0
   34.9480   28.5320   38.0990 C   0  0  0  0  0  3  0  0  0  0  0  0
   36.2820   28.2040   38.2400 C   0  0  0  0  0  0  0  0  0  0  0  0
   37.0790   28.3250   37.1290 C   0  0  0  0  0  0  0  0  0  0  0  0
   38.1180   28.0610   37.2720 H   0  0  0  0  0  0  0  0  0  0  0  0
   36.6160   28.7460   35.9150 C   0  0  0  0  0  0  0  0  0  0  0  0
   37.2840   28.9030   34.7730 N   0  0  0  0  0  0  0  0  0  0  0  0
   38.3010   28.7250   34.6090 H   0  0  0  0  0  0  0  0  0  0  0  0
   36.4190   29.3350   33.8530 C   0  0  0  0  0  0  0  0  0  0  0  0
   36.6850   29.5490   32.8240 H   0  0  0  0  0  0  0  0  0  0  0  0
   35.1670   29.4500   34.4430 C   0  0  0  0  0  3  0  0  0  0  0  0
   35.2840   29.0750   35.7660 C   0  0  0  0  0  0  0  0  0  0  0  0
   34.4710   28.9590   36.8740 C   0  0  0  0  0  3  0  0  0  0  0  0
   37.8690   29.1090   42.9150 C   0  0  0  0  0  0  0  0  0  0  0  0
   37.2730   30.0410   42.9360 H   0  0  0  0  0  0  0  0  0  0  0  0
   37.6910   28.5620   43.8850 H   0  0  0  0  0  0  0  0  0  0  0  0
   41.5950   28.7440   42.9110 C   0  0  0  0  0  0  0  0  0  0  0  0
   42.0070   30.0790   42.8100 C   0  0  0  0  0  0  0  0  0  0  0  0
   41.0300   31.0590   42.7450 C   0  0  0  0  0  0  0  0  0  0  0  0
   39.7120   30.7000   42.7820 N   0  0  0  0  0  0  0  0  0  0  0  0
   39.3400   29.3870   42.8820 C   0  0  0  0  0  0  0  0  0  0  0  0
   40.3020   28.4380   42.9450 N   0  0  0  0  0  0  0  0  0  0  0  0
   42.3370   27.9720   42.9630 H   0  0  0  0  0  0  0  0  0  0  0  0
   43.0490   30.3700   42.7790 H   0  0  0  0  0  0  0  0  0  0  0  0
   41.2490   32.1210   42.6640 H   0  0  0  0  0  0  0  0  0  0  0  0
  1  2  1  0  0  0  0
  2  3  1  0  0  0  0
  3  4  2  0  0  0  0
  3 23  1  0  0  0  0
  4  8  1  0  0  0  0
  5  9  1  0  0  0  0
  5  4  1  0  0  0  0
  6  5  2  0  0  0  0
  7  6  1  0  0  0  0
  7  2  2  0  0  0  0
 10  6  1  0  0  0  0
 11 12  1  0  0  0  0
 12  7  1  0  0  0  0
 13 14  1  0  0  0  0
 13 12  2  0  0  0  0
 15 13  1  0  0  0  0
 16 15  1  0  0  0  0
 17 16  1  0  0  0  0
 18 20  2  0  0  0  0
 18 16  1  0  0  0  0
 19 18  1  0  0  0  0
 20 21  1  0  0  0  0
 21 15  2  0  0  0  0
 21 22  1  0  0  0  0
 22 11  2  0  0  0  0
 23 24  1  0  0  0  0
 23 25  1  0  0  0  0
 26 31  1  0  0  0  0
 26 32  1  0  0  0  0
 27 26  2  0  0  0  0
 28 29  2  0  0  0  0
 28 27  1  0  0  0  0
 29 30  1  0  0  0  0
 30 23  1  0  0  0  0
 30 31  2  0  0  0  0
 33 27  1  0  0  0  0
 34 28  1  0  0  0  0
M  END
>  <minimizedAffinity>
-5.55462646

$$$$
