
 OpenBabel03252505113D

 47 51  0  0  1  0  0  0  0  0999 V2000
   44.5550   35.5320   44.6020 C   0  0  0  0  0  0  0  0  0  0  0  0
   45.2650   35.5970   43.3780 C   0  0  0  0  0  0  0  0  0  0  0  0
   46.3980   34.7300   43.2200 C   0  0  0  0  0  0  0  0  0  0  0  0
   46.7280   33.8960   44.2520 N   0  0  0  0  0  0  0  0  0  0  0  0
   46.0260   33.8720   45.3900 C   0  0  0  0  0  0  0  0  0  0  0  0
   44.9350   34.6880   45.5760 N   0  0  0  0  0  0  0  0  0  0  0  0
   43.7080   36.2010   44.6800 H   0  0  0  0  0  0  0  0  0  0  0  0
   44.9940   36.2610   42.5670 H   0  0  0  0  0  0  0  0  0  0  0  0
   46.4310   32.9480   46.4840 C   0  0  2  0  0  0  0  0  0  0  0  0
   46.9470   31.7120   45.7790 C   0  0  0  0  0  0  0  0  0  0  0  0
   46.0580   30.5400   45.7860 C   0  0  0  0  0  0  0  0  0  0  0  0
   45.7720   30.2700   47.2590 C   0  0  0  0  0  0  0  0  0  0  0  0
   44.9880   31.3510   47.8760 C   0  0  0  0  0  0  0  0  0  0  0  0
   45.3790   32.7160   47.4310 C   0  0  0  0  0  0  0  0  0  0  0  0
   47.2860   33.4640   46.9890 H   0  0  0  0  0  0  0  0  0  0  0  0
   47.8840   31.4110   46.2970 H   0  0  0  0  0  0  0  0  0  0  0  0
   47.2740   31.9230   44.7320 H   0  0  0  0  0  0  0  0  0  0  0  0
   45.1090   30.7760   45.2920 H   0  0  0  0  0  0  0  0  0  0  0  0
   46.5940   29.6880   45.3750 H   0  0  0  0  0  0  0  0  0  0  0  0
   45.0630   29.3990   47.2290 H   0  0  0  0  0  0  0  0  0  0  0  0
   46.6520   29.9570   47.8210 H   0  0  0  0  0  0  0  0  0  0  0  0
   44.1940   31.4080   48.5730 H   0  0  0  0  0  0  0  0  0  0  0  0
   44.6990   33.8540   47.9470 N   0  0  0  0  0  0  0  0  0  0  0  0
   45.1710   34.4760   48.6580 H   0  0  0  0  0  0  0  0  0  0  0  0
   43.7420   34.2330   47.7470 H   0  0  0  0  0  0  0  0  0  0  0  0
   47.1430   34.7670   41.9870 C   0  0  0  0  0  0  0  0  0  0  0  0
   48.2280   35.5630   41.8980 C   0  0  0  0  0  0  0  0  0  0  0  0
   48.9130   35.5580   40.6700 C   0  0  0  0  0  0  0  0  0  0  0  0
   48.4040   34.7360   39.6740 C   0  0  0  0  0  0  0  0  0  0  0  0
   47.3020   33.9280   39.7670 C   0  0  0  0  0  0  0  0  0  0  0  0
   46.6970   33.9920   40.9870 N   0  0  0  0  0  0  0  0  0  0  0  0
   48.5820   36.1830   42.7020 H   0  0  0  0  0  0  0  0  0  0  0  0
   49.7950   36.1650   40.5040 H   0  0  0  0  0  0  0  0  0  0  0  0
   48.9580   34.7560   38.7370 H   0  0  0  0  0  0  0  0  0  0  0  0
   46.8630   33.1450   38.7320 O   0  0  0  0  0  0  0  0  0  0  0  0
   48.4970   31.4900   37.8910 C   0  0  0  0  0  0  0  0  0  0  0  0
   47.6470   32.5600   37.7820 C   0  0  0  0  0  0  0  0  0  0  0  0
   47.5440   33.1650   36.5290 C   0  0  0  0  0  0  0  0  0  0  0  0
   46.9120   34.0230   36.2850 H   0  0  0  0  0  0  0  0  0  0  0  0
   48.2650   32.7110   35.4360 C   0  0  0  0  0  0  0  0  0  0  0  0
   48.3710   33.0800   34.1380 N   0  0  0  0  0  0  0  0  0  0  0  0
   47.8490   33.8780   33.7020 H   0  0  0  0  0  0  0  0  0  0  0  0
   49.2260   32.2910   33.4990 C   0  0  0  0  0  0  0  0  0  0  0  0
   49.5110   32.3510   32.4430 H   0  0  0  0  0  0  0  0  0  0  0  0
   49.7230   31.3580   34.3690 C   0  0  0  0  0  0  0  0  0  0  0  0
   49.1180   31.6250   35.5800 C   0  0  0  0  0  0  0  0  0  0  0  0
   49.2280   31.0210   36.8100 C   0  0  0  0  0  0  0  0  0  0  0  0
  1  7  1  0  0  0  0
  1  6  1  0  0  0  0
  2  1  2  0  0  0  0
  3  2  1  0  0  0  0
  3  4  2  0  0  0  0
  4  5  1  0  0  0  0
  5  6  2  0  0  0  0
  5  9  1  0  0  0  0
  8  2  1  0  0  0  0
  9 15  1  1  0  0  0
  9 14  1  0  0  0  0
 10 11  1  0  0  0  0
 10 16  1  0  0  0  0
 10  9  1  0  0  0  0
 11 12  1  0  0  0  0
 12 21  1  0  0  0  0
 12 13  1  0  0  0  0
 13 22  1  0  0  0  0
 14 13  2  0  0  0  0
 14 23  1  0  0  0  0
 17 10  1  0  0  0  0
 18 11  1  0  0  0  0
 19 11  1  0  0  0  0
 20 12  1  0  0  0  0
 23 24  1  0  0  0  0
 25 23  1  0  0  0  0
 26  3  1  0  0  0  0
 27 26  1  0  0  0  0
 27 32  1  0  0  0  0
 28 27  2  0  0  0  0
 29 30  2  0  0  0  0
 29 28  1  0  0  0  0
 30 31  1  0  0  0  0
 31 26  2  0  0  0  0
 33 28  1  0  0  0  0
 34 29  1  0  0  0  0
 35 30  1  0  0  0  0
 37 36  1  0  0  0  0
 37 35  1  0  0  0  0
 38 37  2  0  0  0  0
 39 38  1  0  0  0  0
 40 46  2  0  0  0  0
 40 38  1  0  0  0  0
 41 40  1  0  0  0  0
 42 41  1  0  0  0  0
 43 41  1  0  0  0  0
 43 45  2  0  0  0  0
 44 43  1  0  0  0  0
 45 46  1  0  0  0  0
 46 47  1  0  0  0  0
 47 36  2  0  0  0  0
M  END
>  <minimizedAffinity>
-7.86738825

>  <minimizedRMSD>
1.1100018

$$$$
