REMARK  Name = 
REMARK  3 active torsions:
REMARK  status: ('A' for Active; 'I' for Inactive)
REMARK    1  A    between atoms: C_1  and  C_6
REMARK    2  A    between atoms: C_1  and  C_10
REMARK    3  A    between atoms: C_14  and  C_24
REMARK                            x       y       z     vdW  Elec       q    Type
REMARK                         _______ _______ _______ _____ _____    ______ ____
ROOT
ATOM      1 BR   UNL     1      45.440  29.764  45.124  0.00  0.00    +0.000 Br
ATOM      2  C   UNL     1      45.587  30.644  46.833  0.00  0.00    +0.000 A 
ATOM      3  C   UNL     1      46.303  31.831  46.847  0.00  0.00    +0.000 A 
ATOM      4  C   UNL     1      46.380  32.425  48.101  0.00  0.00    +0.000 A 
ATOM      5  C   UNL     1      45.811  31.912  49.249  0.00  0.00    +0.000 A 
ATOM      6  C   UNL     1      45.119  30.732  49.149  0.00  0.00    +0.000 A 
ATOM      7  C   UNL     1      44.993  30.070  47.927  0.00  0.00    +0.000 A 
ATOM      8  H   UNL     1      46.922  33.359  48.206  0.00  0.00    +0.000 HD
ATOM      9  H   UNL     1      45.914  32.428  50.179  0.00  0.00    +0.000 HD
ATOM     10  H   UNL     1      44.684  30.355  50.066  0.00  0.00    +0.000 HD
ENDROOT
BRANCH   7  12
ATOM     11  C   UNL     1      45.032  27.700  47.779  0.00  0.00    +0.000 A 
ATOM     12  C   UNL     1      44.254  28.835  47.886  0.00  0.00    +0.000 A 
ATOM     13  C   UNL     1      42.893  28.661  47.940  0.00  0.00    +0.000 A 
ATOM     14  H   UNL     1      42.312  29.568  48.024  0.00  0.00    +0.000 HD
ATOM     15  C   UNL     1      42.291  27.436  47.894  0.00  0.00    +0.000 A 
ATOM     16  N   UNL     1      40.993  27.139  47.937  0.00  0.00    +0.000 N 
ATOM     17  H   UNL     1      40.196  27.811  48.017  0.00  0.00    +0.000 HD
ATOM     18  C   UNL     1      40.877  25.811  47.861  0.00  0.00    +0.000 A 
ATOM     19  H   UNL     1      39.930  25.283  47.874  0.00  0.00    +0.000 HD
ATOM     20  C   UNL     1      42.149  25.262  47.767  0.00  0.00    +0.000 A 
ATOM     21  C   UNL     1      43.063  26.297  47.787  0.00  0.00    +0.000 A 
ATOM     22  C   UNL     1      44.431  26.456  47.731  0.00  0.00    +0.000 A 
ENDBRANCH   7  12
BRANCH   3  23
ATOM     23  C   UNL     1      46.946  32.466  45.704  0.00  0.00    +0.000 C 
ATOM     24  H   UNL     1      47.993  32.737  45.937  0.00  0.00    +0.000 HD
ATOM     25  H   UNL     1      46.961  31.713  44.865  0.00  0.00    +0.000 HD
BRANCH  23  30
ATOM     26  C   UNL     1      44.569  35.336  45.343  0.00  0.00    +0.000 A 
ATOM     27  C   UNL     1      44.840  35.762  44.036  0.00  0.00    +0.000 A 
ATOM     28  C   UNL     1      45.807  35.080  43.317  0.00  0.00    +0.000 A 
ATOM     29  N   UNL     1      46.458  34.026  43.894  0.00  0.00    +0.000 NA
ATOM     30  C   UNL     1      46.171  33.633  45.173  0.00  0.00    +0.000 A 
ATOM     31  N   UNL     1      45.225  34.306  45.867  0.00  0.00    +0.000 NA
ATOM     32  H   UNL     1      43.823  35.852  45.915  0.00  0.00    +0.000 HD
ATOM     33  H   UNL     1      44.328  36.596  43.574  0.00  0.00    +0.000 HD
ATOM     34  H   UNL     1      46.089  35.334  42.298  0.00  0.00    +0.000 HD
ENDBRANCH  23  30
ENDBRANCH   3  23
TORSDOF 3
