
 OpenBabel03252505113D

 47 51  0  0  1  0  0  0  0  0999 V2000
   44.5910   35.5740   44.5660 C   0  0  0  0  0  0  0  0  0  0  0  0
   45.2540   35.5710   43.3150 C   0  0  0  0  0  0  0  0  0  0  0  0
   46.3450   34.6540   43.1430 C   0  0  0  0  0  0  0  0  0  0  0  0
   46.6840   33.8420   44.1880 N   0  0  0  0  0  0  0  0  0  0  0  0
   46.0270   33.8820   45.3520 C   0  0  0  0  0  0  0  0  0  0  0  0
   44.9760   34.7470   45.5530 N   0  0  0  0  0  0  0  0  0  0  0  0
   43.7750   36.2790   44.6550 H   0  0  0  0  0  0  0  0  0  0  0  0
   44.9770   36.2190   42.4920 H   0  0  0  0  0  0  0  0  0  0  0  0
   46.4390   32.9780   46.4610 C   0  0  2  0  0  0  0  0  0  0  0  0
   46.9740   31.7400   45.7740 C   0  0  0  0  0  0  0  0  0  0  0  0
   46.1000   30.5570   45.7920 C   0  0  0  0  0  0  0  0  0  0  0  0
   45.8110   30.3020   47.2680 C   0  0  0  0  0  0  0  0  0  0  0  0
   45.0090   31.3810   47.8670 C   0  0  0  0  0  0  0  0  0  0  0  0
   45.3850   32.7440   47.4050 C   0  0  0  0  0  0  0  0  0  0  0  0
   47.2840   33.5120   46.9630 H   0  0  0  0  0  0  0  0  0  0  0  0
   47.9130   31.4580   46.3010 H   0  0  0  0  0  0  0  0  0  0  0  0
   47.3040   31.9410   44.7270 H   0  0  0  0  0  0  0  0  0  0  0  0
   45.1510   30.7730   45.2910 H   0  0  0  0  0  0  0  0  0  0  0  0
   46.6500   29.7060   45.3950 H   0  0  0  0  0  0  0  0  0  0  0  0
   45.1140   29.4210   47.2460 H   0  0  0  0  0  0  0  0  0  0  0  0
   46.6920   30.0080   47.8380 H   0  0  0  0  0  0  0  0  0  0  0  0
   44.2120   31.4350   48.5590 H   0  0  0  0  0  0  0  0  0  0  0  0
   44.6870   33.8800   47.9040 N   0  0  0  0  0  0  0  0  0  0  0  0
   45.1480   34.5180   48.6080 H   0  0  0  0  0  0  0  0  0  0  0  0
   43.7270   34.2440   47.6940 H   0  0  0  0  0  0  0  0  0  0  0  0
   47.0410   34.6230   41.8810 C   0  0  0  0  0  0  0  0  0  0  0  0
   48.1160   35.4180   41.7030 C   0  0  0  0  0  0  0  0  0  0  0  0
   48.7530   35.3440   40.4520 C   0  0  0  0  0  0  0  0  0  0  0  0
   48.2120   34.4610   39.5270 C   0  0  0  0  0  0  0  0  0  0  0  0
   47.1220   33.6540   39.7100 C   0  0  0  0  0  0  0  0  0  0  0  0
   46.5640   33.7860   40.9470 N   0  0  0  0  0  0  0  0  0  0  0  0
   48.4960   36.0880   42.4540 H   0  0  0  0  0  0  0  0  0  0  0  0
   49.6230   35.9450   40.2150 H   0  0  0  0  0  0  0  0  0  0  0  0
   48.7300   34.4280   38.5690 H   0  0  0  0  0  0  0  0  0  0  0  0
   46.6490   32.8070   38.7410 O   0  0  0  0  0  0  0  0  0  0  0  0
   46.8000   32.6410   36.2780 C   0  0  0  0  0  3  0  0  0  0  0  0
   47.2670   32.5170   37.5620 C   0  0  0  0  0  0  0  0  0  0  0  0
   48.5630   32.0250   37.7220 C   0  0  0  0  0  0  0  0  0  0  0  0
   49.0740   31.8700   38.6760 H   0  0  0  0  0  0  0  0  0  0  0  0
   49.3520   31.6750   36.6370 C   0  0  0  0  0  0  0  0  0  0  0  0
   50.6050   31.1850   36.4830 N   0  0  0  0  0  0  0  0  0  0  0  0
   51.2600   30.9670   37.2700 H   0  0  0  0  0  0  0  0  0  0  0  0
   50.8840   31.0220   35.1940 C   0  0  0  0  0  0  0  0  0  0  0  0
   51.8180   30.6420   34.7680 H   0  0  0  0  0  0  0  0  0  0  0  0
   49.8050   31.4040   34.4420 C   0  0  0  0  0  3  0  0  0  0  0  0
   48.8500   31.8110   35.3500 C   0  0  0  0  0  0  0  0  0  0  0  0
   47.5730   32.2950   35.1800 C   0  0  0  0  0  3  0  0  0  0  0  0
  1  7  1  0  0  0  0
  1  6  1  0  0  0  0
  2  1  2  0  0  0  0
  3  2  1  0  0  0  0
  3  4  2  0  0  0  0
  4  5  1  0  0  0  0
  5  6  2  0  0  0  0
  5  9  1  0  0  0  0
  8  2  1  0  0  0  0
  9 15  1  1  0  0  0
  9 14  1  0  0  0  0
 10 11  1  0  0  0  0
 10 16  1  0  0  0  0
 10  9  1  0  0  0  0
 11 12  1  0  0  0  0
 12 21  1  0  0  0  0
 12 13  1  0  0  0  0
 13 22  1  0  0  0  0
 14 13  2  0  0  0  0
 14 23  1  0  0  0  0
 17 10  1  0  0  0  0
 18 11  1  0  0  0  0
 19 11  1  0  0  0  0
 20 12  1  0  0  0  0
 23 24  1  0  0  0  0
 25 23  1  0  0  0  0
 26  3  1  0  0  0  0
 27 26  1  0  0  0  0
 27 32  1  0  0  0  0
 28 27  2  0  0  0  0
 29 30  2  0  0  0  0
 29 28  1  0  0  0  0
 30 31  1  0  0  0  0
 31 26  2  0  0  0  0
 33 28  1  0  0  0  0
 34 29  1  0  0  0  0
 35 30  1  0  0  0  0
 36 37  1  0  0  0  0
 37 38  2  0  0  0  0
 37 35  1  0  0  0  0
 38 39  1  0  0  0  0
 40 38  1  0  0  0  0
 41 40  1  0  0  0  0
 41 42  1  0  0  0  0
 43 41  1  0  0  0  0
 44 43  1  0  0  0  0
 45 43  2  0  0  0  0
 45 46  1  0  0  0  0
 46 40  2  0  0  0  0
 47 46  1  0  0  0  0
 47 36  2  0  0  0  0
M  END
>  <minimizedAffinity>
-7.54481888

>  <minimizedRMSD>
0.594720721

$$$$
