REMARK  Name = 
REMARK  8 active torsions:
REMARK  status: ('A' for Active; 'I' for Inactive)
REMARK    1  A    between atoms: C_1  and  C_5
REMARK    2  A    between atoms: C_1  and  C_15
REMARK    3  A    between atoms: C_9  and  O_10
REMARK    4  A    between atoms: O_10  and  P_12
REMARK    5  A    between atoms: P_12  and  O_13
REMARK    6  A    between atoms: P_12  and  O_14
REMARK    7  A    between atoms: C_16  and  C_21
REMARK    8  A    between atoms: C_23  and  C_36
REMARK                            x       y       z     vdW  Elec       q    Type
REMARK                         _______ _______ _______ _____ _____    ______ ____
ROOT
ATOM      1  C   UNL     1      47.394  32.787  43.961  0.00  0.00    +0.000 A 
ATOM      2  C   UNL     1      48.259  33.294  43.088  0.00  0.00    +0.000 A 
ATOM      3  C   UNL     1      49.075  32.379  42.500  0.00  0.00    +0.000 A 
ATOM      4  N   UNL     1      48.948  31.024  42.843  0.00  0.00    +0.000 NA
ATOM      5  C   UNL     1      48.068  30.589  43.719  0.00  0.00    +0.000 A 
ATOM      6  N   UNL     1      47.228  31.480  44.334  0.00  0.00    +0.000 NA
ATOM      7  H   UNL     1      49.880  32.441  41.796  0.00  0.00    +0.000 HD
ATOM      8  H   UNL     1      48.023  29.507  43.943  0.00  0.00    +0.000 HD
ENDROOT
BRANCH   2   9
ATOM      9  C   UNL     1      48.488  34.659  42.799  0.00  0.00    +0.000 C 
ATOM     10  C   UNL     1      49.521  35.245  42.136  0.00  0.00    +0.000 C 
ATOM     11  C   UNL     1      48.274  35.184  41.351  0.00  0.00    +0.000 C 
ATOM     12  H   UNL     1      48.069  35.339  43.610  0.00  0.00    +0.000 HD
ATOM     13  H   UNL     1      50.415  34.650  41.805  0.00  0.00    +0.000 HD
ATOM     14  H   UNL     1      49.890  36.314  42.235  0.00  0.00    +0.000 HD
ATOM     15  H   UNL     1      47.556  36.055  41.395  0.00  0.00    +0.000 HD
BRANCH  11  17
ATOM     16  C   UNL     1      47.999  32.914  40.064  0.00  0.00    +0.000 A 
ATOM     17  C   UNL     1      48.166  34.277  40.208  0.00  0.00    +0.000 A 
ATOM     18  C   UNL     1      48.254  34.924  38.964  0.00  0.00    +0.000 A 
ATOM     19  H   UNL     1      48.392  35.970  38.877  0.00  0.00    +0.000 HD
ATOM     20  C   UNL     1      48.182  34.269  37.751  0.00  0.00    +0.000 A 
ATOM     21  N   UNL     1      48.240  34.666  36.468  0.00  0.00    +0.000 N 
ATOM     22  H   UNL     1      48.364  35.648  36.135  0.00  0.00    +0.000 HD
ATOM     23  C   UNL     1      48.118  33.629  35.647  0.00  0.00    +0.000 A 
ATOM     24  H   UNL     1      48.128  33.650  34.562  0.00  0.00    +0.000 HD
ATOM     25  C   UNL     1      47.972  32.494  36.388  0.00  0.00    +0.000 A 
ATOM     26  C   UNL     1      48.016  32.921  37.694  0.00  0.00    +0.000 A 
ATOM     27  C   UNL     1      47.922  32.227  38.878  0.00  0.00    +0.000 A 
ENDBRANCH  11  17
ENDBRANCH   2   9
BRANCH   1  28
ATOM     28  C   UNL     1      46.352  33.528  44.702  0.00  0.00    +0.000 C 
ATOM     29  O   UNL     1      45.801  33.908  45.696  0.00  0.00    +0.000 OA
BRANCH  28  32
ATOM     30 CL   UNL     1      44.487  31.804  42.949  0.00  0.00    +0.000 Cl
ATOM     31  C   UNL     1      44.564  33.551  42.824  0.00  0.00    +0.000 A 
ATOM     32  C   UNL     1      45.459  34.197  43.707  0.00  0.00    +0.000 A 
ATOM     33  C   UNL     1      45.419  35.559  43.516  0.00  0.00    +0.000 A 
ATOM     34  C   UNL     1      44.710  36.300  42.676  0.00  0.00    +0.000 A 
ATOM     35  C   UNL     1      43.858  35.607  41.844  0.00  0.00    +0.000 A 
ATOM     36  C   UNL     1      43.771  34.237  41.904  0.00  0.00    +0.000 A 
ATOM     37  H   UNL     1      46.056  36.195  44.175  0.00  0.00    +0.000 HD
ATOM     38  H   UNL     1      44.746  37.386  42.594  0.00  0.00    +0.000 HD
ATOM     39  H   UNL     1      43.248  36.186  41.127  0.00  0.00    +0.000 HD
BRANCH  36  40
ATOM     40  O   UNL     1      42.894  33.674  41.034  0.00  0.00    +0.000 OA
BRANCH  40  42
ATOM     41  O   UNL     1      40.620  33.080  39.868  0.00  0.00    +0.000 OA
ATOM     42  P   UNL     1      41.245  33.326  41.223  0.00  0.00    +0.000 P 
BRANCH  42  43
ATOM     43  O   UNL     1      41.079  31.975  42.231  0.00  0.00    +0.000 OA
ATOM     44  H   UNL     1      40.125  31.832  42.449  0.00  0.00    +0.000 HD
ENDBRANCH  42  43
BRANCH  42  45
ATOM     45  O   UNL     1      40.433  34.583  42.012  0.00  0.00    +0.000 OA
ATOM     46  H   UNL     1      39.882  35.136  41.436  0.00  0.00    +0.000 HD
ENDBRANCH  42  45
ENDBRANCH  40  42
ENDBRANCH  36  40
ENDBRANCH  28  32
ENDBRANCH   1  28
TORSDOF 8
