
     RDKit          3D

 49 53  0  0  0  0  0  0  0  0999 V2000
   46.3522   33.5284   44.7023 C   0  0  0  0  0  0  0  0  0  0  0  0
   45.8007   33.9080   45.6961 O   0  0  0  0  0  0  0  0  0  0  0  0
   44.4872   31.8038   42.9485 Cl  0  0  0  0  0  0  0  0  0  0  0  0
   44.5637   33.5509   42.8244 C   0  0  0  0  0  0  0  0  0  0  0  0
   45.4594   34.1973   43.7073 C   0  0  0  0  0  0  0  0  0  0  0  0
   45.4186   35.5595   43.5160 C   0  0  0  0  0  0  0  0  0  0  0  0
   44.7097   36.3005   42.6761 C   0  0  0  0  0  0  0  0  0  0  0  0
   43.8582   35.6067   41.8439 C   0  0  0  0  0  0  0  0  0  0  0  0
   43.7712   34.2368   41.9040 C   0  0  0  0  0  0  0  0  0  0  0  0
   42.8944   33.6737   41.0338 O   0  0  0  0  0  0  0  0  0  0  0  0
   40.6203   33.0796   39.8685 O   0  0  0  0  0  0  0  0  0  0  0  0
   41.2453   33.3260   41.2227 P   0  0  0  0  0  0  0  0  0  0  0  0
   41.0789   31.9750   42.2308 O   0  0  0  0  0  0  0  0  0  0  0  0
   40.4334   34.5825   42.0124 O   0  0  0  0  0  0  0  0  0  0  0  0
   47.3937   32.7868   43.9609 C   0  0  0  0  0  0  0  0  0  0  0  0
   48.2592   33.2945   43.0884 C   0  0  0  0  0  0  0  0  0  0  0  0
   49.0750   32.3794   42.5002 C   0  0  0  0  0  0  0  0  0  0  0  0
   48.9484   31.0241   42.8432 N   0  0  0  0  0  0  0  0  0  0  0  0
   48.0680   30.5892   43.7192 C   0  0  0  0  0  0  0  0  0  0  0  0
   47.2282   31.4797   44.3340 N   0  0  0  0  0  0  0  0  0  0  0  0
   48.4879   34.6593   42.7987 C   0  0  1  0  0  0  0  0  0  0  0  0
   49.5211   35.2451   42.1359 C   0  0  0  0  0  0  0  0  0  0  0  0
   48.2741   35.1841   41.3506 C   0  0  1  0  0  0  0  0  0  0  0  0
   46.0558   36.1952   44.1754 H   0  0  0  0  0  0  0  0  0  0  0  0
   44.7461   37.3863   42.5938 H   0  0  0  0  0  0  0  0  0  0  0  0
   43.2481   36.1857   41.1272 H   0  0  0  0  0  0  0  0  0  0  0  0
   40.1246   31.8317   42.4494 H   0  0  0  0  0  0  0  0  0  0  0  0
   39.8822   35.1365   41.4357 H   0  0  0  0  0  0  0  0  0  0  0  0
   49.8800   32.4412   41.7963 H   0  0  0  0  0  0  0  0  0  0  0  0
   48.0233   29.5070   43.9430 H   0  0  0  0  0  0  0  0  0  0  0  0
   48.0687   35.3390   43.6098 H   0  0  0  0  0  0  0  0  0  0  0  0
   50.4150   34.6495   41.8054 H   0  0  0  0  0  0  0  0  0  0  0  0
   49.8898   36.3139   42.2348 H   0  0  0  0  0  0  0  0  0  0  0  0
   47.5562   36.0552   41.3953 H   0  0  0  0  0  0  0  0  0  0  0  0
   48.1882   34.4360   38.8375 C   0  0  0  0  0  0  0  0  0  0  0  0
   48.1655   34.2766   40.2082 C   0  0  0  0  0  0  0  0  0  0  0  0
   47.9929   32.9305   40.5726 C   0  0  0  0  0  0  0  0  0  0  0  0
   47.9431   32.6179   41.5824 H   0  0  0  0  0  0  0  0  0  0  0  0
   47.8635   31.8992   39.6635 C   0  0  0  0  0  0  0  0  0  0  0  0
   47.6941   30.5701   39.7729 N   0  0  0  0  0  0  0  0  0  0  0  0
   47.6237   30.0325   40.6660 H   0  0  0  0  0  0  0  0  0  0  0  0
   47.6244   30.0026   38.5741 C   0  0  0  0  0  0  0  0  0  0  0  0
   47.4906   28.9482   38.3580 H   0  0  0  0  0  0  0  0  0  0  0  0
   47.7495   30.9690   37.6209 C   0  0  0  0  0  0  0  0  0  0  0  0
   47.8969   32.1395   38.3260 C   0  0  0  0  0  0  0  0  0  0  0  0
   48.0631   33.4383   37.9022 C   0  0  0  0  0  0  0  0  0  0  0  0
   48.3161   35.4930   38.5842 H   0  0  0  0  0  0  0  0  0  0  0  0
   47.7453   30.9181   36.5262 H   0  0  0  0  0  0  0  0  0  0  0  0
   48.1054   33.7542   36.8807 H   0  0  0  0  0  0  0  0  0  0  0  0
  1  2  2  0
  4  3  1  0
  4  5  2  0
  5  1  1  0
  6  5  1  0
  7  6  2  0
  8  9  2  0
  8  7  1  0
  9  4  1  0
 10 12  1  0
 10  9  1  0
 11 12  2  0
 12 14  1  0
 12 13  1  0
 15 20  1  0
 15  1  1  0
 16 15  2  0
 17 18  2  0
 17 16  1  0
 18 19  1  0
 19 20  2  0
 21 16  1  0
 22 21  1  0
 23 22  1  0
 23 21  1  0
  6 24  1  0
  7 25  1  0
  8 26  1  0
 13 27  1  0
 14 28  1  0
 17 29  1  0
 19 30  1  0
 21 31  1  1
 22 32  1  0
 22 33  1  0
 23 34  1  1
 35 36  2  0
 36 37  1  0
 37 38  1  0
 37 39  2  0
 39 40  1  0
 40 41  1  0
 40 42  1  0
 42 43  1  0
 42 44  2  0
 44 45  1  0
 45 46  2  0
 46 35  1  0
 45 39  1  0
 35 47  1  0
 44 48  1  0
 46 49  1  0
 23 36  1  0
M  ISO  8  24  14  25  14  26  14  27   3  28   3  29  14  30  14  31  13
M  ISO  6  32  13  33  13  34  13  38  15  41   5  43  14
M  END
>  <DihAtoms>  (1) 
21,22,35,34

>  <DihDeg>  (1) 
-14.692485963284492

$$$$
