
 OpenBabel03252506213D

 38 41  0  0  0  0  0  0  0  0999 V2000
   45.1860   37.0290   43.4490 C   0  0  0  0  0  0  0  0  0  0  0  0
   44.0810   36.9540   42.5840 C   0  0  0  0  0  0  0  0  0  0  0  0
   43.9780   35.8320   41.7520 C   0  0  0  0  0  0  0  0  0  0  0  0
   44.9440   34.8810   41.8250 N   0  0  0  0  0  0  0  0  0  0  0  0
   45.9940   34.9950   42.6760 C   0  0  0  0  0  0  0  0  0  0  0  0
   46.1120   36.0700   43.4860 N   0  0  0  0  0  0  0  0  0  0  0  0
   43.3240   37.7020   42.5290 H   0  0  0  0  0  0  0  0  0  0  0  0
   43.1460   35.7270   41.0690 H   0  0  0  0  0  0  0  0  0  0  0  0
   48.4900   35.5390   41.0560 Cl  0  0  0  0  0  0  0  0  0  0  0  0
   48.1600   34.0980   41.9590 C   0  0  0  0  0  0  0  0  0  0  0  0
   46.9900   33.9150   42.6820 C   0  0  0  0  0  0  0  0  0  0  0  0
   46.7080   32.7890   43.4020 C   0  0  0  0  0  0  0  0  0  0  0  0
   47.6530   31.7870   43.3960 C   0  0  0  0  0  0  0  0  0  0  0  0
   48.8550   31.8630   42.7090 C   0  0  0  0  0  0  0  0  0  0  0  0
   49.0450   33.0470   42.0110 C   0  0  0  0  0  0  0  0  0  0  0  0
   45.7940   32.6550   43.9620 H   0  0  0  0  0  0  0  0  0  0  0  0
   47.4870   30.8650   43.9500 H   0  0  0  0  0  0  0  0  0  0  0  0
   49.5980   31.0970   42.6940 H   0  0  0  0  0  0  0  0  0  0  0  0
   49.9740   33.1650   41.4500 H   0  0  0  0  0  0  0  0  0  0  0  0
   45.2860   38.2080   44.3170 C   0  0  0  0  0  3  0  0  0  0  0  0
   45.5350   39.3700   43.7780 C   0  0  0  0  0  3  0  0  0  0  0  0
   45.6410   40.5810   44.6330 C   0  0  0  0  0  0  0  0  0  0  0  0
   45.8710   41.4910   44.0410 H   0  0  0  0  0  0  0  0  0  0  0  0
   46.4460   40.4840   45.3860 H   0  0  0  0  0  0  0  0  0  0  0  0
   44.3430   40.7830   45.2740 N   0  0  0  0  0  0  0  0  0  0  0  0
   43.8510   39.9960   45.7900 H   0  0  0  0  0  0  0  0  0  0  0  0
   44.3070   43.2370   45.0150 C   0  0  0  0  0  3  0  0  0  0  0  0
   43.6600   42.0370   45.2480 C   0  0  0  0  0  0  0  0  0  0  0  0
   42.2980   42.1040   45.4590 C   0  0  0  0  0  0  0  0  0  0  0  0
   41.7050   41.2220   45.6500 H   0  0  0  0  0  0  0  0  0  0  0  0
   41.5610   43.2720   45.4510 C   0  0  0  0  0  0  0  0  0  0  0  0
   40.2640   43.5860   45.6260 N   0  0  0  0  0  0  0  0  0  0  0  0
   39.4950   42.9340   45.8200 H   0  0  0  0  0  0  0  0  0  0  0  0
   40.1020   44.9230   45.5070 C   0  0  0  0  0  0  0  0  0  0  0  0
   39.2150   45.5420   45.5830 H   0  0  0  0  0  0  0  0  0  0  0  0
   41.3340   45.4890   45.2490 C   0  0  0  0  0  3  0  0  0  0  0  0
   42.2560   44.4630   45.2110 C   0  0  0  0  0  0  0  0  0  0  0  0
   43.6190   44.4320   44.9950 C   0  0  0  0  0  3  0  0  0  0  0  0
  1  6  1  0  0  0  0
  1 20  1  0  0  0  0
  2  1  2  0  0  0  0
  3  4  2  0  0  0  0
  3  2  1  0  0  0  0
  4  5  1  0  0  0  0
  5 11  1  0  0  0  0
  5  6  2  0  0  0  0
  7  2  1  0  0  0  0
  8  3  1  0  0  0  0
  9 10  1  0  0  0  0
 10 15  2  0  0  0  0
 10 11  1  0  0  0  0
 11 12  2  0  0  0  0
 12 16  1  0  0  0  0
 13 12  1  0  0  0  0
 13 17  1  0  0  0  0
 14 13  2  0  0  0  0
 15 14  1  0  0  0  0
 18 14  1  0  0  0  0
 19 15  1  0  0  0  0
 21 20  2  0  0  0  0
 21 22  1  0  0  0  0
 22 25  1  0  0  0  0
 22 24  1  0  0  0  0
 23 22  1  0  0  0  0
 25 26  1  0  0  0  0
 27 28  1  0  0  0  0
 28 25  1  0  0  0  0
 28 29  2  0  0  0  0
 29 30  1  0  0  0  0
 31 29  1  0  0  0  0
 31 32  1  0  0  0  0
 32 33  1  0  0  0  0
 34 35  1  0  0  0  0
 34 32  1  0  0  0  0
 36 34  2  0  0  0  0
 37 36  1  0  0  0  0
 37 31  2  0  0  0  0
 38 27  2  0  0  0  0
 38 37  1  0  0  0  0
M  END
>  <minimizedAffinity>
-1.42475951

>  <minimizedRMSD>
1.70802975

$$$$
