
 OpenBabel03242523223D

 46 50  0  0  1  0  0  0  0  0999 V2000
   47.4520   32.6490   43.7640 C   0  0  0  0  0  0  0  0  0  0  0  0
   48.3490   33.2320   42.9740 C   0  0  0  0  0  0  0  0  0  0  0  0
   49.1350   32.3710   42.2750 C   0  0  0  0  0  0  0  0  0  0  0  0
   48.9490   30.9890   42.4310 N   0  0  0  0  0  0  0  0  0  0  0  0
   48.0410   30.4770   43.2340 C   0  0  0  0  0  0  0  0  0  0  0  0
   47.2290   31.3120   43.9560 N   0  0  0  0  0  0  0  0  0  0  0  0
   49.9520   32.4930   41.5920 H   0  0  0  0  0  0  0  0  0  0  0  0
   47.9490   29.3780   43.3100 H   0  0  0  0  0  0  0  0  0  0  0  0
   48.6360   34.6130   42.8720 C   0  0  1  0  0  0  0  0  0  0  0  0
   49.6220   35.2460   42.1810 C   0  0  0  0  0  0  0  0  0  0  0  0
   48.2900   35.3760   41.5620 C   0  0  1  0  0  0  0  0  0  0  0  0
   48.3650   35.1720   43.8260 H   0  0  0  0  0  0  0  0  0  0  0  0
   50.4270   34.6690   41.6510 H   0  0  0  0  0  0  0  0  0  0  0  0
   50.0730   36.2650   42.3970 H   0  0  0  0  0  0  0  0  0  0  0  0
   47.6440   36.2630   41.8320 H   0  0  0  0  0  0  0  0  0  0  0  0
   48.6710   34.4330   39.1430 C   0  0  0  0  0  3  0  0  0  0  0  0
   47.9840   34.6720   40.3160 C   0  0  0  0  0  0  0  0  0  0  0  0
   46.6960   34.1110   40.2880 C   0  0  0  0  0  0  0  0  0  0  0  0
   46.0200   34.2010   41.0970 H   0  0  0  0  0  0  0  0  0  0  0  0
   46.1890   33.4060   39.2140 C   0  0  0  0  0  0  0  0  0  0  0  0
   45.0180   32.7940   38.9650 N   0  0  0  0  0  0  0  0  0  0  0  0
   44.2020   32.7420   39.6160 H   0  0  0  0  0  0  0  0  0  0  0  0
   45.0210   32.2450   37.7550 C   0  0  0  0  0  0  0  0  0  0  0  0
   44.2140   31.6880   37.2900 H   0  0  0  0  0  0  0  0  0  0  0  0
   46.2240   32.4890   37.1630 C   0  0  0  0  0  3  0  0  0  0  0  0
   46.9310   33.2120   38.0930 C   0  0  0  0  0  0  0  0  0  0  0  0
   48.2030   33.7380   38.0550 C   0  0  0  0  0  3  0  0  0  0  0  0
   46.4310   33.3270   44.5890 C   0  0  0  0  0  0  0  0  0  0  0  0
   45.9170   33.6400   45.6260 O   0  0  0  0  0  0  0  0  0  0  0  0
   44.4840   31.6690   42.8630 Cl  0  0  0  0  0  0  0  0  0  0  0  0
   44.5470   33.4200   42.8100 C   0  0  0  0  0  0  0  0  0  0  0  0
   45.4840   34.0330   43.6730 C   0  0  0  0  0  0  0  0  0  0  0  0
   45.4290   35.4020   43.5440 C   0  0  0  0  0  0  0  0  0  0  0  0
   44.6730   36.1740   42.7750 C   0  0  0  0  0  0  0  0  0  0  0  0
   43.7820   35.5120   41.9590 C   0  0  0  0  0  0  0  0  0  0  0  0
   43.7040   34.1400   41.9640 C   0  0  0  0  0  0  0  0  0  0  0  0
   46.0970   36.0120   44.1960 H   0  0  0  0  0  0  0  0  0  0  0  0
   44.7000   37.2630   42.7390 H   0  0  0  0  0  0  0  0  0  0  0  0
   43.1320   36.1180   41.3010 H   0  0  0  0  0  0  0  0  0  0  0  0
   42.7840   33.6100   41.1170 O   0  0  0  0  0  0  0  0  0  0  0  0
   40.4700   33.0250   40.0290 O   0  0  0  0  0  0  0  0  0  0  0  0
   41.1360   33.2920   41.3600 P   0  0  0  0  0  0  0  0  0  0  0  0
   40.9780   31.9680   42.4040 O   0  0  0  0  0  0  0  0  0  0  0  0
   40.0290   31.8450   42.6520 H   0  0  0  0  0  0  0  0  0  0  0  0
   40.3660   34.5800   42.1410 O   0  0  0  0  0  0  0  0  0  0  0  0
   39.8070   35.1280   41.5680 H   0  0  0  0  0  0  0  0  0  0  0  0
  1  6  1  0  0  0  0
  1 28  1  0  0  0  0
  2  1  2  0  0  0  0
  3  4  2  0  0  0  0
  3  2  1  0  0  0  0
  4  5  1  0  0  0  0
  5  8  1  0  0  0  0
  5  6  2  0  0  0  0
  7  3  1  0  0  0  0
  9  2  1  0  0  0  0
  9 12  1  1  0  0  0
 10 14  1  0  0  0  0
 10  9  1  0  0  0  0
 11 15  1  1  0  0  0
 11 10  1  0  0  0  0
 11  9  1  0  0  0  0
 13 10  1  0  0  0  0
 16 17  1  0  0  0  0
 17 11  1  0  0  0  0
 18 17  2  0  0  0  0
 18 19  1  0  0  0  0
 20 18  1  0  0  0  0
 21 20  1  0  0  0  0
 21 22  1  0  0  0  0
 23 21  1  0  0  0  0
 24 23  1  0  0  0  0
 25 23  2  0  0  0  0
 25 26  1  0  0  0  0
 26 20  2  0  0  0  0
 27 26  1  0  0  0  0
 27 16  2  0  0  0  0
 28 29  2  0  0  0  0
 31 30  1  0  0  0  0
 31 32  1  0  0  0  0
 32 28  1  0  0  0  0
 33 32  2  0  0  0  0
 33 37  1  0  0  0  0
 34 33  1  0  0  0  0
 35 36  1  0  0  0  0
 35 34  2  0  0  0  0
 36 31  2  0  0  0  0
 38 34  1  0  0  0  0
 39 35  1  0  0  0  0
 40 42  1  0  0  0  0
 40 36  1  0  0  0  0
 41 42  2  0  0  0  0
 42 45  1  0  0  0  0
 42 43  1  0  0  0  0
 43 44  1  0  0  0  0
 46 45  1  0  0  0  0
M  END
>  <minimizedAffinity>
-6.82183075

>  <minimizedRMSD>
1.15456164

$$$$
