
 OpenBabel03242523223D

 46 50  0  0  1  0  0  0  0  0999 V2000
   47.3400   32.7140   43.9330 C   0  0  0  0  0  0  0  0  0  0  0  0
   48.2700   33.2290   43.1350 C   0  0  0  0  0  0  0  0  0  0  0  0
   49.0530   32.3100   42.5100 C   0  0  0  0  0  0  0  0  0  0  0  0
   48.8290   30.9440   42.7420 N   0  0  0  0  0  0  0  0  0  0  0  0
   47.8880   30.5020   43.5470 C   0  0  0  0  0  0  0  0  0  0  0  0
   47.0780   31.3960   44.1970 N   0  0  0  0  0  0  0  0  0  0  0  0
   49.8900   32.3730   41.8430 H   0  0  0  0  0  0  0  0  0  0  0  0
   47.7680   29.4110   43.6850 H   0  0  0  0  0  0  0  0  0  0  0  0
   48.5940   34.5940   42.9620 C   0  0  1  0  0  0  0  0  0  0  0  0
   49.5400   35.1680   42.1710 C   0  0  0  0  0  0  0  0  0  0  0  0
   48.1660   35.3250   41.6580 C   0  0  1  0  0  0  0  0  0  0  0  0
   48.4210   35.1940   43.9130 H   0  0  0  0  0  0  0  0  0  0  0  0
   50.2790   34.5450   41.5980 H   0  0  0  0  0  0  0  0  0  0  0  0
   50.0420   36.1770   42.3120 H   0  0  0  0  0  0  0  0  0  0  0  0
   47.5750   36.2430   41.9470 H   0  0  0  0  0  0  0  0  0  0  0  0
   46.6220   33.8460   40.1370 C   0  0  0  0  0  0  0  0  0  0  0  0
   47.7360   34.5930   40.4660 C   0  0  0  0  0  0  0  0  0  0  0  0
   48.6580   34.6470   39.4080 C   0  0  0  0  0  0  0  0  0  0  0  0
   49.5760   35.1690   39.4810 H   0  0  0  0  0  0  0  0  0  0  0  0
   48.4650   34.0270   38.1890 C   0  0  0  0  0  0  0  0  0  0  0  0
   49.1870   33.9420   37.0580 N   0  0  0  0  0  0  0  0  0  0  0  0
   50.1190   34.3800   36.8910 H   0  0  0  0  0  0  0  0  0  0  0  0
   48.5510   33.2110   36.1470 C   0  0  0  0  0  0  0  0  0  0  0  0
   48.8950   32.9740   35.1470 H   0  0  0  0  0  0  0  0  0  0  0  0
   47.3670   32.7860   36.6710 C   0  0  0  0  0  0  0  0  0  0  0  0
   47.3380   33.3080   37.9420 C   0  0  0  0  0  0  0  0  0  0  0  0
   46.3940   33.2150   38.9390 C   0  0  0  0  0  0  0  0  0  0  0  0
   46.3140   33.4630   44.6890 C   0  0  0  0  0  0  0  0  0  0  0  0
   45.7780   33.8440   45.6910 O   0  0  0  0  0  0  0  0  0  0  0  0
   44.4100   31.7710   42.9470 Cl  0  0  0  0  0  0  0  0  0  0  0  0
   44.5070   33.5170   42.8310 C   0  0  0  0  0  0  0  0  0  0  0  0
   45.4190   34.1480   43.7080 C   0  0  0  0  0  0  0  0  0  0  0  0
   45.3920   35.5110   43.5240 C   0  0  0  0  0  0  0  0  0  0  0  0
   44.6830   36.2650   42.6960 C   0  0  0  0  0  0  0  0  0  0  0  0
   43.8140   35.5870   41.8700 C   0  0  0  0  0  0  0  0  0  0  0  0
   43.7120   34.2180   41.9230 C   0  0  0  0  0  0  0  0  0  0  0  0
   46.0440   36.1360   44.1800 H   0  0  0  0  0  0  0  0  0  0  0  0
   44.7310   37.3510   42.6200 H   0  0  0  0  0  0  0  0  0  0  0  0
   43.2040   36.1770   41.1620 H   0  0  0  0  0  0  0  0  0  0  0  0
   42.8190   33.6700   41.0600 O   0  0  0  0  0  0  0  0  0  0  0  0
   40.5220   33.1220   39.9160 O   0  0  0  0  0  0  0  0  0  0  0  0
   41.1690   33.3370   41.2660 P   0  0  0  0  0  0  0  0  0  0  0  0
   41.0020   31.9700   42.2520 O   0  0  0  0  0  0  0  0  0  0  0  0
   40.0490   31.8340   42.4810 H   0  0  0  0  0  0  0  0  0  0  0  0
   40.3820   34.5890   42.0880 O   0  0  0  0  0  0  0  0  0  0  0  0
   39.8300   35.1580   41.5300 H   0  0  0  0  0  0  0  0  0  0  0  0
  1  6  1  0  0  0  0
  1 28  1  0  0  0  0
  2  1  2  0  0  0  0
  3  4  2  0  0  0  0
  3  2  1  0  0  0  0
  4  5  1  0  0  0  0
  5  8  1  0  0  0  0
  5  6  2  0  0  0  0
  7  3  1  0  0  0  0
  9  2  1  0  0  0  0
  9 12  1  1  0  0  0
 10 14  1  0  0  0  0
 10  9  1  0  0  0  0
 11 15  1  1  0  0  0
 11 10  1  0  0  0  0
 11  9  1  0  0  0  0
 13 10  1  0  0  0  0
 16 17  1  0  0  0  0
 17 11  1  0  0  0  0
 18 19  1  0  0  0  0
 18 17  2  0  0  0  0
 20 18  1  0  0  0  0
 21 20  1  0  0  0  0
 22 21  1  0  0  0  0
 23 25  2  0  0  0  0
 23 21  1  0  0  0  0
 24 23  1  0  0  0  0
 25 26  1  0  0  0  0
 26 20  2  0  0  0  0
 26 27  1  0  0  0  0
 27 16  2  0  0  0  0
 28 29  2  0  0  0  0
 31 30  1  0  0  0  0
 31 32  1  0  0  0  0
 32 28  1  0  0  0  0
 33 32  2  0  0  0  0
 33 37  1  0  0  0  0
 34 33  1  0  0  0  0
 35 36  1  0  0  0  0
 35 34  2  0  0  0  0
 36 31  2  0  0  0  0
 38 34  1  0  0  0  0
 39 35  1  0  0  0  0
 40 42  1  0  0  0  0
 40 36  1  0  0  0  0
 41 42  2  0  0  0  0
 42 45  1  0  0  0  0
 42 43  1  0  0  0  0
 43 44  1  0  0  0  0
 46 45  1  0  0  0  0
M  END
>  <minimizedAffinity>
-7.32765102

>  <minimizedRMSD>
0.550331175

$$$$
