
 OpenBabel03242522443D

 50 54  0  0  0  0  0  0  0  0999 V2000
   36.9150   28.1540   42.3610 C   0  0  0  0  0  0  0  0  0  0  0  0
   37.3680   28.8410   41.5730 H   0  0  0  0  0  0  0  0  0  0  0  0
   35.9450   28.4390   42.7250 H   0  0  0  0  0  0  0  0  0  0  0  0
   36.4950   26.9330   40.2910 C   0  0  0  0  0  0  0  0  0  0  0  0
   36.8730   26.8790   41.6310 C   0  0  0  0  0  0  0  0  0  0  0  0
   37.2280   25.7660   42.2920 C   0  0  0  0  0  0  0  0  0  0  0  0
   37.2270   24.5700   41.6080 C   0  0  0  0  0  0  0  0  0  0  0  0
   36.8780   24.5020   40.2950 C   0  0  0  0  0  0  0  0  0  0  0  0
   36.5210   25.6820   39.6640 C   0  0  0  0  0  0  0  0  0  0  0  0
   37.5380   25.6050   43.2840 H   0  0  0  0  0  0  0  0  0  0  0  0
   37.4910   23.5910   42.0160 H   0  0  0  0  0  0  0  0  0  0  0  0
   36.8540   23.5950   39.6820 H   0  0  0  0  0  0  0  0  0  0  0  0
   36.2390   25.6550   38.6130 H   0  0  0  0  0  0  0  0  0  0  0  0
   36.0650   28.3250   39.3950 S   0  0  0  0  0  0  0  0  0  0  0  0
   34.8340   29.0030   40.1010 O   0  0  0  0  0  0  0  0  0  0  0  0
   35.4930   27.9370   38.0710 O   0  0  0  0  0  0  0  0  0  0  0  0
   38.4120   29.7700   38.9070 C   0  0  0  0  0  3  0  0  0  0  0  0
   37.0900   29.7060   39.3990 C   0  0  0  0  0  0  0  0  0  0  0  0
   36.7450   30.9820   39.8840 C   0  0  0  0  0  0  0  0  0  0  0  0
   35.7230   31.0560   40.2970 H   0  0  0  0  0  0  0  0  0  0  0  0
   37.5380   32.1030   39.8880 C   0  0  0  0  0  0  0  0  0  0  0  0
   37.2590   33.3400   40.3370 N   0  0  0  0  0  0  0  0  0  0  0  0
   36.3890   33.7220   40.7780 H   0  0  0  0  0  0  0  0  0  0  0  0
   38.3630   34.0740   40.1140 C   0  0  0  0  0  0  0  0  0  0  0  0
   38.5480   35.1180   40.3310 H   0  0  0  0  0  0  0  0  0  0  0  0
   39.3340   33.2690   39.5180 C   0  0  0  0  0  3  0  0  0  0  0  0
   38.7900   32.0100   39.3810 C   0  0  0  0  0  0  0  0  0  0  0  0
   39.2600   30.8330   38.8740 C   0  0  0  0  0  3  0  0  0  0  0  0
   37.9570   28.2630   43.4270 C   0  0  0  0  0  0  0  0  0  0  0  0
   37.5930   28.7030   44.3940 H   0  0  0  0  0  0  0  0  0  0  0  0
   38.3460   27.2670   43.8020 H   0  0  0  0  0  0  0  0  0  0  0  0
   40.1970   28.1190   42.3850 C   0  0  0  0  0  0  0  0  0  0  0  0
   39.1330   28.9160   42.8620 C   0  0  0  0  0  0  0  0  0  0  0  0
   39.2430   30.2870   42.7320 C   0  0  0  0  0  0  0  0  0  0  0  0
   40.3570   30.7920   42.1560 N   0  0  0  0  0  0  0  0  0  0  0  0
   41.3430   30.0160   41.7110 C   0  0  0  0  0  0  0  0  0  0  0  0
   41.2830   28.6690   41.8170 N   0  0  0  0  0  0  0  0  0  0  0  0
   40.3040   27.0510   42.3980 H   0  0  0  0  0  0  0  0  0  0  0  0
   38.4250   30.8910   43.1030 H   0  0  0  0  0  0  0  0  0  0  0  0
   42.5380   30.6650   41.0730 C   0  0  0  0  0  0  0  0  0  0  0  0
   43.4170   29.9640   41.1170 H   0  0  0  0  0  0  0  0  0  0  0  0
   42.3490   30.7930   39.9880 H   0  0  0  0  0  0  0  0  0  0  0  0
   42.8770   31.9530   41.6560 C   0  0  0  0  0  0  0  0  0  0  0  0
   42.7830   33.1770   41.0210 C   0  0  0  0  0  0  0  0  0  0  0  0
   43.1900   34.1590   41.8830 C   0  0  0  0  0  0  0  0  0  0  0  0
   43.5230   33.4920   43.0300 N   0  0  0  0  0  0  0  0  0  0  0  0
   43.3400   32.1810   42.9010 N   0  0  0  0  0  0  0  0  0  0  0  0
   42.4530   33.4210   40.0110 H   0  0  0  0  0  0  0  0  0  0  0  0
   43.2870   35.2340   41.8380 H   0  0  0  0  0  0  0  0  0  0  0  0
   43.8870   33.8380   43.9590 H   0  0  0  0  0  0  0  0  0  0  0  0
  1  3  1  0  0  0  0
  1 29  1  0  0  0  0
  2  1  1  0  0  0  0
  4  5  1  0  0  0  0
  5  6  2  0  0  0  0
  5  1  1  0  0  0  0
  6 10  1  0  0  0  0
  7 11  1  0  0  0  0
  7  6  1  0  0  0  0
  8  7  2  0  0  0  0
  9  4  2  0  0  0  0
  9  8  1  0  0  0  0
 12  8  1  0  0  0  0
 13  9  1  0  0  0  0
 14 18  1  0  0  0  0
 14 15  2  0  0  0  0
 14  4  1  0  0  0  0
 16 14  2  0  0  0  0
 17 18  1  0  0  0  0
 18 19  2  0  0  0  0
 19 21  1  0  0  0  0
 19 20  1  0  0  0  0
 21 22  1  0  0  0  0
 22 23  1  0  0  0  0
 24 25  1  0  0  0  0
 24 22  1  0  0  0  0
 26 24  2  0  0  0  0
 27 26  1  0  0  0  0
 27 21  2  0  0  0  0
 28 17  2  0  0  0  0
 28 27  1  0  0  0  0
 29 31  1  0  0  0  0
 29 30  1  0  0  0  0
 32 38  1  0  0  0  0
 32 33  1  0  0  0  0
 33 29  1  0  0  0  0
 34 33  2  0  0  0  0
 34 39  1  0  0  0  0
 35 34  1  0  0  0  0
 36 37  1  0  0  0  0
 36 35  2  0  0  0  0
 37 32  2  0  0  0  0
 40 41  1  0  0  0  0
 40 43  1  0  0  0  0
 40 36  1  0  0  0  0
 42 40  1  0  0  0  0
 43 47  2  0  0  0  0
 44 43  1  0  0  0  0
 44 45  2  0  0  0  0
 45 46  1  0  0  0  0
 46 50  1  0  0  0  0
 47 46  1  0  0  0  0
 48 44  1  0  0  0  0
 49 45  1  0  0  0  0
M  END
>  <minimizedAffinity>
-6.72538757

$$$$

 OpenBabel03242522443D

 50 54  0  0  0  0  0  0  0  0999 V2000
   36.5890   27.4990   41.6640 C   0  0  0  0  0  0  0  0  0  0  0  0
   36.9140   28.0800   40.7400 H   0  0  0  0  0  0  0  0  0  0  0  0
   35.5300   27.3690   41.7830 H   0  0  0  0  0  0  0  0  0  0  0  0
   38.0240   26.0950   40.2790 C   0  0  0  0  0  0  0  0  0  0  0  0
   37.2770   26.2180   41.4490 C   0  0  0  0  0  0  0  0  0  0  0  0
   37.1640   25.2770   42.3990 C   0  0  0  0  0  0  0  0  0  0  0  0
   37.8340   24.0860   42.2250 C   0  0  0  0  0  0  0  0  0  0  0  0
   38.5960   23.8540   41.1220 C   0  0  0  0  0  0  0  0  0  0  0  0
   38.6760   24.8600   40.1740 C   0  0  0  0  0  0  0  0  0  0  0  0
   36.6480   25.2610   43.3150 H   0  0  0  0  0  0  0  0  0  0  0  0
   37.8330   23.2360   42.9120 H   0  0  0  0  0  0  0  0  0  0  0  0
   39.1590   22.9390   40.9100 H   0  0  0  0  0  0  0  0  0  0  0  0
   39.2800   24.7000   39.2830 H   0  0  0  0  0  0  0  0  0  0  0  0
   38.2260   27.2710   39.0530 S   0  0  0  0  0  0  0  0  0  0  0  0
   38.9070   26.5790   37.8160 O   0  0  0  0  0  0  0  0  0  0  0  0
   39.2550   28.2740   39.4580 O   0  0  0  0  0  0  0  0  0  0  0  0
   36.7480   29.1620   37.6140 C   0  0  0  0  0  3  0  0  0  0  0  0
   36.8580   27.8890   38.2150 C   0  0  0  0  0  0  0  0  0  0  0  0
   35.6490   27.2010   37.9980 C   0  0  0  0  0  0  0  0  0  0  0  0
   35.6160   26.1840   38.4260 H   0  0  0  0  0  0  0  0  0  0  0  0
   34.5480   27.6660   37.3220 C   0  0  0  0  0  0  0  0  0  0  0  0
   33.3740   27.0530   37.0870 N   0  0  0  0  0  0  0  0  0  0  0  0
   33.0400   26.0990   37.3600 H   0  0  0  0  0  0  0  0  0  0  0  0
   32.6310   27.9290   36.3870 C   0  0  0  0  0  0  0  0  0  0  0  0
   31.6250   27.8210   36.0030 H   0  0  0  0  0  0  0  0  0  0  0  0
   33.3660   29.0980   36.1920 C   0  0  0  0  0  3  0  0  0  0  0  0
   34.5900   28.9140   36.7980 C   0  0  0  0  0  0  0  0  0  0  0  0
   35.7000   29.6970   36.9320 C   0  0  0  0  0  3  0  0  0  0  0  0
   37.1600   28.3760   42.7320 C   0  0  0  0  0  0  0  0  0  0  0  0
   36.5010   28.5050   43.6330 H   0  0  0  0  0  0  0  0  0  0  0  0
   38.0890   27.9590   43.2290 H   0  0  0  0  0  0  0  0  0  0  0  0
   38.9200   30.0800   42.3810 C   0  0  0  0  0  0  0  0  0  0  0  0
   37.6100   29.6210   42.1190 C   0  0  0  0  0  0  0  0  0  0  0  0
   36.8250   30.3620   41.2560 C   0  0  0  0  0  0  0  0  0  0  0  0
   37.3500   31.4800   40.7070 N   0  0  0  0  0  0  0  0  0  0  0  0
   38.5910   31.8870   40.9690 C   0  0  0  0  0  0  0  0  0  0  0  0
   39.3970   31.1980   41.8080 N   0  0  0  0  0  0  0  0  0  0  0  0
   39.6740   29.6560   43.0180 H   0  0  0  0  0  0  0  0  0  0  0  0
   35.8220   30.0050   41.0640 H   0  0  0  0  0  0  0  0  0  0  0  0
   39.0950   33.1350   40.3030 C   0  0  0  0  0  0  0  0  0  0  0  0
   38.2440   33.8580   40.1610 H   0  0  0  0  0  0  0  0  0  0  0  0
   39.7860   33.6630   40.9910 H   0  0  0  0  0  0  0  0  0  0  0  0
   39.7730   32.8840   39.0420 C   0  0  0  0  0  0  0  0  0  0  0  0
   41.0590   33.2760   38.7240 C   0  0  0  0  0  0  0  0  0  0  0  0
   41.3500   32.8650   37.4520 C   0  0  0  0  0  0  0  0  0  0  0  0
   40.2160   32.2270   37.0300 N   0  0  0  0  0  0  0  0  0  0  0  0
   39.2750   32.2360   37.9700 N   0  0  0  0  0  0  0  0  0  0  0  0
   41.7940   33.8220   39.3170 H   0  0  0  0  0  0  0  0  0  0  0  0
   42.2040   32.9380   36.7930 H   0  0  0  0  0  0  0  0  0  0  0  0
   39.9800   31.7520   36.1170 H   0  0  0  0  0  0  0  0  0  0  0  0
  1  3  1  0  0  0  0
  1 29  1  0  0  0  0
  2  1  1  0  0  0  0
  4  5  1  0  0  0  0
  5  1  1  0  0  0  0
  5  6  2  0  0  0  0
  6 10  1  0  0  0  0
  7  6  1  0  0  0  0
  7 11  1  0  0  0  0
  8  7  2  0  0  0  0
  9  4  2  0  0  0  0
  9  8  1  0  0  0  0
 12  8  1  0  0  0  0
 13  9  1  0  0  0  0
 14 16  2  0  0  0  0
 14  4  1  0  0  0  0
 15 14  2  0  0  0  0
 17 18  1  0  0  0  0
 18 14  1  0  0  0  0
 19 18  2  0  0  0  0
 19 20  1  0  0  0  0
 21 19  1  0  0  0  0
 22 21  1  0  0  0  0
 22 23  1  0  0  0  0
 24 22  1  0  0  0  0
 25 24  1  0  0  0  0
 26 24  2  0  0  0  0
 26 27  1  0  0  0  0
 27 28  1  0  0  0  0
 27 21  2  0  0  0  0
 28 17  2  0  0  0  0
 29 31  1  0  0  0  0
 29 30  1  0  0  0  0
 32 38  1  0  0  0  0
 33 32  1  0  0  0  0
 33 29  1  0  0  0  0
 34 33  2  0  0  0  0
 35 36  2  0  0  0  0
 35 34  1  0  0  0  0
 36 37  1  0  0  0  0
 37 32  2  0  0  0  0
 39 34  1  0  0  0  0
 40 36  1  0  0  0  0
 40 42  1  0  0  0  0
 41 40  1  0  0  0  0
 43 40  1  0  0  0  0
 44 43  1  0  0  0  0
 44 48  1  0  0  0  0
 45 44  2  0  0  0  0
 46 45  1  0  0  0  0
 46 47  1  0  0  0  0
 47 43  2  0  0  0  0
 49 45  1  0  0  0  0
 50 46  1  0  0  0  0
M  END
>  <minimizedAffinity>
-6.43285275

$$$$

 OpenBabel03242522443D

 50 54  0  0  0  0  0  0  0  0999 V2000
   36.4480   26.6420   39.8330 C   0  0  0  0  0  0  0  0  0  0  0  0
   35.7670   25.7600   39.5950 H   0  0  0  0  0  0  0  0  0  0  0  0
   36.0340   27.3850   40.4890 H   0  0  0  0  0  0  0  0  0  0  0  0
   38.0800   26.4760   41.6370 C   0  0  0  0  0  0  0  0  0  0  0  0
   37.5980   25.9560   40.4380 C   0  0  0  0  0  0  0  0  0  0  0  0
   38.0790   24.8680   39.8160 C   0  0  0  0  0  0  0  0  0  0  0  0
   39.1340   24.1960   40.3930 C   0  0  0  0  0  0  0  0  0  0  0  0
   39.6860   24.6120   41.5650 C   0  0  0  0  0  0  0  0  0  0  0  0
   39.1490   25.7400   42.1620 C   0  0  0  0  0  0  0  0  0  0  0  0
   37.7940   24.3820   38.9280 H   0  0  0  0  0  0  0  0  0  0  0  0
   39.6240   23.3020   40.0000 H   0  0  0  0  0  0  0  0  0  0  0  0
   40.5210   24.1350   42.0880 H   0  0  0  0  0  0  0  0  0  0  0  0
   39.5720   26.0920   43.1020 H   0  0  0  0  0  0  0  0  0  0  0  0
   37.4860   27.8370   42.4860 S   0  0  0  0  0  0  0  0  0  0  0  0
   38.5120   28.1940   43.6230 O   0  0  0  0  0  0  0  0  0  0  0  0
   36.2660   27.4720   43.2670 O   0  0  0  0  0  0  0  0  0  0  0  0
   36.3530   30.0060   41.1260 C   0  0  0  0  0  3  0  0  0  0  0  0
   37.4660   29.3840   41.7340 C   0  0  0  0  0  0  0  0  0  0  0  0
   38.5630   30.2600   41.6320 C   0  0  0  0  0  0  0  0  0  0  0  0
   39.4990   29.8780   42.0770 H   0  0  0  0  0  0  0  0  0  0  0  0
   38.5710   31.5030   41.0500 C   0  0  0  0  0  0  0  0  0  0  0  0
   39.5860   32.3770   40.9250 N   0  0  0  0  0  0  0  0  0  0  0  0
   40.5830   32.3080   41.2390 H   0  0  0  0  0  0  0  0  0  0  0  0
   39.0820   33.4440   40.2800 C   0  0  0  0  0  0  0  0  0  0  0  0
   39.5720   34.3620   39.9870 H   0  0  0  0  0  0  0  0  0  0  0  0
   37.7330   33.2160   40.0060 C   0  0  0  0  0  3  0  0  0  0  0  0
   37.4220   31.9690   40.5040 C   0  0  0  0  0  0  0  0  0  0  0  0
   36.2780   31.2260   40.5310 C   0  0  0  0  0  3  0  0  0  0  0  0
   36.6600   27.1810   38.4540 C   0  0  0  0  0  0  0  0  0  0  0  0
   37.4460   27.9800   38.3800 H   0  0  0  0  0  0  0  0  0  0  0  0
   37.0790   26.4280   37.7190 H   0  0  0  0  0  0  0  0  0  0  0  0
   34.9510   28.8950   37.9370 C   0  0  0  0  0  0  0  0  0  0  0  0
   35.3620   27.5440   37.8940 C   0  0  0  0  0  0  0  0  0  0  0  0
   34.5230   26.6320   37.2840 C   0  0  0  0  0  0  0  0  0  0  0  0
   33.3600   27.0770   36.7580 N   0  0  0  0  0  0  0  0  0  0  0  0
   33.0000   28.3580   36.8090 C   0  0  0  0  0  0  0  0  0  0  0  0
   33.7850   29.2890   37.3980 N   0  0  0  0  0  0  0  0  0  0  0  0
   35.4510   29.7440   38.3650 H   0  0  0  0  0  0  0  0  0  0  0  0
   34.8440   25.5990   37.2580 H   0  0  0  0  0  0  0  0  0  0  0  0
   31.6950   28.7650   36.1880 C   0  0  0  0  0  0  0  0  0  0  0  0
   31.8490   28.9920   35.0960 H   0  0  0  0  0  0  0  0  0  0  0  0
   31.0030   27.8980   36.1880 H   0  0  0  0  0  0  0  0  0  0  0  0
   31.0580   29.8860   36.8600 C   0  0  0  0  0  0  0  0  0  0  0  0
   30.8090   31.1260   36.3040 C   0  0  0  0  0  0  0  0  0  0  0  0
   30.2000   31.9200   37.2370 C   0  0  0  0  0  0  0  0  0  0  0  0
   30.0960   31.1270   38.3470 N   0  0  0  0  0  0  0  0  0  0  0  0
   30.6050   29.9170   38.1290 N   0  0  0  0  0  0  0  0  0  0  0  0
   31.0230   31.5030   35.3030 H   0  0  0  0  0  0  0  0  0  0  0  0
   29.8280   32.9350   37.2630 H   0  0  0  0  0  0  0  0  0  0  0  0
   29.6950   31.3160   39.3060 H   0  0  0  0  0  0  0  0  0  0  0  0
  1  5  1  0  0  0  0
  1  3  1  0  0  0  0
  2  1  1  0  0  0  0
  4  9  1  0  0  0  0
  4 14  1  0  0  0  0
  5  4  2  0  0  0  0
  6  7  2  0  0  0  0
  6  5  1  0  0  0  0
  7  8  1  0  0  0  0
  8 12  1  0  0  0  0
  8  9  2  0  0  0  0
  9 13  1  0  0  0  0
 10  6  1  0  0  0  0
 11  7  1  0  0  0  0
 14 16  2  0  0  0  0
 14 15  2  0  0  0  0
 17 18  1  0  0  0  0
 18 14  1  0  0  0  0
 19 18  2  0  0  0  0
 19 20  1  0  0  0  0
 21 19  1  0  0  0  0
 22 21  1  0  0  0  0
 22 23  1  0  0  0  0
 24 22  1  0  0  0  0
 25 24  1  0  0  0  0
 26 24  2  0  0  0  0
 26 27  1  0  0  0  0
 27 28  1  0  0  0  0
 27 21  2  0  0  0  0
 28 17  2  0  0  0  0
 29  1  1  0  0  0  0
 30 29  1  0  0  0  0
 31 29  1  0  0  0  0
 32 38  1  0  0  0  0
 33 32  1  0  0  0  0
 33 29  1  0  0  0  0
 34 33  2  0  0  0  0
 35 36  2  0  0  0  0
 35 34  1  0  0  0  0
 36 37  1  0  0  0  0
 37 32  2  0  0  0  0
 39 34  1  0  0  0  0
 40 36  1  0  0  0  0
 40 43  1  0  0  0  0
 41 40  1  0  0  0  0
 42 40  1  0  0  0  0
 43 47  2  0  0  0  0
 44 43  1  0  0  0  0
 44 45  2  0  0  0  0
 45 49  1  0  0  0  0
 45 46  1  0  0  0  0
 46 50  1  0  0  0  0
 47 46  1  0  0  0  0
 48 44  1  0  0  0  0
M  END
>  <minimizedAffinity>
-6.4193573

$$$$

 OpenBabel03242522443D

 50 54  0  0  0  0  0  0  0  0999 V2000
   39.4680   27.0780   40.4310 C   0  0  0  0  0  0  0  0  0  0  0  0
   38.6560   27.8780   40.4390 H   0  0  0  0  0  0  0  0  0  0  0  0
   40.3100   27.2640   41.0720 H   0  0  0  0  0  0  0  0  0  0  0  0
   37.7250   26.0980   41.8270 C   0  0  0  0  0  0  0  0  0  0  0  0
   38.7050   25.8970   40.8570 C   0  0  0  0  0  0  0  0  0  0  0  0
   38.9820   24.7240   40.2670 C   0  0  0  0  0  0  0  0  0  0  0  0
   38.2480   23.6170   40.6330 C   0  0  0  0  0  0  0  0  0  0  0  0
   37.2630   23.6940   41.5680 C   0  0  0  0  0  0  0  0  0  0  0  0
   37.0210   24.9300   42.1440 C   0  0  0  0  0  0  0  0  0  0  0  0
   39.6790   24.4560   39.5260 H   0  0  0  0  0  0  0  0  0  0  0  0
   38.3640   22.6050   40.2380 H   0  0  0  0  0  0  0  0  0  0  0  0
   36.6350   22.8660   41.9120 H   0  0  0  0  0  0  0  0  0  0  0  0
   36.2370   25.0190   42.8950 H   0  0  0  0  0  0  0  0  0  0  0  0
   37.3110   27.5730   42.5870 S   0  0  0  0  0  0  0  0  0  0  0  0
   38.5360   28.0380   43.4570 O   0  0  0  0  0  0  0  0  0  0  0  0
   36.2580   27.3500   43.6220 O   0  0  0  0  0  0  0  0  0  0  0  0
   36.1210   29.3230   40.7560 C   0  0  0  0  0  3  0  0  0  0  0  0
   37.1620   29.0120   41.6580 C   0  0  0  0  0  0  0  0  0  0  0  0
   38.0580   30.0980   41.6770 C   0  0  0  0  0  0  0  0  0  0  0  0
   38.9210   29.9690   42.3540 H   0  0  0  0  0  0  0  0  0  0  0  0
   37.9560   31.2620   40.9560 C   0  0  0  0  0  0  0  0  0  0  0  0
   38.7790   32.3250   40.9380 N   0  0  0  0  0  0  0  0  0  0  0  0
   39.6690   32.5040   41.4600 H   0  0  0  0  0  0  0  0  0  0  0  0
   38.2380   33.2000   40.0710 C   0  0  0  0  0  0  0  0  0  0  0  0
   38.5930   34.1770   39.7730 H   0  0  0  0  0  0  0  0  0  0  0  0
   37.0630   32.6590   39.5510 C   0  0  0  0  0  3  0  0  0  0  0  0
   36.8970   31.4180   40.1270 C   0  0  0  0  0  0  0  0  0  0  0  0
   35.9470   30.4450   40.0070 C   0  0  0  0  0  3  0  0  0  0  0  0
   39.8550   27.1200   38.9870 C   0  0  0  0  0  0  0  0  0  0  0  0
   40.8950   27.4980   38.7930 H   0  0  0  0  0  0  0  0  0  0  0  0
   39.9240   26.1030   38.4940 H   0  0  0  0  0  0  0  0  0  0  0  0
   38.9820   29.1680   37.9060 C   0  0  0  0  0  0  0  0  0  0  0  0
   38.8040   27.8080   38.2450 C   0  0  0  0  0  0  0  0  0  0  0  0
   37.6490   27.1820   37.8200 C   0  0  0  0  0  0  0  0  0  0  0  0
   36.7550   27.8970   37.1020 N   0  0  0  0  0  0  0  0  0  0  0  0
   36.9510   29.1770   36.7920 C   0  0  0  0  0  0  0  0  0  0  0  0
   38.0640   29.8360   37.1870 N   0  0  0  0  0  0  0  0  0  0  0  0
   39.7970   29.8260   38.1430 H   0  0  0  0  0  0  0  0  0  0  0  0
   37.5180   26.1410   38.0870 H   0  0  0  0  0  0  0  0  0  0  0  0
   35.9090   29.8900   35.9790 C   0  0  0  0  0  0  0  0  0  0  0  0
   34.9260   29.3480   36.0650 H   0  0  0  0  0  0  0  0  0  0  0  0
   35.7090   30.8830   36.4290 H   0  0  0  0  0  0  0  0  0  0  0  0
   36.2810   30.0610   34.5840 C   0  0  0  0  0  0  0  0  0  0  0  0
   36.2360   31.2460   33.8760 C   0  0  0  0  0  0  0  0  0  0  0  0
   36.6580   31.0170   32.5950 C   0  0  0  0  0  0  0  0  0  0  0  0
   36.9500   29.6810   32.5630 N   0  0  0  0  0  0  0  0  0  0  0  0
   36.7270   29.1070   33.7430 N   0  0  0  0  0  0  0  0  0  0  0  0
   35.9330   32.2450   34.1940 H   0  0  0  0  0  0  0  0  0  0  0  0
   36.7900   31.6180   31.7060 H   0  0  0  0  0  0  0  0  0  0  0  0
   37.3070   29.0610   31.7860 H   0  0  0  0  0  0  0  0  0  0  0  0
  1  2  1  0  0  0  0
  1  5  1  0  0  0  0
  1  3  1  0  0  0  0
  4  9  1  0  0  0  0
  4 14  1  0  0  0  0
  5  4  2  0  0  0  0
  6  7  2  0  0  0  0
  6  5  1  0  0  0  0
  7  8  1  0  0  0  0
  8 12  1  0  0  0  0
  8  9  2  0  0  0  0
  9 13  1  0  0  0  0
 10  6  1  0  0  0  0
 11  7  1  0  0  0  0
 14 15  2  0  0  0  0
 14 16  2  0  0  0  0
 17 18  1  0  0  0  0
 18 19  2  0  0  0  0
 18 14  1  0  0  0  0
 19 20  1  0  0  0  0
 21 19  1  0  0  0  0
 22 21  1  0  0  0  0
 22 23  1  0  0  0  0
 24 22  1  0  0  0  0
 25 24  1  0  0  0  0
 26 24  2  0  0  0  0
 26 27  1  0  0  0  0
 27 21  2  0  0  0  0
 28 27  1  0  0  0  0
 28 17  2  0  0  0  0
 29  1  1  0  0  0  0
 30 29  1  0  0  0  0
 31 29  1  0  0  0  0
 32 38  1  0  0  0  0
 32 33  1  0  0  0  0
 33 29  1  0  0  0  0
 34 39  1  0  0  0  0
 34 33  2  0  0  0  0
 35 34  1  0  0  0  0
 36 35  2  0  0  0  0
 36 37  1  0  0  0  0
 37 32  2  0  0  0  0
 40 41  1  0  0  0  0
 40 42  1  0  0  0  0
 40 36  1  0  0  0  0
 43 40  1  0  0  0  0
 44 48  1  0  0  0  0
 44 43  1  0  0  0  0
 45 44  2  0  0  0  0
 46 45  1  0  0  0  0
 46 47  1  0  0  0  0
 47 43  2  0  0  0  0
 49 45  1  0  0  0  0
 50 46  1  0  0  0  0
M  END
>  <minimizedAffinity>
-6.4129343

$$$$

 OpenBabel03242522443D

 50 54  0  0  0  0  0  0  0  0999 V2000
   36.1430   29.0790   40.2100 C   0  0  0  0  0  0  0  0  0  0  0  0
   35.0210   29.1250   40.3960 H   0  0  0  0  0  0  0  0  0  0  0  0
   36.7650   29.3350   41.0480 H   0  0  0  0  0  0  0  0  0  0  0  0
   36.9210   26.8290   40.7370 C   0  0  0  0  0  0  0  0  0  0  0  0
   36.3070   27.6730   39.8150 C   0  0  0  0  0  0  0  0  0  0  0  0
   35.8290   27.2980   38.6180 C   0  0  0  0  0  0  0  0  0  0  0  0
   35.9440   25.9740   38.2530 C   0  0  0  0  0  0  0  0  0  0  0  0
   36.5240   25.0580   39.0740 C   0  0  0  0  0  0  0  0  0  0  0  0
   36.9990   25.5020   40.2970 C   0  0  0  0  0  0  0  0  0  0  0  0
   35.3430   27.8330   37.8550 H   0  0  0  0  0  0  0  0  0  0  0  0
   35.6030   25.5300   37.3150 H   0  0  0  0  0  0  0  0  0  0  0  0
   36.6530   23.9920   38.8600 H   0  0  0  0  0  0  0  0  0  0  0  0
   37.4670   24.7880   40.9730 H   0  0  0  0  0  0  0  0  0  0  0  0
   37.5180   27.2480   42.2840 S   0  0  0  0  0  0  0  0  0  0  0  0
   38.3030   26.0140   42.8600 O   0  0  0  0  0  0  0  0  0  0  0  0
   36.3930   27.3850   43.2580 O   0  0  0  0  0  0  0  0  0  0  0  0
   38.6570   29.7560   42.7790 C   0  0  0  0  0  3  0  0  0  0  0  0
   38.7920   28.3930   42.4380 C   0  0  0  0  0  0  0  0  0  0  0  0
   40.1620   28.1230   42.2580 C   0  0  0  0  0  0  0  0  0  0  0  0
   40.3930   27.0780   41.9870 H   0  0  0  0  0  0  0  0  0  0  0  0
   41.1990   29.0140   42.3870 C   0  0  0  0  0  0  0  0  0  0  0  0
   42.5190   28.8110   42.2270 N   0  0  0  0  0  0  0  0  0  0  0  0
   43.0450   27.9420   41.9720 H   0  0  0  0  0  0  0  0  0  0  0  0
   43.1090   29.9950   42.4640 C   0  0  0  0  0  0  0  0  0  0  0  0
   44.1590   30.2550   42.4390 H   0  0  0  0  0  0  0  0  0  0  0  0
   42.1300   30.9390   42.7740 C   0  0  0  0  0  3  0  0  0  0  0  0
   40.9130   30.2950   42.7200 C   0  0  0  0  0  0  0  0  0  0  0  0
   39.6260   30.6990   42.9260 C   0  0  0  0  0  3  0  0  0  0  0  0
   36.2620   30.0850   39.1100 C   0  0  0  0  0  0  0  0  0  0  0  0
   36.1560   29.6610   38.0750 H   0  0  0  0  0  0  0  0  0  0  0  0
   35.4300   30.8540   39.0900 H   0  0  0  0  0  0  0  0  0  0  0  0
   37.3520   32.1920   39.8150 C   0  0  0  0  0  0  0  0  0  0  0  0
   37.4710   30.8710   39.3290 C   0  0  0  0  0  0  0  0  0  0  0  0
   38.7420   30.3720   39.1190 C   0  0  0  0  0  0  0  0  0  0  0  0
   39.8000   31.1680   39.3920 N   0  0  0  0  0  0  0  0  0  0  0  0
   39.6580   32.4090   39.8540 C   0  0  0  0  0  0  0  0  0  0  0  0
   38.4350   32.9440   40.0740 N   0  0  0  0  0  0  0  0  0  0  0  0
   36.4650   32.7570   40.0350 H   0  0  0  0  0  0  0  0  0  0  0  0
   38.8260   29.3610   38.7430 H   0  0  0  0  0  0  0  0  0  0  0  0
   40.8900   33.2170   40.1420 C   0  0  0  0  0  0  0  0  0  0  0  0
   40.6050   34.1680   40.6720 H   0  0  0  0  0  0  0  0  0  0  0  0
   41.5190   32.6770   40.8770 H   0  0  0  0  0  0  0  0  0  0  0  0
   41.6810   33.5070   38.9570 C   0  0  0  0  0  0  0  0  0  0  0  0
   43.0090   33.8890   38.9450 C   0  0  0  0  0  0  0  0  0  0  0  0
   43.4090   34.0750   37.6500 C   0  0  0  0  0  0  0  0  0  0  0  0
   42.2970   33.7960   36.9040 N   0  0  0  0  0  0  0  0  0  0  0  0
   41.2670   33.4580   37.6750 N   0  0  0  0  0  0  0  0  0  0  0  0
   43.7030   34.0430   39.7720 H   0  0  0  0  0  0  0  0  0  0  0  0
   44.3270   34.3650   37.1590 H   0  0  0  0  0  0  0  0  0  0  0  0
   42.1340   33.8060   35.8600 H   0  0  0  0  0  0  0  0  0  0  0  0
  1  2  1  0  0  0  0
  1  3  1  0  0  0  0
  4 14  1  0  0  0  0
  5  1  1  0  0  0  0
  5  4  2  0  0  0  0
  6  5  1  0  0  0  0
  7  6  2  0  0  0  0
  7  8  1  0  0  0  0
  8  9  2  0  0  0  0
  9  4  1  0  0  0  0
  9 13  1  0  0  0  0
 10  6  1  0  0  0  0
 11  7  1  0  0  0  0
 12  8  1  0  0  0  0
 14 18  1  0  0  0  0
 14 15  2  0  0  0  0
 14 16  2  0  0  0  0
 17 28  1  0  0  0  0
 18 17  2  0  0  0  0
 19 21  2  0  0  0  0
 19 18  1  0  0  0  0
 20 19  1  0  0  0  0
 21 27  1  0  0  0  0
 22 21  1  0  0  0  0
 22 24  1  0  0  0  0
 23 22  1  0  0  0  0
 24 26  2  0  0  0  0
 25 24  1  0  0  0  0
 27 26  1  0  0  0  0
 27 28  2  0  0  0  0
 29 33  1  0  0  0  0
 29  1  1  0  0  0  0
 30 29  1  0  0  0  0
 31 29  1  0  0  0  0
 32 38  1  0  0  0  0
 32 37  1  0  0  0  0
 33 32  2  0  0  0  0
 34 33  1  0  0  0  0
 34 35  2  0  0  0  0
 35 36  1  0  0  0  0
 36 37  2  0  0  0  0
 36 40  1  0  0  0  0
 39 34  1  0  0  0  0
 40 41  1  0  0  0  0
 40 42  1  0  0  0  0
 43 40  1  0  0  0  0
 44 43  1  0  0  0  0
 44 48  1  0  0  0  0
 45 44  2  0  0  0  0
 46 45  1  0  0  0  0
 46 47  1  0  0  0  0
 47 43  2  0  0  0  0
 49 45  1  0  0  0  0
 50 46  1  0  0  0  0
M  END
>  <minimizedAffinity>
-6.3602252

$$$$

 OpenBabel03242522443D

 50 54  0  0  0  0  0  0  0  0999 V2000
   36.3980   26.7980   38.4970 C   0  0  0  0  0  0  0  0  0  0  0  0
   35.7840   27.7230   38.7510 H   0  0  0  0  0  0  0  0  0  0  0  0
   37.2900   26.9750   37.9260 H   0  0  0  0  0  0  0  0  0  0  0  0
   36.7550   27.2150   40.8730 C   0  0  0  0  0  0  0  0  0  0  0  0
   36.7000   26.2830   39.8390 C   0  0  0  0  0  0  0  0  0  0  0  0
   36.8700   24.9580   39.9800 C   0  0  0  0  0  0  0  0  0  0  0  0
   37.1180   24.4600   41.2400 C   0  0  0  0  0  0  0  0  0  0  0  0
   37.1910   25.2760   42.3260 C   0  0  0  0  0  0  0  0  0  0  0  0
   37.0080   26.6340   42.1220 C   0  0  0  0  0  0  0  0  0  0  0  0
   36.8400   24.1680   39.2880 H   0  0  0  0  0  0  0  0  0  0  0  0
   37.2760   23.4110   41.5020 H   0  0  0  0  0  0  0  0  0  0  0  0
   37.3810   24.9610   43.3570 H   0  0  0  0  0  0  0  0  0  0  0  0
   37.0610   27.3080   42.9750 H   0  0  0  0  0  0  0  0  0  0  0  0
   36.5160   28.9040   40.7540 S   0  0  0  0  0  0  0  0  0  0  0  0
   36.9520   29.5600   42.1150 O   0  0  0  0  0  0  0  0  0  0  0  0
   35.0570   29.2230   40.7070 O   0  0  0  0  0  0  0  0  0  0  0  0
   37.1030   30.7750   38.7570 C   0  0  0  0  0  3  0  0  0  0  0  0
   37.5280   29.8510   39.7360 C   0  0  0  0  0  0  0  0  0  0  0  0
   38.9360   29.8470   39.7480 C   0  0  0  0  0  0  0  0  0  0  0  0
   39.3880   29.1560   40.4810 H   0  0  0  0  0  0  0  0  0  0  0  0
   39.7670   30.6010   38.9560 C   0  0  0  0  0  0  0  0  0  0  0  0
   41.1110   30.6350   38.9260 N   0  0  0  0  0  0  0  0  0  0  0  0
   41.8160   30.1050   39.4900 H   0  0  0  0  0  0  0  0  0  0  0  0
   41.4390   31.5320   37.9790 C   0  0  0  0  0  0  0  0  0  0  0  0
   42.4180   31.8510   37.6470 H   0  0  0  0  0  0  0  0  0  0  0  0
   40.2720   32.0540   37.4210 C   0  0  0  0  0  3  0  0  0  0  0  0
   39.2110   31.4470   38.0560 C   0  0  0  0  0  0  0  0  0  0  0  0
   37.8560   31.5550   37.9350 C   0  0  0  0  0  3  0  0  0  0  0  0
   35.3860   26.0250   37.7130 C   0  0  0  0  0  0  0  0  0  0  0  0
   35.8200   25.3490   36.9280 H   0  0  0  0  0  0  0  0  0  0  0  0
   34.8050   25.2680   38.3220 H   0  0  0  0  0  0  0  0  0  0  0  0
   34.5560   28.3390   37.4230 C   0  0  0  0  0  0  0  0  0  0  0  0
   34.3690   26.9520   37.2280 C   0  0  0  0  0  0  0  0  0  0  0  0
   33.2380   26.5410   36.5490 C   0  0  0  0  0  0  0  0  0  0  0  0
   32.3760   27.4830   36.1040 N   0  0  0  0  0  0  0  0  0  0  0  0
   32.5810   28.7840   36.2980 C   0  0  0  0  0  0  0  0  0  0  0  0
   33.6710   29.2360   36.9590 N   0  0  0  0  0  0  0  0  0  0  0  0
   35.3550   28.8530   37.9240 H   0  0  0  0  0  0  0  0  0  0  0  0
   33.1000   25.4780   36.4070 H   0  0  0  0  0  0  0  0  0  0  0  0
   31.5750   29.7600   35.7570 C   0  0  0  0  0  0  0  0  0  0  0  0
   32.0860   30.4860   35.0650 H   0  0  0  0  0  0  0  0  0  0  0  0
   30.8590   29.2230   35.1040 H   0  0  0  0  0  0  0  0  0  0  0  0
   30.8420   30.4680   36.7930 C   0  0  0  0  0  0  0  0  0  0  0  0
   30.4070   31.7780   36.7230 C   0  0  0  0  0  0  0  0  0  0  0  0
   29.7560   32.0950   37.8850 C   0  0  0  0  0  0  0  0  0  0  0  0
   29.8170   30.9530   38.6340 N   0  0  0  0  0  0  0  0  0  0  0  0
   30.4610   29.9830   37.9910 N   0  0  0  0  0  0  0  0  0  0  0  0
   30.5140   32.5130   35.9240 H   0  0  0  0  0  0  0  0  0  0  0  0
   29.2620   32.9720   38.2780 H   0  0  0  0  0  0  0  0  0  0  0  0
   29.4500   30.7300   39.6000 H   0  0  0  0  0  0  0  0  0  0  0  0
  1  2  1  0  0  0  0
  1  5  1  0  0  0  0
  3  1  1  0  0  0  0
  4  9  1  0  0  0  0
  5  6  1  0  0  0  0
  5  4  2  0  0  0  0
  6  7  2  0  0  0  0
  7 11  1  0  0  0  0
  7  8  1  0  0  0  0
  8 12  1  0  0  0  0
  9  8  2  0  0  0  0
  9 13  1  0  0  0  0
 10  6  1  0  0  0  0
 14  4  1  0  0  0  0
 14 15  2  0  0  0  0
 16 14  2  0  0  0  0
 17 18  1  0  0  0  0
 18 19  2  0  0  0  0
 18 14  1  0  0  0  0
 19 20  1  0  0  0  0
 21 19  1  0  0  0  0
 22 21  1  0  0  0  0
 22 23  1  0  0  0  0
 24 22  1  0  0  0  0
 25 24  1  0  0  0  0
 26 24  2  0  0  0  0
 26 27  1  0  0  0  0
 27 21  2  0  0  0  0
 28 27  1  0  0  0  0
 28 17  2  0  0  0  0
 29 31  1  0  0  0  0
 29  1  1  0  0  0  0
 30 29  1  0  0  0  0
 32 38  1  0  0  0  0
 33 32  1  0  0  0  0
 33 29  1  0  0  0  0
 34 33  2  0  0  0  0
 35 36  2  0  0  0  0
 35 34  1  0  0  0  0
 36 37  1  0  0  0  0
 37 32  2  0  0  0  0
 39 34  1  0  0  0  0
 40 36  1  0  0  0  0
 40 43  1  0  0  0  0
 41 40  1  0  0  0  0
 42 40  1  0  0  0  0
 43 47  2  0  0  0  0
 44 43  1  0  0  0  0
 44 45  2  0  0  0  0
 45 49  1  0  0  0  0
 45 46  1  0  0  0  0
 46 50  1  0  0  0  0
 47 46  1  0  0  0  0
 48 44  1  0  0  0  0
M  END
>  <minimizedAffinity>
-6.34027147

$$$$

 OpenBabel03242522443D

 50 54  0  0  0  0  0  0  0  0999 V2000
   38.1790   30.7000   38.5820 C   0  0  0  0  0  0  0  0  0  0  0  0
   38.4190   31.6940   38.0790 H   0  0  0  0  0  0  0  0  0  0  0  0
   37.8440   30.7630   39.6000 H   0  0  0  0  0  0  0  0  0  0  0  0
   36.0250   29.5920   38.3000 C   0  0  0  0  0  0  0  0  0  0  0  0
   37.1330   30.1790   37.6920 C   0  0  0  0  0  0  0  0  0  0  0  0
   37.3010   30.3300   36.3690 C   0  0  0  0  0  0  0  0  0  0  0  0
   36.3090   29.8770   35.5260 C   0  0  0  0  0  0  0  0  0  0  0  0
   35.1810   29.2900   36.0080 C   0  0  0  0  0  0  0  0  0  0  0  0
   35.0620   29.1600   37.3810 C   0  0  0  0  0  0  0  0  0  0  0  0
   38.0760   30.7610   35.8030 H   0  0  0  0  0  0  0  0  0  0  0  0
   36.3120   29.9330   34.4350 H   0  0  0  0  0  0  0  0  0  0  0  0
   34.3490   28.9070   35.4080 H   0  0  0  0  0  0  0  0  0  0  0  0
   34.1670   28.6940   37.7920 H   0  0  0  0  0  0  0  0  0  0  0  0
   35.7480   29.4030   39.9770 S   0  0  0  0  0  0  0  0  0  0  0  0
   34.2190   29.1040   40.1920 O   0  0  0  0  0  0  0  0  0  0  0  0
   35.9140   30.7090   40.6840 O   0  0  0  0  0  0  0  0  0  0  0  0
   36.4140   27.8390   42.2010 C   0  0  0  0  0  3  0  0  0  0  0  0
   36.3460   28.0180   40.8010 C   0  0  0  0  0  0  0  0  0  0  0  0
   36.8420   26.8500   40.1900 C   0  0  0  0  0  0  0  0  0  0  0  0
   36.8380   26.8730   39.0860 H   0  0  0  0  0  0  0  0  0  0  0  0
   37.3130   25.7270   40.8230 C   0  0  0  0  0  0  0  0  0  0  0  0
   37.7960   24.5910   40.2900 N   0  0  0  0  0  0  0  0  0  0  0  0
   37.9200   24.3100   39.2890 H   0  0  0  0  0  0  0  0  0  0  0  0
   38.1240   23.8030   41.3290 C   0  0  0  0  0  0  0  0  0  0  0  0
   38.5450   22.8060   41.3270 H   0  0  0  0  0  0  0  0  0  0  0  0
   37.8350   24.4710   42.5180 C   0  0  0  0  0  3  0  0  0  0  0  0
   37.3180   25.7020   42.1770 C   0  0  0  0  0  0  0  0  0  0  0  0
   36.8650   26.7650   42.9030 C   0  0  0  0  0  3  0  0  0  0  0  0
   39.5140   30.0340   38.4820 C   0  0  0  0  0  0  0  0  0  0  0  0
   39.6560   29.4060   37.5610 H   0  0  0  0  0  0  0  0  0  0  0  0
   40.3840   30.7500   38.3640 H   0  0  0  0  0  0  0  0  0  0  0  0
   39.4990   30.0050   40.9560 C   0  0  0  0  0  0  0  0  0  0  0  0
   39.7840   29.3460   39.7400 C   0  0  0  0  0  0  0  0  0  0  0  0
   40.2750   28.0560   39.8030 C   0  0  0  0  0  0  0  0  0  0  0  0
   40.4510   27.4920   41.0190 N   0  0  0  0  0  0  0  0  0  0  0  0
   40.1690   28.1360   42.1500 C   0  0  0  0  0  0  0  0  0  0  0  0
   39.6890   29.4000   42.1410 N   0  0  0  0  0  0  0  0  0  0  0  0
   39.1220   30.9970   41.1190 H   0  0  0  0  0  0  0  0  0  0  0  0
   40.4940   27.5590   38.8670 H   0  0  0  0  0  0  0  0  0  0  0  0
   40.3850   27.4260   43.4550 C   0  0  0  0  0  0  0  0  0  0  0  0
   40.4440   28.1790   44.2900 H   0  0  0  0  0  0  0  0  0  0  0  0
   39.4870   26.8240   43.6980 H   0  0  0  0  0  0  0  0  0  0  0  0
   41.5550   26.5630   43.4580 C   0  0  0  0  0  0  0  0  0  0  0  0
   42.8590   26.9720   43.6600 C   0  0  0  0  0  0  0  0  0  0  0  0
   43.6850   25.8830   43.5910 C   0  0  0  0  0  0  0  0  0  0  0  0
   42.8450   24.8320   43.3450 N   0  0  0  0  0  0  0  0  0  0  0  0
   41.5790   25.2300   43.2650 N   0  0  0  0  0  0  0  0  0  0  0  0
   43.2630   27.9680   43.8500 H   0  0  0  0  0  0  0  0  0  0  0  0
   44.7490   25.7130   43.6820 H   0  0  0  0  0  0  0  0  0  0  0  0
   43.0350   23.8000   43.2140 H   0  0  0  0  0  0  0  0  0  0  0  0
  1  3  1  0  0  0  0
  2  1  1  0  0  0  0
  4 14  1  0  0  0  0
  5  4  1  0  0  0  0
  5  1  1  0  0  0  0
  6  5  2  0  0  0  0
  7  8  2  0  0  0  0
  7  6  1  0  0  0  0
  8  9  1  0  0  0  0
  9 13  1  0  0  0  0
  9  4  2  0  0  0  0
 10  6  1  0  0  0  0
 11  7  1  0  0  0  0
 12  8  1  0  0  0  0
 14 15  2  0  0  0  0
 14 16  2  0  0  0  0
 14 18  1  0  0  0  0
 17 28  1  0  0  0  0
 18 17  2  0  0  0  0
 19 18  1  0  0  0  0
 19 21  2  0  0  0  0
 20 19  1  0  0  0  0
 21 27  1  0  0  0  0
 22 21  1  0  0  0  0
 22 24  1  0  0  0  0
 23 22  1  0  0  0  0
 24 26  2  0  0  0  0
 25 24  1  0  0  0  0
 27 26  1  0  0  0  0
 27 28  2  0  0  0  0
 29  1  1  0  0  0  0
 29 33  1  0  0  0  0
 30 29  1  0  0  0  0
 31 29  1  0  0  0  0
 32 38  1  0  0  0  0
 32 37  1  0  0  0  0
 33 34  1  0  0  0  0
 33 32  2  0  0  0  0
 34 35  2  0  0  0  0
 35 36  1  0  0  0  0
 36 40  1  0  0  0  0
 37 36  2  0  0  0  0
 39 34  1  0  0  0  0
 40 43  1  0  0  0  0
 40 42  1  0  0  0  0
 40 41  1  0  0  0  0
 43 44  1  0  0  0  0
 44 48  1  0  0  0  0
 45 44  2  0  0  0  0
 45 49  1  0  0  0  0
 46 45  1  0  0  0  0
 47 46  1  0  0  0  0
 47 43  2  0  0  0  0
 50 46  1  0  0  0  0
M  END
>  <minimizedAffinity>
-6.32539272

$$$$

 OpenBabel03242522443D

 50 54  0  0  0  0  0  0  0  0999 V2000
   37.3330   26.3600   42.3570 C   0  0  0  0  0  0  0  0  0  0  0  0
   37.2820   26.7720   41.2960 H   0  0  0  0  0  0  0  0  0  0  0  0
   36.7010   25.5160   42.5600 H   0  0  0  0  0  0  0  0  0  0  0  0
   39.3340   25.3950   41.3510 C   0  0  0  0  0  0  0  0  0  0  0  0
   38.7570   26.0150   42.4580 C   0  0  0  0  0  0  0  0  0  0  0  0
   39.4050   26.3450   43.5860 C   0  0  0  0  0  0  0  0  0  0  0  0
   40.7500   26.0570   43.6770 C   0  0  0  0  0  0  0  0  0  0  0  0
   41.4190   25.4560   42.6570 C   0  0  0  0  0  0  0  0  0  0  0  0
   40.7000   25.1380   41.5180 C   0  0  0  0  0  0  0  0  0  0  0  0
   39.0850   26.8180   44.4690 H   0  0  0  0  0  0  0  0  0  0  0  0
   41.4000   26.2670   44.5300 H   0  0  0  0  0  0  0  0  0  0  0  0
   42.4830   25.1960   42.6500 H   0  0  0  0  0  0  0  0  0  0  0  0
   41.2130   24.6560   40.6860 H   0  0  0  0  0  0  0  0  0  0  0  0
   38.5630   24.9820   39.8810 S   0  0  0  0  0  0  0  0  0  0  0  0
   37.3550   24.0300   40.2100 O   0  0  0  0  0  0  0  0  0  0  0  0
   39.4440   24.0980   39.0610 O   0  0  0  0  0  0  0  0  0  0  0  0
   36.2840   26.1130   38.7150 C   0  0  0  0  0  3  0  0  0  0  0  0
   37.6630   26.1640   39.0150 C   0  0  0  0  0  0  0  0  0  0  0  0
   38.1780   27.3660   38.4930 C   0  0  0  0  0  0  0  0  0  0  0  0
   39.2570   27.5180   38.6680 H   0  0  0  0  0  0  0  0  0  0  0  0
   37.4800   28.3310   37.8100 C   0  0  0  0  0  0  0  0  0  0  0  0
   37.9200   29.4910   37.2910 N   0  0  0  0  0  0  0  0  0  0  0  0
   38.8780   29.9140   37.2910 H   0  0  0  0  0  0  0  0  0  0  0  0
   36.8500   30.0750   36.7240 C   0  0  0  0  0  0  0  0  0  0  0  0
   36.7810   31.0190   36.2000 H   0  0  0  0  0  0  0  0  0  0  0  0
   35.7360   29.2540   36.8990 C   0  0  0  0  0  3  0  0  0  0  0  0
   36.1560   28.1420   37.5950 C   0  0  0  0  0  0  0  0  0  0  0  0
   35.5220   27.0210   38.0470 C   0  0  0  0  0  3  0  0  0  0  0  0
   36.8980   27.5690   43.1230 C   0  0  0  0  0  0  0  0  0  0  0  0
   35.9270   27.4500   43.6740 H   0  0  0  0  0  0  0  0  0  0  0  0
   37.5780   27.8430   43.9860 H   0  0  0  0  0  0  0  0  0  0  0  0
   35.9210   28.9330   41.3030 C   0  0  0  0  0  0  0  0  0  0  0  0
   36.9610   28.7270   42.2360 C   0  0  0  0  0  0  0  0  0  0  0  0
   37.9770   29.6610   42.2900 C   0  0  0  0  0  0  0  0  0  0  0  0
   37.9220   30.7210   41.4520 N   0  0  0  0  0  0  0  0  0  0  0  0
   36.9260   30.8930   40.5850 C   0  0  0  0  0  0  0  0  0  0  0  0
   35.9100   30.0050   40.4930 N   0  0  0  0  0  0  0  0  0  0  0  0
   35.0560   28.3280   41.1050 H   0  0  0  0  0  0  0  0  0  0  0  0
   38.7720   29.4940   43.0050 H   0  0  0  0  0  0  0  0  0  0  0  0
   36.9410   32.1080   39.7030 C   0  0  0  0  0  0  0  0  0  0  0  0
   36.4250   31.8750   38.7300 H   0  0  0  0  0  0  0  0  0  0  0  0
   36.3130   32.8990   40.1580 H   0  0  0  0  0  0  0  0  0  0  0  0
   38.2760   32.6320   39.4630 C   0  0  0  0  0  0  0  0  0  0  0  0
   38.8410   33.7220   40.0970 C   0  0  0  0  0  0  0  0  0  0  0  0
   40.1050   33.9150   39.6110 C   0  0  0  0  0  0  0  0  0  0  0  0
   40.2720   32.9240   38.6840 N   0  0  0  0  0  0  0  0  0  0  0  0
   39.1880   32.1580   38.5910 N   0  0  0  0  0  0  0  0  0  0  0  0
   38.4310   34.3790   40.8660 H   0  0  0  0  0  0  0  0  0  0  0  0
   40.9050   34.6190   39.7960 H   0  0  0  0  0  0  0  0  0  0  0  0
   41.0870   32.6810   38.0580 H   0  0  0  0  0  0  0  0  0  0  0  0
  1  5  1  0  0  0  0
  1  3  1  0  0  0  0
  1 29  1  0  0  0  0
  2  1  1  0  0  0  0
  4  9  2  0  0  0  0
  4  5  1  0  0  0  0
  5  6  2  0  0  0  0
  6  7  1  0  0  0  0
  6 10  1  0  0  0  0
  7 11  1  0  0  0  0
  8  7  2  0  0  0  0
  9  8  1  0  0  0  0
 12  8  1  0  0  0  0
 13  9  1  0  0  0  0
 14 15  2  0  0  0  0
 14  4  1  0  0  0  0
 16 14  2  0  0  0  0
 17 18  1  0  0  0  0
 18 14  1  0  0  0  0
 19 20  1  0  0  0  0
 19 18  2  0  0  0  0
 21 19  1  0  0  0  0
 22 21  1  0  0  0  0
 23 22  1  0  0  0  0
 24 26  2  0  0  0  0
 24 22  1  0  0  0  0
 25 24  1  0  0  0  0
 26 27  1  0  0  0  0
 27 21  2  0  0  0  0
 27 28  1  0  0  0  0
 28 17  2  0  0  0  0
 29 30  1  0  0  0  0
 29 31  1  0  0  0  0
 32 33  1  0  0  0  0
 33 34  2  0  0  0  0
 33 29  1  0  0  0  0
 34 39  1  0  0  0  0
 35 34  1  0  0  0  0
 36 35  2  0  0  0  0
 37 36  1  0  0  0  0
 37 32  2  0  0  0  0
 38 32  1  0  0  0  0
 40 42  1  0  0  0  0
 40 36  1  0  0  0  0
 41 40  1  0  0  0  0
 43 40  1  0  0  0  0
 43 44  1  0  0  0  0
 44 48  1  0  0  0  0
 45 49  1  0  0  0  0
 45 44  2  0  0  0  0
 46 45  1  0  0  0  0
 47 46  1  0  0  0  0
 47 43  2  0  0  0  0
 50 46  1  0  0  0  0
M  END
>  <minimizedAffinity>
-6.24825668

$$$$

 OpenBabel03242522443D

 50 54  0  0  0  0  0  0  0  0999 V2000
   37.3360   29.8730   39.1190 C   0  0  0  0  0  0  0  0  0  0  0  0
   37.9360   29.8270   38.1520 H   0  0  0  0  0  0  0  0  0  0  0  0
   37.5770   29.1260   39.8520 H   0  0  0  0  0  0  0  0  0  0  0  0
   38.5990   31.3290   40.6130 C   0  0  0  0  0  0  0  0  0  0  0  0
   37.6600   31.2270   39.5880 C   0  0  0  0  0  0  0  0  0  0  0  0
   37.0590   32.2620   38.9820 C   0  0  0  0  0  0  0  0  0  0  0  0
   37.3820   33.5380   39.3900 C   0  0  0  0  0  0  0  0  0  0  0  0
   38.2880   33.7600   40.3800 C   0  0  0  0  0  0  0  0  0  0  0  0
   38.8770   32.6540   40.9690 C   0  0  0  0  0  0  0  0  0  0  0  0
   36.3550   32.3090   38.2020 H   0  0  0  0  0  0  0  0  0  0  0  0
   36.9730   34.4690   38.9890 H   0  0  0  0  0  0  0  0  0  0  0  0
   38.6000   34.7380   40.7590 H   0  0  0  0  0  0  0  0  0  0  0  0
   39.6060   32.8050   41.7640 H   0  0  0  0  0  0  0  0  0  0  0  0
   39.4170   30.0470   41.3960 S   0  0  0  0  0  0  0  0  0  0  0  0
   39.6470   30.4550   42.8970 O   0  0  0  0  0  0  0  0  0  0  0  0
   40.8150   29.9310   40.8850 O   0  0  0  0  0  0  0  0  0  0  0  0
   37.3630   28.4130   42.3690 C   0  0  0  0  0  3  0  0  0  0  0  0
   38.6020   28.5660   41.7080 C   0  0  0  0  0  0  0  0  0  0  0  0
   39.0540   27.2860   41.3330 C   0  0  0  0  0  0  0  0  0  0  0  0
   40.0230   27.2780   40.8030 H   0  0  0  0  0  0  0  0  0  0  0  0
   38.4190   26.0900   41.5590 C   0  0  0  0  0  0  0  0  0  0  0  0
   38.8050   24.8460   41.2230 N   0  0  0  0  0  0  0  0  0  0  0  0
   39.6620   24.5130   40.7220 H   0  0  0  0  0  0  0  0  0  0  0  0
   37.8380   24.0240   41.6680 C   0  0  0  0  0  0  0  0  0  0  0  0
   37.7680   22.9470   41.5970 H   0  0  0  0  0  0  0  0  0  0  0  0
   36.8440   24.7820   42.2870 C   0  0  0  0  0  3  0  0  0  0  0  0
   37.2310   26.1020   42.2090 C   0  0  0  0  0  0  0  0  0  0  0  0
   36.6710   27.2720   42.6320 C   0  0  0  0  0  3  0  0  0  0  0  0
   35.9560   29.6830   38.5740 C   0  0  0  0  0  0  0  0  0  0  0  0
   35.1450   30.1800   39.1710 H   0  0  0  0  0  0  0  0  0  0  0  0
   35.7820   30.1710   37.5670 H   0  0  0  0  0  0  0  0  0  0  0  0
   34.5590   27.8430   37.6860 C   0  0  0  0  0  0  0  0  0  0  0  0
   35.7480   28.2610   38.3240 C   0  0  0  0  0  0  0  0  0  0  0  0
   36.6820   27.2950   38.6470 C   0  0  0  0  0  0  0  0  0  0  0  0
   36.4110   26.0070   38.3360 N   0  0  0  0  0  0  0  0  0  0  0  0
   35.2830   25.6430   37.7300 C   0  0  0  0  0  0  0  0  0  0  0  0
   34.3370   26.5510   37.3950 N   0  0  0  0  0  0  0  0  0  0  0  0
   33.7190   28.4300   37.3630 H   0  0  0  0  0  0  0  0  0  0  0  0
   37.5890   27.6220   39.1380 H   0  0  0  0  0  0  0  0  0  0  0  0
   35.0730   24.1910   37.4100 C   0  0  0  0  0  0  0  0  0  0  0  0
   34.7550   24.0820   36.3360 H   0  0  0  0  0  0  0  0  0  0  0  0
   36.0450   23.6610   37.4590 H   0  0  0  0  0  0  0  0  0  0  0  0
   34.1250   23.5350   38.2960 C   0  0  0  0  0  0  0  0  0  0  0  0
   32.7800   23.3470   38.0430 C   0  0  0  0  0  0  0  0  0  0  0  0
   32.2120   22.6950   39.1040 C   0  0  0  0  0  0  0  0  0  0  0  0
   33.2440   22.5050   39.9810 N   0  0  0  0  0  0  0  0  0  0  0  0
   34.3830   23.0020   39.5070 N   0  0  0  0  0  0  0  0  0  0  0  0
   32.1810   23.6330   37.1770 H   0  0  0  0  0  0  0  0  0  0  0  0
   31.2210   22.3430   39.3530 H   0  0  0  0  0  0  0  0  0  0  0  0
   33.2780   22.0460   40.9320 H   0  0  0  0  0  0  0  0  0  0  0  0
  1  5  1  0  0  0  0
  1  3  1  0  0  0  0
  2  1  1  0  0  0  0
  4  9  1  0  0  0  0
  4 14  1  0  0  0  0
  5  4  2  0  0  0  0
  6  7  2  0  0  0  0
  6  5  1  0  0  0  0
  7  8  1  0  0  0  0
  8 12  1  0  0  0  0
  8  9  2  0  0  0  0
  9 13  1  0  0  0  0
 10  6  1  0  0  0  0
 11  7  1  0  0  0  0
 14 18  1  0  0  0  0
 14 15  2  0  0  0  0
 16 14  2  0  0  0  0
 17 28  1  0  0  0  0
 18 17  2  0  0  0  0
 19 21  2  0  0  0  0
 19 18  1  0  0  0  0
 20 19  1  0  0  0  0
 21 27  1  0  0  0  0
 22 21  1  0  0  0  0
 22 24  1  0  0  0  0
 23 22  1  0  0  0  0
 24 26  2  0  0  0  0
 25 24  1  0  0  0  0
 27 26  1  0  0  0  0
 27 28  2  0  0  0  0
 29  1  1  0  0  0  0
 29 30  1  0  0  0  0
 31 29  1  0  0  0  0
 32 33  1  0  0  0  0
 33 29  1  0  0  0  0
 33 34  2  0  0  0  0
 34 39  1  0  0  0  0
 35 34  1  0  0  0  0
 36 35  2  0  0  0  0
 37 32  2  0  0  0  0
 37 36  1  0  0  0  0
 38 32  1  0  0  0  0
 40 42  1  0  0  0  0
 40 36  1  0  0  0  0
 40 43  1  0  0  0  0
 41 40  1  0  0  0  0
 43 47  2  0  0  0  0
 44 43  1  0  0  0  0
 44 45  2  0  0  0  0
 45 49  1  0  0  0  0
 45 46  1  0  0  0  0
 46 50  1  0  0  0  0
 47 46  1  0  0  0  0
 48 44  1  0  0  0  0
M  END
>  <minimizedAffinity>
-6.17176485

$$$$
