
 OpenBabel03242522423D

 50 54  0  0  0  0  0  0  0  0999 V2000
   46.6610   32.6440   44.3370 C   0  0  0  0  0  0  0  0  0  0  0  0
   46.3750   32.1450   43.3540 H   0  0  0  0  0  0  0  0  0  0  0  0
   47.7140   32.7390   44.5210 H   0  0  0  0  0  0  0  0  0  0  0  0
   46.2220   34.6280   42.9900 C   0  0  0  0  0  0  0  0  0  0  0  0
   46.0090   33.9520   44.1890 C   0  0  0  0  0  0  0  0  0  0  0  0
   45.2370   34.3870   45.1980 C   0  0  0  0  0  0  0  0  0  0  0  0
   44.5930   35.5960   45.0550 C   0  0  0  0  0  0  0  0  0  0  0  0
   44.7250   36.3430   43.9260 C   0  0  0  0  0  0  0  0  0  0  0  0
   45.5340   35.8450   42.9180 C   0  0  0  0  0  0  0  0  0  0  0  0
   44.9950   33.9660   46.1300 H   0  0  0  0  0  0  0  0  0  0  0  0
   43.9380   36.0710   45.7900 H   0  0  0  0  0  0  0  0  0  0  0  0
   44.2470   37.3090   43.7340 H   0  0  0  0  0  0  0  0  0  0  0  0
   45.6550   36.4240   42.0040 H   0  0  0  0  0  0  0  0  0  0  0  0
   47.1680   34.1060   41.6640 S   0  0  0  0  0  0  0  0  0  0  0  0
   47.9250   35.3540   41.0780 O   0  0  0  0  0  0  0  0  0  0  0  0
   46.2910   33.7080   40.5220 O   0  0  0  0  0  0  0  0  0  0  0  0
   49.8450   33.5820   42.2890 C   0  0  0  0  0  3  0  0  0  0  0  0
   48.5570   33.1280   41.9250 C   0  0  0  0  0  0  0  0  0  0  0  0
   48.6030   31.7240   41.8280 C   0  0  0  0  0  0  0  0  0  0  0  0
   47.6450   31.2520   41.5470 H   0  0  0  0  0  0  0  0  0  0  0  0
   49.6950   30.9200   42.0430 C   0  0  0  0  0  0  0  0  0  0  0  0
   49.7920   29.5800   41.9640 N   0  0  0  0  0  0  0  0  0  0  0  0
   49.0710   28.8610   41.7240 H   0  0  0  0  0  0  0  0  0  0  0  0
   51.0680   29.2820   42.2660 C   0  0  0  0  0  0  0  0  0  0  0  0
   51.5530   28.3160   42.3140 H   0  0  0  0  0  0  0  0  0  0  0  0
   51.7610   30.4620   42.5340 C   0  0  0  0  0  3  0  0  0  0  0  0
   50.8680   31.5010   42.3880 C   0  0  0  0  0  0  0  0  0  0  0  0
   50.9720   32.8550   42.5190 C   0  0  0  0  0  3  0  0  0  0  0  0
   46.0170   31.6980   45.3010 C   0  0  0  0  0  0  0  0  0  0  0  0
   44.9690   31.9730   45.5960 H   0  0  0  0  0  0  0  0  0  0  0  0
   45.8350   30.6610   44.8840 H   0  0  0  0  0  0  0  0  0  0  0  0
   47.0620   32.4840   47.4020 C   0  0  0  0  0  0  0  0  0  0  0  0
   46.9310   31.4800   46.4170 C   0  0  0  0  0  0  0  0  0  0  0  0
   47.6540   30.3140   46.5810 C   0  0  0  0  0  0  0  0  0  0  0  0
   48.4420   30.1940   47.6730 N   0  0  0  0  0  0  0  0  0  0  0  0
   48.5430   31.1550   48.5890 C   0  0  0  0  0  0  0  0  0  0  0  0
   47.8570   32.3150   48.4710 N   0  0  0  0  0  0  0  0  0  0  0  0
   46.5960   33.4500   47.4530 H   0  0  0  0  0  0  0  0  0  0  0  0
   47.5510   29.5520   45.8210 H   0  0  0  0  0  0  0  0  0  0  0  0
   49.4340   30.9290   49.7760 C   0  0  0  0  0  0  0  0  0  0  0  0
   48.9010   31.2470   50.7150 H   0  0  0  0  0  0  0  0  0  0  0  0
   49.5930   29.8400   49.9120 H   0  0  0  0  0  0  0  0  0  0  0  0
   50.7220   31.5920   49.6670 C   0  0  0  0  0  0  0  0  0  0  0  0
   51.8690   31.0460   49.1230 C   0  0  0  0  0  0  0  0  0  0  0  0
   52.8800   31.9650   49.1960 C   0  0  0  0  0  0  0  0  0  0  0  0
   52.3090   33.0570   49.7890 N   0  0  0  0  0  0  0  0  0  0  0  0
   51.0270   32.8410   50.0720 N   0  0  0  0  0  0  0  0  0  0  0  0
   52.0390   30.0610   48.6850 H   0  0  0  0  0  0  0  0  0  0  0  0
   53.9220   31.9920   48.9080 H   0  0  0  0  0  0  0  0  0  0  0  0
   52.7070   34.0010   50.0480 H   0  0  0  0  0  0  0  0  0  0  0  0
  1  3  1  0  0  0  0
  1 29  1  0  0  0  0
  2  1  1  0  0  0  0
  4  5  1  0  0  0  0
  5  1  1  0  0  0  0
  5  6  2  0  0  0  0
  6 10  1  0  0  0  0
  7  6  1  0  0  0  0
  7 11  1  0  0  0  0
  8  7  2  0  0  0  0
  9  4  2  0  0  0  0
  9  8  1  0  0  0  0
 12  8  1  0  0  0  0
 13  9  1  0  0  0  0
 14 18  1  0  0  0  0
 14  4  1  0  0  0  0
 15 14  2  0  0  0  0
 16 14  2  0  0  0  0
 17 28  1  0  0  0  0
 18 17  2  0  0  0  0
 19 18  1  0  0  0  0
 19 21  2  0  0  0  0
 20 19  1  0  0  0  0
 21 27  1  0  0  0  0
 22 21  1  0  0  0  0
 22 24  1  0  0  0  0
 23 22  1  0  0  0  0
 24 25  1  0  0  0  0
 24 26  2  0  0  0  0
 27 28  2  0  0  0  0
 27 26  1  0  0  0  0
 29 30  1  0  0  0  0
 29 33  1  0  0  0  0
 31 29  1  0  0  0  0
 32 38  1  0  0  0  0
 32 37  1  0  0  0  0
 33 34  1  0  0  0  0
 33 32  2  0  0  0  0
 34 35  2  0  0  0  0
 35 36  1  0  0  0  0
 36 40  1  0  0  0  0
 37 36  2  0  0  0  0
 39 34  1  0  0  0  0
 40 42  1  0  0  0  0
 40 41  1  0  0  0  0
 43 40  1  0  0  0  0
 43 47  2  0  0  0  0
 44 45  2  0  0  0  0
 44 43  1  0  0  0  0
 45 46  1  0  0  0  0
 46 50  1  0  0  0  0
 46 47  1  0  0  0  0
 48 44  1  0  0  0  0
 49 45  1  0  0  0  0
M  END
>  <minimizedAffinity>
-6.58821869

>  <minimizedRMSD>
0.465455294

$$$$
