REMARK  Name = 
REMARK  4 active torsions:
REMARK  status: ('A' for Active; 'I' for Inactive)
REMARK    1  A    between atoms: C_1  and  C_7
REMARK    2  A    between atoms: C_6  and  N_19
REMARK    3  A    between atoms: C_11  and  C_13
REMARK    4  A    between atoms: N_19  and  C_38
REMARK                            x       y       z     vdW  Elec       q    Type
REMARK                         _______ _______ _______ _____ _____    ______ ____
ROOT
ATOM      1  C   UNL     1      46.446  32.516  46.688  0.00  0.00    +0.000 C 
ATOM      2  C   UNL     1      46.312  31.101  46.191  0.00  0.00    +0.000 C 
ATOM      3  C   UNL     1      46.926  30.175  47.202  0.00  0.00    +0.000 C 
ATOM      4  C   UNL     1      46.484  30.410  48.608  0.00  0.00    +0.000 C 
ATOM      5  C   UNL     1      46.529  31.849  48.989  0.00  0.00    +0.000 C 
ATOM      6  C   UNL     1      45.765  32.686  47.995  0.00  0.00    +0.000 C 
ATOM      7  H   UNL     1      47.551  32.647  46.845  0.00  0.00    +0.000 HD
ATOM      8  H   UNL     1      45.352  30.815  45.788  0.00  0.00    +0.000 HD
ATOM      9  H   UNL     1      47.019  31.056  45.306  0.00  0.00    +0.000 HD
ATOM     10  H   UNL     1      48.035  30.352  47.191  0.00  0.00    +0.000 HD
ATOM     11  H   UNL     1      46.772  29.122  46.922  0.00  0.00    +0.000 HD
ATOM     12  H   UNL     1      47.060  29.750  49.253  0.00  0.00    +0.000 HD
ATOM     13  H   UNL     1      45.415  30.060  48.668  0.00  0.00    +0.000 HD
ATOM     14  H   UNL     1      46.238  31.971  50.030  0.00  0.00    +0.000 HD
ATOM     15  H   UNL     1      47.610  32.163  48.880  0.00  0.00    +0.000 HD
ATOM     16  H   UNL     1      45.906  33.750  48.289  0.00  0.00    +0.000 HD
ENDROOT
BRANCH   1  17
ATOM     17  C   UNL     1      46.053  33.519  45.709  0.00  0.00    +0.000 A 
ATOM     18  C   UNL     1      45.007  34.410  46.064  0.00  0.00    +0.000 A 
ATOM     19  C   UNL     1      44.625  35.370  45.099  0.00  0.00    +0.000 A 
ATOM     20  N   UNL     1      45.286  35.379  43.886  0.00  0.00    +0.000 NA
ATOM     21  C   UNL     1      46.280  34.484  43.631  0.00  0.00    +0.000 A 
ATOM     22  N   UNL     1      46.661  33.569  44.524  0.00  0.00    +0.000 NA
ATOM     23  H   UNL     1      44.477  34.439  46.977  0.00  0.00    +0.000 HD
ATOM     24  H   UNL     1      43.837  36.098  45.268  0.00  0.00    +0.000 HD
BRANCH  21  25
ATOM     25  C   UNL     1      46.927  34.546  42.316  0.00  0.00    +0.000 A 
ATOM     26  C   UNL     1      48.031  35.279  42.092  0.00  0.00    +0.000 A 
ATOM     27  C   UNL     1      48.634  35.334  40.843  0.00  0.00    +0.000 A 
ATOM     28  C   UNL     1      48.067  34.609  39.827  0.00  0.00    +0.000 A 
ATOM     29  C   UNL     1      46.946  33.861  40.044  0.00  0.00    +0.000 A 
ATOM     30  N   UNL     1      46.371  33.824  41.283  0.00  0.00    +0.000 NA
ATOM     31  H   UNL     1      48.507  35.864  42.867  0.00  0.00    +0.000 HD
ATOM     32  H   UNL     1      49.507  35.901  40.623  0.00  0.00    +0.000 HD
ATOM     33  H   UNL     1      48.454  34.578  38.812  0.00  0.00    +0.000 HD
ATOM     34  H   UNL     1      46.398  33.249  39.350  0.00  0.00    +0.000 HD
ENDBRANCH  21  25
ENDBRANCH   1  17
BRANCH   6  35
ATOM     35  N   UNL     1      44.396  32.272  47.901  0.00  0.00    +0.000 N 
ATOM     36  H   UNL     1      44.079  31.808  46.996  0.00  0.00    +0.000 HD
BRANCH  35  38
ATOM     37  C   UNL     1      42.168  33.059  48.658  0.00  0.00    +0.000 A 
ATOM     38  C   UNL     1      43.358  32.394  48.871  0.00  0.00    +0.000 A 
ATOM     39  C   UNL     1      43.473  31.853  50.128  0.00  0.00    +0.000 A 
ATOM     40  H   UNL     1      44.375  31.311  50.388  0.00  0.00    +0.000 HD
ATOM     41  C   UNL     1      42.503  31.961  51.085  0.00  0.00    +0.000 A 
ATOM     42  N   UNL     1      42.463  31.487  52.367  0.00  0.00    +0.000 N 
ATOM     43  H   UNL     1      43.189  30.935  52.876  0.00  0.00    +0.000 HD
ATOM     44  C   UNL     1      41.281  31.869  52.883  0.00  0.00    +0.000 A 
ATOM     45  H   UNL     1      40.976  31.627  53.900  0.00  0.00    +0.000 HD
ATOM     46  C   UNL     1      40.547  32.584  51.960  0.00  0.00    +0.000 A 
ATOM     47  C   UNL     1      41.339  32.628  50.836  0.00  0.00    +0.000 A 
ATOM     48  C   UNL     1      41.175  33.182  49.607  0.00  0.00    +0.000 A 
ENDBRANCH  35  38
ENDBRANCH   6  35
TORSDOF 4
