
     RDKit          3D

 53 57  0  0  0  0  0  0  0  0999 V2000
   46.0795   31.7331   45.2759 C   0  0  0  0  0  0  0  0  0  0  0  0
   47.1087   32.5077   47.3891 C   0  0  0  0  0  0  0  0  0  0  0  0
   46.9785   31.5050   46.4028 C   0  0  0  0  0  0  0  0  0  0  0  0
   47.6854   30.3305   46.5767 C   0  0  0  0  0  0  0  0  0  0  0  0
   48.4589   30.2020   47.6783 N   0  0  0  0  0  0  0  0  0  0  0  0
   48.5604   31.1630   48.5936 C   0  0  0  0  0  0  0  0  0  0  0  0
   47.8901   32.3314   48.4681 N   0  0  0  0  0  0  0  0  0  0  0  0
   49.4340   30.9266   49.7916 C   0  0  0  0  0  0  0  0  0  0  0  0
   50.7060   31.6281   49.7272 C   0  0  0  0  0  0  0  0  0  0  0  0
   51.8910   31.1078   49.2427 C   0  0  0  0  0  0  0  0  0  0  0  0
   52.8698   32.0592   49.3432 C   0  0  0  0  0  0  0  0  0  0  0  0
   52.2412   33.1422   49.8924 N   0  0  0  0  0  0  0  0  0  0  0  0
   50.9550   32.8920   50.1229 N   0  0  0  0  0  0  0  0  0  0  0  0
   46.7260   32.7070   44.3427 C   0  0  0  0  0  0  0  0  0  0  0  0
   46.3113   34.7149   43.0232 C   0  0  0  0  0  0  0  0  0  0  0  0
   46.0415   33.9967   44.1856 C   0  0  0  0  0  0  0  0  0  0  0  0
   45.1869   34.3760   45.1502 C   0  0  0  0  0  0  0  0  0  0  0  0
   44.5121   35.5668   44.9957 C   0  0  0  0  0  0  0  0  0  0  0  0
   44.6935   36.3506   43.8989 C   0  0  0  0  0  0  0  0  0  0  0  0
   45.5865   35.9101   42.9374 C   0  0  0  0  0  0  0  0  0  0  0  0
   47.3626   34.2638   41.7521 S   0  0  0  0  0  0  0  0  0  0  0  0
   48.3373   35.4660   41.4703 O   0  0  0  0  0  0  0  0  0  0  0  0
   46.6118   34.1614   40.4653 O   0  0  0  0  0  0  0  0  0  0  0  0
   45.0225   31.9867   45.5587 H   0  0  0  0  0  0  0  0  0  0  0  0
   45.9198   30.7019   44.8346 H   0  0  0  0  0  0  0  0  0  0  0  0
   46.6536   33.4801   47.4339 H   0  0  0  0  0  0  0  0  0  0  0  0
   47.5824   29.5685   45.8162 H   0  0  0  0  0  0  0  0  0  0  0  0
   48.8750   31.2037   50.7293 H   0  0  0  0  0  0  0  0  0  0  0  0
   49.6213   29.8398   49.9007 H   0  0  0  0  0  0  0  0  0  0  0  0
   52.1096   30.1215   48.8306 H   0  0  0  0  0  0  0  0  0  0  0  0
   53.9224   32.1134   49.1002 H   0  0  0  0  0  0  0  0  0  0  0  0
   52.5990   34.1022   50.1507 H   0  0  0  0  0  0  0  0  0  0  0  0
   46.4882   32.2099   43.3460 H   0  0  0  0  0  0  0  0  0  0  0  0
   47.7698   32.8317   44.5632 H   0  0  0  0  0  0  0  0  0  0  0  0
   44.8967   33.9202   46.0524 H   0  0  0  0  0  0  0  0  0  0  0  0
   43.7924   35.9978   45.6963 H   0  0  0  0  0  0  0  0  0  0  0  0
   44.1965   37.3062   43.7007 H   0  0  0  0  0  0  0  0  0  0  0  0
   45.7498   36.5188   42.0486 H   0  0  0  0  0  0  0  0  0  0  0  0
   48.8673   32.4308   43.2381 C   0  0  0  0  0  0  0  0  0  0  0  0
   48.5764   33.0739   42.0150 C   0  0  0  0  0  0  0  0  0  0  0  0
   49.4469   32.5600   41.0347 C   0  0  0  0  0  0  0  0  0  0  0  0
   49.3112   32.9923   40.0279 H   0  0  0  0  0  0  0  0  0  0  0  0
   50.4142   31.6028   41.2157 C   0  0  0  0  0  0  0  0  0  0  0  0
   51.2688   31.0786   40.3186 N   0  0  0  0  0  0  0  0  0  0  0  0
   51.3875   31.2781   39.2976 H   0  0  0  0  0  0  0  0  0  0  0  0
   52.0110   30.1818   40.9920 C   0  0  0  0  0  0  0  0  0  0  0  0
   52.8093   29.5462   40.6338 H   0  0  0  0  0  0  0  0  0  0  0  0
   51.6009   30.1590   42.3251 C   0  0  0  0  0  0  0  0  0  0  0  0
   50.5784   31.0742   42.4516 C   0  0  0  0  0  0  0  0  0  0  0  0
   49.8031   31.4787   43.4996 C   0  0  0  0  0  0  0  0  0  0  0  0
   48.2417   32.7561   44.0876 H   0  0  0  0  0  0  0  0  0  0  0  0
   51.9635   29.5644   43.1695 H   0  0  0  0  0  0  0  0  0  0  0  0
   49.9036   31.0816   44.4976 H   0  0  0  0  0  0  0  0  0  0  0  0
  1  3  1  0
  2  7  2  0
  3  4  2  0
  3  2  1  0
  4  5  1  0
  5  6  2  0
  6  8  1  0
  7  6  1  0
  9  8  1  0
  9 13  2  0
 10 11  2  0
 10  9  1  0
 11 12  1  0
 12 13  1  0
 14  1  1  0
 15 16  1  0
 16 14  1  0
 16 17  2  0
 18 17  1  0
 19 18  2  0
 20 15  2  0
 20 19  1  0
 21 15  1  0
 22 21  2  0
 23 21  2  0
  1 24  1  0
  1 25  1  0
  2 26  1  0
  4 27  1  0
  8 28  1  0
  8 29  1  0
 10 30  1  0
 11 31  1  0
 12 32  1  0
 14 33  1  0
 14 34  1  0
 17 35  1  0
 18 36  1  0
 19 37  1  0
 20 38  1  0
 39 40  2  0
 40 41  1  0
 41 42  1  0
 41 43  2  0
 43 44  1  0
 44 45  1  0
 44 46  1  0
 46 47  1  0
 46 48  2  0
 48 49  1  0
 49 50  2  0
 50 39  1  0
 49 43  1  0
 39 51  1  0
 48 52  1  0
 50 53  1  0
 21 40  1  0
M  ISO  8  24   8  25   8  26  14  27  14  28   8  29   8  30  14  31  14
M  ISO  8  32   9  33   8  34   8  35  14  36  14  37  14  38  14  42  15
M  ISO  2  45   5  47  14
M  END
>  <DihAtoms>  (1) 
14,20,39,38

>  <DihDeg>  (1) 
101.73186971328285

$$$$
