
 OpenBabel03242521433D

 41 44  0  0  1  0  0  0  0  0999 V2000
   45.5940   34.9060   43.7870 C   0  0  0  0  0  0  0  0  0  0  0  0
   46.6880   34.2230   43.2620 C   0  0  0  0  0  0  0  0  0  0  0  0
   47.3290   33.2420   44.0180 C   0  0  0  0  0  0  0  0  0  0  0  0
   46.8430   33.0060   45.2360 N   0  0  0  0  0  0  0  0  0  0  0  0
   45.7810   33.6690   45.7440 C   0  0  0  0  0  0  0  0  0  0  0  0
   45.1490   34.6200   45.0290 N   0  0  0  0  0  0  0  0  0  0  0  0
   46.9770   34.5040   42.2810 H   0  0  0  0  0  0  0  0  0  0  0  0
   45.4500   33.4110   46.7500 H   0  0  0  0  0  0  0  0  0  0  0  0
   49.3080   33.4310   42.5290 C   0  0  2  0  0  0  0  0  0  0  0  0
   48.4650   32.5730   43.4040 C   0  0  2  0  0  0  0  0  0  0  0  0
   48.1060   31.5330   42.4980 O   0  0  0  0  0  0  0  0  0  0  0  0
   49.3210   31.1590   41.9780 C   0  0  0  0  0  0  0  0  0  0  0  0
   50.2620   32.3370   42.0030 C   0  0  1  0  0  0  0  0  0  0  0  0
   48.7290   33.7290   41.6370 H   0  0  0  0  0  0  0  0  0  0  0  0
   49.0170   32.0430   44.2070 H   0  0  0  0  0  0  0  0  0  0  0  0
   49.1630   30.9200   40.8870 H   0  0  0  0  0  0  0  0  0  0  0  0
   49.7490   30.2410   42.4120 H   0  0  0  0  0  0  0  0  0  0  0  0
   51.0670   32.1230   42.7120 H   0  0  0  0  0  0  0  0  0  0  0  0
   49.9400   34.4550   43.1660 O   0  0  0  0  0  0  0  0  0  0  0  0
   50.7900   34.6390   42.7060 H   0  0  0  0  0  0  0  0  0  0  0  0
   50.7210   32.7200   40.7440 O   0  0  0  0  0  0  0  0  0  0  0  0
   50.0310   33.2360   40.2670 H   0  0  0  0  0  0  0  0  0  0  0  0
   44.9230   35.9660   42.9550 C   0  0  0  0  0  0  0  0  0  0  0  0
   45.5390   36.1780   42.0830 H   0  0  0  0  0  0  0  0  0  0  0  0
   43.9140   35.5500   42.7070 H   0  0  0  0  0  0  0  0  0  0  0  0
   45.5020   38.3090   43.8370 C   0  0  0  0  0  0  0  0  0  0  0  0
   46.4870   38.3560   43.0190 O   0  0  0  0  0  0  0  0  0  0  0  0
   44.7430   37.1190   43.8110 N   0  0  0  0  0  0  0  0  0  0  0  0
   43.9530   37.0590   44.4910 H   0  0  0  0  0  0  0  0  0  0  0  0
   45.1760   39.4090   46.1080 C   0  0  0  0  0  3  0  0  0  0  0  0
   45.1950   39.4180   44.7310 C   0  0  0  0  0  0  0  0  0  0  0  0
   44.8780   40.6460   44.1400 C   0  0  0  0  0  0  0  0  0  0  0  0
   44.8760   40.7150   43.0490 H   0  0  0  0  0  0  0  0  0  0  0  0
   44.5640   41.7910   44.8430 C   0  0  0  0  0  0  0  0  0  0  0  0
   44.2400   43.0350   44.4700 N   0  0  0  0  0  0  0  0  0  0  0  0
   44.1760   43.3300   43.4700 H   0  0  0  0  0  0  0  0  0  0  0  0
   44.0280   43.7710   45.5940 C   0  0  0  0  0  0  0  0  0  0  0  0
   43.7480   44.8310   45.5720 H   0  0  0  0  0  0  0  0  0  0  0  0
   44.2190   42.9900   46.7100 C   0  0  0  0  0  3  0  0  0  0  0  0
   44.5560   41.7450   46.2200 C   0  0  0  0  0  0  0  0  0  0  0  0
   44.8640   40.5450   46.8250 C   0  0  0  0  0  3  0  0  0  0  0  0
  1  6  1  0  0  0  0
  2  1  2  0  0  0  0
  2  3  1  0  0  0  0
  3  4  2  0  0  0  0
  4  5  1  0  0  0  0
  5  8  1  0  0  0  0
  6  5  2  0  0  0  0
  7  2  1  0  0  0  0
  9 14  1  6  0  0  0
  9 19  1  0  0  0  0
  9 10  1  0  0  0  0
 10  3  1  0  0  0  0
 10 15  1  1  0  0  0
 11 10  1  0  0  0  0
 12 13  1  0  0  0  0
 12 17  1  0  0  0  0
 12 11  1  0  0  0  0
 13  9  1  0  0  0  0
 13 18  1  1  0  0  0
 16 12  1  0  0  0  0
 20 19  1  0  0  0  0
 21 13  1  0  0  0  0
 22 21  1  0  0  0  0
 23  1  1  0  0  0  0
 23 28  1  0  0  0  0
 24 23  1  0  0  0  0
 25 23  1  0  0  0  0
 26 31  1  0  0  0  0
 27 26  2  0  0  0  0
 28 26  1  0  0  0  0
 28 29  1  0  0  0  0
 30 41  1  0  0  0  0
 31 30  2  0  0  0  0
 32 31  1  0  0  0  0
 32 34  2  0  0  0  0
 33 32  1  0  0  0  0
 34 40  1  0  0  0  0
 35 34  1  0  0  0  0
 35 37  1  0  0  0  0
 36 35  1  0  0  0  0
 37 39  2  0  0  0  0
 38 37  1  0  0  0  0
 40 39  1  0  0  0  0
 40 41  2  0  0  0  0
M  END
>  <minimizedAffinity>
-3.26347423

>  <minimizedRMSD>
1.38078475

$$$$
