
 OpenBabel03242516553D

 48 52  0  0  1  0  0  0  0  0999 V2000
   38.9880   24.8670   40.8500 C   0  0  1  0  0  0  0  0  0  0  0  0
   38.4270   23.7590   41.6230 C   0  0  0  0  0  0  0  0  0  0  0  0
   37.5760   22.9530   40.6390 C   0  0  0  0  0  0  0  0  0  0  0  0
   36.3620   23.8150   40.3280 C   0  0  0  0  0  0  0  0  0  0  0  0
   36.7070   25.1760   39.8050 C   0  0  0  0  0  0  0  0  0  0  0  0
   37.9040   25.8290   40.3540 C   0  0  1  0  0  0  0  0  0  0  0  0
   39.3960   24.4520   39.8770 H   0  0  0  0  0  0  0  0  0  0  0  0
   39.2390   23.0880   41.9560 H   0  0  0  0  0  0  0  0  0  0  0  0
   37.7700   24.0560   42.4660 H   0  0  0  0  0  0  0  0  0  0  0  0
   38.1400   22.8520   39.6860 H   0  0  0  0  0  0  0  0  0  0  0  0
   37.2180   22.0160   41.0610 H   0  0  0  0  0  0  0  0  0  0  0  0
   35.8430   23.9790   41.2990 H   0  0  0  0  0  0  0  0  0  0  0  0
   35.6680   23.3290   39.6360 H   0  0  0  0  0  0  0  0  0  0  0  0
   36.7730   25.0890   38.6940 H   0  0  0  0  0  0  0  0  0  0  0  0
   35.8050   25.8210   39.9760 H   0  0  0  0  0  0  0  0  0  0  0  0
   38.4120   26.4090   39.5260 H   0  0  0  0  0  0  0  0  0  0  0  0
   41.4440   26.0660   43.4600 C   0  0  0  0  0  0  0  0  0  0  0  0
   40.4330   25.3760   42.7880 C   0  0  0  0  0  0  0  0  0  0  0  0
   40.0540   25.6270   41.4660 C   0  0  0  0  0  0  0  0  0  0  0  0
   40.7330   26.5980   40.8550 N   0  0  0  0  0  0  0  0  0  0  0  0
   41.7220   27.2870   41.4850 C   0  0  0  0  0  0  0  0  0  0  0  0
   42.0750   27.0380   42.7450 N   0  0  0  0  0  0  0  0  0  0  0  0
   41.6400   25.7740   44.4830 H   0  0  0  0  0  0  0  0  0  0  0  0
   39.8930   24.5900   43.2990 H   0  0  0  0  0  0  0  0  0  0  0  0
   42.2930   28.0740   41.0290 H   0  0  0  0  0  0  0  0  0  0  0  0
   37.5870   26.8510   41.3520 C   0  0  0  0  0  0  0  0  0  0  0  0
   37.2380   26.6060   42.6900 C   0  0  0  0  0  0  0  0  0  0  0  0
   36.9910   27.7350   43.4650 C   0  0  0  0  0  0  0  0  0  0  0  0
   37.1080   28.9770   42.8720 C   0  0  0  0  0  0  0  0  0  0  0  0
   37.4540   29.1990   41.5480 C   0  0  0  0  0  0  0  0  0  0  0  0
   37.6930   28.0800   40.7960 N   0  0  0  0  0  0  0  0  0  0  0  0
   37.1890   25.5960   42.9970 H   0  0  0  0  0  0  0  0  0  0  0  0
   36.7240   27.5780   44.4870 H   0  0  0  0  0  0  0  0  0  0  0  0
   36.9150   29.8570   43.4810 H   0  0  0  0  0  0  0  0  0  0  0  0
   37.5590   30.5510   41.0120 C   0  0  0  0  0  0  0  0  0  0  0  0
   36.5060   31.2550   41.0090 O   0  0  0  0  0  0  0  0  0  0  0  0
   39.7440   31.5750   41.3290 C   0  0  0  0  0  3  0  0  0  0  0  0
   38.7280   31.2260   40.4640 C   0  0  0  0  0  0  0  0  0  0  0  0
   38.8850   31.5410   39.1300 C   0  0  0  0  0  0  0  0  0  0  0  0
   38.0710   31.2520   38.5010 H   0  0  0  0  0  0  0  0  0  0  0  0
   39.9890   32.1810   38.6050 C   0  0  0  0  0  0  0  0  0  0  0  0
   40.3660   32.5870   37.3800 N   0  0  0  0  0  0  0  0  0  0  0  0
   39.8010   32.4610   36.5100 H   0  0  0  0  0  0  0  0  0  0  0  0
   41.5900   33.1760   37.4730 C   0  0  0  0  0  0  0  0  0  0  0  0
   42.1840   33.6150   36.6620 H   0  0  0  0  0  0  0  0  0  0  0  0
   42.0160   33.1510   38.8030 C   0  0  0  0  0  3  0  0  0  0  0  0
   40.9890   32.5180   39.5000 C   0  0  0  0  0  0  0  0  0  0  0  0
   40.8860   32.2270   40.8440 C   0  0  0  0  0  3  0  0  0  0  0  0
  1  7  1  6  0  0  0
  1 19  1  0  0  0  0
  1  2  1  0  0  0  0
  2  8  1  0  0  0  0
  2  9  1  0  0  0  0
  3 11  1  0  0  0  0
  3  2  1  0  0  0  0
  4  3  1  0  0  0  0
  4 12  1  0  0  0  0
  5 15  1  0  0  0  0
  5  4  1  0  0  0  0
  5  6  1  0  0  0  0
  6 16  1  6  0  0  0
  6  1  1  0  0  0  0
  6 26  1  0  0  0  0
 10  3  1  0  0  0  0
 13  4  1  0  0  0  0
 14  5  1  0  0  0  0
 17 23  1  0  0  0  0
 18 24  1  0  0  0  0
 18 17  1  0  0  0  0
 19 18  2  0  0  0  0
 20 19  1  0  0  0  0
 20 21  2  0  0  0  0
 21 22  1  0  0  0  0
 22 17  2  0  0  0  0
 25 21  1  0  0  0  0
 26 27  1  0  0  0  0
 27 32  1  0  0  0  0
 27 28  2  0  0  0  0
 28 33  1  0  0  0  0
 29 28  1  0  0  0  0
 29 34  1  0  0  0  0
 30 29  2  0  0  0  0
 31 26  2  0  0  0  0
 31 30  1  0  0  0  0
 35 30  1  0  0  0  0
 36 35  2  0  0  0  0
 38 35  1  0  0  0  0
 38 37  2  0  0  0  0
 39 38  1  0  0  0  0
 40 39  1  0  0  0  0
 41 39  2  0  0  0  0
 41 47  1  0  0  0  0
 42 44  1  0  0  0  0
 42 41  1  0  0  0  0
 43 42  1  0  0  0  0
 44 46  2  0  0  0  0
 45 44  1  0  0  0  0
 46 47  1  0  0  0  0
 47 48  2  0  0  0  0
 48 37  1  0  0  0  0
M  END
>  <minimizedAffinity>
-6.61389112

$$$$

 OpenBabel03242516553D

 48 52  0  0  1  0  0  0  0  0999 V2000
   38.4880   26.5260   41.4260 C   0  0  1  0  0  0  0  0  0  0  0  0
   37.5610   25.9630   42.4080 C   0  0  0  0  0  0  0  0  0  0  0  0
   37.2970   24.5260   41.9540 C   0  0  0  0  0  0  0  0  0  0  0  0
   36.4510   24.6320   40.6930 C   0  0  0  0  0  0  0  0  0  0  0  0
   37.0770   25.4650   39.6170 C   0  0  0  0  0  0  0  0  0  0  0  0
   37.8540   26.6400   40.0360 C   0  0  1  0  0  0  0  0  0  0  0  0
   39.3160   25.7730   41.2440 H   0  0  0  0  0  0  0  0  0  0  0  0
   38.0580   25.8930   43.3920 H   0  0  0  0  0  0  0  0  0  0  0  0
   36.5810   26.4760   42.4800 H   0  0  0  0  0  0  0  0  0  0  0  0
   38.2620   24.0690   41.6460 H   0  0  0  0  0  0  0  0  0  0  0  0
   36.7300   23.9510   42.6850 H   0  0  0  0  0  0  0  0  0  0  0  0
   35.5180   25.1590   40.9910 H   0  0  0  0  0  0  0  0  0  0  0  0
   36.1870   23.6530   40.2820 H   0  0  0  0  0  0  0  0  0  0  0  0
   37.6960   24.7780   38.9930 H   0  0  0  0  0  0  0  0  0  0  0  0
   36.2450   25.7800   38.9330 H   0  0  0  0  0  0  0  0  0  0  0  0
   38.7400   26.7550   39.3410 H   0  0  0  0  0  0  0  0  0  0  0  0
   39.0670   29.8890   43.0510 C   0  0  0  0  0  0  0  0  0  0  0  0
   38.5260   28.6570   42.6750 C   0  0  0  0  0  0  0  0  0  0  0  0
   39.1240   27.7820   41.7640 C   0  0  0  0  0  0  0  0  0  0  0  0
   40.2820   28.1970   41.2510 N   0  0  0  0  0  0  0  0  0  0  0  0
   40.8320   29.3920   41.5990 C   0  0  0  0  0  0  0  0  0  0  0  0
   40.2530   30.2180   42.4690 N   0  0  0  0  0  0  0  0  0  0  0  0
   38.5040   30.4730   43.7660 H   0  0  0  0  0  0  0  0  0  0  0  0
   37.5870   28.3340   43.1030 H   0  0  0  0  0  0  0  0  0  0  0  0
   41.7610   29.7630   41.2110 H   0  0  0  0  0  0  0  0  0  0  0  0
   37.1190   27.8950   39.8760 C   0  0  0  0  0  0  0  0  0  0  0  0
   35.8860   28.2020   40.4730 C   0  0  0  0  0  0  0  0  0  0  0  0
   35.3780   29.4660   40.1900 C   0  0  0  0  0  0  0  0  0  0  0  0
   36.1080   30.2990   39.3660 C   0  0  0  0  0  0  0  0  0  0  0  0
   37.3250   29.9780   38.7860 C   0  0  0  0  0  0  0  0  0  0  0  0
   37.8150   28.7310   39.0710 N   0  0  0  0  0  0  0  0  0  0  0  0
   35.4480   27.4570   41.0810 H   0  0  0  0  0  0  0  0  0  0  0  0
   34.4400   29.7260   40.6320 H   0  0  0  0  0  0  0  0  0  0  0  0
   35.7070   31.2860   39.1480 H   0  0  0  0  0  0  0  0  0  0  0  0
   38.0280   30.9280   37.9320 C   0  0  0  0  0  0  0  0  0  0  0  0
   37.5990   31.0700   36.7490 O   0  0  0  0  0  0  0  0  0  0  0  0
   39.3390   32.1870   39.5530 C   0  0  0  0  0  3  0  0  0  0  0  0
   39.1830   31.7590   38.2500 C   0  0  0  0  0  0  0  0  0  0  0  0
   40.1330   32.1490   37.3290 C   0  0  0  0  0  0  0  0  0  0  0  0
   39.9670   31.7940   36.3350 H   0  0  0  0  0  0  0  0  0  0  0  0
   41.2270   32.9360   37.6230 C   0  0  0  0  0  0  0  0  0  0  0  0
   42.2610   33.4360   36.9240 N   0  0  0  0  0  0  0  0  0  0  0  0
   42.4190   33.2830   35.9030 H   0  0  0  0  0  0  0  0  0  0  0  0
   43.0480   34.1600   37.7670 C   0  0  0  0  0  0  0  0  0  0  0  0
   43.9710   34.7000   37.5210 H   0  0  0  0  0  0  0  0  0  0  0  0
   42.5030   34.1260   39.0530 C   0  0  0  0  0  3  0  0  0  0  0  0
   41.3530   33.3470   38.9380 C   0  0  0  0  0  0  0  0  0  0  0  0
   40.4350   32.9880   39.9010 C   0  0  0  0  0  3  0  0  0  0  0  0
  1  7  1  6  0  0  0
  1 19  1  0  0  0  0
  1  2  1  0  0  0  0
  2  9  1  0  0  0  0
  2  8  1  0  0  0  0
  3  2  1  0  0  0  0
  3 11  1  0  0  0  0
  4 12  1  0  0  0  0
  4  3  1  0  0  0  0
  5  6  1  0  0  0  0
  5  4  1  0  0  0  0
  6 16  1  6  0  0  0
  6  1  1  0  0  0  0
 10  3  1  0  0  0  0
 13  4  1  0  0  0  0
 14  5  1  0  0  0  0
 15  5  1  0  0  0  0
 17 23  1  0  0  0  0
 18 17  1  0  0  0  0
 18 24  1  0  0  0  0
 19 18  2  0  0  0  0
 20 21  2  0  0  0  0
 20 19  1  0  0  0  0
 21 22  1  0  0  0  0
 22 17  2  0  0  0  0
 25 21  1  0  0  0  0
 26  6  1  0  0  0  0
 26 27  1  0  0  0  0
 27 32  1  0  0  0  0
 28 27  2  0  0  0  0
 28 33  1  0  0  0  0
 29 28  1  0  0  0  0
 30 31  1  0  0  0  0
 30 29  2  0  0  0  0
 31 26  2  0  0  0  0
 34 29  1  0  0  0  0
 35 38  1  0  0  0  0
 35 30  1  0  0  0  0
 36 35  2  0  0  0  0
 37 48  1  0  0  0  0
 38 37  2  0  0  0  0
 39 41  2  0  0  0  0
 39 38  1  0  0  0  0
 40 39  1  0  0  0  0
 41 47  1  0  0  0  0
 42 41  1  0  0  0  0
 42 44  1  0  0  0  0
 43 42  1  0  0  0  0
 44 46  2  0  0  0  0
 45 44  1  0  0  0  0
 47 46  1  0  0  0  0
 47 48  2  0  0  0  0
M  END
>  <minimizedAffinity>
-6.59373379

$$$$

 OpenBabel03242516553D

 48 52  0  0  1  0  0  0  0  0999 V2000
   38.9490   27.3090   42.0790 C   0  0  1  0  0  0  0  0  0  0  0  0
   40.1670   27.7250   41.3820 C   0  0  0  0  0  0  0  0  0  0  0  0
   40.9550   28.5660   42.3890 C   0  0  0  0  0  0  0  0  0  0  0  0
   40.1810   29.8650   42.5510 C   0  0  0  0  0  0  0  0  0  0  0  0
   38.7540   29.6690   42.9630 C   0  0  0  0  0  0  0  0  0  0  0  0
   38.0480   28.4990   42.4230 C   0  0  1  0  0  0  0  0  0  0  0  0
   39.2390   26.9300   43.1080 H   0  0  0  0  0  0  0  0  0  0  0  0
   40.7890   26.8410   41.1580 H   0  0  0  0  0  0  0  0  0  0  0  0
   40.0040   28.3500   40.4810 H   0  0  0  0  0  0  0  0  0  0  0  0
   40.9220   28.0570   43.3770 H   0  0  0  0  0  0  0  0  0  0  0  0
   41.9540   28.8170   42.0360 H   0  0  0  0  0  0  0  0  0  0  0  0
   40.1500   30.3340   41.5420 H   0  0  0  0  0  0  0  0  0  0  0  0
   40.6640   30.5590   43.2460 H   0  0  0  0  0  0  0  0  0  0  0  0
   38.7370   29.6660   44.0790 H   0  0  0  0  0  0  0  0  0  0  0  0
   38.2090   30.6090   42.6840 H   0  0  0  0  0  0  0  0  0  0  0  0
   37.3550   28.0940   43.2210 H   0  0  0  0  0  0  0  0  0  0  0  0
   37.4770   25.0980   39.3910 C   0  0  0  0  0  0  0  0  0  0  0  0
   38.2140   26.0680   40.0740 C   0  0  0  0  0  0  0  0  0  0  0  0
   38.1540   26.2730   41.4550 C   0  0  0  0  0  0  0  0  0  0  0  0
   37.3240   25.4650   42.1140 N   0  0  0  0  0  0  0  0  0  0  0  0
   36.5930   24.5120   41.4760 C   0  0  0  0  0  0  0  0  0  0  0  0
   36.6590   24.3250   40.1580 N   0  0  0  0  0  0  0  0  0  0  0  0
   37.6150   25.0410   38.3200 H   0  0  0  0  0  0  0  0  0  0  0  0
   38.8850   26.7130   39.5230 H   0  0  0  0  0  0  0  0  0  0  0  0
   35.9150   23.8420   41.9690 H   0  0  0  0  0  0  0  0  0  0  0  0
   37.1500   28.8370   41.3190 C   0  0  0  0  0  0  0  0  0  0  0  0
   35.8110   28.4270   41.1980 C   0  0  0  0  0  0  0  0  0  0  0  0
   35.1420   28.8820   40.0670 C   0  0  0  0  0  0  0  0  0  0  0  0
   35.8270   29.6810   39.1740 C   0  0  0  0  0  0  0  0  0  0  0  0
   37.1490   30.0760   39.3100 C   0  0  0  0  0  0  0  0  0  0  0  0
   37.7980   29.6210   40.4270 N   0  0  0  0  0  0  0  0  0  0  0  0
   35.4270   27.8130   41.9670 H   0  0  0  0  0  0  0  0  0  0  0  0
   34.1220   28.5850   39.9510 H   0  0  0  0  0  0  0  0  0  0  0  0
   35.2990   30.0350   38.2910 H   0  0  0  0  0  0  0  0  0  0  0  0
   37.7880   30.9290   38.3150 C   0  0  0  0  0  0  0  0  0  0  0  0
   37.2710   30.9570   37.1590 O   0  0  0  0  0  0  0  0  0  0  0  0
   39.1110   32.4950   39.6300 C   0  0  0  0  0  3  0  0  0  0  0  0
   38.9660   31.7760   38.4620 C   0  0  0  0  0  0  0  0  0  0  0  0
   39.9490   31.9060   37.5030 C   0  0  0  0  0  0  0  0  0  0  0  0
   39.7910   31.3300   36.6160 H   0  0  0  0  0  0  0  0  0  0  0  0
   41.0650   32.7050   37.6340 C   0  0  0  0  0  0  0  0  0  0  0  0
   42.1310   32.9930   36.8670 N   0  0  0  0  0  0  0  0  0  0  0  0
   42.3050   32.5970   35.9160 H   0  0  0  0  0  0  0  0  0  0  0  0
   42.9270   33.8720   37.5380 C   0  0  0  0  0  0  0  0  0  0  0  0
   43.8740   34.3090   37.1980 H   0  0  0  0  0  0  0  0  0  0  0  0
   42.3540   34.1610   38.7780 C   0  0  0  0  0  3  0  0  0  0  0  0
   41.1790   33.4130   38.8170 C   0  0  0  0  0  0  0  0  0  0  0  0
   40.2270   33.3210   39.8110 C   0  0  0  0  0  3  0  0  0  0  0  0
  1  6  1  0  0  0  0
  1  7  1  1  0  0  0
  2  1  1  0  0  0  0
  2  3  1  0  0  0  0
  3  4  1  0  0  0  0
  3 10  1  0  0  0  0
  4  5  1  0  0  0  0
  4 13  1  0  0  0  0
  5 14  1  0  0  0  0
  6  5  1  0  0  0  0
  6 16  1  1  0  0  0
  8  2  1  0  0  0  0
  9  2  1  0  0  0  0
 11  3  1  0  0  0  0
 12  4  1  0  0  0  0
 15  5  1  0  0  0  0
 17 18  2  0  0  0  0
 17 22  1  0  0  0  0
 18 19  1  0  0  0  0
 19  1  1  0  0  0  0
 19 20  2  0  0  0  0
 21 25  1  0  0  0  0
 21 20  1  0  0  0  0
 22 21  2  0  0  0  0
 23 17  1  0  0  0  0
 24 18  1  0  0  0  0
 26  6  1  0  0  0  0
 27 26  1  0  0  0  0
 27 32  1  0  0  0  0
 28 27  2  0  0  0  0
 29 30  2  0  0  0  0
 29 28  1  0  0  0  0
 30 31  1  0  0  0  0
 31 26  2  0  0  0  0
 33 28  1  0  0  0  0
 34 29  1  0  0  0  0
 35 38  1  0  0  0  0
 35 30  1  0  0  0  0
 36 35  2  0  0  0  0
 37 48  1  0  0  0  0
 38 37  2  0  0  0  0
 39 41  2  0  0  0  0
 39 38  1  0  0  0  0
 40 39  1  0  0  0  0
 41 47  1  0  0  0  0
 42 44  1  0  0  0  0
 42 41  1  0  0  0  0
 43 42  1  0  0  0  0
 44 46  2  0  0  0  0
 45 44  1  0  0  0  0
 46 47  1  0  0  0  0
 47 48  2  0  0  0  0
M  END
>  <minimizedAffinity>
-6.53076315

$$$$

 OpenBabel03242516553D

 48 52  0  0  1  0  0  0  0  0999 V2000
   37.3470   30.2850   38.6650 C   0  0  1  0  0  0  0  0  0  0  0  0
   36.9430   28.8810   38.5870 C   0  0  0  0  0  0  0  0  0  0  0  0
   35.4300   28.8700   38.8180 C   0  0  0  0  0  0  0  0  0  0  0  0
   35.2260   29.2130   40.2860 C   0  0  0  0  0  0  0  0  0  0  0  0
   35.8580   30.5090   40.6950 C   0  0  0  0  0  0  0  0  0  0  0  0
   37.1370   30.8670   40.0670 C   0  0  1  0  0  0  0  0  0  0  0  0
   36.6230   30.9000   38.0460 H   0  0  0  0  0  0  0  0  0  0  0  0
   37.1060   28.5030   37.5620 H   0  0  0  0  0  0  0  0  0  0  0  0
   37.4010   28.2160   39.3460 H   0  0  0  0  0  0  0  0  0  0  0  0
   34.9780   29.7020   38.2370 H   0  0  0  0  0  0  0  0  0  0  0  0
   34.9850   27.8920   38.6420 H   0  0  0  0  0  0  0  0  0  0  0  0
   35.7480   28.4190   40.8650 H   0  0  0  0  0  0  0  0  0  0  0  0
   34.1700   29.2220   40.5730 H   0  0  0  0  0  0  0  0  0  0  0  0
   35.0950   31.3070   40.5320 H   0  0  0  0  0  0  0  0  0  0  0  0
   35.9760   30.4680   41.8100 H   0  0  0  0  0  0  0  0  0  0  0  0
   37.1590   31.9870   39.9030 H   0  0  0  0  0  0  0  0  0  0  0  0
   40.9630   29.8490   37.6550 C   0  0  0  0  0  0  0  0  0  0  0  0
   39.6530   29.6190   38.0810 C   0  0  0  0  0  0  0  0  0  0  0  0
   38.6800   30.6140   38.2070 C   0  0  0  0  0  0  0  0  0  0  0  0
   39.0810   31.8440   37.8880 N   0  0  0  0  0  0  0  0  0  0  0  0
   40.3500   32.0990   37.4700 C   0  0  0  0  0  0  0  0  0  0  0  0
   41.2690   31.1410   37.3530 N   0  0  0  0  0  0  0  0  0  0  0  0
   41.6180   28.9910   37.6000 H   0  0  0  0  0  0  0  0  0  0  0  0
   39.3440   28.6130   38.3340 H   0  0  0  0  0  0  0  0  0  0  0  0
   40.7130   33.0730   37.2030 H   0  0  0  0  0  0  0  0  0  0  0  0
   38.2870   30.6180   40.9360 C   0  0  0  0  0  0  0  0  0  0  0  0
   39.2360   31.5760   41.3310 C   0  0  0  0  0  0  0  0  0  0  0  0
   40.2400   31.1160   42.1770 C   0  0  0  0  0  0  0  0  0  0  0  0
   40.2260   29.7870   42.5530 C   0  0  0  0  0  0  0  0  0  0  0  0
   39.2800   28.8560   42.1520 C   0  0  0  0  0  0  0  0  0  0  0  0
   38.2970   29.3210   41.3190 N   0  0  0  0  0  0  0  0  0  0  0  0
   39.1120   32.5570   40.9580 H   0  0  0  0  0  0  0  0  0  0  0  0
   40.9750   31.8240   42.4930 H   0  0  0  0  0  0  0  0  0  0  0  0
   41.0130   29.4320   43.2140 H   0  0  0  0  0  0  0  0  0  0  0  0
   39.3430   27.4720   42.6070 C   0  0  0  0  0  0  0  0  0  0  0  0
   39.9770   27.2450   43.6800 O   0  0  0  0  0  0  0  0  0  0  0  0
   37.4970   25.9030   42.3680 C   0  0  0  0  0  3  0  0  0  0  0  0
   38.7680   26.2830   41.9910 C   0  0  0  0  0  0  0  0  0  0  0  0
   39.4170   25.5070   41.0520 C   0  0  0  0  0  0  0  0  0  0  0  0
   40.3990   25.8410   40.7950 H   0  0  0  0  0  0  0  0  0  0  0  0
   38.8790   24.3810   40.4670 C   0  0  0  0  0  0  0  0  0  0  0  0
   39.2970   23.4840   39.5560 N   0  0  0  0  0  0  0  0  0  0  0  0
   40.2270   23.5060   39.0820 H   0  0  0  0  0  0  0  0  0  0  0  0
   38.3110   22.5630   39.3650 C   0  0  0  0  0  0  0  0  0  0  0  0
   38.3260   21.6990   38.6910 H   0  0  0  0  0  0  0  0  0  0  0  0
   37.2220   22.8760   40.1810 C   0  0  0  0  0  3  0  0  0  0  0  0
   37.6030   24.0280   40.8680 C   0  0  0  0  0  0  0  0  0  0  0  0
   36.9070   24.7660   41.8020 C   0  0  0  0  0  3  0  0  0  0  0  0
  1  7  1  6  0  0  0
  1  6  1  0  0  0  0
  2  1  1  0  0  0  0
  2  3  1  0  0  0  0
  2  9  1  0  0  0  0
  3  4  1  0  0  0  0
  4 13  1  0  0  0  0
  4  5  1  0  0  0  0
  4 12  1  0  0  0  0
  5 15  1  0  0  0  0
  6 16  1  6  0  0  0
  6  5  1  0  0  0  0
  6 26  1  0  0  0  0
  8  2  1  0  0  0  0
 10  3  1  0  0  0  0
 11  3  1  0  0  0  0
 14  5  1  0  0  0  0
 17 18  1  0  0  0  0
 18 19  2  0  0  0  0
 18 24  1  0  0  0  0
 19  1  1  0  0  0  0
 20 19  1  0  0  0  0
 21 20  2  0  0  0  0
 22 21  1  0  0  0  0
 22 17  2  0  0  0  0
 23 17  1  0  0  0  0
 25 21  1  0  0  0  0
 26 31  2  0  0  0  0
 26 27  1  0  0  0  0
 27 28  2  0  0  0  0
 28 33  1  0  0  0  0
 28 29  1  0  0  0  0
 29 34  1  0  0  0  0
 30 29  2  0  0  0  0
 30 35  1  0  0  0  0
 31 30  1  0  0  0  0
 32 27  1  0  0  0  0
 35 36  2  0  0  0  0
 38 37  1  0  0  0  0
 38 35  1  0  0  0  0
 39 38  2  0  0  0  0
 40 39  1  0  0  0  0
 41 47  2  0  0  0  0
 41 39  1  0  0  0  0
 42 41  1  0  0  0  0
 43 42  1  0  0  0  0
 44 42  1  0  0  0  0
 44 46  2  0  0  0  0
 45 44  1  0  0  0  0
 46 47  1  0  0  0  0
 47 48  1  0  0  0  0
 48 37  2  0  0  0  0
M  END
>  <minimizedAffinity>
-6.3979888

$$$$

 OpenBabel03242516553D

 48 52  0  0  1  0  0  0  0  0999 V2000
   36.5160   30.6720   38.9860 C   0  0  1  0  0  0  0  0  0  0  0  0
   36.6940   29.7450   37.8690 C   0  0  0  0  0  0  0  0  0  0  0  0
   35.2840   29.3540   37.4230 C   0  0  0  0  0  0  0  0  0  0  0  0
   34.7230   28.4700   38.5270 C   0  0  0  0  0  0  0  0  0  0  0  0
   34.7370   29.1140   39.8800 C   0  0  0  0  0  0  0  0  0  0  0  0
   35.8700   29.9940   40.1990 C   0  0  1  0  0  0  0  0  0  0  0  0
   35.7260   31.4330   38.6950 H   0  0  0  0  0  0  0  0  0  0  0  0
   37.1560   30.2730   37.0160 H   0  0  0  0  0  0  0  0  0  0  0  0
   37.2370   28.8100   38.1140 H   0  0  0  0  0  0  0  0  0  0  0  0
   34.6530   30.2680   37.4040 H   0  0  0  0  0  0  0  0  0  0  0  0
   35.2790   28.7750   36.5010 H   0  0  0  0  0  0  0  0  0  0  0  0
   35.4030   27.5920   38.5950 H   0  0  0  0  0  0  0  0  0  0  0  0
   33.7110   28.1160   38.3080 H   0  0  0  0  0  0  0  0  0  0  0  0
   33.7670   29.6540   39.9920 H   0  0  0  0  0  0  0  0  0  0  0  0
   34.6750   28.2820   40.6300 H   0  0  0  0  0  0  0  0  0  0  0  0
   35.4920   30.8590   40.8240 H   0  0  0  0  0  0  0  0  0  0  0  0
   38.6060   33.4420   40.4830 C   0  0  0  0  0  0  0  0  0  0  0  0
   37.5380   32.6570   40.0420 C   0  0  0  0  0  0  0  0  0  0  0  0
   37.6800   31.4150   39.4190 C   0  0  0  0  0  0  0  0  0  0  0  0
   38.9360   30.9990   39.2590 N   0  0  0  0  0  0  0  0  0  0  0  0
   39.9960   31.7420   39.6780 C   0  0  0  0  0  0  0  0  0  0  0  0
   39.8480   32.9250   40.2720 N   0  0  0  0  0  0  0  0  0  0  0  0
   38.3600   34.3850   40.9510 H   0  0  0  0  0  0  0  0  0  0  0  0
   36.5250   33.0090   40.1820 H   0  0  0  0  0  0  0  0  0  0  0  0
   41.0220   31.4440   39.5690 H   0  0  0  0  0  0  0  0  0  0  0  0
   36.8660   29.3520   41.0560 C   0  0  0  0  0  0  0  0  0  0  0  0
   37.3560   29.8650   42.2680 C   0  0  0  0  0  0  0  0  0  0  0  0
   38.2920   29.0720   42.9240 C   0  0  0  0  0  0  0  0  0  0  0  0
   38.6560   27.8720   42.3480 C   0  0  0  0  0  0  0  0  0  0  0  0
   38.1610   27.3810   41.1500 C   0  0  0  0  0  0  0  0  0  0  0  0
   37.2410   28.1700   40.5120 N   0  0  0  0  0  0  0  0  0  0  0  0
   36.9800   30.8030   42.5790 H   0  0  0  0  0  0  0  0  0  0  0  0
   38.6810   29.4400   43.8480 H   0  0  0  0  0  0  0  0  0  0  0  0
   39.3880   27.2550   42.8640 H   0  0  0  0  0  0  0  0  0  0  0  0
   38.6010   26.0950   40.6210 C   0  0  0  0  0  0  0  0  0  0  0  0
   39.8500   25.9100   40.5150 O   0  0  0  0  0  0  0  0  0  0  0  0
   38.2280   23.6920   40.5020 C   0  0  0  0  0  3  0  0  0  0  0  0
   37.7930   24.9620   40.1870 C   0  0  0  0  0  0  0  0  0  0  0  0
   36.6160   25.0790   39.4770 C   0  0  0  0  0  0  0  0  0  0  0  0
   36.3220   26.0830   39.2560 H   0  0  0  0  0  0  0  0  0  0  0  0
   35.8460   24.0120   39.0620 C   0  0  0  0  0  0  0  0  0  0  0  0
   34.6970   23.8700   38.3790 N   0  0  0  0  0  0  0  0  0  0  0  0
   34.1250   24.6600   38.0040 H   0  0  0  0  0  0  0  0  0  0  0  0
   34.4160   22.5420   38.2680 C   0  0  0  0  0  0  0  0  0  0  0  0
   33.5540   22.0810   37.7710 H   0  0  0  0  0  0  0  0  0  0  0  0
   35.4190   21.8030   38.9000 C   0  0  0  0  0  3  0  0  0  0  0  0
   36.3120   22.7520   39.3940 C   0  0  0  0  0  0  0  0  0  0  0  0
   37.4810   22.5760   40.1030 C   0  0  0  0  0  3  0  0  0  0  0  0
  1  7  1  6  0  0  0
  1 19  1  0  0  0  0
  1  6  1  0  0  0  0
  2  9  1  0  0  0  0
  2  1  1  0  0  0  0
  3  2  1  0  0  0  0
  3  4  1  0  0  0  0
  4 12  1  0  0  0  0
  4  5  1  0  0  0  0
  5 14  1  0  0  0  0
  5  6  1  0  0  0  0
  5 15  1  0  0  0  0
  6 16  1  1  0  0  0
  6 26  1  0  0  0  0
  8  2  1  0  0  0  0
 10  3  1  0  0  0  0
 11  3  1  0  0  0  0
 13  4  1  0  0  0  0
 17 23  1  0  0  0  0
 18 24  1  0  0  0  0
 18 17  2  0  0  0  0
 19 18  1  0  0  0  0
 20 19  2  0  0  0  0
 20 21  1  0  0  0  0
 21 22  2  0  0  0  0
 22 17  1  0  0  0  0
 25 21  1  0  0  0  0
 26 27  1  0  0  0  0
 27 32  1  0  0  0  0
 27 28  2  0  0  0  0
 28 33  1  0  0  0  0
 29 34  1  0  0  0  0
 29 28  1  0  0  0  0
 30 29  2  0  0  0  0
 31 26  2  0  0  0  0
 31 30  1  0  0  0  0
 35 30  1  0  0  0  0
 36 35  2  0  0  0  0
 38 37  1  0  0  0  0
 38 35  1  0  0  0  0
 39 38  2  0  0  0  0
 40 39  1  0  0  0  0
 41 47  2  0  0  0  0
 41 39  1  0  0  0  0
 42 41  1  0  0  0  0
 43 42  1  0  0  0  0
 44 42  1  0  0  0  0
 44 46  2  0  0  0  0
 45 44  1  0  0  0  0
 46 47  1  0  0  0  0
 47 48  1  0  0  0  0
 48 37  2  0  0  0  0
M  END
>  <minimizedAffinity>
-6.38202715

$$$$

 OpenBabel03242516553D

 48 52  0  0  1  0  0  0  0  0999 V2000
   35.9720   29.6770   37.2360 C   0  0  1  0  0  0  0  0  0  0  0  0
   35.7300   28.9470   35.9920 C   0  0  0  0  0  0  0  0  0  0  0  0
   34.2740   29.2320   35.6180 C   0  0  0  0  0  0  0  0  0  0  0  0
   33.4240   28.4840   36.6350 C   0  0  0  0  0  0  0  0  0  0  0  0
   33.7300   28.8440   38.0560 C   0  0  0  0  0  0  0  0  0  0  0  0
   35.1310   29.1320   38.3950 C   0  0  1  0  0  0  0  0  0  0  0  0
   35.5570   30.7270   37.1200 H   0  0  0  0  0  0  0  0  0  0  0  0
   36.3490   29.3740   35.1830 H   0  0  0  0  0  0  0  0  0  0  0  0
   35.8470   27.8460   36.0600 H   0  0  0  0  0  0  0  0  0  0  0  0
   34.0730   30.3130   35.7780 H   0  0  0  0  0  0  0  0  0  0  0  0
   34.0120   28.8580   34.6290 H   0  0  0  0  0  0  0  0  0  0  0  0
   33.6860   27.4080   36.5240 H   0  0  0  0  0  0  0  0  0  0  0  0
   32.3510   28.6050   36.4560 H   0  0  0  0  0  0  0  0  0  0  0  0
   33.0690   29.7030   38.3230 H   0  0  0  0  0  0  0  0  0  0  0  0
   33.3480   27.9990   38.6880 H   0  0  0  0  0  0  0  0  0  0  0  0
   35.1540   29.9640   39.1630 H   0  0  0  0  0  0  0  0  0  0  0  0
   39.0440   31.0960   38.9180 C   0  0  0  0  0  0  0  0  0  0  0  0
   37.7390   30.8880   38.4650 C   0  0  0  0  0  0  0  0  0  0  0  0
   37.3470   29.8110   37.6660 C   0  0  0  0  0  0  0  0  0  0  0  0
   38.3190   28.9580   37.3430 N   0  0  0  0  0  0  0  0  0  0  0  0
   39.5990   29.1360   37.7680 C   0  0  0  0  0  0  0  0  0  0  0  0
   39.9610   30.1670   38.5310 N   0  0  0  0  0  0  0  0  0  0  0  0
   39.2170   31.9700   39.5310 H   0  0  0  0  0  0  0  0  0  0  0  0
   36.9620   31.5890   38.7390 H   0  0  0  0  0  0  0  0  0  0  0  0
   40.4100   28.4740   37.5320 H   0  0  0  0  0  0  0  0  0  0  0  0
   35.7940   28.0160   39.0690 C   0  0  0  0  0  0  0  0  0  0  0  0
   35.8800   26.7010   38.5820 C   0  0  0  0  0  0  0  0  0  0  0  0
   36.5740   25.8040   39.3870 C   0  0  0  0  0  0  0  0  0  0  0  0
   37.1130   26.2650   40.5720 C   0  0  0  0  0  0  0  0  0  0  0  0
   37.0190   27.5680   41.0360 C   0  0  0  0  0  0  0  0  0  0  0  0
   36.3320   28.4420   40.2350 N   0  0  0  0  0  0  0  0  0  0  0  0
   35.4140   26.5010   37.6550 H   0  0  0  0  0  0  0  0  0  0  0  0
   36.6540   24.7970   39.0400 H   0  0  0  0  0  0  0  0  0  0  0  0
   37.6550   25.5610   41.1980 H   0  0  0  0  0  0  0  0  0  0  0  0
   37.6270   27.9650   42.3000 C   0  0  0  0  0  0  0  0  0  0  0  0
   36.9320   27.8170   43.3490 O   0  0  0  0  0  0  0  0  0  0  0  0
   39.9590   27.6640   42.9330 C   0  0  0  0  0  3  0  0  0  0  0  0
   38.9530   28.5220   42.5390 C   0  0  0  0  0  0  0  0  0  0  0  0
   39.2680   29.8570   42.3970 C   0  0  0  0  0  0  0  0  0  0  0  0
   38.4550   30.4810   42.0930 H   0  0  0  0  0  0  0  0  0  0  0  0
   40.5200   30.3910   42.6220 C   0  0  0  0  0  0  0  0  0  0  0  0
   41.0620   31.6190   42.5560 N   0  0  0  0  0  0  0  0  0  0  0  0
   40.5450   32.4850   42.2820 H   0  0  0  0  0  0  0  0  0  0  0  0
   42.3780   31.5360   42.8980 C   0  0  0  0  0  0  0  0  0  0  0  0
   43.1090   32.3520   42.9460 H   0  0  0  0  0  0  0  0  0  0  0  0
   42.6940   30.2090   43.1970 C   0  0  0  0  0  3  0  0  0  0  0  0
   41.5060   29.5040   43.0160 C   0  0  0  0  0  0  0  0  0  0  0  0
   41.2480   28.1580   43.1730 C   0  0  0  0  0  3  0  0  0  0  0  0
  1  7  1  6  0  0  0
  1 19  1  0  0  0  0
  1  6  1  0  0  0  0
  2  9  1  0  0  0  0
  2  1  1  0  0  0  0
  3 10  1  0  0  0  0
  3  2  1  0  0  0  0
  3  4  1  0  0  0  0
  4  5  1  0  0  0  0
  5 14  1  0  0  0  0
  5  6  1  0  0  0  0
  5 15  1  0  0  0  0
  6 26  1  0  0  0  0
  6 16  1  1  0  0  0
  8  2  1  0  0  0  0
 11  3  1  0  0  0  0
 12  4  1  0  0  0  0
 13  4  1  0  0  0  0
 17 23  1  0  0  0  0
 18 24  1  0  0  0  0
 18 17  2  0  0  0  0
 19 18  1  0  0  0  0
 20 19  2  0  0  0  0
 20 21  1  0  0  0  0
 21 22  2  0  0  0  0
 22 17  1  0  0  0  0
 25 21  1  0  0  0  0
 26 31  1  0  0  0  0
 27 26  2  0  0  0  0
 27 28  1  0  0  0  0
 28 29  2  0  0  0  0
 29 30  1  0  0  0  0
 29 34  1  0  0  0  0
 30 35  1  0  0  0  0
 31 30  2  0  0  0  0
 32 27  1  0  0  0  0
 33 28  1  0  0  0  0
 35 38  1  0  0  0  0
 35 36  2  0  0  0  0
 37 48  1  0  0  0  0
 38 37  2  0  0  0  0
 39 38  1  0  0  0  0
 39 41  2  0  0  0  0
 40 39  1  0  0  0  0
 41 47  1  0  0  0  0
 42 41  1  0  0  0  0
 42 44  1  0  0  0  0
 43 42  1  0  0  0  0
 44 45  1  0  0  0  0
 44 46  2  0  0  0  0
 47 48  2  0  0  0  0
 47 46  1  0  0  0  0
M  END
>  <minimizedAffinity>
-6.29991388

$$$$

 OpenBabel03242516553D

 48 52  0  0  1  0  0  0  0  0999 V2000
   36.7500   30.5730   39.2430 C   0  0  1  0  0  0  0  0  0  0  0  0
   36.8870   29.6500   38.1160 C   0  0  0  0  0  0  0  0  0  0  0  0
   35.4790   29.4870   37.5380 C   0  0  0  0  0  0  0  0  0  0  0  0
   34.6960   28.6770   38.5610 C   0  0  0  0  0  0  0  0  0  0  0  0
   34.6860   29.2860   39.9300 C   0  0  0  0  0  0  0  0  0  0  0  0
   35.9040   29.9780   40.3730 C   0  0  1  0  0  0  0  0  0  0  0  0
   36.1120   31.4500   38.9110 H   0  0  0  0  0  0  0  0  0  0  0  0
   37.4970   30.1190   37.3230 H   0  0  0  0  0  0  0  0  0  0  0  0
   37.2600   28.6390   38.3760 H   0  0  0  0  0  0  0  0  0  0  0  0
   34.9960   30.4870   37.4950 H   0  0  0  0  0  0  0  0  0  0  0  0
   35.4700   28.9330   36.6010 H   0  0  0  0  0  0  0  0  0  0  0  0
   35.2280   27.7050   38.6590 H   0  0  0  0  0  0  0  0  0  0  0  0
   33.6660   28.4850   38.2460 H   0  0  0  0  0  0  0  0  0  0  0  0
   33.8010   29.9650   39.9770 H   0  0  0  0  0  0  0  0  0  0  0  0
   34.4320   28.4590   40.6450 H   0  0  0  0  0  0  0  0  0  0  0  0
   35.6050   30.8770   40.9920 H   0  0  0  0  0  0  0  0  0  0  0  0
   40.4140   30.9420   40.0890 C   0  0  0  0  0  0  0  0  0  0  0  0
   39.1940   30.4850   39.5850 C   0  0  0  0  0  0  0  0  0  0  0  0
   37.9690   31.1220   39.7980 C   0  0  0  0  0  0  0  0  0  0  0  0
   38.0240   32.2310   40.5350 N   0  0  0  0  0  0  0  0  0  0  0  0
   39.1970   32.6980   41.0390 C   0  0  0  0  0  0  0  0  0  0  0  0
   40.3600   32.0830   40.8290 N   0  0  0  0  0  0  0  0  0  0  0  0
   41.2920   30.3560   39.8520 H   0  0  0  0  0  0  0  0  0  0  0  0
   39.1680   29.5840   38.9870 H   0  0  0  0  0  0  0  0  0  0  0  0
   39.2860   33.5870   41.6360 H   0  0  0  0  0  0  0  0  0  0  0  0
   36.7120   29.1750   41.2910 C   0  0  0  0  0  0  0  0  0  0  0  0
   37.3190   29.6420   42.4680 C   0  0  0  0  0  0  0  0  0  0  0  0
   38.0310   28.6940   43.1960 C   0  0  0  0  0  0  0  0  0  0  0  0
   38.0820   27.4000   42.7170 C   0  0  0  0  0  0  0  0  0  0  0  0
   37.4760   26.9570   41.5520 C   0  0  0  0  0  0  0  0  0  0  0  0
   36.7780   27.9000   40.8440 N   0  0  0  0  0  0  0  0  0  0  0  0
   37.1890   30.6640   42.7030 H   0  0  0  0  0  0  0  0  0  0  0  0
   38.5030   29.0230   44.0960 H   0  0  0  0  0  0  0  0  0  0  0  0
   38.6400   26.6620   43.2900 H   0  0  0  0  0  0  0  0  0  0  0  0
   37.5800   25.5660   41.1290 C   0  0  0  0  0  0  0  0  0  0  0  0
   38.4670   24.8560   41.6880 O   0  0  0  0  0  0  0  0  0  0  0  0
   36.2040   23.6610   40.4910 C   0  0  0  0  0  3  0  0  0  0  0  0
   36.7910   24.8550   40.1290 C   0  0  0  0  0  0  0  0  0  0  0  0
   36.5950   25.3010   38.8390 C   0  0  0  0  0  0  0  0  0  0  0  0
   37.0710   26.2300   38.6070 H   0  0  0  0  0  0  0  0  0  0  0  0
   35.8510   24.6340   37.8880 C   0  0  0  0  0  0  0  0  0  0  0  0
   35.5210   24.8540   36.6040 N   0  0  0  0  0  0  0  0  0  0  0  0
   35.8200   25.6860   36.0470 H   0  0  0  0  0  0  0  0  0  0  0  0
   34.7450   23.8240   36.1690 C   0  0  0  0  0  0  0  0  0  0  0  0
   34.3070   23.6920   35.1720 H   0  0  0  0  0  0  0  0  0  0  0  0
   34.5690   22.9070   37.2080 C   0  0  0  0  0  3  0  0  0  0  0  0
   35.2760   23.4390   38.2840 C   0  0  0  0  0  0  0  0  0  0  0  0
   35.4380   22.9460   39.5610 C   0  0  0  0  0  3  0  0  0  0  0  0
  1  7  1  6  0  0  0
  1 19  1  0  0  0  0
  1  6  1  0  0  0  0
  2  9  1  0  0  0  0
  2  1  1  0  0  0  0
  3  2  1  0  0  0  0
  3  4  1  0  0  0  0
  4 12  1  0  0  0  0
  4  5  1  0  0  0  0
  5 14  1  0  0  0  0
  5  6  1  0  0  0  0
  5 15  1  0  0  0  0
  6 16  1  1  0  0  0
  6 26  1  0  0  0  0
  8  2  1  0  0  0  0
 10  3  1  0  0  0  0
 11  3  1  0  0  0  0
 13  4  1  0  0  0  0
 17 22  1  0  0  0  0
 18 19  1  0  0  0  0
 18 17  2  0  0  0  0
 19 20  2  0  0  0  0
 20 21  1  0  0  0  0
 21 25  1  0  0  0  0
 22 21  2  0  0  0  0
 23 17  1  0  0  0  0
 24 18  1  0  0  0  0
 26 27  1  0  0  0  0
 27 32  1  0  0  0  0
 27 28  2  0  0  0  0
 28 33  1  0  0  0  0
 29 28  1  0  0  0  0
 29 34  1  0  0  0  0
 30 29  2  0  0  0  0
 31 26  2  0  0  0  0
 31 30  1  0  0  0  0
 35 30  1  0  0  0  0
 35 36  2  0  0  0  0
 38 37  1  0  0  0  0
 38 35  1  0  0  0  0
 39 38  2  0  0  0  0
 40 39  1  0  0  0  0
 41 47  2  0  0  0  0
 41 39  1  0  0  0  0
 42 41  1  0  0  0  0
 43 42  1  0  0  0  0
 44 42  1  0  0  0  0
 44 46  2  0  0  0  0
 45 44  1  0  0  0  0
 46 47  1  0  0  0  0
 47 48  1  0  0  0  0
 48 37  2  0  0  0  0
M  END
>  <minimizedAffinity>
-6.28396797

$$$$

 OpenBabel03242516553D

 48 52  0  0  1  0  0  0  0  0999 V2000
   36.7840   30.4380   39.2540 C   0  0  1  0  0  0  0  0  0  0  0  0
   36.9390   29.4480   38.1880 C   0  0  0  0  0  0  0  0  0  0  0  0
   35.5420   29.2550   37.5920 C   0  0  0  0  0  0  0  0  0  0  0  0
   34.7350   28.5120   38.6460 C   0  0  0  0  0  0  0  0  0  0  0  0
   34.6990   29.2030   39.9750 C   0  0  0  0  0  0  0  0  0  0  0  0
   35.9120   29.9150   40.4010 C   0  0  1  0  0  0  0  0  0  0  0  0
   36.1570   31.2950   38.8560 H   0  0  0  0  0  0  0  0  0  0  0  0
   37.5670   29.8640   37.3810 H   0  0  0  0  0  0  0  0  0  0  0  0
   37.3010   28.4530   38.5170 H   0  0  0  0  0  0  0  0  0  0  0  0
   35.0660   30.2520   37.4790 H   0  0  0  0  0  0  0  0  0  0  0  0
   35.5500   28.6450   36.6900 H   0  0  0  0  0  0  0  0  0  0  0  0
   35.2600   27.5450   38.8140 H   0  0  0  0  0  0  0  0  0  0  0  0
   33.7100   28.3050   38.3220 H   0  0  0  0  0  0  0  0  0  0  0  0
   33.8170   29.8860   39.9620 H   0  0  0  0  0  0  0  0  0  0  0  0
   34.4270   28.4210   40.7330 H   0  0  0  0  0  0  0  0  0  0  0  0
   35.6050   30.8520   40.9580 H   0  0  0  0  0  0  0  0  0  0  0  0
   39.0950   32.9160   40.9270 C   0  0  0  0  0  0  0  0  0  0  0  0
   37.9740   32.2830   40.3840 C   0  0  0  0  0  0  0  0  0  0  0  0
   37.9940   31.0140   39.7990 C   0  0  0  0  0  0  0  0  0  0  0  0
   39.1840   30.4140   39.7840 N   0  0  0  0  0  0  0  0  0  0  0  0
   40.2920   31.0060   40.3040 C   0  0  0  0  0  0  0  0  0  0  0  0
   40.2610   32.2160   40.8600 N   0  0  0  0  0  0  0  0  0  0  0  0
   38.9450   33.9000   41.3500 H   0  0  0  0  0  0  0  0  0  0  0  0
   37.0160   32.7850   40.4070 H   0  0  0  0  0  0  0  0  0  0  0  0
   41.2670   30.5570   40.3130 H   0  0  0  0  0  0  0  0  0  0  0  0
   36.6970   29.1660   41.3820 C   0  0  0  0  0  0  0  0  0  0  0  0
   37.3530   29.7160   42.4960 C   0  0  0  0  0  0  0  0  0  0  0  0
   38.0300   28.8090   43.3050 C   0  0  0  0  0  0  0  0  0  0  0  0
   38.0040   27.4730   42.9580 C   0  0  0  0  0  0  0  0  0  0  0  0
   37.3510   26.9490   41.8540 C   0  0  0  0  0  0  0  0  0  0  0  0
   36.6880   27.8510   41.0650 N   0  0  0  0  0  0  0  0  0  0  0  0
   37.2800   30.7620   42.6280 H   0  0  0  0  0  0  0  0  0  0  0  0
   38.5370   29.2010   44.1590 H   0  0  0  0  0  0  0  0  0  0  0  0
   38.5350   26.7670   43.5930 H   0  0  0  0  0  0  0  0  0  0  0  0
   37.3740   25.5180   41.5720 C   0  0  0  0  0  0  0  0  0  0  0  0
   36.5740   24.7860   42.2260 O   0  0  0  0  0  0  0  0  0  0  0  0
   37.6880   23.6490   40.0420 C   0  0  0  0  0  3  0  0  0  0  0  0
   38.2050   24.7900   40.6210 C   0  0  0  0  0  0  0  0  0  0  0  0
   39.4830   25.1680   40.2620 C   0  0  0  0  0  0  0  0  0  0  0  0
   39.8390   26.0560   40.7380 H   0  0  0  0  0  0  0  0  0  0  0  0
   40.2750   24.4830   39.3640 C   0  0  0  0  0  0  0  0  0  0  0  0
   41.5130   24.6430   38.8650 N   0  0  0  0  0  0  0  0  0  0  0  0
   42.1590   25.4240   39.1150 H   0  0  0  0  0  0  0  0  0  0  0  0
   41.7670   23.6280   37.9930 C   0  0  0  0  0  0  0  0  0  0  0  0
   42.6820   23.4590   37.4130 H   0  0  0  0  0  0  0  0  0  0  0  0
   40.6560   22.7840   37.9290 C   0  0  0  0  0  3  0  0  0  0  0  0
   39.7260   23.3440   38.8030 C   0  0  0  0  0  0  0  0  0  0  0  0
   38.4540   22.9190   39.1240 C   0  0  0  0  0  3  0  0  0  0  0  0
  1  7  1  6  0  0  0
  1 19  1  0  0  0  0
  1  6  1  0  0  0  0
  2  9  1  0  0  0  0
  2  1  1  0  0  0  0
  3  2  1  0  0  0  0
  3  4  1  0  0  0  0
  4 12  1  0  0  0  0
  4  5  1  0  0  0  0
  5  6  1  0  0  0  0
  5 15  1  0  0  0  0
  6 16  1  1  0  0  0
  6 26  1  0  0  0  0
  8  2  1  0  0  0  0
 10  3  1  0  0  0  0
 11  3  1  0  0  0  0
 13  4  1  0  0  0  0
 14  5  1  0  0  0  0
 17 23  1  0  0  0  0
 18 24  1  0  0  0  0
 18 17  2  0  0  0  0
 19 18  1  0  0  0  0
 20 19  2  0  0  0  0
 20 21  1  0  0  0  0
 21 25  1  0  0  0  0
 21 22  2  0  0  0  0
 22 17  1  0  0  0  0
 26 27  1  0  0  0  0
 27 32  1  0  0  0  0
 27 28  2  0  0  0  0
 28 33  1  0  0  0  0
 29 28  1  0  0  0  0
 29 34  1  0  0  0  0
 30 29  2  0  0  0  0
 31 26  2  0  0  0  0
 31 30  1  0  0  0  0
 35 30  1  0  0  0  0
 35 36  2  0  0  0  0
 37 38  1  0  0  0  0
 38 35  1  0  0  0  0
 39 38  2  0  0  0  0
 39 40  1  0  0  0  0
 41 39  1  0  0  0  0
 42 43  1  0  0  0  0
 42 41  1  0  0  0  0
 44 42  1  0  0  0  0
 45 44  1  0  0  0  0
 46 44  2  0  0  0  0
 46 47  1  0  0  0  0
 47 48  1  0  0  0  0
 47 41  2  0  0  0  0
 48 37  2  0  0  0  0
M  END
>  <minimizedAffinity>
-6.28249693

$$$$

 OpenBabel03242516553D

 48 52  0  0  1  0  0  0  0  0999 V2000
   40.3870   30.4970   41.2450 C   0  0  1  0  0  0  0  0  0  0  0  0
   40.5780   31.1460   42.5420 C   0  0  0  0  0  0  0  0  0  0  0  0
   42.0370   30.8910   42.9260 C   0  0  0  0  0  0  0  0  0  0  0  0
   42.1320   29.4090   43.2580 C   0  0  0  0  0  0  0  0  0  0  0  0
   41.6660   28.5130   42.1510 C   0  0  0  0  0  0  0  0  0  0  0  0
   40.5320   28.9740   41.3380 C   0  0  1  0  0  0  0  0  0  0  0  0
   41.2600   30.7730   40.5760 H   0  0  0  0  0  0  0  0  0  0  0  0
   40.4710   32.2400   42.4300 H   0  0  0  0  0  0  0  0  0  0  0  0
   39.9440   30.7550   43.3640 H   0  0  0  0  0  0  0  0  0  0  0  0
   42.6710   31.0510   42.0270 H   0  0  0  0  0  0  0  0  0  0  0  0
   42.3440   31.4490   43.8090 H   0  0  0  0  0  0  0  0  0  0  0  0
   41.4350   29.2380   44.1090 H   0  0  0  0  0  0  0  0  0  0  0  0
   43.1400   29.1110   43.5620 H   0  0  0  0  0  0  0  0  0  0  0  0
   42.5550   28.2980   41.5120 H   0  0  0  0  0  0  0  0  0  0  0  0
   41.4230   27.5240   42.6230 H   0  0  0  0  0  0  0  0  0  0  0  0
   40.7000   28.6500   40.2670 H   0  0  0  0  0  0  0  0  0  0  0  0
   38.0300   31.0530   38.3440 C   0  0  0  0  0  0  0  0  0  0  0  0
   39.1510   30.7540   39.1230 C   0  0  0  0  0  0  0  0  0  0  0  0
   39.1770   30.8170   40.5180 C   0  0  0  0  0  0  0  0  0  0  0  0
   38.0350   31.1930   41.0930 N   0  0  0  0  0  0  0  0  0  0  0  0
   36.9290   31.4910   40.3600 C   0  0  0  0  0  0  0  0  0  0  0  0
   36.9140   31.4260   39.0300 N   0  0  0  0  0  0  0  0  0  0  0  0
   38.1410   30.9640   37.2720 H   0  0  0  0  0  0  0  0  0  0  0  0
   40.0690   30.4480   38.6400 H   0  0  0  0  0  0  0  0  0  0  0  0
   35.9900   31.7970   40.7830 H   0  0  0  0  0  0  0  0  0  0  0  0
   39.2700   28.3300   41.7050 C   0  0  0  0  0  0  0  0  0  0  0  0
   38.7810   28.1760   43.0120 C   0  0  0  0  0  0  0  0  0  0  0  0
   37.5470   27.5430   43.1230 C   0  0  0  0  0  0  0  0  0  0  0  0
   36.9150   27.1280   41.9670 C   0  0  0  0  0  0  0  0  0  0  0  0
   37.4140   27.2900   40.6840 C   0  0  0  0  0  0  0  0  0  0  0  0
   38.6300   27.9130   40.5880 N   0  0  0  0  0  0  0  0  0  0  0  0
   39.3830   28.5470   43.7970 H   0  0  0  0  0  0  0  0  0  0  0  0
   37.1510   27.4120   44.1060 H   0  0  0  0  0  0  0  0  0  0  0  0
   35.9510   26.6340   42.0580 H   0  0  0  0  0  0  0  0  0  0  0  0
   36.6700   26.8230   39.5200 C   0  0  0  0  0  0  0  0  0  0  0  0
   36.2770   25.6190   39.5300 O   0  0  0  0  0  0  0  0  0  0  0  0
   35.0970   28.2270   38.3030 C   0  0  0  0  0  3  0  0  0  0  0  0
   36.3040   27.5600   38.3170 C   0  0  0  0  0  0  0  0  0  0  0  0
   37.0890   27.6320   37.1850 C   0  0  0  0  0  0  0  0  0  0  0  0
   38.0130   27.0970   37.2440 H   0  0  0  0  0  0  0  0  0  0  0  0
   36.7490   28.3260   36.0430 C   0  0  0  0  0  0  0  0  0  0  0  0
   37.3240   28.5410   34.8470 N   0  0  0  0  0  0  0  0  0  0  0  0
   38.2530   28.1620   34.5560 H   0  0  0  0  0  0  0  0  0  0  0  0
   36.4990   29.3250   34.1000 C   0  0  0  0  0  0  0  0  0  0  0  0
   36.6660   29.6880   33.0780 H   0  0  0  0  0  0  0  0  0  0  0  0
   35.3520   29.6250   34.8380 C   0  0  0  0  0  3  0  0  0  0  0  0
   35.5320   28.9830   36.0620 C   0  0  0  0  0  0  0  0  0  0  0  0
   34.7060   28.9460   37.1660 C   0  0  0  0  0  3  0  0  0  0  0  0
  1  7  1  6  0  0  0
  1  6  1  0  0  0  0
  1  2  1  0  0  0  0
  2  3  1  0  0  0  0
  2  9  1  0  0  0  0
  3  4  1  0  0  0  0
  3 11  1  0  0  0  0
  4 13  1  0  0  0  0
  4 12  1  0  0  0  0
  5 15  1  0  0  0  0
  5  4  1  0  0  0  0
  6 16  1  6  0  0  0
  6 26  1  0  0  0  0
  6  5  1  0  0  0  0
  8  2  1  0  0  0  0
 10  3  1  0  0  0  0
 14  5  1  0  0  0  0
 17 22  2  0  0  0  0
 17 18  1  0  0  0  0
 18 19  2  0  0  0  0
 19 20  1  0  0  0  0
 19  1  1  0  0  0  0
 21 25  1  0  0  0  0
 21 20  2  0  0  0  0
 22 21  1  0  0  0  0
 23 17  1  0  0  0  0
 24 18  1  0  0  0  0
 26 27  1  0  0  0  0
 27 28  2  0  0  0  0
 27 32  1  0  0  0  0
 28 33  1  0  0  0  0
 29 34  1  0  0  0  0
 29 28  1  0  0  0  0
 30 29  2  0  0  0  0
 31 30  1  0  0  0  0
 31 26  2  0  0  0  0
 35 36  2  0  0  0  0
 35 30  1  0  0  0  0
 37 38  1  0  0  0  0
 38 35  1  0  0  0  0
 39 40  1  0  0  0  0
 39 38  2  0  0  0  0
 41 47  2  0  0  0  0
 41 39  1  0  0  0  0
 42 41  1  0  0  0  0
 43 42  1  0  0  0  0
 44 46  2  0  0  0  0
 44 42  1  0  0  0  0
 45 44  1  0  0  0  0
 46 47  1  0  0  0  0
 47 48  1  0  0  0  0
 48 37  2  0  0  0  0
M  END
>  <minimizedAffinity>
-6.25753736

$$$$
