
 OpenBabel03252504323D

 43 46  0  0  0  0  0  0  0  0999 V2000
   41.4130   35.4750   41.5680 C   0  0  0  0  0  0  0  0  0  0  0  0
   41.3900   35.2730   42.6790 H   0  0  0  0  0  0  0  0  0  0  0  0
   40.8270   36.4100   41.4460 H   0  0  0  0  0  0  0  0  0  0  0  0
   41.0220   33.0720   41.3090 C   0  0  0  0  0  0  0  0  0  0  0  0
   40.5580   34.3760   41.0090 C   0  0  0  0  0  0  0  0  0  0  0  0
   39.4250   34.4850   40.2770 C   0  0  0  0  0  0  0  0  0  0  0  0
   38.8360   33.3620   39.8980 N   0  0  0  0  0  0  0  0  0  0  0  0
   39.2570   32.1370   40.1710 C   0  0  0  0  0  0  0  0  0  0  0  0
   40.4160   31.9460   40.9200 N   0  0  0  0  0  0  0  0  0  0  0  0
   41.9180   32.8950   41.8880 H   0  0  0  0  0  0  0  0  0  0  0  0
   39.1100   35.4990   40.0730 H   0  0  0  0  0  0  0  0  0  0  0  0
   38.7830   30.5120   38.4290 C   0  0  0  0  0  3  0  0  0  0  0  0
   38.5550   30.9430   39.7190 C   0  0  0  0  0  0  0  0  0  0  0  0
   37.6880   30.2550   40.5420 C   0  0  0  0  0  0  0  0  0  0  0  0
   37.5070   30.5800   41.5400 H   0  0  0  0  0  0  0  0  0  0  0  0
   37.0610   29.1260   40.0300 C   0  0  0  0  0  0  0  0  0  0  0  0
   36.1760   28.3100   40.6740 N   0  0  0  0  0  0  0  0  0  0  0  0
   35.8250   28.3980   41.6500 H   0  0  0  0  0  0  0  0  0  0  0  0
   35.8460   27.3510   39.7620 C   0  0  0  0  0  0  0  0  0  0  0  0
   35.1540   26.5170   39.9220 H   0  0  0  0  0  0  0  0  0  0  0  0
   36.5100   27.5590   38.5690 C   0  0  0  0  0  3  0  0  0  0  0  0
   37.2860   28.6880   38.7340 C   0  0  0  0  0  0  0  0  0  0  0  0
   38.1600   29.3890   37.9170 C   0  0  0  0  0  3  0  0  0  0  0  0
   42.6270   35.5640   40.9770 O   0  0  0  0  0  0  0  0  0  0  0  0
   43.8800   35.4530   41.5560 C   0  0  0  0  0  3  0  0  0  0  0  0
   43.9280   35.6050   42.8750 C   0  0  0  0  0  3  0  0  0  0  0  0
   45.1870   35.5200   43.7180 C   0  0  0  0  0  0  0  0  0  0  0  0
   46.0340   35.2100   43.0660 H   0  0  0  0  0  0  0  0  0  0  0  0
   45.4200   36.4980   44.1650 H   0  0  0  0  0  0  0  0  0  0  0  0
   44.9680   34.5650   44.6860 O   0  0  0  0  0  0  0  0  0  0  0  0
   45.5630   32.4670   43.1560 O   0  0  0  0  0  0  0  0  0  0  0  0
   45.9350   33.2090   44.4170 P   0  0  1  0  0  0  0  0  0  0  0  0
   47.5650   33.6790   44.2450 O   0  0  0  0  0  0  0  0  0  0  0  0
   48.1400   32.8970   44.4540 H   0  0  0  0  0  0  0  0  0  0  0  0
   45.8580   32.1720   45.7460 O   0  0  0  0  0  0  0  0  0  0  0  0
   45.9720   32.8480   46.9440 C   0  0  0  0  0  0  0  0  0  0  0  0
   46.8190   32.2590   48.0290 C   0  0  0  0  0  0  0  0  0  0  0  0
   45.3170   32.1720   48.1290 C   0  0  0  0  0  0  0  0  0  0  0  0
   46.0190   33.9560   46.9200 H   0  0  0  0  0  0  0  0  0  0  0  0
   47.3820   32.9070   48.7280 H   0  0  0  0  0  0  0  0  0  0  0  0
   47.2990   31.2940   47.7590 H   0  0  0  0  0  0  0  0  0  0  0  0
   44.8580   32.8450   48.8950 H   0  0  0  0  0  0  0  0  0  0  0  0
   44.8070   31.2090   47.9810 H   0  0  0  0  0  0  0  0  0  0  0  0
  1  2  1  0  0  0  0
  3  1  1  0  0  0  0
  4 10  1  0  0  0  0
  5  4  1  0  0  0  0
  5  1  1  0  0  0  0
  6  5  2  0  0  0  0
  7  8  2  0  0  0  0
  7  6  1  0  0  0  0
  8  9  1  0  0  0  0
  9  4  2  0  0  0  0
 11  6  1  0  0  0  0
 12 13  1  0  0  0  0
 13  8  1  0  0  0  0
 13 14  2  0  0  0  0
 14 15  1  0  0  0  0
 16 14  1  0  0  0  0
 16 17  1  0  0  0  0
 17 18  1  0  0  0  0
 19 20  1  0  0  0  0
 19 17  1  0  0  0  0
 21 22  1  0  0  0  0
 21 19  2  0  0  0  0
 22 16  2  0  0  0  0
 23 12  2  0  0  0  0
 23 22  1  0  0  0  0
 24 25  1  0  0  0  0
 24  1  1  0  0  0  0
 25 26  2  0  0  0  0
 26 27  1  0  0  0  0
 27 29  1  0  0  0  0
 27 30  1  0  0  0  0
 28 27  1  0  0  0  0
 32 31  2  6  0  0  0
 32 30  1  0  0  0  0
 32 35  1  0  0  0  0
 33 32  1  0  0  0  0
 33 34  1  0  0  0  0
 35 36  1  0  0  0  0
 36 37  1  0  0  0  0
 36 38  1  0  0  0  0
 37 38  1  0  0  0  0
 37 40  1  0  0  0  0
 38 42  1  0  0  0  0
 39 36  1  0  0  0  0
 41 37  1  0  0  0  0
 43 38  1  0  0  0  0
M  END
>  <minimizedAffinity>
-5.52870178

>  <minimizedRMSD>
1.36911142

$$$$
