
 OpenBabel03242516523D

 48 52  0  0  1  0  0  0  0  0999 V2000
   47.8200   32.8770   41.7840 C   0  0  1  0  0  0  0  0  0  0  0  0
   47.5070   32.2740   40.4880 C   0  0  0  0  0  0  0  0  0  0  0  0
   48.5490   32.8220   39.5110 C   0  0  0  0  0  0  0  0  0  0  0  0
   48.2050   34.2910   39.3080 C   0  0  0  0  0  0  0  0  0  0  0  0
   48.1450   35.0770   40.5820 C   0  0  0  0  0  0  0  0  0  0  0  0
   47.6210   34.3970   41.7740 C   0  0  1  0  0  0  0  0  0  0  0  0
   48.9370   32.7890   41.9580 H   0  0  0  0  0  0  0  0  0  0  0  0
   47.6670   31.1830   40.5370 H   0  0  0  0  0  0  0  0  0  0  0  0
   46.5050   32.5230   40.0820 H   0  0  0  0  0  0  0  0  0  0  0  0
   49.5440   32.8000   40.0070 H   0  0  0  0  0  0  0  0  0  0  0  0
   48.5110   32.3350   38.5380 H   0  0  0  0  0  0  0  0  0  0  0  0
   47.1760   34.3100   38.8840 H   0  0  0  0  0  0  0  0  0  0  0  0
   48.8840   34.7880   38.6090 H   0  0  0  0  0  0  0  0  0  0  0  0
   49.1720   35.4730   40.7660 H   0  0  0  0  0  0  0  0  0  0  0  0
   47.5350   35.9930   40.3630 H   0  0  0  0  0  0  0  0  0  0  0  0
   48.2020   34.7530   42.6790 H   0  0  0  0  0  0  0  0  0  0  0  0
   45.3620   30.9040   43.8690 C   0  0  0  0  0  0  0  0  0  0  0  0
   46.0570   31.4790   42.8020 C   0  0  0  0  0  0  0  0  0  0  0  0
   47.1640   32.3190   42.9470 C   0  0  0  0  0  0  0  0  0  0  0  0
   47.5390   32.5530   44.2040 N   0  0  0  0  0  0  0  0  0  0  0  0
   46.8820   32.0080   45.2620 C   0  0  0  0  0  0  0  0  0  0  0  0
   45.8270   31.2080   45.1120 N   0  0  0  0  0  0  0  0  0  0  0  0
   44.5200   30.2720   43.6220 H   0  0  0  0  0  0  0  0  0  0  0  0
   45.7400   31.2760   41.7880 H   0  0  0  0  0  0  0  0  0  0  0  0
   47.1510   32.1700   46.2890 H   0  0  0  0  0  0  0  0  0  0  0  0
   46.2390   34.7660   42.0780 C   0  0  0  0  0  0  0  0  0  0  0  0
   45.7880   35.3240   43.2860 C   0  0  0  0  0  0  0  0  0  0  0  0
   44.4280   35.6090   43.3470 C   0  0  0  0  0  0  0  0  0  0  0  0
   43.6470   35.3310   42.2430 C   0  0  0  0  0  0  0  0  0  0  0  0
   44.1110   34.7800   41.0580 C   0  0  0  0  0  0  0  0  0  0  0  0
   45.4510   34.5020   41.0100 N   0  0  0  0  0  0  0  0  0  0  0  0
   46.5100   35.4780   44.0420 H   0  0  0  0  0  0  0  0  0  0  0  0
   44.0590   36.0350   44.2540 H   0  0  0  0  0  0  0  0  0  0  0  0
   42.5850   35.5560   42.2950 H   0  0  0  0  0  0  0  0  0  0  0  0
   43.2100   34.5260   39.9400 C   0  0  0  0  0  0  0  0  0  0  0  0
   42.2560   35.3420   39.7690 O   0  0  0  0  0  0  0  0  0  0  0  0
   44.4540   33.1520   38.3610 C   0  0  0  0  0  3  0  0  0  0  0  0
   43.2480   33.4420   38.9660 C   0  0  0  0  0  0  0  0  0  0  0  0
   42.1520   32.6860   38.6060 C   0  0  0  0  0  0  0  0  0  0  0  0
   41.2420   32.9490   39.1000 H   0  0  0  0  0  0  0  0  0  0  0  0
   42.1820   31.6600   37.6850 C   0  0  0  0  0  0  0  0  0  0  0  0
   41.2780   30.8020   37.1790 N   0  0  0  0  0  0  0  0  0  0  0  0
   40.2690   30.7750   37.4450 H   0  0  0  0  0  0  0  0  0  0  0  0
   41.9010   29.9920   36.2780 C   0  0  0  0  0  0  0  0  0  0  0  0
   41.4560   29.1840   35.6870 H   0  0  0  0  0  0  0  0  0  0  0  0
   43.2520   30.3390   36.2010 C   0  0  0  0  0  3  0  0  0  0  0  0
   43.4060   31.3950   37.0970 C   0  0  0  0  0  0  0  0  0  0  0  0
   44.5350   32.1200   37.4180 C   0  0  0  0  0  3  0  0  0  0  0  0
  1  7  1  1  0  0  0
  1 19  1  0  0  0  0
  2  8  1  0  0  0  0
  2  1  1  0  0  0  0
  3 10  1  0  0  0  0
  3  2  1  0  0  0  0
  4  3  1  0  0  0  0
  4  5  1  0  0  0  0
  5 14  1  0  0  0  0
  5  6  1  0  0  0  0
  6  1  1  0  0  0  0
  6 26  1  0  0  0  0
  6 16  1  1  0  0  0
  9  2  1  0  0  0  0
 11  3  1  0  0  0  0
 12  4  1  0  0  0  0
 13  4  1  0  0  0  0
 15  5  1  0  0  0  0
 17 22  1  0  0  0  0
 18 19  1  0  0  0  0
 18 17  2  0  0  0  0
 19 20  2  0  0  0  0
 20 21  1  0  0  0  0
 21 25  1  0  0  0  0
 22 21  2  0  0  0  0
 23 17  1  0  0  0  0
 24 18  1  0  0  0  0
 26 27  1  0  0  0  0
 27 28  2  0  0  0  0
 27 32  1  0  0  0  0
 28 33  1  0  0  0  0
 29 34  1  0  0  0  0
 29 28  1  0  0  0  0
 30 29  2  0  0  0  0
 31 30  1  0  0  0  0
 31 26  2  0  0  0  0
 35 30  1  0  0  0  0
 36 35  2  0  0  0  0
 37 38  1  0  0  0  0
 38 35  1  0  0  0  0
 39 38  2  0  0  0  0
 39 40  1  0  0  0  0
 41 39  1  0  0  0  0
 42 43  1  0  0  0  0
 42 41  1  0  0  0  0
 44 42  1  0  0  0  0
 45 44  1  0  0  0  0
 46 44  2  0  0  0  0
 46 47  1  0  0  0  0
 47 48  1  0  0  0  0
 47 41  2  0  0  0  0
 48 37  2  0  0  0  0
M  END
>  <minimizedAffinity>
-5.86055565

>  <minimizedRMSD>
0.739958644

$$$$
