
 OpenBabel03252504323D

 43 46  0  0  0  0  0  0  0  0999 V2000
   41.6330   35.6410   41.1850 C   0  0  0  0  0  0  0  0  0  0  0  0
   41.5550   35.7240   42.3080 H   0  0  0  0  0  0  0  0  0  0  0  0
   41.1740   36.5780   40.8070 H   0  0  0  0  0  0  0  0  0  0  0  0
   41.0790   33.2580   41.2780 C   0  0  0  0  0  0  0  0  0  0  0  0
   40.6600   34.5450   40.8600 C   0  0  0  0  0  0  0  0  0  0  0  0
   39.4630   34.6440   40.2380 C   0  0  0  0  0  0  0  0  0  0  0  0
   38.7730   33.5270   40.0670 N   0  0  0  0  0  0  0  0  0  0  0  0
   39.1500   32.3180   40.4520 C   0  0  0  0  0  0  0  0  0  0  0  0
   40.3710   32.1380   41.0990 N   0  0  0  0  0  0  0  0  0  0  0  0
   42.0210   33.0900   41.7820 H   0  0  0  0  0  0  0  0  0  0  0  0
   39.1870   35.6450   39.9370 H   0  0  0  0  0  0  0  0  0  0  0  0
   37.4900   30.7320   41.2450 C   0  0  0  0  0  3  0  0  0  0  0  0
   38.3360   31.1300   40.2300 C   0  0  0  0  0  0  0  0  0  0  0  0
   38.3980   30.4160   39.0510 C   0  0  0  0  0  0  0  0  0  0  0  0
   39.0480   30.7160   38.2640 H   0  0  0  0  0  0  0  0  0  0  0  0
   37.5860   29.2950   38.9250 C   0  0  0  0  0  0  0  0  0  0  0  0
   37.4970   28.4590   37.8500 N   0  0  0  0  0  0  0  0  0  0  0  0
   38.0190   28.5220   36.9520 H   0  0  0  0  0  0  0  0  0  0  0  0
   36.5750   27.5200   38.2050 C   0  0  0  0  0  0  0  0  0  0  0  0
   36.2390   26.6770   37.5900 H   0  0  0  0  0  0  0  0  0  0  0  0
   36.0940   27.7590   39.4770 C   0  0  0  0  0  3  0  0  0  0  0  0
   36.7340   28.8910   39.9410 C   0  0  0  0  0  0  0  0  0  0  0  0
   36.6820   29.6170   41.1210 C   0  0  0  0  0  3  0  0  0  0  0  0
   42.8640   35.4390   40.6590 O   0  0  0  0  0  0  0  0  0  0  0  0
   44.0760   35.3240   41.3190 C   0  0  0  0  0  3  0  0  0  0  0  0
   44.0570   35.5840   42.6210 C   0  0  0  0  0  3  0  0  0  0  0  0
   45.2620   35.5180   43.5420 C   0  0  0  0  0  0  0  0  0  0  0  0
   46.1490   35.2000   42.9490 H   0  0  0  0  0  0  0  0  0  0  0  0
   45.4650   36.5040   43.9860 H   0  0  0  0  0  0  0  0  0  0  0  0
   44.9860   34.5780   44.5100 O   0  0  0  0  0  0  0  0  0  0  0  0
   45.6280   32.4160   43.0920 O   0  0  0  0  0  0  0  0  0  0  0  0
   45.9710   33.2200   44.3230 P   0  0  1  0  0  0  0  0  0  0  0  0
   47.5990   33.6980   44.1580 O   0  0  0  0  0  0  0  0  0  0  0  0
   48.1770   32.9320   44.4130 H   0  0  0  0  0  0  0  0  0  0  0  0
   45.8790   32.2460   45.6980 O   0  0  0  0  0  0  0  0  0  0  0  0
   46.1970   32.9370   46.8500 C   0  0  0  0  0  0  0  0  0  0  0  0
   47.1400   32.3110   47.8310 C   0  0  0  0  0  0  0  0  0  0  0  0
   45.6620   32.3340   48.1300 C   0  0  0  0  0  0  0  0  0  0  0  0
   46.3160   34.0370   46.7870 H   0  0  0  0  0  0  0  0  0  0  0  0
   47.8330   32.9310   48.4310 H   0  0  0  0  0  0  0  0  0  0  0  0
   47.5120   31.3090   47.5290 H   0  0  0  0  0  0  0  0  0  0  0  0
   45.3560   33.0530   48.9290 H   0  0  0  0  0  0  0  0  0  0  0  0
   45.0720   31.4070   48.0790 H   0  0  0  0  0  0  0  0  0  0  0  0
  1  2  1  0  0  0  0
  3  1  1  0  0  0  0
  4 10  1  0  0  0  0
  5  1  1  0  0  0  0
  5  4  2  0  0  0  0
  6  5  1  0  0  0  0
  7  6  2  0  0  0  0
  7  8  1  0  0  0  0
  8  9  2  0  0  0  0
  9  4  1  0  0  0  0
 11  6  1  0  0  0  0
 13  8  1  0  0  0  0
 13 12  2  0  0  0  0
 14 13  1  0  0  0  0
 15 14  1  0  0  0  0
 16 14  2  0  0  0  0
 16 22  1  0  0  0  0
 17 19  1  0  0  0  0
 17 16  1  0  0  0  0
 18 17  1  0  0  0  0
 19 21  2  0  0  0  0
 20 19  1  0  0  0  0
 21 22  1  0  0  0  0
 22 23  2  0  0  0  0
 23 12  1  0  0  0  0
 24  1  1  0  0  0  0
 24 25  1  0  0  0  0
 25 26  2  0  0  0  0
 26 27  1  0  0  0  0
 27 29  1  0  0  0  0
 27 30  1  0  0  0  0
 28 27  1  0  0  0  0
 32 31  2  6  0  0  0
 32 30  1  0  0  0  0
 32 35  1  0  0  0  0
 33 32  1  0  0  0  0
 33 34  1  0  0  0  0
 35 36  1  0  0  0  0
 36 37  1  0  0  0  0
 36 38  1  0  0  0  0
 37 38  1  0  0  0  0
 37 40  1  0  0  0  0
 38 42  1  0  0  0  0
 39 36  1  0  0  0  0
 41 37  1  0  0  0  0
 43 38  1  0  0  0  0
M  END
>  <minimizedAffinity>
-5.56181574

>  <minimizedRMSD>
0.959731519

$$$$
