
 OpenBabel03242516523D

 48 52  0  0  1  0  0  0  0  0999 V2000
   47.8230   32.8460   41.6970 C   0  0  1  0  0  0  0  0  0  0  0  0
   47.4560   32.1800   40.4460 C   0  0  0  0  0  0  0  0  0  0  0  0
   48.4830   32.6450   39.4110 C   0  0  0  0  0  0  0  0  0  0  0  0
   48.1700   34.1080   39.1350 C   0  0  0  0  0  0  0  0  0  0  0  0
   48.1690   34.9660   40.3640 C   0  0  0  0  0  0  0  0  0  0  0  0
   47.6630   34.3670   41.6070 C   0  0  1  0  0  0  0  0  0  0  0  0
   48.9420   32.7370   41.8440 H   0  0  0  0  0  0  0  0  0  0  0  0
   47.5910   31.0890   40.5510 H   0  0  0  0  0  0  0  0  0  0  0  0
   46.4500   32.4330   40.0540 H   0  0  0  0  0  0  0  0  0  0  0  0
   49.4910   32.6240   39.8790 H   0  0  0  0  0  0  0  0  0  0  0  0
   48.4040   32.1060   38.4680 H   0  0  0  0  0  0  0  0  0  0  0  0
   47.1310   34.1320   38.7390 H   0  0  0  0  0  0  0  0  0  0  0  0
   48.8410   34.5480   38.3900 H   0  0  0  0  0  0  0  0  0  0  0  0
   49.2100   35.3440   40.4970 H   0  0  0  0  0  0  0  0  0  0  0  0
   47.5760   35.8840   40.1110 H   0  0  0  0  0  0  0  0  0  0  0  0
   48.2790   34.7570   42.4730 H   0  0  0  0  0  0  0  0  0  0  0  0
   45.4110   31.0140   43.9570 C   0  0  0  0  0  0  0  0  0  0  0  0
   46.0860   31.5140   42.8410 C   0  0  0  0  0  0  0  0  0  0  0  0
   47.1880   32.3700   42.9070 C   0  0  0  0  0  0  0  0  0  0  0  0
   47.5780   32.7010   44.1380 N   0  0  0  0  0  0  0  0  0  0  0  0
   46.9400   32.2310   45.2420 C   0  0  0  0  0  0  0  0  0  0  0  0
   45.8900   31.4140   45.1680 N   0  0  0  0  0  0  0  0  0  0  0  0
   44.5720   30.3590   43.7690 H   0  0  0  0  0  0  0  0  0  0  0  0
   45.7570   31.2330   41.8490 H   0  0  0  0  0  0  0  0  0  0  0  0
   47.2210   32.4720   46.2500 H   0  0  0  0  0  0  0  0  0  0  0  0
   46.3000   34.7890   41.9280 C   0  0  0  0  0  0  0  0  0  0  0  0
   45.9100   35.4810   43.0870 C   0  0  0  0  0  0  0  0  0  0  0  0
   44.5570   35.7940   43.1750 C   0  0  0  0  0  0  0  0  0  0  0  0
   43.7250   35.4120   42.1420 C   0  0  0  0  0  0  0  0  0  0  0  0
   44.1290   34.7290   41.0050 C   0  0  0  0  0  0  0  0  0  0  0  0
   45.4620   34.4250   40.9290 N   0  0  0  0  0  0  0  0  0  0  0  0
   46.6660   35.7040   43.7900 H   0  0  0  0  0  0  0  0  0  0  0  0
   44.2340   36.3210   44.0460 H   0  0  0  0  0  0  0  0  0  0  0  0
   42.6690   35.6590   42.2150 H   0  0  0  0  0  0  0  0  0  0  0  0
   43.1760   34.3710   39.9610 C   0  0  0  0  0  0  0  0  0  0  0  0
   42.5770   35.3210   39.3740 O   0  0  0  0  0  0  0  0  0  0  0  0
   43.0620   32.7340   38.1620 C   0  0  0  0  0  3  0  0  0  0  0  0
   42.8030   33.0460   39.4810 C   0  0  0  0  0  0  0  0  0  0  0  0
   42.2040   32.0800   40.2640 C   0  0  0  0  0  0  0  0  0  0  0  0
   42.0240   32.3700   41.2770 H   0  0  0  0  0  0  0  0  0  0  0  0
   41.8480   30.8250   39.8160 C   0  0  0  0  0  0  0  0  0  0  0  0
   41.2710   29.7420   40.3650 N   0  0  0  0  0  0  0  0  0  0  0  0
   40.9590   29.6730   41.3590 H   0  0  0  0  0  0  0  0  0  0  0  0
   41.1700   28.7720   39.4140 C   0  0  0  0  0  0  0  0  0  0  0  0
   40.7480   27.7660   39.5280 H   0  0  0  0  0  0  0  0  0  0  0  0
   41.6990   29.2460   38.2110 C   0  0  0  0  0  3  0  0  0  0  0  0
   42.1210   30.5440   38.4890 C   0  0  0  0  0  0  0  0  0  0  0  0
   42.7180   31.4720   37.6610 C   0  0  0  0  0  3  0  0  0  0  0  0
  1  7  1  1  0  0  0
  1 19  1  0  0  0  0
  2  8  1  0  0  0  0
  2  1  1  0  0  0  0
  3 10  1  0  0  0  0
  3  2  1  0  0  0  0
  4  3  1  0  0  0  0
  4  5  1  0  0  0  0
  5 14  1  0  0  0  0
  5  6  1  0  0  0  0
  6  1  1  0  0  0  0
  6 26  1  0  0  0  0
  6 16  1  1  0  0  0
  9  2  1  0  0  0  0
 11  3  1  0  0  0  0
 12  4  1  0  0  0  0
 13  4  1  0  0  0  0
 15  5  1  0  0  0  0
 17 22  1  0  0  0  0
 18 19  1  0  0  0  0
 18 17  2  0  0  0  0
 19 20  2  0  0  0  0
 20 21  1  0  0  0  0
 21 25  1  0  0  0  0
 22 21  2  0  0  0  0
 23 17  1  0  0  0  0
 24 18  1  0  0  0  0
 26 27  1  0  0  0  0
 27 28  2  0  0  0  0
 27 32  1  0  0  0  0
 28 33  1  0  0  0  0
 29 34  1  0  0  0  0
 29 28  1  0  0  0  0
 30 29  2  0  0  0  0
 31 30  1  0  0  0  0
 31 26  2  0  0  0  0
 35 30  1  0  0  0  0
 36 35  2  0  0  0  0
 37 38  1  0  0  0  0
 38 35  1  0  0  0  0
 38 39  2  0  0  0  0
 39 40  1  0  0  0  0
 41 39  1  0  0  0  0
 41 42  1  0  0  0  0
 42 43  1  0  0  0  0
 44 45  1  0  0  0  0
 44 42  1  0  0  0  0
 46 47  1  0  0  0  0
 46 44  2  0  0  0  0
 47 41  2  0  0  0  0
 48 37  2  0  0  0  0
 48 47  1  0  0  0  0
M  END
>  <minimizedAffinity>
-5.43808079

>  <minimizedRMSD>
0.778463304

$$$$
