
     RDKit          3D

 35 38  0  0  0  0  0  0  0  0999 V2000
   45.2699   36.1638   43.1726 C   0  0  0  0  0  0  0  0  0  0  0  0
   45.8641   34.9143   42.9081 C   0  0  0  0  0  0  0  0  0  0  0  0
   45.8250   33.9464   43.8941 C   0  0  0  0  0  0  0  0  0  0  0  0
   45.2263   34.2306   45.0597 N   0  0  0  0  0  0  0  0  0  0  0  0
   44.6491   35.4383   45.3223 C   0  0  0  0  0  0  0  0  0  0  0  0
   44.6865   36.3764   44.3674 N   0  0  0  0  0  0  0  0  0  0  0  0
   46.4364   32.6528   43.6287 C   0  0  0  0  0  0  0  0  0  0  0  0
   45.6684   31.5677   43.2961 C   0  0  0  0  0  0  0  0  0  0  0  0
   46.2687   30.3603   43.0500 C   0  0  0  0  0  0  0  0  0  0  0  0
   47.6596   30.1903   43.1265 C   0  0  0  0  0  0  0  0  0  0  0  0
   48.3853   31.3116   43.4641 C   0  0  0  0  0  0  0  0  0  0  0  0
   47.7731   32.4880   43.7016 N   0  0  0  0  0  0  0  0  0  0  0  0
   46.4873   34.6840   41.6355 C   0  0  0  0  0  0  0  0  0  0  0  0
   47.6701   35.1336   41.4824 O   0  0  0  0  0  0  0  0  0  0  0  0
   45.2642   36.9675   42.4472 H   0  0  0  0  0  0  0  0  0  0  0  0
   44.2212   35.4705   46.3146 H   0  0  0  0  0  0  0  0  0  0  0  0
   44.6048   31.6119   43.2166 H   0  0  0  0  0  0  0  0  0  0  0  0
   45.7380   29.4490   42.7810 H   0  0  0  0  0  0  0  0  0  0  0  0
   48.2347   29.2917   42.9558 H   0  0  0  0  0  0  0  0  0  0  0  0
   49.4745   31.3994   43.5775 H   0  0  0  0  0  0  0  0  0  0  0  0
   46.6642   33.6104   39.4038 C   0  0  0  0  0  0  0  0  0  0  0  0
   45.9082   33.9869   40.4959 C   0  0  0  0  0  0  0  0  0  0  0  0
   44.5361   33.7264   40.5738 C   0  0  0  0  0  0  0  0  0  0  0  0
   43.9387   34.0199   41.4270 H   0  0  0  0  0  0  0  0  0  0  0  0
   43.9465   33.0634   39.4956 C   0  0  0  0  0  0  0  0  0  0  0  0
   42.6568   32.6771   39.2835 N   0  0  0  0  0  0  0  0  0  0  0  0
   41.8287   32.8080   39.9115 H   0  0  0  0  0  0  0  0  0  0  0  0
   42.6032   32.0667   38.0752 C   0  0  0  0  0  0  0  0  0  0  0  0
   41.7119   31.6479   37.6228 H   0  0  0  0  0  0  0  0  0  0  0  0
   43.8785   32.0576   37.4961 C   0  0  0  0  0  0  0  0  0  0  0  0
   44.7309   32.6939   38.4054 C   0  0  0  0  0  0  0  0  0  0  0  0
   46.0899   32.9571   38.3390 C   0  0  0  0  0  0  0  0  0  0  0  0
   47.7286   33.8588   39.4368 H   0  0  0  0  0  0  0  0  0  0  0  0
   44.1986   31.6546   36.5406 H   0  0  0  0  0  0  0  0  0  0  0  0
   46.7031   32.6719   37.4953 H   0  0  0  0  0  0  0  0  0  0  0  0
  1  6  2  0
  2  1  1  0
  2  3  2  0
  3  4  1  0
  4  5  2  0
  6  5  1  0
  7 12  1  0
  7  3  1  0
  8  7  2  0
  9 10  2  0
  9  8  1  0
 10 11  1  0
 11 12  2  0
 13  2  1  0
 14 13  2  0
  1 15  1  0
  5 16  1  0
  8 17  1  0
  9 18  1  0
 10 19  1  0
 11 20  1  0
 21 22  2  0
 22 23  1  0
 23 24  1  0
 23 25  2  0
 25 26  1  0
 26 27  1  0
 26 28  1  0
 28 29  1  0
 28 30  2  0
 30 31  1  0
 31 32  2  0
 32 21  1  0
 31 25  1  0
 21 33  1  0
 30 34  1  0
 32 35  1  0
 13 22  1  0
M  ISO  8  15  14  16  14  17  14  18  14  19  14  20  14  24  15  27   5
M  ISO  1  29  14
M  END
>  <DihAtoms>  (1) 
1,12,21,20

>  <DihDeg>  (1) 
-153.30387367764507

$$$$
