
 OpenBabel03252507593D

 32 35  0  0  1  0  0  0  0  0999 V2000
   46.0140   34.6530   43.4330 C   0  0  0  0  0  0  0  0  0  0  0  0
   45.1410   35.6890   43.9010 C   0  0  0  0  0  0  0  0  0  0  0  0
   44.6120   35.5210   45.1980 C   0  0  0  0  0  0  0  0  0  0  0  0
   44.9570   34.4150   45.9000 N   0  0  0  0  0  0  0  0  0  0  0  0
   45.7960   33.4770   45.3750 C   0  0  0  0  0  0  0  0  0  0  0  0
   46.3280   33.5660   44.1720 N   0  0  0  0  0  0  0  0  0  0  0  0
   44.8870   36.5590   43.3150 H   0  0  0  0  0  0  0  0  0  0  0  0
   43.9570   36.2970   45.5550 H   0  0  0  0  0  0  0  0  0  0  0  0
   46.1310   32.2870   46.2290 C   0  0  1  0  0  0  0  0  0  0  0  0
   47.0540   32.4740   47.4120 C   0  0  0  0  0  0  0  0  0  0  0  0
   45.5660   32.3170   47.5950 C   0  0  1  0  0  0  0  0  0  0  0  0
   46.1680   31.2990   45.7220 H   0  0  0  0  0  0  0  0  0  0  0  0
   47.5310   33.4740   47.4110 H   0  0  0  0  0  0  0  0  0  0  0  0
   47.7200   31.6360   47.6170 H   0  0  0  0  0  0  0  0  0  0  0  0
   45.2650   31.4280   48.1440 H   0  0  0  0  0  0  0  0  0  0  0  0
   44.9490   33.5630   48.0870 N   0  0  0  0  0  0  0  0  0  0  0  0
   43.9310   33.5050   48.1570 H   0  0  0  0  0  0  0  0  0  0  0  0
   45.4850   33.8330   48.9160 H   0  0  0  0  0  0  0  0  0  0  0  0
   46.5080   34.9260   42.1160 C   0  0  0  0  0  0  0  0  0  0  0  0
   47.6170   35.5220   41.8740 O   0  0  0  0  0  0  0  0  0  0  0  0
   45.6270   33.4310   40.1850 C   0  0  0  0  0  3  0  0  0  0  0  0
   45.5620   34.4310   41.1270 C   0  0  0  0  0  0  0  0  0  0  0  0
   44.3470   35.1250   41.2430 C   0  0  0  0  0  0  0  0  0  0  0  0
   44.1620   35.9320   41.9450 H   0  0  0  0  0  0  0  0  0  0  0  0
   43.2470   34.8390   40.4630 C   0  0  0  0  0  0  0  0  0  0  0  0
   41.9830   35.3520   40.3970 N   0  0  0  0  0  0  0  0  0  0  0  0
   41.6060   36.1290   40.9860 H   0  0  0  0  0  0  0  0  0  0  0  0
   41.2940   34.6920   39.4490 C   0  0  0  0  0  0  0  0  0  0  0  0
   40.2710   34.8530   39.1450 H   0  0  0  0  0  0  0  0  0  0  0  0
   42.1100   33.7170   38.8690 C   0  0  0  0  0  3  0  0  0  0  0  0
   43.3250   33.8320   39.5220 C   0  0  0  0  0  0  0  0  0  0  0  0
   44.5340   33.1490   39.4100 C   0  0  0  0  0  3  0  0  0  0  0  0
  1  2  2  0  0  0  0
  1  6  1  0  0  0  0
  2  3  1  0  0  0  0
  3  8  1  0  0  0  0
  3  4  2  0  0  0  0
  5  4  1  0  0  0  0
  5  9  1  0  0  0  0
  6  5  2  0  0  0  0
  7  2  1  0  0  0  0
  9 12  1  6  0  0  0
  9 10  1  0  0  0  0
  9 11  1  0  0  0  0
 10 11  1  0  0  0  0
 10 14  1  0  0  0  0
 11 16  1  0  0  0  0
 11 15  1  1  0  0  0
 13 10  1  0  0  0  0
 16 17  1  0  0  0  0
 16 18  1  0  0  0  0
 19  1  1  0  0  0  0
 20 19  2  0  0  0  0
 21 22  1  0  0  0  0
 22 23  2  0  0  0  0
 22 19  1  0  0  0  0
 23 24  1  0  0  0  0
 25 23  1  0  0  0  0
 26 25  1  0  0  0  0
 26 27  1  0  0  0  0
 28 26  1  0  0  0  0
 29 28  1  0  0  0  0
 30 28  2  0  0  0  0
 30 31  1  0  0  0  0
 31 25  2  0  0  0  0
 32 31  1  0  0  0  0
 32 21  2  0  0  0  0
M  END
>  <minimizedAffinity>
-6.31502676

>  <minimizedRMSD>
0.775193989

$$$$
