
 OpenBabel03242515443D

 41 45  0  0  0  0  0  0  0  0999 V2000
   36.1880   29.9220   38.8800 C   0  0  0  0  0  0  0  0  0  0  0  0
   37.0330   30.8990   38.5000 C   0  0  0  0  0  0  0  0  0  0  0  0
   37.3360   30.9700   37.1200 C   0  0  0  0  0  0  0  0  0  0  0  0
   36.7880   30.0770   36.2580 N   0  0  0  0  0  0  0  0  0  0  0  0
   35.9460   29.1090   36.6970 C   0  0  0  0  0  0  0  0  0  0  0  0
   35.6940   29.0890   37.9850 N   0  0  0  0  0  0  0  0  0  0  0  0
   37.6320   33.2770   39.4990 C   0  0  0  0  0  3  0  0  0  0  0  0
   37.8110   31.9820   39.0780 C   0  0  0  0  0  0  0  0  0  0  0  0
   39.1190   31.4700   39.2240 C   0  0  0  0  0  0  0  0  0  0  0  0
   39.5190   30.4820   38.9700 H   0  0  0  0  0  0  0  0  0  0  0  0
   40.1620   32.2370   39.7660 C   0  0  0  0  0  0  0  0  0  0  0  0
   41.4690   32.0820   40.0410 N   0  0  0  0  0  0  0  0  0  0  0  0
   41.9920   31.2000   39.8560 H   0  0  0  0  0  0  0  0  0  0  0  0
   41.9960   33.1920   40.5750 C   0  0  0  0  0  0  0  0  0  0  0  0
   43.0310   33.3100   40.8810 H   0  0  0  0  0  0  0  0  0  0  0  0
   41.0190   34.1610   40.6770 C   0  0  0  0  0  3  0  0  0  0  0  0
   39.9010   33.5370   40.1690 C   0  0  0  0  0  0  0  0  0  0  0  0
   38.6320   34.0340   40.0260 C   0  0  0  0  0  3  0  0  0  0  0  0
   38.1820   31.9740   36.5650 N   0  0  0  0  0  0  0  0  0  0  0  0
   37.7560   32.8180   36.1460 H   0  0  0  0  0  0  0  0  0  0  0  0
   39.2210   31.8580   36.5830 H   0  0  0  0  0  0  0  0  0  0  0  0
   35.8310   29.8880   40.6530 S   0  0  0  0  0  0  0  0  0  0  0  0
   38.0090   29.6950   42.1780 C   0  0  0  0  0  0  0  0  0  0  0  0
   37.0330   28.9220   41.5260 C   0  0  0  0  0  0  0  0  0  0  0  0
   37.0350   27.5380   41.6170 C   0  0  0  0  0  0  0  0  0  0  0  0
   37.9970   26.8910   42.3510 C   0  0  0  0  0  0  0  0  0  0  0  0
   38.9750   27.6420   43.0070 C   0  0  0  0  0  0  0  0  0  0  0  0
   38.9970   29.0310   42.9320 C   0  0  0  0  0  0  0  0  0  0  0  0
   39.8290   26.7420   43.6800 O   0  0  0  0  0  0  0  0  0  0  0  0
   39.5580   25.4830   43.1620 C   0  0  0  0  0  0  0  0  0  0  0  0
   38.2500   25.5570   42.6270 O   0  0  0  0  0  0  0  0  0  0  0  0
   38.0530   30.7750   42.1400 H   0  0  0  0  0  0  0  0  0  0  0  0
   36.2590   27.0190   41.0890 H   0  0  0  0  0  0  0  0  0  0  0  0
   39.7440   29.6330   43.4290 H   0  0  0  0  0  0  0  0  0  0  0  0
   39.6590   24.6910   43.9250 H   0  0  0  0  0  0  0  0  0  0  0  0
   40.2320   25.2020   42.3280 H   0  0  0  0  0  0  0  0  0  0  0  0
   35.3470   28.1590   35.9120 O   0  0  0  0  0  0  0  0  0  0  0  0
   33.9960   28.3440   35.5650 C   0  0  0  0  0  0  0  0  0  0  0  0
   33.6560   29.6720   35.5410 F   0  0  0  0  0  0  0  0  0  0  0  0
   33.8150   27.7420   34.3110 F   0  0  0  0  0  0  0  0  0  0  0  0
   33.2120   27.7230   36.5170 F   0  0  0  0  0  0  0  0  0  0  0  0
  1 22  1  0  0  0  0
  2  1  1  0  0  0  0
  2  8  1  0  0  0  0
  3  2  2  0  0  0  0
  4  5  2  0  0  0  0
  4  3  1  0  0  0  0
  5  6  1  0  0  0  0
  6  1  2  0  0  0  0
  7 18  1  0  0  0  0
  8  9  1  0  0  0  0
  8  7  2  0  0  0  0
  9 11  2  0  0  0  0
 10  9  1  0  0  0  0
 11 12  1  0  0  0  0
 11 17  1  0  0  0  0
 12 14  1  0  0  0  0
 13 12  1  0  0  0  0
 14 16  2  0  0  0  0
 14 15  1  0  0  0  0
 17 16  1  0  0  0  0
 18 17  2  0  0  0  0
 19 21  1  0  0  0  0
 19  3  1  0  0  0  0
 20 19  1  0  0  0  0
 22 24  1  0  0  0  0
 23 28  1  0  0  0  0
 24 25  1  0  0  0  0
 24 23  2  0  0  0  0
 25 26  2  0  0  0  0
 26 31  1  0  0  0  0
 26 27  1  0  0  0  0
 27 29  1  0  0  0  0
 28 27  2  0  0  0  0
 28 34  1  0  0  0  0
 30 29  1  0  0  0  0
 30 35  1  0  0  0  0
 31 30  1  0  0  0  0
 32 23  1  0  0  0  0
 33 25  1  0  0  0  0
 36 30  1  0  0  0  0
 37  5  1  0  0  0  0
 38 37  1  0  0  0  0
 38 41  1  0  0  0  0
 39 38  1  0  0  0  0
 40 38  1  0  0  0  0
M  END
>  <minimizedAffinity>
-6.77341986

$$$$

 OpenBabel03242515443D

 41 45  0  0  0  0  0  0  0  0999 V2000
   38.3350   31.2050   41.0990 C   0  0  0  0  0  0  0  0  0  0  0  0
   38.6710   30.0620   41.7260 C   0  0  0  0  0  0  0  0  0  0  0  0
   40.0220   29.9340   42.1230 C   0  0  0  0  0  0  0  0  0  0  0  0
   40.9040   30.9310   41.8610 N   0  0  0  0  0  0  0  0  0  0  0  0
   40.5110   32.0600   41.2220 C   0  0  0  0  0  0  0  0  0  0  0  0
   39.2460   32.1320   40.8780 N   0  0  0  0  0  0  0  0  0  0  0  0
   37.3720   28.3070   43.2240 C   0  0  0  0  0  3  0  0  0  0  0  0
   38.0680   28.8100   42.1520 C   0  0  0  0  0  0  0  0  0  0  0  0
   38.3030   27.9000   41.0990 C   0  0  0  0  0  0  0  0  0  0  0  0
   38.8260   28.0470   40.1470 H   0  0  0  0  0  0  0  0  0  0  0  0
   37.8530   26.5710   41.1480 C   0  0  0  0  0  0  0  0  0  0  0  0
   37.8950   25.4790   40.3650 N   0  0  0  0  0  0  0  0  0  0  0  0
   38.3560   25.4620   39.4310 H   0  0  0  0  0  0  0  0  0  0  0  0
   37.2760   24.4380   40.9370 C   0  0  0  0  0  0  0  0  0  0  0  0
   37.1790   23.4490   40.4990 H   0  0  0  0  0  0  0  0  0  0  0  0
   36.7830   24.8160   42.1690 C   0  0  0  0  0  3  0  0  0  0  0  0
   37.1570   26.1400   42.2650 C   0  0  0  0  0  0  0  0  0  0  0  0
   36.9290   27.0220   43.2890 C   0  0  0  0  0  3  0  0  0  0  0  0
   40.5160   28.7980   42.8300 N   0  0  0  0  0  0  0  0  0  0  0  0
   40.5940   28.8410   43.8610 H   0  0  0  0  0  0  0  0  0  0  0  0
   40.7950   27.9340   42.3130 H   0  0  0  0  0  0  0  0  0  0  0  0
   36.5920   31.3150   40.6250 S   0  0  0  0  0  0  0  0  0  0  0  0
   35.2830   29.2920   39.4840 C   0  0  0  0  0  0  0  0  0  0  0  0
   36.2470   30.2820   39.2260 C   0  0  0  0  0  0  0  0  0  0  0  0
   36.8190   30.4190   37.9700 C   0  0  0  0  0  0  0  0  0  0  0  0
   36.4510   29.5830   36.9450 C   0  0  0  0  0  0  0  0  0  0  0  0
   35.4950   28.5940   37.1800 C   0  0  0  0  0  0  0  0  0  0  0  0
   34.9070   28.4340   38.4310 C   0  0  0  0  0  0  0  0  0  0  0  0
   35.3040   27.8840   35.9760 O   0  0  0  0  0  0  0  0  0  0  0  0
   36.3610   28.2320   35.1440 C   0  0  0  0  0  0  0  0  0  0  0  0
   36.8300   29.4800   35.6160 O   0  0  0  0  0  0  0  0  0  0  0  0
   34.8080   29.1430   40.4430 H   0  0  0  0  0  0  0  0  0  0  0  0
   37.5480   31.1960   37.8540 H   0  0  0  0  0  0  0  0  0  0  0  0
   34.1660   27.6750   38.6380 H   0  0  0  0  0  0  0  0  0  0  0  0
   36.0580   28.2670   34.0830 H   0  0  0  0  0  0  0  0  0  0  0  0
   37.2110   27.5240   35.2050 H   0  0  0  0  0  0  0  0  0  0  0  0
   41.3210   33.1200   40.9070 O   0  0  0  0  0  0  0  0  0  0  0  0
   41.7180   33.2740   39.5650 C   0  0  0  0  0  0  0  0  0  0  0  0
   40.8120   34.0120   38.8500 F   0  0  0  0  0  0  0  0  0  0  0  0
   42.9820   33.8830   39.5860 F   0  0  0  0  0  0  0  0  0  0  0  0
   41.7950   32.0210   38.9880 F   0  0  0  0  0  0  0  0  0  0  0  0
  1  2  1  0  0  0  0
  2  3  2  0  0  0  0
  2  8  1  0  0  0  0
  3 19  1  0  0  0  0
  4  3  1  0  0  0  0
  5  4  2  0  0  0  0
  6  1  2  0  0  0  0
  6  5  1  0  0  0  0
  7 18  1  0  0  0  0
  8  7  2  0  0  0  0
  9 11  2  0  0  0  0
  9  8  1  0  0  0  0
 10  9  1  0  0  0  0
 11 17  1  0  0  0  0
 12 14  1  0  0  0  0
 12 11  1  0  0  0  0
 13 12  1  0  0  0  0
 14 16  2  0  0  0  0
 15 14  1  0  0  0  0
 16 17  1  0  0  0  0
 17 18  2  0  0  0  0
 19 20  1  0  0  0  0
 21 19  1  0  0  0  0
 22  1  1  0  0  0  0
 23 32  1  0  0  0  0
 24 23  1  0  0  0  0
 24 22  1  0  0  0  0
 25 24  2  0  0  0  0
 26 27  2  0  0  0  0
 26 25  1  0  0  0  0
 27 28  1  0  0  0  0
 28 34  1  0  0  0  0
 28 23  2  0  0  0  0
 29 27  1  0  0  0  0
 30 36  1  0  0  0  0
 30 31  1  0  0  0  0
 30 29  1  0  0  0  0
 31 26  1  0  0  0  0
 33 25  1  0  0  0  0
 35 30  1  0  0  0  0
 37  5  1  0  0  0  0
 38 40  1  0  0  0  0
 38 37  1  0  0  0  0
 39 38  1  0  0  0  0
 41 38  1  0  0  0  0
M  END
>  <minimizedAffinity>
-6.44283485

$$$$

 OpenBabel03242515443D

 41 45  0  0  0  0  0  0  0  0999 V2000
   36.5960   30.1430   39.7820 C   0  0  0  0  0  0  0  0  0  0  0  0
   36.4840   29.6710   38.5260 C   0  0  0  0  0  0  0  0  0  0  0  0
   37.0800   30.4470   37.5040 C   0  0  0  0  0  0  0  0  0  0  0  0
   37.7160   31.6040   37.8140 N   0  0  0  0  0  0  0  0  0  0  0  0
   37.7950   32.0360   39.0970 C   0  0  0  0  0  0  0  0  0  0  0  0
   37.2300   31.2780   40.0080 N   0  0  0  0  0  0  0  0  0  0  0  0
   36.2720   27.3210   37.3240 C   0  0  0  0  0  3  0  0  0  0  0  0
   35.8990   28.5500   37.8090 C   0  0  0  0  0  0  0  0  0  0  0  0
   34.5490   28.9060   37.5910 C   0  0  0  0  0  0  0  0  0  0  0  0
   34.0080   29.8170   37.8740 H   0  0  0  0  0  0  0  0  0  0  0  0
   33.6530   28.0560   36.9250 C   0  0  0  0  0  0  0  0  0  0  0  0
   32.3590   28.0670   36.5590 N   0  0  0  0  0  0  0  0  0  0  0  0
   31.7160   28.8620   36.7570 H   0  0  0  0  0  0  0  0  0  0  0  0
   32.0180   26.9400   35.9190 C   0  0  0  0  0  0  0  0  0  0  0  0
   31.0300   26.7170   35.5280 H   0  0  0  0  0  0  0  0  0  0  0  0
   33.1160   26.1090   35.8350 C   0  0  0  0  0  3  0  0  0  0  0  0
   34.1070   26.8300   36.4670 C   0  0  0  0  0  0  0  0  0  0  0  0
   35.4160   26.4840   36.6760 C   0  0  0  0  0  3  0  0  0  0  0  0
   37.0770   30.0530   36.1340 N   0  0  0  0  0  0  0  0  0  0  0  0
   37.9020   29.5660   35.7470 H   0  0  0  0  0  0  0  0  0  0  0  0
   36.2490   30.2550   35.5280 H   0  0  0  0  0  0  0  0  0  0  0  0
   35.8240   29.1040   41.0450 S   0  0  0  0  0  0  0  0  0  0  0  0
   37.9280   28.6950   42.6320 C   0  0  0  0  0  0  0  0  0  0  0  0
   37.0150   28.0270   41.7970 C   0  0  0  0  0  0  0  0  0  0  0  0
   37.0620   26.6500   41.6370 C   0  0  0  0  0  0  0  0  0  0  0  0
   38.0090   25.9070   42.2970 C   0  0  0  0  0  0  0  0  0  0  0  0
   38.9230   26.5510   43.1310 C   0  0  0  0  0  0  0  0  0  0  0  0
   38.8990   27.9310   43.3080 C   0  0  0  0  0  0  0  0  0  0  0  0
   39.7750   25.5670   43.6780 O   0  0  0  0  0  0  0  0  0  0  0  0
   39.5760   24.4160   42.9280 C   0  0  0  0  0  0  0  0  0  0  0  0
   38.2950   24.5510   42.3410 O   0  0  0  0  0  0  0  0  0  0  0  0
   37.9340   29.7640   42.7910 H   0  0  0  0  0  0  0  0  0  0  0  0
   36.3340   26.2150   40.9810 H   0  0  0  0  0  0  0  0  0  0  0  0
   39.5970   28.4520   43.9480 H   0  0  0  0  0  0  0  0  0  0  0  0
   39.6660   23.5020   43.5400 H   0  0  0  0  0  0  0  0  0  0  0  0
   40.3010   24.3090   42.0960 H   0  0  0  0  0  0  0  0  0  0  0  0
   38.4080   33.1880   39.5130 O   0  0  0  0  0  0  0  0  0  0  0  0
   39.8000   33.1610   39.7160 C   0  0  0  0  0  0  0  0  0  0  0  0
   40.1900   34.0560   40.6780 F   0  0  0  0  0  0  0  0  0  0  0  0
   40.1320   31.8440   40.0690 F   0  0  0  0  0  0  0  0  0  0  0  0
   40.4190   33.5140   38.5320 F   0  0  0  0  0  0  0  0  0  0  0  0
  1  6  1  0  0  0  0
  1 22  1  0  0  0  0
  2  1  2  0  0  0  0
  3  4  2  0  0  0  0
  3  2  1  0  0  0  0
  4  5  1  0  0  0  0
  5 37  1  0  0  0  0
  5  6  2  0  0  0  0
  7  8  1  0  0  0  0
  8  2  1  0  0  0  0
  9  8  2  0  0  0  0
  9 10  1  0  0  0  0
 11  9  1  0  0  0  0
 12 13  1  0  0  0  0
 12 11  1  0  0  0  0
 14 12  1  0  0  0  0
 15 14  1  0  0  0  0
 16 14  2  0  0  0  0
 16 17  1  0  0  0  0
 17 18  1  0  0  0  0
 17 11  2  0  0  0  0
 18  7  2  0  0  0  0
 19  3  1  0  0  0  0
 20 19  1  0  0  0  0
 21 19  1  0  0  0  0
 22 24  1  0  0  0  0
 23 32  1  0  0  0  0
 23 28  1  0  0  0  0
 24 23  2  0  0  0  0
 25 24  1  0  0  0  0
 25 26  2  0  0  0  0
 26 31  1  0  0  0  0
 26 27  1  0  0  0  0
 27 28  2  0  0  0  0
 27 29  1  0  0  0  0
 28 34  1  0  0  0  0
 30 35  1  0  0  0  0
 30 29  1  0  0  0  0
 31 30  1  0  0  0  0
 33 25  1  0  0  0  0
 36 30  1  0  0  0  0
 37 38  1  0  0  0  0
 38 40  1  0  0  0  0
 38 39  1  0  0  0  0
 41 38  1  0  0  0  0
M  END
>  <minimizedAffinity>
-6.39587355

$$$$

 OpenBabel03242515443D

 41 45  0  0  0  0  0  0  0  0999 V2000
   37.0700   28.2940   40.8010 C   0  0  0  0  0  0  0  0  0  0  0  0
   36.6530   27.8290   39.6080 C   0  0  0  0  0  0  0  0  0  0  0  0
   37.0790   26.5280   39.2540 C   0  0  0  0  0  0  0  0  0  0  0  0
   37.8720   25.8210   40.0980 N   0  0  0  0  0  0  0  0  0  0  0  0
   38.2670   26.3410   41.2860 C   0  0  0  0  0  0  0  0  0  0  0  0
   37.8400   27.5500   41.5690 N   0  0  0  0  0  0  0  0  0  0  0  0
   34.5440   28.3150   38.0830 C   0  0  0  0  0  3  0  0  0  0  0  0
   35.8610   28.2530   38.4650 C   0  0  0  0  0  0  0  0  0  0  0  0
   36.7930   28.7360   37.5200 C   0  0  0  0  0  0  0  0  0  0  0  0
   37.8850   28.7970   37.5780 H   0  0  0  0  0  0  0  0  0  0  0  0
   36.3930   29.2460   36.2750 C   0  0  0  0  0  0  0  0  0  0  0  0
   36.9770   29.7660   35.1810 N   0  0  0  0  0  0  0  0  0  0  0  0
   38.0080   29.8890   35.0870 H   0  0  0  0  0  0  0  0  0  0  0  0
   36.0730   30.1000   34.2500 C   0  0  0  0  0  0  0  0  0  0  0  0
   36.3020   30.5380   33.2830 H   0  0  0  0  0  0  0  0  0  0  0  0
   34.8080   29.8000   34.7110 C   0  0  0  0  0  3  0  0  0  0  0  0
   35.0440   29.2750   35.9640 C   0  0  0  0  0  0  0  0  0  0  0  0
   34.1390   28.8060   36.8800 C   0  0  0  0  0  3  0  0  0  0  0  0
   36.6860   25.8890   38.0420 N   0  0  0  0  0  0  0  0  0  0  0  0
   35.8870   25.2320   38.0540 H   0  0  0  0  0  0  0  0  0  0  0  0
   37.1990   26.0820   37.1530 H   0  0  0  0  0  0  0  0  0  0  0  0
   36.4840   29.9580   41.2030 S   0  0  0  0  0  0  0  0  0  0  0  0
   37.1370   32.0160   39.6380 C   0  0  0  0  0  0  0  0  0  0  0  0
   37.6380   31.1880   40.6570 C   0  0  0  0  0  0  0  0  0  0  0  0
   38.9090   31.3780   41.1770 C   0  0  0  0  0  0  0  0  0  0  0  0
   39.7100   32.3880   40.7030 C   0  0  0  0  0  0  0  0  0  0  0  0
   39.2300   33.2210   39.6910 C   0  0  0  0  0  0  0  0  0  0  0  0
   37.9590   33.0510   39.1510 C   0  0  0  0  0  0  0  0  0  0  0  0
   40.2390   34.1610   39.3920 O   0  0  0  0  0  0  0  0  0  0  0  0
   41.4040   33.6850   39.9790 C   0  0  0  0  0  0  0  0  0  0  0  0
   40.9890   32.8190   41.0180 O   0  0  0  0  0  0  0  0  0  0  0  0
   36.1550   31.9100   39.1990 H   0  0  0  0  0  0  0  0  0  0  0  0
   39.2210   30.7040   41.9510 H   0  0  0  0  0  0  0  0  0  0  0  0
   37.5660   33.6820   38.3670 H   0  0  0  0  0  0  0  0  0  0  0  0
   42.0480   34.5040   40.3440 H   0  0  0  0  0  0  0  0  0  0  0  0
   42.0250   33.0820   39.2860 H   0  0  0  0  0  0  0  0  0  0  0  0
   39.0680   25.7130   42.2030 O   0  0  0  0  0  0  0  0  0  0  0  0
   38.8370   24.3490   42.4600 C   0  0  0  0  0  0  0  0  0  0  0  0
   39.3010   23.5560   41.4440 F   0  0  0  0  0  0  0  0  0  0  0  0
   39.4710   24.0540   43.6770 F   0  0  0  0  0  0  0  0  0  0  0  0
   37.4740   24.1500   42.5650 F   0  0  0  0  0  0  0  0  0  0  0  0
  1 22  1  0  0  0  0
  1  6  1  0  0  0  0
  2  1  2  0  0  0  0
  3  2  1  0  0  0  0
  3  4  2  0  0  0  0
  4  5  1  0  0  0  0
  5  6  2  0  0  0  0
  5 37  1  0  0  0  0
  7  8  1  0  0  0  0
  8  2  1  0  0  0  0
  9 10  1  0  0  0  0
  9  8  2  0  0  0  0
 11  9  1  0  0  0  0
 12 11  1  0  0  0  0
 13 12  1  0  0  0  0
 14 16  2  0  0  0  0
 14 12  1  0  0  0  0
 15 14  1  0  0  0  0
 16 17  1  0  0  0  0
 17 11  2  0  0  0  0
 17 18  1  0  0  0  0
 18  7  2  0  0  0  0
 19 20  1  0  0  0  0
 19  3  1  0  0  0  0
 21 19  1  0  0  0  0
 23 24  1  0  0  0  0
 24 25  2  0  0  0  0
 24 22  1  0  0  0  0
 25 33  1  0  0  0  0
 26 31  1  0  0  0  0
 26 25  1  0  0  0  0
 27 26  2  0  0  0  0
 28 23  2  0  0  0  0
 28 27  1  0  0  0  0
 29 27  1  0  0  0  0
 29 30  1  0  0  0  0
 30 35  1  0  0  0  0
 30 31  1  0  0  0  0
 32 23  1  0  0  0  0
 34 28  1  0  0  0  0
 36 30  1  0  0  0  0
 37 38  1  0  0  0  0
 38 41  1  0  0  0  0
 38 40  1  0  0  0  0
 39 38  1  0  0  0  0
M  END
>  <minimizedAffinity>
-6.3333807

$$$$

 OpenBabel03242515443D

 41 45  0  0  0  0  0  0  0  0999 V2000
   36.8590   29.6350   40.9180 C   0  0  0  0  0  0  0  0  0  0  0  0
   37.5800   28.5730   41.3250 C   0  0  0  0  0  0  0  0  0  0  0  0
   38.8970   28.8370   41.7690 C   0  0  0  0  0  0  0  0  0  0  0  0
   39.3730   30.1070   41.7620 N   0  0  0  0  0  0  0  0  0  0  0  0
   38.6050   31.1400   41.3370 C   0  0  0  0  0  0  0  0  0  0  0  0
   37.3890   30.8420   40.9400 N   0  0  0  0  0  0  0  0  0  0  0  0
   37.1060   26.2060   42.4110 C   0  0  0  0  0  3  0  0  0  0  0  0
   37.4550   27.1320   41.4590 C   0  0  0  0  0  0  0  0  0  0  0  0
   37.8050   26.6040   40.1970 C   0  0  0  0  0  0  0  0  0  0  0  0
   38.1170   27.1200   39.2820 H   0  0  0  0  0  0  0  0  0  0  0  0
   37.7940   25.2250   39.9380 C   0  0  0  0  0  0  0  0  0  0  0  0
   38.0560   24.4070   38.9030 N   0  0  0  0  0  0  0  0  0  0  0  0
   38.3630   24.7480   37.9680 H   0  0  0  0  0  0  0  0  0  0  0  0
   37.8730   23.1210   39.2320 C   0  0  0  0  0  0  0  0  0  0  0  0
   38.0210   22.2770   38.5650 H   0  0  0  0  0  0  0  0  0  0  0  0
   37.4670   23.0370   40.5480 C   0  0  0  0  0  3  0  0  0  0  0  0
   37.4290   24.3540   40.9520 C   0  0  0  0  0  0  0  0  0  0  0  0
   37.0900   24.8650   42.1770 C   0  0  0  0  0  3  0  0  0  0  0  0
   39.7630   27.8190   42.2650 N   0  0  0  0  0  0  0  0  0  0  0  0
   39.8360   27.6720   43.2860 H   0  0  0  0  0  0  0  0  0  0  0  0
   40.3180   27.2300   41.6040 H   0  0  0  0  0  0  0  0  0  0  0  0
   35.1800   29.2370   40.3730 S   0  0  0  0  0  0  0  0  0  0  0  0
   33.8200   28.7780   38.1270 C   0  0  0  0  0  0  0  0  0  0  0  0
   35.0950   29.1230   38.6060 C   0  0  0  0  0  0  0  0  0  0  0  0
   36.1470   29.3750   37.7370 C   0  0  0  0  0  0  0  0  0  0  0  0
   35.9600   29.2910   36.3800 C   0  0  0  0  0  0  0  0  0  0  0  0
   34.7010   28.9500   35.8830 C   0  0  0  0  0  0  0  0  0  0  0  0
   33.6300   28.6910   36.7330 C   0  0  0  0  0  0  0  0  0  0  0  0
   34.7830   28.9340   34.4740 O   0  0  0  0  0  0  0  0  0  0  0  0
   36.1360   28.9410   34.1610 C   0  0  0  0  0  0  0  0  0  0  0  0
   36.7930   29.4860   35.2890 O   0  0  0  0  0  0  0  0  0  0  0  0
   32.9690   28.5720   38.7600 H   0  0  0  0  0  0  0  0  0  0  0  0
   37.0890   29.6300   38.1800 H   0  0  0  0  0  0  0  0  0  0  0  0
   32.6470   28.4240   36.3730 H   0  0  0  0  0  0  0  0  0  0  0  0
   36.3430   29.5070   33.2360 H   0  0  0  0  0  0  0  0  0  0  0  0
   36.5500   27.9240   34.0060 H   0  0  0  0  0  0  0  0  0  0  0  0
   38.9920   32.4530   41.2860 O   0  0  0  0  0  0  0  0  0  0  0  0
   39.8250   32.8570   40.2260 C   0  0  0  0  0  0  0  0  0  0  0  0
   39.7380   32.0020   39.1580 F   0  0  0  0  0  0  0  0  0  0  0  0
   39.4340   34.1590   39.8790 F   0  0  0  0  0  0  0  0  0  0  0  0
   41.1320   32.8470   40.6720 F   0  0  0  0  0  0  0  0  0  0  0  0
  1  6  2  0  0  0  0
  1  2  1  0  0  0  0
  2  8  1  0  0  0  0
  2  3  2  0  0  0  0
  3 19  1  0  0  0  0
  4  3  1  0  0  0  0
  5  4  2  0  0  0  0
  6  5  1  0  0  0  0
  8  7  2  0  0  0  0
  9  8  1  0  0  0  0
 10  9  1  0  0  0  0
 11  9  2  0  0  0  0
 11 17  1  0  0  0  0
 12 14  1  0  0  0  0
 12 11  1  0  0  0  0
 13 12  1  0  0  0  0
 14 16  2  0  0  0  0
 15 14  1  0  0  0  0
 16 17  1  0  0  0  0
 17 18  2  0  0  0  0
 18  7  1  0  0  0  0
 19 20  1  0  0  0  0
 21 19  1  0  0  0  0
 22  1  1  0  0  0  0
 23 24  1  0  0  0  0
 23 32  1  0  0  0  0
 24 22  1  0  0  0  0
 25 33  1  0  0  0  0
 25 24  2  0  0  0  0
 26 25  1  0  0  0  0
 27 26  2  0  0  0  0
 27 28  1  0  0  0  0
 28 23  2  0  0  0  0
 29 27  1  0  0  0  0
 30 29  1  0  0  0  0
 30 31  1  0  0  0  0
 31 26  1  0  0  0  0
 34 28  1  0  0  0  0
 35 30  1  0  0  0  0
 36 30  1  0  0  0  0
 37  5  1  0  0  0  0
 38 41  1  0  0  0  0
 38 37  1  0  0  0  0
 39 38  1  0  0  0  0
 40 38  1  0  0  0  0
M  END
>  <minimizedAffinity>
-6.28885889

$$$$

 OpenBabel03242515443D

 41 45  0  0  0  0  0  0  0  0999 V2000
   37.0980   29.0950   41.0430 C   0  0  0  0  0  0  0  0  0  0  0  0
   38.3620   29.5580   41.0850 C   0  0  0  0  0  0  0  0  0  0  0  0
   39.3160   28.7320   41.7240 C   0  0  0  0  0  0  0  0  0  0  0  0
   38.9350   27.5460   42.2600 N   0  0  0  0  0  0  0  0  0  0  0  0
   37.6460   27.1300   42.1930 C   0  0  0  0  0  0  0  0  0  0  0  0
   36.8010   27.9310   41.5860 N   0  0  0  0  0  0  0  0  0  0  0  0
   39.5880   31.9020   41.2050 C   0  0  0  0  0  3  0  0  0  0  0  0
   39.1340   30.7200   40.6750 C   0  0  0  0  0  0  0  0  0  0  0  0
   39.4870   30.4810   39.3280 C   0  0  0  0  0  0  0  0  0  0  0  0
   39.2540   29.6270   38.6810 H   0  0  0  0  0  0  0  0  0  0  0  0
   40.2530   31.3930   38.5870 C   0  0  0  0  0  0  0  0  0  0  0  0
   40.7540   31.4890   37.3420 N   0  0  0  0  0  0  0  0  0  0  0  0
   40.6170   30.7580   36.6130 H   0  0  0  0  0  0  0  0  0  0  0  0
   41.4370   32.6290   37.1720 C   0  0  0  0  0  0  0  0  0  0  0  0
   41.9330   32.9310   36.2540 H   0  0  0  0  0  0  0  0  0  0  0  0
   41.4130   33.3580   38.3430 C   0  0  0  0  0  3  0  0  0  0  0  0
   40.6750   32.5650   39.1940 C   0  0  0  0  0  0  0  0  0  0  0  0
   40.3310   32.7980   40.5000 C   0  0  0  0  0  3  0  0  0  0  0  0
   40.6980   29.0720   41.8110 N   0  0  0  0  0  0  0  0  0  0  0  0
   41.3580   28.6810   41.1180 H   0  0  0  0  0  0  0  0  0  0  0  0
   41.0380   29.7090   42.5660 H   0  0  0  0  0  0  0  0  0  0  0  0
   35.9270   30.1890   40.2040 S   0  0  0  0  0  0  0  0  0  0  0  0
   34.3360   28.9210   38.4800 C   0  0  0  0  0  0  0  0  0  0  0  0
   35.5630   29.6010   38.5720 C   0  0  0  0  0  0  0  0  0  0  0  0
   36.3620   29.7960   37.4550 C   0  0  0  0  0  0  0  0  0  0  0  0
   35.9660   29.3260   36.2280 C   0  0  0  0  0  0  0  0  0  0  0  0
   34.7500   28.6490   36.1160 C   0  0  0  0  0  0  0  0  0  0  0  0
   33.9310   28.4390   37.2200 C   0  0  0  0  0  0  0  0  0  0  0  0
   34.5870   28.2780   34.7640 O   0  0  0  0  0  0  0  0  0  0  0  0
   35.8270   28.4400   34.1600 C   0  0  0  0  0  0  0  0  0  0  0  0
   36.5290   29.3700   34.9620 O   0  0  0  0  0  0  0  0  0  0  0  0
   33.6780   28.7430   39.3190 H   0  0  0  0  0  0  0  0  0  0  0  0
   37.2840   30.3210   37.6070 H   0  0  0  0  0  0  0  0  0  0  0  0
   32.9860   27.9170   37.1590 H   0  0  0  0  0  0  0  0  0  0  0  0
   35.7360   28.7690   33.1110 H   0  0  0  0  0  0  0  0  0  0  0  0
   36.4280   27.5080   34.1460 H   0  0  0  0  0  0  0  0  0  0  0  0
   37.1600   25.9560   42.7050 O   0  0  0  0  0  0  0  0  0  0  0  0
   37.3660   24.7760   41.9660 C   0  0  0  0  0  0  0  0  0  0  0  0
   37.8460   25.0420   40.7100 F   0  0  0  0  0  0  0  0  0  0  0  0
   38.2610   23.9870   42.7060 F   0  0  0  0  0  0  0  0  0  0  0  0
   36.1530   24.1310   41.8290 F   0  0  0  0  0  0  0  0  0  0  0  0
  1  2  2  0  0  0  0
  1  6  1  0  0  0  0
  2  3  1  0  0  0  0
  3 19  1  0  0  0  0
  3  4  2  0  0  0  0
  5  4  1  0  0  0  0
  5 37  1  0  0  0  0
  6  5  2  0  0  0  0
  8  2  1  0  0  0  0
  8  7  1  0  0  0  0
  9  8  2  0  0  0  0
 10  9  1  0  0  0  0
 11 17  2  0  0  0  0
 11  9  1  0  0  0  0
 12 11  1  0  0  0  0
 13 12  1  0  0  0  0
 14 12  1  0  0  0  0
 14 16  2  0  0  0  0
 15 14  1  0  0  0  0
 16 17  1  0  0  0  0
 17 18  1  0  0  0  0
 18  7  2  0  0  0  0
 19 21  1  0  0  0  0
 20 19  1  0  0  0  0
 22  1  1  0  0  0  0
 23 24  1  0  0  0  0
 23 32  1  0  0  0  0
 24 22  1  0  0  0  0
 25 33  1  0  0  0  0
 25 24  2  0  0  0  0
 26 25  1  0  0  0  0
 27 26  2  0  0  0  0
 27 28  1  0  0  0  0
 28 23  2  0  0  0  0
 29 27  1  0  0  0  0
 30 29  1  0  0  0  0
 30 31  1  0  0  0  0
 31 26  1  0  0  0  0
 34 28  1  0  0  0  0
 35 30  1  0  0  0  0
 36 30  1  0  0  0  0
 38 37  1  0  0  0  0
 38 40  1  0  0  0  0
 39 38  1  0  0  0  0
 41 38  1  0  0  0  0
M  END
>  <minimizedAffinity>
-6.21204424

$$$$

 OpenBabel03242515443D

 41 45  0  0  0  0  0  0  0  0999 V2000
   36.1180   29.4870   39.5250 C   0  0  0  0  0  0  0  0  0  0  0  0
   36.6510   28.2980   39.8640 C   0  0  0  0  0  0  0  0  0  0  0  0
   36.6230   27.2880   38.8740 C   0  0  0  0  0  0  0  0  0  0  0  0
   36.0730   27.5430   37.6610 N   0  0  0  0  0  0  0  0  0  0  0  0
   35.5460   28.7590   37.3740 C   0  0  0  0  0  0  0  0  0  0  0  0
   35.6010   29.6620   38.3250 N   0  0  0  0  0  0  0  0  0  0  0  0
   36.9270   26.8900   42.0900 C   0  0  0  0  0  3  0  0  0  0  0  0
   37.2820   27.6470   41.0010 C   0  0  0  0  0  0  0  0  0  0  0  0
   38.6630   27.9130   40.8680 C   0  0  0  0  0  0  0  0  0  0  0  0
   39.1980   28.4840   40.1010 H   0  0  0  0  0  0  0  0  0  0  0  0
   39.6050   27.4310   41.7900 C   0  0  0  0  0  0  0  0  0  0  0  0
   40.9370   27.4860   41.9700 N   0  0  0  0  0  0  0  0  0  0  0  0
   41.5800   27.9910   41.3250 H   0  0  0  0  0  0  0  0  0  0  0  0
   41.3150   26.8180   43.0680 C   0  0  0  0  0  0  0  0  0  0  0  0
   42.3370   26.7190   43.4200 H   0  0  0  0  0  0  0  0  0  0  0  0
   40.2040   26.2740   43.6800 C   0  0  0  0  0  3  0  0  0  0  0  0
   39.1670   26.6730   42.8640 C   0  0  0  0  0  0  0  0  0  0  0  0
   37.8270   26.4160   42.9930 C   0  0  0  0  0  3  0  0  0  0  0  0
   37.1840   25.9930   39.0750 N   0  0  0  0  0  0  0  0  0  0  0  0
   38.1400   25.7990   38.7320 H   0  0  0  0  0  0  0  0  0  0  0  0
   36.6360   25.2500   39.5640 H   0  0  0  0  0  0  0  0  0  0  0  0
   36.1920   30.7410   40.8280 S   0  0  0  0  0  0  0  0  0  0  0  0
   37.4430   32.9450   40.0010 C   0  0  0  0  0  0  0  0  0  0  0  0
   37.6550   31.7300   40.6750 C   0  0  0  0  0  0  0  0  0  0  0  0
   38.9020   31.3990   41.1850 C   0  0  0  0  0  0  0  0  0  0  0  0
   39.9620   32.2590   41.0390 C   0  0  0  0  0  0  0  0  0  0  0  0
   39.7720   33.4710   40.3740 C   0  0  0  0  0  0  0  0  0  0  0  0
   38.5320   33.8270   39.8520 C   0  0  0  0  0  0  0  0  0  0  0  0
   41.0060   34.1550   40.3640 O   0  0  0  0  0  0  0  0  0  0  0  0
   41.9730   33.2250   40.7220 C   0  0  0  0  0  0  0  0  0  0  0  0
   41.2900   32.2110   41.4340 O   0  0  0  0  0  0  0  0  0  0  0  0
   36.4930   33.2500   39.5860 H   0  0  0  0  0  0  0  0  0  0  0  0
   38.9840   30.4530   41.6830 H   0  0  0  0  0  0  0  0  0  0  0  0
   38.3610   34.7580   39.3320 H   0  0  0  0  0  0  0  0  0  0  0  0
   42.7870   33.6810   41.3120 H   0  0  0  0  0  0  0  0  0  0  0  0
   42.4520   32.7390   39.8490 H   0  0  0  0  0  0  0  0  0  0  0  0
   34.9650   29.1150   36.1850 O   0  0  0  0  0  0  0  0  0  0  0  0
   35.8090   29.4280   35.1040 C   0  0  0  0  0  0  0  0  0  0  0  0
   36.9430   30.0780   35.5170 F   0  0  0  0  0  0  0  0  0  0  0  0
   36.1120   28.2170   34.4630 F   0  0  0  0  0  0  0  0  0  0  0  0
   35.1260   30.2700   34.2480 F   0  0  0  0  0  0  0  0  0  0  0  0
  1  2  1  0  0  0  0
  1 22  1  0  0  0  0
  2  8  1  0  0  0  0
  3 19  1  0  0  0  0
  3  2  2  0  0  0  0
  4  3  1  0  0  0  0
  5  4  2  0  0  0  0
  5  6  1  0  0  0  0
  6  1  2  0  0  0  0
  7 18  1  0  0  0  0
  8  7  2  0  0  0  0
  9  8  1  0  0  0  0
  9 11  2  0  0  0  0
 10  9  1  0  0  0  0
 11 12  1  0  0  0  0
 11 17  1  0  0  0  0
 12 14  1  0  0  0  0
 13 12  1  0  0  0  0
 14 15  1  0  0  0  0
 14 16  2  0  0  0  0
 17 18  2  0  0  0  0
 17 16  1  0  0  0  0
 19 21  1  0  0  0  0
 20 19  1  0  0  0  0
 23 24  1  0  0  0  0
 24 22  1  0  0  0  0
 24 25  2  0  0  0  0
 25 33  1  0  0  0  0
 26 25  1  0  0  0  0
 26 31  1  0  0  0  0
 27 26  2  0  0  0  0
 28 23  2  0  0  0  0
 28 27  1  0  0  0  0
 29 27  1  0  0  0  0
 29 30  1  0  0  0  0
 30 35  1  0  0  0  0
 30 31  1  0  0  0  0
 32 23  1  0  0  0  0
 34 28  1  0  0  0  0
 36 30  1  0  0  0  0
 37  5  1  0  0  0  0
 38 39  1  0  0  0  0
 38 37  1  0  0  0  0
 40 38  1  0  0  0  0
 41 38  1  0  0  0  0
M  END
>  <minimizedAffinity>
-6.18194962

$$$$

 OpenBabel03242515443D

 41 45  0  0  0  0  0  0  0  0999 V2000
   35.5400   28.9970   36.8880 C   0  0  0  0  0  0  0  0  0  0  0  0
   35.1740   29.0560   38.1830 C   0  0  0  0  0  0  0  0  0  0  0  0
   33.7860   29.1210   38.4440 C   0  0  0  0  0  0  0  0  0  0  0  0
   32.9010   29.1270   37.4160 N   0  0  0  0  0  0  0  0  0  0  0  0
   33.3250   29.0700   36.1290 C   0  0  0  0  0  0  0  0  0  0  0  0
   34.6220   29.0070   35.9400 N   0  0  0  0  0  0  0  0  0  0  0  0
   36.0410   30.0060   40.4970 C   0  0  0  0  0  3  0  0  0  0  0  0
   35.7750   29.0940   39.5050 C   0  0  0  0  0  0  0  0  0  0  0  0
   36.1680   27.7660   39.7790 C   0  0  0  0  0  0  0  0  0  0  0  0
   36.0720   26.8640   39.1640 H   0  0  0  0  0  0  0  0  0  0  0  0
   36.7870   27.4060   40.9870 C   0  0  0  0  0  0  0  0  0  0  0  0
   37.2720   26.2910   41.5600 N   0  0  0  0  0  0  0  0  0  0  0  0
   37.2530   25.3560   41.1010 H   0  0  0  0  0  0  0  0  0  0  0  0
   37.7730   26.5400   42.7780 C   0  0  0  0  0  0  0  0  0  0  0  0
   38.2200   25.8000   43.4350 H   0  0  0  0  0  0  0  0  0  0  0  0
   37.6330   27.8820   43.0660 C   0  0  0  0  0  3  0  0  0  0  0  0
   37.0200   28.3850   41.9390 C   0  0  0  0  0  0  0  0  0  0  0  0
   36.6400   29.6750   41.6730 C   0  0  0  0  0  3  0  0  0  0  0  0
   33.2490   29.1490   39.7650 N   0  0  0  0  0  0  0  0  0  0  0  0
   32.9220   28.2680   40.1950 H   0  0  0  0  0  0  0  0  0  0  0  0
   33.1870   30.0500   40.2910 H   0  0  0  0  0  0  0  0  0  0  0  0
   37.3260   28.9050   36.6160 S   0  0  0  0  0  0  0  0  0  0  0  0
   37.7170   31.3830   37.5160 C   0  0  0  0  0  0  0  0  0  0  0  0
   38.1860   30.0650   37.6440 C   0  0  0  0  0  0  0  0  0  0  0  0
   39.2060   29.7470   38.5290 C   0  0  0  0  0  0  0  0  0  0  0  0
   39.7800   30.7230   39.3050 C   0  0  0  0  0  0  0  0  0  0  0  0
   39.3270   32.0390   39.1940 C   0  0  0  0  0  0  0  0  0  0  0  0
   38.3080   32.3840   38.3130 C   0  0  0  0  0  0  0  0  0  0  0  0
   40.0780   32.8300   40.0900 O   0  0  0  0  0  0  0  0  0  0  0  0
   41.1670   32.0590   40.4760 C   0  0  0  0  0  0  0  0  0  0  0  0
   40.7860   30.7140   40.2590 O   0  0  0  0  0  0  0  0  0  0  0  0
   36.9270   31.6830   36.8430 H   0  0  0  0  0  0  0  0  0  0  0  0
   39.5100   28.7200   38.5660 H   0  0  0  0  0  0  0  0  0  0  0  0
   37.9410   33.3960   38.2080 H   0  0  0  0  0  0  0  0  0  0  0  0
   41.4600   32.2530   41.5220 H   0  0  0  0  0  0  0  0  0  0  0  0
   42.0680   32.2420   39.8570 H   0  0  0  0  0  0  0  0  0  0  0  0
   32.5160   29.0750   35.0240 O   0  0  0  0  0  0  0  0  0  0  0  0
   32.0250   30.3130   34.5690 C   0  0  0  0  0  0  0  0  0  0  0  0
   31.1180   30.1570   33.5540 F   0  0  0  0  0  0  0  0  0  0  0  0
   31.4530   30.9540   35.6790 F   0  0  0  0  0  0  0  0  0  0  0  0
   33.0870   31.0490   34.0800 F   0  0  0  0  0  0  0  0  0  0  0  0
  1  2  1  0  0  0  0
  2  3  2  0  0  0  0
  2  8  1  0  0  0  0
  3 19  1  0  0  0  0
  4  3  1  0  0  0  0
  5  4  2  0  0  0  0
  6  5  1  0  0  0  0
  6  1  2  0  0  0  0
  7 18  1  0  0  0  0
  8  9  1  0  0  0  0
  8  7  2  0  0  0  0
  9 11  2  0  0  0  0
 10  9  1  0  0  0  0
 11 12  1  0  0  0  0
 11 17  1  0  0  0  0
 12 14  1  0  0  0  0
 13 12  1  0  0  0  0
 14 16  2  0  0  0  0
 14 15  1  0  0  0  0
 17 16  1  0  0  0  0
 18 17  2  0  0  0  0
 19 20  1  0  0  0  0
 19 21  1  0  0  0  0
 22  1  1  0  0  0  0
 22 24  1  0  0  0  0
 23 24  2  0  0  0  0
 23 28  1  0  0  0  0
 24 25  1  0  0  0  0
 25 33  1  0  0  0  0
 25 26  2  0  0  0  0
 26 31  1  0  0  0  0
 27 26  1  0  0  0  0
 27 29  1  0  0  0  0
 28 27  2  0  0  0  0
 29 30  1  0  0  0  0
 30 35  1  0  0  0  0
 31 30  1  0  0  0  0
 32 23  1  0  0  0  0
 34 28  1  0  0  0  0
 36 30  1  0  0  0  0
 37  5  1  0  0  0  0
 38 37  1  0  0  0  0
 38 40  1  0  0  0  0
 39 38  1  0  0  0  0
 41 38  1  0  0  0  0
M  END
>  <minimizedAffinity>
-6.04565668

$$$$

 OpenBabel03242515443D

 41 45  0  0  0  0  0  0  0  0999 V2000
   35.1130   29.1730   38.5250 C   0  0  0  0  0  0  0  0  0  0  0  0
   36.2260   29.7220   38.0010 C   0  0  0  0  0  0  0  0  0  0  0  0
   36.2960   29.7800   36.5900 C   0  0  0  0  0  0  0  0  0  0  0  0
   35.2780   29.2920   35.8390 N   0  0  0  0  0  0  0  0  0  0  0  0
   34.1810   28.7460   36.4190 C   0  0  0  0  0  0  0  0  0  0  0  0
   34.1630   28.7190   37.7310 N   0  0  0  0  0  0  0  0  0  0  0  0
   38.7990   29.9410   38.5830 C   0  0  0  0  0  3  0  0  0  0  0  0
   37.4840   30.3070   38.4330 C   0  0  0  0  0  0  0  0  0  0  0  0
   37.1820   31.6430   38.7730 C   0  0  0  0  0  0  0  0  0  0  0  0
   36.2250   32.1760   38.7440 H   0  0  0  0  0  0  0  0  0  0  0  0
   38.1630   32.5350   39.2320 C   0  0  0  0  0  0  0  0  0  0  0  0
   38.2320   33.8180   39.6290 N   0  0  0  0  0  0  0  0  0  0  0  0
   37.4070   34.4540   39.6560 H   0  0  0  0  0  0  0  0  0  0  0  0
   39.4800   34.1610   39.9770 C   0  0  0  0  0  0  0  0  0  0  0  0
   39.7850   35.1420   40.3290 H   0  0  0  0  0  0  0  0  0  0  0  0
   40.3160   33.0750   39.8170 C   0  0  0  0  0  3  0  0  0  0  0  0
   39.4690   32.0900   39.3560 C   0  0  0  0  0  0  0  0  0  0  0  0
   39.7640   30.7930   39.0270 C   0  0  0  0  0  3  0  0  0  0  0  0
   37.3940   30.3680   35.8950 N   0  0  0  0  0  0  0  0  0  0  0  0
   37.3200   31.3470   35.5710 H   0  0  0  0  0  0  0  0  0  0  0  0
   38.2630   29.8150   35.7160 H   0  0  0  0  0  0  0  0  0  0  0  0
   35.0750   29.1360   40.3330 S   0  0  0  0  0  0  0  0  0  0  0  0
   36.5120   28.1060   42.3280 C   0  0  0  0  0  0  0  0  0  0  0  0
   36.2060   27.9280   40.9680 C   0  0  0  0  0  0  0  0  0  0  0  0
   36.7380   26.8720   40.2440 C   0  0  0  0  0  0  0  0  0  0  0  0
   37.5810   25.9710   40.8470 C   0  0  0  0  0  0  0  0  0  0  0  0
   37.8960   26.1300   42.1970 C   0  0  0  0  0  0  0  0  0  0  0  0
   37.3780   27.1820   42.9460 C   0  0  0  0  0  0  0  0  0  0  0  0
   38.7690   25.0830   42.5620 O   0  0  0  0  0  0  0  0  0  0  0  0
   39.2180   24.5160   41.3760 C   0  0  0  0  0  0  0  0  0  0  0  0
   38.2460   24.8410   40.4000 O   0  0  0  0  0  0  0  0  0  0  0  0
   36.1260   28.9120   42.9360 H   0  0  0  0  0  0  0  0  0  0  0  0
   36.4590   26.8050   39.2110 H   0  0  0  0  0  0  0  0  0  0  0  0
   37.6090   27.3270   43.9920 H   0  0  0  0  0  0  0  0  0  0  0  0
   39.3740   23.4270   41.4710 H   0  0  0  0  0  0  0  0  0  0  0  0
   40.1800   24.9420   41.0280 H   0  0  0  0  0  0  0  0  0  0  0  0
   33.1050   28.2230   35.7520 O   0  0  0  0  0  0  0  0  0  0  0  0
   33.0750   26.8330   35.5310 C   0  0  0  0  0  0  0  0  0  0  0  0
   32.5640   26.5270   34.2970 F   0  0  0  0  0  0  0  0  0  0  0  0
   34.3920   26.3720   35.6750 F   0  0  0  0  0  0  0  0  0  0  0  0
   32.2550   26.2590   36.4830 F   0  0  0  0  0  0  0  0  0  0  0  0
  1 22  1  0  0  0  0
  2  8  1  0  0  0  0
  2  1  1  0  0  0  0
  3  2  2  0  0  0  0
  4  5  2  0  0  0  0
  4  3  1  0  0  0  0
  5  6  1  0  0  0  0
  6  1  2  0  0  0  0
  7 18  1  0  0  0  0
  8  7  2  0  0  0  0
  8  9  1  0  0  0  0
  9 11  2  0  0  0  0
 10  9  1  0  0  0  0
 11 17  1  0  0  0  0
 11 12  1  0  0  0  0
 12 13  1  0  0  0  0
 12 14  1  0  0  0  0
 14 15  1  0  0  0  0
 16 14  2  0  0  0  0
 17 16  1  0  0  0  0
 18 17  2  0  0  0  0
 19  3  1  0  0  0  0
 20 19  1  0  0  0  0
 21 19  1  0  0  0  0
 22 24  1  0  0  0  0
 23 32  1  0  0  0  0
 23 28  1  0  0  0  0
 24 23  2  0  0  0  0
 25 26  2  0  0  0  0
 25 24  1  0  0  0  0
 26 27  1  0  0  0  0
 27 29  1  0  0  0  0
 27 28  2  0  0  0  0
 28 34  1  0  0  0  0
 30 35  1  0  0  0  0
 30 29  1  0  0  0  0
 31 26  1  0  0  0  0
 31 30  1  0  0  0  0
 33 25  1  0  0  0  0
 36 30  1  0  0  0  0
 37  5  1  0  0  0  0
 38 40  1  0  0  0  0
 38 37  1  0  0  0  0
 38 41  1  0  0  0  0
 39 38  1  0  0  0  0
M  END
>  <minimizedAffinity>
-6.03591251

$$$$
