
 OpenBabel03252507593D

 32 35  0  0  1  0  0  0  0  0999 V2000
   46.7860   34.7920   43.0710 C   0  0  0  0  0  0  0  0  0  0  0  0
   45.6730   35.6910   43.1610 C   0  0  0  0  0  0  0  0  0  0  0  0
   44.7430   35.4320   44.1900 C   0  0  0  0  0  0  0  0  0  0  0  0
   44.9600   34.3740   45.0070 N   0  0  0  0  0  0  0  0  0  0  0  0
   46.0480   33.5680   44.8480 C   0  0  0  0  0  0  0  0  0  0  0  0
   46.9580   33.7480   43.9120 N   0  0  0  0  0  0  0  0  0  0  0  0
   45.5310   36.5270   42.4920 H   0  0  0  0  0  0  0  0  0  0  0  0
   43.9070   36.1050   44.2630 H   0  0  0  0  0  0  0  0  0  0  0  0
   46.2130   32.4230   45.8080 C   0  0  1  0  0  0  0  0  0  0  0  0
   46.9770   32.6500   47.0930 C   0  0  0  0  0  0  0  0  0  0  0  0
   45.4720   32.5610   47.0800 C   0  0  1  0  0  0  0  0  0  0  0  0
   46.2720   31.4040   45.3680 H   0  0  0  0  0  0  0  0  0  0  0  0
   47.4950   33.6300   47.0980 H   0  0  0  0  0  0  0  0  0  0  0  0
   47.5710   31.8030   47.4330 H   0  0  0  0  0  0  0  0  0  0  0  0
   45.0610   31.7200   47.6340 H   0  0  0  0  0  0  0  0  0  0  0  0
   44.8530   33.8580   47.4110 N   0  0  0  0  0  0  0  0  0  0  0  0
   43.8330   33.8420   47.3450 H   0  0  0  0  0  0  0  0  0  0  0  0
   45.2850   34.1600   48.2880 H   0  0  0  0  0  0  0  0  0  0  0  0
   47.6770   35.1500   42.0070 C   0  0  0  0  0  0  0  0  0  0  0  0
   48.6470   35.9780   42.1310 O   0  0  0  0  0  0  0  0  0  0  0  0
   46.1930   33.7050   40.4420 C   0  0  0  0  0  3  0  0  0  0  0  0
   47.3000   34.4380   40.7950 C   0  0  0  0  0  0  0  0  0  0  0  0
   48.2910   34.6160   39.8150 C   0  0  0  0  0  0  0  0  0  0  0  0
   49.2110   35.1720   39.9600 H   0  0  0  0  0  0  0  0  0  0  0  0
   48.1840   34.0910   38.5430 C   0  0  0  0  0  0  0  0  0  0  0  0
   48.9870   34.1360   37.4390 N   0  0  0  0  0  0  0  0  0  0  0  0
   49.9110   34.6200   37.3720 H   0  0  0  0  0  0  0  0  0  0  0  0
   48.3940   33.4540   36.4430 C   0  0  0  0  0  0  0  0  0  0  0  0
   48.7620   33.2950   35.4410 H   0  0  0  0  0  0  0  0  0  0  0  0
   47.1700   32.9440   36.8860 C   0  0  0  0  0  3  0  0  0  0  0  0
   47.0660   33.3590   38.2020 C   0  0  0  0  0  0  0  0  0  0  0  0
   46.0880   33.1850   39.1800 C   0  0  0  0  0  3  0  0  0  0  0  0
  1  2  2  0  0  0  0
  1  6  1  0  0  0  0
  2  3  1  0  0  0  0
  3  8  1  0  0  0  0
  3  4  2  0  0  0  0
  5  4  1  0  0  0  0
  5  9  1  0  0  0  0
  6  5  2  0  0  0  0
  7  2  1  0  0  0  0
  9 12  1  6  0  0  0
  9 11  1  0  0  0  0
  9 10  1  0  0  0  0
 10 13  1  0  0  0  0
 10 14  1  0  0  0  0
 11 10  1  0  0  0  0
 11 16  1  0  0  0  0
 11 15  1  1  0  0  0
 16 18  1  0  0  0  0
 17 16  1  0  0  0  0
 19 20  2  0  0  0  0
 19  1  1  0  0  0  0
 21 22  1  0  0  0  0
 22 19  1  0  0  0  0
 23 24  1  0  0  0  0
 23 22  2  0  0  0  0
 25 23  1  0  0  0  0
 26 25  1  0  0  0  0
 27 26  1  0  0  0  0
 28 30  2  0  0  0  0
 28 26  1  0  0  0  0
 29 28  1  0  0  0  0
 30 31  1  0  0  0  0
 31 25  2  0  0  0  0
 31 32  1  0  0  0  0
 32 21  2  0  0  0  0
M  END
>  <minimizedAffinity>
-6.46573305

>  <minimizedRMSD>
1.55762064

$$$$
