
     RDKit          3D

 35 38  0  0  0  0  0  0  0  0999 V2000
   46.2848   34.7350   43.2394 C   0  0  0  0  0  0  0  0  0  0  0  0
   45.3091   35.7289   43.5768 C   0  0  0  0  0  0  0  0  0  0  0  0
   44.6391   35.5528   44.8060 C   0  0  0  0  0  0  0  0  0  0  0  0
   44.9556   34.4800   45.5691 N   0  0  0  0  0  0  0  0  0  0  0  0
   45.9003   33.5809   45.1678 C   0  0  0  0  0  0  0  0  0  0  0  0
   46.5658   33.6800   44.0348 N   0  0  0  0  0  0  0  0  0  0  0  0
   46.1944   32.4261   46.0833 C   0  0  1  0  0  0  0  0  0  0  0  0
   47.0407   32.6652   47.3130 C   0  0  0  0  0  0  0  0  0  0  0  0
   45.5458   32.4979   47.4105 C   0  0  1  0  0  0  0  0  0  0  0  0
   44.8890   33.7533   47.8190 N   0  0  0  0  0  0  0  0  0  0  0  0
   46.9166   35.0125   41.9835 C   0  0  0  0  0  0  0  0  0  0  0  0
   48.0938   35.5073   41.8648 O   0  0  0  0  0  0  0  0  0  0  0  0
   45.0802   36.5740   42.9452 H   0  0  0  0  0  0  0  0  0  0  0  0
   43.9061   36.2978   45.0647 H   0  0  0  0  0  0  0  0  0  0  0  0
   46.2713   31.4206   45.6146 H   0  0  0  0  0  0  0  0  0  0  0  0
   47.5075   33.6697   47.3050 H   0  0  0  0  0  0  0  0  0  0  0  0
   47.7013   31.8428   47.5865 H   0  0  0  0  0  0  0  0  0  0  0  0
   45.2213   31.6252   47.9721 H   0  0  0  0  0  0  0  0  0  0  0  0
   43.8691   33.6846   47.8290 H   0  0  0  0  0  0  0  0  0  0  0  0
   45.3703   34.0576   48.6694 H   0  0  0  0  0  0  0  0  0  0  0  0
   46.0433   34.8945   39.5419 C   0  0  0  0  0  0  0  0  0  0  0  0
   46.0198   34.6535   40.8945 C   0  0  0  0  0  0  0  0  0  0  0  0
   44.9676   33.8660   41.3878 C   0  0  0  0  0  0  0  0  0  0  0  0
   44.8315   33.5988   42.4317 H   0  0  0  0  0  0  0  0  0  0  0  0
   43.9850   33.3402   40.5750 C   0  0  0  0  0  0  0  0  0  0  0  0
   42.8929   32.5549   40.8094 N   0  0  0  0  0  0  0  0  0  0  0  0
   42.5886   32.1900   41.7412 H   0  0  0  0  0  0  0  0  0  0  0  0
   42.2661   32.3204   39.6429 C   0  0  0  0  0  0  0  0  0  0  0  0
   41.3717   31.7396   39.4784 H   0  0  0  0  0  0  0  0  0  0  0  0
   42.9516   32.9596   38.6052 C   0  0  0  0  0  0  0  0  0  0  0  0
   44.0211   33.5888   39.2181 C   0  0  0  0  0  0  0  0  0  0  0  0
   45.0678   34.3724   38.7356 C   0  0  0  0  0  0  0  0  0  0  0  0
   46.8870   35.5091   39.2643 H   0  0  0  0  0  0  0  0  0  0  0  0
   42.7278   32.9793   37.5473 H   0  0  0  0  0  0  0  0  0  0  0  0
   45.1566   34.6051   37.6697 H   0  0  0  0  0  0  0  0  0  0  0  0
  1  2  2  0
  1  6  1  0
  2  3  1  0
  3  4  2  0
  5  4  1  0
  5  7  1  0
  6  5  2  0
  7  8  1  0
  7  9  1  0
  8  9  1  0
  9 10  1  0
 11  1  1  0
 12 11  2  0
  2 13  1  0
  3 14  1  0
  7 15  1  6
  8 16  1  0
  8 17  1  0
  9 18  1  1
 10 19  1  0
 10 20  1  0
 21 22  2  0
 22 23  1  0
 23 24  1  0
 23 25  2  0
 25 26  1  0
 26 27  1  0
 26 28  1  0
 28 29  1  0
 28 30  2  0
 30 31  1  0
 31 32  2  0
 32 21  1  0
 31 25  1  0
 21 33  1  0
 30 34  1  0
 32 35  1  0
 11 22  1  0
M  ISO  8  13  14  14  14  15  13  16  13  17  13  18  13  19   5  20   5
M  ISO  3  24  15  27   5  29  14
M  END
>  <DihAtoms>  (1) 
0,10,21,20

>  <DihDeg>  (1) 
-26.393187849540602

$$$$
