
 OpenBabel03252502463D

 48 52  0  0  1  0  0  0  0  0999 V2000
   46.6230   35.3200   42.4570 C   0  0  0  0  0  0  0  0  0  0  0  0
   46.9810   35.6120   43.4650 H   0  0  0  0  0  0  0  0  0  0  0  0
   46.1010   36.2250   42.0660 H   0  0  0  0  0  0  0  0  0  0  0  0
   47.8000   34.9240   41.6260 C   0  0  1  0  0  0  0  0  0  0  0  0
   48.9730   35.8550   41.5960 C   0  0  0  0  0  0  0  0  0  0  0  0
   49.0280   34.5610   42.3220 C   0  0  2  0  0  0  0  0  0  0  0  0
   47.5330   34.5030   40.6620 H   0  0  0  0  0  0  0  0  0  0  0  0
   49.5230   36.0240   40.6510 H   0  0  0  0  0  0  0  0  0  0  0  0
   48.8730   36.8040   42.1780 H   0  0  0  0  0  0  0  0  0  0  0  0
   49.2020   34.6420   43.3880 H   0  0  0  0  0  0  0  0  0  0  0  0
   49.8050   33.5420   41.6200 N   0  0  0  0  0  0  0  0  0  0  0  0
   49.0370   32.6570   40.8220 C   0  0  0  0  0  0  0  0  0  0  0  0
   50.0300   31.6870   40.2070 C   0  0  0  0  0  0  0  0  0  0  0  0
   50.6870   30.9080   41.1950 N   0  0  0  0  0  0  0  0  0  0  0  0
   50.8150   31.5640   42.4830 C   0  0  0  0  0  0  0  0  0  0  0  0
   50.9460   33.0750   42.2820 C   0  0  0  0  0  0  0  0  0  0  0  0
   48.5740   33.2140   39.9730 H   0  0  0  0  0  0  0  0  0  0  0  0
   48.2720   32.1530   41.4280 H   0  0  0  0  0  0  0  0  0  0  0  0
   49.4670   31.0290   39.5020 H   0  0  0  0  0  0  0  0  0  0  0  0
   50.6880   32.3040   39.5650 H   0  0  0  0  0  0  0  0  0  0  0  0
   51.5750   30.5050   40.8510 H   0  0  0  0  0  0  0  0  0  0  0  0
   49.9140   31.4170   43.0960 H   0  0  0  0  0  0  0  0  0  0  0  0
   51.6950   31.1380   42.9700 H   0  0  0  0  0  0  0  0  0  0  0  0
   51.1080   33.5650   43.2430 H   0  0  0  0  0  0  0  0  0  0  0  0
   51.8840   33.2260   41.6810 H   0  0  0  0  0  0  0  0  0  0  0  0
   45.7380   34.1100   42.5620 C   0  0  0  0  0  0  0  0  0  0  0  0
   44.6950   34.4790   42.3400 H   0  0  0  0  0  0  0  0  0  0  0  0
   45.9160   33.3060   41.8670 H   0  0  0  0  0  0  0  0  0  0  0  0
   45.1390   34.2050   46.2630 C   0  0  0  0  0  0  0  0  0  0  0  0
   45.1960   34.6010   44.9080 C   0  0  0  0  0  0  0  0  0  0  0  0
   45.6680   33.7020   44.0020 C   0  0  0  0  0  0  0  0  0  0  0  0
   46.0650   32.4670   44.4250 N   0  0  0  0  0  0  0  0  0  0  0  0
   46.0090   32.1090   45.6880 C   0  0  0  0  0  0  0  0  0  0  0  0
   45.5480   32.9670   46.6200 N   0  0  0  0  0  0  0  0  0  0  0  0
   44.7740   34.8780   47.0190 H   0  0  0  0  0  0  0  0  0  0  0  0
   44.8540   35.6030   44.6900 H   0  0  0  0  0  0  0  0  0  0  0  0
   47.7180   30.3320   45.8190 C   0  0  0  0  0  3  0  0  0  0  0  0
   46.4440   30.7710   46.1180 C   0  0  0  0  0  0  0  0  0  0  0  0
   45.5830   29.9420   46.8250 C   0  0  0  0  0  0  0  0  0  0  0  0
   44.6050   30.2900   47.0500 H   0  0  0  0  0  0  0  0  0  0  0  0
   46.0840   28.6980   47.1880 C   0  0  0  0  0  0  0  0  0  0  0  0
   45.3890   27.7720   47.8730 N   0  0  0  0  0  0  0  0  0  0  0  0
   44.3960   27.7940   48.2490 H   0  0  0  0  0  0  0  0  0  0  0  0
   46.1740   26.7070   48.0450 C   0  0  0  0  0  0  0  0  0  0  0  0
   45.9440   25.7780   48.5510 H   0  0  0  0  0  0  0  0  0  0  0  0
   47.4120   26.9540   47.4520 C   0  0  0  0  0  3  0  0  0  0  0  0
   47.3440   28.2320   46.9060 C   0  0  0  0  0  0  0  0  0  0  0  0
   48.1930   29.0720   46.1990 C   0  0  0  0  0  3  0  0  0  0  0  0
  1 26  1  0  0  0  0
  1  2  1  0  0  0  0
  3  1  1  0  0  0  0
  4  7  1  6  0  0  0
  4  6  1  0  0  0  0
  4  1  1  0  0  0  0
  5  4  1  0  0  0  0
  5  9  1  0  0  0  0
  5  6  1  0  0  0  0
  6 10  1  1  0  0  0
  8  5  1  0  0  0  0
 11 16  1  0  0  0  0
 11  6  1  0  0  0  0
 12 18  1  0  0  0  0
 12 11  1  0  0  0  0
 13 12  1  0  0  0  0
 13 14  1  0  0  0  0
 14 15  1  0  0  0  0
 15 23  1  0  0  0  0
 15 22  1  0  0  0  0
 16 15  1  0  0  0  0
 16 24  1  0  0  0  0
 17 12  1  0  0  0  0
 19 13  1  0  0  0  0
 20 13  1  0  0  0  0
 21 14  1  0  0  0  0
 25 16  1  0  0  0  0
 26 31  1  0  0  0  0
 27 26  1  0  0  0  0
 28 26  1  0  0  0  0
 29 34  1  0  0  0  0
 29 35  1  0  0  0  0
 30 29  2  0  0  0  0
 31 32  2  0  0  0  0
 31 30  1  0  0  0  0
 32 33  1  0  0  0  0
 33 38  1  0  0  0  0
 33 34  2  0  0  0  0
 36 30  1  0  0  0  0
 37 38  2  0  0  0  0
 37 48  1  0  0  0  0
 38 39  1  0  0  0  0
 39 40  1  0  0  0  0
 39 41  2  0  0  0  0
 41 42  1  0  0  0  0
 42 44  1  0  0  0  0
 42 43  1  0  0  0  0
 44 45  1  0  0  0  0
 46 44  2  0  0  0  0
 47 41  1  0  0  0  0
 47 46  1  0  0  0  0
 48 47  2  0  0  0  0
M  END
>  <minimizedAffinity>
-5.37343264

>  <minimizedRMSD>
2.73801732

$$$$
