
 OpenBabel03252502453D

 48 52  0  0  1  0  0  0  0  0999 V2000
   46.7170   35.4920   42.1240 C   0  0  0  0  0  0  0  0  0  0  0  0
   46.9910   35.9830   43.0810 H   0  0  0  0  0  0  0  0  0  0  0  0
   46.1510   36.2670   41.5570 H   0  0  0  0  0  0  0  0  0  0  0  0
   47.9680   35.0630   41.4310 C   0  0  1  0  0  0  0  0  0  0  0  0
   49.1940   35.9030   41.6250 C   0  0  0  0  0  0  0  0  0  0  0  0
   49.0620   34.5650   42.2550 C   0  0  2  0  0  0  0  0  0  0  0  0
   47.8090   34.7260   40.4120 H   0  0  0  0  0  0  0  0  0  0  0  0
   49.8780   36.0900   40.7760 H   0  0  0  0  0  0  0  0  0  0  0  0
   49.0760   36.8180   42.2560 H   0  0  0  0  0  0  0  0  0  0  0  0
   49.0930   34.5640   43.3380 H   0  0  0  0  0  0  0  0  0  0  0  0
   49.8600   33.5370   41.5890 N   0  0  0  0  0  0  0  0  0  0  0  0
   49.1180   32.6490   40.7710 C   0  0  0  0  0  0  0  0  0  0  0  0
   50.1290   31.6710   40.1990 C   0  0  0  0  0  0  0  0  0  0  0  0
   50.7470   30.8970   41.2170 N   0  0  0  0  0  0  0  0  0  0  0  0
   50.8310   31.5630   42.5040 C   0  0  0  0  0  0  0  0  0  0  0  0
   50.9750   33.0710   42.2960 C   0  0  0  0  0  0  0  0  0  0  0  0
   48.6880   33.2020   39.9010 H   0  0  0  0  0  0  0  0  0  0  0  0
   48.3290   32.1530   41.3520 H   0  0  0  0  0  0  0  0  0  0  0  0
   49.5890   31.0090   39.4800 H   0  0  0  0  0  0  0  0  0  0  0  0
   50.8130   32.2800   39.5770 H   0  0  0  0  0  0  0  0  0  0  0  0
   51.6450   30.4880   40.9090 H   0  0  0  0  0  0  0  0  0  0  0  0
   49.9070   31.4230   43.0840 H   0  0  0  0  0  0  0  0  0  0  0  0
   51.6910   31.1370   43.0250 H   0  0  0  0  0  0  0  0  0  0  0  0
   51.1040   33.5690   43.2580 H   0  0  0  0  0  0  0  0  0  0  0  0
   51.9340   33.2140   41.7270 H   0  0  0  0  0  0  0  0  0  0  0  0
   45.9240   34.2460   42.4010 C   0  0  0  0  0  0  0  0  0  0  0  0
   44.8840   34.4590   42.0170 H   0  0  0  0  0  0  0  0  0  0  0  0
   46.2370   33.3410   41.9050 H   0  0  0  0  0  0  0  0  0  0  0  0
   44.6760   34.8340   45.8880 C   0  0  0  0  0  0  0  0  0  0  0  0
   44.8410   34.9540   44.4900 C   0  0  0  0  0  0  0  0  0  0  0  0
   45.7350   34.1270   43.8830 C   0  0  0  0  0  0  0  0  0  0  0  0
   46.4320   33.2250   44.6320 N   0  0  0  0  0  0  0  0  0  0  0  0
   46.2710   33.1220   45.9310 C   0  0  0  0  0  0  0  0  0  0  0  0
   45.3970   33.9200   46.5750 N   0  0  0  0  0  0  0  0  0  0  0  0
   43.9820   35.4640   46.4170 H   0  0  0  0  0  0  0  0  0  0  0  0
   44.2350   35.7040   44.0010 H   0  0  0  0  0  0  0  0  0  0  0  0
   47.4230   32.4410   48.0060 C   0  0  0  0  0  3  0  0  0  0  0  0
   47.0360   32.1400   46.7170 C   0  0  0  0  0  0  0  0  0  0  0  0
   47.3720   30.9080   46.1690 C   0  0  0  0  0  0  0  0  0  0  0  0
   47.0680   30.6860   45.1770 H   0  0  0  0  0  0  0  0  0  0  0  0
   48.0930   30.0480   46.9880 C   0  0  0  0  0  0  0  0  0  0  0  0
   48.5020   28.8190   46.6230 N   0  0  0  0  0  0  0  0  0  0  0  0
   48.3690   28.2910   45.7090 H   0  0  0  0  0  0  0  0  0  0  0  0
   49.1620   28.2800   47.6460 C   0  0  0  0  0  0  0  0  0  0  0  0
   49.6290   27.3030   47.7060 H   0  0  0  0  0  0  0  0  0  0  0  0
   49.1820   29.1870   48.7050 C   0  0  0  0  0  3  0  0  0  0  0  0
   48.4940   30.3180   48.2730 C   0  0  0  0  0  0  0  0  0  0  0  0
   48.1510   31.5520   48.8040 C   0  0  0  0  0  3  0  0  0  0  0  0
  1 26  1  0  0  0  0
  1  2  1  0  0  0  0
  3  1  1  0  0  0  0
  4  7  1  6  0  0  0
  4  5  1  0  0  0  0
  4  1  1  0  0  0  0
  4  6  1  0  0  0  0
  5  6  1  0  0  0  0
  5  9  1  0  0  0  0
  6 10  1  1  0  0  0
  8  5  1  0  0  0  0
 11  6  1  0  0  0  0
 11 16  1  0  0  0  0
 12 18  1  0  0  0  0
 12 11  1  0  0  0  0
 13 12  1  0  0  0  0
 13 14  1  0  0  0  0
 14 15  1  0  0  0  0
 15 23  1  0  0  0  0
 15 22  1  0  0  0  0
 16 15  1  0  0  0  0
 16 24  1  0  0  0  0
 17 12  1  0  0  0  0
 19 13  1  0  0  0  0
 20 13  1  0  0  0  0
 21 14  1  0  0  0  0
 25 16  1  0  0  0  0
 26 31  1  0  0  0  0
 27 26  1  0  0  0  0
 28 26  1  0  0  0  0
 29 35  1  0  0  0  0
 29 34  1  0  0  0  0
 30 29  2  0  0  0  0
 31 30  1  0  0  0  0
 31 32  2  0  0  0  0
 32 33  1  0  0  0  0
 33 34  2  0  0  0  0
 33 38  1  0  0  0  0
 36 30  1  0  0  0  0
 37 48  1  0  0  0  0
 38 37  2  0  0  0  0
 39 38  1  0  0  0  0
 39 41  2  0  0  0  0
 40 39  1  0  0  0  0
 41 47  1  0  0  0  0
 42 41  1  0  0  0  0
 42 44  1  0  0  0  0
 43 42  1  0  0  0  0
 44 45  1  0  0  0  0
 44 46  2  0  0  0  0
 47 46  1  0  0  0  0
 47 48  2  0  0  0  0
M  END
>  <minimizedAffinity>
-5.92841864

>  <minimizedRMSD>
2.17366123

$$$$
