
 OpenBabel03252502373D

 27 29  0  0  1  0  0  0  0  0999 V2000
   37.7920   27.9070   43.6800 C   0  0  2  0  0  0  0  0  0  0  0  0
   38.0330   28.1590   44.7190 H   0  0  0  0  0  0  0  0  0  0  0  0
   39.3390   29.6800   42.7000 C   0  0  0  0  0  3  0  0  0  0  0  0
   38.1060   29.0730   42.8280 C   0  0  0  0  0  0  0  0  0  0  0  0
   37.0820   29.6450   42.0660 C   0  0  0  0  0  0  0  0  0  0  0  0
   36.0580   29.2430   42.0910 H   0  0  0  0  0  0  0  0  0  0  0  0
   37.2610   30.7350   41.2370 C   0  0  0  0  0  0  0  0  0  0  0  0
   36.4210   31.4220   40.4360 N   0  0  0  0  0  0  0  0  0  0  0  0
   35.3970   31.2400   40.2830 H   0  0  0  0  0  0  0  0  0  0  0  0
   37.1260   32.3980   39.8530 C   0  0  0  0  0  0  0  0  0  0  0  0
   36.7940   33.1500   39.1480 H   0  0  0  0  0  0  0  0  0  0  0  0
   38.4380   32.3640   40.2660 C   0  0  0  0  0  3  0  0  0  0  0  0
   38.5120   31.3020   41.1450 C   0  0  0  0  0  0  0  0  0  0  0  0
   39.5660   30.7640   41.8900 C   0  0  0  0  0  3  0  0  0  0  0  0
   37.8810   26.0410   42.1710 C   0  0  0  0  0  0  0  0  0  0  0  0
   38.4920   26.7320   43.2120 C   0  0  0  0  0  0  0  0  0  0  0  0
   39.7040   26.2190   43.6760 C   0  0  0  0  0  0  0  0  0  0  0  0
   40.1860   25.1050   43.0880 N   0  0  0  0  0  0  0  0  0  0  0  0
   39.5750   24.4640   42.0880 C   0  0  0  0  0  0  0  0  0  0  0  0
   38.4100   24.9230   41.6150 N   0  0  0  0  0  0  0  0  0  0  0  0
   36.9300   26.2780   41.6670 H   0  0  0  0  0  0  0  0  0  0  0  0
   40.1610   26.7690   44.4820 H   0  0  0  0  0  0  0  0  0  0  0  0
   40.1180   23.5930   41.7510 H   0  0  0  0  0  0  0  0  0  0  0  0
   36.2980   27.5770   43.6180 C   0  0  0  0  0  0  0  0  0  0  0  0
   36.0250   26.9400   44.4860 H   0  0  0  0  0  0  0  0  0  0  0  0
   35.6840   28.5140   43.7350 H   0  0  0  0  0  0  0  0  0  0  0  0
   36.0300   27.0890   42.6680 H   0  0  0  0  0  0  0  0  0  0  0  0
  1  2  1  1  0  0  0
  3  4  1  0  0  0  0
  4  1  1  0  0  0  0
  5  6  1  0  0  0  0
  5  4  2  0  0  0  0
  7  5  1  0  0  0  0
  8  7  1  0  0  0  0
  9  8  1  0  0  0  0
 10 12  2  0  0  0  0
 10  8  1  0  0  0  0
 11 10  1  0  0  0  0
 12 13  1  0  0  0  0
 13  7  2  0  0  0  0
 13 14  1  0  0  0  0
 14  3  2  0  0  0  0
 15 16  1  0  0  0  0
 16 17  2  0  0  0  0
 16  1  1  0  0  0  0
 17 22  1  0  0  0  0
 18 17  1  0  0  0  0
 19 18  2  0  0  0  0
 20 19  1  0  0  0  0
 20 15  2  0  0  0  0
 21 15  1  0  0  0  0
 23 19  1  0  0  0  0
 24  1  1  0  0  0  0
 24 26  1  0  0  0  0
 24 25  1  0  0  0  0
 27 24  1  0  0  0  0
M  END
>  <minimizedAffinity>
-5.38952875

$$$$

 OpenBabel03252502373D

 27 29  0  0  1  0  0  0  0  0999 V2000
   37.9100   28.0700   43.4360 C   0  0  2  0  0  0  0  0  0  0  0  0
   38.2400   28.3850   44.4320 H   0  0  0  0  0  0  0  0  0  0  0  0
   36.8250   29.6300   41.7370 C   0  0  0  0  0  3  0  0  0  0  0  0
   37.8710   29.2570   42.5560 C   0  0  0  0  0  0  0  0  0  0  0  0
   38.9810   30.1070   42.5220 C   0  0  0  0  0  0  0  0  0  0  0  0
   39.8730   29.9060   43.1350 H   0  0  0  0  0  0  0  0  0  0  0  0
   39.0540   31.2410   41.7400 C   0  0  0  0  0  0  0  0  0  0  0  0
   40.0150   32.1730   41.5680 N   0  0  0  0  0  0  0  0  0  0  0  0
   40.9550   32.2100   42.0340 H   0  0  0  0  0  0  0  0  0  0  0  0
   39.5580   33.0660   40.6820 C   0  0  0  0  0  0  0  0  0  0  0  0
   40.0450   33.9530   40.2960 H   0  0  0  0  0  0  0  0  0  0  0  0
   38.2910   32.7300   40.2610 C   0  0  0  0  0  3  0  0  0  0  0  0
   37.9820   31.5680   40.9400 C   0  0  0  0  0  0  0  0  0  0  0  0
   36.8500   30.7480   40.9410 C   0  0  0  0  0  3  0  0  0  0  0  0
   39.7870   26.5920   43.6790 C   0  0  0  0  0  0  0  0  0  0  0  0
   38.7530   27.0430   42.8660 C   0  0  0  0  0  0  0  0  0  0  0  0
   38.6460   26.4530   41.6050 C   0  0  0  0  0  0  0  0  0  0  0  0
   39.5420   25.5010   41.2750 N   0  0  0  0  0  0  0  0  0  0  0  0
   40.5250   25.0880   42.0800 C   0  0  0  0  0  0  0  0  0  0  0  0
   40.6620   25.6290   43.2960 N   0  0  0  0  0  0  0  0  0  0  0  0
   40.0410   26.9250   44.6980 H   0  0  0  0  0  0  0  0  0  0  0  0
   37.8390   26.8170   40.9910 H   0  0  0  0  0  0  0  0  0  0  0  0
   41.1380   24.3170   41.6350 H   0  0  0  0  0  0  0  0  0  0  0  0
   36.5150   27.4580   43.5820 C   0  0  0  0  0  0  0  0  0  0  0  0
   36.4930   26.7970   44.4750 H   0  0  0  0  0  0  0  0  0  0  0  0
   35.7530   28.2600   43.7910 H   0  0  0  0  0  0  0  0  0  0  0  0
   36.2170   26.9080   42.6750 H   0  0  0  0  0  0  0  0  0  0  0  0
  1 24  1  0  0  0  0
  1  2  1  1  0  0  0
  3  4  1  0  0  0  0
  4  1  1  0  0  0  0
  5  4  2  0  0  0  0
  5  6  1  0  0  0  0
  7  5  1  0  0  0  0
  8  7  1  0  0  0  0
  8  9  1  0  0  0  0
 10  8  1  0  0  0  0
 11 10  1  0  0  0  0
 12 10  2  0  0  0  0
 12 13  1  0  0  0  0
 13 14  1  0  0  0  0
 13  7  2  0  0  0  0
 14  3  2  0  0  0  0
 15 21  1  0  0  0  0
 16  1  1  0  0  0  0
 16 15  2  0  0  0  0
 17 16  1  0  0  0  0
 18 17  2  0  0  0  0
 18 19  1  0  0  0  0
 19 20  2  0  0  0  0
 20 15  1  0  0  0  0
 22 17  1  0  0  0  0
 23 19  1  0  0  0  0
 24 26  1  0  0  0  0
 24 25  1  0  0  0  0
 27 24  1  0  0  0  0
M  END
>  <minimizedAffinity>
-5.19885683

$$$$

 OpenBabel03252502373D

 27 29  0  0  1  0  0  0  0  0999 V2000
   38.0110   27.8880   43.5100 C   0  0  2  0  0  0  0  0  0  0  0  0
   38.4020   28.0770   44.5170 H   0  0  0  0  0  0  0  0  0  0  0  0
   39.3440   29.8960   42.6780 C   0  0  0  0  0  3  0  0  0  0  0  0
   38.2150   29.1020   42.6920 C   0  0  0  0  0  0  0  0  0  0  0  0
   37.1880   29.5190   41.8380 C   0  0  0  0  0  0  0  0  0  0  0  0
   36.2420   28.9610   41.7680 H   0  0  0  0  0  0  0  0  0  0  0  0
   37.2690   30.6350   41.0300 C   0  0  0  0  0  0  0  0  0  0  0  0
   36.4090   31.1950   40.1550 N   0  0  0  0  0  0  0  0  0  0  0  0
   35.4450   30.8570   39.9080 H   0  0  0  0  0  0  0  0  0  0  0  0
   37.0020   32.2770   39.6400 C   0  0  0  0  0  0  0  0  0  0  0  0
   36.6230   32.9790   38.9070 H   0  0  0  0  0  0  0  0  0  0  0  0
   38.2610   32.4420   40.1730 C   0  0  0  0  0  3  0  0  0  0  0  0
   38.4190   31.3920   41.0550 C   0  0  0  0  0  0  0  0  0  0  0  0
   39.4720   31.0140   41.8930 C   0  0  0  0  0  3  0  0  0  0  0  0
   39.7090   26.1910   43.5480 C   0  0  0  0  0  0  0  0  0  0  0  0
   38.6210   26.7410   42.8780 C   0  0  0  0  0  0  0  0  0  0  0  0
   38.2430   26.1220   41.6860 C   0  0  0  0  0  0  0  0  0  0  0  0
   38.9530   25.0500   41.2770 N   0  0  0  0  0  0  0  0  0  0  0  0
   39.9940   24.5450   41.9440 C   0  0  0  0  0  0  0  0  0  0  0  0
   40.3880   25.1100   43.0920 N   0  0  0  0  0  0  0  0  0  0  0  0
   40.1610   26.5270   44.4950 H   0  0  0  0  0  0  0  0  0  0  0  0
   37.3990   26.5630   41.1820 H   0  0  0  0  0  0  0  0  0  0  0  0
   40.4310   23.6850   41.4560 H   0  0  0  0  0  0  0  0  0  0  0  0
   36.5200   27.5710   43.6460 C   0  0  0  0  0  0  0  0  0  0  0  0
   36.3650   26.8840   44.5050 H   0  0  0  0  0  0  0  0  0  0  0  0
   35.9410   28.5010   43.9050 H   0  0  0  0  0  0  0  0  0  0  0  0
   36.1120   27.1410   42.7170 H   0  0  0  0  0  0  0  0  0  0  0  0
  1 24  1  0  0  0  0
  1  2  1  1  0  0  0
  3  4  1  0  0  0  0
  4  1  1  0  0  0  0
  5  4  2  0  0  0  0
  6  5  1  0  0  0  0
  7 13  2  0  0  0  0
  7  5  1  0  0  0  0
  8  7  1  0  0  0  0
  9  8  1  0  0  0  0
 10  8  1  0  0  0  0
 10 12  2  0  0  0  0
 11 10  1  0  0  0  0
 12 13  1  0  0  0  0
 13 14  1  0  0  0  0
 14  3  2  0  0  0  0
 15 21  1  0  0  0  0
 16  1  1  0  0  0  0
 16 15  2  0  0  0  0
 17 16  1  0  0  0  0
 18 17  2  0  0  0  0
 18 19  1  0  0  0  0
 19 20  2  0  0  0  0
 20 15  1  0  0  0  0
 22 17  1  0  0  0  0
 23 19  1  0  0  0  0
 24 26  1  0  0  0  0
 24 25  1  0  0  0  0
 27 24  1  0  0  0  0
M  END
>  <minimizedAffinity>
-5.1118145

$$$$

 OpenBabel03252502373D

 27 29  0  0  1  0  0  0  0  0999 V2000
   36.5780   28.3690   42.3660 C   0  0  2  0  0  0  0  0  0  0  0  0
   35.5120   28.4150   42.6140 H   0  0  0  0  0  0  0  0  0  0  0  0
   36.5720   27.1040   40.1520 C   0  0  0  0  0  3  0  0  0  0  0  0
   36.8110   27.1870   41.5090 C   0  0  0  0  0  0  0  0  0  0  0  0
   37.3190   26.0220   42.0930 C   0  0  0  0  0  0  0  0  0  0  0  0
   37.5460   25.9750   43.1690 H   0  0  0  0  0  0  0  0  0  0  0  0
   37.5740   24.8620   41.3910 C   0  0  0  0  0  0  0  0  0  0  0  0
   38.0530   23.6560   41.7610 N   0  0  0  0  0  0  0  0  0  0  0  0
   38.3440   23.3560   42.7250 H   0  0  0  0  0  0  0  0  0  0  0  0
   38.1000   22.8860   40.6670 C   0  0  0  0  0  0  0  0  0  0  0  0
   38.4280   21.8590   40.5710 H   0  0  0  0  0  0  0  0  0  0  0  0
   37.6490   23.5790   39.5660 C   0  0  0  0  0  3  0  0  0  0  0  0
   37.3180   24.8330   40.0380 C   0  0  0  0  0  0  0  0  0  0  0  0
   36.8090   25.9740   39.4120 C   0  0  0  0  0  3  0  0  0  0  0  0
   38.4280   29.7810   41.7740 C   0  0  0  0  0  0  0  0  0  0  0  0
   37.0550   29.5690   41.7160 C   0  0  0  0  0  0  0  0  0  0  0  0
   36.3030   30.5290   41.0380 C   0  0  0  0  0  0  0  0  0  0  0  0
   36.9550   31.5770   40.4950 N   0  0  0  0  0  0  0  0  0  0  0  0
   38.2780   31.7530   40.5680 C   0  0  0  0  0  0  0  0  0  0  0  0
   39.0350   30.8550   41.2100 N   0  0  0  0  0  0  0  0  0  0  0  0
   39.1910   29.1490   42.2570 H   0  0  0  0  0  0  0  0  0  0  0  0
   35.2410   30.3470   41.0050 H   0  0  0  0  0  0  0  0  0  0  0  0
   38.6120   32.6520   40.0720 H   0  0  0  0  0  0  0  0  0  0  0  0
   37.3540   28.2470   43.6800 C   0  0  0  0  0  0  0  0  0  0  0  0
   36.9260   28.9480   44.4280 H   0  0  0  0  0  0  0  0  0  0  0  0
   37.2160   27.2220   44.1240 H   0  0  0  0  0  0  0  0  0  0  0  0
   38.4300   28.4330   43.5330 H   0  0  0  0  0  0  0  0  0  0  0  0
  1  2  1  1  0  0  0
  1 24  1  0  0  0  0
  3  4  1  0  0  0  0
  4  5  2  0  0  0  0
  4  1  1  0  0  0  0
  5  6  1  0  0  0  0
  7  8  1  0  0  0  0
  7  5  1  0  0  0  0
  8  9  1  0  0  0  0
 10  8  1  0  0  0  0
 11 10  1  0  0  0  0
 12 13  1  0  0  0  0
 12 10  2  0  0  0  0
 13  7  2  0  0  0  0
 14 13  1  0  0  0  0
 14  3  2  0  0  0  0
 15 21  1  0  0  0  0
 16 15  1  0  0  0  0
 16  1  1  0  0  0  0
 17 16  2  0  0  0  0
 18 19  2  0  0  0  0
 18 17  1  0  0  0  0
 19 20  1  0  0  0  0
 20 15  2  0  0  0  0
 22 17  1  0  0  0  0
 23 19  1  0  0  0  0
 24 26  1  0  0  0  0
 24 25  1  0  0  0  0
 27 24  1  0  0  0  0
M  END
>  <minimizedAffinity>
-5.0905571

$$$$

 OpenBabel03252502373D

 27 29  0  0  1  0  0  0  0  0999 V2000
   37.5780   27.7180   42.7860 C   0  0  2  0  0  0  0  0  0  0  0  0
   38.4220   27.9650   43.4400 H   0  0  0  0  0  0  0  0  0  0  0  0
   36.1950   29.0480   41.1070 C   0  0  0  0  0  3  0  0  0  0  0  0
   37.2950   28.8860   41.9240 C   0  0  0  0  0  0  0  0  0  0  0  0
   38.2070   29.9460   41.9070 C   0  0  0  0  0  0  0  0  0  0  0  0
   39.1210   29.9240   42.5200 H   0  0  0  0  0  0  0  0  0  0  0  0
   38.0450   31.0830   41.1420 C   0  0  0  0  0  0  0  0  0  0  0  0
   38.7930   32.1960   40.9880 N   0  0  0  0  0  0  0  0  0  0  0  0
   39.7060   32.4180   41.4580 H   0  0  0  0  0  0  0  0  0  0  0  0
   38.1630   32.9890   40.1150 C   0  0  0  0  0  0  0  0  0  0  0  0
   38.4570   33.9630   39.7430 H   0  0  0  0  0  0  0  0  0  0  0  0
   36.9920   32.4060   39.6840 C   0  0  0  0  0  3  0  0  0  0  0  0
   36.9280   31.1950   40.3450 C   0  0  0  0  0  0  0  0  0  0  0  0
   35.9900   30.1600   40.3290 C   0  0  0  0  0  3  0  0  0  0  0  0
   36.9540   25.4730   42.2070 C   0  0  0  0  0  0  0  0  0  0  0  0
   37.8170   26.5410   41.9830 C   0  0  0  0  0  0  0  0  0  0  0  0
   38.8020   26.3540   41.0120 C   0  0  0  0  0  0  0  0  0  0  0  0
   38.8430   25.1680   40.3720 N   0  0  0  0  0  0  0  0  0  0  0  0
   37.9980   24.1610   40.6100 C   0  0  0  0  0  0  0  0  0  0  0  0
   37.0390   24.2990   41.5330 N   0  0  0  0  0  0  0  0  0  0  0  0
   36.1180   25.4170   42.9230 H   0  0  0  0  0  0  0  0  0  0  0  0
   39.4600   27.1920   40.8540 H   0  0  0  0  0  0  0  0  0  0  0  0
   38.1920   23.2940   39.9950 H   0  0  0  0  0  0  0  0  0  0  0  0
   36.3770   27.4010   43.6800 C   0  0  0  0  0  0  0  0  0  0  0  0
   36.7060   26.7620   44.5270 H   0  0  0  0  0  0  0  0  0  0  0  0
   35.9820   28.3410   44.1560 H   0  0  0  0  0  0  0  0  0  0  0  0
   35.5660   26.9190   43.1110 H   0  0  0  0  0  0  0  0  0  0  0  0
  1  2  1  1  0  0  0
  1 24  1  0  0  0  0
  3  4  1  0  0  0  0
  4  1  1  0  0  0  0
  5  4  2  0  0  0  0
  5  6  1  0  0  0  0
  7  5  1  0  0  0  0
  8  7  1  0  0  0  0
  8  9  1  0  0  0  0
 10  8  1  0  0  0  0
 11 10  1  0  0  0  0
 12 10  2  0  0  0  0
 12 13  1  0  0  0  0
 13  7  2  0  0  0  0
 14 13  1  0  0  0  0
 14  3  2  0  0  0  0
 15 21  1  0  0  0  0
 16 15  1  0  0  0  0
 16  1  1  0  0  0  0
 17 16  2  0  0  0  0
 18 19  2  0  0  0  0
 18 17  1  0  0  0  0
 19 20  1  0  0  0  0
 20 15  2  0  0  0  0
 22 17  1  0  0  0  0
 23 19  1  0  0  0  0
 24 26  1  0  0  0  0
 24 25  1  0  0  0  0
 27 24  1  0  0  0  0
M  END
>  <minimizedAffinity>
-5.06220245

$$$$

 OpenBabel03252502373D

 27 29  0  0  1  0  0  0  0  0999 V2000
   38.8810   30.0700   42.5810 C   0  0  2  0  0  0  0  0  0  0  0  0
   38.6350   30.5620   43.5290 H   0  0  0  0  0  0  0  0  0  0  0  0
   37.2140   28.3050   43.3600 C   0  0  0  0  0  3  0  0  0  0  0  0
   38.2740   28.7220   42.5810 C   0  0  0  0  0  0  0  0  0  0  0  0
   38.7970   27.7480   41.7240 C   0  0  0  0  0  0  0  0  0  0  0  0
   39.6440   27.9700   41.0570 H   0  0  0  0  0  0  0  0  0  0  0  0
   38.3110   26.4590   41.6410 C   0  0  0  0  0  0  0  0  0  0  0  0
   38.6680   25.3930   40.8950 N   0  0  0  0  0  0  0  0  0  0  0  0
   39.4420   25.3450   40.1860 H   0  0  0  0  0  0  0  0  0  0  0  0
   37.8520   24.3830   41.2170 C   0  0  0  0  0  0  0  0  0  0  0  0
   37.8340   23.3720   40.8280 H   0  0  0  0  0  0  0  0  0  0  0  0
   36.9490   24.7740   42.1800 C   0  0  0  0  0  3  0  0  0  0  0  0
   37.2500   26.0960   42.4410 C   0  0  0  0  0  0  0  0  0  0  0  0
   36.6950   27.0360   43.3130 C   0  0  0  0  0  3  0  0  0  0  0  0
   39.4560   31.3190   40.6130 C   0  0  0  0  0  0  0  0  0  0  0  0
   38.4440   30.8240   41.4280 C   0  0  0  0  0  0  0  0  0  0  0  0
   37.1340   31.1060   41.0390 C   0  0  0  0  0  0  0  0  0  0  0  0
   36.9490   31.8280   39.9150 N   0  0  0  0  0  0  0  0  0  0  0  0
   37.9440   32.2890   39.1520 C   0  0  0  0  0  0  0  0  0  0  0  0
   39.2150   32.0410   39.4910 N   0  0  0  0  0  0  0  0  0  0  0  0
   40.5450   31.2090   40.7430 H   0  0  0  0  0  0  0  0  0  0  0  0
   36.3640   30.7140   41.6840 H   0  0  0  0  0  0  0  0  0  0  0  0
   37.5940   32.8450   38.2940 H   0  0  0  0  0  0  0  0  0  0  0  0
   40.4060   29.9770   42.4900 C   0  0  0  0  0  0  0  0  0  0  0  0
   40.8540   30.9390   42.8180 H   0  0  0  0  0  0  0  0  0  0  0  0
   40.7970   29.2080   43.2130 H   0  0  0  0  0  0  0  0  0  0  0  0
   40.7350   29.7140   41.4720 H   0  0  0  0  0  0  0  0  0  0  0  0
  1  4  1  0  0  0  0
  1  2  1  1  0  0  0
  4  3  2  0  0  0  0
  5  4  1  0  0  0  0
  6  5  1  0  0  0  0
  7  5  2  0  0  0  0
  7 13  1  0  0  0  0
  8 10  1  0  0  0  0
  8  7  1  0  0  0  0
  9  8  1  0  0  0  0
 10 12  2  0  0  0  0
 11 10  1  0  0  0  0
 12 13  1  0  0  0  0
 13 14  2  0  0  0  0
 14  3  1  0  0  0  0
 15 21  1  0  0  0  0
 15 16  1  0  0  0  0
 16  1  1  0  0  0  0
 17 16  2  0  0  0  0
 17 22  1  0  0  0  0
 18 17  1  0  0  0  0
 19 20  1  0  0  0  0
 19 18  2  0  0  0  0
 20 15  2  0  0  0  0
 23 19  1  0  0  0  0
 24  1  1  0  0  0  0
 24 25  1  0  0  0  0
 24 26  1  0  0  0  0
 27 24  1  0  0  0  0
M  END
>  <minimizedAffinity>
-4.96021223

$$$$

 OpenBabel03252502373D

 27 29  0  0  1  0  0  0  0  0999 V2000
   36.2580   28.9960   39.8760 C   0  0  2  0  0  0  0  0  0  0  0  0
   36.3620   28.3960   38.9650 H   0  0  0  0  0  0  0  0  0  0  0  0
   36.5150   27.9990   42.2090 C   0  0  0  0  0  3  0  0  0  0  0  0
   37.0080   28.3330   40.9640 C   0  0  0  0  0  0  0  0  0  0  0  0
   38.3490   27.9970   40.7490 C   0  0  0  0  0  0  0  0  0  0  0  0
   38.8470   28.2170   39.7920 H   0  0  0  0  0  0  0  0  0  0  0  0
   39.1440   27.3780   41.6910 C   0  0  0  0  0  0  0  0  0  0  0  0
   40.4330   26.9780   41.6800 N   0  0  0  0  0  0  0  0  0  0  0  0
   41.1210   27.0720   40.8920 H   0  0  0  0  0  0  0  0  0  0  0  0
   40.6960   26.4280   42.8710 C   0  0  0  0  0  0  0  0  0  0  0  0
   41.6210   25.9960   43.2330 H   0  0  0  0  0  0  0  0  0  0  0  0
   39.5820   26.4600   43.6790 C   0  0  0  0  0  3  0  0  0  0  0  0
   38.6020   27.0660   42.9180 C   0  0  0  0  0  0  0  0  0  0  0  0
   37.2660   27.3830   43.1780 C   0  0  0  0  0  3  0  0  0  0  0  0
   37.0270   30.7290   38.4030 C   0  0  0  0  0  0  0  0  0  0  0  0
   36.7090   30.3580   39.7050 C   0  0  0  0  0  0  0  0  0  0  0  0
   36.8550   31.3390   40.6880 C   0  0  0  0  0  0  0  0  0  0  0  0
   37.2880   32.5580   40.3050 N   0  0  0  0  0  0  0  0  0  0  0  0
   37.5860   32.8830   39.0440 C   0  0  0  0  0  0  0  0  0  0  0  0
   37.4590   31.9710   38.0730 N   0  0  0  0  0  0  0  0  0  0  0  0
   36.9810   30.1100   37.4930 H   0  0  0  0  0  0  0  0  0  0  0  0
   36.6030   31.0320   41.6890 H   0  0  0  0  0  0  0  0  0  0  0  0
   37.9150   33.9070   38.9400 H   0  0  0  0  0  0  0  0  0  0  0  0
   34.7670   29.0690   40.2140 C   0  0  0  0  0  0  0  0  0  0  0  0
   34.1870   29.2550   39.2850 H   0  0  0  0  0  0  0  0  0  0  0  0
   34.4000   28.0750   40.5960 H   0  0  0  0  0  0  0  0  0  0  0  0
   34.5610   29.8420   40.9710 H   0  0  0  0  0  0  0  0  0  0  0  0
  1  2  1  6  0  0  0
  1 24  1  0  0  0  0
  1  4  1  0  0  0  0
  3 14  1  0  0  0  0
  4  3  2  0  0  0  0
  5  4  1  0  0  0  0
  5  7  2  0  0  0  0
  6  5  1  0  0  0  0
  7 13  1  0  0  0  0
  8  7  1  0  0  0  0
  8 10  1  0  0  0  0
  9  8  1  0  0  0  0
 10 11  1  0  0  0  0
 10 12  2  0  0  0  0
 13 14  2  0  0  0  0
 13 12  1  0  0  0  0
 15 16  1  0  0  0  0
 16  1  1  0  0  0  0
 16 17  2  0  0  0  0
 17 22  1  0  0  0  0
 18 17  1  0  0  0  0
 19 18  2  0  0  0  0
 20 15  2  0  0  0  0
 20 19  1  0  0  0  0
 21 15  1  0  0  0  0
 23 19  1  0  0  0  0
 24 26  1  0  0  0  0
 24 27  1  0  0  0  0
 25 24  1  0  0  0  0
M  END
>  <minimizedAffinity>
-4.93258762

$$$$

 OpenBabel03252502373D

 27 29  0  0  1  0  0  0  0  0999 V2000
   37.4960   31.5460   38.8830 C   0  0  2  0  0  0  0  0  0  0  0  0
   36.9890   31.4120   37.9200 H   0  0  0  0  0  0  0  0  0  0  0  0
   36.6230   29.1910   39.3260 C   0  0  0  0  0  3  0  0  0  0  0  0
   37.1930   30.3790   39.7390 C   0  0  0  0  0  0  0  0  0  0  0  0
   37.4970   30.4470   41.1020 C   0  0  0  0  0  0  0  0  0  0  0  0
   37.9540   31.3470   41.5410 H   0  0  0  0  0  0  0  0  0  0  0  0
   37.2580   29.4200   41.9920 C   0  0  0  0  0  0  0  0  0  0  0  0
   37.4740   29.2900   43.3180 N   0  0  0  0  0  0  0  0  0  0  0  0
   37.8960   30.0010   43.9660 H   0  0  0  0  0  0  0  0  0  0  0  0
   37.0510   28.0730   43.6790 C   0  0  0  0  0  0  0  0  0  0  0  0
   37.0610   27.6120   44.6590 H   0  0  0  0  0  0  0  0  0  0  0  0
   36.5510   27.3900   42.5940 C   0  0  0  0  0  3  0  0  0  0  0  0
   36.6880   28.2560   41.5270 C   0  0  0  0  0  0  0  0  0  0  0  0
   36.3670   28.1430   40.1720 C   0  0  0  0  0  3  0  0  0  0  0  0
   39.5680   30.7950   37.9300 C   0  0  0  0  0  0  0  0  0  0  0  0
   38.9240   31.7190   38.7460 C   0  0  0  0  0  0  0  0  0  0  0  0
   39.7240   32.7020   39.3290 C   0  0  0  0  0  0  0  0  0  0  0  0
   41.0460   32.6830   39.0600 N   0  0  0  0  0  0  0  0  0  0  0  0
   41.6350   31.7810   38.2710 C   0  0  0  0  0  0  0  0  0  0  0  0
   40.9030   30.8210   37.6930 N   0  0  0  0  0  0  0  0  0  0  0  0
   39.1220   29.9490   37.3820 H   0  0  0  0  0  0  0  0  0  0  0  0
   39.2070   33.4080   39.9580 H   0  0  0  0  0  0  0  0  0  0  0  0
   42.7010   31.9330   38.1790 H   0  0  0  0  0  0  0  0  0  0  0  0
   36.9580   32.8330   39.5130 C   0  0  0  0  0  0  0  0  0  0  0  0
   36.8940   33.6250   38.7370 H   0  0  0  0  0  0  0  0  0  0  0  0
   35.9010   32.6850   39.8710 H   0  0  0  0  0  0  0  0  0  0  0  0
   37.5820   33.1590   40.3610 H   0  0  0  0  0  0  0  0  0  0  0  0
  1  2  1  6  0  0  0
  1 24  1  0  0  0  0
  1  4  1  0  0  0  0
  3  4  2  0  0  0  0
  3 14  1  0  0  0  0
  4  5  1  0  0  0  0
  5  6  1  0  0  0  0
  5  7  2  0  0  0  0
  7  8  1  0  0  0  0
  8 10  1  0  0  0  0
  8  9  1  0  0  0  0
 10 11  1  0  0  0  0
 12 10  2  0  0  0  0
 13  7  1  0  0  0  0
 13 12  1  0  0  0  0
 14 13  2  0  0  0  0
 15 16  1  0  0  0  0
 16  1  1  0  0  0  0
 16 17  2  0  0  0  0
 17 22  1  0  0  0  0
 18 17  1  0  0  0  0
 19 18  2  0  0  0  0
 20 15  2  0  0  0  0
 20 19  1  0  0  0  0
 21 15  1  0  0  0  0
 23 19  1  0  0  0  0
 24 26  1  0  0  0  0
 24 27  1  0  0  0  0
 25 24  1  0  0  0  0
M  END
>  <minimizedAffinity>
-4.8372364

$$$$

 OpenBabel03252502373D

 27 29  0  0  1  0  0  0  0  0999 V2000
   36.0400   28.8120   39.5230 C   0  0  2  0  0  0  0  0  0  0  0  0
   35.9100   28.4790   38.4870 H   0  0  0  0  0  0  0  0  0  0  0  0
   36.7180   27.6620   41.6950 C   0  0  0  0  0  3  0  0  0  0  0  0
   36.4890   27.6600   40.3340 C   0  0  0  0  0  0  0  0  0  0  0  0
   36.7150   26.4360   39.6970 C   0  0  0  0  0  0  0  0  0  0  0  0
   36.5630   26.3200   38.6130 H   0  0  0  0  0  0  0  0  0  0  0  0
   37.1350   25.2970   40.3530 C   0  0  0  0  0  0  0  0  0  0  0  0
   37.4040   24.0450   39.9300 N   0  0  0  0  0  0  0  0  0  0  0  0
   37.3380   23.6780   38.9470 H   0  0  0  0  0  0  0  0  0  0  0  0
   37.7780   23.3290   40.9970 C   0  0  0  0  0  0  0  0  0  0  0  0
   38.0700   22.2870   41.0500 H   0  0  0  0  0  0  0  0  0  0  0  0
   37.7590   24.1040   42.1340 C   0  0  0  0  0  3  0  0  0  0  0  0
   37.3490   25.3530   41.7120 C   0  0  0  0  0  0  0  0  0  0  0  0
   37.1360   26.5560   42.3910 C   0  0  0  0  0  3  0  0  0  0  0  0
   36.4840   31.0400   40.3020 C   0  0  0  0  0  0  0  0  0  0  0  0
   36.9680   29.9130   39.6460 C   0  0  0  0  0  0  0  0  0  0  0  0
   38.2860   29.9730   39.1910 C   0  0  0  0  0  0  0  0  0  0  0  0
   38.9830   31.1050   39.4190 N   0  0  0  0  0  0  0  0  0  0  0  0
   38.4890   32.1720   40.0530 C   0  0  0  0  0  0  0  0  0  0  0  0
   37.2300   32.1540   40.5050 N   0  0  0  0  0  0  0  0  0  0  0  0
   35.4820   31.1940   40.7320 H   0  0  0  0  0  0  0  0  0  0  0  0
   38.6420   29.0900   38.6850 H   0  0  0  0  0  0  0  0  0  0  0  0
   39.2020   32.9790   40.1370 H   0  0  0  0  0  0  0  0  0  0  0  0
   34.6850   29.3270   40.0170 C   0  0  0  0  0  0  0  0  0  0  0  0
   34.2160   29.9490   39.2250 H   0  0  0  0  0  0  0  0  0  0  0  0
   33.9740   28.4700   40.1790 H   0  0  0  0  0  0  0  0  0  0  0  0
   34.7860   29.8920   40.9570 H   0  0  0  0  0  0  0  0  0  0  0  0
  1  2  1  6  0  0  0
  1 16  1  0  0  0  0
  1 24  1  0  0  0  0
  1  4  1  0  0  0  0
  3 14  1  0  0  0  0
  4  3  2  0  0  0  0
  5  4  1  0  0  0  0
  5  7  2  0  0  0  0
  6  5  1  0  0  0  0
  7 13  1  0  0  0  0
  8  7  1  0  0  0  0
  8 10  1  0  0  0  0
  9  8  1  0  0  0  0
 10 11  1  0  0  0  0
 10 12  2  0  0  0  0
 13 12  1  0  0  0  0
 13 14  2  0  0  0  0
 15 20  1  0  0  0  0
 15 21  1  0  0  0  0
 16 15  2  0  0  0  0
 17 18  2  0  0  0  0
 17 16  1  0  0  0  0
 18 19  1  0  0  0  0
 19 23  1  0  0  0  0
 19 20  2  0  0  0  0
 22 17  1  0  0  0  0
 24 26  1  0  0  0  0
 24 27  1  0  0  0  0
 25 24  1  0  0  0  0
M  END
>  <minimizedAffinity>
-4.81663084

$$$$
