
 OpenBabel03252502453D

 48 52  0  0  1  0  0  0  0  0999 V2000
   48.2040   35.7090   41.8060 C   0  0  0  0  0  0  0  0  0  0  0  0
   48.2870   36.0600   42.8550 H   0  0  0  0  0  0  0  0  0  0  0  0
   48.2060   36.6400   41.1920 H   0  0  0  0  0  0  0  0  0  0  0  0
   49.3610   34.8140   41.5070 C   0  0  1  0  0  0  0  0  0  0  0  0
   50.3190   34.5200   42.6220 C   0  0  0  0  0  0  0  0  0  0  0  0
   49.3710   33.4920   42.1220 C   0  0  2  0  0  0  0  0  0  0  0  0
   49.8310   35.0120   40.5490 H   0  0  0  0  0  0  0  0  0  0  0  0
   51.4050   34.4680   42.4200 H   0  0  0  0  0  0  0  0  0  0  0  0
   50.1150   35.0220   43.6000 H   0  0  0  0  0  0  0  0  0  0  0  0
   48.6630   33.1280   42.8560 H   0  0  0  0  0  0  0  0  0  0  0  0
   50.0130   32.4770   41.2890 N   0  0  0  0  0  0  0  0  0  0  0  0
   49.3400   32.1950   40.0740 C   0  0  0  0  0  0  0  0  0  0  0  0
   50.1610   31.1180   39.3870 C   0  0  0  0  0  0  0  0  0  0  0  0
   50.1960   29.9180   40.1440 N   0  0  0  0  0  0  0  0  0  0  0  0
   50.0660   30.1120   41.5760 C   0  0  0  0  0  0  0  0  0  0  0  0
   50.6820   31.4550   41.9730 C   0  0  0  0  0  0  0  0  0  0  0  0
   49.3690   33.0880   39.4060 H   0  0  0  0  0  0  0  0  0  0  0  0
   48.3050   31.8800   40.2680 H   0  0  0  0  0  0  0  0  0  0  0  0
   49.7040   30.9340   38.3850 H   0  0  0  0  0  0  0  0  0  0  0  0
   51.1440   31.5830   39.1770 H   0  0  0  0  0  0  0  0  0  0  0  0
   50.9940   29.3130   39.8840 H   0  0  0  0  0  0  0  0  0  0  0  0
   49.0080   30.1640   41.8750 H   0  0  0  0  0  0  0  0  0  0  0  0
   50.5700   29.2720   42.0580 H   0  0  0  0  0  0  0  0  0  0  0  0
   50.6450   31.5760   43.0560 H   0  0  0  0  0  0  0  0  0  0  0  0
   51.7690   31.3900   41.6920 H   0  0  0  0  0  0  0  0  0  0  0  0
   46.9600   34.8810   41.6440 C   0  0  0  0  0  0  0  0  0  0  0  0
   46.3200   35.4420   40.9030 H   0  0  0  0  0  0  0  0  0  0  0  0
   47.0760   33.8900   41.2360 H   0  0  0  0  0  0  0  0  0  0  0  0
   44.6800   36.1220   44.3500 C   0  0  0  0  0  0  0  0  0  0  0  0
   45.4120   36.0610   43.1430 C   0  0  0  0  0  0  0  0  0  0  0  0
   46.1740   34.9570   42.9170 C   0  0  0  0  0  0  0  0  0  0  0  0
   46.2070   33.9610   43.8490 N   0  0  0  0  0  0  0  0  0  0  0  0
   45.5230   34.0280   44.9680 C   0  0  0  0  0  0  0  0  0  0  0  0
   44.7540   35.1020   45.2340 N   0  0  0  0  0  0  0  0  0  0  0  0
   44.0610   36.9730   44.5770 H   0  0  0  0  0  0  0  0  0  0  0  0
   45.3090   36.9090   42.4800 H   0  0  0  0  0  0  0  0  0  0  0  0
   45.2620   33.1920   47.2760 C   0  0  0  0  0  3  0  0  0  0  0  0
   45.5750   32.9390   45.9570 C   0  0  0  0  0  0  0  0  0  0  0  0
   45.9400   31.6550   45.5730 C   0  0  0  0  0  0  0  0  0  0  0  0
   46.1790   31.4710   44.5550 H   0  0  0  0  0  0  0  0  0  0  0  0
   45.9610   30.6940   46.5770 C   0  0  0  0  0  0  0  0  0  0  0  0
   46.2880   29.4030   46.3850 N   0  0  0  0  0  0  0  0  0  0  0  0
   46.5770   28.8910   45.5000 H   0  0  0  0  0  0  0  0  0  0  0  0
   46.2030   28.7750   47.5570 C   0  0  0  0  0  0  0  0  0  0  0  0
   46.3950   27.7310   47.7750 H   0  0  0  0  0  0  0  0  0  0  0  0
   45.8070   29.6870   48.5350 C   0  0  0  0  0  3  0  0  0  0  0  0
   45.6540   30.9140   47.8980 C   0  0  0  0  0  0  0  0  0  0  0  0
   45.2930   32.2020   48.2650 C   0  0  0  0  0  3  0  0  0  0  0  0
  1  2  1  0  0  0  0
  3  1  1  0  0  0  0
  4  7  1  6  0  0  0
  4  1  1  0  0  0  0
  4  6  1  0  0  0  0
  4  5  1  0  0  0  0
  5  9  1  0  0  0  0
  6  5  1  0  0  0  0
  6 10  1  1  0  0  0
  8  5  1  0  0  0  0
 11 16  1  0  0  0  0
 11  6  1  0  0  0  0
 12 18  1  0  0  0  0
 12 11  1  0  0  0  0
 13 12  1  0  0  0  0
 13 14  1  0  0  0  0
 14 15  1  0  0  0  0
 15 22  1  0  0  0  0
 15 16  1  0  0  0  0
 15 23  1  0  0  0  0
 16 24  1  0  0  0  0
 17 12  1  0  0  0  0
 19 13  1  0  0  0  0
 20 13  1  0  0  0  0
 21 14  1  0  0  0  0
 25 16  1  0  0  0  0
 26  1  1  0  0  0  0
 26 31  1  0  0  0  0
 27 26  1  0  0  0  0
 28 26  1  0  0  0  0
 29 35  1  0  0  0  0
 29 34  1  0  0  0  0
 30 29  2  0  0  0  0
 31 30  1  0  0  0  0
 31 32  2  0  0  0  0
 32 33  1  0  0  0  0
 33 34  2  0  0  0  0
 33 38  1  0  0  0  0
 36 30  1  0  0  0  0
 37 48  1  0  0  0  0
 38 37  2  0  0  0  0
 39 38  1  0  0  0  0
 39 41  2  0  0  0  0
 40 39  1  0  0  0  0
 41 47  1  0  0  0  0
 42 41  1  0  0  0  0
 42 44  1  0  0  0  0
 43 42  1  0  0  0  0
 44 45  1  0  0  0  0
 44 46  2  0  0  0  0
 47 48  2  0  0  0  0
 47 46  1  0  0  0  0
M  END
>  <minimizedAffinity>
-5.75065184

>  <minimizedRMSD>
0.981615484

$$$$
