
 OpenBabel03242514103D

 49 53  0  0  1  0  0  0  0  0999 V2000
   47.9630   33.6640   41.7080 C   0  0  0  0  0  0  0  0  0  0  0  0
   48.5260   34.8060   42.2190 C   0  0  0  0  0  0  0  0  0  0  0  0
   49.8570   34.9150   42.5780 C   0  0  0  0  0  0  0  0  0  0  0  0
   50.6050   33.7470   42.3780 C   0  0  0  0  0  0  0  0  0  0  0  0
   50.0300   32.5760   41.8540 C   0  0  0  0  0  0  0  0  0  0  0  0
   48.7250   32.5460   41.5280 N   0  0  0  0  0  0  0  0  0  0  0  0
   47.8630   35.6580   42.3370 H   0  0  0  0  0  0  0  0  0  0  0  0
   50.2560   35.8220   42.9730 H   0  0  0  0  0  0  0  0  0  0  0  0
   51.6350   33.8860   42.6770 H   0  0  0  0  0  0  0  0  0  0  0  0
   50.8680   31.4020   41.6550 C   0  0  1  0  0  0  0  0  0  0  0  0
   52.0580   31.7360   40.6630 C   0  0  0  0  0  0  0  0  0  0  0  0
   52.5220   30.3100   40.2410 C   0  0  0  0  0  0  0  0  0  0  0  0
   53.2700   29.8020   41.4690 C   0  0  0  0  0  0  0  0  0  0  0  0
   52.3690   29.6710   42.6400 C   0  0  0  0  0  0  0  0  0  0  0  0
   51.3480   30.7300   42.8240 C   0  0  2  0  0  0  0  0  0  0  0  0
   50.2740   30.7080   40.9890 H   0  0  0  0  0  0  0  0  0  0  0  0
   51.6550   32.2590   39.7920 H   0  0  0  0  0  0  0  0  0  0  0  0
   52.8450   32.2400   41.2230 H   0  0  0  0  0  0  0  0  0  0  0  0
   53.2850   30.3820   39.4450 H   0  0  0  0  0  0  0  0  0  0  0  0
   51.6560   29.6950   39.9780 H   0  0  0  0  0  0  0  0  0  0  0  0
   53.7290   28.8210   41.2430 H   0  0  0  0  0  0  0  0  0  0  0  0
   54.1010   30.4990   41.6590 H   0  0  0  0  0  0  0  0  0  0  0  0
   51.8940   28.6510   42.5420 H   0  0  0  0  0  0  0  0  0  0  0  0
   53.0000   29.5660   43.5480 H   0  0  0  0  0  0  0  0  0  0  0  0
   51.8220   31.4850   43.5240 H   0  0  0  0  0  0  0  0  0  0  0  0
   49.9100   29.9190   43.5970 S   0  0  0  0  0  0  0  0  0  0  0  0
   48.8690   29.7500   42.6950 H   0  0  0  0  0  0  0  0  0  0  0  0
   44.6880   32.6850   40.3990 C   0  0  0  0  0  0  0  0  0  0  0  0
   43.8720   33.7530   40.7320 C   0  0  0  0  0  0  0  0  0  0  0  0
   44.4530   34.7940   41.4050 C   0  0  0  0  0  0  0  0  0  0  0  0
   45.7890   34.7230   41.7050 N   0  0  0  0  0  0  0  0  0  0  0  0
   46.5550   33.6300   41.3470 C   0  0  0  0  0  0  0  0  0  0  0  0
   46.0060   32.6540   40.7160 N   0  0  0  0  0  0  0  0  0  0  0  0
   43.7900   35.9420   41.8330 N   0  0  0  0  0  0  0  0  0  0  0  0
   44.2360   31.8480   39.8640 H   0  0  0  0  0  0  0  0  0  0  0  0
   43.7610   36.2070   42.8420 H   0  0  0  0  0  0  0  0  0  0  0  0
   43.3840   36.4090   40.9980 H   0  0  0  0  0  0  0  0  0  0  0  0
   41.4370   33.6260   41.3350 C   0  0  0  0  0  0  0  0  0  0  0  0
   42.4510   33.8240   40.4100 C   0  0  0  0  0  0  0  0  0  0  0  0
   42.1370   34.1110   39.0820 C   0  0  0  0  0  0  0  0  0  0  0  0
   42.8700   34.2770   38.3090 H   0  0  0  0  0  0  0  0  0  0  0  0
   40.8120   34.1950   38.7010 C   0  0  0  0  0  0  0  0  0  0  0  0
   40.2320   34.4520   37.5100 N   0  0  0  0  0  0  0  0  0  0  0  0
   40.7370   34.6470   36.6060 H   0  0  0  0  0  0  0  0  0  0  0  0
   38.8960   34.4160   37.6860 C   0  0  0  0  0  0  0  0  0  0  0  0
   38.1670   34.5830   36.9150 H   0  0  0  0  0  0  0  0  0  0  0  0
   38.6280   34.1270   39.0270 C   0  0  0  0  0  0  0  0  0  0  0  0
   39.8510   33.9890   39.6590 C   0  0  0  0  0  0  0  0  0  0  0  0
   40.1010   33.7050   40.9720 C   0  0  0  0  0  0  0  0  0  0  0  0
  1  2  1  0  0  0  0
  2  7  1  0  0  0  0
  2  3  2  0  0  0  0
  3  8  1  0  0  0  0
  4  3  1  0  0  0  0
  4  9  1  0  0  0  0
  5  4  2  0  0  0  0
  6  1  2  0  0  0  0
  6  5  1  0  0  0  0
 10 16  1  6  0  0  0
 10  5  1  0  0  0  0
 10 15  1  0  0  0  0
 11 18  1  0  0  0  0
 11 10  1  0  0  0  0
 12 11  1  0  0  0  0
 12 13  1  0  0  0  0
 13 22  1  0  0  0  0
 13 14  1  0  0  0  0
 14 15  1  0  0  0  0
 14 24  1  0  0  0  0
 15 25  1  1  0  0  0
 15 26  1  0  0  0  0
 17 11  1  0  0  0  0
 19 12  1  0  0  0  0
 20 12  1  0  0  0  0
 21 13  1  0  0  0  0
 23 14  1  0  0  0  0
 27 26  1  0  0  0  0
 28 33  2  0  0  0  0
 28 29  1  0  0  0  0
 29 30  2  0  0  0  0
 30 31  1  0  0  0  0
 30 34  1  0  0  0  0
 32 31  2  0  0  0  0
 32  1  1  0  0  0  0
 33 32  1  0  0  0  0
 34 36  1  0  0  0  0
 35 28  1  0  0  0  0
 37 34  1  0  0  0  0
 39 29  1  0  0  0  0
 39 38  2  0  0  0  0
 40 39  1  0  0  0  0
 41 40  1  0  0  0  0
 42 40  2  0  0  0  0
 42 48  1  0  0  0  0
 43 45  1  0  0  0  0
 43 42  1  0  0  0  0
 44 43  1  0  0  0  0
 45 47  2  0  0  0  0
 46 45  1  0  0  0  0
 47 48  1  0  0  0  0
 48 49  2  0  0  0  0
 49 38  1  0  0  0  0
M  END
>  <minimizedAffinity>
-6.84521103

>  <minimizedRMSD>
7.38287687

$$$$
