
     RDKit          3D

 40 44  0  0  0  0  0  0  0  0999 V2000
   45.8925   33.7108   45.4205 C   0  0  0  0  0  0  0  0  0  0  0  0
   44.9218   34.6197   45.6702 N   0  0  0  0  0  0  0  0  0  0  0  0
   44.5507   35.6016   44.8574 C   0  0  0  0  0  0  0  0  0  0  0  0
   45.1618   35.7537   43.6629 N   0  0  0  0  0  0  0  0  0  0  0  0
   46.1501   34.9096   43.2922 C   0  0  0  0  0  0  0  0  0  0  0  0
   46.7775   35.0661   42.0652 C   0  0  0  0  0  0  0  0  0  0  0  0
   47.7798   34.2221   41.6717 C   0  0  0  0  0  0  0  0  0  0  0  0
   48.1337   33.2203   42.5407 C   0  0  0  0  0  0  0  0  0  0  0  0
   47.4875   33.0972   43.7497 C   0  0  0  0  0  0  0  0  0  0  0  0
   46.4709   33.9236   44.1912 C   0  0  0  0  0  0  0  0  0  0  0  0
   47.6607   32.2937   48.1988 C   0  0  0  0  0  0  0  0  0  0  0  0
   47.2842   30.9640   48.2848 C   0  0  0  0  0  0  0  0  0  0  0  0
   46.3870   30.5309   47.3536 C   0  0  0  0  0  0  0  0  0  0  0  0
   45.9178   31.3693   46.4243 N   0  0  0  0  0  0  0  0  0  0  0  0
   46.2760   32.6405   46.3399 C   0  0  0  0  0  0  0  0  0  0  0  0
   47.1495   33.0631   47.2461 N   0  0  0  0  0  0  0  0  0  0  0  0
   47.8144   30.1329   49.2866 N   0  0  0  0  0  0  0  0  0  0  0  0
   43.7531   36.2816   45.1585 H   0  0  0  0  0  0  0  0  0  0  0  0
   46.4223   35.8870   41.4574 H   0  0  0  0  0  0  0  0  0  0  0  0
   48.2416   34.3671   40.7260 H   0  0  0  0  0  0  0  0  0  0  0  0
   48.9219   32.5199   42.2838 H   0  0  0  0  0  0  0  0  0  0  0  0
   47.8141   32.2749   44.4053 H   0  0  0  0  0  0  0  0  0  0  0  0
   48.3839   32.6365   48.9521 H   0  0  0  0  0  0  0  0  0  0  0  0
   47.9155   30.4610   50.2912 H   0  0  0  0  0  0  0  0  0  0  0  0
   48.1214   29.1590   49.0429 H   0  0  0  0  0  0  0  0  0  0  0  0
   46.4913   28.1042   48.0170 C   0  0  0  0  0  0  0  0  0  0  0  0
   45.9218   29.1663   47.3442 C   0  0  0  0  0  0  0  0  0  0  0  0
   44.7800   28.9463   46.5640 C   0  0  0  0  0  0  0  0  0  0  0  0
   44.2935   29.7261   46.0203 H   0  0  0  0  0  0  0  0  0  0  0  0
   44.2507   27.6754   46.4854 C   0  0  0  0  0  0  0  0  0  0  0  0
   43.1941   27.1465   45.8421 N   0  0  0  0  0  0  0  0  0  0  0  0
   42.5224   27.6538   45.2289 H   0  0  0  0  0  0  0  0  0  0  0  0
   43.0545   25.8317   46.0584 C   0  0  0  0  0  0  0  0  0  0  0  0
   42.2998   25.1660   45.6685 H   0  0  0  0  0  0  0  0  0  0  0  0
   44.0894   25.4363   46.9094 C   0  0  0  0  0  0  0  0  0  0  0  0
   44.8013   26.5948   47.1486 C   0  0  0  0  0  0  0  0  0  0  0  0
   45.9371   26.8676   47.9117 C   0  0  0  0  0  0  0  0  0  0  0  0
   47.3687   28.3371   48.6009 H   0  0  0  0  0  0  0  0  0  0  0  0
   44.3015   24.4672   47.2988 H   0  0  0  0  0  0  0  0  0  0  0  0
   46.3956   26.0296   48.4491 H   0  0  0  0  0  0  0  0  0  0  0  0
  1  2  2  0
  1 15  1  0
  3  2  1  0
  4  3  2  0
  5  4  1  0
  5 10  2  0
  6  5  1  0
  7  6  2  0
  7  8  1  0
  8  9  2  0
  9 10  1  0
 10  1  1  0
 11 12  2  0
 12 17  1  0
 13 12  1  0
 14 13  2  0
 15 14  1  0
 15 16  2  0
 16 11  1  0
  3 18  1  0
  6 19  1  0
  7 20  1  0
  8 21  1  0
  9 22  1  0
 11 23  1  0
 17 24  1  0
 17 25  1  0
 26 27  2  0
 27 28  1  0
 28 29  1  0
 28 30  2  0
 30 31  1  0
 31 32  1  0
 31 33  1  0
 33 34  1  0
 33 35  2  0
 35 36  1  0
 36 37  2  0
 37 26  1  0
 36 30  1  0
 26 38  1  0
 35 39  1  0
 37 40  1  0
 13 27  1  0
M  ISO  8  18  14  19  14  20  14  21  14  22  14  23  14  29  15  32   5
M  ISO  1  34  14
M  END
>  <DihAtoms>  (1) 
11,12,26,25

>  <DihDeg>  (1) 
45.0007508037299

$$$$
