
 OpenBabel03252502463D

 48 52  0  0  1  0  0  0  0  0999 V2000
   48.2620   35.6660   41.8330 C   0  0  0  0  0  0  0  0  0  0  0  0
   48.3450   35.9890   42.8910 H   0  0  0  0  0  0  0  0  0  0  0  0
   48.3100   36.6100   41.2410 H   0  0  0  0  0  0  0  0  0  0  0  0
   49.3870   34.7320   41.5270 C   0  0  1  0  0  0  0  0  0  0  0  0
   50.3820   34.4640   42.6150 C   0  0  0  0  0  0  0  0  0  0  0  0
   49.3940   33.4380   42.1980 C   0  0  2  0  0  0  0  0  0  0  0  0
   49.8210   34.8780   40.5430 H   0  0  0  0  0  0  0  0  0  0  0  0
   51.4580   34.3780   42.3720 H   0  0  0  0  0  0  0  0  0  0  0  0
   50.2300   35.0120   43.5770 H   0  0  0  0  0  0  0  0  0  0  0  0
   48.7080   33.1220   42.9750 H   0  0  0  0  0  0  0  0  0  0  0  0
   49.9790   32.3740   41.3850 N   0  0  0  0  0  0  0  0  0  0  0  0
   49.3000   32.1160   40.1680 C   0  0  0  0  0  0  0  0  0  0  0  0
   50.0590   30.9820   39.5030 C   0  0  0  0  0  0  0  0  0  0  0  0
   50.0140   29.7920   40.2780 N   0  0  0  0  0  0  0  0  0  0  0  0
   49.8840   30.0150   41.7050 C   0  0  0  0  0  0  0  0  0  0  0  0
   50.5770   31.3230   42.0900 C   0  0  0  0  0  0  0  0  0  0  0  0
   49.3900   32.9960   39.4880 H   0  0  0  0  0  0  0  0  0  0  0  0
   48.2470   31.8680   40.3570 H   0  0  0  0  0  0  0  0  0  0  0  0
   49.6010   30.8120   38.5000 H   0  0  0  0  0  0  0  0  0  0  0  0
   51.0710   31.3820   39.2970 H   0  0  0  0  0  0  0  0  0  0  0  0
   50.7750   29.1360   40.0340 H   0  0  0  0  0  0  0  0  0  0  0  0
   48.8290   30.1350   41.9940 H   0  0  0  0  0  0  0  0  0  0  0  0
   50.3310   29.1520   42.2030 H   0  0  0  0  0  0  0  0  0  0  0  0
   50.5390   31.4610   43.1710 H   0  0  0  0  0  0  0  0  0  0  0  0
   51.6610   31.1870   41.8210 H   0  0  0  0  0  0  0  0  0  0  0  0
   46.9890   34.8930   41.6350 C   0  0  0  0  0  0  0  0  0  0  0  0
   46.3760   35.5020   40.9090 H   0  0  0  0  0  0  0  0  0  0  0  0
   47.0700   33.9120   41.1950 H   0  0  0  0  0  0  0  0  0  0  0  0
   44.6890   36.1050   44.3380 C   0  0  0  0  0  0  0  0  0  0  0  0
   45.4270   36.0550   43.1340 C   0  0  0  0  0  0  0  0  0  0  0  0
   46.1970   34.9570   42.9050 C   0  0  0  0  0  0  0  0  0  0  0  0
   46.2310   33.9560   43.8310 N   0  0  0  0  0  0  0  0  0  0  0  0
   45.5410   34.0120   44.9480 C   0  0  0  0  0  0  0  0  0  0  0  0
   44.7650   35.0810   45.2160 N   0  0  0  0  0  0  0  0  0  0  0  0
   44.0650   36.9510   44.5670 H   0  0  0  0  0  0  0  0  0  0  0  0
   45.3220   36.9060   42.4750 H   0  0  0  0  0  0  0  0  0  0  0  0
   45.2690   33.1610   47.2480 C   0  0  0  0  0  3  0  0  0  0  0  0
   45.5950   32.9180   45.9310 C   0  0  0  0  0  0  0  0  0  0  0  0
   45.9740   31.6390   45.5420 C   0  0  0  0  0  0  0  0  0  0  0  0
   46.2240   31.4630   44.5250 H   0  0  0  0  0  0  0  0  0  0  0  0
   45.9960   30.6740   46.5420 C   0  0  0  0  0  0  0  0  0  0  0  0
   46.3370   29.3870   46.3450 N   0  0  0  0  0  0  0  0  0  0  0  0
   46.6370   28.8810   45.4590 H   0  0  0  0  0  0  0  0  0  0  0  0
   46.2470   28.7510   47.5130 C   0  0  0  0  0  0  0  0  0  0  0  0
   46.4470   27.7070   47.7250 H   0  0  0  0  0  0  0  0  0  0  0  0
   45.8350   29.6530   48.4930 C   0  0  0  0  0  3  0  0  0  0  0  0
   45.6770   30.8830   47.8610 C   0  0  0  0  0  0  0  0  0  0  0  0
   45.3010   32.1650   48.2310 C   0  0  0  0  0  3  0  0  0  0  0  0
  1  2  1  0  0  0  0
  3  1  1  0  0  0  0
  4  7  1  6  0  0  0
  4  1  1  0  0  0  0
  4  6  1  0  0  0  0
  4  5  1  0  0  0  0
  5  9  1  0  0  0  0
  6  5  1  0  0  0  0
  6 10  1  1  0  0  0
  8  5  1  0  0  0  0
 11 16  1  0  0  0  0
 11  6  1  0  0  0  0
 12 18  1  0  0  0  0
 12 11  1  0  0  0  0
 13 12  1  0  0  0  0
 13 14  1  0  0  0  0
 14 15  1  0  0  0  0
 15 22  1  0  0  0  0
 15 16  1  0  0  0  0
 15 23  1  0  0  0  0
 16 24  1  0  0  0  0
 17 12  1  0  0  0  0
 19 13  1  0  0  0  0
 20 13  1  0  0  0  0
 21 14  1  0  0  0  0
 25 16  1  0  0  0  0
 26  1  1  0  0  0  0
 26 31  1  0  0  0  0
 27 26  1  0  0  0  0
 28 26  1  0  0  0  0
 29 35  1  0  0  0  0
 29 34  1  0  0  0  0
 30 29  2  0  0  0  0
 31 30  1  0  0  0  0
 31 32  2  0  0  0  0
 32 33  1  0  0  0  0
 33 34  2  0  0  0  0
 33 38  1  0  0  0  0
 36 30  1  0  0  0  0
 37 48  1  0  0  0  0
 38 37  2  0  0  0  0
 39 38  1  0  0  0  0
 39 41  2  0  0  0  0
 40 39  1  0  0  0  0
 41 47  1  0  0  0  0
 42 41  1  0  0  0  0
 42 44  1  0  0  0  0
 43 42  1  0  0  0  0
 44 45  1  0  0  0  0
 44 46  2  0  0  0  0
 47 48  2  0  0  0  0
 47 46  1  0  0  0  0
M  END
>  <minimizedAffinity>
-5.7171998

>  <minimizedRMSD>
0.957548082

$$$$
