
 OpenBabel03242513063D

 44 49  0  0  0  0  0  0  0  0999 V2000
   45.9970   33.3670   41.6530 C   0  0  0  0  0  0  0  0  0  0  0  0
   47.1980   34.0300   41.3710 C   0  0  0  0  0  0  0  0  0  0  0  0
   48.1570   34.0310   42.3630 C   0  0  0  0  0  0  0  0  0  0  0  0
   47.8650   33.3900   43.5330 N   0  0  0  0  0  0  0  0  0  0  0  0
   46.7110   32.7620   43.7840 C   0  0  0  0  0  0  0  0  0  0  0  0
   45.7610   32.7480   42.8340 N   0  0  0  0  0  0  0  0  0  0  0  0
   45.2360   33.3600   40.8810 H   0  0  0  0  0  0  0  0  0  0  0  0
   46.6860   30.7580   45.2010 C   0  0  0  0  0  0  0  0  0  0  0  0
   46.5060   32.1140   45.0620 C   0  0  0  0  0  0  0  0  0  0  0  0
   46.1160   32.9470   46.1300 C   0  0  0  0  0  0  0  0  0  0  0  0
   45.9020   32.3870   47.3870 C   0  0  0  0  0  0  0  0  0  0  0  0
   45.5350   32.8490   48.6050 N   0  0  0  0  0  0  0  0  0  0  0  0
   45.4960   31.7870   49.4650 C   0  0  0  0  0  0  0  0  0  0  0  0
   45.8390   30.6890   48.7620 N   0  0  0  0  0  0  0  0  0  0  0  0
   46.0920   31.0310   47.4880 C   0  0  0  0  0  0  0  0  0  0  0  0
   46.4740   30.1900   46.4570 C   0  0  0  0  0  0  0  0  0  0  0  0
   46.9860   30.1820   44.3370 H   0  0  0  0  0  0  0  0  0  0  0  0
   45.9780   34.0140   46.0080 H   0  0  0  0  0  0  0  0  0  0  0  0
   45.3250   33.8530   48.8170 H   0  0  0  0  0  0  0  0  0  0  0  0
   45.2340   31.8380   50.5170 H   0  0  0  0  0  0  0  0  0  0  0  0
   46.6080   29.1270   46.5950 H   0  0  0  0  0  0  0  0  0  0  0  0
   49.4500   34.7150   42.1280 C   0  0  0  0  0  0  0  0  0  0  0  0
   49.2630   35.8430   41.3130 F   0  0  0  0  0  0  0  0  0  0  0  0
   49.9700   35.1810   43.3120 F   0  0  0  0  0  0  0  0  0  0  0  0
   50.3020   33.8300   41.5100 F   0  0  0  0  0  0  0  0  0  0  0  0
   47.3560   34.6260   40.1630 O   0  0  0  0  0  0  0  0  0  0  0  0
   47.3860   33.9190   38.9880 C   0  0  0  0  0  0  0  0  0  0  0  0
   48.5050   34.4320   38.3350 C   0  0  0  0  0  0  0  0  0  0  0  0
   48.5330   33.4740   36.7600 S   0  0  0  0  0  0  0  0  0  0  0  0
   47.0070   32.5360   37.2680 C   0  0  0  0  0  0  0  0  0  0  0  0
   46.8340   33.0060   38.2510 N   0  0  0  0  0  0  0  0  0  0  0  0
   49.3970   35.1800   38.3590 H   0  0  0  0  0  0  0  0  0  0  0  0
   47.1520   30.3960   36.0210 C   0  0  0  0  0  0  0  0  0  0  0  0
   46.4450   31.5070   36.3560 C   0  0  0  0  0  0  0  0  0  0  0  0
   45.1960   31.8140   35.9290 C   0  0  0  0  0  0  0  0  0  0  0  0
   44.6410   32.7000   36.2030 H   0  0  0  0  0  0  0  0  0  0  0  0
   44.5440   30.9460   35.0720 C   0  0  0  0  0  0  0  0  0  0  0  0
   43.3340   30.9550   34.4820 N   0  0  0  0  0  0  0  0  0  0  0  0
   42.6260   31.7290   34.6100 H   0  0  0  0  0  0  0  0  0  0  0  0
   43.1830   29.8440   33.7230 C   0  0  0  0  0  0  0  0  0  0  0  0
   42.2790   29.6680   33.1680 H   0  0  0  0  0  0  0  0  0  0  0  0
   44.3520   29.1160   33.8510 C   0  0  0  0  0  0  0  0  0  0  0  0
   45.2230   29.7870   34.6930 C   0  0  0  0  0  0  0  0  0  0  0  0
   46.5010   29.5210   35.1600 C   0  0  0  0  0  0  0  0  0  0  0  0
  1  6  1  0  0  0  0
  2  1  2  0  0  0  0
  2  3  1  0  0  0  0
  3  4  2  0  0  0  0
  4  5  1  0  0  0  0
  5  9  1  0  0  0  0
  6  5  2  0  0  0  0
  7  1  1  0  0  0  0
  8 16  1  0  0  0  0
  9  8  2  0  0  0  0
  9 10  1  0  0  0  0
 10 11  2  0  0  0  0
 11 15  1  0  0  0  0
 11 12  1  0  0  0  0
 12 19  1  0  0  0  0
 12 13  1  0  0  0  0
 13 20  1  0  0  0  0
 14 13  2  0  0  0  0
 15 14  1  0  0  0  0
 16 21  1  0  0  0  0
 16 15  2  0  0  0  0
 17  8  1  0  0  0  0
 18 10  1  0  0  0  0
 22  3  1  0  0  0  0
 22 24  1  0  0  0  0
 23 22  1  0  0  0  0
 25 22  1  0  0  0  0
 26  2  1  0  0  0  0
 27 26  1  0  0  0  0
 28 32  1  0  0  0  0
 28 27  2  0  0  0  0
 29 30  1  0  0  0  0
 29 28  1  0  0  0  0
 30 31  2  0  0  0  0
 31 27  1  0  0  0  0
 33 34  1  0  0  0  0
 34 30  1  0  0  0  0
 35 36  1  0  0  0  0
 35 34  2  0  0  0  0
 37 35  1  0  0  0  0
 38 39  1  0  0  0  0
 38 37  1  0  0  0  0
 40 42  2  0  0  0  0
 40 38  1  0  0  0  0
 41 40  1  0  0  0  0
 42 43  1  0  0  0  0
 43 37  2  0  0  0  0
 43 44  1  0  0  0  0
 44 33  2  0  0  0  0
M  END
>  <minimizedAffinity>
-7.01428699

>  <minimizedRMSD>
0.601182699

$$$$
