
     RDKit          3D

 40 44  0  0  0  0  0  0  0  0999 V2000
   45.8925   33.7108   45.4205 C   0  0  0  0  0  0  0  0  0  0  0  0
   44.9218   34.6197   45.6702 N   0  0  0  0  0  0  0  0  0  0  0  0
   44.5507   35.6016   44.8574 C   0  0  0  0  0  0  0  0  0  0  0  0
   45.1618   35.7537   43.6629 N   0  0  0  0  0  0  0  0  0  0  0  0
   46.1501   34.9096   43.2922 C   0  0  0  0  0  0  0  0  0  0  0  0
   46.7775   35.0661   42.0652 C   0  0  0  0  0  0  0  0  0  0  0  0
   47.7798   34.2221   41.6717 C   0  0  0  0  0  0  0  0  0  0  0  0
   48.1337   33.2203   42.5407 C   0  0  0  0  0  0  0  0  0  0  0  0
   47.4875   33.0972   43.7497 C   0  0  0  0  0  0  0  0  0  0  0  0
   46.4709   33.9236   44.1912 C   0  0  0  0  0  0  0  0  0  0  0  0
   47.6607   32.2937   48.1988 C   0  0  0  0  0  0  0  0  0  0  0  0
   47.2842   30.9640   48.2848 C   0  0  0  0  0  0  0  0  0  0  0  0
   46.3870   30.5309   47.3536 C   0  0  0  0  0  0  0  0  0  0  0  0
   45.9178   31.3693   46.4243 N   0  0  0  0  0  0  0  0  0  0  0  0
   46.2760   32.6405   46.3399 C   0  0  0  0  0  0  0  0  0  0  0  0
   47.1495   33.0631   47.2461 N   0  0  0  0  0  0  0  0  0  0  0  0
   47.8144   30.1329   49.2866 N   0  0  0  0  0  0  0  0  0  0  0  0
   43.7531   36.2816   45.1585 H   0  0  0  0  0  0  0  0  0  0  0  0
   46.4223   35.8870   41.4574 H   0  0  0  0  0  0  0  0  0  0  0  0
   48.2416   34.3671   40.7260 H   0  0  0  0  0  0  0  0  0  0  0  0
   48.9219   32.5199   42.2838 H   0  0  0  0  0  0  0  0  0  0  0  0
   47.8141   32.2749   44.4053 H   0  0  0  0  0  0  0  0  0  0  0  0
   48.3839   32.6365   48.9521 H   0  0  0  0  0  0  0  0  0  0  0  0
   47.9155   30.4610   50.2912 H   0  0  0  0  0  0  0  0  0  0  0  0
   48.1214   29.1590   49.0429 H   0  0  0  0  0  0  0  0  0  0  0  0
   46.6295   28.0589   47.7656 C   0  0  0  0  0  0  0  0  0  0  0  0
   45.9218   29.1663   47.3442 C   0  0  0  0  0  0  0  0  0  0  0  0
   44.6218   28.9983   46.8518 C   0  0  0  0  0  0  0  0  0  0  0  0
   44.0237   29.8147   46.5111 H   0  0  0  0  0  0  0  0  0  0  0  0
   44.0783   27.7320   46.7990 C   0  0  0  0  0  0  0  0  0  0  0  0
   42.8917   27.2458   46.3922 N   0  0  0  0  0  0  0  0  0  0  0  0
   42.0947   27.7943   46.0069 H   0  0  0  0  0  0  0  0  0  0  0  0
   42.7979   25.9160   46.5252 C   0  0  0  0  0  0  0  0  0  0  0  0
   41.9648   25.2760   46.2777 H   0  0  0  0  0  0  0  0  0  0  0  0
   44.0063   25.4636   47.0607 C   0  0  0  0  0  0  0  0  0  0  0  0
   44.7652   26.6067   47.2144 C   0  0  0  0  0  0  0  0  0  0  0  0
   46.0556   26.8287   47.6961 C   0  0  0  0  0  0  0  0  0  0  0  0
   47.6252   28.2529   48.1343 H   0  0  0  0  0  0  0  0  0  0  0  0
   44.2988   24.4681   47.3037 H   0  0  0  0  0  0  0  0  0  0  0  0
   46.6245   25.9544   48.0328 H   0  0  0  0  0  0  0  0  0  0  0  0
  1  2  2  0
  1 15  1  0
  3  2  1  0
  4  3  2  0
  5  4  1  0
  5 10  2  0
  6  5  1  0
  7  6  2  0
  7  8  1  0
  8  9  2  0
  9 10  1  0
 10  1  1  0
 11 12  2  0
 12 17  1  0
 13 12  1  0
 14 13  2  0
 15 14  1  0
 15 16  2  0
 16 11  1  0
  3 18  1  0
  6 19  1  0
  7 20  1  0
  8 21  1  0
  9 22  1  0
 11 23  1  0
 17 24  1  0
 17 25  1  0
 26 27  2  0
 27 28  1  0
 28 29  1  0
 28 30  2  0
 30 31  1  0
 31 32  1  0
 31 33  1  0
 33 34  1  0
 33 35  2  0
 35 36  1  0
 36 37  2  0
 37 26  1  0
 36 30  1  0
 26 38  1  0
 35 39  1  0
 37 40  1  0
 13 27  1  0
M  ISO  8  18  14  19  14  20  14  21  14  22  14  23  14  29  15  32   5
M  ISO  1  34  14
M  END
>  <DihAtoms>  (1) 
11,12,26,25

>  <DihDeg>  (1) 
45.0007508037299

$$$$
