
 OpenBabel03252507343D

 52 56  0  0  1  0  0  0  0  0999 V2000
   38.6140   32.6290   40.6480 C   0  0  0  0  0  0  0  0  0  0  0  0
   37.5070   32.6020   39.8050 C   0  0  0  0  0  0  0  0  0  0  0  0
   36.6880   31.4510   39.7720 C   0  0  0  0  0  0  0  0  0  0  0  0
   37.0600   30.3980   40.6030 N   0  0  0  0  0  0  0  0  0  0  0  0
   38.1500   30.4920   41.3940 C   0  0  0  0  0  0  0  0  0  0  0  0
   38.9030   31.5820   41.4110 N   0  0  0  0  0  0  0  0  0  0  0  0
   37.0700   33.2550   39.0820 H   0  0  0  0  0  0  0  0  0  0  0  0
   35.8180   31.2500   39.2060 H   0  0  0  0  0  0  0  0  0  0  0  0
   39.4100   33.8390   40.6660 C   0  0  2  0  0  0  0  0  0  0  0  0
   38.6860   35.0090   39.9280 C   0  0  0  0  0  0  0  0  0  0  0  0
   39.4650   36.2640   40.1160 C   0  0  0  0  0  0  0  0  0  0  0  0
   40.9400   36.1530   39.9390 C   0  0  0  0  0  0  0  0  0  0  0  0
   41.5120   34.9300   40.4440 C   0  0  0  0  0  0  0  0  0  0  0  0
   40.7160   33.6630   40.0620 C   0  0  2  0  0  0  0  0  0  0  0  0
   39.4710   34.2350   41.7060 H   0  0  0  0  0  0  0  0  0  0  0  0
   38.4770   34.7380   38.8950 H   0  0  0  0  0  0  0  0  0  0  0  0
   37.7070   35.0760   40.4490 H   0  0  0  0  0  0  0  0  0  0  0  0
   39.1070   36.7200   41.0590 H   0  0  0  0  0  0  0  0  0  0  0  0
   39.1080   36.9810   39.3200 H   0  0  0  0  0  0  0  0  0  0  0  0
   41.2780   36.8750   40.7880 H   0  0  0  0  0  0  0  0  0  0  0  0
   41.4150   36.7560   39.1630 H   0  0  0  0  0  0  0  0  0  0  0  0
   42.5240   34.7510   39.9790 H   0  0  0  0  0  0  0  0  0  0  0  0
   41.6840   34.8220   41.5430 H   0  0  0  0  0  0  0  0  0  0  0  0
   41.3520   32.8830   40.4810 H   0  0  0  0  0  0  0  0  0  0  0  0
   40.5920   33.6150   38.6040 N   0  0  0  0  0  0  0  0  0  0  0  0
   41.4240   33.0630   37.6150 C   0  0  0  0  0  0  0  0  0  0  0  0
   41.4760   31.8050   37.3660 O   0  0  0  0  0  0  0  0  0  0  0  0
   42.2100   34.0150   36.8950 N   0  0  0  0  0  0  0  0  0  0  0  0
   39.7800   34.1170   38.0780 H   0  0  0  0  0  0  0  0  0  0  0  0
   43.2450   34.0760   36.7540 H   0  0  0  0  0  0  0  0  0  0  0  0
   41.8860   34.8510   36.3590 H   0  0  0  0  0  0  0  0  0  0  0  0
   38.4930   29.3350   42.2230 C   0  0  0  0  0  0  0  0  0  0  0  0
   37.5150   28.5710   42.8210 C   0  0  0  0  0  0  0  0  0  0  0  0
   37.7540   27.4750   43.6130 C   0  0  0  0  0  0  0  0  0  0  0  0
   39.1040   27.1780   43.7750 C   0  0  0  0  0  0  0  0  0  0  0  0
   40.0950   27.9250   43.1880 C   0  0  0  0  0  0  0  0  0  0  0  0
   39.7800   29.0130   42.4060 N   0  0  0  0  0  0  0  0  0  0  0  0
   36.4720   28.8580   42.6550 H   0  0  0  0  0  0  0  0  0  0  0  0
   36.9780   26.8830   44.0780 H   0  0  0  0  0  0  0  0  0  0  0  0
   39.3340   26.3190   44.3940 H   0  0  0  0  0  0  0  0  0  0  0  0
   42.5030   28.5660   43.4770 C   0  0  0  0  0  3  0  0  0  0  0  0
   41.5100   27.6180   43.3560 C   0  0  0  0  0  0  0  0  0  0  0  0
   41.9650   26.3170   43.4060 C   0  0  0  0  0  0  0  0  0  0  0  0
   41.2260   25.5090   43.3160 H   0  0  0  0  0  0  0  0  0  0  0  0
   43.2870   25.9490   43.5620 C   0  0  0  0  0  0  0  0  0  0  0  0
   43.8700   24.7390   43.6280 N   0  0  0  0  0  0  0  0  0  0  0  0
   43.3890   23.8170   43.5680 H   0  0  0  0  0  0  0  0  0  0  0  0
   45.1930   24.9690   43.7870 C   0  0  0  0  0  0  0  0  0  0  0  0
   45.9820   24.2130   43.8780 H   0  0  0  0  0  0  0  0  0  0  0  0
   45.4680   26.3330   43.8230 C   0  0  0  0  0  3  0  0  0  0  0  0
   44.2380   26.9390   43.6790 C   0  0  0  0  0  0  0  0  0  0  0  0
   43.8380   28.2550   43.6350 C   0  0  0  0  0  3  0  0  0  0  0  0
  1  9  1  0  0  0  0
  1  6  1  0  0  0  0
  2  1  2  0  0  0  0
  3  2  1  0  0  0  0
  3  4  2  0  0  0  0
  4  5  1  0  0  0  0
  5  6  2  0  0  0  0
  5 32  1  0  0  0  0
  7  2  1  0  0  0  0
  8  3  1  0  0  0  0
  9 15  1  1  0  0  0
 10 11  1  0  0  0  0
 10 17  1  0  0  0  0
 10  9  1  0  0  0  0
 11 18  1  0  0  0  0
 12 11  1  0  0  0  0
 12 13  1  0  0  0  0
 12 20  1  0  0  0  0
 13 23  1  0  0  0  0
 14 13  1  0  0  0  0
 14 24  1  1  0  0  0
 14  9  1  0  0  0  0
 16 10  1  0  0  0  0
 19 11  1  0  0  0  0
 21 12  1  0  0  0  0
 22 13  1  0  0  0  0
 25 14  1  0  0  0  0
 26 25  1  0  0  0  0
 27 26  2  0  0  0  0
 28 26  1  0  0  0  0
 29 25  1  0  0  0  0
 30 28  1  0  0  0  0
 31 28  1  0  0  0  0
 32 37  2  0  0  0  0
 32 33  1  0  0  0  0
 33 34  2  0  0  0  0
 34 35  1  0  0  0  0
 34 39  1  0  0  0  0
 35 40  1  0  0  0  0
 36 42  1  0  0  0  0
 36 35  2  0  0  0  0
 37 36  1  0  0  0  0
 38 33  1  0  0  0  0
 41 52  1  0  0  0  0
 42 43  1  0  0  0  0
 42 41  2  0  0  0  0
 43 45  2  0  0  0  0
 44 43  1  0  0  0  0
 45 46  1  0  0  0  0
 45 51  1  0  0  0  0
 46 48  1  0  0  0  0
 47 46  1  0  0  0  0
 48 50  2  0  0  0  0
 48 49  1  0  0  0  0
 51 50  1  0  0  0  0
 52 51  2  0  0  0  0
M  END
>  <minimizedAffinity>
-8.56325436

$$$$

 OpenBabel03252507343D

 52 56  0  0  1  0  0  0  0  0999 V2000
   38.6490   32.5350   40.2650 C   0  0  0  0  0  0  0  0  0  0  0  0
   37.8060   32.7130   39.1730 C   0  0  0  0  0  0  0  0  0  0  0  0
   36.8790   31.7000   38.8390 C   0  0  0  0  0  0  0  0  0  0  0  0
   36.8800   30.5650   39.6460 N   0  0  0  0  0  0  0  0  0  0  0  0
   37.7300   30.4590   40.6900 C   0  0  0  0  0  0  0  0  0  0  0  0
   38.5900   31.4220   40.9860 N   0  0  0  0  0  0  0  0  0  0  0  0
   37.6610   33.4570   38.4200 H   0  0  0  0  0  0  0  0  0  0  0  0
   36.1670   31.6570   38.0590 H   0  0  0  0  0  0  0  0  0  0  0  0
   39.5660   33.6110   40.5830 C   0  0  2  0  0  0  0  0  0  0  0  0
   39.0100   34.9910   40.1080 C   0  0  0  0  0  0  0  0  0  0  0  0
   39.9050   36.0750   40.6000 C   0  0  0  0  0  0  0  0  0  0  0  0
   41.3680   35.8370   40.4490 C   0  0  0  0  0  0  0  0  0  0  0  0
   41.7790   34.4760   40.6800 C   0  0  0  0  0  0  0  0  0  0  0  0
   40.8770   33.4250   39.9950 C   0  0  2  0  0  0  0  0  0  0  0  0
   39.6090   33.7570   41.6860 H   0  0  0  0  0  0  0  0  0  0  0  0
   38.8330   34.9830   39.0340 H   0  0  0  0  0  0  0  0  0  0  0  0
   38.0170   35.0530   40.6000 H   0  0  0  0  0  0  0  0  0  0  0  0
   39.5440   36.3480   41.6110 H   0  0  0  0  0  0  0  0  0  0  0  0
   39.6700   36.9880   39.9780 H   0  0  0  0  0  0  0  0  0  0  0  0
   41.7310   36.3090   41.4500 H   0  0  0  0  0  0  0  0  0  0  0  0
   41.9460   36.5400   39.8450 H   0  0  0  0  0  0  0  0  0  0  0  0
   42.7910   34.2900   40.2180 H   0  0  0  0  0  0  0  0  0  0  0  0
   41.8770   34.1070   41.7310 H   0  0  0  0  0  0  0  0  0  0  0  0
   41.4040   32.5040   40.2450 H   0  0  0  0  0  0  0  0  0  0  0  0
   40.8310   33.7180   38.5610 N   0  0  0  0  0  0  0  0  0  0  0  0
   41.6960   33.3700   37.5100 C   0  0  0  0  0  0  0  0  0  0  0  0
   41.7180   32.2010   36.9800 O   0  0  0  0  0  0  0  0  0  0  0  0
   42.5520   34.4250   37.0650 N   0  0  0  0  0  0  0  0  0  0  0  0
   40.0660   34.3630   38.1290 H   0  0  0  0  0  0  0  0  0  0  0  0
   43.5940   34.4690   36.9880 H   0  0  0  0  0  0  0  0  0  0  0  0
   42.2860   35.3750   36.7220 H   0  0  0  0  0  0  0  0  0  0  0  0
   37.6920   29.2260   41.4780 C   0  0  0  0  0  0  0  0  0  0  0  0
   37.8390   29.2510   42.8480 C   0  0  0  0  0  0  0  0  0  0  0  0
   37.8170   28.1430   43.6580 C   0  0  0  0  0  0  0  0  0  0  0  0
   37.6290   26.9460   42.9730 C   0  0  0  0  0  0  0  0  0  0  0  0
   37.4790   26.8970   41.6090 C   0  0  0  0  0  0  0  0  0  0  0  0
   37.5120   28.0510   40.8600 N   0  0  0  0  0  0  0  0  0  0  0  0
   37.9850   30.2250   43.3270 H   0  0  0  0  0  0  0  0  0  0  0  0
   37.9350   28.1740   44.7320 H   0  0  0  0  0  0  0  0  0  0  0  0
   37.6060   26.0470   43.5780 H   0  0  0  0  0  0  0  0  0  0  0  0
   36.4970   25.5120   39.7630 C   0  0  0  0  0  3  0  0  0  0  0  0
   37.2820   25.6460   40.8880 C   0  0  0  0  0  0  0  0  0  0  0  0
   37.8840   24.4740   41.2950 C   0  0  0  0  0  0  0  0  0  0  0  0
   38.5260   24.5090   42.1870 H   0  0  0  0  0  0  0  0  0  0  0  0
   37.7440   23.2540   40.6650 C   0  0  0  0  0  0  0  0  0  0  0  0
   38.2640   22.0450   40.9440 N   0  0  0  0  0  0  0  0  0  0  0  0
   38.9010   21.8150   41.7360 H   0  0  0  0  0  0  0  0  0  0  0  0
   37.7920   21.2070   39.9940 C   0  0  0  0  0  0  0  0  0  0  0  0
   38.0060   20.1350   39.9030 H   0  0  0  0  0  0  0  0  0  0  0  0
   36.9640   21.8740   39.0970 C   0  0  0  0  0  3  0  0  0  0  0  0
   36.9480   23.1790   39.5430 C   0  0  0  0  0  0  0  0  0  0  0  0
   36.3210   24.3180   39.0930 C   0  0  0  0  0  3  0  0  0  0  0  0
  1  9  1  0  0  0  0
  1  6  1  0  0  0  0
  2  1  2  0  0  0  0
  3  2  1  0  0  0  0
  3  4  2  0  0  0  0
  4  5  1  0  0  0  0
  5  6  2  0  0  0  0
  5 32  1  0  0  0  0
  7  2  1  0  0  0  0
  8  3  1  0  0  0  0
  9 15  1  1  0  0  0
 10  9  1  0  0  0  0
 10 11  1  0  0  0  0
 10 17  1  0  0  0  0
 11 18  1  0  0  0  0
 12 11  1  0  0  0  0
 12 13  1  0  0  0  0
 12 20  1  0  0  0  0
 13 23  1  0  0  0  0
 14 24  1  1  0  0  0
 14  9  1  0  0  0  0
 14 13  1  0  0  0  0
 16 10  1  0  0  0  0
 19 11  1  0  0  0  0
 21 12  1  0  0  0  0
 22 13  1  0  0  0  0
 25 14  1  0  0  0  0
 26 25  1  0  0  0  0
 27 26  2  0  0  0  0
 28 26  1  0  0  0  0
 29 25  1  0  0  0  0
 30 28  1  0  0  0  0
 31 28  1  0  0  0  0
 32 33  1  0  0  0  0
 33 38  1  0  0  0  0
 33 34  2  0  0  0  0
 34 39  1  0  0  0  0
 35 40  1  0  0  0  0
 35 34  1  0  0  0  0
 36 35  2  0  0  0  0
 37 32  2  0  0  0  0
 37 36  1  0  0  0  0
 41 42  1  0  0  0  0
 42 43  2  0  0  0  0
 42 36  1  0  0  0  0
 43 44  1  0  0  0  0
 45 46  1  0  0  0  0
 45 43  1  0  0  0  0
 46 47  1  0  0  0  0
 48 46  1  0  0  0  0
 49 48  1  0  0  0  0
 50 51  1  0  0  0  0
 50 48  2  0  0  0  0
 51 45  2  0  0  0  0
 52 51  1  0  0  0  0
 52 41  2  0  0  0  0
M  END
>  <minimizedAffinity>
-8.51153278

$$$$

 OpenBabel03252507343D

 52 56  0  0  1  0  0  0  0  0999 V2000
   38.6670   32.7630   40.3330 C   0  0  0  0  0  0  0  0  0  0  0  0
   37.7270   32.9780   39.3290 C   0  0  0  0  0  0  0  0  0  0  0  0
   36.7690   31.9780   39.0500 C   0  0  0  0  0  0  0  0  0  0  0  0
   36.8380   30.8180   39.8170 N   0  0  0  0  0  0  0  0  0  0  0  0
   37.7800   30.6760   40.7740 C   0  0  0  0  0  0  0  0  0  0  0  0
   38.6680   31.6280   41.0210 N   0  0  0  0  0  0  0  0  0  0  0  0
   37.5170   33.7460   38.6170 H   0  0  0  0  0  0  0  0  0  0  0  0
   35.9880   31.9610   38.3380 H   0  0  0  0  0  0  0  0  0  0  0  0
   39.6130   33.8270   40.6000 C   0  0  2  0  0  0  0  0  0  0  0  0
   39.0890   35.2010   40.0740 C   0  0  0  0  0  0  0  0  0  0  0  0
   40.0170   36.2800   40.5150 C   0  0  0  0  0  0  0  0  0  0  0  0
   41.4720   35.9980   40.3610 C   0  0  0  0  0  0  0  0  0  0  0  0
   41.8500   34.6370   40.6430 C   0  0  0  0  0  0  0  0  0  0  0  0
   40.9140   33.5830   40.0090 C   0  0  2  0  0  0  0  0  0  0  0  0
   39.6720   34.0150   41.6960 H   0  0  0  0  0  0  0  0  0  0  0  0
   38.9020   35.1540   39.0030 H   0  0  0  0  0  0  0  0  0  0  0  0
   38.1030   35.3090   40.5720 H   0  0  0  0  0  0  0  0  0  0  0  0
   39.6730   36.6020   41.5170 H   0  0  0  0  0  0  0  0  0  0  0  0
   39.8000   37.1730   39.8590 H   0  0  0  0  0  0  0  0  0  0  0  0
   41.8560   36.5000   41.3390 H   0  0  0  0  0  0  0  0  0  0  0  0
   42.0620   36.6600   39.7240 H   0  0  0  0  0  0  0  0  0  0  0  0
   42.8520   34.4050   40.1800 H   0  0  0  0  0  0  0  0  0  0  0  0
   41.9480   34.3070   41.7070 H   0  0  0  0  0  0  0  0  0  0  0  0
   41.4190   32.6590   40.2920 H   0  0  0  0  0  0  0  0  0  0  0  0
   40.8620   33.8190   38.5650 N   0  0  0  0  0  0  0  0  0  0  0  0
   41.7360   33.4530   37.5270 C   0  0  0  0  0  0  0  0  0  0  0  0
   41.7890   32.2650   37.0430 O   0  0  0  0  0  0  0  0  0  0  0  0
   42.5660   34.5110   37.0420 N   0  0  0  0  0  0  0  0  0  0  0  0
   40.0810   34.4280   38.1090 H   0  0  0  0  0  0  0  0  0  0  0  0
   43.6070   34.5780   36.9640 H   0  0  0  0  0  0  0  0  0  0  0  0
   42.2760   35.4410   36.6630 H   0  0  0  0  0  0  0  0  0  0  0  0
   37.8080   29.4190   41.5240 C   0  0  0  0  0  0  0  0  0  0  0  0
   38.2080   29.3830   42.8420 C   0  0  0  0  0  0  0  0  0  0  0  0
   38.2640   28.2480   43.6120 C   0  0  0  0  0  0  0  0  0  0  0  0
   37.8740   27.0910   42.9430 C   0  0  0  0  0  0  0  0  0  0  0  0
   37.4710   27.1040   41.6300 C   0  0  0  0  0  0  0  0  0  0  0  0
   37.4400   28.2810   40.9200 N   0  0  0  0  0  0  0  0  0  0  0  0
   38.5030   30.3280   43.3100 H   0  0  0  0  0  0  0  0  0  0  0  0
   38.5800   28.2320   44.6460 H   0  0  0  0  0  0  0  0  0  0  0  0
   37.9050   26.1730   43.5180 H   0  0  0  0  0  0  0  0  0  0  0  0
   37.1950   24.6180   41.4310 C   0  0  0  0  0  3  0  0  0  0  0  0
   37.0620   25.8940   40.9270 C   0  0  0  0  0  0  0  0  0  0  0  0
   36.4990   25.9460   39.6690 C   0  0  0  0  0  0  0  0  0  0  0  0
   36.3630   26.9340   39.2060 H   0  0  0  0  0  0  0  0  0  0  0  0
   36.0880   24.8460   38.9430 C   0  0  0  0  0  0  0  0  0  0  0  0
   35.5290   24.7460   37.7230 N   0  0  0  0  0  0  0  0  0  0  0  0
   35.2990   25.5340   37.0820 H   0  0  0  0  0  0  0  0  0  0  0  0
   35.3330   23.4250   37.5100 C   0  0  0  0  0  0  0  0  0  0  0  0
   34.8940   22.9650   36.6160 H   0  0  0  0  0  0  0  0  0  0  0  0
   35.7660   22.6670   38.5940 C   0  0  0  0  0  3  0  0  0  0  0  0
   36.2430   23.5940   39.4960 C   0  0  0  0  0  0  0  0  0  0  0  0
   36.8010   23.4850   40.7500 C   0  0  0  0  0  3  0  0  0  0  0  0
  1  9  1  0  0  0  0
  1  6  1  0  0  0  0
  2  1  2  0  0  0  0
  3  2  1  0  0  0  0
  3  4  2  0  0  0  0
  4  5  1  0  0  0  0
  5  6  2  0  0  0  0
  5 32  1  0  0  0  0
  7  2  1  0  0  0  0
  8  3  1  0  0  0  0
  9 15  1  1  0  0  0
 10 11  1  0  0  0  0
 10 17  1  0  0  0  0
 10  9  1  0  0  0  0
 11 18  1  0  0  0  0
 12 11  1  0  0  0  0
 12 13  1  0  0  0  0
 12 20  1  0  0  0  0
 13 23  1  0  0  0  0
 14 24  1  1  0  0  0
 14  9  1  0  0  0  0
 14 13  1  0  0  0  0
 16 10  1  0  0  0  0
 19 11  1  0  0  0  0
 21 12  1  0  0  0  0
 22 13  1  0  0  0  0
 25 14  1  0  0  0  0
 26 25  1  0  0  0  0
 27 26  2  0  0  0  0
 28 26  1  0  0  0  0
 29 25  1  0  0  0  0
 30 28  1  0  0  0  0
 31 28  1  0  0  0  0
 32 33  1  0  0  0  0
 33 38  1  0  0  0  0
 33 34  2  0  0  0  0
 34 39  1  0  0  0  0
 35 40  1  0  0  0  0
 35 34  1  0  0  0  0
 36 35  2  0  0  0  0
 37 32  2  0  0  0  0
 37 36  1  0  0  0  0
 42 41  1  0  0  0  0
 42 36  1  0  0  0  0
 43 42  2  0  0  0  0
 44 43  1  0  0  0  0
 45 51  2  0  0  0  0
 45 43  1  0  0  0  0
 46 45  1  0  0  0  0
 47 46  1  0  0  0  0
 48 46  1  0  0  0  0
 48 50  2  0  0  0  0
 49 48  1  0  0  0  0
 50 51  1  0  0  0  0
 51 52  1  0  0  0  0
 52 41  2  0  0  0  0
M  END
>  <minimizedAffinity>
-8.05586147

$$$$

 OpenBabel03252507343D

 52 56  0  0  1  0  0  0  0  0999 V2000
   40.7070   31.8750   41.0240 C   0  0  0  0  0  0  0  0  0  0  0  0
   41.9440   31.3450   40.6700 C   0  0  0  0  0  0  0  0  0  0  0  0
   42.1550   29.9510   40.7680 C   0  0  0  0  0  0  0  0  0  0  0  0
   41.0840   29.1900   41.2250 N   0  0  0  0  0  0  0  0  0  0  0  0
   39.9110   29.7720   41.5540 C   0  0  0  0  0  0  0  0  0  0  0  0
   39.7340   31.0810   41.4530 N   0  0  0  0  0  0  0  0  0  0  0  0
   42.8850   31.7290   40.3410 H   0  0  0  0  0  0  0  0  0  0  0  0
   43.0130   29.3750   40.5460 H   0  0  0  0  0  0  0  0  0  0  0  0
   40.5290   33.3060   40.8840 C   0  0  2  0  0  0  0  0  0  0  0  0
   39.1570   33.6480   40.2230 C   0  0  0  0  0  0  0  0  0  0  0  0
   38.9530   35.1230   40.2520 C   0  0  0  0  0  0  0  0  0  0  0  0
   40.1270   35.9550   39.8640 C   0  0  0  0  0  0  0  0  0  0  0  0
   41.3960   35.4470   40.3180 C   0  0  0  0  0  0  0  0  0  0  0  0
   41.5770   33.9290   40.1010 C   0  0  2  0  0  0  0  0  0  0  0  0
   40.4150   33.7720   41.8900 H   0  0  0  0  0  0  0  0  0  0  0  0
   39.0800   33.1850   39.2410 H   0  0  0  0  0  0  0  0  0  0  0  0
   38.4200   33.1400   40.8790 H   0  0  0  0  0  0  0  0  0  0  0  0
   38.4730   35.3570   41.2220 H   0  0  0  0  0  0  0  0  0  0  0  0
   38.1470   35.3470   39.4940 H   0  0  0  0  0  0  0  0  0  0  0  0
   39.9930   36.8220   40.6280 H   0  0  0  0  0  0  0  0  0  0  0  0
   40.0260   36.6230   39.0060 H   0  0  0  0  0  0  0  0  0  0  0  0
   42.2360   35.8980   39.7160 H   0  0  0  0  0  0  0  0  0  0  0  0
   41.6970   35.6060   41.3840 H   0  0  0  0  0  0  0  0  0  0  0  0
   42.6020   33.7890   40.4470 H   0  0  0  0  0  0  0  0  0  0  0  0
   41.3810   33.6380   38.6790 N   0  0  0  0  0  0  0  0  0  0  0  0
   42.2940   33.3440   37.6520 C   0  0  0  0  0  0  0  0  0  0  0  0
   42.8500   32.1940   37.5180 O   0  0  0  0  0  0  0  0  0  0  0  0
   42.5560   34.4260   36.7560 N   0  0  0  0  0  0  0  0  0  0  0  0
   40.3980   33.6900   38.2110 H   0  0  0  0  0  0  0  0  0  0  0  0
   43.4580   34.8830   36.4860 H   0  0  0  0  0  0  0  0  0  0  0  0
   41.8750   34.9770   36.1880 H   0  0  0  0  0  0  0  0  0  0  0  0
   38.8370   28.9100   42.0520 C   0  0  0  0  0  0  0  0  0  0  0  0
   38.2740   29.1180   43.2920 C   0  0  0  0  0  0  0  0  0  0  0  0
   37.2670   28.3560   43.8320 C   0  0  0  0  0  0  0  0  0  0  0  0
   36.8390   27.3190   43.0080 C   0  0  0  0  0  0  0  0  0  0  0  0
   37.3850   27.0940   41.7680 C   0  0  0  0  0  0  0  0  0  0  0  0
   38.3930   27.9010   41.2920 N   0  0  0  0  0  0  0  0  0  0  0  0
   38.6560   29.9500   43.8920 H   0  0  0  0  0  0  0  0  0  0  0  0
   36.8330   28.5280   44.8070 H   0  0  0  0  0  0  0  0  0  0  0  0
   36.0450   26.6940   43.3990 H   0  0  0  0  0  0  0  0  0  0  0  0
   36.8810   24.6860   41.2810 C   0  0  0  0  0  3  0  0  0  0  0  0
   36.9400   26.0100   40.9020 C   0  0  0  0  0  0  0  0  0  0  0  0
   36.5350   26.2420   39.6050 C   0  0  0  0  0  0  0  0  0  0  0  0
   36.5560   27.2770   39.2360 H   0  0  0  0  0  0  0  0  0  0  0  0
   36.1010   25.2680   38.7270 C   0  0  0  0  0  0  0  0  0  0  0  0
   35.6810   25.3440   37.4520 N   0  0  0  0  0  0  0  0  0  0  0  0
   35.6090   26.2100   36.8760 H   0  0  0  0  0  0  0  0  0  0  0  0
   35.3770   24.0800   37.0820 C   0  0  0  0  0  0  0  0  0  0  0  0
   35.0010   23.7580   36.1030 H   0  0  0  0  0  0  0  0  0  0  0  0
   35.6010   23.1810   38.1200 C   0  0  0  0  0  3  0  0  0  0  0  0
   36.0620   23.9600   39.1600 C   0  0  0  0  0  0  0  0  0  0  0  0
   36.4560   23.6720   40.4470 C   0  0  0  0  0  3  0  0  0  0  0  0
  1  6  1  0  0  0  0
  2  3  1  0  0  0  0
  2  1  2  0  0  0  0
  3  4  2  0  0  0  0
  4  5  1  0  0  0  0
  5 32  1  0  0  0  0
  6  5  2  0  0  0  0
  7  2  1  0  0  0  0
  8  3  1  0  0  0  0
  9  1  1  0  0  0  0
  9 15  1  1  0  0  0
 10 11  1  0  0  0  0
 10 17  1  0  0  0  0
 10  9  1  0  0  0  0
 11 18  1  0  0  0  0
 12 11  1  0  0  0  0
 12 13  1  0  0  0  0
 12 20  1  0  0  0  0
 13 23  1  0  0  0  0
 14 13  1  0  0  0  0
 14 24  1  1  0  0  0
 14  9  1  0  0  0  0
 16 10  1  0  0  0  0
 19 11  1  0  0  0  0
 21 12  1  0  0  0  0
 22 13  1  0  0  0  0
 25 14  1  0  0  0  0
 26 25  1  0  0  0  0
 27 26  2  0  0  0  0
 28 26  1  0  0  0  0
 29 25  1  0  0  0  0
 30 28  1  0  0  0  0
 31 28  1  0  0  0  0
 32 33  1  0  0  0  0
 33 34  2  0  0  0  0
 33 38  1  0  0  0  0
 34 39  1  0  0  0  0
 35 40  1  0  0  0  0
 35 34  1  0  0  0  0
 36 35  2  0  0  0  0
 37 36  1  0  0  0  0
 37 32  2  0  0  0  0
 42 41  1  0  0  0  0
 42 36  1  0  0  0  0
 43 42  2  0  0  0  0
 44 43  1  0  0  0  0
 45 51  2  0  0  0  0
 45 43  1  0  0  0  0
 46 45  1  0  0  0  0
 47 46  1  0  0  0  0
 48 46  1  0  0  0  0
 48 50  2  0  0  0  0
 49 48  1  0  0  0  0
 50 51  1  0  0  0  0
 51 52  1  0  0  0  0
 52 41  2  0  0  0  0
M  END
>  <minimizedAffinity>
-7.79606581

$$$$

 OpenBabel03252507343D

 52 56  0  0  1  0  0  0  0  0999 V2000
   38.3410   31.8660   40.9030 C   0  0  0  0  0  0  0  0  0  0  0  0
   37.0480   32.0110   40.4100 C   0  0  0  0  0  0  0  0  0  0  0  0
   36.1660   30.9080   40.4430 C   0  0  0  0  0  0  0  0  0  0  0  0
   36.6670   29.7250   40.9780 N   0  0  0  0  0  0  0  0  0  0  0  0
   37.9350   29.6550   41.4360 C   0  0  0  0  0  0  0  0  0  0  0  0
   38.7460   30.7030   41.3970 N   0  0  0  0  0  0  0  0  0  0  0  0
   36.4820   32.7840   39.9390 H   0  0  0  0  0  0  0  0  0  0  0  0
   35.1620   30.8280   40.1210 H   0  0  0  0  0  0  0  0  0  0  0  0
   39.2020   33.0310   40.8710 C   0  0  2  0  0  0  0  0  0  0  0  0
   38.4400   34.2880   40.3460 C   0  0  0  0  0  0  0  0  0  0  0  0
   39.3150   35.4850   40.4850 C   0  0  0  0  0  0  0  0  0  0  0  0
   40.7320   35.3150   40.0580 C   0  0  0  0  0  0  0  0  0  0  0  0
   41.3030   34.0310   40.3750 C   0  0  0  0  0  0  0  0  0  0  0  0
   40.3780   32.8380   40.0460 C   0  0  2  0  0  0  0  0  0  0  0  0
   39.4560   33.3420   41.9100 H   0  0  0  0  0  0  0  0  0  0  0  0
   38.0500   34.1090   39.3460 H   0  0  0  0  0  0  0  0  0  0  0  0
   37.5660   34.3640   41.0260 H   0  0  0  0  0  0  0  0  0  0  0  0
   39.1440   35.8840   41.5040 H   0  0  0  0  0  0  0  0  0  0  0  0
   38.8780   36.2790   39.8110 H   0  0  0  0  0  0  0  0  0  0  0  0
   41.2470   35.9530   40.8850 H   0  0  0  0  0  0  0  0  0  0  0  0
   41.1100   35.9530   39.2550 H   0  0  0  0  0  0  0  0  0  0  0  0
   42.2120   33.8380   39.7370 H   0  0  0  0  0  0  0  0  0  0  0  0
   41.6450   33.8300   41.4200 H   0  0  0  0  0  0  0  0  0  0  0  0
   41.0260   31.9970   40.2990 H   0  0  0  0  0  0  0  0  0  0  0  0
   40.0150   32.9090   38.6300 N   0  0  0  0  0  0  0  0  0  0  0  0
   39.9820   31.9270   37.6250 C   0  0  0  0  0  0  0  0  0  0  0  0
   39.0430   31.0570   37.5280 O   0  0  0  0  0  0  0  0  0  0  0  0
   41.0760   31.9730   36.7060 N   0  0  0  0  0  0  0  0  0  0  0  0
   39.7680   33.8530   38.1450 H   0  0  0  0  0  0  0  0  0  0  0  0
   41.7710   31.2380   36.4390 H   0  0  0  0  0  0  0  0  0  0  0  0
   41.3930   32.7730   36.1140 H   0  0  0  0  0  0  0  0  0  0  0  0
   38.4020   28.3710   41.9610 C   0  0  0  0  0  0  0  0  0  0  0  0
   39.2250   28.3080   43.0640 C   0  0  0  0  0  0  0  0  0  0  0  0
   39.7070   27.1470   43.6160 C   0  0  0  0  0  0  0  0  0  0  0  0
   39.2900   25.9930   42.9580 C   0  0  0  0  0  0  0  0  0  0  0  0
   38.4700   26.0320   41.8580 C   0  0  0  0  0  0  0  0  0  0  0  0
   38.0250   27.2350   41.3600 N   0  0  0  0  0  0  0  0  0  0  0  0
   39.5180   29.2520   43.5360 H   0  0  0  0  0  0  0  0  0  0  0  0
   40.3530   27.1100   44.4820 H   0  0  0  0  0  0  0  0  0  0  0  0
   39.6500   25.0550   43.3640 H   0  0  0  0  0  0  0  0  0  0  0  0
   38.8260   23.7210   40.9500 C   0  0  0  0  0  3  0  0  0  0  0  0
   38.0310   24.8260   41.1670 C   0  0  0  0  0  0  0  0  0  0  0  0
   36.7520   24.7050   40.6670 C   0  0  0  0  0  0  0  0  0  0  0  0
   36.0630   25.5500   40.8050 H   0  0  0  0  0  0  0  0  0  0  0  0
   36.2650   23.5960   40.0020 C   0  0  0  0  0  0  0  0  0  0  0  0
   35.0590   23.3400   39.4670 N   0  0  0  0  0  0  0  0  0  0  0  0
   34.2350   23.9790   39.4660 H   0  0  0  0  0  0  0  0  0  0  0  0
   35.1390   22.0970   38.9410 C   0  0  0  0  0  0  0  0  0  0  0  0
   34.3410   21.5550   38.4200 H   0  0  0  0  0  0  0  0  0  0  0  0
   36.4020   21.5470   39.1350 C   0  0  0  0  0  3  0  0  0  0  0  0
   37.1040   22.5200   39.8140 C   0  0  0  0  0  0  0  0  0  0  0  0
   38.3930   22.5870   40.2930 C   0  0  0  0  0  3  0  0  0  0  0  0
  1  6  1  0  0  0  0
  2  3  1  0  0  0  0
  2  1  2  0  0  0  0
  3  4  2  0  0  0  0
  4  5  1  0  0  0  0
  5 32  1  0  0  0  0
  6  5  2  0  0  0  0
  7  2  1  0  0  0  0
  8  3  1  0  0  0  0
  9  1  1  0  0  0  0
  9 15  1  1  0  0  0
 10 11  1  0  0  0  0
 10  9  1  0  0  0  0
 10 17  1  0  0  0  0
 11 18  1  0  0  0  0
 12 13  1  0  0  0  0
 12 11  1  0  0  0  0
 12 20  1  0  0  0  0
 13 23  1  0  0  0  0
 14 24  1  1  0  0  0
 14 13  1  0  0  0  0
 14  9  1  0  0  0  0
 16 10  1  0  0  0  0
 19 11  1  0  0  0  0
 21 12  1  0  0  0  0
 22 13  1  0  0  0  0
 25 14  1  0  0  0  0
 26 25  1  0  0  0  0
 27 26  2  0  0  0  0
 28 26  1  0  0  0  0
 29 25  1  0  0  0  0
 30 28  1  0  0  0  0
 31 28  1  0  0  0  0
 32 33  1  0  0  0  0
 33 38  1  0  0  0  0
 33 34  2  0  0  0  0
 34 39  1  0  0  0  0
 35 40  1  0  0  0  0
 35 34  1  0  0  0  0
 36 35  2  0  0  0  0
 37 36  1  0  0  0  0
 37 32  2  0  0  0  0
 41 42  1  0  0  0  0
 42 36  1  0  0  0  0
 43 44  1  0  0  0  0
 43 42  2  0  0  0  0
 45 43  1  0  0  0  0
 46 45  1  0  0  0  0
 47 46  1  0  0  0  0
 48 50  2  0  0  0  0
 48 46  1  0  0  0  0
 49 48  1  0  0  0  0
 50 51  1  0  0  0  0
 51 45  2  0  0  0  0
 51 52  1  0  0  0  0
 52 41  2  0  0  0  0
M  END
>  <minimizedAffinity>
-7.77438259

$$$$

 OpenBabel03252507343D

 52 56  0  0  1  0  0  0  0  0999 V2000
   37.2780   30.2880   40.6730 C   0  0  0  0  0  0  0  0  0  0  0  0
   35.9780   30.1920   40.1870 C   0  0  0  0  0  0  0  0  0  0  0  0
   35.3100   28.9480   40.2320 C   0  0  0  0  0  0  0  0  0  0  0  0
   36.0210   27.8790   40.7710 N   0  0  0  0  0  0  0  0  0  0  0  0
   37.2830   28.0440   41.2220 C   0  0  0  0  0  0  0  0  0  0  0  0
   37.8900   29.2210   41.1710 N   0  0  0  0  0  0  0  0  0  0  0  0
   35.2780   30.8460   39.7150 H   0  0  0  0  0  0  0  0  0  0  0  0
   34.3360   28.6850   39.9170 H   0  0  0  0  0  0  0  0  0  0  0  0
   37.9130   31.5890   40.6270 C   0  0  2  0  0  0  0  0  0  0  0  0
   37.0930   32.5930   39.7570 C   0  0  0  0  0  0  0  0  0  0  0  0
   37.6950   33.9500   39.8750 C   0  0  0  0  0  0  0  0  0  0  0  0
   39.1810   34.0180   39.7830 C   0  0  0  0  0  0  0  0  0  0  0  0
   39.8710   32.9240   40.4170 C   0  0  0  0  0  0  0  0  0  0  0  0
   39.2640   31.5380   40.1060 C   0  0  2  0  0  0  0  0  0  0  0  0
   37.8610   32.0700   41.6310 H   0  0  0  0  0  0  0  0  0  0  0  0
   36.9830   32.2180   38.7410 H   0  0  0  0  0  0  0  0  0  0  0  0
   36.0840   32.5740   40.2200 H   0  0  0  0  0  0  0  0  0  0  0  0
   37.2270   34.4280   40.7570 H   0  0  0  0  0  0  0  0  0  0  0  0
   37.3000   34.5500   39.0050 H   0  0  0  0  0  0  0  0  0  0  0  0
   39.3730   34.8430   40.5820 H   0  0  0  0  0  0  0  0  0  0  0  0
   39.6220   34.6160   38.9820 H   0  0  0  0  0  0  0  0  0  0  0  0
   40.9230   32.8420   40.0210 H   0  0  0  0  0  0  0  0  0  0  0  0
   39.9880   32.9260   41.5290 H   0  0  0  0  0  0  0  0  0  0  0  0
   39.9670   30.8820   40.6210 H   0  0  0  0  0  0  0  0  0  0  0  0
   39.2350   31.3600   38.6530 N   0  0  0  0  0  0  0  0  0  0  0  0
   40.2680   31.2560   37.7050 C   0  0  0  0  0  0  0  0  0  0  0  0
   40.9560   30.1860   37.5360 O   0  0  0  0  0  0  0  0  0  0  0  0
   40.4930   32.4370   36.9320 N   0  0  0  0  0  0  0  0  0  0  0  0
   38.3010   31.3560   38.0920 H   0  0  0  0  0  0  0  0  0  0  0  0
   41.3610   33.0050   36.7950 H   0  0  0  0  0  0  0  0  0  0  0  0
   39.8120   32.9660   36.3430 H   0  0  0  0  0  0  0  0  0  0  0  0
   37.9780   26.8700   41.7520 C   0  0  0  0  0  0  0  0  0  0  0  0
   37.4100   25.6160   41.6860 C   0  0  0  0  0  0  0  0  0  0  0  0
   37.9940   24.4670   42.1610 C   0  0  0  0  0  0  0  0  0  0  0  0
   39.2460   24.6650   42.7350 C   0  0  0  0  0  0  0  0  0  0  0  0
   39.8310   25.9050   42.8110 C   0  0  0  0  0  0  0  0  0  0  0  0
   39.1860   27.0130   42.3130 N   0  0  0  0  0  0  0  0  0  0  0  0
   36.4220   25.5270   41.2230 H   0  0  0  0  0  0  0  0  0  0  0  0
   37.5390   23.4880   42.1040 H   0  0  0  0  0  0  0  0  0  0  0  0
   39.7400   23.7810   43.1220 H   0  0  0  0  0  0  0  0  0  0  0  0
   41.4200   27.0830   44.3540 C   0  0  0  0  0  3  0  0  0  0  0  0
   41.1420   26.1160   43.4110 C   0  0  0  0  0  0  0  0  0  0  0  0
   42.2280   25.3400   43.0650 C   0  0  0  0  0  0  0  0  0  0  0  0
   42.0780   24.5480   42.3180 H   0  0  0  0  0  0  0  0  0  0  0  0
   43.4980   25.4800   43.5900 C   0  0  0  0  0  0  0  0  0  0  0  0
   44.6370   24.8060   43.3520 N   0  0  0  0  0  0  0  0  0  0  0  0
   44.7580   24.0130   42.6870 H   0  0  0  0  0  0  0  0  0  0  0  0
   45.5770   25.3680   44.1460 C   0  0  0  0  0  0  0  0  0  0  0  0
   46.6310   25.0750   44.2180 H   0  0  0  0  0  0  0  0  0  0  0  0
   45.0450   26.4090   44.9000 C   0  0  0  0  0  3  0  0  0  0  0  0
   43.7180   26.4630   44.5300 C   0  0  0  0  0  0  0  0  0  0  0  0
   42.6680   27.2680   44.9120 C   0  0  0  0  0  3  0  0  0  0  0  0
  1  6  1  0  0  0  0
  2  3  1  0  0  0  0
  2  1  2  0  0  0  0
  3  4  2  0  0  0  0
  4  5  1  0  0  0  0
  5 32  1  0  0  0  0
  6  5  2  0  0  0  0
  7  2  1  0  0  0  0
  8  3  1  0  0  0  0
  9  1  1  0  0  0  0
  9 15  1  1  0  0  0
 10 11  1  0  0  0  0
 10 17  1  0  0  0  0
 10  9  1  0  0  0  0
 11 18  1  0  0  0  0
 12 11  1  0  0  0  0
 12 13  1  0  0  0  0
 12 20  1  0  0  0  0
 13 23  1  0  0  0  0
 14 13  1  0  0  0  0
 14 24  1  1  0  0  0
 14  9  1  0  0  0  0
 16 10  1  0  0  0  0
 19 11  1  0  0  0  0
 21 12  1  0  0  0  0
 22 13  1  0  0  0  0
 25 14  1  0  0  0  0
 26 25  1  0  0  0  0
 27 26  2  0  0  0  0
 28 26  1  0  0  0  0
 29 25  1  0  0  0  0
 30 28  1  0  0  0  0
 31 28  1  0  0  0  0
 32 37  1  0  0  0  0
 33 32  2  0  0  0  0
 33 34  1  0  0  0  0
 34 35  2  0  0  0  0
 35 36  1  0  0  0  0
 35 40  1  0  0  0  0
 36 42  1  0  0  0  0
 37 36  2  0  0  0  0
 38 33  1  0  0  0  0
 39 34  1  0  0  0  0
 41 52  1  0  0  0  0
 42 41  2  0  0  0  0
 43 42  1  0  0  0  0
 43 45  2  0  0  0  0
 44 43  1  0  0  0  0
 45 51  1  0  0  0  0
 46 45  1  0  0  0  0
 46 48  1  0  0  0  0
 47 46  1  0  0  0  0
 48 49  1  0  0  0  0
 48 50  2  0  0  0  0
 51 50  1  0  0  0  0
 51 52  2  0  0  0  0
M  END
>  <minimizedAffinity>
-7.64938116

$$$$

 OpenBabel03252507343D

 52 56  0  0  1  0  0  0  0  0999 V2000
   39.4420   27.0380   40.4570 C   0  0  0  0  0  0  0  0  0  0  0  0
   39.4880   25.7270   39.9920 C   0  0  0  0  0  0  0  0  0  0  0  0
   40.1870   25.4390   38.7980 C   0  0  0  0  0  0  0  0  0  0  0  0
   40.7910   26.5160   38.1550 N   0  0  0  0  0  0  0  0  0  0  0  0
   40.7030   27.7640   38.6620 C   0  0  0  0  0  0  0  0  0  0  0  0
   40.0440   28.0110   39.7840 N   0  0  0  0  0  0  0  0  0  0  0  0
   39.0840   24.7850   40.2910 H   0  0  0  0  0  0  0  0  0  0  0  0
   40.3320   24.5190   38.2980 H   0  0  0  0  0  0  0  0  0  0  0  0
   38.7350   27.2810   41.6970 C   0  0  2  0  0  0  0  0  0  0  0  0
   37.3680   26.5260   41.7320 C   0  0  0  0  0  0  0  0  0  0  0  0
   36.7600   26.6750   43.0830 C   0  0  0  0  0  0  0  0  0  0  0  0
   36.8020   28.0420   43.6740 C   0  0  0  0  0  0  0  0  0  0  0  0
   38.0130   28.7740   43.4030 C   0  0  0  0  0  0  0  0  0  0  0  0
   38.4800   28.6880   41.9330 C   0  0  2  0  0  0  0  0  0  0  0  0
   39.2770   26.7990   42.5420 H   0  0  0  0  0  0  0  0  0  0  0  0
   36.7390   26.8360   40.8990 H   0  0  0  0  0  0  0  0  0  0  0  0
   37.6520   25.4690   41.5470 H   0  0  0  0  0  0  0  0  0  0  0  0
   37.1610   25.8490   43.7030 H   0  0  0  0  0  0  0  0  0  0  0  0
   35.6670   26.4160   42.9690 H   0  0  0  0  0  0  0  0  0  0  0  0
   37.0090   27.7520   44.7830 H   0  0  0  0  0  0  0  0  0  0  0  0
   35.8550   28.5280   43.9210 H   0  0  0  0  0  0  0  0  0  0  0  0
   37.8460   29.8780   43.5580 H   0  0  0  0  0  0  0  0  0  0  0  0
   38.9330   28.5430   43.9940 H   0  0  0  0  0  0  0  0  0  0  0  0
   39.3460   29.3500   41.9500 H   0  0  0  0  0  0  0  0  0  0  0  0
   37.3890   29.1520   41.0730 N   0  0  0  0  0  0  0  0  0  0  0  0
   36.9310   30.4440   40.7620 C   0  0  0  0  0  0  0  0  0  0  0  0
   37.5320   31.2190   39.9350 O   0  0  0  0  0  0  0  0  0  0  0  0
   35.7310   30.8310   41.4370 N   0  0  0  0  0  0  0  0  0  0  0  0
   36.7070   28.4570   40.5830 H   0  0  0  0  0  0  0  0  0  0  0  0
   35.5310   31.6560   42.0490 H   0  0  0  0  0  0  0  0  0  0  0  0
   34.8050   30.3480   41.4420 H   0  0  0  0  0  0  0  0  0  0  0  0
   41.3410   28.8500   37.9170 C   0  0  0  0  0  0  0  0  0  0  0  0
   42.0860   28.5980   36.7860 C   0  0  0  0  0  0  0  0  0  0  0  0
   42.7170   29.5580   36.0340 C   0  0  0  0  0  0  0  0  0  0  0  0
   42.5460   30.8540   36.5130 C   0  0  0  0  0  0  0  0  0  0  0  0
   41.8080   31.1290   37.6380 C   0  0  0  0  0  0  0  0  0  0  0  0
   41.2030   30.1130   38.3420 N   0  0  0  0  0  0  0  0  0  0  0  0
   42.1820   27.5560   36.4610 H   0  0  0  0  0  0  0  0  0  0  0  0
   43.2990   29.3480   35.1470 H   0  0  0  0  0  0  0  0  0  0  0  0
   43.0300   31.6410   35.9460 H   0  0  0  0  0  0  0  0  0  0  0  0
   42.2700   33.5940   37.6390 C   0  0  0  0  0  3  0  0  0  0  0  0
   41.6270   32.4840   38.1430 C   0  0  0  0  0  0  0  0  0  0  0  0
   40.7750   32.7560   39.1920 C   0  0  0  0  0  0  0  0  0  0  0  0
   40.2280   31.9150   39.6420 H   0  0  0  0  0  0  0  0  0  0  0  0
   40.5530   34.0110   39.7230 C   0  0  0  0  0  0  0  0  0  0  0  0
   39.7620   34.4220   40.7300 N   0  0  0  0  0  0  0  0  0  0  0  0
   39.1450   33.8210   41.3160 H   0  0  0  0  0  0  0  0  0  0  0  0
   39.9350   35.7600   40.8200 C   0  0  0  0  0  0  0  0  0  0  0  0
   39.4480   36.4360   41.5330 H   0  0  0  0  0  0  0  0  0  0  0  0
   40.8410   36.2180   39.8680 C   0  0  0  0  0  3  0  0  0  0  0  0
   41.2220   35.0860   39.1790 C   0  0  0  0  0  0  0  0  0  0  0  0
   42.0860   34.8710   38.1300 C   0  0  0  0  0  3  0  0  0  0  0  0
  1  9  1  0  0  0  0
  2  7  1  0  0  0  0
  2  1  1  0  0  0  0
  3  2  2  0  0  0  0
  4  5  2  0  0  0  0
  4  3  1  0  0  0  0
  5  6  1  0  0  0  0
  6  1  2  0  0  0  0
  8  3  1  0  0  0  0
  9 10  1  0  0  0  0
  9 14  1  0  0  0  0
  9 15  1  1  0  0  0
 10 11  1  0  0  0  0
 11 12  1  0  0  0  0
 11 18  1  0  0  0  0
 12 21  1  0  0  0  0
 12 20  1  0  0  0  0
 13 22  1  0  0  0  0
 13 12  1  0  0  0  0
 13 23  1  0  0  0  0
 14 24  1  6  0  0  0
 14 13  1  0  0  0  0
 16 10  1  0  0  0  0
 17 10  1  0  0  0  0
 19 11  1  0  0  0  0
 25 14  1  0  0  0  0
 26 25  1  0  0  0  0
 26 28  1  0  0  0  0
 27 26  2  0  0  0  0
 28 31  1  0  0  0  0
 28 30  1  0  0  0  0
 29 25  1  0  0  0  0
 32 37  1  0  0  0  0
 32  5  1  0  0  0  0
 33 32  2  0  0  0  0
 34 35  2  0  0  0  0
 34 33  1  0  0  0  0
 35 36  1  0  0  0  0
 36 42  1  0  0  0  0
 36 37  2  0  0  0  0
 38 33  1  0  0  0  0
 39 34  1  0  0  0  0
 40 35  1  0  0  0  0
 41 52  2  0  0  0  0
 41 42  1  0  0  0  0
 42 43  2  0  0  0  0
 43 44  1  0  0  0  0
 43 45  1  0  0  0  0
 45 46  1  0  0  0  0
 46 48  1  0  0  0  0
 46 47  1  0  0  0  0
 48 49  1  0  0  0  0
 50 48  2  0  0  0  0
 51 45  2  0  0  0  0
 51 50  1  0  0  0  0
 52 51  1  0  0  0  0
M  END
>  <minimizedAffinity>
-7.35210228

$$$$

 OpenBabel03252507343D

 52 56  0  0  1  0  0  0  0  0999 V2000
   41.2010   34.6290   40.3690 C   0  0  0  0  0  0  0  0  0  0  0  0
   40.5240   35.8050   40.0600 C   0  0  0  0  0  0  0  0  0  0  0  0
   39.1120   35.8040   40.0290 C   0  0  0  0  0  0  0  0  0  0  0  0
   38.4830   34.5950   40.3120 N   0  0  0  0  0  0  0  0  0  0  0  0
   39.2050   33.4910   40.6010 C   0  0  0  0  0  0  0  0  0  0  0  0
   40.5290   33.5150   40.6270 N   0  0  0  0  0  0  0  0  0  0  0  0
   40.7900   36.8020   39.7840 H   0  0  0  0  0  0  0  0  0  0  0  0
   38.4340   36.5880   39.8200 H   0  0  0  0  0  0  0  0  0  0  0  0
   42.6480   34.6850   40.4130 C   0  0  2  0  0  0  0  0  0  0  0  0
   43.2860   33.8930   39.2280 C   0  0  0  0  0  0  0  0  0  0  0  0
   44.7580   34.1170   39.2250 C   0  0  0  0  0  0  0  0  0  0  0  0
   45.4370   34.0320   40.5490 C   0  0  0  0  0  0  0  0  0  0  0  0
   44.6810   34.5810   41.6450 C   0  0  0  0  0  0  0  0  0  0  0  0
   43.1940   34.1630   41.6500 C   0  0  2  0  0  0  0  0  0  0  0  0
   42.9930   35.7230   40.1990 H   0  0  0  0  0  0  0  0  0  0  0  0
   42.9710   32.8520   39.2510 H   0  0  0  0  0  0  0  0  0  0  0  0
   42.8210   34.3530   38.3300 H   0  0  0  0  0  0  0  0  0  0  0  0
   44.9380   35.0320   38.6280 H   0  0  0  0  0  0  0  0  0  0  0  0
   45.2030   33.2940   38.5920 H   0  0  0  0  0  0  0  0  0  0  0  0
   46.2090   34.8920   40.4100 H   0  0  0  0  0  0  0  0  0  0  0  0
   46.2180   33.2800   40.6820 H   0  0  0  0  0  0  0  0  0  0  0  0
   45.0670   34.1810   42.6260 H   0  0  0  0  0  0  0  0  0  0  0  0
   44.6520   35.6900   41.7850 H   0  0  0  0  0  0  0  0  0  0  0  0
   42.8500   34.6280   42.5750 H   0  0  0  0  0  0  0  0  0  0  0  0
   43.1230   32.7010   41.6530 N   0  0  0  0  0  0  0  0  0  0  0  0
   43.2900   31.7610   42.6840 C   0  0  0  0  0  0  0  0  0  0  0  0
   42.3880   31.5210   43.5650 O   0  0  0  0  0  0  0  0  0  0  0  0
   44.5470   31.0800   42.6750 N   0  0  0  0  0  0  0  0  0  0  0  0
   42.9810   32.1300   40.7350 H   0  0  0  0  0  0  0  0  0  0  0  0
   45.2800   30.9950   43.4170 H   0  0  0  0  0  0  0  0  0  0  0  0
   44.9780   30.5240   41.9030 H   0  0  0  0  0  0  0  0  0  0  0  0
   38.4770   32.2480   40.8640 C   0  0  0  0  0  0  0  0  0  0  0  0
   37.1660   32.0930   40.4680 C   0  0  0  0  0  0  0  0  0  0  0  0
   36.4140   30.9640   40.6780 C   0  0  0  0  0  0  0  0  0  0  0  0
   37.0940   29.9470   41.3440 C   0  0  0  0  0  0  0  0  0  0  0  0
   38.3990   30.0800   41.7470 C   0  0  0  0  0  0  0  0  0  0  0  0
   39.0920   31.2440   41.5010 N   0  0  0  0  0  0  0  0  0  0  0  0
   36.6880   32.9310   39.9500 H   0  0  0  0  0  0  0  0  0  0  0  0
   35.3850   30.8530   40.3640 H   0  0  0  0  0  0  0  0  0  0  0  0
   36.5330   29.0380   41.5290 H   0  0  0  0  0  0  0  0  0  0  0  0
   38.5050   27.9840   43.1200 C   0  0  0  0  0  3  0  0  0  0  0  0
   39.1150   29.0180   42.4440 C   0  0  0  0  0  0  0  0  0  0  0  0
   40.4920   28.9760   42.4760 C   0  0  0  0  0  0  0  0  0  0  0  0
   41.0440   29.7720   41.9560 H   0  0  0  0  0  0  0  0  0  0  0  0
   41.2380   28.0050   43.1150 C   0  0  0  0  0  0  0  0  0  0  0  0
   42.5670   27.8370   43.2290 N   0  0  0  0  0  0  0  0  0  0  0  0
   43.3040   28.4540   42.8270 H   0  0  0  0  0  0  0  0  0  0  0  0
   42.7410   26.7150   43.9630 C   0  0  0  0  0  0  0  0  0  0  0  0
   43.6980   26.2680   44.2590 H   0  0  0  0  0  0  0  0  0  0  0  0
   41.5200   26.1540   44.3270 C   0  0  0  0  0  3  0  0  0  0  0  0
   40.5750   26.9930   43.7750 C   0  0  0  0  0  0  0  0  0  0  0  0
   39.1990   26.9870   43.7750 C   0  0  0  0  0  3  0  0  0  0  0  0
  1  9  1  0  0  0  0
  1  6  1  0  0  0  0
  2  1  2  0  0  0  0
  3  2  1  0  0  0  0
  3  4  2  0  0  0  0
  4  5  1  0  0  0  0
  5  6  2  0  0  0  0
  5 32  1  0  0  0  0
  7  2  1  0  0  0  0
  8  3  1  0  0  0  0
  9 15  1  6  0  0  0
  9 14  1  0  0  0  0
 10 16  1  0  0  0  0
 10  9  1  0  0  0  0
 11 10  1  0  0  0  0
 11 12  1  0  0  0  0
 12 21  1  0  0  0  0
 12 13  1  0  0  0  0
 13 14  1  0  0  0  0
 13 23  1  0  0  0  0
 13 22  1  0  0  0  0
 14 25  1  0  0  0  0
 14 24  1  1  0  0  0
 17 10  1  0  0  0  0
 18 11  1  0  0  0  0
 19 11  1  0  0  0  0
 20 12  1  0  0  0  0
 25 26  1  0  0  0  0
 26 27  2  0  0  0  0
 28 26  1  0  0  0  0
 28 30  1  0  0  0  0
 29 25  1  0  0  0  0
 31 28  1  0  0  0  0
 32 37  1  0  0  0  0
 33 34  1  0  0  0  0
 33 32  2  0  0  0  0
 34 35  2  0  0  0  0
 35 40  1  0  0  0  0
 35 36  1  0  0  0  0
 36 42  1  0  0  0  0
 37 36  2  0  0  0  0
 38 33  1  0  0  0  0
 39 34  1  0  0  0  0
 41 52  1  0  0  0  0
 42 43  1  0  0  0  0
 42 41  2  0  0  0  0
 43 45  2  0  0  0  0
 44 43  1  0  0  0  0
 45 46  1  0  0  0  0
 45 51  1  0  0  0  0
 46 48  1  0  0  0  0
 47 46  1  0  0  0  0
 48 49  1  0  0  0  0
 48 50  2  0  0  0  0
 51 52  2  0  0  0  0
 51 50  1  0  0  0  0
M  END
>  <minimizedAffinity>
-7.3317008

$$$$

 OpenBabel03252507343D

 52 56  0  0  1  0  0  0  0  0999 V2000
   36.8900   26.0000   40.5160 C   0  0  0  0  0  0  0  0  0  0  0  0
   36.7680   24.6440   40.8070 C   0  0  0  0  0  0  0  0  0  0  0  0
   36.1760   23.7820   39.8560 C   0  0  0  0  0  0  0  0  0  0  0  0
   35.7440   24.3660   38.6690 N   0  0  0  0  0  0  0  0  0  0  0  0
   35.8920   25.6910   38.4550 C   0  0  0  0  0  0  0  0  0  0  0  0
   36.4520   26.4810   39.3590 N   0  0  0  0  0  0  0  0  0  0  0  0
   36.9870   24.0080   41.6350 H   0  0  0  0  0  0  0  0  0  0  0  0
   36.0020   22.7400   39.8970 H   0  0  0  0  0  0  0  0  0  0  0  0
   37.5240   26.8410   41.5100 C   0  0  2  0  0  0  0  0  0  0  0  0
   36.7490   26.8050   42.8650 C   0  0  0  0  0  0  0  0  0  0  0  0
   37.5270   27.5490   43.8950 C   0  0  0  0  0  0  0  0  0  0  0  0
   38.0980   28.8580   43.4660 C   0  0  0  0  0  0  0  0  0  0  0  0
   38.5890   28.8810   42.1120 C   0  0  0  0  0  0  0  0  0  0  0  0
   37.6360   28.2230   41.0900 C   0  0  2  0  0  0  0  0  0  0  0  0
   38.5060   26.4040   41.8040 H   0  0  0  0  0  0  0  0  0  0  0  0
   35.7220   27.1350   42.7260 H   0  0  0  0  0  0  0  0  0  0  0  0
   36.7110   25.7240   43.1130 H   0  0  0  0  0  0  0  0  0  0  0  0
   38.2280   26.8220   44.3480 H   0  0  0  0  0  0  0  0  0  0  0  0
   36.8050   27.7820   44.7310 H   0  0  0  0  0  0  0  0  0  0  0  0
   39.1150   28.8020   44.0290 H   0  0  0  0  0  0  0  0  0  0  0  0
   37.7880   29.7570   44.0030 H   0  0  0  0  0  0  0  0  0  0  0  0
   38.6710   29.9440   41.7440 H   0  0  0  0  0  0  0  0  0  0  0  0
   39.5850   28.4270   41.8860 H   0  0  0  0  0  0  0  0  0  0  0  0
   38.1680   28.4130   40.1570 H   0  0  0  0  0  0  0  0  0  0  0  0
   36.3320   28.8820   41.1800 N   0  0  0  0  0  0  0  0  0  0  0  0
   35.7920   29.9800   40.4880 C   0  0  0  0  0  0  0  0  0  0  0  0
   35.3490   29.8990   39.2860 O   0  0  0  0  0  0  0  0  0  0  0  0
   35.7650   31.2010   41.2300 N   0  0  0  0  0  0  0  0  0  0  0  0
   35.5910   28.5930   41.9240 H   0  0  0  0  0  0  0  0  0  0  0  0
   36.1680   32.1410   41.0090 H   0  0  0  0  0  0  0  0  0  0  0  0
   35.3240   31.3860   42.1590 H   0  0  0  0  0  0  0  0  0  0  0  0
   35.3910   26.2390   37.1940 C   0  0  0  0  0  0  0  0  0  0  0  0
   35.8600   25.7810   35.9810 C   0  0  0  0  0  0  0  0  0  0  0  0
   35.4440   26.2430   34.7570 C   0  0  0  0  0  0  0  0  0  0  0  0
   34.4800   27.2450   34.8280 C   0  0  0  0  0  0  0  0  0  0  0  0
   33.9990   27.7160   36.0250 C   0  0  0  0  0  0  0  0  0  0  0  0
   34.4630   27.2040   37.2150 N   0  0  0  0  0  0  0  0  0  0  0  0
   36.6190   24.9920   35.9940 H   0  0  0  0  0  0  0  0  0  0  0  0
   35.8190   25.8770   33.8110 H   0  0  0  0  0  0  0  0  0  0  0  0
   34.1260   27.6370   33.8820 H   0  0  0  0  0  0  0  0  0  0  0  0
   32.6080   29.5580   35.0430 C   0  0  0  0  0  3  0  0  0  0  0  0
   32.9900   28.7650   36.1040 C   0  0  0  0  0  0  0  0  0  0  0  0
   32.3290   29.0440   37.2810 C   0  0  0  0  0  0  0  0  0  0  0  0
   32.5840   28.4480   38.1690 H   0  0  0  0  0  0  0  0  0  0  0  0
   31.3630   30.0200   37.4320 C   0  0  0  0  0  0  0  0  0  0  0  0
   30.6440   30.3990   38.5030 N   0  0  0  0  0  0  0  0  0  0  0  0
   30.7000   29.9920   39.4610 H   0  0  0  0  0  0  0  0  0  0  0  0
   29.8450   31.4050   38.0800 C   0  0  0  0  0  0  0  0  0  0  0  0
   29.1190   31.9610   38.6850 H   0  0  0  0  0  0  0  0  0  0  0  0
   30.0480   31.6790   36.7310 C   0  0  0  0  0  3  0  0  0  0  0  0
   31.0200   30.7830   36.3380 C   0  0  0  0  0  0  0  0  0  0  0  0
   31.6500   30.5470   35.1370 C   0  0  0  0  0  3  0  0  0  0  0  0
  1  2  1  0  0  0  0
  1  9  1  0  0  0  0
  2  7  1  0  0  0  0
  3  8  1  0  0  0  0
  3  2  2  0  0  0  0
  4  3  1  0  0  0  0
  5  4  2  0  0  0  0
  5  6  1  0  0  0  0
  6  1  2  0  0  0  0
  9 15  1  1  0  0  0
  9 10  1  0  0  0  0
 10 17  1  0  0  0  0
 10 11  1  0  0  0  0
 11 18  1  0  0  0  0
 11 19  1  0  0  0  0
 12 11  1  0  0  0  0
 12 21  1  0  0  0  0
 12 20  1  0  0  0  0
 13 12  1  0  0  0  0
 14 24  1  6  0  0  0
 14 25  1  0  0  0  0
 14  9  1  0  0  0  0
 14 13  1  0  0  0  0
 16 10  1  0  0  0  0
 22 13  1  0  0  0  0
 23 13  1  0  0  0  0
 25 29  1  0  0  0  0
 26 25  1  0  0  0  0
 26 28  1  0  0  0  0
 27 26  2  0  0  0  0
 28 31  1  0  0  0  0
 30 28  1  0  0  0  0
 32 37  1  0  0  0  0
 32  5  1  0  0  0  0
 33 38  1  0  0  0  0
 33 32  2  0  0  0  0
 34 35  2  0  0  0  0
 34 33  1  0  0  0  0
 35 36  1  0  0  0  0
 36 42  1  0  0  0  0
 36 37  2  0  0  0  0
 39 34  1  0  0  0  0
 40 35  1  0  0  0  0
 41 52  2  0  0  0  0
 41 42  1  0  0  0  0
 42 43  2  0  0  0  0
 43 45  1  0  0  0  0
 43 44  1  0  0  0  0
 45 46  1  0  0  0  0
 46 47  1  0  0  0  0
 48 46  1  0  0  0  0
 48 49  1  0  0  0  0
 50 48  2  0  0  0  0
 51 50  1  0  0  0  0
 51 45  2  0  0  0  0
 52 51  1  0  0  0  0
M  END
>  <minimizedAffinity>
-7.32323456

$$$$
