
 OpenBabel03252509263D

 33 36  0  0  1  0  0  0  0  0999 V2000
   46.6840   35.0950   41.9360 C   0  0  1  0  0  0  0  0  0  0  0  0
   48.1970   35.4430   41.9900 C   0  0  0  0  0  0  0  0  0  0  0  0
   47.5640   34.1680   41.3530 C   0  0  2  0  0  0  0  0  0  0  0  0
   46.1110   35.8400   41.3590 H   0  0  0  0  0  0  0  0  0  0  0  0
   48.7420   35.2900   42.9260 H   0  0  0  0  0  0  0  0  0  0  0  0
   48.5340   36.2140   41.2800 H   0  0  0  0  0  0  0  0  0  0  0  0
   47.8140   33.2220   41.9190 H   0  0  0  0  0  0  0  0  0  0  0  0
   44.6820   35.3180   45.1020 C   0  0  0  0  0  0  0  0  0  0  0  0
   45.1630   35.6550   43.8090 C   0  0  0  0  0  0  0  0  0  0  0  0
   46.1470   34.8550   43.3290 C   0  0  0  0  0  0  0  0  0  0  0  0
   46.6510   33.7870   44.0460 N   0  0  0  0  0  0  0  0  0  0  0  0
   46.1650   33.4990   45.2790 C   0  0  0  0  0  0  0  0  0  0  0  0
   45.1740   34.2730   45.8060 N   0  0  0  0  0  0  0  0  0  0  0  0
   43.8950   35.9540   45.4910 H   0  0  0  0  0  0  0  0  0  0  0  0
   46.5060   32.6930   45.8850 H   0  0  0  0  0  0  0  0  0  0  0  0
   44.6720   36.7580   43.0920 N   0  0  0  0  0  0  0  0  0  0  0  0
   43.7680   36.8620   42.5800 H   0  0  0  0  0  0  0  0  0  0  0  0
   45.3520   37.5760   43.1030 H   0  0  0  0  0  0  0  0  0  0  0  0
   47.6490   33.9950   39.8550 C   0  0  0  0  0  0  0  0  0  0  0  0
   46.6170   34.1330   39.4770 H   0  0  0  0  0  0  0  0  0  0  0  0
   48.2860   34.7730   39.3880 H   0  0  0  0  0  0  0  0  0  0  0  0
   49.3640   32.1590   39.5360 C   0  0  0  0  0  3  0  0  0  0  0  0
   48.0710   32.6220   39.5400 C   0  0  0  0  0  0  0  0  0  0  0  0
   47.0590   31.7230   39.2180 C   0  0  0  0  0  0  0  0  0  0  0  0
   46.0130   31.9980   39.1960 H   0  0  0  0  0  0  0  0  0  0  0  0
   47.3160   30.4030   38.9020 C   0  0  0  0  0  0  0  0  0  0  0  0
   46.5450   29.3550   38.5650 N   0  0  0  0  0  0  0  0  0  0  0  0
   45.4920   29.4030   38.4830 H   0  0  0  0  0  0  0  0  0  0  0  0
   47.2960   28.2610   38.3510 C   0  0  0  0  0  0  0  0  0  0  0  0
   46.8720   27.3040   38.0670 H   0  0  0  0  0  0  0  0  0  0  0  0
   48.6200   28.5910   38.5540 C   0  0  0  0  0  3  0  0  0  0  0  0
   48.6090   29.9380   38.8980 C   0  0  0  0  0  0  0  0  0  0  0  0
   49.6140   30.8350   39.2180 C   0  0  0  0  0  3  0  0  0  0  0  0
  1  4  1  6  0  0  0
  1  2  1  0  0  0  0
  1 10  1  0  0  0  0
  2  5  1  0  0  0  0
  3  7  1  1  0  0  0
  3  1  1  0  0  0  0
  3  2  1  0  0  0  0
  6  2  1  0  0  0  0
  8 14  1  0  0  0  0
  8 13  1  0  0  0  0
  9  8  2  0  0  0  0
 10  9  1  0  0  0  0
 10 11  2  0  0  0  0
 11 12  1  0  0  0  0
 12 13  2  0  0  0  0
 12 15  1  0  0  0  0
 16 18  1  0  0  0  0
 16  9  1  0  0  0  0
 17 16  1  0  0  0  0
 19  3  1  0  0  0  0
 20 19  1  0  0  0  0
 21 19  1  0  0  0  0
 22 23  1  0  0  0  0
 23 19  1  0  0  0  0
 24 23  2  0  0  0  0
 25 24  1  0  0  0  0
 26 24  1  0  0  0  0
 27 26  1  0  0  0  0
 28 27  1  0  0  0  0
 29 31  2  0  0  0  0
 29 27  1  0  0  0  0
 30 29  1  0  0  0  0
 31 32  1  0  0  0  0
 32 26  2  0  0  0  0
 32 33  1  0  0  0  0
 33 22  2  0  0  0  0
M  END
>  <minimizedAffinity>
-4.4690814

>  <minimizedRMSD>
0.90153867

$$$$
