
     RDKit          3D

 36 39  0  0  0  0  0  0  0  0999 V2000
   44.6725   35.3840   45.1453 C   0  0  0  0  0  0  0  0  0  0  0  0
   45.1293   35.6938   43.8355 C   0  0  0  0  0  0  0  0  0  0  0  0
   46.0700   34.8548   43.3369 C   0  0  0  0  0  0  0  0  0  0  0  0
   46.5552   33.7754   44.0491 N   0  0  0  0  0  0  0  0  0  0  0  0
   46.0932   33.5146   45.2975 C   0  0  0  0  0  0  0  0  0  0  0  0
   45.1445   34.3281   45.8443 N   0  0  0  0  0  0  0  0  0  0  0  0
   46.5770   35.0646   41.9281 C   0  0  1  0  0  0  0  0  0  0  0  0
   48.1134   35.2936   41.9322 C   0  0  0  0  0  0  0  0  0  0  0  0
   47.3617   34.0781   41.3093 C   0  0  2  0  0  0  0  0  0  0  0  0
   47.3832   33.9120   39.8077 C   0  0  0  0  0  0  0  0  0  0  0  0
   44.6579   36.8080   43.1231 N   0  0  0  0  0  0  0  0  0  0  0  0
   43.9190   36.0510   45.5486 H   0  0  0  0  0  0  0  0  0  0  0  0
   46.4218   32.7024   45.9012 H   0  0  0  0  0  0  0  0  0  0  0  0
   46.0443   35.8567   41.3752 H   0  0  0  0  0  0  0  0  0  0  0  0
   48.6758   35.0923   42.8484 H   0  0  0  0  0  0  0  0  0  0  0  0
   48.4851   36.0430   41.2148 H   0  0  0  0  0  0  0  0  0  0  0  0
   47.5573   33.1100   41.8610 H   0  0  0  0  0  0  0  0  0  0  0  0
   46.3529   33.6205   39.5235 H   0  0  0  0  0  0  0  0  0  0  0  0
   47.6189   34.8649   39.2926 H   0  0  0  0  0  0  0  0  0  0  0  0
   43.7443   36.9398   42.6351 H   0  0  0  0  0  0  0  0  0  0  0  0
   45.3673   37.6007   43.1078 H   0  0  0  0  0  0  0  0  0  0  0  0
   48.0187   31.4706   39.5919 C   0  0  0  0  0  0  0  0  0  0  0  0
   48.2866   32.8091   39.4458 C   0  0  0  0  0  0  0  0  0  0  0  0
   49.5178   33.1703   38.9091 C   0  0  0  0  0  0  0  0  0  0  0  0
   49.8150   34.1987   38.7576 H   0  0  0  0  0  0  0  0  0  0  0  0
   50.4601   32.2354   38.5265 C   0  0  0  0  0  0  0  0  0  0  0  0
   51.6918   32.3118   37.9962 N   0  0  0  0  0  0  0  0  0  0  0  0
   52.1776   33.2241   37.7665 H   0  0  0  0  0  0  0  0  0  0  0  0
   52.2060   31.0847   37.8041 C   0  0  0  0  0  0  0  0  0  0  0  0
   53.1931   30.9192   37.3844 H   0  0  0  0  0  0  0  0  0  0  0  0
   51.2800   30.1517   38.2232 C   0  0  0  0  0  0  0  0  0  0  0  0
   50.1938   30.8942   38.6720 C   0  0  0  0  0  0  0  0  0  0  0  0
   48.9681   30.5387   39.2062 C   0  0  0  0  0  0  0  0  0  0  0  0
   47.0548   31.1982   40.0118 H   0  0  0  0  0  0  0  0  0  0  0  0
   51.3894   29.0779   38.2013 H   0  0  0  0  0  0  0  0  0  0  0  0
   48.7602   29.4846   39.3200 H   0  0  0  0  0  0  0  0  0  0  0  0
  1  6  2  0
  2  1  1  0
  3  2  2  0
  3  4  1  0
  4  5  2  0
  5  6  1  0
  7  3  1  0
  8  7  1  0
  9  8  1  0
  9  7  1  0
 10  9  1  0
 11  2  1  0
  1 12  1  0
  5 13  1  0
  7 14  1  6
  8 15  1  0
  8 16  1  0
  9 17  1  1
 10 18  1  0
 10 19  1  0
 11 20  1  0
 11 21  1  0
 22 23  2  0
 23 24  1  0
 24 25  1  0
 24 26  2  0
 26 27  1  0
 27 28  1  0
 27 29  1  0
 29 30  1  0
 29 31  2  0
 31 32  1  0
 32 33  2  0
 33 22  1  0
 32 26  1  0
 22 34  1  0
 31 35  1  0
 33 36  1  0
 10 23  1  0
M  ISO  8  12  14  13  14  14  13  15  13  16  13  17  13  18   8  19   8
M  ISO  3  25  15  28   5  30  14
M  END
>  <DihAtoms>  (1) 
8,9,22,21

>  <DihDeg>  (1) 
89.99697825826514

$$$$
