
 OpenBabel03252509263D

 33 36  0  0  1  0  0  0  0  0999 V2000
   46.5610   34.9620   41.9710 C   0  0  1  0  0  0  0  0  0  0  0  0
   48.0140   35.5100   41.9810 C   0  0  0  0  0  0  0  0  0  0  0  0
   47.5620   34.1000   41.4920 C   0  0  2  0  0  0  0  0  0  0  0  0
   45.9010   35.5550   41.3160 H   0  0  0  0  0  0  0  0  0  0  0  0
   48.5640   35.5370   42.9260 H   0  0  0  0  0  0  0  0  0  0  0  0
   48.2550   36.2350   41.1870 H   0  0  0  0  0  0  0  0  0  0  0  0
   47.9290   33.2640   42.1610 H   0  0  0  0  0  0  0  0  0  0  0  0
   44.6380   35.4160   45.1610 C   0  0  0  0  0  0  0  0  0  0  0  0
   45.1050   35.6720   43.8440 C   0  0  0  0  0  0  0  0  0  0  0  0
   46.0450   34.8100   43.3840 C   0  0  0  0  0  0  0  0  0  0  0  0
   46.5190   33.7560   44.1410 N   0  0  0  0  0  0  0  0  0  0  0  0
   46.0480   33.5470   45.3950 C   0  0  0  0  0  0  0  0  0  0  0  0
   45.1010   34.3860   45.9040 N   0  0  0  0  0  0  0  0  0  0  0  0
   43.8860   36.1020   45.5340 H   0  0  0  0  0  0  0  0  0  0  0  0
   46.3690   32.7570   46.0320 H   0  0  0  0  0  0  0  0  0  0  0  0
   44.6440   36.7600   43.0850 N   0  0  0  0  0  0  0  0  0  0  0  0
   43.7340   36.8770   42.5860 H   0  0  0  0  0  0  0  0  0  0  0  0
   45.3580   37.5480   43.0440 H   0  0  0  0  0  0  0  0  0  0  0  0
   47.6870   33.7740   40.0230 C   0  0  0  0  0  0  0  0  0  0  0  0
   46.7580   33.2320   39.7550 H   0  0  0  0  0  0  0  0  0  0  0  0
   47.7350   34.6910   39.4020 H   0  0  0  0  0  0  0  0  0  0  0  0
   49.1500   32.2440   38.6330 C   0  0  0  0  0  3  0  0  0  0  0  0
   48.8230   32.8630   39.8140 C   0  0  0  0  0  0  0  0  0  0  0  0
   49.6280   32.6160   40.9210 C   0  0  0  0  0  0  0  0  0  0  0  0
   49.4470   33.0580   41.8910 H   0  0  0  0  0  0  0  0  0  0  0  0
   50.7260   31.7800   40.8650 C   0  0  0  0  0  0  0  0  0  0  0  0
   51.6450   31.3810   41.7590 N   0  0  0  0  0  0  0  0  0  0  0  0
   51.6560   31.6940   42.7710 H   0  0  0  0  0  0  0  0  0  0  0  0
   52.5300   30.5430   41.1930 C   0  0  0  0  0  0  0  0  0  0  0  0
   53.3570   30.1010   41.7410 H   0  0  0  0  0  0  0  0  0  0  0  0
   52.1880   30.3760   39.8670 C   0  0  0  0  0  3  0  0  0  0  0  0
   51.0550   31.1600   39.6820 C   0  0  0  0  0  0  0  0  0  0  0  0
   50.2530   31.4080   38.5830 C   0  0  0  0  0  3  0  0  0  0  0  0
  1  4  1  6  0  0  0
  1  2  1  0  0  0  0
  1 10  1  0  0  0  0
  2  5  1  0  0  0  0
  3  1  1  0  0  0  0
  3  2  1  0  0  0  0
  3  7  1  1  0  0  0
  6  2  1  0  0  0  0
  8 14  1  0  0  0  0
  8 13  1  0  0  0  0
  9  8  2  0  0  0  0
 10  9  1  0  0  0  0
 10 11  2  0  0  0  0
 11 12  1  0  0  0  0
 12 13  2  0  0  0  0
 12 15  1  0  0  0  0
 16  9  1  0  0  0  0
 17 16  1  0  0  0  0
 18 16  1  0  0  0  0
 19  3  1  0  0  0  0
 20 19  1  0  0  0  0
 21 19  1  0  0  0  0
 22 23  1  0  0  0  0
 23 19  1  0  0  0  0
 23 24  2  0  0  0  0
 24 25  1  0  0  0  0
 26 24  1  0  0  0  0
 26 27  1  0  0  0  0
 27 28  1  0  0  0  0
 29 30  1  0  0  0  0
 29 27  1  0  0  0  0
 31 29  2  0  0  0  0
 32 31  1  0  0  0  0
 32 26  2  0  0  0  0
 33 22  2  0  0  0  0
 33 32  1  0  0  0  0
M  END
>  <minimizedAffinity>
-5.27994299

>  <minimizedRMSD>
0.885403156

$$$$
