REMARK  Name = 
REMARK  4 active torsions:
REMARK  status: ('A' for Active; 'I' for Inactive)
REMARK    1  A    between atoms: C_2  and  N_11
REMARK    2  A    between atoms: C_3  and  C_7
REMARK    3  A    between atoms: C_9  and  C_10
REMARK    4  A    between atoms: C_10  and  C_23
REMARK                            x       y       z     vdW  Elec       q    Type
REMARK                         _______ _______ _______ _____ _____    ______ ____
ROOT
ATOM      1  C   UNL     1      46.577  35.065  41.928  0.00  0.00    +0.000 C 
ATOM      2  C   UNL     1      48.113  35.294  41.932  0.00  0.00    +0.000 C 
ATOM      3  C   UNL     1      47.362  34.078  41.309  0.00  0.00    +0.000 C 
ATOM      4  H   UNL     1      46.044  35.857  41.375  0.00  0.00    +0.000 HD
ATOM      5  H   UNL     1      48.676  35.092  42.848  0.00  0.00    +0.000 HD
ATOM      6  H   UNL     1      48.485  36.043  41.215  0.00  0.00    +0.000 HD
ATOM      7  H   UNL     1      47.557  33.110  41.861  0.00  0.00    +0.000 HD
ENDROOT
BRANCH   1  10
ATOM      8  C   UNL     1      44.672  35.384  45.145  0.00  0.00    +0.000 A 
ATOM      9  C   UNL     1      45.129  35.694  43.836  0.00  0.00    +0.000 A 
ATOM     10  C   UNL     1      46.070  34.855  43.337  0.00  0.00    +0.000 A 
ATOM     11  N   UNL     1      46.555  33.775  44.049  0.00  0.00    +0.000 NA
ATOM     12  C   UNL     1      46.093  33.515  45.297  0.00  0.00    +0.000 A 
ATOM     13  N   UNL     1      45.145  34.328  45.844  0.00  0.00    +0.000 NA
ATOM     14  H   UNL     1      43.919  36.051  45.549  0.00  0.00    +0.000 HD
ATOM     15  H   UNL     1      46.422  32.702  45.901  0.00  0.00    +0.000 HD
BRANCH   9  16
ATOM     16  N   UNL     1      44.658  36.808  43.123  0.00  0.00    +0.000 N 
ATOM     17  H   UNL     1      43.744  36.940  42.635  0.00  0.00    +0.000 HD
ATOM     18  H   UNL     1      45.367  37.601  43.108  0.00  0.00    +0.000 HD
ENDBRANCH   9  16
ENDBRANCH   1  10
BRANCH   3  19
ATOM     19  C   UNL     1      47.383  33.912  39.808  0.00  0.00    +0.000 C 
ATOM     20  H   UNL     1      46.353  33.620  39.523  0.00  0.00    +0.000 HD
ATOM     21  H   UNL     1      47.619  34.865  39.293  0.00  0.00    +0.000 HD
BRANCH  19  23
ATOM     22  C   UNL     1      48.340  31.581  40.057  0.00  0.00    +0.000 A 
ATOM     23  C   UNL     1      48.287  32.809  39.446  0.00  0.00    +0.000 A 
ATOM     24  C   UNL     1      49.158  33.047  38.388  0.00  0.00    +0.000 A 
ATOM     25  H   UNL     1      49.187  33.983  37.848  0.00  0.00    +0.000 HD
ATOM     26  C   UNL     1      50.059  32.097  37.945  0.00  0.00    +0.000 A 
ATOM     27  N   UNL     1      50.985  32.069  36.974  0.00  0.00    +0.000 N 
ATOM     28  H   UNL     1      51.181  32.881  36.323  0.00  0.00    +0.000 HD
ATOM     29  C   UNL     1      51.615  30.881  36.949  0.00  0.00    +0.000 A 
ATOM     30  H   UNL     1      52.402  30.647  36.239  0.00  0.00    +0.000 HD
ATOM     31  C   UNL     1      51.087  30.085  37.945  0.00  0.00    +0.000 A 
ATOM     32  C   UNL     1      50.114  30.867  38.556  0.00  0.00    +0.000 A 
ATOM     33  C   UNL     1      49.246  30.634  39.608  0.00  0.00    +0.000 A 
ENDBRANCH  19  23
ENDBRANCH   3  19
TORSDOF 4
