
 OpenBabel03242512533D

 47 52  0  0  1  0  0  0  0  0999 V2000
   37.3700   30.7000   38.9570 N   0  0  0  0  0  0  0  0  0  0  0  0
   37.4970   29.8150   37.7930 C   0  0  0  0  0  0  0  0  0  0  0  0
   36.0180   29.6360   37.5160 C   0  0  0  0  0  0  0  0  0  0  0  0
   35.5260   29.2190   38.8780 C   0  0  0  0  0  0  0  0  0  0  0  0
   36.3030   30.1210   39.8140 C   0  0  1  0  0  0  0  0  0  0  0  0
   37.9280   28.8630   38.1330 H   0  0  0  0  0  0  0  0  0  0  0  0
   38.0200   30.3160   36.9750 H   0  0  0  0  0  0  0  0  0  0  0  0
   35.6240   30.6250   37.2000 H   0  0  0  0  0  0  0  0  0  0  0  0
   35.8490   28.8550   36.7470 H   0  0  0  0  0  0  0  0  0  0  0  0
   34.4170   29.3880   38.9630 H   0  0  0  0  0  0  0  0  0  0  0  0
   35.8000   28.1660   39.0360 H   0  0  0  0  0  0  0  0  0  0  0  0
   35.7010   30.9590   40.0280 H   0  0  0  0  0  0  0  0  0  0  0  0
   37.0010   29.4040   40.8630 C   0  0  0  0  0  0  0  0  0  0  0  0
   37.6160   30.0600   41.8770 N   0  0  0  0  0  0  0  0  0  0  0  0
   38.2880   29.4670   42.8840 C   0  0  0  0  0  0  0  0  0  0  0  0
   38.3600   28.1240   42.8970 N   0  0  0  0  0  0  0  0  0  0  0  0
   37.7750   27.4320   41.9280 C   0  0  0  0  0  0  0  0  0  0  0  0
   37.8800   26.0500   41.9930 C   0  0  0  0  0  0  0  0  0  0  0  0
   37.2630   25.3270   40.9730 C   0  0  0  0  0  0  0  0  0  0  0  0
   36.5590   25.8850   39.9090 C   0  0  0  0  0  0  0  0  0  0  0  0
   36.5090   27.2650   39.9290 C   0  0  0  0  0  0  0  0  0  0  0  0
   37.0790   28.0340   40.8810 C   0  0  0  0  0  0  0  0  0  0  0  0
   38.7320   30.0960   43.6260 H   0  0  0  0  0  0  0  0  0  0  0  0
   38.4050   25.5720   42.7810 H   0  0  0  0  0  0  0  0  0  0  0  0
   37.3620   24.2440   41.0520 H   0  0  0  0  0  0  0  0  0  0  0  0
   36.1190   25.2280   39.1710 H   0  0  0  0  0  0  0  0  0  0  0  0
   35.9800   27.6610   39.0830 H   0  0  0  0  0  0  0  0  0  0  0  0
   38.2160   34.1340   40.0910 C   0  0  0  0  0  0  0  0  0  0  0  0
   37.4420   33.0260   39.7780 C   0  0  0  0  0  0  0  0  0  0  0  0
   38.0560   31.8760   39.3010 C   0  0  0  0  0  0  0  0  0  0  0  0
   39.4070   31.8880   39.1590 N   0  0  0  0  0  0  0  0  0  0  0  0
   40.1660   32.9730   39.4640 C   0  0  0  0  0  0  0  0  0  0  0  0
   39.5600   34.0900   39.9300 N   0  0  0  0  0  0  0  0  0  0  0  0
   37.7750   35.0410   40.4640 H   0  0  0  0  0  0  0  0  0  0  0  0
   36.3800   33.1000   39.8950 H   0  0  0  0  0  0  0  0  0  0  0  0
   42.3960   32.4180   40.3040 C   0  0  0  0  0  3  0  0  0  0  0  0
   41.6140   32.9330   39.2920 C   0  0  0  0  0  0  0  0  0  0  0  0
   42.1660   33.4120   38.1210 C   0  0  0  0  0  0  0  0  0  0  0  0
   41.5300   33.8100   37.3440 H   0  0  0  0  0  0  0  0  0  0  0  0
   43.5440   33.3790   37.9480 C   0  0  0  0  0  0  0  0  0  0  0  0
   44.3750   33.7530   36.9580 N   0  0  0  0  0  0  0  0  0  0  0  0
   44.0950   34.1820   36.0470 H   0  0  0  0  0  0  0  0  0  0  0  0
   45.6480   33.4710   37.3610 C   0  0  0  0  0  0  0  0  0  0  0  0
   46.5150   33.6880   36.7200 H   0  0  0  0  0  0  0  0  0  0  0  0
   45.6230   32.9110   38.6220 C   0  0  0  0  0  3  0  0  0  0  0  0
   44.2740   32.8530   38.9930 C   0  0  0  0  0  0  0  0  0  0  0  0
   43.7890   32.3600   40.1870 C   0  0  0  0  0  3  0  0  0  0  0  0
  1 30  1  0  0  0  0
  1  5  1  0  0  0  0
  2  6  1  0  0  0  0
  2  1  1  0  0  0  0
  3  2  1  0  0  0  0
  3  4  1  0  0  0  0
  4 10  1  0  0  0  0
  4 11  1  0  0  0  0
  4  5  1  0  0  0  0
  5 12  1  1  0  0  0
  5 13  1  0  0  0  0
  7  2  1  0  0  0  0
  8  3  1  0  0  0  0
  9  3  1  0  0  0  0
 13 22  2  0  0  0  0
 13 14  1  0  0  0  0
 14 15  2  0  0  0  0
 15 16  1  0  0  0  0
 15 23  1  0  0  0  0
 17 18  1  0  0  0  0
 17 16  2  0  0  0  0
 18 24  1  0  0  0  0
 19 25  1  0  0  0  0
 19 18  2  0  0  0  0
 20 21  2  0  0  0  0
 20 19  1  0  0  0  0
 21 22  1  0  0  0  0
 22 17  1  0  0  0  0
 26 20  1  0  0  0  0
 27 21  1  0  0  0  0
 28 34  1  0  0  0  0
 29 35  1  0  0  0  0
 29 28  2  0  0  0  0
 30 29  1  0  0  0  0
 31 30  2  0  0  0  0
 31 32  1  0  0  0  0
 32 33  2  0  0  0  0
 33 28  1  0  0  0  0
 37 32  1  0  0  0  0
 37 36  2  0  0  0  0
 38 37  1  0  0  0  0
 39 38  1  0  0  0  0
 40 38  2  0  0  0  0
 40 46  1  0  0  0  0
 41 43  1  0  0  0  0
 41 40  1  0  0  0  0
 42 41  1  0  0  0  0
 43 45  2  0  0  0  0
 44 43  1  0  0  0  0
 45 46  1  0  0  0  0
 46 47  2  0  0  0  0
 47 36  1  0  0  0  0
M  END
>  <minimizedAffinity>
-7.20637274

$$$$

 OpenBabel03242512533D

 47 52  0  0  1  0  0  0  0  0999 V2000
   37.0540   24.4230   39.0670 N   0  0  0  0  0  0  0  0  0  0  0  0
   37.8050   23.3880   38.3480 C   0  0  0  0  0  0  0  0  0  0  0  0
   37.3880   22.2080   39.2010 C   0  0  0  0  0  0  0  0  0  0  0  0
   37.7180   22.7260   40.5770 C   0  0  0  0  0  0  0  0  0  0  0  0
   37.2680   24.1720   40.5150 C   0  0  1  0  0  0  0  0  0  0  0  0
   38.8780   23.5860   38.4870 H   0  0  0  0  0  0  0  0  0  0  0  0
   37.4630   23.3010   37.3140 H   0  0  0  0  0  0  0  0  0  0  0  0
   36.2980   22.0630   39.0450 H   0  0  0  0  0  0  0  0  0  0  0  0
   37.9710   21.3010   38.9390 H   0  0  0  0  0  0  0  0  0  0  0  0
   37.1530   22.1490   41.3600 H   0  0  0  0  0  0  0  0  0  0  0  0
   38.8060   22.6650   40.7180 H   0  0  0  0  0  0  0  0  0  0  0  0
   36.2890   24.2220   40.9040 H   0  0  0  0  0  0  0  0  0  0  0  0
   38.2910   25.1150   40.9200 C   0  0  0  0  0  0  0  0  0  0  0  0
   39.5410   25.0670   40.3980 N   0  0  0  0  0  0  0  0  0  0  0  0
   40.5460   25.9040   40.7270 C   0  0  0  0  0  0  0  0  0  0  0  0
   40.3040   26.8630   41.6380 N   0  0  0  0  0  0  0  0  0  0  0  0
   39.0970   26.9550   42.1800 C   0  0  0  0  0  0  0  0  0  0  0  0
   38.9040   27.9640   43.1120 C   0  0  0  0  0  0  0  0  0  0  0  0
   37.6330   28.0580   43.6800 C   0  0  0  0  0  0  0  0  0  0  0  0
   36.5600   27.2210   43.3820 C   0  0  0  0  0  0  0  0  0  0  0  0
   36.8480   26.2480   42.4440 C   0  0  0  0  0  0  0  0  0  0  0  0
   38.0510   26.0950   41.8500 C   0  0  0  0  0  0  0  0  0  0  0  0
   41.4900   25.7620   40.2440 H   0  0  0  0  0  0  0  0  0  0  0  0
   39.6870   28.6290   43.3780 H   0  0  0  0  0  0  0  0  0  0  0  0
   37.5120   28.8600   44.4070 H   0  0  0  0  0  0  0  0  0  0  0  0
   35.6160   27.3840   43.8820 H   0  0  0  0  0  0  0  0  0  0  0  0
   36.0060   25.6090   42.2570 H   0  0  0  0  0  0  0  0  0  0  0  0
   34.4780   26.4440   37.3140 C   0  0  0  0  0  0  0  0  0  0  0  0
   35.2000   25.3290   37.7140 C   0  0  0  0  0  0  0  0  0  0  0  0
   36.2600   25.4820   38.5960 C   0  0  0  0  0  0  0  0  0  0  0  0
   36.5490   26.7360   39.0340 N   0  0  0  0  0  0  0  0  0  0  0  0
   35.8440   27.8280   38.6420 C   0  0  0  0  0  0  0  0  0  0  0  0
   34.8100   27.6720   37.7820 N   0  0  0  0  0  0  0  0  0  0  0  0
   33.6500   26.3650   36.6330 H   0  0  0  0  0  0  0  0  0  0  0  0
   34.9260   24.3770   37.3070 H   0  0  0  0  0  0  0  0  0  0  0  0
   36.0430   29.4260   40.4850 C   0  0  0  0  0  3  0  0  0  0  0  0
   36.1960   29.1540   39.1420 C   0  0  0  0  0  0  0  0  0  0  0  0
   36.6730   30.1000   38.2590 C   0  0  0  0  0  0  0  0  0  0  0  0
   36.7830   29.8590   37.2110 H   0  0  0  0  0  0  0  0  0  0  0  0
   37.0110   31.3640   38.7240 C   0  0  0  0  0  0  0  0  0  0  0  0
   37.4900   32.4810   38.1460 N   0  0  0  0  0  0  0  0  0  0  0  0
   37.7160   32.6030   37.1320 H   0  0  0  0  0  0  0  0  0  0  0  0
   37.6280   33.4240   39.1240 C   0  0  0  0  0  0  0  0  0  0  0  0
   38.0060   34.4330   38.9000 H   0  0  0  0  0  0  0  0  0  0  0  0
   37.2310   32.8980   40.3350 C   0  0  0  0  0  3  0  0  0  0  0  0
   36.8380   31.5790   40.0760 C   0  0  0  0  0  0  0  0  0  0  0  0
   36.3670   30.6820   41.0110 C   0  0  0  0  0  3  0  0  0  0  0  0
  1  5  1  0  0  0  0
  2  6  1  0  0  0  0
  2  1  1  0  0  0  0
  2  3  1  0  0  0  0
  3  4  1  0  0  0  0
  4 11  1  0  0  0  0
  4 10  1  0  0  0  0
  5  4  1  0  0  0  0
  5 12  1  1  0  0  0
  5 13  1  0  0  0  0
  7  2  1  0  0  0  0
  8  3  1  0  0  0  0
  9  3  1  0  0  0  0
 13 22  1  0  0  0  0
 14 15  1  0  0  0  0
 14 13  2  0  0  0  0
 15 16  2  0  0  0  0
 16 17  1  0  0  0  0
 17 18  1  0  0  0  0
 18 24  1  0  0  0  0
 18 19  2  0  0  0  0
 19 25  1  0  0  0  0
 20 19  1  0  0  0  0
 20 26  1  0  0  0  0
 21 20  2  0  0  0  0
 22 17  2  0  0  0  0
 22 21  1  0  0  0  0
 23 15  1  0  0  0  0
 27 21  1  0  0  0  0
 28 29  2  0  0  0  0
 28 33  1  0  0  0  0
 29 30  1  0  0  0  0
 30 31  2  0  0  0  0
 30  1  1  0  0  0  0
 32 31  1  0  0  0  0
 32 37  1  0  0  0  0
 33 32  2  0  0  0  0
 34 28  1  0  0  0  0
 35 29  1  0  0  0  0
 36 47  1  0  0  0  0
 37 36  2  0  0  0  0
 38 40  2  0  0  0  0
 38 37  1  0  0  0  0
 39 38  1  0  0  0  0
 40 46  1  0  0  0  0
 41 40  1  0  0  0  0
 41 43  1  0  0  0  0
 42 41  1  0  0  0  0
 43 45  2  0  0  0  0
 44 43  1  0  0  0  0
 46 45  1  0  0  0  0
 46 47  2  0  0  0  0
M  END
>  <minimizedAffinity>
-7.12474585

$$$$

 OpenBabel03242512533D

 47 52  0  0  1  0  0  0  0  0999 V2000
   39.1580   32.1080   40.4830 N   0  0  0  0  0  0  0  0  0  0  0  0
   39.9240   33.2310   39.9300 C   0  0  0  0  0  0  0  0  0  0  0  0
   39.0380   34.3490   40.4410 C   0  0  0  0  0  0  0  0  0  0  0  0
   37.6910   33.8860   39.9490 C   0  0  0  0  0  0  0  0  0  0  0  0
   37.7270   32.3930   40.2030 C   0  0  1  0  0  0  0  0  0  0  0  0
   39.8610   33.1800   38.8340 H   0  0  0  0  0  0  0  0  0  0  0  0
   40.9300   33.2650   40.3530 H   0  0  0  0  0  0  0  0  0  0  0  0
   39.1160   34.3450   41.5490 H   0  0  0  0  0  0  0  0  0  0  0  0
   39.3360   35.3240   40.0050 H   0  0  0  0  0  0  0  0  0  0  0  0
   36.8670   34.3870   40.5300 H   0  0  0  0  0  0  0  0  0  0  0  0
   37.6270   34.0950   38.8710 H   0  0  0  0  0  0  0  0  0  0  0  0
   37.2700   32.2140   41.1360 H   0  0  0  0  0  0  0  0  0  0  0  0
   37.3990   31.5990   39.0370 C   0  0  0  0  0  0  0  0  0  0  0  0
   37.9770   31.8390   37.8340 N   0  0  0  0  0  0  0  0  0  0  0  0
   37.7220   31.1480   36.7040 C   0  0  0  0  0  0  0  0  0  0  0  0
   36.8300   30.1430   36.7600 N   0  0  0  0  0  0  0  0  0  0  0  0
   36.2350   29.8650   37.9130 C   0  0  0  0  0  0  0  0  0  0  0  0
   35.3260   28.8170   37.9120 C   0  0  0  0  0  0  0  0  0  0  0  0
   34.7030   28.5280   39.1260 C   0  0  0  0  0  0  0  0  0  0  0  0
   34.9250   29.2070   40.3210 C   0  0  0  0  0  0  0  0  0  0  0  0
   35.8440   30.2330   40.2230 C   0  0  0  0  0  0  0  0  0  0  0  0
   36.4900   30.5720   39.0860 C   0  0  0  0  0  0  0  0  0  0  0  0
   38.2430   31.4360   35.8160 H   0  0  0  0  0  0  0  0  0  0  0  0
   35.1170   28.2660   37.0290 H   0  0  0  0  0  0  0  0  0  0  0  0
   33.9950   27.6990   39.0930 H   0  0  0  0  0  0  0  0  0  0  0  0
   34.3860   28.8980   41.2060 H   0  0  0  0  0  0  0  0  0  0  0  0
   35.9730   30.7480   41.1560 H   0  0  0  0  0  0  0  0  0  0  0  0
   40.9880   29.7010   42.6390 C   0  0  0  0  0  0  0  0  0  0  0  0
   40.6610   30.8990   42.0210 C   0  0  0  0  0  0  0  0  0  0  0  0
   39.5760   30.9490   41.1580 C   0  0  0  0  0  0  0  0  0  0  0  0
   38.8720   29.8050   40.9530 N   0  0  0  0  0  0  0  0  0  0  0  0
   39.1910   28.6310   41.5560 C   0  0  0  0  0  0  0  0  0  0  0  0
   40.2500   28.5900   42.3980 N   0  0  0  0  0  0  0  0  0  0  0  0
   41.8200   29.6240   43.3150 H   0  0  0  0  0  0  0  0  0  0  0  0
   41.2780   31.7530   42.2150 H   0  0  0  0  0  0  0  0  0  0  0  0
   38.0110   26.6460   42.3660 C   0  0  0  0  0  3  0  0  0  0  0  0
   38.4020   27.4310   41.3010 C   0  0  0  0  0  0  0  0  0  0  0  0
   38.0650   27.1110   40.0020 C   0  0  0  0  0  0  0  0  0  0  0  0
   38.3840   27.7440   39.1870 H   0  0  0  0  0  0  0  0  0  0  0  0
   37.3140   25.9700   39.7480 C   0  0  0  0  0  0  0  0  0  0  0  0
   36.8320   25.3920   38.6330 N   0  0  0  0  0  0  0  0  0  0  0  0
   36.9530   25.7420   37.6550 H   0  0  0  0  0  0  0  0  0  0  0  0
   36.1560   24.2680   39.0110 C   0  0  0  0  0  0  0  0  0  0  0  0
   35.6650   23.6170   38.2730 H   0  0  0  0  0  0  0  0  0  0  0  0
   36.2110   24.1330   40.3830 C   0  0  0  0  0  3  0  0  0  0  0  0
   36.9520   25.2250   40.8510 C   0  0  0  0  0  0  0  0  0  0  0  0
   37.2540   25.4850   42.1710 C   0  0  0  0  0  3  0  0  0  0  0  0
  1 30  1  0  0  0  0
  2  7  1  0  0  0  0
  2  3  1  0  0  0  0
  2  1  1  0  0  0  0
  3  8  1  0  0  0  0
  4  5  1  0  0  0  0
  4  3  1  0  0  0  0
  4 10  1  0  0  0  0
  5  1  1  0  0  0  0
  5 12  1  1  0  0  0
  6  2  1  0  0  0  0
  9  3  1  0  0  0  0
 11  4  1  0  0  0  0
 13 22  1  0  0  0  0
 13  5  1  0  0  0  0
 14 13  2  0  0  0  0
 15 16  2  0  0  0  0
 15 14  1  0  0  0  0
 16 17  1  0  0  0  0
 17 22  1  0  0  0  0
 18 17  2  0  0  0  0
 18 19  1  0  0  0  0
 19 20  2  0  0  0  0
 20 26  1  0  0  0  0
 21 20  1  0  0  0  0
 21 27  1  0  0  0  0
 22 21  2  0  0  0  0
 23 15  1  0  0  0  0
 24 18  1  0  0  0  0
 25 19  1  0  0  0  0
 28 34  1  0  0  0  0
 29 35  1  0  0  0  0
 29 28  2  0  0  0  0
 30 29  1  0  0  0  0
 31 30  2  0  0  0  0
 31 32  1  0  0  0  0
 32 33  2  0  0  0  0
 33 28  1  0  0  0  0
 37 32  1  0  0  0  0
 37 36  2  0  0  0  0
 38 37  1  0  0  0  0
 39 38  1  0  0  0  0
 40 38  2  0  0  0  0
 40 46  1  0  0  0  0
 41 43  1  0  0  0  0
 41 40  1  0  0  0  0
 42 41  1  0  0  0  0
 43 45  2  0  0  0  0
 44 43  1  0  0  0  0
 45 46  1  0  0  0  0
 46 47  2  0  0  0  0
 47 36  1  0  0  0  0
M  END
>  <minimizedAffinity>
-6.9940424

$$$$

 OpenBabel03242512533D

 47 52  0  0  1  0  0  0  0  0999 V2000
   36.4260   25.4200   38.8860 N   0  0  0  0  0  0  0  0  0  0  0  0
   36.7760   24.2560   38.0640 C   0  0  0  0  0  0  0  0  0  0  0  0
   36.0230   23.2120   38.8640 C   0  0  0  0  0  0  0  0  0  0  0  0
   36.5470   23.4900   40.2500 C   0  0  0  0  0  0  0  0  0  0  0  0
   36.5920   25.0030   40.3020 C   0  0  1  0  0  0  0  0  0  0  0  0
   37.8580   24.0840   38.1570 H   0  0  0  0  0  0  0  0  0  0  0  0
   36.3920   24.3640   37.0470 H   0  0  0  0  0  0  0  0  0  0  0  0
   34.9420   23.4400   38.7590 H   0  0  0  0  0  0  0  0  0  0  0  0
   36.2700   22.1880   38.5150 H   0  0  0  0  0  0  0  0  0  0  0  0
   35.8490   23.0680   41.0250 H   0  0  0  0  0  0  0  0  0  0  0  0
   37.5600   23.0690   40.3270 H   0  0  0  0  0  0  0  0  0  0  0  0
   35.6960   25.3370   40.7460 H   0  0  0  0  0  0  0  0  0  0  0  0
   37.8790   25.5310   40.7090 C   0  0  0  0  0  0  0  0  0  0  0  0
   39.0330   25.0800   40.1580 N   0  0  0  0  0  0  0  0  0  0  0  0
   40.2660   25.5160   40.4850 C   0  0  0  0  0  0  0  0  0  0  0  0
   40.3740   26.4700   41.4260 N   0  0  0  0  0  0  0  0  0  0  0  0
   39.2770   26.9480   41.9980 C   0  0  0  0  0  0  0  0  0  0  0  0
   39.4490   27.9320   42.9600 C   0  0  0  0  0  0  0  0  0  0  0  0
   38.2920   28.4320   43.5580 C   0  0  0  0  0  0  0  0  0  0  0  0
   36.9960   28.0180   43.2620 C   0  0  0  0  0  0  0  0  0  0  0  0
   36.9250   27.0360   42.2940 C   0  0  0  0  0  0  0  0  0  0  0  0
   37.9970   26.5040   41.6690 C   0  0  0  0  0  0  0  0  0  0  0  0
   41.0990   25.0780   39.9780 H   0  0  0  0  0  0  0  0  0  0  0  0
   40.4140   28.2840   43.2250 H   0  0  0  0  0  0  0  0  0  0  0  0
   38.4600   29.2040   44.3090 H   0  0  0  0  0  0  0  0  0  0  0  0
   36.1680   28.4750   43.7880 H   0  0  0  0  0  0  0  0  0  0  0  0
   35.9140   26.7260   42.1080 H   0  0  0  0  0  0  0  0  0  0  0  0
   34.5900   28.2940   37.4160 C   0  0  0  0  0  0  0  0  0  0  0  0
   34.9200   26.9780   37.7070 C   0  0  0  0  0  0  0  0  0  0  0  0
   36.0080   26.7110   38.5260 C   0  0  0  0  0  0  0  0  0  0  0  0
   36.7130   27.7670   39.0110 N   0  0  0  0  0  0  0  0  0  0  0  0
   36.3930   29.0550   38.7250 C   0  0  0  0  0  0  0  0  0  0  0  0
   35.3290   29.3080   37.9270 N   0  0  0  0  0  0  0  0  0  0  0  0
   33.7540   28.5390   36.7870 H   0  0  0  0  0  0  0  0  0  0  0  0
   34.3300   26.2000   37.2680 H   0  0  0  0  0  0  0  0  0  0  0  0
   38.4110   29.8770   39.8400 C   0  0  0  0  0  3  0  0  0  0  0  0
   37.1850   30.1520   39.2720 C   0  0  0  0  0  0  0  0  0  0  0  0
   36.6870   31.4370   39.2080 C   0  0  0  0  0  0  0  0  0  0  0  0
   35.7230   31.6250   38.7570 H   0  0  0  0  0  0  0  0  0  0  0  0
   37.4320   32.4890   39.7260 C   0  0  0  0  0  0  0  0  0  0  0  0
   37.2430   33.8180   39.8190 N   0  0  0  0  0  0  0  0  0  0  0  0
   36.4080   34.3470   39.4800 H   0  0  0  0  0  0  0  0  0  0  0  0
   38.3400   34.3470   40.4370 C   0  0  0  0  0  0  0  0  0  0  0  0
   38.4240   35.4270   40.6310 H   0  0  0  0  0  0  0  0  0  0  0  0
   39.2340   33.3410   40.7380 C   0  0  0  0  0  3  0  0  0  0  0  0
   38.6510   32.1540   40.2800 C   0  0  0  0  0  0  0  0  0  0  0  0
   39.2060   30.8950   40.3780 C   0  0  0  0  0  3  0  0  0  0  0  0
  1  5  1  0  0  0  0
  2  6  1  0  0  0  0
  2  3  1  0  0  0  0
  2  1  1  0  0  0  0
  3  4  1  0  0  0  0
  4  5  1  0  0  0  0
  4 11  1  0  0  0  0
  4 10  1  0  0  0  0
  5 13  1  0  0  0  0
  5 12  1  1  0  0  0
  7  2  1  0  0  0  0
  8  3  1  0  0  0  0
  9  3  1  0  0  0  0
 13 22  1  0  0  0  0
 14 15  1  0  0  0  0
 14 13  2  0  0  0  0
 15 16  2  0  0  0  0
 16 17  1  0  0  0  0
 17 18  1  0  0  0  0
 18 24  1  0  0  0  0
 18 19  2  0  0  0  0
 19 25  1  0  0  0  0
 20 19  1  0  0  0  0
 20 26  1  0  0  0  0
 21 20  2  0  0  0  0
 22 17  2  0  0  0  0
 22 21  1  0  0  0  0
 23 15  1  0  0  0  0
 27 21  1  0  0  0  0
 28 29  2  0  0  0  0
 28 33  1  0  0  0  0
 29 30  1  0  0  0  0
 30  1  1  0  0  0  0
 30 31  2  0  0  0  0
 32 31  1  0  0  0  0
 32 37  1  0  0  0  0
 33 32  2  0  0  0  0
 34 28  1  0  0  0  0
 35 29  1  0  0  0  0
 36 47  1  0  0  0  0
 37 36  2  0  0  0  0
 38 37  1  0  0  0  0
 38 40  2  0  0  0  0
 39 38  1  0  0  0  0
 40 41  1  0  0  0  0
 40 46  1  0  0  0  0
 41 43  1  0  0  0  0
 42 41  1  0  0  0  0
 43 44  1  0  0  0  0
 43 45  2  0  0  0  0
 46 47  2  0  0  0  0
 46 45  1  0  0  0  0
M  END
>  <minimizedAffinity>
-6.97729731

$$$$

 OpenBabel03242512533D

 47 52  0  0  1  0  0  0  0  0999 V2000
   36.7450   29.8430   38.3950 N   0  0  0  0  0  0  0  0  0  0  0  0
   36.5280   29.4500   36.9980 C   0  0  0  0  0  0  0  0  0  0  0  0
   35.0600   29.0960   37.1160 C   0  0  0  0  0  0  0  0  0  0  0  0
   35.0920   28.1530   38.2900 C   0  0  0  0  0  0  0  0  0  0  0  0
   36.0780   28.8130   39.2320 C   0  0  1  0  0  0  0  0  0  0  0  0
   37.1150   28.5410   36.8030 H   0  0  0  0  0  0  0  0  0  0  0  0
   36.7050   30.2900   36.3220 H   0  0  0  0  0  0  0  0  0  0  0  0
   34.5140   30.0380   37.3340 H   0  0  0  0  0  0  0  0  0  0  0  0
   34.6930   28.6060   36.1900 H   0  0  0  0  0  0  0  0  0  0  0  0
   34.0700   28.0660   38.7530 H   0  0  0  0  0  0  0  0  0  0  0  0
   35.4770   27.1830   37.9440 H   0  0  0  0  0  0  0  0  0  0  0  0
   35.5290   29.3960   39.9180 H   0  0  0  0  0  0  0  0  0  0  0  0
   37.1400   27.9310   39.6720 C   0  0  0  0  0  0  0  0  0  0  0  0
   37.8480   27.1840   38.7890 N   0  0  0  0  0  0  0  0  0  0  0  0
   38.8450   26.3380   39.1200 C   0  0  0  0  0  0  0  0  0  0  0  0
   39.1720   26.2170   40.4180 N   0  0  0  0  0  0  0  0  0  0  0  0
   38.5120   26.9250   41.3250 C   0  0  0  0  0  0  0  0  0  0  0  0
   38.8940   26.7620   42.6480 C   0  0  0  0  0  0  0  0  0  0  0  0
   38.1970   27.5090   43.5970 C   0  0  0  0  0  0  0  0  0  0  0  0
   37.1600   28.3940   43.3150 C   0  0  0  0  0  0  0  0  0  0  0  0
   36.8500   28.4890   41.9730 C   0  0  0  0  0  0  0  0  0  0  0  0
   37.4790   27.8020   40.9950 C   0  0  0  0  0  0  0  0  0  0  0  0
   39.3260   25.8030   38.3290 H   0  0  0  0  0  0  0  0  0  0  0  0
   39.6770   26.1000   42.9200 H   0  0  0  0  0  0  0  0  0  0  0  0
   38.5200   27.3600   44.6280 H   0  0  0  0  0  0  0  0  0  0  0  0
   36.6870   28.9230   44.1320 H   0  0  0  0  0  0  0  0  0  0  0  0
   36.0320   29.1610   41.7950 H   0  0  0  0  0  0  0  0  0  0  0  0
   37.6330   32.8610   40.3690 C   0  0  0  0  0  0  0  0  0  0  0  0
   36.8720   31.8080   39.8820 C   0  0  0  0  0  0  0  0  0  0  0  0
   37.4240   30.9400   38.9500 C   0  0  0  0  0  0  0  0  0  0  0  0
   38.7030   31.1650   38.5490 N   0  0  0  0  0  0  0  0  0  0  0  0
   39.4480   32.1960   39.0240 C   0  0  0  0  0  0  0  0  0  0  0  0
   38.9040   33.0380   39.9340 N   0  0  0  0  0  0  0  0  0  0  0  0
   37.2400   33.5520   41.0920 H   0  0  0  0  0  0  0  0  0  0  0  0
   35.8640   31.7100   40.2280 H   0  0  0  0  0  0  0  0  0  0  0  0
   41.2760   31.6550   37.4900 C   0  0  0  0  0  3  0  0  0  0  0  0
   40.8180   32.3930   38.5610 C   0  0  0  0  0  0  0  0  0  0  0  0
   41.6200   33.3130   39.2040 C   0  0  0  0  0  0  0  0  0  0  0  0
   41.2350   33.8780   40.0410 H   0  0  0  0  0  0  0  0  0  0  0  0
   42.9250   33.5090   38.7710 C   0  0  0  0  0  0  0  0  0  0  0  0
   43.9370   34.3030   39.1650 N   0  0  0  0  0  0  0  0  0  0  0  0
   43.9120   34.9870   39.9550 H   0  0  0  0  0  0  0  0  0  0  0  0
   45.0000   34.0530   38.3460 C   0  0  0  0  0  0  0  0  0  0  0  0
   45.9560   34.5830   38.4680 H   0  0  0  0  0  0  0  0  0  0  0  0
   44.6560   33.0880   37.4220 C   0  0  0  0  0  3  0  0  0  0  0  0
   43.3280   32.7430   37.6960 C   0  0  0  0  0  0  0  0  0  0  0  0
   42.5810   31.8090   37.0090 C   0  0  0  0  0  3  0  0  0  0  0  0
  1 30  1  0  0  0  0
  1  5  1  0  0  0  0
  2  3  1  0  0  0  0
  2  1  1  0  0  0  0
  3  8  1  0  0  0  0
  3  4  1  0  0  0  0
  4 10  1  0  0  0  0
  4  5  1  0  0  0  0
  5 13  1  0  0  0  0
  5 12  1  1  0  0  0
  6  2  1  0  0  0  0
  7  2  1  0  0  0  0
  9  3  1  0  0  0  0
 11  4  1  0  0  0  0
 13 22  1  0  0  0  0
 14 15  1  0  0  0  0
 14 13  2  0  0  0  0
 15 16  2  0  0  0  0
 16 17  1  0  0  0  0
 17 18  1  0  0  0  0
 18 24  1  0  0  0  0
 18 19  2  0  0  0  0
 19 25  1  0  0  0  0
 20 19  1  0  0  0  0
 20 26  1  0  0  0  0
 21 20  2  0  0  0  0
 22 17  2  0  0  0  0
 22 21  1  0  0  0  0
 23 15  1  0  0  0  0
 27 21  1  0  0  0  0
 28 34  1  0  0  0  0
 29 35  1  0  0  0  0
 29 28  2  0  0  0  0
 30 29  1  0  0  0  0
 31 30  2  0  0  0  0
 31 32  1  0  0  0  0
 32 33  2  0  0  0  0
 33 28  1  0  0  0  0
 36 37  1  0  0  0  0
 37 32  1  0  0  0  0
 37 38  2  0  0  0  0
 38 39  1  0  0  0  0
 40 41  1  0  0  0  0
 40 38  1  0  0  0  0
 41 42  1  0  0  0  0
 43 44  1  0  0  0  0
 43 41  1  0  0  0  0
 45 46  1  0  0  0  0
 45 43  2  0  0  0  0
 46 40  2  0  0  0  0
 47 36  2  0  0  0  0
 47 46  1  0  0  0  0
M  END
>  <minimizedAffinity>
-6.74260092

$$$$

 OpenBabel03242512533D

 47 52  0  0  1  0  0  0  0  0999 V2000
   38.1270   30.7140   40.8260 N   0  0  0  0  0  0  0  0  0  0  0  0
   39.2330   31.6730   40.7170 C   0  0  0  0  0  0  0  0  0  0  0  0
   38.4020   32.9400   40.7430 C   0  0  0  0  0  0  0  0  0  0  0  0
   37.3990   32.6400   39.6600 C   0  0  0  0  0  0  0  0  0  0  0  0
   37.0700   31.1800   39.8920 C   0  0  1  0  0  0  0  0  0  0  0  0
   39.6940   31.5520   39.7270 H   0  0  0  0  0  0  0  0  0  0  0  0
   39.9060   31.5940   41.5740 H   0  0  0  0  0  0  0  0  0  0  0  0
   37.9410   33.0060   41.7510 H   0  0  0  0  0  0  0  0  0  0  0  0
   39.0240   33.8290   40.5110 H   0  0  0  0  0  0  0  0  0  0  0  0
   36.4910   33.2940   39.7740 H   0  0  0  0  0  0  0  0  0  0  0  0
   37.8920   32.7770   38.6860 H   0  0  0  0  0  0  0  0  0  0  0  0
   36.2010   31.1360   40.4880 H   0  0  0  0  0  0  0  0  0  0  0  0
   37.2160   30.3580   38.7080 C   0  0  0  0  0  0  0  0  0  0  0  0
   38.3720   30.3400   37.9980 N   0  0  0  0  0  0  0  0  0  0  0  0
   38.5830   29.6080   36.8860 C   0  0  0  0  0  0  0  0  0  0  0  0
   37.5820   28.8300   36.4370 N   0  0  0  0  0  0  0  0  0  0  0  0
   36.4290   28.8090   37.0930 C   0  0  0  0  0  0  0  0  0  0  0  0
   35.4340   27.9870   36.5850 C   0  0  0  0  0  0  0  0  0  0  0  0
   34.2240   27.9680   37.2790 C   0  0  0  0  0  0  0  0  0  0  0  0
   33.9490   28.7040   38.4280 C   0  0  0  0  0  0  0  0  0  0  0  0
   34.9990   29.4910   38.8580 C   0  0  0  0  0  0  0  0  0  0  0  0
   36.1990   29.5630   38.2430 C   0  0  0  0  0  0  0  0  0  0  0  0
   39.5400   29.6820   36.4160 H   0  0  0  0  0  0  0  0  0  0  0  0
   35.5890   27.4060   35.7110 H   0  0  0  0  0  0  0  0  0  0  0  0
   33.4620   27.3130   36.8560 H   0  0  0  0  0  0  0  0  0  0  0  0
   32.9730   28.6120   38.8870 H   0  0  0  0  0  0  0  0  0  0  0  0
   34.7440   30.0610   39.7310 H   0  0  0  0  0  0  0  0  0  0  0  0
   37.8940   28.3480   43.6790 C   0  0  0  0  0  0  0  0  0  0  0  0
   38.0550   29.5460   42.9980 C   0  0  0  0  0  0  0  0  0  0  0  0
   37.9810   29.5600   41.6120 C   0  0  0  0  0  0  0  0  0  0  0  0
   37.7510   28.3820   40.9750 N   0  0  0  0  0  0  0  0  0  0  0  0
   37.5940   27.2080   41.6410 C   0  0  0  0  0  0  0  0  0  0  0  0
   37.6660   27.2030   42.9930 N   0  0  0  0  0  0  0  0  0  0  0  0
   37.9430   28.2990   44.7520 H   0  0  0  0  0  0  0  0  0  0  0  0
   38.2570   30.4300   43.5690 H   0  0  0  0  0  0  0  0  0  0  0  0
   36.5640   26.0050   39.7750 C   0  0  0  0  0  3  0  0  0  0  0  0
   37.3490   25.9700   40.9080 C   0  0  0  0  0  0  0  0  0  0  0  0
   37.9100   24.7960   41.3660 C   0  0  0  0  0  0  0  0  0  0  0  0
   38.5210   24.7970   42.2570 H   0  0  0  0  0  0  0  0  0  0  0  0
   37.6830   23.6120   40.6760 C   0  0  0  0  0  0  0  0  0  0  0  0
   38.0700   22.3350   40.8490 N   0  0  0  0  0  0  0  0  0  0  0  0
   38.6760   21.9730   41.6210 H   0  0  0  0  0  0  0  0  0  0  0  0
   37.5270   21.5990   39.8360 C   0  0  0  0  0  0  0  0  0  0  0  0
   37.7000   20.5150   39.7560 H   0  0  0  0  0  0  0  0  0  0  0  0
   36.7870   22.4210   39.0110 C   0  0  0  0  0  3  0  0  0  0  0  0
   36.8910   23.7080   39.5510 C   0  0  0  0  0  0  0  0  0  0  0  0
   36.3000   24.8440   39.0390 C   0  0  0  0  0  3  0  0  0  0  0  0
  1 30  1  0  0  0  0
  2  3  1  0  0  0  0
  2  1  1  0  0  0  0
  2  7  1  0  0  0  0
  3  8  1  0  0  0  0
  4 10  1  0  0  0  0
  4  5  1  0  0  0  0
  4  3  1  0  0  0  0
  5 12  1  1  0  0  0
  5  1  1  0  0  0  0
  6  2  1  0  0  0  0
  9  3  1  0  0  0  0
 11  4  1  0  0  0  0
 13  5  1  0  0  0  0
 14 13  2  0  0  0  0
 15 14  1  0  0  0  0
 16 15  2  0  0  0  0
 16 17  1  0  0  0  0
 17 22  1  0  0  0  0
 18 17  2  0  0  0  0
 18 19  1  0  0  0  0
 19 20  2  0  0  0  0
 20 21  1  0  0  0  0
 20 26  1  0  0  0  0
 21 27  1  0  0  0  0
 22 13  1  0  0  0  0
 22 21  2  0  0  0  0
 23 15  1  0  0  0  0
 24 18  1  0  0  0  0
 25 19  1  0  0  0  0
 28 34  1  0  0  0  0
 29 35  1  0  0  0  0
 29 28  1  0  0  0  0
 30 29  2  0  0  0  0
 31 30  1  0  0  0  0
 31 32  2  0  0  0  0
 32 33  1  0  0  0  0
 33 28  2  0  0  0  0
 36 37  1  0  0  0  0
 37 38  2  0  0  0  0
 37 32  1  0  0  0  0
 38 39  1  0  0  0  0
 40 41  1  0  0  0  0
 40 38  1  0  0  0  0
 41 42  1  0  0  0  0
 43 41  1  0  0  0  0
 44 43  1  0  0  0  0
 45 46  1  0  0  0  0
 45 43  2  0  0  0  0
 46 40  2  0  0  0  0
 47 46  1  0  0  0  0
 47 36  2  0  0  0  0
M  END
>  <minimizedAffinity>
-6.66593647

$$$$

 OpenBabel03242512533D

 47 52  0  0  1  0  0  0  0  0999 V2000
   37.0800   28.9510   38.0700 N   0  0  0  0  0  0  0  0  0  0  0  0
   37.5160   30.3490   37.9710 C   0  0  0  0  0  0  0  0  0  0  0  0
   38.9450   30.0840   37.5440 C   0  0  0  0  0  0  0  0  0  0  0  0
   39.3790   29.1090   38.6080 C   0  0  0  0  0  0  0  0  0  0  0  0
   38.1640   28.2190   38.7730 C   0  0  1  0  0  0  0  0  0  0  0  0
   37.5050   30.7820   38.9820 H   0  0  0  0  0  0  0  0  0  0  0  0
   36.9430   30.8860   37.2120 H   0  0  0  0  0  0  0  0  0  0  0  0
   38.9030   29.6280   36.5330 H   0  0  0  0  0  0  0  0  0  0  0  0
   39.5440   31.0180   37.5560 H   0  0  0  0  0  0  0  0  0  0  0  0
   40.2770   28.5250   38.2630 H   0  0  0  0  0  0  0  0  0  0  0  0
   39.5770   29.6710   39.5320 H   0  0  0  0  0  0  0  0  0  0  0  0
   38.3010   27.3700   38.1630 H   0  0  0  0  0  0  0  0  0  0  0  0
   37.7170   28.0980   40.1460 C   0  0  0  0  0  0  0  0  0  0  0  0
   37.5210   29.1920   40.9230 N   0  0  0  0  0  0  0  0  0  0  0  0
   37.1110   29.1620   42.2070 C   0  0  0  0  0  0  0  0  0  0  0  0
   36.8740   27.9640   42.7720 N   0  0  0  0  0  0  0  0  0  0  0  0
   37.0500   26.8610   42.0570 C   0  0  0  0  0  0  0  0  0  0  0  0
   36.7890   25.6550   42.6900 C   0  0  0  0  0  0  0  0  0  0  0  0
   36.9750   24.4980   41.9340 C   0  0  0  0  0  0  0  0  0  0  0  0
   37.3980   24.4680   40.6070 C   0  0  0  0  0  0  0  0  0  0  0  0
   37.6320   25.7160   40.0630 C   0  0  0  0  0  0  0  0  0  0  0  0
   37.4740   26.8800   40.7290 C   0  0  0  0  0  0  0  0  0  0  0  0
   36.9950   30.0960   42.7140 H   0  0  0  0  0  0  0  0  0  0  0  0
   36.4660   25.6190   43.7000 H   0  0  0  0  0  0  0  0  0  0  0  0
   36.7610   23.5670   42.4580 H   0  0  0  0  0  0  0  0  0  0  0  0
   37.5080   23.5120   40.1150 H   0  0  0  0  0  0  0  0  0  0  0  0
   37.9790   25.6540   39.0490 H   0  0  0  0  0  0  0  0  0  0  0  0
   34.6180   26.4500   36.8550 C   0  0  0  0  0  0  0  0  0  0  0  0
   35.8300   26.9770   37.2750 C   0  0  0  0  0  0  0  0  0  0  0  0
   35.9070   28.3170   37.6290 C   0  0  0  0  0  0  0  0  0  0  0  0
   34.7740   29.0640   37.5450 N   0  0  0  0  0  0  0  0  0  0  0  0
   33.5870   28.5490   37.1320 C   0  0  0  0  0  0  0  0  0  0  0  0
   33.5200   27.2410   36.7900 N   0  0  0  0  0  0  0  0  0  0  0  0
   34.5200   25.4170   36.5740 H   0  0  0  0  0  0  0  0  0  0  0  0
   36.6840   26.3310   37.2930 H   0  0  0  0  0  0  0  0  0  0  0  0
   32.0600   29.9710   35.8540 C   0  0  0  0  0  3  0  0  0  0  0  0
   32.4000   29.3950   37.0600 C   0  0  0  0  0  0  0  0  0  0  0  0
   31.6480   29.5970   38.1980 C   0  0  0  0  0  0  0  0  0  0  0  0
   31.9380   29.1330   39.1300 H   0  0  0  0  0  0  0  0  0  0  0  0
   30.5160   30.4000   38.1400 C   0  0  0  0  0  0  0  0  0  0  0  0
   29.5930   30.7880   39.0390 N   0  0  0  0  0  0  0  0  0  0  0  0
   29.5650   30.5220   40.0490 H   0  0  0  0  0  0  0  0  0  0  0  0
   28.7000   31.5920   38.3900 C   0  0  0  0  0  0  0  0  0  0  0  0
   27.8430   32.0390   38.9150 H   0  0  0  0  0  0  0  0  0  0  0  0
   29.0630   31.7140   37.0650 C   0  0  0  0  0  3  0  0  0  0  0  0
   30.2250   30.9490   36.9090 C   0  0  0  0  0  0  0  0  0  0  0  0
   30.9310   30.7900   35.7350 C   0  0  0  0  0  3  0  0  0  0  0  0
  1  5  1  0  0  0  0
  2  1  1  0  0  0  0
  2  6  1  0  0  0  0
  3  9  1  0  0  0  0
  3  2  1  0  0  0  0
  3  4  1  0  0  0  0
  4  5  1  0  0  0  0
  4 11  1  0  0  0  0
  5 12  1  6  0  0  0
  5 13  1  0  0  0  0
  7  2  1  0  0  0  0
  8  3  1  0  0  0  0
 10  4  1  0  0  0  0
 13 22  2  0  0  0  0
 13 14  1  0  0  0  0
 14 15  2  0  0  0  0
 15 23  1  0  0  0  0
 15 16  1  0  0  0  0
 17 18  1  0  0  0  0
 17 16  2  0  0  0  0
 18 24  1  0  0  0  0
 19 25  1  0  0  0  0
 19 18  2  0  0  0  0
 20 19  1  0  0  0  0
 21 20  2  0  0  0  0
 21 22  1  0  0  0  0
 22 17  1  0  0  0  0
 26 20  1  0  0  0  0
 27 21  1  0  0  0  0
 28 29  1  0  0  0  0
 29 35  1  0  0  0  0
 29 30  2  0  0  0  0
 30  1  1  0  0  0  0
 31 30  1  0  0  0  0
 32 31  2  0  0  0  0
 33 28  2  0  0  0  0
 33 32  1  0  0  0  0
 34 28  1  0  0  0  0
 36 37  1  0  0  0  0
 37 32  1  0  0  0  0
 37 38  2  0  0  0  0
 38 39  1  0  0  0  0
 40 38  1  0  0  0  0
 40 41  1  0  0  0  0
 41 42  1  0  0  0  0
 43 44  1  0  0  0  0
 43 41  1  0  0  0  0
 45 43  2  0  0  0  0
 46 45  1  0  0  0  0
 46 40  2  0  0  0  0
 47 36  2  0  0  0  0
 47 46  1  0  0  0  0
M  END
>  <minimizedAffinity>
-6.5770936

$$$$

 OpenBabel03242512533D

 47 52  0  0  1  0  0  0  0  0999 V2000
   36.5660   29.2840   37.8790 N   0  0  0  0  0  0  0  0  0  0  0  0
   36.1430   28.8900   36.5290 C   0  0  0  0  0  0  0  0  0  0  0  0
   34.6570   29.1240   36.7080 C   0  0  0  0  0  0  0  0  0  0  0  0
   34.3990   28.3360   37.9660 C   0  0  0  0  0  0  0  0  0  0  0  0
   35.6090   28.6510   38.8220 C   0  0  1  0  0  0  0  0  0  0  0  0
   36.3380   27.8150   36.4100 H   0  0  0  0  0  0  0  0  0  0  0  0
   36.5840   29.5450   35.7730 H   0  0  0  0  0  0  0  0  0  0  0  0
   34.5140   30.2170   36.8470 H   0  0  0  0  0  0  0  0  0  0  0  0
   34.0850   28.7360   35.8400 H   0  0  0  0  0  0  0  0  0  0  0  0
   33.4440   28.6780   38.4540 H   0  0  0  0  0  0  0  0  0  0  0  0
   34.3750   27.2680   37.7060 H   0  0  0  0  0  0  0  0  0  0  0  0
   35.3530   29.4510   39.4600 H   0  0  0  0  0  0  0  0  0  0  0  0
   36.2870   27.4730   39.3230 C   0  0  0  0  0  0  0  0  0  0  0  0
   36.5830   26.4290   38.5090 N   0  0  0  0  0  0  0  0  0  0  0  0
   37.2060   25.3000   38.9000 C   0  0  0  0  0  0  0  0  0  0  0  0
   37.5680   25.1860   40.1900 N   0  0  0  0  0  0  0  0  0  0  0  0
   37.3030   26.1780   41.0300 C   0  0  0  0  0  0  0  0  0  0  0  0
   37.7010   26.0060   42.3480 C   0  0  0  0  0  0  0  0  0  0  0  0
   37.4210   27.0520   43.2270 C   0  0  0  0  0  0  0  0  0  0  0  0
   36.7790   28.2380   42.8810 C   0  0  0  0  0  0  0  0  0  0  0  0
   36.4200   28.3170   41.5500 C   0  0  0  0  0  0  0  0  0  0  0  0
   36.6580   27.3500   40.6380 C   0  0  0  0  0  0  0  0  0  0  0  0
   37.3820   24.5470   38.1610 H   0  0  0  0  0  0  0  0  0  0  0  0
   38.1930   25.1220   42.6670 H   0  0  0  0  0  0  0  0  0  0  0  0
   37.7460   26.8880   44.2550 H   0  0  0  0  0  0  0  0  0  0  0  0
   36.6120   28.9850   43.6460 H   0  0  0  0  0  0  0  0  0  0  0  0
   35.9080   29.2330   41.3240 H   0  0  0  0  0  0  0  0  0  0  0  0
   38.6500   31.7840   39.6670 C   0  0  0  0  0  0  0  0  0  0  0  0
   37.5300   31.0470   39.3100 C   0  0  0  0  0  0  0  0  0  0  0  0
   37.6330   30.0860   38.3140 C   0  0  0  0  0  0  0  0  0  0  0  0
   38.8430   29.9090   37.7220 N   0  0  0  0  0  0  0  0  0  0  0  0
   39.9400   30.6320   38.0690 C   0  0  0  0  0  0  0  0  0  0  0  0
   39.8330   31.5660   39.0430 N   0  0  0  0  0  0  0  0  0  0  0  0
   38.6090   32.5350   40.4350 H   0  0  0  0  0  0  0  0  0  0  0  0
   36.6050   31.2600   39.8070 H   0  0  0  0  0  0  0  0  0  0  0  0
   41.4690   29.1680   36.8400 C   0  0  0  0  0  3  0  0  0  0  0  0
   41.2170   30.4020   37.4010 C   0  0  0  0  0  0  0  0  0  0  0  0
   42.1400   31.4260   37.3460 C   0  0  0  0  0  0  0  0  0  0  0  0
   41.9170   32.3830   37.7940 H   0  0  0  0  0  0  0  0  0  0  0  0
   43.3590   31.2190   36.7130 C   0  0  0  0  0  0  0  0  0  0  0  0
   44.4440   31.9820   36.4900 N   0  0  0  0  0  0  0  0  0  0  0  0
   44.5710   32.9760   36.7890 H   0  0  0  0  0  0  0  0  0  0  0  0
   45.3480   31.2240   35.8030 C   0  0  0  0  0  0  0  0  0  0  0  0
   46.3250   31.6290   35.5000 H   0  0  0  0  0  0  0  0  0  0  0  0
   44.8280   29.9640   35.5880 C   0  0  0  0  0  3  0  0  0  0  0  0
   43.5550   29.9650   36.1710 C   0  0  0  0  0  0  0  0  0  0  0  0
   42.6790   28.9000   36.1900 C   0  0  0  0  0  3  0  0  0  0  0  0
  1 30  1  0  0  0  0
  1  5  1  0  0  0  0
  2  3  1  0  0  0  0
  2  1  1  0  0  0  0
  3  8  1  0  0  0  0
  3  4  1  0  0  0  0
  4 10  1  0  0  0  0
  4  5  1  0  0  0  0
  5 13  1  0  0  0  0
  5 12  1  1  0  0  0
  6  2  1  0  0  0  0
  7  2  1  0  0  0  0
  9  3  1  0  0  0  0
 11  4  1  0  0  0  0
 13 22  1  0  0  0  0
 14 15  1  0  0  0  0
 14 13  2  0  0  0  0
 15 16  2  0  0  0  0
 16 17  1  0  0  0  0
 17 18  1  0  0  0  0
 18 24  1  0  0  0  0
 18 19  2  0  0  0  0
 19 25  1  0  0  0  0
 20 19  1  0  0  0  0
 20 26  1  0  0  0  0
 21 20  2  0  0  0  0
 22 17  2  0  0  0  0
 22 21  1  0  0  0  0
 23 15  1  0  0  0  0
 27 21  1  0  0  0  0
 28 34  1  0  0  0  0
 29 28  1  0  0  0  0
 29 35  1  0  0  0  0
 30 29  2  0  0  0  0
 31 32  2  0  0  0  0
 31 30  1  0  0  0  0
 32 33  1  0  0  0  0
 33 28  2  0  0  0  0
 36 37  1  0  0  0  0
 37 32  1  0  0  0  0
 38 37  2  0  0  0  0
 38 39  1  0  0  0  0
 40 38  1  0  0  0  0
 41 40  1  0  0  0  0
 41 42  1  0  0  0  0
 43 41  1  0  0  0  0
 44 43  1  0  0  0  0
 45 43  2  0  0  0  0
 45 46  1  0  0  0  0
 46 47  1  0  0  0  0
 46 40  2  0  0  0  0
 47 36  2  0  0  0  0
M  END
>  <minimizedAffinity>
-6.53599167

$$$$

 OpenBabel03242512533D

 47 52  0  0  1  0  0  0  0  0999 V2000
   38.1220   30.2880   39.0270 N   0  0  0  0  0  0  0  0  0  0  0  0
   36.8120   30.8570   38.6870 C   0  0  0  0  0  0  0  0  0  0  0  0
   37.0390   32.2400   39.2620 C   0  0  0  0  0  0  0  0  0  0  0  0
   37.5020   31.8920   40.6530 C   0  0  0  0  0  0  0  0  0  0  0  0
   38.4130   30.7030   40.4240 C   0  0  1  0  0  0  0  0  0  0  0  0
   36.0470   30.3300   39.2760 H   0  0  0  0  0  0  0  0  0  0  0  0
   36.6600   30.8710   37.6050 H   0  0  0  0  0  0  0  0  0  0  0  0
   37.8310   32.7200   38.6510 H   0  0  0  0  0  0  0  0  0  0  0  0
   36.0980   32.8290   39.2640 H   0  0  0  0  0  0  0  0  0  0  0  0
   38.0580   32.7580   41.1100 H   0  0  0  0  0  0  0  0  0  0  0  0
   36.6250   31.6000   41.2470 H   0  0  0  0  0  0  0  0  0  0  0  0
   39.4010   31.0620   40.3550 H   0  0  0  0  0  0  0  0  0  0  0  0
   38.0820   29.5530   41.2410 C   0  0  0  0  0  0  0  0  0  0  0  0
   36.8160   29.0690   41.2990 N   0  0  0  0  0  0  0  0  0  0  0  0
   36.4300   28.0100   42.0380 C   0  0  0  0  0  0  0  0  0  0  0  0
   37.3580   27.3760   42.7770 N   0  0  0  0  0  0  0  0  0  0  0  0
   38.6110   27.8080   42.7570 C   0  0  0  0  0  0  0  0  0  0  0  0
   39.5260   27.1150   43.5370 C   0  0  0  0  0  0  0  0  0  0  0  0
   40.8430   27.5730   43.5130 C   0  0  0  0  0  0  0  0  0  0  0  0
   41.2990   28.6610   42.7720 C   0  0  0  0  0  0  0  0  0  0  0  0
   40.3170   29.2870   42.0290 C   0  0  0  0  0  0  0  0  0  0  0  0
   39.0230   28.9020   41.9980 C   0  0  0  0  0  0  0  0  0  0  0  0
   35.4000   27.7250   41.9990 H   0  0  0  0  0  0  0  0  0  0  0  0
   39.2330   26.2800   44.1220 H   0  0  0  0  0  0  0  0  0  0  0  0
   41.5380   27.0080   44.1340 H   0  0  0  0  0  0  0  0  0  0  0  0
   42.3450   28.9290   42.8270 H   0  0  0  0  0  0  0  0  0  0  0  0
   40.6990   30.1330   41.4900 H   0  0  0  0  0  0  0  0  0  0  0  0
   39.6920   27.5110   37.1260 C   0  0  0  0  0  0  0  0  0  0  0  0
   38.7450   28.2000   37.8700 C   0  0  0  0  0  0  0  0  0  0  0  0
   39.0090   29.5010   38.2750 C   0  0  0  0  0  0  0  0  0  0  0  0
   40.2010   30.0490   37.9220 N   0  0  0  0  0  0  0  0  0  0  0  0
   41.1300   29.3750   37.1950 C   0  0  0  0  0  0  0  0  0  0  0  0
   40.8650   28.1070   36.8020 N   0  0  0  0  0  0  0  0  0  0  0  0
   39.5230   26.5030   36.7940 H   0  0  0  0  0  0  0  0  0  0  0  0
   37.8390   27.6920   38.1300 H   0  0  0  0  0  0  0  0  0  0  0  0
   43.0570   29.5990   35.7040 C   0  0  0  0  0  3  0  0  0  0  0  0
   42.3950   30.0100   36.8420 C   0  0  0  0  0  0  0  0  0  0  0  0
   42.8970   31.0060   37.6540 C   0  0  0  0  0  0  0  0  0  0  0  0
   42.3570   31.3080   38.5390 H   0  0  0  0  0  0  0  0  0  0  0  0
   44.1010   31.6170   37.3270 C   0  0  0  0  0  0  0  0  0  0  0  0
   44.8430   32.5890   37.8870 N   0  0  0  0  0  0  0  0  0  0  0  0
   44.6160   33.1110   38.7640 H   0  0  0  0  0  0  0  0  0  0  0  0
   45.9460   32.7700   37.1020 C   0  0  0  0  0  0  0  0  0  0  0  0
   46.7120   33.5170   37.3520 H   0  0  0  0  0  0  0  0  0  0  0  0
   45.9000   31.9000   36.0320 C   0  0  0  0  0  3  0  0  0  0  0  0
   44.7180   31.1650   36.1790 C   0  0  0  0  0  0  0  0  0  0  0  0
   44.2740   30.1770   35.3250 C   0  0  0  0  0  3  0  0  0  0  0  0
  1  5  1  0  0  0  0
  2  1  1  0  0  0  0
  2  3  1  0  0  0  0
  2  6  1  0  0  0  0
  3  9  1  0  0  0  0
  3  4  1  0  0  0  0
  4 10  1  0  0  0  0
  4 11  1  0  0  0  0
  5 12  1  1  0  0  0
  5  4  1  0  0  0  0
  5 13  1  0  0  0  0
  7  2  1  0  0  0  0
  8  3  1  0  0  0  0
 13 14  2  0  0  0  0
 13 22  1  0  0  0  0
 14 15  1  0  0  0  0
 15 16  2  0  0  0  0
 17 16  1  0  0  0  0
 17 18  1  0  0  0  0
 18 24  1  0  0  0  0
 19 18  2  0  0  0  0
 19 25  1  0  0  0  0
 20 26  1  0  0  0  0
 20 19  1  0  0  0  0
 21 20  2  0  0  0  0
 22 21  1  0  0  0  0
 22 17  2  0  0  0  0
 23 15  1  0  0  0  0
 27 21  1  0  0  0  0
 28 29  1  0  0  0  0
 29 35  1  0  0  0  0
 29 30  2  0  0  0  0
 30  1  1  0  0  0  0
 31 30  1  0  0  0  0
 32 31  2  0  0  0  0
 33 28  2  0  0  0  0
 33 32  1  0  0  0  0
 34 28  1  0  0  0  0
 36 37  1  0  0  0  0
 37 32  1  0  0  0  0
 37 38  2  0  0  0  0
 38 39  1  0  0  0  0
 40 38  1  0  0  0  0
 40 41  1  0  0  0  0
 41 42  1  0  0  0  0
 43 44  1  0  0  0  0
 43 41  1  0  0  0  0
 45 46  1  0  0  0  0
 45 43  2  0  0  0  0
 46 40  2  0  0  0  0
 47 36  2  0  0  0  0
 47 46  1  0  0  0  0
M  END
>  <minimizedAffinity>
-6.47324085

$$$$
