
 OpenBabel03252509263D

 33 36  0  0  1  0  0  0  0  0999 V2000
   46.7350   35.1200   41.8790 C   0  0  1  0  0  0  0  0  0  0  0  0
   48.2620   35.4020   41.8840 C   0  0  0  0  0  0  0  0  0  0  0  0
   47.5460   34.2070   41.1840 C   0  0  2  0  0  0  0  0  0  0  0  0
   46.1680   35.9290   41.3890 H   0  0  0  0  0  0  0  0  0  0  0  0
   48.8430   35.1560   42.7780 H   0  0  0  0  0  0  0  0  0  0  0  0
   48.5990   36.2130   41.2190 H   0  0  0  0  0  0  0  0  0  0  0  0
   47.7820   33.2100   41.6640 H   0  0  0  0  0  0  0  0  0  0  0  0
   44.8170   35.0980   45.1040 C   0  0  0  0  0  0  0  0  0  0  0  0
   45.2400   35.5150   43.8140 C   0  0  0  0  0  0  0  0  0  0  0  0
   46.2530   34.7930   43.2750 C   0  0  0  0  0  0  0  0  0  0  0  0
   46.8380   33.7280   43.9320 N   0  0  0  0  0  0  0  0  0  0  0  0
   46.4050   33.3630   45.1650 C   0  0  0  0  0  0  0  0  0  0  0  0
   45.3870   34.0560   45.7500 N   0  0  0  0  0  0  0  0  0  0  0  0
   44.0060   35.6710   45.5400 H   0  0  0  0  0  0  0  0  0  0  0  0
   46.8090   32.5550   45.7280 H   0  0  0  0  0  0  0  0  0  0  0  0
   44.6660   36.6150   43.1570 N   0  0  0  0  0  0  0  0  0  0  0  0
   43.7430   36.6860   42.6740 H   0  0  0  0  0  0  0  0  0  0  0  0
   45.2990   37.4700   43.1830 H   0  0  0  0  0  0  0  0  0  0  0  0
   47.5540   34.1490   39.6750 C   0  0  0  0  0  0  0  0  0  0  0  0
   46.5440   33.8020   39.3820 H   0  0  0  0  0  0  0  0  0  0  0  0
   47.7120   35.1500   39.2260 H   0  0  0  0  0  0  0  0  0  0  0  0
   49.2410   32.2940   40.0370 C   0  0  0  0  0  3  0  0  0  0  0  0
   48.5300   33.1430   39.2260 C   0  0  0  0  0  0  0  0  0  0  0  0
   48.7410   33.0580   37.8530 C   0  0  0  0  0  0  0  0  0  0  0  0
   48.2270   33.6860   37.1390 H   0  0  0  0  0  0  0  0  0  0  0  0
   49.6280   32.1580   37.2960 C   0  0  0  0  0  0  0  0  0  0  0  0
   50.0090   31.8770   36.0400 N   0  0  0  0  0  0  0  0  0  0  0  0
   49.6310   32.3740   35.1850 H   0  0  0  0  0  0  0  0  0  0  0  0
   50.9240   30.8910   36.0280 C   0  0  0  0  0  0  0  0  0  0  0  0
   51.3660   30.5090   35.1130 H   0  0  0  0  0  0  0  0  0  0  0  0
   51.1620   30.5000   37.3290 C   0  0  0  0  0  3  0  0  0  0  0  0
   50.3410   31.3070   38.1070 C   0  0  0  0  0  0  0  0  0  0  0  0
   50.1280   31.3940   39.4720 C   0  0  0  0  0  3  0  0  0  0  0  0
  1  4  1  6  0  0  0
  1  2  1  0  0  0  0
  1 10  1  0  0  0  0
  2  5  1  0  0  0  0
  3  7  1  1  0  0  0
  3  1  1  0  0  0  0
  3  2  1  0  0  0  0
  6  2  1  0  0  0  0
  8 14  1  0  0  0  0
  8 13  1  0  0  0  0
  9  8  2  0  0  0  0
 10  9  1  0  0  0  0
 10 11  2  0  0  0  0
 11 12  1  0  0  0  0
 12 15  1  0  0  0  0
 12 13  2  0  0  0  0
 16 18  1  0  0  0  0
 16  9  1  0  0  0  0
 17 16  1  0  0  0  0
 19  3  1  0  0  0  0
 20 19  1  0  0  0  0
 21 19  1  0  0  0  0
 23 19  1  0  0  0  0
 23 22  2  0  0  0  0
 24 23  1  0  0  0  0
 25 24  1  0  0  0  0
 26 24  2  0  0  0  0
 26 32  1  0  0  0  0
 27 26  1  0  0  0  0
 28 27  1  0  0  0  0
 29 27  1  0  0  0  0
 29 31  2  0  0  0  0
 30 29  1  0  0  0  0
 31 32  1  0  0  0  0
 32 33  2  0  0  0  0
 33 22  1  0  0  0  0
M  END
>  <minimizedAffinity>
-5.4303174

>  <minimizedRMSD>
1.32820606

$$$$
