
 OpenBabel03252508483D

 48 51  0  0  0  0  0  0  0  0999 V2000
   39.1960   30.5250   37.4510 N   0  0  0  0  0  0  0  0  0  0  0  0
   39.7080   30.2190   36.5940 H   0  0  0  0  0  0  0  0  0  0  0  0
   40.1040   31.1610   38.3710 C   0  0  0  0  0  0  0  0  0  0  0  0
   41.1610   31.1560   37.9810 H   0  0  0  0  0  0  0  0  0  0  0  0
   39.7750   32.2160   38.4820 H   0  0  0  0  0  0  0  0  0  0  0  0
   40.1540   31.3210   40.8640 C   0  0  0  0  0  0  0  0  0  0  0  0
   40.1670   30.5310   39.7130 C   0  0  0  0  0  0  0  0  0  0  0  0
   40.2390   29.1680   39.8600 C   0  0  0  0  0  0  0  0  0  0  0  0
   40.2960   28.6110   41.1070 C   0  0  0  0  0  0  0  0  0  0  0  0
   40.2850   29.3560   42.2460 C   0  0  0  0  0  0  0  0  0  0  0  0
   40.2120   30.7250   42.0650 C   0  0  0  0  0  0  0  0  0  0  0  0
   40.2500   28.5430   38.9680 H   0  0  0  0  0  0  0  0  0  0  0  0
   40.3520   27.5220   41.1550 H   0  0  0  0  0  0  0  0  0  0  0  0
   40.3290   28.9290   43.2450 H   0  0  0  0  0  0  0  0  0  0  0  0
   40.2000   31.3730   42.9450 H   0  0  0  0  0  0  0  0  0  0  0  0
   40.9940   34.9540   40.2880 C   0  0  0  0  0  0  0  0  0  0  0  0
   41.1920   33.5790   40.4820 C   0  0  0  0  0  0  0  0  0  0  0  0
   40.0770   32.7590   40.6550 C   0  0  0  0  0  0  0  0  0  0  0  0
   38.8510   33.3540   40.6230 N   0  0  0  0  0  0  0  0  0  0  0  0
   38.6870   34.6870   40.4330 C   0  0  0  0  0  0  0  0  0  0  0  0
   39.7710   35.4730   40.2670 N   0  0  0  0  0  0  0  0  0  0  0  0
   41.8640   35.5950   40.1540 H   0  0  0  0  0  0  0  0  0  0  0  0
   42.1730   33.1180   40.5060 H   0  0  0  0  0  0  0  0  0  0  0  0
   37.6980   35.1310   40.4130 H   0  0  0  0  0  0  0  0  0  0  0  0
   37.8920   31.5300   37.0000 S   0  0  0  0  0  0  0  0  0  0  0  0
   38.2490   32.3880   35.8170 O   0  0  0  0  0  0  0  0  0  0  0  0
   37.7050   32.3900   34.9830 H   0  0  0  0  0  0  0  0  0  0  0  0
   37.4350   32.3730   38.1330 O   0  0  0  0  0  0  0  0  0  0  0  0
   37.5270   33.3640   38.1270 H   0  0  0  0  0  0  0  0  0  0  0  0
   36.6250   30.5240   36.5520 O   0  0  0  0  0  0  0  0  0  0  0  0
   36.6560   29.3900   37.3260 C   0  0  0  0  0  0  0  0  0  0  0  0
   36.5690   28.4370   36.8080 H   0  0  0  0  0  0  0  0  0  0  0  0
   37.6760   29.3750   37.8060 H   0  0  0  0  0  0  0  0  0  0  0  0
   35.5890   29.5120   38.4350 C   0  0  0  0  0  0  0  0  0  0  0  0
   34.6810   29.0290   38.0710 H   0  0  0  0  0  0  0  0  0  0  0  0
   35.4880   30.5570   38.7500 H   0  0  0  0  0  0  0  0  0  0  0  0
   36.4510   27.3770   39.5000 C   0  0  0  0  0  3  0  0  0  0  0  0
   36.0960   28.7200   39.6090 C   0  0  0  0  0  0  0  0  0  0  0  0
   36.2000   29.3750   40.8260 C   0  0  0  0  0  0  0  0  0  0  0  0
   35.9170   30.4230   40.8920 H   0  0  0  0  0  0  0  0  0  0  0  0
   36.6620   28.6860   41.9330 C   0  0  0  0  0  0  0  0  0  0  0  0
   36.8280   29.1600   43.1910 N   0  0  0  0  0  0  0  0  0  0  0  0
   36.6310   30.1370   43.5310 H   0  0  0  0  0  0  0  0  0  0  0  0
   37.3010   28.1490   43.9650 C   0  0  0  0  0  0  0  0  0  0  0  0
   37.5330   28.2210   45.0220 H   0  0  0  0  0  0  0  0  0  0  0  0
   37.4200   27.0300   43.1320 C   0  0  0  0  0  3  0  0  0  0  0  0
   37.0210   27.3530   41.8510 C   0  0  0  0  0  0  0  0  0  0  0  0
   36.9070   26.7240   40.6270 C   0  0  0  0  0  3  0  0  0  0  0  0
  1  3  1  0  0  0  0
  2  1  1  0  0  0  0
  3  5  1  0  0  0  0
  3  7  1  0  0  0  0
  4  3  1  0  0  0  0
  6 11  1  0  0  0  0
  7  8  1  0  0  0  0
  7  6  2  0  0  0  0
  8  9  2  0  0  0  0
  9 13  1  0  0  0  0
  9 10  1  0  0  0  0
 10 14  1  0  0  0  0
 11 10  2  0  0  0  0
 11 15  1  0  0  0  0
 12  8  1  0  0  0  0
 16 17  1  0  0  0  0
 17 23  1  0  0  0  0
 17 18  2  0  0  0  0
 18  6  1  0  0  0  0
 19 18  1  0  0  0  0
 20 19  2  0  0  0  0
 21 16  2  0  0  0  0
 21 20  1  0  0  0  0
 22 16  1  0  0  0  0
 24 20  1  0  0  0  0
 25  1  1  0  0  0  0
 25 28  1  0  0  0  0
 26 25  1  0  0  0  0
 27 26  1  0  0  0  0
 29 28  1  0  0  0  0
 30 25  1  0  0  0  0
 30 31  1  0  0  0  0
 31 33  1  0  0  0  0
 31 34  1  0  0  0  0
 32 31  1  0  0  0  0
 34 36  1  0  0  0  0
 34 38  1  0  0  0  0
 35 34  1  0  0  0  0
 37 38  2  0  0  0  0
 37 48  1  0  0  0  0
 38 39  1  0  0  0  0
 39 40  1  0  0  0  0
 39 41  2  0  0  0  0
 41 42  1  0  0  0  0
 42 43  1  0  0  0  0
 42 44  1  0  0  0  0
 44 45  1  0  0  0  0
 46 44  2  0  0  0  0
 47 41  1  0  0  0  0
 47 46  1  0  0  0  0
 48 47  2  0  0  0  0
M  END
>  <minimizedAffinity>
-6.5558095

$$$$

 OpenBabel03252508483D

 48 51  0  0  0  0  0  0  0  0999 V2000
   39.4530   30.6190   37.4510 N   0  0  0  0  0  0  0  0  0  0  0  0
   39.4900   29.8560   38.1620 H   0  0  0  0  0  0  0  0  0  0  0  0
   38.2690   31.4180   37.6400 C   0  0  0  0  0  0  0  0  0  0  0  0
   38.5250   32.4700   37.9520 H   0  0  0  0  0  0  0  0  0  0  0  0
   37.7410   31.4590   36.6640 H   0  0  0  0  0  0  0  0  0  0  0  0
   37.1210   31.6280   39.8500 C   0  0  0  0  0  0  0  0  0  0  0  0
   37.3360   30.9060   38.6740 C   0  0  0  0  0  0  0  0  0  0  0  0
   36.6660   29.7200   38.5080 C   0  0  0  0  0  0  0  0  0  0  0  0
   35.8110   29.2690   39.4740 C   0  0  0  0  0  0  0  0  0  0  0  0
   35.5820   29.9510   40.6300 C   0  0  0  0  0  0  0  0  0  0  0  0
   36.2720   31.1420   40.7680 C   0  0  0  0  0  0  0  0  0  0  0  0
   36.8270   29.1480   37.5950 H   0  0  0  0  0  0  0  0  0  0  0  0
   35.3090   28.3190   39.2810 H   0  0  0  0  0  0  0  0  0  0  0  0
   34.9060   29.6080   41.4080 H   0  0  0  0  0  0  0  0  0  0  0  0
   36.1270   31.7330   41.6760 H   0  0  0  0  0  0  0  0  0  0  0  0
   38.1580   35.2550   39.7530 C   0  0  0  0  0  0  0  0  0  0  0  0
   37.3570   34.1170   39.5790 C   0  0  0  0  0  0  0  0  0  0  0  0
   37.8560   32.8780   39.9790 C   0  0  0  0  0  0  0  0  0  0  0  0
   39.1060   32.8520   40.5200 N   0  0  0  0  0  0  0  0  0  0  0  0
   39.8620   33.9670   40.6780 C   0  0  0  0  0  0  0  0  0  0  0  0
   39.3710   35.1620   40.2890 N   0  0  0  0  0  0  0  0  0  0  0  0
   37.7700   36.2230   39.4410 H   0  0  0  0  0  0  0  0  0  0  0  0
   36.3630   34.1520   39.1460 H   0  0  0  0  0  0  0  0  0  0  0  0
   40.8530   33.9130   41.1120 H   0  0  0  0  0  0  0  0  0  0  0  0
   40.8930   31.5320   37.5270 S   0  0  0  0  0  0  0  0  0  0  0  0
   40.6060   33.0070   37.4690 O   0  0  0  0  0  0  0  0  0  0  0  0
   40.9260   33.6350   38.1720 H   0  0  0  0  0  0  0  0  0  0  0  0
   41.8420   31.1450   36.4530 O   0  0  0  0  0  0  0  0  0  0  0  0
   42.0950   31.7680   35.7200 H   0  0  0  0  0  0  0  0  0  0  0  0
   41.6130   31.1970   39.0070 O   0  0  0  0  0  0  0  0  0  0  0  0
   41.0620   30.0510   39.5260 C   0  0  0  0  0  0  0  0  0  0  0  0
   40.1560   29.6810   39.0520 H   0  0  0  0  0  0  0  0  0  0  0  0
   41.8310   29.2430   39.3680 H   0  0  0  0  0  0  0  0  0  0  0  0
   40.8490   30.2420   41.0430 C   0  0  0  0  0  0  0  0  0  0  0  0
   40.4880   31.2600   41.1990 H   0  0  0  0  0  0  0  0  0  0  0  0
   41.7550   29.9620   41.5920 H   0  0  0  0  0  0  0  0  0  0  0  0
   39.4160   28.1810   40.6820 C   0  0  0  0  0  3  0  0  0  0  0  0
   39.7510   29.2960   41.4470 C   0  0  0  0  0  0  0  0  0  0  0  0
   39.0700   29.5700   42.6220 C   0  0  0  0  0  0  0  0  0  0  0  0
   39.3460   30.4450   43.2060 H   0  0  0  0  0  0  0  0  0  0  0  0
   38.0530   28.7250   43.0320 C   0  0  0  0  0  0  0  0  0  0  0  0
   37.2850   28.8350   44.1430 N   0  0  0  0  0  0  0  0  0  0  0  0
   37.3400   29.5870   44.8790 H   0  0  0  0  0  0  0  0  0  0  0  0
   36.4110   27.7960   44.1570 C   0  0  0  0  0  0  0  0  0  0  0  0
   35.6650   27.6110   44.9230 H   0  0  0  0  0  0  0  0  0  0  0  0
   36.6700   27.0400   43.0080 C   0  0  0  0  0  3  0  0  0  0  0  0
   37.7010   27.6120   42.2910 C   0  0  0  0  0  0  0  0  0  0  0  0
   38.3950   27.3630   41.1230 C   0  0  0  0  0  3  0  0  0  0  0  0
  1 25  1  0  0  0  0
  1  3  1  0  0  0  0
  1  2  1  0  0  0  0
  3  4  1  0  0  0  0
  3  7  1  0  0  0  0
  5  3  1  0  0  0  0
  6 18  1  0  0  0  0
  6 11  1  0  0  0  0
  7  6  2  0  0  0  0
  8  7  1  0  0  0  0
  8  9  2  0  0  0  0
  9 10  1  0  0  0  0
 10 11  2  0  0  0  0
 10 14  1  0  0  0  0
 11 15  1  0  0  0  0
 12  8  1  0  0  0  0
 13  9  1  0  0  0  0
 16 21  1  0  0  0  0
 17 16  2  0  0  0  0
 17 18  1  0  0  0  0
 18 19  2  0  0  0  0
 19 20  1  0  0  0  0
 20 24  1  0  0  0  0
 21 20  2  0  0  0  0
 22 16  1  0  0  0  0
 23 17  1  0  0  0  0
 25 30  1  0  0  0  0
 26 25  1  0  0  0  0
 26 27  1  0  0  0  0
 28 25  1  0  0  0  0
 29 28  1  0  0  0  0
 30 31  1  0  0  0  0
 31 34  1  0  0  0  0
 32 31  1  0  0  0  0
 33 31  1  0  0  0  0
 34 35  1  0  0  0  0
 34 38  1  0  0  0  0
 34 36  1  0  0  0  0
 37 48  2  0  0  0  0
 37 38  1  0  0  0  0
 38 39  2  0  0  0  0
 39 41  1  0  0  0  0
 39 40  1  0  0  0  0
 41 42  1  0  0  0  0
 42 44  1  0  0  0  0
 42 43  1  0  0  0  0
 44 45  1  0  0  0  0
 46 44  2  0  0  0  0
 47 46  1  0  0  0  0
 47 41  2  0  0  0  0
 48 47  1  0  0  0  0
M  END
>  <minimizedAffinity>
-6.52073288

$$$$

 OpenBabel03252508483D

 48 51  0  0  0  0  0  0  0  0999 V2000
   36.6730   29.8540   42.2820 N   0  0  0  0  0  0  0  0  0  0  0  0
   37.4890   30.4820   42.1110 H   0  0  0  0  0  0  0  0  0  0  0  0
   36.0490   29.4980   41.0330 C   0  0  0  0  0  0  0  0  0  0  0  0
   36.0280   28.3810   40.8840 H   0  0  0  0  0  0  0  0  0  0  0  0
   35.0020   29.8670   41.0720 H   0  0  0  0  0  0  0  0  0  0  0  0
   37.3910   29.2110   38.9450 C   0  0  0  0  0  0  0  0  0  0  0  0
   36.7140   30.0540   39.8280 C   0  0  0  0  0  0  0  0  0  0  0  0
   36.6830   31.3970   39.5510 C   0  0  0  0  0  0  0  0  0  0  0  0
   37.3030   31.8860   38.4350 C   0  0  0  0  0  0  0  0  0  0  0  0
   37.9700   31.0880   37.5570 C   0  0  0  0  0  0  0  0  0  0  0  0
   37.9840   29.7400   37.8650 C   0  0  0  0  0  0  0  0  0  0  0  0
   36.1570   32.0640   40.2340 H   0  0  0  0  0  0  0  0  0  0  0  0
   37.2410   32.9630   38.2720 H   0  0  0  0  0  0  0  0  0  0  0  0
   38.4690   31.4590   36.6650 H   0  0  0  0  0  0  0  0  0  0  0  0
   38.5050   29.0520   37.1940 H   0  0  0  0  0  0  0  0  0  0  0  0
   36.4530   25.5830   39.3940 C   0  0  0  0  0  0  0  0  0  0  0  0
   36.3350   26.9300   39.0200 C   0  0  0  0  0  0  0  0  0  0  0  0
   37.3960   27.7960   39.2850 C   0  0  0  0  0  0  0  0  0  0  0  0
   38.4940   27.2700   39.8970 N   0  0  0  0  0  0  0  0  0  0  0  0
   38.5840   25.9630   40.2490 C   0  0  0  0  0  0  0  0  0  0  0  0
   37.5530   25.1330   39.9890 N   0  0  0  0  0  0  0  0  0  0  0  0
   35.6250   24.9070   39.1880 H   0  0  0  0  0  0  0  0  0  0  0  0
   35.4540   27.3350   38.5340 H   0  0  0  0  0  0  0  0  0  0  0  0
   39.4720   25.5750   40.7350 H   0  0  0  0  0  0  0  0  0  0  0  0
   37.1840   28.4980   43.1830 S   0  0  0  0  0  0  0  0  0  0  0  0
   36.6710   27.2190   42.5800 O   0  0  0  0  0  0  0  0  0  0  0  0
   37.2810   26.4750   42.3230 H   0  0  0  0  0  0  0  0  0  0  0  0
   36.7730   28.6020   44.6070 O   0  0  0  0  0  0  0  0  0  0  0  0
   36.1150   27.9780   45.0150 H   0  0  0  0  0  0  0  0  0  0  0  0
   38.8620   28.4680   43.1240 O   0  0  0  0  0  0  0  0  0  0  0  0
   39.3210   29.7160   42.7790 C   0  0  0  0  0  0  0  0  0  0  0  0
   38.5780   30.5010   42.6660 H   0  0  0  0  0  0  0  0  0  0  0  0
   39.9750   30.0480   43.6360 H   0  0  0  0  0  0  0  0  0  0  0  0
   40.1920   29.5950   41.5100 C   0  0  0  0  0  0  0  0  0  0  0  0
   39.6670   28.9390   40.8130 H   0  0  0  0  0  0  0  0  0  0  0  0
   41.2130   29.2990   41.7770 H   0  0  0  0  0  0  0  0  0  0  0  0
   41.0160   31.2400   39.7640 C   0  0  0  0  0  3  0  0  0  0  0  0
   40.2520   30.9670   40.8970 C   0  0  0  0  0  0  0  0  0  0  0  0
   39.5130   31.9720   41.5020 C   0  0  0  0  0  0  0  0  0  0  0  0
   38.9230   31.7390   42.3850 H   0  0  0  0  0  0  0  0  0  0  0  0
   39.5390   33.2500   40.9710 C   0  0  0  0  0  0  0  0  0  0  0  0
   38.8850   34.3460   41.4250 N   0  0  0  0  0  0  0  0  0  0  0  0
   38.2470   34.4010   42.2620 H   0  0  0  0  0  0  0  0  0  0  0  0
   39.1910   35.3890   40.6110 C   0  0  0  0  0  0  0  0  0  0  0  0
   38.8190   36.4020   40.7190 H   0  0  0  0  0  0  0  0  0  0  0  0
   40.0610   34.8900   39.6340 C   0  0  0  0  0  3  0  0  0  0  0  0
   40.2890   33.5460   39.8480 C   0  0  0  0  0  0  0  0  0  0  0  0
   41.0170   32.5270   39.2650 C   0  0  0  0  0  3  0  0  0  0  0  0
  1 25  1  0  0  0  0
  2  1  1  0  0  0  0
  3  5  1  0  0  0  0
  3  1  1  0  0  0  0
  4  3  1  0  0  0  0
  6 18  1  0  0  0  0
  6  7  1  0  0  0  0
  7  3  1  0  0  0  0
  8  7  2  0  0  0  0
  8 12  1  0  0  0  0
  9  8  1  0  0  0  0
 10 11  1  0  0  0  0
 10  9  2  0  0  0  0
 11  6  2  0  0  0  0
 13  9  1  0  0  0  0
 14 10  1  0  0  0  0
 15 11  1  0  0  0  0
 16 21  1  0  0  0  0
 17 18  1  0  0  0  0
 17 16  2  0  0  0  0
 18 19  2  0  0  0  0
 19 20  1  0  0  0  0
 20 24  1  0  0  0  0
 21 20  2  0  0  0  0
 22 16  1  0  0  0  0
 23 17  1  0  0  0  0
 25 28  1  0  0  0  0
 26 25  1  0  0  0  0
 27 26  1  0  0  0  0
 28 29  1  0  0  0  0
 30 25  1  0  0  0  0
 31 30  1  0  0  0  0
 31 33  1  0  0  0  0
 32 31  1  0  0  0  0
 34 36  1  0  0  0  0
 34 31  1  0  0  0  0
 35 34  1  0  0  0  0
 37 38  1  0  0  0  0
 38 39  2  0  0  0  0
 38 34  1  0  0  0  0
 39 40  1  0  0  0  0
 41 42  1  0  0  0  0
 41 39  1  0  0  0  0
 42 43  1  0  0  0  0
 44 45  1  0  0  0  0
 44 42  1  0  0  0  0
 46 47  1  0  0  0  0
 46 44  2  0  0  0  0
 47 41  2  0  0  0  0
 48 37  2  0  0  0  0
 48 47  1  0  0  0  0
M  END
>  <minimizedAffinity>
-6.21782064

$$$$

 OpenBabel03252508483D

 48 51  0  0  0  0  0  0  0  0999 V2000
   36.1820   29.8630   41.7840 N   0  0  0  0  0  0  0  0  0  0  0  0
   35.4360   30.2070   42.4270 H   0  0  0  0  0  0  0  0  0  0  0  0
   36.6790   30.9460   40.9750 C   0  0  0  0  0  0  0  0  0  0  0  0
   36.0460   31.8720   41.0860 H   0  0  0  0  0  0  0  0  0  0  0  0
   37.7060   31.1770   41.3300 H   0  0  0  0  0  0  0  0  0  0  0  0
   37.5740   31.3870   38.6840 C   0  0  0  0  0  0  0  0  0  0  0  0
   36.7230   30.6610   39.5190 C   0  0  0  0  0  0  0  0  0  0  0  0
   35.9370   29.6860   38.9580 C   0  0  0  0  0  0  0  0  0  0  0  0
   35.9950   29.4420   37.6140 C   0  0  0  0  0  0  0  0  0  0  0  0
   36.8140   30.1340   36.7760 C   0  0  0  0  0  0  0  0  0  0  0  0
   37.5930   31.1090   37.3720 C   0  0  0  0  0  0  0  0  0  0  0  0
   35.2690   29.1140   39.6010 H   0  0  0  0  0  0  0  0  0  0  0  0
   35.3440   28.6530   37.2310 H   0  0  0  0  0  0  0  0  0  0  0  0
   36.8730   29.9530   35.7060 H   0  0  0  0  0  0  0  0  0  0  0  0
   38.2700   31.6960   36.7470 H   0  0  0  0  0  0  0  0  0  0  0  0
   40.4040   33.2890   40.3010 C   0  0  0  0  0  0  0  0  0  0  0  0
   39.7210   32.2300   39.6850 C   0  0  0  0  0  0  0  0  0  0  0  0
   38.3860   32.4100   39.3270 C   0  0  0  0  0  0  0  0  0  0  0  0
   37.8220   33.6200   39.6020 N   0  0  0  0  0  0  0  0  0  0  0  0
   38.5030   34.6290   40.1990 C   0  0  0  0  0  0  0  0  0  0  0  0
   39.7960   34.4460   40.5420 N   0  0  0  0  0  0  0  0  0  0  0  0
   41.4460   33.1490   40.5810 H   0  0  0  0  0  0  0  0  0  0  0  0
   40.1820   31.2710   39.4720 H   0  0  0  0  0  0  0  0  0  0  0  0
   38.0260   35.5800   40.4040 H   0  0  0  0  0  0  0  0  0  0  0  0
   37.4050   29.0980   42.6980 S   0  0  0  0  0  0  0  0  0  0  0  0
   37.0580   29.0760   44.1620 O   0  0  0  0  0  0  0  0  0  0  0  0
   37.0280   28.2290   44.6840 H   0  0  0  0  0  0  0  0  0  0  0  0
   38.7260   29.7410   42.4870 O   0  0  0  0  0  0  0  0  0  0  0  0
   39.2020   30.2240   43.2160 H   0  0  0  0  0  0  0  0  0  0  0  0
   37.5040   27.5110   42.1610 O   0  0  0  0  0  0  0  0  0  0  0  0
   38.7080   27.3260   41.5260 C   0  0  0  0  0  0  0  0  0  0  0  0
   39.4780   28.0730   41.7020 H   0  0  0  0  0  0  0  0  0  0  0  0
   39.1270   26.3640   41.9390 H   0  0  0  0  0  0  0  0  0  0  0  0
   38.4530   27.1450   40.0140 C   0  0  0  0  0  0  0  0  0  0  0  0
   39.4180   26.9650   39.5370 H   0  0  0  0  0  0  0  0  0  0  0  0
   37.8710   27.9890   39.6240 H   0  0  0  0  0  0  0  0  0  0  0  0
   37.8570   24.7560   40.6210 C   0  0  0  0  0  3  0  0  0  0  0  0
   37.6220   25.9010   39.8620 C   0  0  0  0  0  0  0  0  0  0  0  0
   36.5980   25.9240   38.9290 C   0  0  0  0  0  0  0  0  0  0  0  0
   36.4290   26.8270   38.3460 H   0  0  0  0  0  0  0  0  0  0  0  0
   35.8080   24.8000   38.7570 C   0  0  0  0  0  0  0  0  0  0  0  0
   34.7710   24.6440   37.8990 N   0  0  0  0  0  0  0  0  0  0  0  0
   34.3960   25.3570   37.2210 H   0  0  0  0  0  0  0  0  0  0  0  0
   34.2780   23.3880   38.0560 C   0  0  0  0  0  0  0  0  0  0  0  0
   33.4440   22.9660   37.5070 H   0  0  0  0  0  0  0  0  0  0  0  0
   35.0550   22.7760   39.0470 C   0  0  0  0  0  3  0  0  0  0  0  0
   36.0210   23.6520   39.4970 C   0  0  0  0  0  0  0  0  0  0  0  0
   37.0490   23.6550   40.4200 C   0  0  0  0  0  3  0  0  0  0  0  0
  1  2  1  0  0  0  0
  1 25  1  0  0  0  0
  3  4  1  0  0  0  0
  3  5  1  0  0  0  0
  3  1  1  0  0  0  0
  6 18  1  0  0  0  0
  6  7  1  0  0  0  0
  7  3  1  0  0  0  0
  8  7  2  0  0  0  0
  8 12  1  0  0  0  0
  9  8  1  0  0  0  0
 10 11  1  0  0  0  0
 10  9  2  0  0  0  0
 11  6  2  0  0  0  0
 13  9  1  0  0  0  0
 14 10  1  0  0  0  0
 15 11  1  0  0  0  0
 16 21  1  0  0  0  0
 16 22  1  0  0  0  0
 17 16  2  0  0  0  0
 18 19  2  0  0  0  0
 18 17  1  0  0  0  0
 19 20  1  0  0  0  0
 20 24  1  0  0  0  0
 20 21  2  0  0  0  0
 23 17  1  0  0  0  0
 25 26  1  0  0  0  0
 26 27  1  0  0  0  0
 28 25  1  0  0  0  0
 28 29  1  0  0  0  0
 30 25  1  0  0  0  0
 31 32  1  0  0  0  0
 31 33  1  0  0  0  0
 31 30  1  0  0  0  0
 34 31  1  0  0  0  0
 35 34  1  0  0  0  0
 36 34  1  0  0  0  0
 38 34  1  0  0  0  0
 38 37  2  0  0  0  0
 39 38  1  0  0  0  0
 40 39  1  0  0  0  0
 41 39  2  0  0  0  0
 41 47  1  0  0  0  0
 42 44  1  0  0  0  0
 42 41  1  0  0  0  0
 43 42  1  0  0  0  0
 44 46  2  0  0  0  0
 45 44  1  0  0  0  0
 46 47  1  0  0  0  0
 47 48  2  0  0  0  0
 48 37  1  0  0  0  0
M  END
>  <minimizedAffinity>
-6.19881344

$$$$

 OpenBabel03252508483D

 48 51  0  0  0  0  0  0  0  0999 V2000
   36.0520   29.5810   41.7740 N   0  0  0  0  0  0  0  0  0  0  0  0
   35.2710   29.7430   42.4470 H   0  0  0  0  0  0  0  0  0  0  0  0
   36.2380   30.7410   40.9400 C   0  0  0  0  0  0  0  0  0  0  0  0
   35.3790   31.4640   41.0380 H   0  0  0  0  0  0  0  0  0  0  0  0
   37.1650   31.2470   41.2840 H   0  0  0  0  0  0  0  0  0  0  0  0
   37.2580   31.1610   38.6980 C   0  0  0  0  0  0  0  0  0  0  0  0
   36.3560   30.4480   39.4900 C   0  0  0  0  0  0  0  0  0  0  0  0
   35.5900   29.4780   38.8930 C   0  0  0  0  0  0  0  0  0  0  0  0
   35.7160   29.2260   37.5550 C   0  0  0  0  0  0  0  0  0  0  0  0
   36.5860   29.9050   36.7580 C   0  0  0  0  0  0  0  0  0  0  0  0
   37.3430   30.8750   37.3900 C   0  0  0  0  0  0  0  0  0  0  0  0
   34.8830   28.9160   39.5020 H   0  0  0  0  0  0  0  0  0  0  0  0
   35.0790   28.4430   37.1410 H   0  0  0  0  0  0  0  0  0  0  0  0
   36.7000   29.7180   35.6940 H   0  0  0  0  0  0  0  0  0  0  0  0
   38.0590   31.4530   36.7990 H   0  0  0  0  0  0  0  0  0  0  0  0
   38.4660   34.3860   40.2390 C   0  0  0  0  0  0  0  0  0  0  0  0
   37.6200   33.4920   39.5670 C   0  0  0  0  0  0  0  0  0  0  0  0
   38.0450   32.1780   39.3780 C   0  0  0  0  0  0  0  0  0  0  0  0
   39.2730   31.8420   39.8660 N   0  0  0  0  0  0  0  0  0  0  0  0
   40.0730   32.7250   40.5130 C   0  0  0  0  0  0  0  0  0  0  0  0
   39.6530   33.9950   40.6920 N   0  0  0  0  0  0  0  0  0  0  0  0
   38.1350   35.4120   40.3860 H   0  0  0  0  0  0  0  0  0  0  0  0
   36.6450   33.7730   39.1840 H   0  0  0  0  0  0  0  0  0  0  0  0
   41.0450   32.4260   40.8890 H   0  0  0  0  0  0  0  0  0  0  0  0
   37.4590   29.1470   42.6380 S   0  0  0  0  0  0  0  0  0  0  0  0
   37.2060   29.1370   44.1210 O   0  0  0  0  0  0  0  0  0  0  0  0
   37.3880   28.3350   44.6810 H   0  0  0  0  0  0  0  0  0  0  0  0
   38.5970   30.0440   42.3110 O   0  0  0  0  0  0  0  0  0  0  0  0
   38.9970   30.6580   42.9840 H   0  0  0  0  0  0  0  0  0  0  0  0
   37.8680   27.5890   42.1670 O   0  0  0  0  0  0  0  0  0  0  0  0
   38.9810   27.6400   41.3630 C   0  0  0  0  0  0  0  0  0  0  0  0
   39.6610   28.4750   41.5160 H   0  0  0  0  0  0  0  0  0  0  0  0
   39.5810   26.7180   41.6120 H   0  0  0  0  0  0  0  0  0  0  0  0
   38.5360   27.5570   39.8870 C   0  0  0  0  0  0  0  0  0  0  0  0
   39.4350   27.5860   39.2700 H   0  0  0  0  0  0  0  0  0  0  0  0
   37.7800   28.3220   39.6760 H   0  0  0  0  0  0  0  0  0  0  0  0
   36.5830   26.0660   39.2560 C   0  0  0  0  0  3  0  0  0  0  0  0
   37.8940   26.2090   39.7060 C   0  0  0  0  0  0  0  0  0  0  0  0
   38.6570   25.0910   40.0070 C   0  0  0  0  0  0  0  0  0  0  0  0
   39.6780   25.2220   40.3570 H   0  0  0  0  0  0  0  0  0  0  0  0
   38.1060   23.8300   39.8550 C   0  0  0  0  0  0  0  0  0  0  0  0
   38.6980   22.6360   40.0970 N   0  0  0  0  0  0  0  0  0  0  0  0
   39.6800   22.4740   40.4440 H   0  0  0  0  0  0  0  0  0  0  0  0
   37.8020   21.6550   39.8170 C   0  0  0  0  0  0  0  0  0  0  0  0
   37.9840   20.5900   39.9140 H   0  0  0  0  0  0  0  0  0  0  0  0
   36.6310   22.2940   39.3910 C   0  0  0  0  0  3  0  0  0  0  0  0
   36.8080   23.6620   39.4090 C   0  0  0  0  0  0  0  0  0  0  0  0
   36.0700   24.7920   39.1170 C   0  0  0  0  0  3  0  0  0  0  0  0
  1  2  1  0  0  0  0
  1 25  1  0  0  0  0
  3  4  1  0  0  0  0
  3  5  1  0  0  0  0
  3  1  1  0  0  0  0
  6 18  1  0  0  0  0
  6  7  1  0  0  0  0
  7  3  1  0  0  0  0
  8  7  2  0  0  0  0
  8 12  1  0  0  0  0
  9  8  1  0  0  0  0
 10 11  1  0  0  0  0
 10  9  2  0  0  0  0
 11  6  2  0  0  0  0
 13  9  1  0  0  0  0
 14 10  1  0  0  0  0
 15 11  1  0  0  0  0
 16 22  1  0  0  0  0
 16 21  1  0  0  0  0
 17 16  2  0  0  0  0
 18 17  1  0  0  0  0
 18 19  2  0  0  0  0
 19 20  1  0  0  0  0
 20 21  2  0  0  0  0
 20 24  1  0  0  0  0
 23 17  1  0  0  0  0
 25 26  1  0  0  0  0
 26 27  1  0  0  0  0
 28 25  1  0  0  0  0
 28 29  1  0  0  0  0
 30 25  1  0  0  0  0
 31 32  1  0  0  0  0
 31 33  1  0  0  0  0
 31 30  1  0  0  0  0
 34 31  1  0  0  0  0
 35 34  1  0  0  0  0
 36 34  1  0  0  0  0
 37 38  1  0  0  0  0
 38 34  1  0  0  0  0
 38 39  2  0  0  0  0
 39 40  1  0  0  0  0
 41 39  1  0  0  0  0
 41 42  1  0  0  0  0
 42 43  1  0  0  0  0
 44 45  1  0  0  0  0
 44 42  1  0  0  0  0
 46 47  1  0  0  0  0
 46 44  2  0  0  0  0
 47 41  2  0  0  0  0
 48 37  2  0  0  0  0
 48 47  1  0  0  0  0
M  END
>  <minimizedAffinity>
-6.14319992

$$$$

 OpenBabel03252508483D

 48 51  0  0  0  0  0  0  0  0999 V2000
   41.2090   30.6870   36.9760 N   0  0  0  0  0  0  0  0  0  0  0  0
   41.2370   30.5040   35.9490 H   0  0  0  0  0  0  0  0  0  0  0  0
   41.2040   32.1060   37.2280 C   0  0  0  0  0  0  0  0  0  0  0  0
   40.9850   32.6920   36.2910 H   0  0  0  0  0  0  0  0  0  0  0  0
   40.3960   32.3050   37.9640 H   0  0  0  0  0  0  0  0  0  0  0  0
   42.5050   33.3610   38.9520 C   0  0  0  0  0  0  0  0  0  0  0  0
   42.4820   32.6460   37.7540 C   0  0  0  0  0  0  0  0  0  0  0  0
   43.6650   32.4610   37.0840 C   0  0  0  0  0  0  0  0  0  0  0  0
   44.8300   32.9680   37.5870 C   0  0  0  0  0  0  0  0  0  0  0  0
   44.8820   33.6700   38.7530 C   0  0  0  0  0  0  0  0  0  0  0  0
   43.6740   33.8390   39.4040 C   0  0  0  0  0  0  0  0  0  0  0  0
   43.6580   31.9040   36.1470 H   0  0  0  0  0  0  0  0  0  0  0  0
   45.7360   32.7860   37.0070 H   0  0  0  0  0  0  0  0  0  0  0  0
   45.7990   34.0800   39.1690 H   0  0  0  0  0  0  0  0  0  0  0  0
   43.6560   34.3940   40.3450 H   0  0  0  0  0  0  0  0  0  0  0  0
   39.2610   34.7580   40.2820 C   0  0  0  0  0  0  0  0  0  0  0  0
   40.4840   34.7120   39.5970 C   0  0  0  0  0  0  0  0  0  0  0  0
   41.2240   33.5310   39.6230 C   0  0  0  0  0  0  0  0  0  0  0  0
   40.7050   32.4820   40.3220 N   0  0  0  0  0  0  0  0  0  0  0  0
   39.5190   32.5520   40.9770 C   0  0  0  0  0  0  0  0  0  0  0  0
   38.8090   33.6990   40.9460 N   0  0  0  0  0  0  0  0  0  0  0  0
   38.6830   35.6800   40.2630 H   0  0  0  0  0  0  0  0  0  0  0  0
   40.8860   35.5550   39.0450 H   0  0  0  0  0  0  0  0  0  0  0  0
   39.1320   31.7000   41.5240 H   0  0  0  0  0  0  0  0  0  0  0  0
   39.8650   29.8830   37.6550 S   0  0  0  0  0  0  0  0  0  0  0  0
   40.2460   29.1570   38.9160 O   0  0  0  0  0  0  0  0  0  0  0  0
   39.7760   29.3180   39.7800 H   0  0  0  0  0  0  0  0  0  0  0  0
   39.2420   28.9480   36.6850 O   0  0  0  0  0  0  0  0  0  0  0  0
   39.2470   27.9620   36.8220 H   0  0  0  0  0  0  0  0  0  0  0  0
   38.7340   31.0590   38.0500 O   0  0  0  0  0  0  0  0  0  0  0  0
   37.4790   30.5990   37.7330 C   0  0  0  0  0  0  0  0  0  0  0  0
   37.0610   30.9210   36.7820 H   0  0  0  0  0  0  0  0  0  0  0  0
   37.5750   29.4790   37.6500 H   0  0  0  0  0  0  0  0  0  0  0  0
   36.5170   30.9290   38.8950 C   0  0  0  0  0  0  0  0  0  0  0  0
   35.5040   30.9380   38.4910 H   0  0  0  0  0  0  0  0  0  0  0  0
   36.8420   31.8420   39.4080 H   0  0  0  0  0  0  0  0  0  0  0  0
   36.4870   28.4590   39.4740 C   0  0  0  0  0  3  0  0  0  0  0  0
   36.6150   29.7890   39.8710 C   0  0  0  0  0  0  0  0  0  0  0  0
   36.8380   30.1030   41.2030 C   0  0  0  0  0  0  0  0  0  0  0  0
   36.9350   31.1470   41.4940 H   0  0  0  0  0  0  0  0  0  0  0  0
   36.9350   29.0860   42.1360 C   0  0  0  0  0  0  0  0  0  0  0  0
   37.1490   29.2040   43.4680 N   0  0  0  0  0  0  0  0  0  0  0  0
   37.2780   30.0980   44.0120 H   0  0  0  0  0  0  0  0  0  0  0  0
   37.1720   27.9570   44.0060 C   0  0  0  0  0  0  0  0  0  0  0  0
   37.3250   27.7270   45.0550 H   0  0  0  0  0  0  0  0  0  0  0  0
   36.9630   27.0640   42.9490 C   0  0  0  0  0  3  0  0  0  0  0  0
   36.8120   27.7590   41.7670 C   0  0  0  0  0  0  0  0  0  0  0  0
   36.5890   27.4730   40.4340 C   0  0  0  0  0  3  0  0  0  0  0  0
  1  3  1  0  0  0  0
  1 25  1  0  0  0  0
  2  1  1  0  0  0  0
  3  7  1  0  0  0  0
  3  5  1  0  0  0  0
  4  3  1  0  0  0  0
  6 11  1  0  0  0  0
  6 18  1  0  0  0  0
  7  6  2  0  0  0  0
  8  9  2  0  0  0  0
  8  7  1  0  0  0  0
  9 10  1  0  0  0  0
 10 14  1  0  0  0  0
 10 11  2  0  0  0  0
 11 15  1  0  0  0  0
 12  8  1  0  0  0  0
 13  9  1  0  0  0  0
 16 21  1  0  0  0  0
 17 18  1  0  0  0  0
 17 16  2  0  0  0  0
 18 19  2  0  0  0  0
 19 20  1  0  0  0  0
 20 24  1  0  0  0  0
 21 20  2  0  0  0  0
 22 16  1  0  0  0  0
 23 17  1  0  0  0  0
 25 30  1  0  0  0  0
 25 26  1  0  0  0  0
 26 27  1  0  0  0  0
 28 29  1  0  0  0  0
 28 25  1  0  0  0  0
 31 30  1  0  0  0  0
 31 34  1  0  0  0  0
 32 31  1  0  0  0  0
 33 31  1  0  0  0  0
 34 36  1  0  0  0  0
 34 38  1  0  0  0  0
 35 34  1  0  0  0  0
 37 38  2  0  0  0  0
 37 48  1  0  0  0  0
 38 39  1  0  0  0  0
 39 40  1  0  0  0  0
 39 41  2  0  0  0  0
 41 42  1  0  0  0  0
 42 44  1  0  0  0  0
 42 43  1  0  0  0  0
 44 45  1  0  0  0  0
 46 44  2  0  0  0  0
 47 41  1  0  0  0  0
 47 46  1  0  0  0  0
 48 47  2  0  0  0  0
M  END
>  <minimizedAffinity>
-6.10932922

$$$$

 OpenBabel03252508483D

 48 51  0  0  0  0  0  0  0  0999 V2000
   36.2010   29.1000   39.7440 N   0  0  0  0  0  0  0  0  0  0  0  0
   35.8410   29.4210   38.8190 H   0  0  0  0  0  0  0  0  0  0  0  0
   37.2600   28.1410   39.5600 C   0  0  0  0  0  0  0  0  0  0  0  0
   37.8460   28.3460   38.6200 H   0  0  0  0  0  0  0  0  0  0  0  0
   37.9450   28.2370   40.4290 H   0  0  0  0  0  0  0  0  0  0  0  0
   36.9000   25.8770   40.5560 C   0  0  0  0  0  0  0  0  0  0  0  0
   36.8070   26.7320   39.4550 C   0  0  0  0  0  0  0  0  0  0  0  0
   36.2900   26.2330   38.2860 C   0  0  0  0  0  0  0  0  0  0  0  0
   35.8790   24.9310   38.2130 C   0  0  0  0  0  0  0  0  0  0  0  0
   35.9580   24.0750   39.2690 C   0  0  0  0  0  0  0  0  0  0  0  0
   36.4840   24.6080   40.4320 C   0  0  0  0  0  0  0  0  0  0  0  0
   36.2130   26.8910   37.4210 H   0  0  0  0  0  0  0  0  0  0  0  0
   35.4770   24.5970   37.2550 H   0  0  0  0  0  0  0  0  0  0  0  0
   35.6370   23.0380   39.2290 H   0  0  0  0  0  0  0  0  0  0  0  0
   36.5710   23.9670   41.3130 H   0  0  0  0  0  0  0  0  0  0  0  0
   39.1960   26.8680   43.3820 C   0  0  0  0  0  0  0  0  0  0  0  0
   38.7720   26.2600   42.1910 C   0  0  0  0  0  0  0  0  0  0  0  0
   37.4560   26.4540   41.7710 C   0  0  0  0  0  0  0  0  0  0  0  0
   36.6570   27.2310   42.5550 N   0  0  0  0  0  0  0  0  0  0  0  0
   37.0910   27.8080   43.7030 C   0  0  0  0  0  0  0  0  0  0  0  0
   38.3660   27.6160   44.1020 N   0  0  0  0  0  0  0  0  0  0  0  0
   40.2220   26.7160   43.7110 H   0  0  0  0  0  0  0  0  0  0  0  0
   39.4180   25.6430   41.5760 H   0  0  0  0  0  0  0  0  0  0  0  0
   36.4310   28.4210   44.3050 H   0  0  0  0  0  0  0  0  0  0  0  0
   36.6820   30.4570   40.6630 S   0  0  0  0  0  0  0  0  0  0  0  0
   37.8650   30.1330   41.5330 O   0  0  0  0  0  0  0  0  0  0  0  0
   38.7080   30.6620   41.4950 H   0  0  0  0  0  0  0  0  0  0  0  0
   35.5620   30.9830   41.4850 O   0  0  0  0  0  0  0  0  0  0  0  0
   35.5750   30.9530   42.4790 H   0  0  0  0  0  0  0  0  0  0  0  0
   37.1420   31.6520   39.5770 O   0  0  0  0  0  0  0  0  0  0  0  0
   38.3390   32.1900   39.9830 C   0  0  0  0  0  0  0  0  0  0  0  0
   38.2990   33.1450   40.5020 H   0  0  0  0  0  0  0  0  0  0  0  0
   38.7640   31.4620   40.7320 H   0  0  0  0  0  0  0  0  0  0  0  0
   39.2900   32.2640   38.7690 C   0  0  0  0  0  0  0  0  0  0  0  0
   38.8420   32.9420   38.0410 H   0  0  0  0  0  0  0  0  0  0  0  0
   39.5250   31.2560   38.4100 H   0  0  0  0  0  0  0  0  0  0  0  0
   41.3750   33.6690   38.4340 C   0  0  0  0  0  3  0  0  0  0  0  0
   40.5660   32.8910   39.2600 C   0  0  0  0  0  0  0  0  0  0  0  0
   40.9220   32.6700   40.5810 C   0  0  0  0  0  0  0  0  0  0  0  0
   40.2780   32.0600   41.2100 H   0  0  0  0  0  0  0  0  0  0  0  0
   42.0880   33.2280   41.0750 C   0  0  0  0  0  0  0  0  0  0  0  0
   42.5890   33.1190   42.3290 N   0  0  0  0  0  0  0  0  0  0  0  0
   42.1680   32.5880   43.1350 H   0  0  0  0  0  0  0  0  0  0  0  0
   43.7510   33.8210   42.3820 C   0  0  0  0  0  0  0  0  0  0  0  0
   44.3850   33.9210   43.2560 H   0  0  0  0  0  0  0  0  0  0  0  0
   43.9460   34.3670   41.1090 C   0  0  0  0  0  3  0  0  0  0  0  0
   42.9080   34.0030   40.2760 C   0  0  0  0  0  0  0  0  0  0  0  0
   42.5310   34.2080   38.9630 C   0  0  0  0  0  3  0  0  0  0  0  0
  1 25  1  0  0  0  0
  2  1  1  0  0  0  0
  3  1  1  0  0  0  0
  3  5  1  0  0  0  0
  4  3  1  0  0  0  0
  6 18  1  0  0  0  0
  7  3  1  0  0  0  0
  7  6  2  0  0  0  0
  8  7  1  0  0  0  0
  9  8  2  0  0  0  0
  9 10  1  0  0  0  0
 10 11  2  0  0  0  0
 11  6  1  0  0  0  0
 11 15  1  0  0  0  0
 12  8  1  0  0  0  0
 13  9  1  0  0  0  0
 14 10  1  0  0  0  0
 16 22  1  0  0  0  0
 16 21  1  0  0  0  0
 17 16  2  0  0  0  0
 18 17  1  0  0  0  0
 18 19  2  0  0  0  0
 19 20  1  0  0  0  0
 20 21  2  0  0  0  0
 20 24  1  0  0  0  0
 23 17  1  0  0  0  0
 25 28  1  0  0  0  0
 25 26  1  0  0  0  0
 27 26  1  0  0  0  0
 28 29  1  0  0  0  0
 30 31  1  0  0  0  0
 30 25  1  0  0  0  0
 31 32  1  0  0  0  0
 31 33  1  0  0  0  0
 34 38  1  0  0  0  0
 34 31  1  0  0  0  0
 35 34  1  0  0  0  0
 36 34  1  0  0  0  0
 37 48  2  0  0  0  0
 37 38  1  0  0  0  0
 38 39  2  0  0  0  0
 39 41  1  0  0  0  0
 39 40  1  0  0  0  0
 41 42  1  0  0  0  0
 42 44  1  0  0  0  0
 42 43  1  0  0  0  0
 44 45  1  0  0  0  0
 46 44  2  0  0  0  0
 47 41  2  0  0  0  0
 47 46  1  0  0  0  0
 48 47  1  0  0  0  0
M  END
>  <minimizedAffinity>
-6.05984068

$$$$

 OpenBabel03252508483D

 48 51  0  0  0  0  0  0  0  0999 V2000
   38.8310   29.5710   37.9690 N   0  0  0  0  0  0  0  0  0  0  0  0
   39.2190   29.0320   37.1640 H   0  0  0  0  0  0  0  0  0  0  0  0
   39.9000   30.1380   38.7500 C   0  0  0  0  0  0  0  0  0  0  0  0
   40.9090   29.8950   38.3100 H   0  0  0  0  0  0  0  0  0  0  0  0
   39.7670   31.2400   38.7380 H   0  0  0  0  0  0  0  0  0  0  0  0
   39.8100   30.5830   41.2070 C   0  0  0  0  0  0  0  0  0  0  0  0
   39.9520   29.6720   40.1590 C   0  0  0  0  0  0  0  0  0  0  0  0
   40.1380   28.3480   40.4670 C   0  0  0  0  0  0  0  0  0  0  0  0
   40.1830   27.9440   41.7720 C   0  0  0  0  0  0  0  0  0  0  0  0
   40.0480   28.8090   42.8150 C   0  0  0  0  0  0  0  0  0  0  0  0
   39.8610   30.1350   42.4710 C   0  0  0  0  0  0  0  0  0  0  0  0
   40.2500   27.6300   39.6560 H   0  0  0  0  0  0  0  0  0  0  0  0
   40.3330   26.8780   41.9500 H   0  0  0  0  0  0  0  0  0  0  0  0
   40.0800   28.5050   43.8570 H   0  0  0  0  0  0  0  0  0  0  0  0
   39.7470   30.8750   43.2670 H   0  0  0  0  0  0  0  0  0  0  0  0
   40.3480   34.1960   40.2590 C   0  0  0  0  0  0  0  0  0  0  0  0
   40.6580   32.8770   40.6240 C   0  0  0  0  0  0  0  0  0  0  0  0
   39.6150   31.9740   40.8270 C   0  0  0  0  0  0  0  0  0  0  0  0
   38.3450   32.4380   40.6570 N   0  0  0  0  0  0  0  0  0  0  0  0
   38.0710   33.7180   40.3040 C   0  0  0  0  0  0  0  0  0  0  0  0
   39.0860   34.5850   40.1080 N   0  0  0  0  0  0  0  0  0  0  0  0
   41.1620   34.9010   40.1000 H   0  0  0  0  0  0  0  0  0  0  0  0
   41.6750   32.5220   40.7570 H   0  0  0  0  0  0  0  0  0  0  0  0
   37.0490   34.0560   40.1760 H   0  0  0  0  0  0  0  0  0  0  0  0
   37.7350   30.7440   37.3870 S   0  0  0  0  0  0  0  0  0  0  0  0
   37.2450   30.3940   36.0080 O   0  0  0  0  0  0  0  0  0  0  0  0
   36.2750   30.3120   35.7990 H   0  0  0  0  0  0  0  0  0  0  0  0
   38.3360   32.1020   37.3950 O   0  0  0  0  0  0  0  0  0  0  0  0
   38.5190   32.6050   36.5560 H   0  0  0  0  0  0  0  0  0  0  0  0
   36.4170   30.7480   38.4260 O   0  0  0  0  0  0  0  0  0  0  0  0
   36.2680   29.4950   38.9680 C   0  0  0  0  0  0  0  0  0  0  0  0
   35.4920   28.8630   38.5430 H   0  0  0  0  0  0  0  0  0  0  0  0
   37.2360   28.9550   38.7620 H   0  0  0  0  0  0  0  0  0  0  0  0
   36.0910   29.6300   40.4960 C   0  0  0  0  0  0  0  0  0  0  0  0
   35.0320   29.8110   40.6890 H   0  0  0  0  0  0  0  0  0  0  0  0
   36.7900   30.3740   40.8940 H   0  0  0  0  0  0  0  0  0  0  0  0
   36.5750   28.1050   42.4640 C   0  0  0  0  0  3  0  0  0  0  0  0
   36.4470   28.2950   41.0900 C   0  0  0  0  0  0  0  0  0  0  0  0
   36.6490   27.2380   40.2160 C   0  0  0  0  0  0  0  0  0  0  0  0
   36.5450   27.4050   39.1460 H   0  0  0  0  0  0  0  0  0  0  0  0
   36.9790   25.9920   40.7190 C   0  0  0  0  0  0  0  0  0  0  0  0
   37.2110   24.8540   40.0200 N   0  0  0  0  0  0  0  0  0  0  0  0
   37.1770   24.7350   38.9740 H   0  0  0  0  0  0  0  0  0  0  0  0
   37.5020   23.8660   40.9060 C   0  0  0  0  0  0  0  0  0  0  0  0
   37.7340   22.8380   40.6480 H   0  0  0  0  0  0  0  0  0  0  0  0
   37.4400   24.4410   42.1800 C   0  0  0  0  0  3  0  0  0  0  0  0
   37.1120   25.7780   42.0780 C   0  0  0  0  0  0  0  0  0  0  0  0
   36.9060   26.8470   42.9270 C   0  0  0  0  0  3  0  0  0  0  0  0
  1  3  1  0  0  0  0
  2  1  1  0  0  0  0
  3  7  1  0  0  0  0
  4  3  1  0  0  0  0
  5  3  1  0  0  0  0
  6 11  1  0  0  0  0
  7  8  1  0  0  0  0
  7  6  2  0  0  0  0
  8  9  2  0  0  0  0
  9 13  1  0  0  0  0
  9 10  1  0  0  0  0
 10 14  1  0  0  0  0
 11 10  2  0  0  0  0
 11 15  1  0  0  0  0
 12  8  1  0  0  0  0
 16 17  1  0  0  0  0
 17 23  1  0  0  0  0
 17 18  2  0  0  0  0
 18  6  1  0  0  0  0
 19 18  1  0  0  0  0
 20 19  2  0  0  0  0
 21 16  2  0  0  0  0
 21 20  1  0  0  0  0
 22 16  1  0  0  0  0
 24 20  1  0  0  0  0
 25 28  1  0  0  0  0
 25  1  1  0  0  0  0
 25 30  1  0  0  0  0
 26 25  1  0  0  0  0
 27 26  1  0  0  0  0
 29 28  1  0  0  0  0
 30 31  1  0  0  0  0
 31 34  1  0  0  0  0
 32 31  1  0  0  0  0
 33 31  1  0  0  0  0
 34 35  1  0  0  0  0
 34 36  1  0  0  0  0
 34 38  1  0  0  0  0
 37 48  1  0  0  0  0
 38 37  2  0  0  0  0
 39 41  2  0  0  0  0
 39 38  1  0  0  0  0
 40 39  1  0  0  0  0
 41 47  1  0  0  0  0
 42 41  1  0  0  0  0
 42 44  1  0  0  0  0
 43 42  1  0  0  0  0
 44 46  2  0  0  0  0
 45 44  1  0  0  0  0
 47 46  1  0  0  0  0
 47 48  2  0  0  0  0
M  END
>  <minimizedAffinity>
-5.94639158

$$$$

 OpenBabel03252508483D

 48 51  0  0  0  0  0  0  0  0999 V2000
   35.9750   30.2160   41.6610 N   0  0  0  0  0  0  0  0  0  0  0  0
   36.2500   31.2220   41.6220 H   0  0  0  0  0  0  0  0  0  0  0  0
   35.6520   29.7360   40.3420 C   0  0  0  0  0  0  0  0  0  0  0  0
   35.8610   28.6330   40.2390 H   0  0  0  0  0  0  0  0  0  0  0  0
   34.5640   29.9030   40.1900 H   0  0  0  0  0  0  0  0  0  0  0  0
   36.6860   29.6950   38.0680 C   0  0  0  0  0  0  0  0  0  0  0  0
   36.4010   30.3930   39.2430 C   0  0  0  0  0  0  0  0  0  0  0  0
   36.8330   31.6920   39.3490 C   0  0  0  0  0  0  0  0  0  0  0  0
   37.5220   32.2760   38.3240 C   0  0  0  0  0  0  0  0  0  0  0  0
   37.8140   31.6200   37.1670 C   0  0  0  0  0  0  0  0  0  0  0  0
   37.3660   30.3140   37.0910 C   0  0  0  0  0  0  0  0  0  0  0  0
   36.6160   32.2450   40.2620 H   0  0  0  0  0  0  0  0  0  0  0  0
   37.8360   33.3110   38.4710 H   0  0  0  0  0  0  0  0  0  0  0  0
   38.3600   32.0690   36.3410 H   0  0  0  0  0  0  0  0  0  0  0  0
   37.5710   29.7390   36.1840 H   0  0  0  0  0  0  0  0  0  0  0  0
   36.3690   25.9460   38.3570 C   0  0  0  0  0  0  0  0  0  0  0  0
   36.9320   27.2260   38.4710 C   0  0  0  0  0  0  0  0  0  0  0  0
   36.2080   28.3220   38.0050 C   0  0  0  0  0  0  0  0  0  0  0  0
   34.9820   28.0770   37.4620 N   0  0  0  0  0  0  0  0  0  0  0  0
   34.4590   26.8300   37.3630 C   0  0  0  0  0  0  0  0  0  0  0  0
   35.1660   25.7740   37.8170 N   0  0  0  0  0  0  0  0  0  0  0  0
   36.9340   25.0900   38.7200 H   0  0  0  0  0  0  0  0  0  0  0  0
   37.9100   27.4070   38.9050 H   0  0  0  0  0  0  0  0  0  0  0  0
   33.4800   26.6670   36.9260 H   0  0  0  0  0  0  0  0  0  0  0  0
   37.2220   29.3210   42.4090 S   0  0  0  0  0  0  0  0  0  0  0  0
   36.9980   29.2100   43.8930 O   0  0  0  0  0  0  0  0  0  0  0  0
   36.9610   28.3300   44.3560 H   0  0  0  0  0  0  0  0  0  0  0  0
   38.5580   29.9050   42.1280 O   0  0  0  0  0  0  0  0  0  0  0  0
   39.1210   30.3070   42.8430 H   0  0  0  0  0  0  0  0  0  0  0  0
   37.1800   27.7740   41.7580 O   0  0  0  0  0  0  0  0  0  0  0  0
   37.2280   26.8550   42.7780 C   0  0  0  0  0  0  0  0  0  0  0  0
   36.9920   27.2150   43.7770 H   0  0  0  0  0  0  0  0  0  0  0  0
   36.4320   26.0930   42.5410 H   0  0  0  0  0  0  0  0  0  0  0  0
   38.6050   26.1570   42.7570 C   0  0  0  0  0  0  0  0  0  0  0  0
   38.7420   25.6700   43.7240 H   0  0  0  0  0  0  0  0  0  0  0  0
   39.3850   26.8670   42.4580 H   0  0  0  0  0  0  0  0  0  0  0  0
   37.5020   24.1400   41.6840 C   0  0  0  0  0  3  0  0  0  0  0  0
   38.5270   25.0840   41.7060 C   0  0  0  0  0  0  0  0  0  0  0  0
   39.5230   25.0580   40.7430 C   0  0  0  0  0  0  0  0  0  0  0  0
   40.3150   25.8020   40.7760 H   0  0  0  0  0  0  0  0  0  0  0  0
   39.4910   24.0870   39.7560 C   0  0  0  0  0  0  0  0  0  0  0  0
   40.3720   23.9110   38.7420 N   0  0  0  0  0  0  0  0  0  0  0  0
   41.2300   24.4890   38.5410 H   0  0  0  0  0  0  0  0  0  0  0  0
   39.9650   22.8430   38.0090 C   0  0  0  0  0  0  0  0  0  0  0  0
   40.4680   22.4550   37.1300 H   0  0  0  0  0  0  0  0  0  0  0  0
   38.7950   22.3670   38.6120 C   0  0  0  0  0  3  0  0  0  0  0  0
   38.4850   23.1400   39.7130 C   0  0  0  0  0  0  0  0  0  0  0  0
   37.5050   23.1880   40.6850 C   0  0  0  0  0  3  0  0  0  0  0  0
  1 25  1  0  0  0  0
  2  1  1  0  0  0  0
  3  1  1  0  0  0  0
  4  3  1  0  0  0  0
  5  3  1  0  0  0  0
  6  7  1  0  0  0  0
  7  8  2  0  0  0  0
  7  3  1  0  0  0  0
  8 12  1  0  0  0  0
  9 13  1  0  0  0  0
  9  8  1  0  0  0  0
 10  9  2  0  0  0  0
 11 10  1  0  0  0  0
 11  6  2  0  0  0  0
 14 10  1  0  0  0  0
 15 11  1  0  0  0  0
 16 17  1  0  0  0  0
 16 22  1  0  0  0  0
 17 23  1  0  0  0  0
 18  6  1  0  0  0  0
 18 17  2  0  0  0  0
 19 18  1  0  0  0  0
 20 19  2  0  0  0  0
 20 21  1  0  0  0  0
 21 16  2  0  0  0  0
 24 20  1  0  0  0  0
 25 26  1  0  0  0  0
 26 27  1  0  0  0  0
 28 25  1  0  0  0  0
 28 29  1  0  0  0  0
 30 25  1  0  0  0  0
 30 31  1  0  0  0  0
 31 32  1  0  0  0  0
 33 31  1  0  0  0  0
 34 31  1  0  0  0  0
 34 35  1  0  0  0  0
 36 34  1  0  0  0  0
 37 38  1  0  0  0  0
 38 34  1  0  0  0  0
 39 40  1  0  0  0  0
 39 38  2  0  0  0  0
 41 39  1  0  0  0  0
 42 41  1  0  0  0  0
 43 42  1  0  0  0  0
 44 46  2  0  0  0  0
 44 42  1  0  0  0  0
 45 44  1  0  0  0  0
 46 47  1  0  0  0  0
 47 41  2  0  0  0  0
 47 48  1  0  0  0  0
 48 37  2  0  0  0  0
M  END
>  <minimizedAffinity>
-5.89444017

$$$$
