
 OpenBabel03242515493D

 23 25  0  0  0  0  0  0  0  0999 V2000
   47.2390   31.3230   44.7550 C   0  0  0  0  0  0  0  0  0  0  0  0
   47.0450   32.6840   44.7350 C   0  0  0  0  0  0  0  0  0  0  0  0
   46.3910   33.3410   45.7570 C   0  0  0  0  0  0  0  0  0  0  0  0
   46.2440   34.4270   45.7270 H   0  0  0  0  0  0  0  0  0  0  0  0
   45.9030   32.6630   46.8470 C   0  0  0  0  0  0  0  0  0  0  0  0
   45.2420   32.9920   47.9770 N   0  0  0  0  0  0  0  0  0  0  0  0
   44.9940   33.9930   48.1560 H   0  0  0  0  0  0  0  0  0  0  0  0
   44.9860   31.9210   48.7480 C   0  0  0  0  0  0  0  0  0  0  0  0
   44.4630   31.9440   49.7060 H   0  0  0  0  0  0  0  0  0  0  0  0
   45.5200   30.8390   48.0630 C   0  0  0  0  0  0  0  0  0  0  0  0
   46.0850   31.3020   46.8920 C   0  0  0  0  0  0  0  0  0  0  0  0
   46.7400   30.6640   45.8580 C   0  0  0  0  0  0  0  0  0  0  0  0
   47.3430   35.2170   42.0880 C   0  0  0  0  0  0  0  0  0  0  0  0
   48.5660   34.8750   41.4850 C   0  0  0  0  0  0  0  0  0  0  0  0
   49.2610   33.7890   41.9930 C   0  0  0  0  0  0  0  0  0  0  0  0
   48.7210   33.1260   43.0370 N   0  0  0  0  0  0  0  0  0  0  0  0
   47.5380   33.4760   43.6030 C   0  0  0  0  0  0  0  0  0  0  0  0
   46.8420   34.5230   43.1320 N   0  0  0  0  0  0  0  0  0  0  0  0
   46.7660   36.0600   41.7230 H   0  0  0  0  0  0  0  0  0  0  0  0
   50.1890   33.5440   41.5230 H   0  0  0  0  0  0  0  0  0  0  0  0
   48.9850   35.6870   40.3910 N   0  0  0  0  0  0  0  0  0  0  0  0
   48.4730   35.8610   39.5210 H   0  0  0  0  0  0  0  0  0  0  0  0
   49.9330   36.1070   40.6020 H   0  0  0  0  0  0  0  0  0  0  0  0
  1 12  1  0  0  0  0
  2  1  2  0  0  0  0
  2  3  1  0  0  0  0
  3  5  2  0  0  0  0
  4  3  1  0  0  0  0
  5 11  1  0  0  0  0
  5  6  1  0  0  0  0
  6  7  1  0  0  0  0
  6  8  1  0  0  0  0
  8  9  1  0  0  0  0
 10  8  2  0  0  0  0
 11 10  1  0  0  0  0
 12 11  2  0  0  0  0
 13 18  1  0  0  0  0
 14 15  1  0  0  0  0
 14 13  2  0  0  0  0
 15 16  2  0  0  0  0
 16 17  1  0  0  0  0
 17  2  1  0  0  0  0
 18 17  2  0  0  0  0
 19 13  1  0  0  0  0
 20 15  1  0  0  0  0
 21 23  1  0  0  0  0
 21 14  1  0  0  0  0
 22 21  1  0  0  0  0
M  END
>  <minimizedAffinity>
-5.37406015

>  <minimizedRMSD>
3.32739258

$$$$
