
 OpenBabel03242515513D

 23 25  0  0  0  0  0  0  0  0999 V2000
   37.3990   28.6000   42.8270 C   0  0  0  0  0  3  0  0  0  0  0  0
   37.4200   28.8700   41.4800 C   0  0  0  0  0  0  0  0  0  0  0  0
   37.2670   27.8760   40.5350 C   0  0  0  0  0  0  0  0  0  0  0  0
   37.2860   28.1070   39.4640 H   0  0  0  0  0  0  0  0  0  0  0  0
   37.0840   26.5650   40.8990 C   0  0  0  0  0  0  0  0  0  0  0  0
   36.9080   25.3940   40.2500 N   0  0  0  0  0  0  0  0  0  0  0  0
   36.8920   25.3820   39.2040 H   0  0  0  0  0  0  0  0  0  0  0  0
   36.7710   24.3590   41.0970 C   0  0  0  0  0  0  0  0  0  0  0  0
   36.6190   23.3190   40.8010 H   0  0  0  0  0  0  0  0  0  0  0  0
   36.8650   24.9070   42.3670 C   0  0  0  0  0  3  0  0  0  0  0  0
   37.0580   26.2670   42.2400 C   0  0  0  0  0  0  0  0  0  0  0  0
   37.2150   27.2770   43.1690 C   0  0  0  0  0  3  0  0  0  0  0  0
   36.9610   32.0970   39.7800 C   0  0  0  0  0  0  0  0  0  0  0  0
   38.0800   32.8260   40.2180 C   0  0  0  0  0  0  0  0  0  0  0  0
   38.9660   32.2020   41.0820 C   0  0  0  0  0  0  0  0  0  0  0  0
   38.7000   30.9320   41.4510 N   0  0  0  0  0  0  0  0  0  0  0  0
   37.6120   30.2480   41.0140 C   0  0  0  0  0  0  0  0  0  0  0  0
   36.7360   30.8260   40.1760 N   0  0  0  0  0  0  0  0  0  0  0  0
   36.2420   32.5460   39.1030 H   0  0  0  0  0  0  0  0  0  0  0  0
   39.8110   32.7710   41.4050 H   0  0  0  0  0  0  0  0  0  0  0  0
   38.2040   34.1590   39.7270 N   0  0  0  0  0  0  0  0  0  0  0  0
   38.2530   34.4510   38.7460 H   0  0  0  0  0  0  0  0  0  0  0  0
   38.2390   34.8350   40.5390 H   0  0  0  0  0  0  0  0  0  0  0  0
  1 12  1  0  0  0  0
  2  1  2  0  0  0  0
  3  5  2  0  0  0  0
  3  2  1  0  0  0  0
  4  3  1  0  0  0  0
  5 11  1  0  0  0  0
  6  5  1  0  0  0  0
  6  8  1  0  0  0  0
  7  6  1  0  0  0  0
  8 10  2  0  0  0  0
  9  8  1  0  0  0  0
 11 10  1  0  0  0  0
 11 12  2  0  0  0  0
 13 18  2  0  0  0  0
 13 14  1  0  0  0  0
 14 15  2  0  0  0  0
 15 20  1  0  0  0  0
 15 16  1  0  0  0  0
 17 16  2  0  0  0  0
 17  2  1  0  0  0  0
 18 17  1  0  0  0  0
 19 13  1  0  0  0  0
 21 14  1  0  0  0  0
 21 23  1  0  0  0  0
 22 21  1  0  0  0  0
M  END
>  <minimizedAffinity>
-5.17420816

$$$$

 OpenBabel03242515513D

 23 25  0  0  0  0  0  0  0  0999 V2000
   40.4950   29.2390   42.6280 C   0  0  0  0  0  3  0  0  0  0  0  0
   39.2700   29.1280   42.0160 C   0  0  0  0  0  0  0  0  0  0  0  0
   38.6000   27.9240   41.9420 C   0  0  0  0  0  0  0  0  0  0  0  0
   37.6220   27.8500   41.4510 H   0  0  0  0  0  0  0  0  0  0  0  0
   39.1280   26.7760   42.4810 C   0  0  0  0  0  0  0  0  0  0  0  0
   38.7450   25.4850   42.5770 N   0  0  0  0  0  0  0  0  0  0  0  0
   37.8290   25.1870   42.1690 H   0  0  0  0  0  0  0  0  0  0  0  0
   39.6530   24.7320   43.2230 C   0  0  0  0  0  0  0  0  0  0  0  0
   39.5600   23.6620   43.4190 H   0  0  0  0  0  0  0  0  0  0  0  0
   40.6810   25.6020   43.5590 C   0  0  0  0  0  3  0  0  0  0  0  0
   40.3520   26.8610   43.0990 C   0  0  0  0  0  0  0  0  0  0  0  0
   41.0060   28.0750   43.1610 C   0  0  0  0  0  3  0  0  0  0  0  0
   36.8730   31.3720   40.3640 C   0  0  0  0  0  0  0  0  0  0  0  0
   37.5790   32.5870   40.3290 C   0  0  0  0  0  0  0  0  0  0  0  0
   38.8550   32.6150   40.8690 C   0  0  0  0  0  0  0  0  0  0  0  0
   39.3430   31.4730   41.3950 N   0  0  0  0  0  0  0  0  0  0  0  0
   38.6410   30.3110   41.4180 C   0  0  0  0  0  0  0  0  0  0  0  0
   37.4030   30.2530   40.9020 N   0  0  0  0  0  0  0  0  0  0  0  0
   35.8710   31.3060   39.9530 H   0  0  0  0  0  0  0  0  0  0  0  0
   39.3760   33.5470   40.8340 H   0  0  0  0  0  0  0  0  0  0  0  0
   36.9090   33.6960   39.7330 N   0  0  0  0  0  0  0  0  0  0  0  0
   36.5380   33.7510   38.7800 H   0  0  0  0  0  0  0  0  0  0  0  0
   36.8390   34.4870   40.4320 H   0  0  0  0  0  0  0  0  0  0  0  0
  1 12  1  0  0  0  0
  2  1  2  0  0  0  0
  3  2  1  0  0  0  0
  3  5  2  0  0  0  0
  4  3  1  0  0  0  0
  5  6  1  0  0  0  0
  5 11  1  0  0  0  0
  6  8  1  0  0  0  0
  7  6  1  0  0  0  0
  8  9  1  0  0  0  0
  8 10  2  0  0  0  0
 11 12  2  0  0  0  0
 11 10  1  0  0  0  0
 13 18  1  0  0  0  0
 14 13  2  0  0  0  0
 14 15  1  0  0  0  0
 15 16  2  0  0  0  0
 16 17  1  0  0  0  0
 17  2  1  0  0  0  0
 18 17  2  0  0  0  0
 19 13  1  0  0  0  0
 20 15  1  0  0  0  0
 21 14  1  0  0  0  0
 21 23  1  0  0  0  0
 22 21  1  0  0  0  0
M  END
>  <minimizedAffinity>
-4.9461503

$$$$

 OpenBabel03242515513D

 23 25  0  0  0  0  0  0  0  0999 V2000
   38.7060   29.3150   39.1960 C   0  0  0  0  0  3  0  0  0  0  0  0
   39.3260   30.3680   39.8250 C   0  0  0  0  0  0  0  0  0  0  0  0
   39.2280   30.5620   41.1880 C   0  0  0  0  0  0  0  0  0  0  0  0
   39.7280   31.4070   41.6760 H   0  0  0  0  0  0  0  0  0  0  0  0
   38.5030   29.7080   41.9820 C   0  0  0  0  0  0  0  0  0  0  0  0
   38.2160   29.6170   43.2980 N   0  0  0  0  0  0  0  0  0  0  0  0
   38.5980   30.3320   43.9600 H   0  0  0  0  0  0  0  0  0  0  0  0
   37.4370   28.5570   43.5770 C   0  0  0  0  0  0  0  0  0  0  0  0
   37.0780   28.2830   44.5710 H   0  0  0  0  0  0  0  0  0  0  0  0
   37.2140   27.9330   42.3580 C   0  0  0  0  0  3  0  0  0  0  0  0
   37.8730   28.6470   41.3780 C   0  0  0  0  0  0  0  0  0  0  0  0
   37.9840   28.4710   40.0130 C   0  0  0  0  0  3  0  0  0  0  0  0
   41.3760   31.8950   37.1830 C   0  0  0  0  0  0  0  0  0  0  0  0
   41.5770   33.1950   37.6760 C   0  0  0  0  0  0  0  0  0  0  0  0
   41.0090   33.5230   38.8980 C   0  0  0  0  0  0  0  0  0  0  0  0
   40.2990   32.5730   39.5400 N   0  0  0  0  0  0  0  0  0  0  0  0
   40.1190   31.3220   39.0420 C   0  0  0  0  0  0  0  0  0  0  0  0
   40.6560   30.9760   37.8610 N   0  0  0  0  0  0  0  0  0  0  0  0
   41.8020   31.5960   36.2310 H   0  0  0  0  0  0  0  0  0  0  0  0
   41.1720   34.5160   39.2580 H   0  0  0  0  0  0  0  0  0  0  0  0
   42.3560   34.0720   36.8650 N   0  0  0  0  0  0  0  0  0  0  0  0
   43.3170   33.9210   36.5440 H   0  0  0  0  0  0  0  0  0  0  0  0
   41.7890   34.9320   36.6260 H   0  0  0  0  0  0  0  0  0  0  0  0
  1  2  2  0  0  0  0
  1 12  1  0  0  0  0
  2  3  1  0  0  0  0
  3  4  1  0  0  0  0
  3  5  2  0  0  0  0
  5  6  1  0  0  0  0
  6  8  1  0  0  0  0
  6  7  1  0  0  0  0
  8  9  1  0  0  0  0
 10  8  2  0  0  0  0
 11  5  1  0  0  0  0
 11 10  1  0  0  0  0
 12 11  2  0  0  0  0
 13 14  2  0  0  0  0
 13 18  1  0  0  0  0
 14 15  1  0  0  0  0
 15 20  1  0  0  0  0
 15 16  2  0  0  0  0
 17 16  1  0  0  0  0
 17  2  1  0  0  0  0
 18 17  2  0  0  0  0
 19 13  1  0  0  0  0
 21 14  1  0  0  0  0
 22 21  1  0  0  0  0
 23 21  1  0  0  0  0
M  END
>  <minimizedAffinity>
-4.91925049

$$$$

 OpenBabel03242515513D

 23 25  0  0  0  0  0  0  0  0999 V2000
   36.6330   29.9100   40.0370 C   0  0  0  0  0  3  0  0  0  0  0  0
   37.6430   29.5200   40.8840 C   0  0  0  0  0  0  0  0  0  0  0  0
   38.5810   30.4140   41.3590 C   0  0  0  0  0  0  0  0  0  0  0  0
   39.3800   30.0880   42.0340 H   0  0  0  0  0  0  0  0  0  0  0  0
   38.5470   31.7400   41.0070 C   0  0  0  0  0  0  0  0  0  0  0  0
   39.2860   32.8360   41.2860 N   0  0  0  0  0  0  0  0  0  0  0  0
   40.1130   32.7520   41.9210 H   0  0  0  0  0  0  0  0  0  0  0  0
   38.8190   33.9350   40.6680 C   0  0  0  0  0  0  0  0  0  0  0  0
   39.2540   34.9340   40.7440 H   0  0  0  0  0  0  0  0  0  0  0  0
   37.7110   33.5110   39.9490 C   0  0  0  0  0  3  0  0  0  0  0  0
   37.5480   32.1570   40.1620 C   0  0  0  0  0  0  0  0  0  0  0  0
   36.6200   31.2460   39.6970 C   0  0  0  0  0  3  0  0  0  0  0  0
   37.3000   25.8620   41.0190 C   0  0  0  0  0  0  0  0  0  0  0  0
   38.0020   25.5410   42.1930 C   0  0  0  0  0  0  0  0  0  0  0  0
   38.5770   26.5770   42.9130 C   0  0  0  0  0  0  0  0  0  0  0  0
   38.4270   27.8330   42.4420 N   0  0  0  0  0  0  0  0  0  0  0  0
   37.7430   28.1180   41.3040 C   0  0  0  0  0  0  0  0  0  0  0  0
   37.1750   27.1350   40.5860 N   0  0  0  0  0  0  0  0  0  0  0  0
   36.8340   25.0830   40.4260 H   0  0  0  0  0  0  0  0  0  0  0  0
   39.1070   26.3140   43.8020 H   0  0  0  0  0  0  0  0  0  0  0  0
   38.0610   24.1600   42.5430 N   0  0  0  0  0  0  0  0  0  0  0  0
   37.2680   23.5330   42.7080 H   0  0  0  0  0  0  0  0  0  0  0  0
   39.0710   23.8530   42.6100 H   0  0  0  0  0  0  0  0  0  0  0  0
  1  2  1  0  0  0  0
  2 17  1  0  0  0  0
  2  3  2  0  0  0  0
  3  4  1  0  0  0  0
  5  6  1  0  0  0  0
  5  3  1  0  0  0  0
  6  7  1  0  0  0  0
  8  9  1  0  0  0  0
  8  6  1  0  0  0  0
 10 11  1  0  0  0  0
 10  8  2  0  0  0  0
 11  5  2  0  0  0  0
 12  1  2  0  0  0  0
 12 11  1  0  0  0  0
 13 14  1  0  0  0  0
 14 21  1  0  0  0  0
 14 15  2  0  0  0  0
 15 20  1  0  0  0  0
 16 15  1  0  0  0  0
 17 16  2  0  0  0  0
 18 13  2  0  0  0  0
 18 17  1  0  0  0  0
 19 13  1  0  0  0  0
 21 23  1  0  0  0  0
 21 22  1  0  0  0  0
M  END
>  <minimizedAffinity>
-4.79592896

$$$$

 OpenBabel03242515513D

 23 25  0  0  0  0  0  0  0  0999 V2000
   40.3510   28.5130   42.6440 C   0  0  0  0  0  3  0  0  0  0  0  0
   39.6920   29.6550   42.2590 C   0  0  0  0  0  0  0  0  0  0  0  0
   40.2820   30.9000   42.3430 C   0  0  0  0  0  0  0  0  0  0  0  0
   39.7430   31.8030   42.0320 H   0  0  0  0  0  0  0  0  0  0  0  0
   41.5610   31.0550   42.8170 C   0  0  0  0  0  0  0  0  0  0  0  0
   42.4000   32.0930   43.0210 N   0  0  0  0  0  0  0  0  0  0  0  0
   42.0860   33.0630   42.7880 H   0  0  0  0  0  0  0  0  0  0  0  0
   43.5840   31.6990   43.5210 C   0  0  0  0  0  0  0  0  0  0  0  0
   44.4170   32.3620   43.7660 H   0  0  0  0  0  0  0  0  0  0  0  0
   43.4920   30.3200   43.6440 C   0  0  0  0  0  3  0  0  0  0  0  0
   42.2430   29.9280   43.2080 C   0  0  0  0  0  0  0  0  0  0  0  0
   41.6340   28.6930   43.1160 C   0  0  0  0  0  3  0  0  0  0  0  0
   36.4280   28.3680   41.1610 C   0  0  0  0  0  0  0  0  0  0  0  0
   35.7650   29.5410   40.7620 C   0  0  0  0  0  0  0  0  0  0  0  0
   36.4440   30.7440   40.8760 C   0  0  0  0  0  0  0  0  0  0  0  0
   37.7010   30.7160   41.3630 N   0  0  0  0  0  0  0  0  0  0  0  0
   38.3220   29.5690   41.7420 C   0  0  0  0  0  0  0  0  0  0  0  0
   37.6890   28.3880   41.6430 N   0  0  0  0  0  0  0  0  0  0  0  0
   35.9340   27.4050   41.0890 H   0  0  0  0  0  0  0  0  0  0  0  0
   35.9240   31.6250   40.5680 H   0  0  0  0  0  0  0  0  0  0  0  0
   34.4350   29.3850   40.2700 N   0  0  0  0  0  0  0  0  0  0  0  0
   34.1360   28.8080   39.4780 H   0  0  0  0  0  0  0  0  0  0  0  0
   33.7700   29.9640   40.8540 H   0  0  0  0  0  0  0  0  0  0  0  0
  1 12  1  0  0  0  0
  2  3  1  0  0  0  0
  2  1  2  0  0  0  0
  3  5  2  0  0  0  0
  4  3  1  0  0  0  0
  5  6  1  0  0  0  0
  5 11  1  0  0  0  0
  6  8  1  0  0  0  0
  7  6  1  0  0  0  0
  8 10  2  0  0  0  0
  8  9  1  0  0  0  0
 11 10  1  0  0  0  0
 12 11  2  0  0  0  0
 13 18  1  0  0  0  0
 14 15  1  0  0  0  0
 14 13  2  0  0  0  0
 15 16  2  0  0  0  0
 16 17  1  0  0  0  0
 17  2  1  0  0  0  0
 18 17  2  0  0  0  0
 19 13  1  0  0  0  0
 20 15  1  0  0  0  0
 21 14  1  0  0  0  0
 21 23  1  0  0  0  0
 22 21  1  0  0  0  0
M  END
>  <minimizedAffinity>
-4.74947214

$$$$

 OpenBabel03242515513D

 23 25  0  0  0  0  0  0  0  0999 V2000
   38.1600   31.5120   40.6460 C   0  0  0  0  0  3  0  0  0  0  0  0
   39.4580   31.1530   40.3750 C   0  0  0  0  0  0  0  0  0  0  0  0
   40.0490   30.0540   40.9650 C   0  0  0  0  0  0  0  0  0  0  0  0
   41.0860   29.7800   40.7390 H   0  0  0  0  0  0  0  0  0  0  0  0
   39.3630   29.2640   41.8540 C   0  0  0  0  0  0  0  0  0  0  0  0
   39.6360   28.1590   42.5820 N   0  0  0  0  0  0  0  0  0  0  0  0
   40.5840   27.7220   42.5170 H   0  0  0  0  0  0  0  0  0  0  0  0
   38.5850   27.7650   43.3220 C   0  0  0  0  0  0  0  0  0  0  0  0
   38.5730   26.8990   43.9880 H   0  0  0  0  0  0  0  0  0  0  0  0
   37.5780   28.6790   43.0480 C   0  0  0  0  0  3  0  0  0  0  0  0
   38.0620   29.6010   42.1430 C   0  0  0  0  0  0  0  0  0  0  0  0
   37.4910   30.7040   41.5420 C   0  0  0  0  0  3  0  0  0  0  0  0
   41.4470   33.8520   38.8680 C   0  0  0  0  0  0  0  0  0  0  0  0
   41.7320   33.3350   37.5920 C   0  0  0  0  0  0  0  0  0  0  0  0
   41.2390   32.0790   37.2730 C   0  0  0  0  0  0  0  0  0  0  0  0
   40.5160   31.4290   38.2080 N   0  0  0  0  0  0  0  0  0  0  0  0
   40.2550   31.9490   39.4350 C   0  0  0  0  0  0  0  0  0  0  0  0
   40.7190   33.1630   39.7720 N   0  0  0  0  0  0  0  0  0  0  0  0
   41.8130   34.8310   39.1590 H   0  0  0  0  0  0  0  0  0  0  0  0
   41.4650   31.7020   36.2990 H   0  0  0  0  0  0  0  0  0  0  0  0
   42.5110   34.1610   36.7290 N   0  0  0  0  0  0  0  0  0  0  0  0
   42.2880   35.1120   36.4210 H   0  0  0  0  0  0  0  0  0  0  0  0
   43.3860   33.6440   36.4380 H   0  0  0  0  0  0  0  0  0  0  0  0
  1 12  1  0  0  0  0
  2  1  2  0  0  0  0
  2  3  1  0  0  0  0
  3  5  2  0  0  0  0
  4  3  1  0  0  0  0
  5 11  1  0  0  0  0
  5  6  1  0  0  0  0
  6  8  1  0  0  0  0
  7  6  1  0  0  0  0
  8  9  1  0  0  0  0
 10  8  2  0  0  0  0
 11 10  1  0  0  0  0
 12 11  2  0  0  0  0
 13 19  1  0  0  0  0
 13 18  1  0  0  0  0
 14 13  2  0  0  0  0
 15 14  1  0  0  0  0
 15 16  2  0  0  0  0
 16 17  1  0  0  0  0
 17 18  2  0  0  0  0
 17  2  1  0  0  0  0
 20 15  1  0  0  0  0
 21 14  1  0  0  0  0
 22 21  1  0  0  0  0
 23 21  1  0  0  0  0
M  END
>  <minimizedAffinity>
-4.74113941

$$$$

 OpenBabel03242515513D

 23 25  0  0  0  0  0  0  0  0999 V2000
   39.6300   30.3420   41.6450 C   0  0  0  0  0  3  0  0  0  0  0  0
   38.3960   29.8520   41.2900 C   0  0  0  0  0  0  0  0  0  0  0  0
   37.4370   30.6520   40.7020 C   0  0  0  0  0  0  0  0  0  0  0  0
   36.4570   30.2470   40.4250 H   0  0  0  0  0  0  0  0  0  0  0  0
   37.6740   31.9790   40.4420 C   0  0  0  0  0  0  0  0  0  0  0  0
   36.9770   33.0000   39.8980 N   0  0  0  0  0  0  0  0  0  0  0  0
   36.0010   32.8340   39.5580 H   0  0  0  0  0  0  0  0  0  0  0  0
   37.6850   34.1430   39.8710 C   0  0  0  0  0  0  0  0  0  0  0  0
   37.3270   35.0960   39.4780 H   0  0  0  0  0  0  0  0  0  0  0  0
   38.9120   33.8280   40.4360 C   0  0  0  0  0  3  0  0  0  0  0  0
   38.9000   32.4940   40.7860 C   0  0  0  0  0  0  0  0  0  0  0  0
   39.8450   31.6770   41.3740 C   0  0  0  0  0  3  0  0  0  0  0  0
   38.1810   26.5130   42.8130 C   0  0  0  0  0  0  0  0  0  0  0  0
   37.3920   25.8130   41.8840 C   0  0  0  0  0  0  0  0  0  0  0  0
   36.9520   26.4940   40.7590 C   0  0  0  0  0  0  0  0  0  0  0  0
   37.3070   27.7880   40.6250 N   0  0  0  0  0  0  0  0  0  0  0  0
   38.0700   28.4440   41.5370 C   0  0  0  0  0  0  0  0  0  0  0  0
   38.5120   27.8110   42.6360 N   0  0  0  0  0  0  0  0  0  0  0  0
   38.5470   26.0200   43.7070 H   0  0  0  0  0  0  0  0  0  0  0  0
   36.3540   25.9450   40.0640 H   0  0  0  0  0  0  0  0  0  0  0  0
   37.1140   24.4480   42.1860 N   0  0  0  0  0  0  0  0  0  0  0  0
   37.7960   23.7010   42.3440 H   0  0  0  0  0  0  0  0  0  0  0  0
   36.0670   24.3000   42.2300 H   0  0  0  0  0  0  0  0  0  0  0  0
  2 17  1  0  0  0  0
  2  1  2  0  0  0  0
  3  2  1  0  0  0  0
  4  3  1  0  0  0  0
  5  3  2  0  0  0  0
  5 11  1  0  0  0  0
  6  5  1  0  0  0  0
  7  6  1  0  0  0  0
  8  6  1  0  0  0  0
  8 10  2  0  0  0  0
  9  8  1  0  0  0  0
 10 11  1  0  0  0  0
 11 12  2  0  0  0  0
 12  1  1  0  0  0  0
 13 19  1  0  0  0  0
 14 21  1  0  0  0  0
 14 13  2  0  0  0  0
 15 14  1  0  0  0  0
 16 15  2  0  0  0  0
 16 17  1  0  0  0  0
 17 18  2  0  0  0  0
 18 13  1  0  0  0  0
 20 15  1  0  0  0  0
 21 23  1  0  0  0  0
 21 22  1  0  0  0  0
M  END
>  <minimizedAffinity>
-4.67357063

$$$$

 OpenBabel03242515513D

 23 25  0  0  0  0  0  0  0  0999 V2000
   36.1860   27.0310   38.8560 C   0  0  0  0  0  3  0  0  0  0  0  0
   36.8220   27.6820   39.8860 C   0  0  0  0  0  0  0  0  0  0  0  0
   37.4490   26.9940   40.9050 C   0  0  0  0  0  0  0  0  0  0  0  0
   37.9520   27.5270   41.7200 H   0  0  0  0  0  0  0  0  0  0  0  0
   37.4670   25.6210   40.9360 C   0  0  0  0  0  0  0  0  0  0  0  0
   37.9720   24.6760   41.7580 N   0  0  0  0  0  0  0  0  0  0  0  0
   38.5000   24.9670   42.6130 H   0  0  0  0  0  0  0  0  0  0  0  0
   37.7060   23.4310   41.3270 C   0  0  0  0  0  0  0  0  0  0  0  0
   38.0130   22.5110   41.8280 H   0  0  0  0  0  0  0  0  0  0  0  0
   36.9830   23.5940   40.1540 C   0  0  0  0  0  3  0  0  0  0  0  0
   36.8390   24.9460   39.9170 C   0  0  0  0  0  0  0  0  0  0  0  0
   36.2170   25.6540   38.9080 C   0  0  0  0  0  3  0  0  0  0  0  0
   36.5760   31.1710   41.0180 C   0  0  0  0  0  0  0  0  0  0  0  0
   36.9250   31.8850   39.8590 C   0  0  0  0  0  0  0  0  0  0  0  0
   37.2350   31.1620   38.7170 C   0  0  0  0  0  0  0  0  0  0  0  0
   37.1840   29.8160   38.7880 N   0  0  0  0  0  0  0  0  0  0  0  0
   36.8450   29.1480   39.9210 C   0  0  0  0  0  0  0  0  0  0  0  0
   36.5390   29.8210   41.0420 N   0  0  0  0  0  0  0  0  0  0  0  0
   36.3260   31.6960   41.9340 H   0  0  0  0  0  0  0  0  0  0  0  0
   37.4980   31.7220   37.8460 H   0  0  0  0  0  0  0  0  0  0  0  0
   36.9270   33.3070   39.9630 N   0  0  0  0  0  0  0  0  0  0  0  0
   36.1410   33.9050   40.2350 H   0  0  0  0  0  0  0  0  0  0  0  0
   37.8850   33.6800   39.7150 H   0  0  0  0  0  0  0  0  0  0  0  0
  1 12  2  0  0  0  0
  1  2  1  0  0  0  0
  2 17  1  0  0  0  0
  2  3  2  0  0  0  0
  3  5  1  0  0  0  0
  3  4  1  0  0  0  0
  5  6  1  0  0  0  0
  6  7  1  0  0  0  0
  8  6  1  0  0  0  0
  8  9  1  0  0  0  0
 10  8  2  0  0  0  0
 11 10  1  0  0  0  0
 11  5  2  0  0  0  0
 12 11  1  0  0  0  0
 13 18  1  0  0  0  0
 13 19  1  0  0  0  0
 14 21  1  0  0  0  0
 14 13  2  0  0  0  0
 15 16  2  0  0  0  0
 15 14  1  0  0  0  0
 16 17  1  0  0  0  0
 17 18  2  0  0  0  0
 20 15  1  0  0  0  0
 21 22  1  0  0  0  0
 23 21  1  0  0  0  0
M  END
>  <minimizedAffinity>
-4.66060495

$$$$

 OpenBabel03242515513D

 23 25  0  0  0  0  0  0  0  0999 V2000
   40.9770   31.9020   37.6190 C   0  0  0  0  0  3  0  0  0  0  0  0
   40.7000   32.3080   38.9020 C   0  0  0  0  0  0  0  0  0  0  0  0
   41.6040   33.0400   39.6450 C   0  0  0  0  0  0  0  0  0  0  0  0
   41.3690   33.3570   40.6680 H   0  0  0  0  0  0  0  0  0  0  0  0
   42.8260   33.4000   39.1330 C   0  0  0  0  0  0  0  0  0  0  0  0
   43.9000   34.0880   39.5780 N   0  0  0  0  0  0  0  0  0  0  0  0
   43.8910   34.4870   40.5450 H   0  0  0  0  0  0  0  0  0  0  0  0
   44.8750   34.1610   38.6560 C   0  0  0  0  0  0  0  0  0  0  0  0
   45.8340   34.6660   38.7920 H   0  0  0  0  0  0  0  0  0  0  0  0
   44.3910   33.4740   37.5520 C   0  0  0  0  0  3  0  0  0  0  0  0
   43.1270   33.0070   37.8520 C   0  0  0  0  0  0  0  0  0  0  0  0
   42.2090   32.2750   37.1260 C   0  0  0  0  0  3  0  0  0  0  0  0
   38.1460   30.9400   41.1650 C   0  0  0  0  0  0  0  0  0  0  0  0
   36.9530   31.3820   40.5680 C   0  0  0  0  0  0  0  0  0  0  0  0
   37.0450   32.1350   39.4080 C   0  0  0  0  0  0  0  0  0  0  0  0
   38.2750   32.3990   38.9230 N   0  0  0  0  0  0  0  0  0  0  0  0
   39.4140   31.9610   39.5170 C   0  0  0  0  0  0  0  0  0  0  0  0
   39.3570   31.2290   40.6420 N   0  0  0  0  0  0  0  0  0  0  0  0
   38.1210   30.3480   42.0730 H   0  0  0  0  0  0  0  0  0  0  0  0
   36.1270   32.4630   38.9690 H   0  0  0  0  0  0  0  0  0  0  0  0
   35.7400   31.0090   41.2190 N   0  0  0  0  0  0  0  0  0  0  0  0
   35.4200   30.0590   41.4260 H   0  0  0  0  0  0  0  0  0  0  0  0
   35.1910   31.8770   41.4710 H   0  0  0  0  0  0  0  0  0  0  0  0
  1  2  1  0  0  0  0
  2 17  1  0  0  0  0
  2  3  2  0  0  0  0
  3  4  1  0  0  0  0
  5  6  1  0  0  0  0
  5  3  1  0  0  0  0
  6  7  1  0  0  0  0
  8  9  1  0  0  0  0
  8  6  1  0  0  0  0
 10 11  1  0  0  0  0
 10  8  2  0  0  0  0
 11  5  2  0  0  0  0
 12  1  2  0  0  0  0
 12 11  1  0  0  0  0
 13 19  1  0  0  0  0
 14 13  2  0  0  0  0
 14 21  1  0  0  0  0
 15 14  1  0  0  0  0
 16 15  2  0  0  0  0
 16 17  1  0  0  0  0
 17 18  2  0  0  0  0
 18 13  1  0  0  0  0
 20 15  1  0  0  0  0
 21 22  1  0  0  0  0
 21 23  1  0  0  0  0
M  END
>  <minimizedAffinity>
-4.61534452

$$$$
