
 OpenBabel03242512333D

 23 25  0  0  0  0  0  0  0  0999 V2000
   46.3050   33.6840   40.1810 C   0  0  0  0  0  0  0  0  0  0  0  0
   47.4440   34.4280   40.4760 C   0  0  0  0  0  0  0  0  0  0  0  0
   48.4100   34.5520   39.4990 C   0  0  0  0  0  0  0  0  0  0  0  0
   49.2990   35.1240   39.7080 H   0  0  0  0  0  0  0  0  0  0  0  0
   48.3390   33.9910   38.2390 C   0  0  0  0  0  0  0  0  0  0  0  0
   49.1520   33.9910   37.1690 N   0  0  0  0  0  0  0  0  0  0  0  0
   50.0850   34.4960   37.1550 H   0  0  0  0  0  0  0  0  0  0  0  0
   48.5780   33.2720   36.1930 C   0  0  0  0  0  0  0  0  0  0  0  0
   49.0200   33.1100   35.2150 H   0  0  0  0  0  0  0  0  0  0  0  0
   47.3560   32.8020   36.6670 C   0  0  0  0  0  0  0  0  0  0  0  0
   47.1950   33.2540   37.9670 C   0  0  0  0  0  0  0  0  0  0  0  0
   46.2060   33.1050   38.9140 C   0  0  0  0  0  0  0  0  0  0  0  0
   47.6870   35.0970   41.7710 C   0  0  0  0  0  0  0  0  0  0  0  0
   48.6970   35.8470   41.7700 O   0  0  0  0  0  0  0  0  0  0  0  0
   46.7990   34.8520   42.8720 C   0  0  0  0  0  0  0  0  0  0  0  0
   45.6890   35.6890   42.9620 C   0  0  0  0  0  0  0  0  0  0  0  0
   44.8200   35.4450   44.0450 C   0  0  0  0  0  0  0  0  0  0  0  0
   45.1100   34.4310   44.9170 N   0  0  0  0  0  0  0  0  0  0  0  0
   46.1980   33.6640   44.7710 C   0  0  0  0  0  0  0  0  0  0  0  0
   47.0430   33.8770   43.7450 N   0  0  0  0  0  0  0  0  0  0  0  0
   45.4190   36.4950   42.3040 H   0  0  0  0  0  0  0  0  0  0  0  0
   43.9350   36.0540   44.1820 H   0  0  0  0  0  0  0  0  0  0  0  0
   46.4670   32.8530   45.4350 H   0  0  0  0  0  0  0  0  0  0  0  0
  1  2  1  0  0  0  0
  2 13  1  0  0  0  0
  3  4  1  0  0  0  0
  3  2  2  0  0  0  0
  5  3  1  0  0  0  0
  6  5  1  0  0  0  0
  7  6  1  0  0  0  0
  8 10  2  0  0  0  0
  8  6  1  0  0  0  0
  9  8  1  0  0  0  0
 10 11  1  0  0  0  0
 11  5  2  0  0  0  0
 11 12  1  0  0  0  0
 12  1  2  0  0  0  0
 13 15  1  0  0  0  0
 14 13  2  0  0  0  0
 15 16  2  0  0  0  0
 15 20  1  0  0  0  0
 16 17  1  0  0  0  0
 17 22  1  0  0  0  0
 17 18  2  0  0  0  0
 19 18  1  0  0  0  0
 19 23  1  0  0  0  0
 20 19  2  0  0  0  0
 21 16  1  0  0  0  0
M  END
>  <minimizedAffinity>
-5.29833937

>  <minimizedRMSD>
2.49981475

$$$$
