
 OpenBabel03252502503D

 37 40  0  0  0  0  0  0  0  0999 V2000
   44.6750   36.0800   44.0200 C   0  0  0  0  0  0  0  0  0  0  0  0
   44.9120   35.2530   45.1250 C   0  0  0  0  0  0  0  0  0  0  0  0
   45.6570   34.0840   44.9090 C   0  0  0  0  0  0  0  0  0  0  0  0
   46.0970   33.8270   43.6660 N   0  0  0  0  0  0  0  0  0  0  0  0
   45.8480   34.6570   42.6050 C   0  0  0  0  0  0  0  0  0  0  0  0
   45.1420   35.7720   42.7890 N   0  0  0  0  0  0  0  0  0  0  0  0
   44.0980   36.9940   44.1670 H   0  0  0  0  0  0  0  0  0  0  0  0
   44.5210   35.5320   46.0970 H   0  0  0  0  0  0  0  0  0  0  0  0
   48.5760   35.7000   41.9870 Cl  0  0  0  0  0  0  0  0  0  0  0  0
   47.6090   34.7250   40.9050 C   0  0  0  0  0  0  0  0  0  0  0  0
   46.3690   34.2950   41.2780 C   0  0  0  0  0  0  0  0  0  0  0  0
   45.5730   33.5160   40.4350 C   0  0  0  0  0  0  0  0  0  0  0  0
   46.1200   33.2130   39.2110 C   0  0  0  0  0  0  0  0  0  0  0  0
   47.3650   33.6420   38.8280 C   0  0  0  0  0  0  0  0  0  0  0  0
   48.1300   34.4050   39.6680 C   0  0  0  0  0  0  0  0  0  0  0  0
   44.5980   33.1820   40.7410 H   0  0  0  0  0  0  0  0  0  0  0  0
   45.5250   32.6070   38.5310 H   0  0  0  0  0  0  0  0  0  0  0  0
   47.8140   33.4140   37.8660 H   0  0  0  0  0  0  0  0  0  0  0  0
   49.1150   34.7630   39.4050 H   0  0  0  0  0  0  0  0  0  0  0  0
   45.9050   33.2140   46.0780 C   0  0  0  0  0  0  0  0  0  0  0  0
   46.8410   33.5660   46.5680 H   0  0  0  0  0  0  0  0  0  0  0  0
   45.0850   33.3920   46.7740 H   0  0  0  0  0  0  0  0  0  0  0  0
   46.0940   31.7790   45.6900 C   0  0  0  0  0  0  0  0  0  0  0  0
   45.0770   31.3030   45.7540 H   0  0  0  0  0  0  0  0  0  0  0  0
   46.3400   31.7600   44.6070 H   0  0  0  0  0  0  0  0  0  0  0  0
   47.8750   29.9970   45.9730 C   0  0  0  0  0  0  0  0  0  0  0  0
   47.1100   31.0600   46.4320 C   0  0  0  0  0  0  0  0  0  0  0  0
   47.3730   31.4460   47.7410 C   0  0  0  0  0  0  0  0  0  0  0  0
   46.8020   32.2850   48.1710 H   0  0  0  0  0  0  0  0  0  0  0  0
   48.3170   30.8520   48.5730 C   0  0  0  0  0  0  0  0  0  0  0  0
   48.6710   31.1200   49.8430 N   0  0  0  0  0  0  0  0  0  0  0  0
   48.2630   31.8760   50.4520 H   0  0  0  0  0  0  0  0  0  0  0  0
   49.6300   30.2540   50.1770 C   0  0  0  0  0  0  0  0  0  0  0  0
   50.0920   30.2600   51.1600 H   0  0  0  0  0  0  0  0  0  0  0  0
   49.8820   29.4270   49.0950 C   0  0  0  0  0  0  0  0  0  0  0  0
   49.0500   29.7930   48.0540 C   0  0  0  0  0  0  0  0  0  0  0  0
   48.8200   29.3840   46.7710 C   0  0  0  0  0  0  0  0  0  0  0  0
  1  7  1  0  0  0  0
  1  2  1  0  0  0  0
  2  8  1  0  0  0  0
  3  2  2  0  0  0  0
  3 20  1  0  0  0  0
  4  3  1  0  0  0  0
  5  6  1  0  0  0  0
  5  4  2  0  0  0  0
  6  1  2  0  0  0  0
 10 11  1  0  0  0  0
 10  9  1  0  0  0  0
 11  5  1  0  0  0  0
 12 16  1  0  0  0  0
 12 11  2  0  0  0  0
 13 12  1  0  0  0  0
 14 13  2  0  0  0  0
 14 15  1  0  0  0  0
 15 10  2  0  0  0  0
 17 13  1  0  0  0  0
 18 14  1  0  0  0  0
 19 15  1  0  0  0  0
 20 21  1  0  0  0  0
 20 22  1  0  0  0  0
 23 24  1  0  0  0  0
 23 20  1  0  0  0  0
 23 27  1  0  0  0  0
 25 23  1  0  0  0  0
 26 27  2  0  0  0  0
 26 37  1  0  0  0  0
 27 28  1  0  0  0  0
 28 29  1  0  0  0  0
 28 30  2  0  0  0  0
 30 31  1  0  0  0  0
 31 33  1  0  0  0  0
 31 32  1  0  0  0  0
 33 34  1  0  0  0  0
 35 33  2  0  0  0  0
 36 30  1  0  0  0  0
 36 35  1  0  0  0  0
 37 36  2  0  0  0  0
M  END
>  <minimizedAffinity>
-6.50248241

>  <minimizedRMSD>
1.04347646

$$$$
