
 OpenBabel03242514313D

 41 45  0  0  0  0  0  0  0  0999 V2000
   39.7620   32.8590   41.1830 Cl  0  0  0  0  0  0  0  0  0  0  0  0
   40.5180   33.0470   39.6100 C   0  0  0  0  0  0  0  0  0  0  0  0
   40.1270   32.2540   38.5850 C   0  0  0  0  0  0  0  0  0  0  0  0
   40.8730   32.3990   37.4290 C   0  0  0  0  0  0  0  0  0  0  0  0
   41.9350   33.2620   37.2650 C   0  0  0  0  0  0  0  0  0  0  0  0
   42.2950   34.0600   38.3390 C   0  0  0  0  0  0  0  0  0  0  0  0
   41.5710   33.9410   39.5190 C   0  0  0  0  0  0  0  0  0  0  0  0
   40.5270   31.7330   36.6160 H   0  0  0  0  0  0  0  0  0  0  0  0
   42.3610   33.2040   36.2850 H   0  0  0  0  0  0  0  0  0  0  0  0
   43.1260   34.7130   38.1540 H   0  0  0  0  0  0  0  0  0  0  0  0
   41.3100   35.9780   40.8610 C   0  0  0  0  0  3  0  0  0  0  0  0
   41.9790   34.7950   40.6290 C   0  0  0  0  0  0  0  0  0  0  0  0
   43.0280   34.4270   41.4480 C   0  0  0  0  0  0  0  0  0  0  0  0
   43.5760   33.5060   41.2950 H   0  0  0  0  0  0  0  0  0  0  0  0
   43.3490   35.2920   42.4750 C   0  0  0  0  0  0  0  0  0  0  0  0
   44.3140   35.2140   43.4340 N   0  0  0  0  0  0  0  0  0  0  0  0
   44.9990   34.4450   43.5480 H   0  0  0  0  0  0  0  0  0  0  0  0
   44.2730   36.2900   44.2450 C   0  0  0  0  0  0  0  0  0  0  0  0
   44.9000   36.5120   45.0860 H   0  0  0  0  0  0  0  0  0  0  0  0
   43.2530   37.1170   43.8230 C   0  0  0  0  0  3  0  0  0  0  0  0
   42.6970   36.4820   42.7300 C   0  0  0  0  0  0  0  0  0  0  0  0
   41.6520   36.8340   41.9030 C   0  0  0  0  0  3  0  0  0  0  0  0
   36.7220   30.7480   38.3020 C   0  0  0  0  0  0  0  0  0  0  0  0
   37.7940   31.6330   38.1070 C   0  0  0  0  0  0  0  0  0  0  0  0
   39.0140   31.3530   38.7080 C   0  0  0  0  0  0  0  0  0  0  0  0
   39.0970   30.2230   39.4490 N   0  0  0  0  0  0  0  0  0  0  0  0
   38.0690   29.3770   39.6270 C   0  0  0  0  0  0  0  0  0  0  0  0
   36.8780   29.6380   39.0590 N   0  0  0  0  0  0  0  0  0  0  0  0
   35.7210   30.8390   37.9050 H   0  0  0  0  0  0  0  0  0  0  0  0
   37.4510   32.3760   37.4620 H   0  0  0  0  0  0  0  0  0  0  0  0
   38.0840   29.6230   42.6750 Cl  0  0  0  0  0  0  0  0  0  0  0  0
   38.2550   28.1380   41.7680 C   0  0  0  0  0  0  0  0  0  0  0  0
   38.2310   28.1440   40.3720 C   0  0  0  0  0  0  0  0  0  0  0  0
   38.3660   26.9360   39.7780 C   0  0  0  0  0  0  0  0  0  0  0  0
   38.5210   25.7400   40.4650 C   0  0  0  0  0  0  0  0  0  0  0  0
   38.5400   25.7630   41.8340 C   0  0  0  0  0  0  0  0  0  0  0  0
   38.7380   24.1910   42.5850 Cl  0  0  0  0  0  0  0  0  0  0  0  0
   38.4080   26.9510   42.4850 C   0  0  0  0  0  0  0  0  0  0  0  0
   38.3500   26.9240   38.6920 H   0  0  0  0  0  0  0  0  0  0  0  0
   38.6180   24.8450   39.8620 H   0  0  0  0  0  0  0  0  0  0  0  0
   38.4300   26.9220   43.5640 H   0  0  0  0  0  0  0  0  0  0  0  0
  2  1  1  0  0  0  0
  3 25  1  0  0  0  0
  3  2  2  0  0  0  0
  4  3  1  0  0  0  0
  5  4  2  0  0  0  0
  5  6  1  0  0  0  0
  6  7  2  0  0  0  0
  7  2  1  0  0  0  0
  7 12  1  0  0  0  0
  8  4  1  0  0  0  0
  9  5  1  0  0  0  0
 10  6  1  0  0  0  0
 11 22  1  0  0  0  0
 12 11  2  0  0  0  0
 12 13  1  0  0  0  0
 13 15  2  0  0  0  0
 14 13  1  0  0  0  0
 15 21  1  0  0  0  0
 15 16  1  0  0  0  0
 16 17  1  0  0  0  0
 16 18  1  0  0  0  0
 18 19  1  0  0  0  0
 20 18  2  0  0  0  0
 21 20  1  0  0  0  0
 22 21  2  0  0  0  0
 23 28  1  0  0  0  0
 24 23  2  0  0  0  0
 24 25  1  0  0  0  0
 25 26  2  0  0  0  0
 26 27  1  0  0  0  0
 27 33  1  0  0  0  0
 28 27  2  0  0  0  0
 29 23  1  0  0  0  0
 30 24  1  0  0  0  0
 32 38  1  0  0  0  0
 32 31  1  0  0  0  0
 33 32  2  0  0  0  0
 34 33  1  0  0  0  0
 34 35  2  0  0  0  0
 35 36  1  0  0  0  0
 36 38  2  0  0  0  0
 36 37  1  0  0  0  0
 38 41  1  0  0  0  0
 39 34  1  0  0  0  0
 40 35  1  0  0  0  0
M  END
>  <minimizedAffinity>
-7.794765

$$$$

 OpenBabel03242514313D

 41 45  0  0  0  0  0  0  0  0999 V2000
   40.5530   29.8660   40.7600 Cl  0  0  0  0  0  0  0  0  0  0  0  0
   38.9460   30.5290   40.5200 C   0  0  0  0  0  0  0  0  0  0  0  0
   38.8090   31.8120   40.1120 C   0  0  0  0  0  0  0  0  0  0  0  0
   37.5040   32.2690   40.0770 C   0  0  0  0  0  0  0  0  0  0  0  0
   36.3890   31.5320   40.4120 C   0  0  0  0  0  0  0  0  0  0  0  0
   36.5760   30.2200   40.8180 C   0  0  0  0  0  0  0  0  0  0  0  0
   37.8730   29.7250   40.8690 C   0  0  0  0  0  0  0  0  0  0  0  0
   37.4330   33.3220   39.7420 H   0  0  0  0  0  0  0  0  0  0  0  0
   35.4830   32.0920   40.3090 H   0  0  0  0  0  0  0  0  0  0  0  0
   35.6740   29.6940   41.0650 H   0  0  0  0  0  0  0  0  0  0  0  0
   38.1560   28.0570   42.6450 C   0  0  0  0  0  3  0  0  0  0  0  0
   38.0320   28.3420   41.3010 C   0  0  0  0  0  0  0  0  0  0  0  0
   38.0600   27.3170   40.3760 C   0  0  0  0  0  0  0  0  0  0  0  0
   37.9660   27.5030   39.3140 H   0  0  0  0  0  0  0  0  0  0  0  0
   38.2150   26.0360   40.8700 C   0  0  0  0  0  0  0  0  0  0  0  0
   38.2790   24.8370   40.2270 N   0  0  0  0  0  0  0  0  0  0  0  0
   38.2190   24.6910   39.2020 H   0  0  0  0  0  0  0  0  0  0  0  0
   38.4370   23.8290   41.1060 C   0  0  0  0  0  0  0  0  0  0  0  0
   38.5190   22.7780   40.9050 H   0  0  0  0  0  0  0  0  0  0  0  0
   38.4790   24.3600   42.3790 C   0  0  0  0  0  3  0  0  0  0  0  0
   38.3410   25.7230   42.2090 C   0  0  0  0  0  0  0  0  0  0  0  0
   38.3100   26.7590   43.1190 C   0  0  0  0  0  3  0  0  0  0  0  0
   41.5270   33.4110   38.1110 C   0  0  0  0  0  0  0  0  0  0  0  0
   40.3810   32.6600   38.4180 C   0  0  0  0  0  0  0  0  0  0  0  0
   39.9440   32.6100   39.7350 C   0  0  0  0  0  0  0  0  0  0  0  0
   40.6550   33.3060   40.6520 N   0  0  0  0  0  0  0  0  0  0  0  0
   41.7470   34.0290   40.3520 C   0  0  0  0  0  0  0  0  0  0  0  0
   42.1890   34.0800   39.0820 N   0  0  0  0  0  0  0  0  0  0  0  0
   41.9840   33.5350   37.1390 H   0  0  0  0  0  0  0  0  0  0  0  0
   40.0250   32.2810   37.5150 H   0  0  0  0  0  0  0  0  0  0  0  0
   40.5120   36.7410   41.0350 Cl  0  0  0  0  0  0  0  0  0  0  0  0
   41.9580   36.0660   41.7500 C   0  0  0  0  0  0  0  0  0  0  0  0
   42.4310   34.8120   41.3610 C   0  0  0  0  0  0  0  0  0  0  0  0
   43.5540   34.3890   41.9860 C   0  0  0  0  0  0  0  0  0  0  0  0
   44.2290   35.1160   42.9570 C   0  0  0  0  0  0  0  0  0  0  0  0
   43.7420   36.3440   43.3200 C   0  0  0  0  0  0  0  0  0  0  0  0
   44.6800   37.1610   44.5560 Cl  0  0  0  0  0  0  0  0  0  0  0  0
   42.6150   36.8190   42.7230 C   0  0  0  0  0  0  0  0  0  0  0  0
   43.9360   33.4150   41.6950 H   0  0  0  0  0  0  0  0  0  0  0  0
   45.1160   34.6570   43.3760 H   0  0  0  0  0  0  0  0  0  0  0  0
   42.2680   37.7910   43.0400 H   0  0  0  0  0  0  0  0  0  0  0  0
  2  1  1  0  0  0  0
  2  7  1  0  0  0  0
  3  2  2  0  0  0  0
  4  3  1  0  0  0  0
  4  5  2  0  0  0  0
  5  6  1  0  0  0  0
  6  7  2  0  0  0  0
  6 10  1  0  0  0  0
  7 12  1  0  0  0  0
  8  4  1  0  0  0  0
  9  5  1  0  0  0  0
 11 22  1  0  0  0  0
 12 11  2  0  0  0  0
 13 15  2  0  0  0  0
 13 12  1  0  0  0  0
 14 13  1  0  0  0  0
 15 21  1  0  0  0  0
 16 15  1  0  0  0  0
 16 18  1  0  0  0  0
 17 16  1  0  0  0  0
 18 20  2  0  0  0  0
 19 18  1  0  0  0  0
 21 20  1  0  0  0  0
 21 22  2  0  0  0  0
 23 24  2  0  0  0  0
 23 28  1  0  0  0  0
 24 25  1  0  0  0  0
 25  3  1  0  0  0  0
 25 26  2  0  0  0  0
 27 26  1  0  0  0  0
 27 33  1  0  0  0  0
 28 27  2  0  0  0  0
 29 23  1  0  0  0  0
 30 24  1  0  0  0  0
 31 32  1  0  0  0  0
 32 38  1  0  0  0  0
 33 32  2  0  0  0  0
 33 34  1  0  0  0  0
 34 35  2  0  0  0  0
 35 36  1  0  0  0  0
 35 40  1  0  0  0  0
 36 37  1  0  0  0  0
 38 41  1  0  0  0  0
 38 36  2  0  0  0  0
 39 34  1  0  0  0  0
M  END
>  <minimizedAffinity>
-7.65880537

$$$$

 OpenBabel03242514313D

 41 45  0  0  0  0  0  0  0  0999 V2000
   41.9250   31.9970   41.5270 Cl  0  0  0  0  0  0  0  0  0  0  0  0
   41.8650   32.7040   39.9220 C   0  0  0  0  0  0  0  0  0  0  0  0
   41.5690   31.9190   38.8590 C   0  0  0  0  0  0  0  0  0  0  0  0
   41.6720   32.5490   37.6320 C   0  0  0  0  0  0  0  0  0  0  0  0
   42.0360   33.8640   37.4360 C   0  0  0  0  0  0  0  0  0  0  0  0
   42.3240   34.6320   38.5530 C   0  0  0  0  0  0  0  0  0  0  0  0
   42.2330   34.0340   39.8030 C   0  0  0  0  0  0  0  0  0  0  0  0
   41.4270   31.8750   36.7890 H   0  0  0  0  0  0  0  0  0  0  0  0
   42.0490   34.1340   36.4000 H   0  0  0  0  0  0  0  0  0  0  0  0
   42.5980   35.6470   38.3400 H   0  0  0  0  0  0  0  0  0  0  0  0
   41.7340   35.9470   41.2560 C   0  0  0  0  0  3  0  0  0  0  0  0
   42.5440   34.8720   40.9560 C   0  0  0  0  0  0  0  0  0  0  0  0
   43.6400   34.5950   41.7490 C   0  0  0  0  0  0  0  0  0  0  0  0
   44.2970   33.7600   41.5440 H   0  0  0  0  0  0  0  0  0  0  0  0
   43.8630   35.4380   42.8210 C   0  0  0  0  0  0  0  0  0  0  0  0
   44.8400   35.4300   43.7690 N   0  0  0  0  0  0  0  0  0  0  0  0
   45.6180   34.7480   43.8370 H   0  0  0  0  0  0  0  0  0  0  0  0
   44.6740   36.4480   44.6370 C   0  0  0  0  0  0  0  0  0  0  0  0
   45.2780   36.7020   45.4870 H   0  0  0  0  0  0  0  0  0  0  0  0
   43.5540   37.1610   44.2660 C   0  0  0  0  0  3  0  0  0  0  0  0
   43.0700   36.5210   43.1430 C   0  0  0  0  0  0  0  0  0  0  0  0
   41.9790   36.7820   42.3410 C   0  0  0  0  0  3  0  0  0  0  0  0
   41.1910   28.2400   38.3500 C   0  0  0  0  0  0  0  0  0  0  0  0
   41.6550   29.5540   38.1840 C   0  0  0  0  0  0  0  0  0  0  0  0
   41.1680   30.5490   39.0210 C   0  0  0  0  0  0  0  0  0  0  0  0
   40.2680   30.1820   39.9640 N   0  0  0  0  0  0  0  0  0  0  0  0
   39.8320   28.9210   40.1220 C   0  0  0  0  0  0  0  0  0  0  0  0
   40.2880   27.9480   39.3140 N   0  0  0  0  0  0  0  0  0  0  0  0
   41.4750   27.3700   37.7730 H   0  0  0  0  0  0  0  0  0  0  0  0
   42.3670   29.5230   37.4240 H   0  0  0  0  0  0  0  0  0  0  0  0
   41.0840   28.4370   42.8690 Cl  0  0  0  0  0  0  0  0  0  0  0  0
   39.3810   28.3240   42.4860 C   0  0  0  0  0  0  0  0  0  0  0  0
   38.9210   28.5700   41.1920 C   0  0  0  0  0  0  0  0  0  0  0  0
   37.5830   28.4600   41.0150 C   0  0  0  0  0  0  0  0  0  0  0  0
   36.6870   28.1270   42.0210 C   0  0  0  0  0  0  0  0  0  0  0  0
   37.1660   27.8920   43.2820 C   0  0  0  0  0  0  0  0  0  0  0  0
   35.9370   27.4840   44.4630 Cl  0  0  0  0  0  0  0  0  0  0  0  0
   38.5030   27.9890   43.5170 C   0  0  0  0  0  0  0  0  0  0  0  0
   37.2080   28.6470   40.0130 H   0  0  0  0  0  0  0  0  0  0  0  0
   35.6420   28.0740   41.7390 H   0  0  0  0  0  0  0  0  0  0  0  0
   38.8370   27.7940   44.5260 H   0  0  0  0  0  0  0  0  0  0  0  0
  2  1  1  0  0  0  0
  3 25  1  0  0  0  0
  3  2  2  0  0  0  0
  4  3  1  0  0  0  0
  5  4  2  0  0  0  0
  5  6  1  0  0  0  0
  6  7  2  0  0  0  0
  7  2  1  0  0  0  0
  7 12  1  0  0  0  0
  8  4  1  0  0  0  0
  9  5  1  0  0  0  0
 10  6  1  0  0  0  0
 11 22  1  0  0  0  0
 12 11  2  0  0  0  0
 12 13  1  0  0  0  0
 13 15  2  0  0  0  0
 14 13  1  0  0  0  0
 15 21  1  0  0  0  0
 15 16  1  0  0  0  0
 16 17  1  0  0  0  0
 16 18  1  0  0  0  0
 18 19  1  0  0  0  0
 20 18  2  0  0  0  0
 21 20  1  0  0  0  0
 22 21  2  0  0  0  0
 23 28  1  0  0  0  0
 24 23  2  0  0  0  0
 24 25  1  0  0  0  0
 25 26  2  0  0  0  0
 26 27  1  0  0  0  0
 27 33  1  0  0  0  0
 28 27  2  0  0  0  0
 29 23  1  0  0  0  0
 30 24  1  0  0  0  0
 32 31  1  0  0  0  0
 32 38  1  0  0  0  0
 33 32  2  0  0  0  0
 34 33  1  0  0  0  0
 34 35  2  0  0  0  0
 35 36  1  0  0  0  0
 36 38  2  0  0  0  0
 36 37  1  0  0  0  0
 38 41  1  0  0  0  0
 39 34  1  0  0  0  0
 40 35  1  0  0  0  0
M  END
>  <minimizedAffinity>
-7.54782724

$$$$

 OpenBabel03242514313D

 41 45  0  0  0  0  0  0  0  0999 V2000
   40.9670   31.6120   39.5710 Cl  0  0  0  0  0  0  0  0  0  0  0  0
   40.2880   33.1810   39.9650 C   0  0  0  0  0  0  0  0  0  0  0  0
   38.9760   33.2780   40.2850 C   0  0  0  0  0  0  0  0  0  0  0  0
   38.5190   34.5720   40.4540 C   0  0  0  0  0  0  0  0  0  0  0  0
   39.2810   35.7130   40.3270 C   0  0  0  0  0  0  0  0  0  0  0  0
   40.6210   35.5660   40.0040 C   0  0  0  0  0  0  0  0  0  0  0  0
   41.1180   34.2820   39.8240 C   0  0  0  0  0  0  0  0  0  0  0  0
   37.4430   34.6100   40.7100 H   0  0  0  0  0  0  0  0  0  0  0  0
   38.7150   36.6040   40.5020 H   0  0  0  0  0  0  0  0  0  0  0  0
   41.1650   36.4870   39.9210 H   0  0  0  0  0  0  0  0  0  0  0  0
   43.4780   34.1920   40.4880 C   0  0  0  0  0  3  0  0  0  0  0  0
   42.5310   34.1650   39.4850 C   0  0  0  0  0  0  0  0  0  0  0  0
   42.9270   34.0280   38.1690 C   0  0  0  0  0  0  0  0  0  0  0  0
   42.2120   34.0030   37.3570 H   0  0  0  0  0  0  0  0  0  0  0  0
   44.2850   33.9230   37.9350 C   0  0  0  0  0  0  0  0  0  0  0  0
   44.9780   33.7810   36.7710 N   0  0  0  0  0  0  0  0  0  0  0  0
   44.5670   33.7260   35.8210 H   0  0  0  0  0  0  0  0  0  0  0  0
   46.3030   33.7190   37.0060 C   0  0  0  0  0  0  0  0  0  0  0  0
   47.0990   33.6090   36.2960 H   0  0  0  0  0  0  0  0  0  0  0  0
   46.5120   33.8220   38.3660 C   0  0  0  0  0  3  0  0  0  0  0  0
   45.2540   33.9470   38.9190 C   0  0  0  0  0  0  0  0  0  0  0  0
   44.8400   34.0850   40.2270 C   0  0  0  0  0  3  0  0  0  0  0  0
   36.0430   30.9680   40.2710 C   0  0  0  0  0  0  0  0  0  0  0  0
   36.8210   32.1130   40.0440 C   0  0  0  0  0  0  0  0  0  0  0  0
   38.1510   32.1130   40.4450 C   0  0  0  0  0  0  0  0  0  0  0  0
   38.6220   30.9880   41.0320 N   0  0  0  0  0  0  0  0  0  0  0  0
   37.8730   29.8910   41.2430 C   0  0  0  0  0  0  0  0  0  0  0  0
   36.5820   29.8800   40.8670 N   0  0  0  0  0  0  0  0  0  0  0  0
   35.0010   30.8270   40.0200 H   0  0  0  0  0  0  0  0  0  0  0  0
   36.2110   32.7900   39.5390 H   0  0  0  0  0  0  0  0  0  0  0  0
   39.3700   28.0530   39.3120 Cl  0  0  0  0  0  0  0  0  0  0  0  0
   39.1480   27.7760   41.0250 C   0  0  0  0  0  0  0  0  0  0  0  0
   38.4460   28.6880   41.8120 C   0  0  0  0  0  0  0  0  0  0  0  0
   38.3420   28.3730   43.1250 C   0  0  0  0  0  0  0  0  0  0  0  0
   38.8810   27.2300   43.6980 C   0  0  0  0  0  0  0  0  0  0  0  0
   39.5670   26.3520   42.9020 C   0  0  0  0  0  0  0  0  0  0  0  0
   40.2010   24.9500   43.7420 Cl  0  0  0  0  0  0  0  0  0  0  0  0
   39.7020   26.6190   41.5740 C   0  0  0  0  0  0  0  0  0  0  0  0
   37.7980   29.0730   43.7520 H   0  0  0  0  0  0  0  0  0  0  0  0
   38.7240   27.1020   44.7620 H   0  0  0  0  0  0  0  0  0  0  0  0
   40.2490   25.8980   40.9840 H   0  0  0  0  0  0  0  0  0  0  0  0
  1  2  1  0  0  0  0
  2  3  1  0  0  0  0
  3 25  1  0  0  0  0
  3  4  2  0  0  0  0
  4  8  1  0  0  0  0
  5  4  1  0  0  0  0
  5  9  1  0  0  0  0
  6  5  2  0  0  0  0
  7  2  2  0  0  0  0
  7  6  1  0  0  0  0
 10  6  1  0  0  0  0
 12  7  1  0  0  0  0
 12 11  2  0  0  0  0
 13 12  1  0  0  0  0
 14 13  1  0  0  0  0
 15 13  2  0  0  0  0
 15 21  1  0  0  0  0
 16 18  1  0  0  0  0
 16 15  1  0  0  0  0
 17 16  1  0  0  0  0
 18 20  2  0  0  0  0
 19 18  1  0  0  0  0
 20 21  1  0  0  0  0
 21 22  2  0  0  0  0
 22 11  1  0  0  0  0
 23 28  1  0  0  0  0
 24 23  2  0  0  0  0
 24 25  1  0  0  0  0
 25 26  2  0  0  0  0
 26 27  1  0  0  0  0
 27 33  1  0  0  0  0
 28 27  2  0  0  0  0
 29 23  1  0  0  0  0
 30 24  1  0  0  0  0
 31 32  1  0  0  0  0
 32 38  2  0  0  0  0
 32 33  1  0  0  0  0
 33 34  2  0  0  0  0
 34 35  1  0  0  0  0
 34 39  1  0  0  0  0
 35 40  1  0  0  0  0
 36 35  2  0  0  0  0
 36 37  1  0  0  0  0
 38 36  1  0  0  0  0
 41 38  1  0  0  0  0
M  END
>  <minimizedAffinity>
-7.49824047

$$$$

 OpenBabel03242514313D

 41 45  0  0  0  0  0  0  0  0999 V2000
   37.8980   27.9180   39.2040 Cl  0  0  0  0  0  0  0  0  0  0  0  0
   37.4690   28.0300   40.9020 C   0  0  0  0  0  0  0  0  0  0  0  0
   37.5220   29.2310   41.5240 C   0  0  0  0  0  0  0  0  0  0  0  0
   37.2880   29.1850   42.8860 C   0  0  0  0  0  0  0  0  0  0  0  0
   37.0130   28.0450   43.6120 C   0  0  0  0  0  0  0  0  0  0  0  0
   36.9620   26.8380   42.9330 C   0  0  0  0  0  0  0  0  0  0  0  0
   37.1950   26.8440   41.5630 C   0  0  0  0  0  0  0  0  0  0  0  0
   37.3430   30.1830   43.3590 H   0  0  0  0  0  0  0  0  0  0  0  0
   36.8660   28.2490   44.6530 H   0  0  0  0  0  0  0  0  0  0  0  0
   36.7430   25.9870   43.5470 H   0  0  0  0  0  0  0  0  0  0  0  0
   36.3750   25.4260   39.7380 C   0  0  0  0  0  3  0  0  0  0  0  0
   37.1350   25.5570   40.8810 C   0  0  0  0  0  0  0  0  0  0  0  0
   37.8320   24.4700   41.3710 C   0  0  0  0  0  0  0  0  0  0  0  0
   38.4380   24.5370   42.2660 H   0  0  0  0  0  0  0  0  0  0  0  0
   37.7200   23.2880   40.6650 C   0  0  0  0  0  0  0  0  0  0  0  0
   38.2750   22.0640   40.8880 N   0  0  0  0  0  0  0  0  0  0  0  0
   38.9050   21.8140   41.6720 H   0  0  0  0  0  0  0  0  0  0  0  0
   37.8940   21.1860   39.9400 C   0  0  0  0  0  0  0  0  0  0  0  0
   38.1640   20.1520   39.8450 H   0  0  0  0  0  0  0  0  0  0  0  0
   37.0610   21.8340   39.0520 C   0  0  0  0  0  3  0  0  0  0  0  0
   36.9680   23.1290   39.5190 C   0  0  0  0  0  0  0  0  0  0  0  0
   36.2780   24.2240   39.0430 C   0  0  0  0  0  3  0  0  0  0  0  0
   37.1090   32.2370   39.3480 C   0  0  0  0  0  0  0  0  0  0  0  0
   36.7870   31.0840   40.0800 C   0  0  0  0  0  0  0  0  0  0  0  0
   37.7870   30.4450   40.8010 C   0  0  0  0  0  0  0  0  0  0  0  0
   39.0270   30.9860   40.7580 N   0  0  0  0  0  0  0  0  0  0  0  0
   39.3290   32.0940   40.0600 C   0  0  0  0  0  0  0  0  0  0  0  0
   38.3730   32.7200   39.3500 N   0  0  0  0  0  0  0  0  0  0  0  0
   36.4420   32.8320   38.7410 H   0  0  0  0  0  0  0  0  0  0  0  0
   35.7620   30.9370   39.9650 H   0  0  0  0  0  0  0  0  0  0  0  0
   39.4970   35.0600   40.7810 Cl  0  0  0  0  0  0  0  0  0  0  0  0
   40.8530   34.0160   40.4200 C   0  0  0  0  0  0  0  0  0  0  0  0
   40.6570   32.6710   40.1040 C   0  0  0  0  0  0  0  0  0  0  0  0
   41.7790   31.9590   39.8490 C   0  0  0  0  0  0  0  0  0  0  0  0
   43.0630   32.4840   39.8860 C   0  0  0  0  0  0  0  0  0  0  0  0
   43.2270   33.8080   40.1990 C   0  0  0  0  0  0  0  0  0  0  0  0
   44.8930   34.3500   40.2160 Cl  0  0  0  0  0  0  0  0  0  0  0  0
   42.1320   34.5720   40.4650 C   0  0  0  0  0  0  0  0  0  0  0  0
   41.6430   30.9100   39.6010 H   0  0  0  0  0  0  0  0  0  0  0  0
   43.8720   31.8000   39.6600 H   0  0  0  0  0  0  0  0  0  0  0  0
   42.3080   35.6090   40.7070 H   0  0  0  0  0  0  0  0  0  0  0  0
  1  2  1  0  0  0  0
  2  3  2  0  0  0  0
  2  7  1  0  0  0  0
  3  4  1  0  0  0  0
  4  8  1  0  0  0  0
  4  5  2  0  0  0  0
  5  9  1  0  0  0  0
  6 10  1  0  0  0  0
  6  5  1  0  0  0  0
  7  6  2  0  0  0  0
 11 12  1  0  0  0  0
 12 13  2  0  0  0  0
 12  7  1  0  0  0  0
 13 14  1  0  0  0  0
 15 16  1  0  0  0  0
 15 13  1  0  0  0  0
 16 17  1  0  0  0  0
 18 16  1  0  0  0  0
 19 18  1  0  0  0  0
 20 21  1  0  0  0  0
 20 18  2  0  0  0  0
 21 15  2  0  0  0  0
 22 21  1  0  0  0  0
 22 11  2  0  0  0  0
 23 28  2  0  0  0  0
 23 24  1  0  0  0  0
 24 25  2  0  0  0  0
 25  3  1  0  0  0  0
 26 25  1  0  0  0  0
 27 33  1  0  0  0  0
 27 26  2  0  0  0  0
 28 27  1  0  0  0  0
 29 23  1  0  0  0  0
 30 24  1  0  0  0  0
 32 38  1  0  0  0  0
 32 31  1  0  0  0  0
 33 32  2  0  0  0  0
 34 35  2  0  0  0  0
 34 33  1  0  0  0  0
 35 36  1  0  0  0  0
 36 37  1  0  0  0  0
 36 38  2  0  0  0  0
 38 41  1  0  0  0  0
 39 34  1  0  0  0  0
 40 35  1  0  0  0  0
M  END
>  <minimizedAffinity>
-7.38441992

$$$$

 OpenBabel03242514313D

 41 45  0  0  0  0  0  0  0  0999 V2000
   39.4870   31.8880   41.6950 Cl  0  0  0  0  0  0  0  0  0  0  0  0
   39.7180   32.0120   39.9600 C   0  0  0  0  0  0  0  0  0  0  0  0
   38.9710   31.2440   39.1330 C   0  0  0  0  0  0  0  0  0  0  0  0
   39.3210   31.3280   37.7970 C   0  0  0  0  0  0  0  0  0  0  0  0
   40.3320   32.1110   37.2830 C   0  0  0  0  0  0  0  0  0  0  0  0
   41.0670   32.8860   38.1660 C   0  0  0  0  0  0  0  0  0  0  0  0
   40.7460   32.8270   39.5170 C   0  0  0  0  0  0  0  0  0  0  0  0
   38.6910   30.6840   37.1540 H   0  0  0  0  0  0  0  0  0  0  0  0
   40.4220   32.0160   36.2210 H   0  0  0  0  0  0  0  0  0  0  0  0
   41.8380   33.4760   37.7100 H   0  0  0  0  0  0  0  0  0  0  0  0
   42.7710   33.2060   40.8490 C   0  0  0  0  0  3  0  0  0  0  0  0
   41.5400   33.6550   40.4170 C   0  0  0  0  0  0  0  0  0  0  0  0
   41.0690   34.8820   40.8390 C   0  0  0  0  0  0  0  0  0  0  0  0
   40.1080   35.2660   40.5210 H   0  0  0  0  0  0  0  0  0  0  0  0
   41.8830   35.6030   41.6910 C   0  0  0  0  0  0  0  0  0  0  0  0
   41.7060   36.8220   42.2710 N   0  0  0  0  0  0  0  0  0  0  0  0
   40.8790   37.4370   42.1560 H   0  0  0  0  0  0  0  0  0  0  0  0
   42.7640   37.1470   43.0400 C   0  0  0  0  0  0  0  0  0  0  0  0
   42.9160   38.0370   43.6190 H   0  0  0  0  0  0  0  0  0  0  0  0
   43.6820   36.1200   42.9760 C   0  0  0  0  0  3  0  0  0  0  0  0
   43.1190   35.1780   42.1400 C   0  0  0  0  0  0  0  0  0  0  0  0
   43.5740   33.9500   41.7080 C   0  0  0  0  0  3  0  0  0  0  0  0
   35.6810   30.1540   40.5210 C   0  0  0  0  0  0  0  0  0  0  0  0
   36.6800   30.9870   39.9960 C   0  0  0  0  0  0  0  0  0  0  0  0
   37.8960   30.4270   39.6260 C   0  0  0  0  0  0  0  0  0  0  0  0
   38.0400   29.0920   39.7910 N   0  0  0  0  0  0  0  0  0  0  0  0
   37.0780   28.2970   40.2890 C   0  0  0  0  0  0  0  0  0  0  0  0
   35.8980   28.8260   40.6600 N   0  0  0  0  0  0  0  0  0  0  0  0
   34.6950   30.4470   40.8550 H   0  0  0  0  0  0  0  0  0  0  0  0
   36.2710   31.9440   39.9420 H   0  0  0  0  0  0  0  0  0  0  0  0
   37.9860   27.2110   42.9990 Cl  0  0  0  0  0  0  0  0  0  0  0  0
   37.6740   26.2570   41.5660 C   0  0  0  0  0  0  0  0  0  0  0  0
   37.2600   26.8630   40.3800 C   0  0  0  0  0  0  0  0  0  0  0  0
   37.0420   26.0250   39.3390 C   0  0  0  0  0  0  0  0  0  0  0  0
   37.2050   24.6480   39.3960 C   0  0  0  0  0  0  0  0  0  0  0  0
   37.6120   24.0800   40.5740 C   0  0  0  0  0  0  0  0  0  0  0  0
   37.7790   22.3360   40.5210 Cl  0  0  0  0  0  0  0  0  0  0  0  0
   37.8460   24.8750   41.6540 C   0  0  0  0  0  0  0  0  0  0  0  0
   36.7190   26.4810   38.4070 H   0  0  0  0  0  0  0  0  0  0  0  0
   36.9950   24.0980   38.4870 H   0  0  0  0  0  0  0  0  0  0  0  0
   38.1660   24.3850   42.5610 H   0  0  0  0  0  0  0  0  0  0  0  0
  2  1  1  0  0  0  0
  3 25  1  0  0  0  0
  3  2  2  0  0  0  0
  4  3  1  0  0  0  0
  5  4  2  0  0  0  0
  5  6  1  0  0  0  0
  6  7  2  0  0  0  0
  7  2  1  0  0  0  0
  7 12  1  0  0  0  0
  8  4  1  0  0  0  0
  9  5  1  0  0  0  0
 10  6  1  0  0  0  0
 11 22  1  0  0  0  0
 12 13  1  0  0  0  0
 12 11  2  0  0  0  0
 13 15  2  0  0  0  0
 14 13  1  0  0  0  0
 15 21  1  0  0  0  0
 15 16  1  0  0  0  0
 16 18  1  0  0  0  0
 17 16  1  0  0  0  0
 18 19  1  0  0  0  0
 20 18  2  0  0  0  0
 21 20  1  0  0  0  0
 22 21  2  0  0  0  0
 23 28  1  0  0  0  0
 23 29  1  0  0  0  0
 24 23  2  0  0  0  0
 25 26  2  0  0  0  0
 25 24  1  0  0  0  0
 26 27  1  0  0  0  0
 27 33  1  0  0  0  0
 27 28  2  0  0  0  0
 30 24  1  0  0  0  0
 32 38  1  0  0  0  0
 32 31  1  0  0  0  0
 33 32  2  0  0  0  0
 34 35  2  0  0  0  0
 34 33  1  0  0  0  0
 35 36  1  0  0  0  0
 36 38  2  0  0  0  0
 37 36  1  0  0  0  0
 38 41  1  0  0  0  0
 39 34  1  0  0  0  0
 40 35  1  0  0  0  0
M  END
>  <minimizedAffinity>
-7.3116107

$$$$

 OpenBabel03242514313D

 41 45  0  0  0  0  0  0  0  0999 V2000
   40.7930   31.5940   40.5490 Cl  0  0  0  0  0  0  0  0  0  0  0  0
   40.3180   33.2730   40.3650 C   0  0  0  0  0  0  0  0  0  0  0  0
   41.1980   34.2520   40.6780 C   0  0  0  0  0  0  0  0  0  0  0  0
   40.6800   35.5330   40.6170 C   0  0  0  0  0  0  0  0  0  0  0  0
   39.3860   35.8570   40.2700 C   0  0  0  0  0  0  0  0  0  0  0  0
   38.5210   34.8220   39.9520 C   0  0  0  0  0  0  0  0  0  0  0  0
   39.0040   33.5210   40.0040 C   0  0  0  0  0  0  0  0  0  0  0  0
   41.4270   36.3040   40.8820 H   0  0  0  0  0  0  0  0  0  0  0  0
   39.2090   36.9120   40.2920 H   0  0  0  0  0  0  0  0  0  0  0  0
   37.5280   35.1330   39.6880 H   0  0  0  0  0  0  0  0  0  0  0  0
   37.9690   32.0260   38.3570 C   0  0  0  0  0  3  0  0  0  0  0  0
   38.0660   32.4570   39.6630 C   0  0  0  0  0  0  0  0  0  0  0  0
   37.2760   31.8810   40.6380 C   0  0  0  0  0  0  0  0  0  0  0  0
   37.3250   32.1940   41.6730 H   0  0  0  0  0  0  0  0  0  0  0  0
   36.4140   30.8810   40.2310 C   0  0  0  0  0  0  0  0  0  0  0  0
   35.5230   30.1320   40.9380 N   0  0  0  0  0  0  0  0  0  0  0  0
   35.3420   30.2020   41.9570 H   0  0  0  0  0  0  0  0  0  0  0  0
   34.8820   29.2620   40.1340 C   0  0  0  0  0  0  0  0  0  0  0  0
   34.1300   28.5440   40.3980 H   0  0  0  0  0  0  0  0  0  0  0  0
   35.3530   29.4260   38.8480 C   0  0  0  0  0  3  0  0  0  0  0  0
   36.2970   30.4290   38.9310 C   0  0  0  0  0  0  0  0  0  0  0  0
   37.0940   31.0160   37.9710 C   0  0  0  0  0  3  0  0  0  0  0  0
   44.9320   34.2460   40.7380 C   0  0  0  0  0  0  0  0  0  0  0  0
   43.6180   34.6060   40.4000 C   0  0  0  0  0  0  0  0  0  0  0  0
   42.5610   33.9590   41.0270 C   0  0  0  0  0  0  0  0  0  0  0  0
   42.8690   33.0120   41.9440 N   0  0  0  0  0  0  0  0  0  0  0  0
   44.1280   32.6750   42.2680 C   0  0  0  0  0  0  0  0  0  0  0  0
   45.1630   33.2870   41.6640 N   0  0  0  0  0  0  0  0  0  0  0  0
   45.8460   34.6550   40.3320 H   0  0  0  0  0  0  0  0  0  0  0  0
   43.6930   35.3850   39.7120 H   0  0  0  0  0  0  0  0  0  0  0  0
   45.2870   33.7690   44.8780 Cl  0  0  0  0  0  0  0  0  0  0  0  0
   44.9340   32.0890   44.5390 C   0  0  0  0  0  0  0  0  0  0  0  0
   44.4020   31.7040   43.3080 C   0  0  0  0  0  0  0  0  0  0  0  0
   44.1640   30.3800   43.1610 C   0  0  0  0  0  0  0  0  0  0  0  0
   44.4140   29.4270   44.1390 C   0  0  0  0  0  0  0  0  0  0  0  0
   44.9360   29.8340   45.3390 C   0  0  0  0  0  0  0  0  0  0  0  0
   45.2040   28.5400   46.4910 Cl  0  0  0  0  0  0  0  0  0  0  0  0
   45.1950   31.1540   45.5410 C   0  0  0  0  0  0  0  0  0  0  0  0
   43.7500   30.0630   42.2080 H   0  0  0  0  0  0  0  0  0  0  0  0
   44.1760   28.4010   43.8870 H   0  0  0  0  0  0  0  0  0  0  0  0
   45.6070   31.4300   46.5010 H   0  0  0  0  0  0  0  0  0  0  0  0
  2  1  1  0  0  0  0
  2  3  1  0  0  0  0
  3 25  1  0  0  0  0
  4  3  2  0  0  0  0
  4  8  1  0  0  0  0
  5  9  1  0  0  0  0
  5  4  1  0  0  0  0
  6  7  1  0  0  0  0
  6  5  2  0  0  0  0
  7  2  2  0  0  0  0
 10  6  1  0  0  0  0
 11 12  1  0  0  0  0
 12  7  1  0  0  0  0
 12 13  2  0  0  0  0
 13 14  1  0  0  0  0
 15 13  1  0  0  0  0
 15 16  1  0  0  0  0
 16 17  1  0  0  0  0
 18 19  1  0  0  0  0
 18 16  1  0  0  0  0
 20 21  1  0  0  0  0
 20 18  2  0  0  0  0
 21 15  2  0  0  0  0
 22 11  2  0  0  0  0
 22 21  1  0  0  0  0
 23 28  1  0  0  0  0
 24 23  2  0  0  0  0
 24 25  1  0  0  0  0
 25 26  2  0  0  0  0
 26 27  1  0  0  0  0
 27 33  1  0  0  0  0
 28 27  2  0  0  0  0
 29 23  1  0  0  0  0
 30 24  1  0  0  0  0
 32 31  1  0  0  0  0
 32 38  1  0  0  0  0
 33 32  2  0  0  0  0
 34 33  1  0  0  0  0
 34 35  2  0  0  0  0
 35 36  1  0  0  0  0
 36 38  2  0  0  0  0
 36 37  1  0  0  0  0
 38 41  1  0  0  0  0
 39 34  1  0  0  0  0
 40 35  1  0  0  0  0
M  END
>  <minimizedAffinity>
-7.11835289

$$$$

 OpenBabel03242514313D

 41 45  0  0  0  0  0  0  0  0999 V2000
   38.7370   30.3700   41.4510 Cl  0  0  0  0  0  0  0  0  0  0  0  0
   37.9330   30.3900   39.8910 C   0  0  0  0  0  0  0  0  0  0  0  0
   37.8750   31.5440   39.1870 C   0  0  0  0  0  0  0  0  0  0  0  0
   37.1120   31.4780   38.0350 C   0  0  0  0  0  0  0  0  0  0  0  0
   36.4430   30.3600   37.5820 C   0  0  0  0  0  0  0  0  0  0  0  0
   36.5370   29.1990   38.3320 C   0  0  0  0  0  0  0  0  0  0  0  0
   37.2920   29.2270   39.4970 C   0  0  0  0  0  0  0  0  0  0  0  0
   37.0850   32.4400   37.4900 H   0  0  0  0  0  0  0  0  0  0  0  0
   35.9170   30.5420   36.6680 H   0  0  0  0  0  0  0  0  0  0  0  0
   35.9990   28.3620   37.9300 H   0  0  0  0  0  0  0  0  0  0  0  0
   36.7350   27.8990   41.4830 C   0  0  0  0  0  3  0  0  0  0  0  0
   37.3680   27.9870   40.2610 C   0  0  0  0  0  0  0  0  0  0  0  0
   38.0670   26.9020   39.7700 C   0  0  0  0  0  0  0  0  0  0  0  0
   38.5760   26.9350   38.8150 H   0  0  0  0  0  0  0  0  0  0  0  0
   38.0890   25.7670   40.5560 C   0  0  0  0  0  0  0  0  0  0  0  0
   38.6810   24.5570   40.3540 N   0  0  0  0  0  0  0  0  0  0  0  0
   39.2430   24.2830   39.5270 H   0  0  0  0  0  0  0  0  0  0  0  0
   38.4450   23.7280   41.3910 C   0  0  0  0  0  0  0  0  0  0  0  0
   38.7760   22.7160   41.5210 H   0  0  0  0  0  0  0  0  0  0  0  0
   37.6720   24.3960   42.3180 C   0  0  0  0  0  3  0  0  0  0  0  0
   37.4650   25.6520   41.7830 C   0  0  0  0  0  0  0  0  0  0  0  0
   36.7710   26.7440   42.2570 C   0  0  0  0  0  3  0  0  0  0  0  0
   38.6290   35.0580   40.2000 C   0  0  0  0  0  0  0  0  0  0  0  0
   37.8950   33.9190   39.8340 C   0  0  0  0  0  0  0  0  0  0  0  0
   38.5720   32.7260   39.6150 C   0  0  0  0  0  0  0  0  0  0  0  0
   39.9150   32.7340   39.7780 N   0  0  0  0  0  0  0  0  0  0  0  0
   40.6120   33.8270   40.1340 C   0  0  0  0  0  0  0  0  0  0  0  0
   39.9730   34.9920   40.3410 N   0  0  0  0  0  0  0  0  0  0  0  0
   38.2420   36.0480   40.3950 H   0  0  0  0  0  0  0  0  0  0  0  0
   36.8920   34.2000   39.8340 H   0  0  0  0  0  0  0  0  0  0  0  0
   42.4010   34.5040   37.7490 Cl  0  0  0  0  0  0  0  0  0  0  0  0
   42.9530   34.0510   39.3450 C   0  0  0  0  0  0  0  0  0  0  0  0
   42.0420   33.7650   40.3620 C   0  0  0  0  0  0  0  0  0  0  0  0
   42.5830   33.4320   41.5580 C   0  0  0  0  0  0  0  0  0  0  0  0
   43.9470   33.3660   41.8070 C   0  0  0  0  0  0  0  0  0  0  0  0
   44.8180   33.6530   40.7900 C   0  0  0  0  0  0  0  0  0  0  0  0
   46.5110   33.5380   41.2300 Cl  0  0  0  0  0  0  0  0  0  0  0  0
   44.3290   33.9940   39.5670 C   0  0  0  0  0  0  0  0  0  0  0  0
   41.8870   33.2050   42.3600 H   0  0  0  0  0  0  0  0  0  0  0  0
   44.2420   33.0870   42.8110 H   0  0  0  0  0  0  0  0  0  0  0  0
   45.0520   34.2110   38.7950 H   0  0  0  0  0  0  0  0  0  0  0  0
  2  1  1  0  0  0  0
  3 25  1  0  0  0  0
  3  2  2  0  0  0  0
  4  3  1  0  0  0  0
  5  4  2  0  0  0  0
  5  6  1  0  0  0  0
  6  7  2  0  0  0  0
  7  2  1  0  0  0  0
  7 12  1  0  0  0  0
  8  4  1  0  0  0  0
  9  5  1  0  0  0  0
 10  6  1  0  0  0  0
 11 22  1  0  0  0  0
 12 11  2  0  0  0  0
 13 12  1  0  0  0  0
 13 15  2  0  0  0  0
 14 13  1  0  0  0  0
 15 21  1  0  0  0  0
 16 15  1  0  0  0  0
 16 18  1  0  0  0  0
 17 16  1  0  0  0  0
 18 19  1  0  0  0  0
 18 20  2  0  0  0  0
 21 22  2  0  0  0  0
 21 20  1  0  0  0  0
 23 28  1  0  0  0  0
 23 29  1  0  0  0  0
 24 23  2  0  0  0  0
 25 26  2  0  0  0  0
 25 24  1  0  0  0  0
 26 27  1  0  0  0  0
 27 28  2  0  0  0  0
 27 33  1  0  0  0  0
 30 24  1  0  0  0  0
 31 32  1  0  0  0  0
 32 38  2  0  0  0  0
 32 33  1  0  0  0  0
 33 34  2  0  0  0  0
 34 35  1  0  0  0  0
 34 39  1  0  0  0  0
 35 40  1  0  0  0  0
 36 37  1  0  0  0  0
 36 35  2  0  0  0  0
 38 36  1  0  0  0  0
 41 38  1  0  0  0  0
M  END
>  <minimizedAffinity>
-6.94190264

$$$$

 OpenBabel03242514313D

 41 45  0  0  0  0  0  0  0  0999 V2000
   39.8880   29.9380   41.0480 Cl  0  0  0  0  0  0  0  0  0  0  0  0
   38.1630   29.6150   41.0290 C   0  0  0  0  0  0  0  0  0  0  0  0
   37.7200   28.3530   41.2340 C   0  0  0  0  0  0  0  0  0  0  0  0
   36.3560   28.1890   41.0730 C   0  0  0  0  0  0  0  0  0  0  0  0
   35.4650   29.1850   40.7370 C   0  0  0  0  0  0  0  0  0  0  0  0
   35.9620   30.4640   40.5430 C   0  0  0  0  0  0  0  0  0  0  0  0
   37.3280   30.6680   40.6940 C   0  0  0  0  0  0  0  0  0  0  0  0
   36.0320   27.1450   41.2440 H   0  0  0  0  0  0  0  0  0  0  0  0
   34.4580   28.8270   40.6670 H   0  0  0  0  0  0  0  0  0  0  0  0
   35.2240   31.1980   40.2860 H   0  0  0  0  0  0  0  0  0  0  0  0
   37.0690   32.9120   39.7360 C   0  0  0  0  0  3  0  0  0  0  0  0
   37.8170   32.0260   40.4820 C   0  0  0  0  0  0  0  0  0  0  0  0
   39.0220   32.4290   41.0220 C   0  0  0  0  0  0  0  0  0  0  0  0
   39.6360   31.7610   41.6130 H   0  0  0  0  0  0  0  0  0  0  0  0
   39.4120   33.7310   40.7740 C   0  0  0  0  0  0  0  0  0  0  0  0
   40.5240   34.4150   41.1600 N   0  0  0  0  0  0  0  0  0  0  0  0
   41.3000   34.0400   41.7370 H   0  0  0  0  0  0  0  0  0  0  0  0
   40.4990   35.6770   40.6890 C   0  0  0  0  0  0  0  0  0  0  0  0
   41.2290   36.4520   40.8250 H   0  0  0  0  0  0  0  0  0  0  0  0
   39.3380   35.8510   39.9650 C   0  0  0  0  0  3  0  0  0  0  0  0
   38.6830   34.6380   40.0310 C   0  0  0  0  0  0  0  0  0  0  0  0
   37.4820   34.2180   39.4990 C   0  0  0  0  0  3  0  0  0  0  0  0
   39.7470   25.9490   43.2470 C   0  0  0  0  0  0  0  0  0  0  0  0
   38.8250   26.9600   42.9360 C   0  0  0  0  0  0  0  0  0  0  0  0
   38.6130   27.2900   41.6040 C   0  0  0  0  0  0  0  0  0  0  0  0
   39.3140   26.5990   40.6740 N   0  0  0  0  0  0  0  0  0  0  0  0
   40.1920   25.6280   40.9770 C   0  0  0  0  0  0  0  0  0  0  0  0
   40.4140   25.3030   42.2630 N   0  0  0  0  0  0  0  0  0  0  0  0
   40.0170   25.5930   44.2310 H   0  0  0  0  0  0  0  0  0  0  0  0
   38.4110   27.2720   43.8400 H   0  0  0  0  0  0  0  0  0  0  0  0
   43.2030   26.0780   40.7030 Cl  0  0  0  0  0  0  0  0  0  0  0  0
   42.2360   25.0000   39.7230 C   0  0  0  0  0  0  0  0  0  0  0  0
   40.8640   24.8720   39.9400 C   0  0  0  0  0  0  0  0  0  0  0  0
   40.2190   24.0040   39.1260 C   0  0  0  0  0  0  0  0  0  0  0  0
   40.8370   23.2660   38.1260 C   0  0  0  0  0  0  0  0  0  0  0  0
   42.1860   23.4100   37.9350 C   0  0  0  0  0  0  0  0  0  0  0  0
   42.8480   22.4230   36.6460 Cl  0  0  0  0  0  0  0  0  0  0  0  0
   42.8840   24.2700   38.7260 C   0  0  0  0  0  0  0  0  0  0  0  0
   39.1510   23.8930   39.2810 H   0  0  0  0  0  0  0  0  0  0  0  0
   40.2000   22.6070   37.5470 H   0  0  0  0  0  0  0  0  0  0  0  0
   43.9450   24.3520   38.5400 H   0  0  0  0  0  0  0  0  0  0  0  0
  2  1  1  0  0  0  0
  2  3  1  0  0  0  0
  3 25  1  0  0  0  0
  4  3  2  0  0  0  0
  4  8  1  0  0  0  0
  5  4  1  0  0  0  0
  6  7  1  0  0  0  0
  6  5  2  0  0  0  0
  7  2  2  0  0  0  0
  9  5  1  0  0  0  0
 10  6  1  0  0  0  0
 11 12  1  0  0  0  0
 12  7  1  0  0  0  0
 12 13  2  0  0  0  0
 13 14  1  0  0  0  0
 15 13  1  0  0  0  0
 15 16  1  0  0  0  0
 16 17  1  0  0  0  0
 18 19  1  0  0  0  0
 18 16  1  0  0  0  0
 20 21  1  0  0  0  0
 20 18  2  0  0  0  0
 21 15  2  0  0  0  0
 22 11  2  0  0  0  0
 22 21  1  0  0  0  0
 23 29  1  0  0  0  0
 24 23  1  0  0  0  0
 24 30  1  0  0  0  0
 25 24  2  0  0  0  0
 26 27  2  0  0  0  0
 26 25  1  0  0  0  0
 27 28  1  0  0  0  0
 28 23  2  0  0  0  0
 32 33  1  0  0  0  0
 32 31  1  0  0  0  0
 33 27  1  0  0  0  0
 34 39  1  0  0  0  0
 34 33  2  0  0  0  0
 35 34  1  0  0  0  0
 36 35  2  0  0  0  0
 36 38  1  0  0  0  0
 37 36  1  0  0  0  0
 38 32  2  0  0  0  0
 40 35  1  0  0  0  0
 41 38  1  0  0  0  0
M  END
>  <minimizedAffinity>
-6.9345336

$$$$
