
 OpenBabel03252508543D

 46 50  0  0  1  0  0  0  0  0999 V2000
   43.2170   34.3420   40.6530 C   0  0  0  0  0  0  0  0  0  0  0  0
   43.1720   35.5370   40.2060 O   0  0  0  0  0  0  0  0  0  0  0  0
   41.8430   33.9250   40.4110 N   0  0  0  0  0  0  0  0  0  0  0  0
   41.4380   33.9630   39.0260 C   0  0  0  0  0  0  0  0  0  0  0  0
   40.6490   35.2810   38.8750 C   0  0  0  0  0  0  0  0  0  0  0  0
   39.8960   35.4890   40.2010 C   0  0  0  0  0  0  0  0  0  0  0  0
   39.5470   34.1540   40.8170 C   0  0  0  0  0  0  0  0  0  0  0  0
   40.8280   33.4810   41.3470 C   0  0  1  0  0  0  0  0  0  0  0  0
   40.8210   33.1000   38.7290 H   0  0  0  0  0  0  0  0  0  0  0  0
   42.2760   34.0440   38.3080 H   0  0  0  0  0  0  0  0  0  0  0  0
   39.9120   35.1250   38.0840 H   0  0  0  0  0  0  0  0  0  0  0  0
   41.3590   36.1040   38.7230 H   0  0  0  0  0  0  0  0  0  0  0  0
   40.5550   36.0170   40.9150 H   0  0  0  0  0  0  0  0  0  0  0  0
   38.9540   36.0400   40.0360 H   0  0  0  0  0  0  0  0  0  0  0  0
   38.7760   34.2640   41.5730 H   0  0  0  0  0  0  0  0  0  0  0  0
   39.2040   33.4650   40.0060 H   0  0  0  0  0  0  0  0  0  0  0  0
   41.0460   33.8750   42.3430 H   0  0  0  0  0  0  0  0  0  0  0  0
   40.5080   31.2500   40.1540 C   0  0  0  0  0  3  0  0  0  0  0  0
   40.6850   32.0050   41.2850 C   0  0  0  0  0  0  0  0  0  0  0  0
   40.7370   31.3160   42.4800 C   0  0  0  0  0  0  0  0  0  0  0  0
   40.8700   31.7340   43.4660 H   0  0  0  0  0  0  0  0  0  0  0  0
   40.6150   29.9260   42.5470 C   0  0  0  0  0  0  0  0  0  0  0  0
   40.6210   28.9860   43.5130 N   0  0  0  0  0  0  0  0  0  0  0  0
   40.7390   29.2020   44.5280 H   0  0  0  0  0  0  0  0  0  0  0  0
   40.4570   27.7620   42.9760 C   0  0  0  0  0  0  0  0  0  0  0  0
   40.4290   26.8360   43.5670 H   0  0  0  0  0  0  0  0  0  0  0  0
   40.3350   27.8620   41.6060 C   0  0  0  0  0  3  0  0  0  0  0  0
   40.4360   29.2150   41.3600 C   0  0  0  0  0  0  0  0  0  0  0  0
   40.3820   29.8870   40.1550 C   0  0  0  0  0  3  0  0  0  0  0  0
   44.2930   33.7080   41.1900 O   0  0  0  0  0  0  0  0  0  0  0  0
   45.6190   33.9990   40.9910 C   0  0  0  0  0  0  0  0  0  0  0  0
   46.3080   34.6270   42.0320 C   0  0  0  0  0  0  0  0  0  0  0  0
   47.6610   34.9140   41.8040 C   0  0  0  0  0  0  0  0  0  0  0  0
   48.2160   34.5680   40.5960 N   0  0  0  0  0  0  0  0  0  0  0  0
   47.5110   33.9750   39.6510 C   0  0  0  0  0  0  0  0  0  0  0  0
   46.2130   33.6850   39.8360 N   0  0  0  0  0  0  0  0  0  0  0  0
   48.1780   35.3960   42.6100 H   0  0  0  0  0  0  0  0  0  0  0  0
   48.0470   33.7420   38.7300 H   0  0  0  0  0  0  0  0  0  0  0  0
   45.6260   34.9480   43.2640 C   0  0  0  0  0  0  0  0  0  0  0  0
   45.0130   36.1720   43.4990 C   0  0  0  0  0  0  0  0  0  0  0  0
   44.5000   36.0510   44.7640 C   0  0  0  0  0  0  0  0  0  0  0  0
   44.7790   34.8320   45.2730 N   0  0  0  0  0  0  0  0  0  0  0  0
   45.4560   34.1940   44.3470 N   0  0  0  0  0  0  0  0  0  0  0  0
   44.9390   37.0450   42.8540 H   0  0  0  0  0  0  0  0  0  0  0  0
   43.9390   36.7670   45.3550 H   0  0  0  0  0  0  0  0  0  0  0  0
   44.5300   34.4300   46.2030 H   0  0  0  0  0  0  0  0  0  0  0  0
  1 30  1  0  0  0  0
  2  1  2  0  0  0  0
  3  1  1  0  0  0  0
  3  8  1  0  0  0  0
  4  3  1  0  0  0  0
  5  4  1  0  0  0  0
  5  6  1  0  0  0  0
  6  7  1  0  0  0  0
  6 13  1  0  0  0  0
  7  8  1  0  0  0  0
  7 15  1  0  0  0  0
  8 17  1  1  0  0  0
  9  4  1  0  0  0  0
 10  4  1  0  0  0  0
 11  5  1  0  0  0  0
 12  5  1  0  0  0  0
 14  6  1  0  0  0  0
 16  7  1  0  0  0  0
 18 29  2  0  0  0  0
 18 19  1  0  0  0  0
 19  8  1  0  0  0  0
 19 20  2  0  0  0  0
 20 22  1  0  0  0  0
 20 21  1  0  0  0  0
 22 23  1  0  0  0  0
 23 24  1  0  0  0  0
 25 23  1  0  0  0  0
 25 26  1  0  0  0  0
 27 25  2  0  0  0  0
 28 27  1  0  0  0  0
 28 22  2  0  0  0  0
 29 28  1  0  0  0  0
 31 30  1  0  0  0  0
 31 32  1  0  0  0  0
 32 39  1  0  0  0  0
 33 32  2  0  0  0  0
 33 37  1  0  0  0  0
 34 33  1  0  0  0  0
 35 36  1  0  0  0  0
 35 34  2  0  0  0  0
 36 31  2  0  0  0  0
 38 35  1  0  0  0  0
 39 40  1  0  0  0  0
 39 43  2  0  0  0  0
 40 41  2  0  0  0  0
 41 42  1  0  0  0  0
 41 45  1  0  0  0  0
 42 46  1  0  0  0  0
 43 42  1  0  0  0  0
 44 40  1  0  0  0  0
M  END
>  <minimizedAffinity>
-7.03161907

>  <minimizedRMSD>
0.627908587

$$$$
