
 OpenBabel03242516283D

 49 54  0  0  0  0  0  0  0  0999 V2000
   49.8840   30.3620   49.6950 C   0  0  0  0  0  0  0  0  0  0  0  0
   50.0740   31.6310   50.1640 N   0  0  0  0  0  0  0  0  0  0  0  0
   50.7960   31.9240   51.2410 C   0  0  0  0  0  0  0  0  0  0  0  0
   51.3650   30.9060   51.8950 N   0  0  0  0  0  0  0  0  0  0  0  0
   51.2310   29.6360   51.5050 C   0  0  0  0  0  0  0  0  0  0  0  0
   51.8240   28.5720   52.1720 C   0  0  0  0  0  0  0  0  0  0  0  0
   51.6810   27.2930   51.7580 C   0  0  0  0  0  0  0  0  0  0  0  0
   50.9350   27.0160   50.6540 C   0  0  0  0  0  0  0  0  0  0  0  0
   50.3120   28.0460   49.9390 C   0  0  0  0  0  0  0  0  0  0  0  0
   50.4690   29.3290   50.3700 C   0  0  0  0  0  0  0  0  0  0  0  0
   50.8800   32.9640   51.5260 H   0  0  0  0  0  0  0  0  0  0  0  0
   52.4080   28.8260   53.0430 H   0  0  0  0  0  0  0  0  0  0  0  0
   52.1700   26.4930   52.3180 H   0  0  0  0  0  0  0  0  0  0  0  0
   50.8550   25.9690   50.3680 H   0  0  0  0  0  0  0  0  0  0  0  0
   49.5010   27.6250   48.7750 C   0  0  0  0  0  0  0  0  0  0  0  0
   48.4300   27.8190   48.8480 H   0  0  0  0  0  0  0  0  0  0  0  0
   49.9880   27.7910   47.7920 H   0  0  0  0  0  0  0  0  0  0  0  0
   50.4190   25.3540   48.0620 C   0  0  0  0  0  0  0  0  0  0  0  0
   49.4460   26.1060   48.7100 C   0  0  0  0  0  0  0  0  0  0  0  0
   48.4240   25.3410   49.2860 C   0  0  0  0  0  0  0  0  0  0  0  0
   47.6390   25.9090   49.8070 H   0  0  0  0  0  0  0  0  0  0  0  0
   48.3970   23.9670   49.2100 C   0  0  0  0  0  0  0  0  0  0  0  0
   47.4870   23.1050   49.7100 N   0  0  0  0  0  0  0  0  0  0  0  0
   46.6220   23.3190   50.2570 H   0  0  0  0  0  0  0  0  0  0  0  0
   47.9040   21.8650   49.3720 C   0  0  0  0  0  0  0  0  0  0  0  0
   47.4480   20.9010   49.5860 H   0  0  0  0  0  0  0  0  0  0  0  0
   49.0900   21.9690   48.6500 C   0  0  0  0  0  0  0  0  0  0  0  0
   49.4080   23.3050   48.5450 C   0  0  0  0  0  0  0  0  0  0  0  0
   50.4470   23.9820   47.9520 C   0  0  0  0  0  0  0  0  0  0  0  0
   48.9760   30.0540   48.2650 S   0  0  0  0  0  0  0  0  0  0  0  0
   46.1470   32.5870   47.0130 C   0  0  0  0  0  0  0  0  0  0  0  0
   47.2880   31.8180   47.1160 C   0  0  0  0  0  0  0  0  0  0  0  0
   47.4930   30.9840   48.1850 C   0  0  0  0  0  0  0  0  0  0  0  0
   46.5520   30.8950   49.1850 C   0  0  0  0  0  0  0  0  0  0  0  0
   45.4070   31.6330   49.1330 C   0  0  0  0  0  0  0  0  0  0  0  0
   45.2230   32.4630   48.0520 C   0  0  0  0  0  0  0  0  0  0  0  0
   48.0390   31.8800   46.3310 H   0  0  0  0  0  0  0  0  0  0  0  0
   46.7430   30.2170   50.0300 H   0  0  0  0  0  0  0  0  0  0  0  0
   44.6560   31.5760   49.9100 H   0  0  0  0  0  0  0  0  0  0  0  0
   44.3150   33.0620   47.9910 H   0  0  0  0  0  0  0  0  0  0  0  0
   44.7410   35.2760   44.9780 C   0  0  0  0  0  0  0  0  0  0  0  0
   45.4760   35.1900   43.7770 C   0  0  0  0  0  0  0  0  0  0  0  0
   46.4540   34.2080   43.6690 C   0  0  0  0  0  0  0  0  0  0  0  0
   46.6880   33.3490   44.7150 N   0  0  0  0  0  0  0  0  0  0  0  0
   45.9450   33.4720   45.8650 C   0  0  0  0  0  0  0  0  0  0  0  0
   44.9780   34.4260   46.0010 N   0  0  0  0  0  0  0  0  0  0  0  0
   43.9970   36.0510   45.0100 H   0  0  0  0  0  0  0  0  0  0  0  0
   45.3020   35.8620   42.9440 H   0  0  0  0  0  0  0  0  0  0  0  0
   47.0650   34.0710   42.7840 H   0  0  0  0  0  0  0  0  0  0  0  0
  1  2  2  0  0  0  0
  1 10  1  0  0  0  0
  2  3  1  0  0  0  0
  3 11  1  0  0  0  0
  3  4  2  0  0  0  0
  5  4  1  0  0  0  0
  5  6  1  0  0  0  0
  6 12  1  0  0  0  0
  7  6  2  0  0  0  0
  7 13  1  0  0  0  0
  8  7  1  0  0  0  0
  9 10  1  0  0  0  0
  9  8  2  0  0  0  0
 10  5  2  0  0  0  0
 14  8  1  0  0  0  0
 15 16  1  0  0  0  0
 15  9  1  0  0  0  0
 17 15  1  0  0  0  0
 18 19  1  0  0  0  0
 19 15  1  0  0  0  0
 19 20  2  0  0  0  0
 20 21  1  0  0  0  0
 22 20  1  0  0  0  0
 22 23  1  0  0  0  0
 23 24  1  0  0  0  0
 25 26  1  0  0  0  0
 25 23  1  0  0  0  0
 27 25  2  0  0  0  0
 28 27  1  0  0  0  0
 28 22  2  0  0  0  0
 29 18  2  0  0  0  0
 29 28  1  0  0  0  0
 30  1  1  0  0  0  0
 31 32  2  0  0  0  0
 31 36  1  0  0  0  0
 32 33  1  0  0  0  0
 33 30  1  0  0  0  0
 33 34  2  0  0  0  0
 34 38  1  0  0  0  0
 35 34  1  0  0  0  0
 35 39  1  0  0  0  0
 36 35  2  0  0  0  0
 37 32  1  0  0  0  0
 40 36  1  0  0  0  0
 41 47  1  0  0  0  0
 41 46  1  0  0  0  0
 42 41  2  0  0  0  0
 43 42  1  0  0  0  0
 43 44  2  0  0  0  0
 44 45  1  0  0  0  0
 45 46  2  0  0  0  0
 45 31  1  0  0  0  0
 48 42  1  0  0  0  0
 49 43  1  0  0  0  0
M  END
>  <minimizedAffinity>
-6.95576334

>  <minimizedRMSD>
0.469677776

$$$$
