
 OpenBabel03252508383D

 44 48  0  0  0  0  0  0  0  0999 V2000
   45.0590   34.0000   40.7830 C   0  0  0  0  0  0  0  0  0  0  0  0
   44.0070   33.6340   39.9810 C   0  0  0  0  0  0  0  0  0  0  0  0
   44.3050   33.0610   38.7690 C   0  0  0  0  0  0  0  0  0  0  0  0
   45.5930   32.8390   38.3240 C   0  0  0  0  0  0  0  0  0  0  0  0
   46.6150   33.2190   39.1540 C   0  0  0  0  0  0  0  0  0  0  0  0
   46.3770   33.7970   40.3780 C   0  0  0  0  0  0  0  0  0  0  0  0
   43.4570   32.7810   38.1550 H   0  0  0  0  0  0  0  0  0  0  0  0
   45.7700   32.3850   37.3620 H   0  0  0  0  0  0  0  0  0  0  0  0
   47.6420   33.0540   38.8240 H   0  0  0  0  0  0  0  0  0  0  0  0
   40.7550   35.3560   40.8200 C   0  0  0  0  0  0  0  0  0  0  0  0
   42.0550   35.1370   40.3270 C   0  0  0  0  0  0  0  0  0  0  0  0
   42.6710   33.8830   40.4810 C   0  0  0  0  0  0  0  0  0  0  0  0
   41.9320   32.9490   41.1190 N   0  0  0  0  0  0  0  0  0  0  0  0
   40.7000   33.1740   41.5800 C   0  0  0  0  0  0  0  0  0  0  0  0
   40.1150   34.3590   41.4360 N   0  0  0  0  0  0  0  0  0  0  0  0
   40.1810   36.6270   40.6410 N   0  0  0  0  0  0  0  0  0  0  0  0
   42.5730   35.9430   39.8290 H   0  0  0  0  0  0  0  0  0  0  0  0
   40.1440   32.3990   42.0840 H   0  0  0  0  0  0  0  0  0  0  0  0
   39.3730   36.8800   41.2710 H   0  0  0  0  0  0  0  0  0  0  0  0
   40.5380   37.2980   39.9150 H   0  0  0  0  0  0  0  0  0  0  0  0
   47.5310   34.1650   41.1850 C   0  0  0  0  0  0  0  0  0  0  0  0
   48.1240   35.3550   40.8620 C   0  0  0  0  0  0  0  0  0  0  0  0
   49.2360   35.8810   41.5170 C   0  0  0  0  0  0  0  0  0  0  0  0
   49.7570   35.1430   42.5520 C   0  0  0  0  0  0  0  0  0  0  0  0
   49.1810   33.9500   42.8940 C   0  0  0  0  0  0  0  0  0  0  0  0
   48.0680   33.4460   42.2230 C   0  0  0  0  0  0  0  0  0  0  0  0
   47.7530   35.9900   40.0440 H   0  0  0  0  0  0  0  0  0  0  0  0
   49.6670   36.8210   41.2250 H   0  0  0  0  0  0  0  0  0  0  0  0
   50.6260   35.5440   43.0710 H   0  0  0  0  0  0  0  0  0  0  0  0
   49.5960   33.3700   43.7140 H   0  0  0  0  0  0  0  0  0  0  0  0
   47.6090   31.0170   41.8330 C   0  0  0  0  0  0  0  0  0  0  0  0
   47.4330   32.1740   42.5600 C   0  0  0  0  0  0  0  0  0  0  0  0
   46.5970   32.0590   43.6510 C   0  0  0  0  0  0  0  0  0  0  0  0
   46.4080   32.9230   44.2720 H   0  0  0  0  0  0  0  0  0  0  0  0
   45.9890   30.8410   43.9630 C   0  0  0  0  0  0  0  0  0  0  0  0
   45.1420   30.4720   44.9610 N   0  0  0  0  0  0  0  0  0  0  0  0
   44.7620   31.0820   45.7370 H   0  0  0  0  0  0  0  0  0  0  0  0
   44.8320   29.1530   44.8280 C   0  0  0  0  0  0  0  0  0  0  0  0
   44.1970   28.5080   45.4190 H   0  0  0  0  0  0  0  0  0  0  0  0
   45.4880   28.6450   43.7180 C   0  0  0  0  0  0  0  0  0  0  0  0
   46.1980   29.7120   43.2030 C   0  0  0  0  0  0  0  0  0  0  0  0
   47.0210   29.8060   42.1210 C   0  0  0  0  0  0  0  0  0  0  0  0
   44.6400   35.0980   43.1120 N   0  0  0  0  0  0  0  0  0  0  0  0
   44.8250   34.6040   42.0600 C   0  0  0  0  0  0  0  0  0  0  0  0
  1 44  1  0  0  0  0
  2 12  1  0  0  0  0
  2  1  2  0  0  0  0
  3  2  1  0  0  0  0
  4  3  2  0  0  0  0
  4  5  1  0  0  0  0
  5  6  2  0  0  0  0
  6  1  1  0  0  0  0
  6 21  1  0  0  0  0
  7  3  1  0  0  0  0
  8  4  1  0  0  0  0
  9  5  1  0  0  0  0
 10 15  1  0  0  0  0
 11 12  1  0  0  0  0
 11 10  2  0  0  0  0
 12 13  2  0  0  0  0
 13 14  1  0  0  0  0
 14 18  1  0  0  0  0
 15 14  2  0  0  0  0
 16 10  1  0  0  0  0
 16 19  1  0  0  0  0
 17 11  1  0  0  0  0
 20 16  1  0  0  0  0
 21 26  1  0  0  0  0
 22 21  2  0  0  0  0
 22 23  1  0  0  0  0
 23 24  2  0  0  0  0
 24 25  1  0  0  0  0
 24 29  1  0  0  0  0
 25 30  1  0  0  0  0
 26 32  1  0  0  0  0
 26 25  2  0  0  0  0
 27 22  1  0  0  0  0
 28 23  1  0  0  0  0
 31 42  2  0  0  0  0
 31 32  1  0  0  0  0
 32 33  2  0  0  0  0
 33 35  1  0  0  0  0
 33 34  1  0  0  0  0
 35 36  1  0  0  0  0
 36 37  1  0  0  0  0
 38 36  1  0  0  0  0
 38 39  1  0  0  0  0
 40 38  2  0  0  0  0
 41 40  1  0  0  0  0
 41 35  2  0  0  0  0
 42 41  1  0  0  0  0
 44 43  3  0  0  0  0
M  END
>  <minimizedAffinity>
-6.48374367

>  <minimizedRMSD>
0.865178764

$$$$
