
 OpenBabel03252503073D

 23 25  0  0  0  0  0  0  0  0999 V2000
   38.9140   29.4610   39.9880 C   0  0  0  0  0  3  0  0  0  0  0  0
   39.0590   30.5050   40.8810 C   0  0  0  0  0  0  0  0  0  0  0  0
   38.4970   30.3790   42.1570 C   0  0  0  0  0  0  0  0  0  0  0  0
   38.5480   31.1390   42.9470 H   0  0  0  0  0  0  0  0  0  0  0  0
   37.8020   29.2360   42.5450 C   0  0  0  0  0  0  0  0  0  0  0  0
   37.1760   28.8570   43.6770 N   0  0  0  0  0  0  0  0  0  0  0  0
   37.1100   29.4470   44.5580 H   0  0  0  0  0  0  0  0  0  0  0  0
   36.6590   27.6260   43.5050 C   0  0  0  0  0  0  0  0  0  0  0  0
   36.1030   27.1080   44.2910 H   0  0  0  0  0  0  0  0  0  0  0  0
   36.9410   27.1650   42.2300 C   0  0  0  0  0  3  0  0  0  0  0  0
   37.6670   28.2030   41.6390 C   0  0  0  0  0  0  0  0  0  0  0  0
   38.2230   28.3320   40.3830 C   0  0  0  0  0  3  0  0  0  0  0  0
   39.8170   34.0950   40.0900 C   0  0  0  0  0  0  0  0  0  0  0  0
   39.0870   32.9110   40.2210 C   0  0  0  0  0  0  0  0  0  0  0  0
   39.7360   31.7850   40.7090 C   0  0  0  0  0  0  0  0  0  0  0  0
   41.0600   31.8950   41.0360 N   0  0  0  0  0  0  0  0  0  0  0  0
   41.7340   33.0560   40.8970 C   0  0  0  0  0  0  0  0  0  0  0  0
   41.1220   34.1490   40.4270 N   0  0  0  0  0  0  0  0  0  0  0  0
   39.3390   34.9860   39.7130 H   0  0  0  0  0  0  0  0  0  0  0  0
   42.7810   33.0710   41.1760 H   0  0  0  0  0  0  0  0  0  0  0  0
   37.7010   32.8520   39.8620 C   0  0  0  0  0  0  0  0  0  0  0  0
   37.1330   33.9140   39.5190 O   0  0  0  0  0  0  0  0  0  0  0  0
   36.9530   32.0830   39.8030 H   0  0  0  0  0  0  0  0  0  0  0  0
  1 12  2  0  0  0  0
  1  2  1  0  0  0  0
  2  3  2  0  0  0  0
  3  5  1  0  0  0  0
  3  4  1  0  0  0  0
  5  6  1  0  0  0  0
  6  7  1  0  0  0  0
  8  6  1  0  0  0  0
  8  9  1  0  0  0  0
 10  8  2  0  0  0  0
 11 10  1  0  0  0  0
 11  5  2  0  0  0  0
 12 11  1  0  0  0  0
 13 14  2  0  0  0  0
 13 18  1  0  0  0  0
 14 15  1  0  0  0  0
 15  2  1  0  0  0  0
 15 16  2  0  0  0  0
 17 16  1  0  0  0  0
 17 20  1  0  0  0  0
 18 17  2  0  0  0  0
 19 13  1  0  0  0  0
 21 14  1  0  0  0  0
 22 21  2  0  0  0  0
 23 21  1  0  0  0  0
M  END
>  <minimizedAffinity>
-4.86358023

$$$$

 OpenBabel03252503073D

 23 25  0  0  0  0  0  0  0  0999 V2000
   37.2760   28.5660   43.0240 C   0  0  0  0  0  3  0  0  0  0  0  0
   37.5220   29.0230   41.7440 C   0  0  0  0  0  0  0  0  0  0  0  0
   37.5620   28.0940   40.6980 C   0  0  0  0  0  0  0  0  0  0  0  0
   37.7470   28.3390   39.6430 H   0  0  0  0  0  0  0  0  0  0  0  0
   37.3610   26.7340   40.9130 C   0  0  0  0  0  0  0  0  0  0  0  0
   37.3460   25.6480   40.1130 N   0  0  0  0  0  0  0  0  0  0  0  0
   37.5030   25.6690   39.0630 H   0  0  0  0  0  0  0  0  0  0  0  0
   37.1010   24.5540   40.8580 C   0  0  0  0  0  0  0  0  0  0  0  0
   37.0410   23.5520   40.4260 H   0  0  0  0  0  0  0  0  0  0  0  0
   36.9480   24.9080   42.1880 C   0  0  0  0  0  3  0  0  0  0  0  0
   37.1180   26.2950   42.2000 C   0  0  0  0  0  0  0  0  0  0  0  0
   37.0790   27.2140   43.2280 C   0  0  0  0  0  3  0  0  0  0  0  0
   39.0820   32.3610   41.0310 C   0  0  0  0  0  0  0  0  0  0  0  0
   38.9450   31.0600   41.5210 C   0  0  0  0  0  0  0  0  0  0  0  0
   37.7590   30.3830   41.2750 C   0  0  0  0  0  0  0  0  0  0  0  0
   36.7840   31.0280   40.5630 N   0  0  0  0  0  0  0  0  0  0  0  0
   36.9510   32.2860   40.1050 C   0  0  0  0  0  0  0  0  0  0  0  0
   38.0890   32.9520   40.3350 N   0  0  0  0  0  0  0  0  0  0  0  0
   39.9920   32.9120   41.2070 H   0  0  0  0  0  0  0  0  0  0  0  0
   36.1360   32.7360   39.5480 H   0  0  0  0  0  0  0  0  0  0  0  0
   39.9990   30.4320   42.2610 C   0  0  0  0  0  0  0  0  0  0  0  0
   40.7680   31.1610   42.9290 O   0  0  0  0  0  0  0  0  0  0  0  0
   40.3400   29.4250   42.4110 H   0  0  0  0  0  0  0  0  0  0  0  0
  1 12  1  0  0  0  0
  2  1  2  0  0  0  0
  3  5  2  0  0  0  0
  3  2  1  0  0  0  0
  4  3  1  0  0  0  0
  5 11  1  0  0  0  0
  6  8  1  0  0  0  0
  6  5  1  0  0  0  0
  7  6  1  0  0  0  0
  8 10  2  0  0  0  0
  9  8  1  0  0  0  0
 10 11  1  0  0  0  0
 11 12  2  0  0  0  0
 13 19  1  0  0  0  0
 13 14  1  0  0  0  0
 14 21  1  0  0  0  0
 15 14  2  0  0  0  0
 15  2  1  0  0  0  0
 16 15  1  0  0  0  0
 17 18  1  0  0  0  0
 17 16  2  0  0  0  0
 18 13  2  0  0  0  0
 20 17  1  0  0  0  0
 21 23  1  0  0  0  0
 21 22  2  0  0  0  0
M  END
>  <minimizedAffinity>
-4.85111189

$$$$

 OpenBabel03252503073D

 23 25  0  0  0  0  0  0  0  0999 V2000
   36.6590   31.1330   40.5180 C   0  0  0  0  0  3  0  0  0  0  0  0
   37.5700   30.3610   41.2110 C   0  0  0  0  0  0  0  0  0  0  0  0
   38.8390   30.8910   41.4690 C   0  0  0  0  0  0  0  0  0  0  0  0
   39.6420   30.3720   42.0090 H   0  0  0  0  0  0  0  0  0  0  0  0
   39.2030   32.1680   41.0490 C   0  0  0  0  0  0  0  0  0  0  0  0
   40.3240   32.9090   41.1580 N   0  0  0  0  0  0  0  0  0  0  0  0
   41.2130   32.5910   41.6420 H   0  0  0  0  0  0  0  0  0  0  0  0
   40.1270   34.0980   40.5580 C   0  0  0  0  0  0  0  0  0  0  0  0
   40.9000   34.8690   40.5180 H   0  0  0  0  0  0  0  0  0  0  0  0
   38.8470   34.1610   40.0340 C   0  0  0  0  0  3  0  0  0  0  0  0
   38.2780   32.9260   40.3570 C   0  0  0  0  0  0  0  0  0  0  0  0
   37.0290   32.3980   40.1050 C   0  0  0  0  0  3  0  0  0  0  0  0
   37.3070   26.6320   41.5460 C   0  0  0  0  0  0  0  0  0  0  0  0
   37.4560   27.8830   40.9430 C   0  0  0  0  0  0  0  0  0  0  0  0
   37.4240   29.0130   41.7480 C   0  0  0  0  0  0  0  0  0  0  0  0
   37.2480   28.8410   43.0940 N   0  0  0  0  0  0  0  0  0  0  0  0
   37.1080   27.6160   43.6430 C   0  0  0  0  0  0  0  0  0  0  0  0
   37.1360   26.5170   42.8800 N   0  0  0  0  0  0  0  0  0  0  0  0
   37.3280   25.7360   40.9460 H   0  0  0  0  0  0  0  0  0  0  0  0
   36.9730   27.5540   44.7170 H   0  0  0  0  0  0  0  0  0  0  0  0
   37.6370   28.0050   39.5260 C   0  0  0  0  0  0  0  0  0  0  0  0
   36.6190   28.0070   38.7970 O   0  0  0  0  0  0  0  0  0  0  0  0
   38.4770   28.1010   38.8640 H   0  0  0  0  0  0  0  0  0  0  0  0
  1  2  1  0  0  0  0
  2  3  2  0  0  0  0
  2 15  1  0  0  0  0
  3  4  1  0  0  0  0
  5  6  1  0  0  0  0
  5  3  1  0  0  0  0
  6  7  1  0  0  0  0
  8  6  1  0  0  0  0
  9  8  1  0  0  0  0
 10 11  1  0  0  0  0
 10  8  2  0  0  0  0
 11  5  2  0  0  0  0
 12 11  1  0  0  0  0
 12  1  2  0  0  0  0
 13 18  1  0  0  0  0
 14 13  2  0  0  0  0
 14 15  1  0  0  0  0
 15 16  2  0  0  0  0
 16 17  1  0  0  0  0
 17 20  1  0  0  0  0
 18 17  2  0  0  0  0
 19 13  1  0  0  0  0
 21 14  1  0  0  0  0
 22 21  2  0  0  0  0
 23 21  1  0  0  0  0
M  END
>  <minimizedAffinity>
-4.8339982

$$$$

 OpenBabel03252503073D

 23 25  0  0  0  0  0  0  0  0999 V2000
   37.2220   28.4250   43.1220 C   0  0  0  0  0  3  0  0  0  0  0  0
   37.8690   28.8300   41.9710 C   0  0  0  0  0  0  0  0  0  0  0  0
   38.1540   27.8740   40.9890 C   0  0  0  0  0  0  0  0  0  0  0  0
   38.6620   28.0790   40.0370 H   0  0  0  0  0  0  0  0  0  0  0  0
   37.8040   26.5360   41.1420 C   0  0  0  0  0  0  0  0  0  0  0  0
   37.9510   25.4330   40.3810 N   0  0  0  0  0  0  0  0  0  0  0  0
   38.4150   25.4160   39.4260 H   0  0  0  0  0  0  0  0  0  0  0  0
   37.4200   24.3770   41.0240 C   0  0  0  0  0  0  0  0  0  0  0  0
   37.4210   23.3700   40.6000 H   0  0  0  0  0  0  0  0  0  0  0  0
   36.9030   24.7750   42.2460 C   0  0  0  0  0  3  0  0  0  0  0  0
   37.1580   26.1480   42.3000 C   0  0  0  0  0  0  0  0  0  0  0  0
   36.8790   27.0940   43.2640 C   0  0  0  0  0  3  0  0  0  0  0  0
   38.0400   32.3230   40.6060 C   0  0  0  0  0  0  0  0  0  0  0  0
   37.5110   31.0730   40.9360 C   0  0  0  0  0  0  0  0  0  0  0  0
   38.3290   30.1590   41.5860 C   0  0  0  0  0  0  0  0  0  0  0  0
   39.6150   30.5340   41.8700 N   0  0  0  0  0  0  0  0  0  0  0  0
   40.0920   31.7510   41.5370 C   0  0  0  0  0  0  0  0  0  0  0  0
   39.3150   32.6420   40.9090 N   0  0  0  0  0  0  0  0  0  0  0  0
   37.4280   33.0530   40.1010 H   0  0  0  0  0  0  0  0  0  0  0  0
   41.1210   31.9800   41.7930 H   0  0  0  0  0  0  0  0  0  0  0  0
   36.1570   30.7330   40.6140 C   0  0  0  0  0  0  0  0  0  0  0  0
   35.9180   30.2650   39.4780 O   0  0  0  0  0  0  0  0  0  0  0  0
   35.2110   30.7750   41.1230 H   0  0  0  0  0  0  0  0  0  0  0  0
  1 12  1  0  0  0  0
  2  1  2  0  0  0  0
  3  5  2  0  0  0  0
  3  2  1  0  0  0  0
  4  3  1  0  0  0  0
  5 11  1  0  0  0  0
  6  8  1  0  0  0  0
  6  5  1  0  0  0  0
  7  6  1  0  0  0  0
  8 10  2  0  0  0  0
  9  8  1  0  0  0  0
 10 11  1  0  0  0  0
 11 12  2  0  0  0  0
 13 18  2  0  0  0  0
 13 14  1  0  0  0  0
 14 15  2  0  0  0  0
 15 16  1  0  0  0  0
 15  2  1  0  0  0  0
 17 20  1  0  0  0  0
 17 16  2  0  0  0  0
 18 17  1  0  0  0  0
 19 13  1  0  0  0  0
 21 14  1  0  0  0  0
 21 23  1  0  0  0  0
 22 21  2  0  0  0  0
M  END
>  <minimizedAffinity>
-4.79051638

$$$$

 OpenBabel03252503073D

 23 25  0  0  0  0  0  0  0  0999 V2000
   37.6860   29.6260   40.2040 C   0  0  0  0  0  3  0  0  0  0  0  0
   38.6450   29.6970   41.1960 C   0  0  0  0  0  0  0  0  0  0  0  0
   39.1200   30.9570   41.5790 C   0  0  0  0  0  0  0  0  0  0  0  0
   39.8780   31.1370   42.3530 H   0  0  0  0  0  0  0  0  0  0  0  0
   38.6540   32.1290   40.9910 C   0  0  0  0  0  0  0  0  0  0  0  0
   38.9280   33.4380   41.1600 N   0  0  0  0  0  0  0  0  0  0  0  0
   39.6300   33.8230   41.8570 H   0  0  0  0  0  0  0  0  0  0  0  0
   38.1740   34.1610   40.3110 C   0  0  0  0  0  0  0  0  0  0  0  0
   38.2230   35.2520   40.2660 H   0  0  0  0  0  0  0  0  0  0  0  0
   37.3740   33.3220   39.5520 C   0  0  0  0  0  3  0  0  0  0  0  0
   37.6950   32.0380   40.0000 C   0  0  0  0  0  0  0  0  0  0  0  0
   37.2310   30.7950   39.6270 C   0  0  0  0  0  3  0  0  0  0  0  0
   39.3380   26.9680   43.6780 C   0  0  0  0  0  0  0  0  0  0  0  0
   38.6510   27.9870   43.0130 C   0  0  0  0  0  0  0  0  0  0  0  0
   39.2790   28.6230   41.9510 C   0  0  0  0  0  0  0  0  0  0  0  0
   40.5420   28.2170   41.6120 N   0  0  0  0  0  0  0  0  0  0  0  0
   41.1750   27.2290   42.2770 C   0  0  0  0  0  0  0  0  0  0  0  0
   40.5820   26.6060   43.3030 N   0  0  0  0  0  0  0  0  0  0  0  0
   38.8750   26.4560   44.5060 H   0  0  0  0  0  0  0  0  0  0  0  0
   42.1740   26.9590   41.9540 H   0  0  0  0  0  0  0  0  0  0  0  0
   37.3300   28.3720   43.4110 C   0  0  0  0  0  0  0  0  0  0  0  0
   36.3930   27.5660   43.2110 O   0  0  0  0  0  0  0  0  0  0  0  0
   36.8850   29.2350   43.8710 H   0  0  0  0  0  0  0  0  0  0  0  0
  1  2  1  0  0  0  0
  2  3  2  0  0  0  0
  2 15  1  0  0  0  0
  3  4  1  0  0  0  0
  5  6  1  0  0  0  0
  5  3  1  0  0  0  0
  6  7  1  0  0  0  0
  8  6  1  0  0  0  0
  9  8  1  0  0  0  0
 10 11  1  0  0  0  0
 10  8  2  0  0  0  0
 11  5  2  0  0  0  0
 12 11  1  0  0  0  0
 12  1  2  0  0  0  0
 13 19  1  0  0  0  0
 14 21  1  0  0  0  0
 14 13  2  0  0  0  0
 15 14  1  0  0  0  0
 16 15  2  0  0  0  0
 16 17  1  0  0  0  0
 17 18  2  0  0  0  0
 18 13  1  0  0  0  0
 20 17  1  0  0  0  0
 21 23  1  0  0  0  0
 22 21  2  0  0  0  0
M  END
>  <minimizedAffinity>
-4.75509548

$$$$

 OpenBabel03252503073D

 23 25  0  0  0  0  0  0  0  0999 V2000
   34.4610   28.8210   38.5320 C   0  0  0  0  0  3  0  0  0  0  0  0
   35.7860   28.7220   38.9070 C   0  0  0  0  0  0  0  0  0  0  0  0
   36.7720   28.8400   37.9200 C   0  0  0  0  0  0  0  0  0  0  0  0
   37.8540   28.7780   38.0980 H   0  0  0  0  0  0  0  0  0  0  0  0
   36.4530   29.0540   36.5820 C   0  0  0  0  0  0  0  0  0  0  0  0
   37.1780   29.2020   35.4550 N   0  0  0  0  0  0  0  0  0  0  0  0
   38.2380   29.1740   35.4110 H   0  0  0  0  0  0  0  0  0  0  0  0
   36.3440   29.3860   34.4140 C   0  0  0  0  0  0  0  0  0  0  0  0
   36.7050   29.5300   33.3930 H   0  0  0  0  0  0  0  0  0  0  0  0
   35.0290   29.3620   34.8480 C   0  0  0  0  0  3  0  0  0  0  0  0
   35.1220   29.1500   36.2260 C   0  0  0  0  0  0  0  0  0  0  0  0
   34.1540   29.0330   37.2020 C   0  0  0  0  0  3  0  0  0  0  0  0
   37.1470   29.2330   42.3670 C   0  0  0  0  0  0  0  0  0  0  0  0
   36.5910   29.5390   41.1230 C   0  0  0  0  0  0  0  0  0  0  0  0
   36.3620   28.5030   40.2280 C   0  0  0  0  0  0  0  0  0  0  0  0
   36.6950   27.2330   40.6140 N   0  0  0  0  0  0  0  0  0  0  0  0
   37.2310   26.9740   41.8260 C   0  0  0  0  0  0  0  0  0  0  0  0
   37.4570   27.9620   42.6980 N   0  0  0  0  0  0  0  0  0  0  0  0
   37.3350   30.0180   43.0830 H   0  0  0  0  0  0  0  0  0  0  0  0
   37.4700   25.9440   42.0650 H   0  0  0  0  0  0  0  0  0  0  0  0
   36.2610   30.8880   40.7700 C   0  0  0  0  0  0  0  0  0  0  0  0
   37.1860   31.7310   40.7250 O   0  0  0  0  0  0  0  0  0  0  0  0
   35.3630   31.4190   40.5150 H   0  0  0  0  0  0  0  0  0  0  0  0
  1  2  1  0  0  0  0
  2 15  1  0  0  0  0
  3  4  1  0  0  0  0
  3  2  2  0  0  0  0
  5  3  1  0  0  0  0
  6  5  1  0  0  0  0
  7  6  1  0  0  0  0
  8 10  2  0  0  0  0
  8  6  1  0  0  0  0
  9  8  1  0  0  0  0
 10 11  1  0  0  0  0
 11  5  2  0  0  0  0
 11 12  1  0  0  0  0
 12  1  2  0  0  0  0
 13 18  1  0  0  0  0
 13 19  1  0  0  0  0
 14 13  2  0  0  0  0
 15 16  2  0  0  0  0
 15 14  1  0  0  0  0
 16 17  1  0  0  0  0
 17 20  1  0  0  0  0
 17 18  2  0  0  0  0
 21 14  1  0  0  0  0
 22 21  2  0  0  0  0
 23 21  1  0  0  0  0
M  END
>  <minimizedAffinity>
-4.55977058

$$$$

 OpenBabel03252503073D

 23 25  0  0  0  0  0  0  0  0999 V2000
   36.3230   29.0120   37.6310 C   0  0  0  0  0  3  0  0  0  0  0  0
   35.7200   28.8790   38.8660 C   0  0  0  0  0  0  0  0  0  0  0  0
   34.3220   28.8510   38.9300 C   0  0  0  0  0  0  0  0  0  0  0  0
   33.7340   28.7490   39.8520 H   0  0  0  0  0  0  0  0  0  0  0  0
   33.5310   28.9530   37.7890 C   0  0  0  0  0  0  0  0  0  0  0  0
   32.2010   28.9560   37.5640 N   0  0  0  0  0  0  0  0  0  0  0  0
   31.4610   28.8690   38.3200 H   0  0  0  0  0  0  0  0  0  0  0  0
   31.9760   29.0850   36.2430 C   0  0  0  0  0  0  0  0  0  0  0  0
   30.9690   29.1120   35.8200 H   0  0  0  0  0  0  0  0  0  0  0  0
   33.1790   29.1720   35.5620 C   0  0  0  0  0  3  0  0  0  0  0  0
   34.1510   29.0860   36.5620 C   0  0  0  0  0  0  0  0  0  0  0  0
   35.5290   29.1130   36.5050 C   0  0  0  0  0  3  0  0  0  0  0  0
   37.2900   29.6420   42.1880 C   0  0  0  0  0  0  0  0  0  0  0  0
   36.7160   29.8580   40.9330 C   0  0  0  0  0  0  0  0  0  0  0  0
   36.3270   28.7550   40.1860 C   0  0  0  0  0  0  0  0  0  0  0  0
   36.5280   27.5110   40.7200 N   0  0  0  0  0  0  0  0  0  0  0  0
   37.0850   27.3400   41.9370 C   0  0  0  0  0  0  0  0  0  0  0  0
   37.4660   28.3930   42.6690 N   0  0  0  0  0  0  0  0  0  0  0  0
   37.6020   30.4800   42.7920 H   0  0  0  0  0  0  0  0  0  0  0  0
   37.2140   26.3260   42.2970 H   0  0  0  0  0  0  0  0  0  0  0  0
   36.5300   31.1840   40.4220 C   0  0  0  0  0  0  0  0  0  0  0  0
   37.3860   32.0520   40.7050 O   0  0  0  0  0  0  0  0  0  0  0  0
   35.7950   31.6780   39.8140 H   0  0  0  0  0  0  0  0  0  0  0  0
  1  2  1  0  0  0  0
  2  3  2  0  0  0  0
  2 15  1  0  0  0  0
  3  4  1  0  0  0  0
  5  3  1  0  0  0  0
  6  5  1  0  0  0  0
  6  7  1  0  0  0  0
  8  6  1  0  0  0  0
  9  8  1  0  0  0  0
 10  8  2  0  0  0  0
 10 11  1  0  0  0  0
 11  5  2  0  0  0  0
 12 11  1  0  0  0  0
 12  1  2  0  0  0  0
 13 18  1  0  0  0  0
 13 19  1  0  0  0  0
 14 13  2  0  0  0  0
 15 16  2  0  0  0  0
 15 14  1  0  0  0  0
 16 17  1  0  0  0  0
 17 20  1  0  0  0  0
 17 18  2  0  0  0  0
 21 22  2  0  0  0  0
 21 14  1  0  0  0  0
 23 21  1  0  0  0  0
M  END
>  <minimizedAffinity>
-4.46552801

$$$$

 OpenBabel03252503073D

 23 25  0  0  0  0  0  0  0  0999 V2000
   36.5890   29.8040   41.3240 C   0  0  0  0  0  3  0  0  0  0  0  0
   37.8760   29.3210   41.4530 C   0  0  0  0  0  0  0  0  0  0  0  0
   38.9430   30.1460   41.0780 C   0  0  0  0  0  0  0  0  0  0  0  0
   40.0050   29.8710   41.1360 H   0  0  0  0  0  0  0  0  0  0  0  0
   38.7400   31.4310   40.5820 C   0  0  0  0  0  0  0  0  0  0  0  0
   39.5590   32.4140   40.1570 N   0  0  0  0  0  0  0  0  0  0  0  0
   40.6190   32.3490   40.1320 H   0  0  0  0  0  0  0  0  0  0  0  0
   38.8190   33.4710   39.7740 C   0  0  0  0  0  0  0  0  0  0  0  0
   39.2660   34.3920   39.3910 H   0  0  0  0  0  0  0  0  0  0  0  0
   37.4720   33.1970   39.9460 C   0  0  0  0  0  3  0  0  0  0  0  0
   37.4460   31.8970   40.4590 C   0  0  0  0  0  0  0  0  0  0  0  0
   36.3990   31.0800   40.8300 C   0  0  0  0  0  3  0  0  0  0  0  0
   38.6770   25.6660   41.7490 C   0  0  0  0  0  0  0  0  0  0  0  0
   38.2070   26.8610   41.1990 C   0  0  0  0  0  0  0  0  0  0  0  0
   38.3360   28.0260   41.9420 C   0  0  0  0  0  0  0  0  0  0  0  0
   38.9180   27.9410   43.1770 N   0  0  0  0  0  0  0  0  0  0  0  0
   39.3610   26.7690   43.6770 C   0  0  0  0  0  0  0  0  0  0  0  0
   39.2430   25.6370   42.9730 N   0  0  0  0  0  0  0  0  0  0  0  0
   38.5910   24.7440   41.1950 H   0  0  0  0  0  0  0  0  0  0  0  0
   39.8120   26.7760   44.6630 H   0  0  0  0  0  0  0  0  0  0  0  0
   37.6050   26.8910   39.8990 C   0  0  0  0  0  0  0  0  0  0  0  0
   36.4250   26.4890   39.7830 O   0  0  0  0  0  0  0  0  0  0  0  0
   37.9160   27.1890   38.9140 H   0  0  0  0  0  0  0  0  0  0  0  0
  1  2  1  0  0  0  0
  2 15  1  0  0  0  0
  3  4  1  0  0  0  0
  3  2  2  0  0  0  0
  5  3  1  0  0  0  0
  6  5  1  0  0  0  0
  7  6  1  0  0  0  0
  8 10  2  0  0  0  0
  8  6  1  0  0  0  0
  9  8  1  0  0  0  0
 10 11  1  0  0  0  0
 11  5  2  0  0  0  0
 11 12  1  0  0  0  0
 12  1  2  0  0  0  0
 13 18  1  0  0  0  0
 14 13  2  0  0  0  0
 14 15  1  0  0  0  0
 15 16  2  0  0  0  0
 16 17  1  0  0  0  0
 17 20  1  0  0  0  0
 18 17  2  0  0  0  0
 19 13  1  0  0  0  0
 21 14  1  0  0  0  0
 22 21  2  0  0  0  0
 23 21  1  0  0  0  0
M  END
>  <minimizedAffinity>
-4.46068048

$$$$

 OpenBabel03252503073D

 23 25  0  0  0  0  0  0  0  0999 V2000
   39.9500   28.7950   40.7840 C   0  0  0  0  0  3  0  0  0  0  0  0
   39.6530   30.0530   41.2700 C   0  0  0  0  0  0  0  0  0  0  0  0
   38.6420   30.1790   42.2300 C   0  0  0  0  0  0  0  0  0  0  0  0
   38.3210   31.1240   42.6880 H   0  0  0  0  0  0  0  0  0  0  0  0
   37.9350   29.0780   42.7030 C   0  0  0  0  0  0  0  0  0  0  0  0
   36.9410   28.9140   43.5990 N   0  0  0  0  0  0  0  0  0  0  0  0
   36.4890   29.7000   44.1500 H   0  0  0  0  0  0  0  0  0  0  0  0
   36.6240   27.6070   43.6730 C   0  0  0  0  0  0  0  0  0  0  0  0
   35.8420   27.2300   44.3370 H   0  0  0  0  0  0  0  0  0  0  0  0
   37.4210   26.8740   42.8100 C   0  0  0  0  0  3  0  0  0  0  0  0
   38.2450   27.8270   42.2050 C   0  0  0  0  0  0  0  0  0  0  0  0
   39.2420   27.7080   41.2600 C   0  0  0  0  0  3  0  0  0  0  0  0
   41.9720   32.9960   41.0490 C   0  0  0  0  0  0  0  0  0  0  0  0
   41.4820   31.7440   41.4260 C   0  0  0  0  0  0  0  0  0  0  0  0
   40.2480   31.3410   40.9340 C   0  0  0  0  0  0  0  0  0  0  0  0
   39.5760   32.1960   40.1030 N   0  0  0  0  0  0  0  0  0  0  0  0
   40.0810   33.3990   39.7590 C   0  0  0  0  0  0  0  0  0  0  0  0
   41.2680   33.8010   40.2260 N   0  0  0  0  0  0  0  0  0  0  0  0
   42.9280   33.3360   41.4160 H   0  0  0  0  0  0  0  0  0  0  0  0
   39.4940   34.0250   39.0960 H   0  0  0  0  0  0  0  0  0  0  0  0
   42.2290   30.8890   42.3010 C   0  0  0  0  0  0  0  0  0  0  0  0
   42.2470   31.1620   43.5230 O   0  0  0  0  0  0  0  0  0  0  0  0
   42.8280   30.0050   42.1850 H   0  0  0  0  0  0  0  0  0  0  0  0
  1 12  2  0  0  0  0
  1  2  1  0  0  0  0
  2  3  2  0  0  0  0
  3  4  1  0  0  0  0
  3  5  1  0  0  0  0
  5  6  1  0  0  0  0
  6  8  1  0  0  0  0
  6  7  1  0  0  0  0
  8  9  1  0  0  0  0
 10  8  2  0  0  0  0
 11  5  2  0  0  0  0
 11 10  1  0  0  0  0
 12 11  1  0  0  0  0
 13 19  1  0  0  0  0
 13 14  1  0  0  0  0
 14 21  1  0  0  0  0
 15  2  1  0  0  0  0
 15 14  2  0  0  0  0
 16 15  1  0  0  0  0
 17 16  2  0  0  0  0
 17 18  1  0  0  0  0
 18 13  2  0  0  0  0
 20 17  1  0  0  0  0
 21 22  2  0  0  0  0
 23 21  1  0  0  0  0
M  END
>  <minimizedAffinity>
-4.420609

$$$$
