
 OpenBabel03252508533D

 46 50  0  0  1  0  0  0  0  0999 V2000
   43.2960   34.4320   40.7170 C   0  0  0  0  0  0  0  0  0  0  0  0
   43.2700   35.6110   40.2280 O   0  0  0  0  0  0  0  0  0  0  0  0
   41.9160   34.0290   40.4890 N   0  0  0  0  0  0  0  0  0  0  0  0
   41.5120   34.0240   39.1030 C   0  0  0  0  0  0  0  0  0  0  0  0
   40.7440   35.3490   38.9040 C   0  0  0  0  0  0  0  0  0  0  0  0
   39.9940   35.6160   40.2210 C   0  0  0  0  0  0  0  0  0  0  0  0
   39.6230   34.3090   40.8840 C   0  0  0  0  0  0  0  0  0  0  0  0
   40.8930   33.6350   41.4390 C   0  0  1  0  0  0  0  0  0  0  0  0
   40.8810   33.1610   38.8360 H   0  0  0  0  0  0  0  0  0  0  0  0
   42.3520   34.0660   38.3830 H   0  0  0  0  0  0  0  0  0  0  0  0
   40.0050   35.1760   38.1180 H   0  0  0  0  0  0  0  0  0  0  0  0
   41.4680   36.1540   38.7230 H   0  0  0  0  0  0  0  0  0  0  0  0
   40.6610   36.1580   40.9160 H   0  0  0  0  0  0  0  0  0  0  0  0
   39.0610   36.1750   40.0350 H   0  0  0  0  0  0  0  0  0  0  0  0
   38.8540   34.4580   41.6340 H   0  0  0  0  0  0  0  0  0  0  0  0
   39.2700   33.5980   40.0970 H   0  0  0  0  0  0  0  0  0  0  0  0
   41.1170   34.0600   42.4200 H   0  0  0  0  0  0  0  0  0  0  0  0
   39.6930   31.4600   40.8600 C   0  0  0  0  0  3  0  0  0  0  0  0
   40.7260   32.1600   41.4290 C   0  0  0  0  0  0  0  0  0  0  0  0
   41.7040   31.4110   42.0510 C   0  0  0  0  0  0  0  0  0  0  0  0
   42.5870   31.7810   42.5510 H   0  0  0  0  0  0  0  0  0  0  0  0
   41.6570   30.0160   42.1050 C   0  0  0  0  0  0  0  0  0  0  0  0
   42.4190   29.0270   42.6130 N   0  0  0  0  0  0  0  0  0  0  0  0
   43.3110   29.1940   43.1310 H   0  0  0  0  0  0  0  0  0  0  0  0
   41.8640   27.8290   42.3560 C   0  0  0  0  0  0  0  0  0  0  0  0
   42.3020   26.8720   42.6730 H   0  0  0  0  0  0  0  0  0  0  0  0
   40.6880   27.9960   41.6530 C   0  0  0  0  0  3  0  0  0  0  0  0
   40.5790   29.3620   41.5070 C   0  0  0  0  0  0  0  0  0  0  0  0
   39.5910   30.0940   40.8810 C   0  0  0  0  0  3  0  0  0  0  0  0
   44.3610   33.8010   41.2770 O   0  0  0  0  0  0  0  0  0  0  0  0
   45.6900   34.1050   41.1210 C   0  0  0  0  0  0  0  0  0  0  0  0
   46.3430   34.7240   42.1900 C   0  0  0  0  0  0  0  0  0  0  0  0
   47.7000   35.0250   42.0050 C   0  0  0  0  0  0  0  0  0  0  0  0
   48.2920   34.7000   40.8090 N   0  0  0  0  0  0  0  0  0  0  0  0
   47.6200   34.1150   39.8360 C   0  0  0  0  0  0  0  0  0  0  0  0
   46.3200   33.8120   39.9790 N   0  0  0  0  0  0  0  0  0  0  0  0
   48.1890   35.5000   42.8320 H   0  0  0  0  0  0  0  0  0  0  0  0
   48.1840   33.9000   38.9280 H   0  0  0  0  0  0  0  0  0  0  0  0
   45.6240   35.0220   43.4060 C   0  0  0  0  0  0  0  0  0  0  0  0
   44.9960   36.2390   43.6410 C   0  0  0  0  0  0  0  0  0  0  0  0
   44.4470   36.0960   44.8880 C   0  0  0  0  0  0  0  0  0  0  0  0
   44.7180   34.8710   45.3870 N   0  0  0  0  0  0  0  0  0  0  0  0
   45.4260   34.2510   44.4720 N   0  0  0  0  0  0  0  0  0  0  0  0
   44.9350   37.1210   43.0070 H   0  0  0  0  0  0  0  0  0  0  0  0
   43.8640   36.8000   45.4730 H   0  0  0  0  0  0  0  0  0  0  0  0
   44.4450   34.4530   46.3040 H   0  0  0  0  0  0  0  0  0  0  0  0
  1 30  1  0  0  0  0
  2  1  2  0  0  0  0
  3  1  1  0  0  0  0
  3  8  1  0  0  0  0
  4  3  1  0  0  0  0
  5  4  1  0  0  0  0
  5  6  1  0  0  0  0
  6  7  1  0  0  0  0
  6 13  1  0  0  0  0
  7  8  1  0  0  0  0
  7 15  1  0  0  0  0
  8 17  1  1  0  0  0
  9  4  1  0  0  0  0
 10  4  1  0  0  0  0
 11  5  1  0  0  0  0
 12  5  1  0  0  0  0
 14  6  1  0  0  0  0
 16  7  1  0  0  0  0
 18 29  2  0  0  0  0
 18 19  1  0  0  0  0
 19  8  1  0  0  0  0
 19 20  2  0  0  0  0
 20 22  1  0  0  0  0
 20 21  1  0  0  0  0
 22 23  1  0  0  0  0
 23 24  1  0  0  0  0
 25 23  1  0  0  0  0
 25 26  1  0  0  0  0
 27 25  2  0  0  0  0
 28 27  1  0  0  0  0
 28 22  2  0  0  0  0
 29 28  1  0  0  0  0
 31 30  1  0  0  0  0
 31 32  1  0  0  0  0
 32 39  1  0  0  0  0
 33 32  2  0  0  0  0
 33 37  1  0  0  0  0
 34 33  1  0  0  0  0
 35 36  1  0  0  0  0
 35 34  2  0  0  0  0
 36 31  2  0  0  0  0
 38 35  1  0  0  0  0
 39 40  1  0  0  0  0
 39 43  2  0  0  0  0
 40 41  2  0  0  0  0
 41 42  1  0  0  0  0
 41 45  1  0  0  0  0
 42 46  1  0  0  0  0
 43 42  1  0  0  0  0
 44 40  1  0  0  0  0
M  END
>  <minimizedAffinity>
-6.81088543

>  <minimizedRMSD>
0.612283587

$$$$
