
 OpenBabel03252503053D

 23 25  0  0  0  0  0  0  0  0999 V2000
   46.1940   34.8370   43.3740 C   0  0  0  0  0  0  0  0  0  0  0  0
   46.8530   34.1320   42.3860 C   0  0  0  0  0  0  0  0  0  0  0  0
   46.2090   33.9390   41.1580 C   0  0  0  0  0  0  0  0  0  0  0  0
   46.6330   33.3980   40.3010 H   0  0  0  0  0  0  0  0  0  0  0  0
   44.9330   34.4370   40.9100 C   0  0  0  0  0  0  0  0  0  0  0  0
   44.1010   34.4010   39.8500 N   0  0  0  0  0  0  0  0  0  0  0  0
   44.3200   33.9270   38.9250 H   0  0  0  0  0  0  0  0  0  0  0  0
   42.9650   35.0550   40.1580 C   0  0  0  0  0  0  0  0  0  0  0  0
   42.1380   35.1590   39.4510 H   0  0  0  0  0  0  0  0  0  0  0  0
   43.0330   35.5430   41.4520 C   0  0  0  0  0  0  0  0  0  0  0  0
   44.2900   35.1390   41.9100 C   0  0  0  0  0  0  0  0  0  0  0  0
   44.9280   35.3260   43.1180 C   0  0  0  0  0  0  0  0  0  0  0  0
   50.5650   33.5880   42.2790 C   0  0  0  0  0  0  0  0  0  0  0  0
   49.3410   34.2600   42.2440 C   0  0  0  0  0  0  0  0  0  0  0  0
   48.1770   33.5220   42.4080 C   0  0  0  0  0  0  0  0  0  0  0  0
   48.2920   32.1710   42.5960 N   0  0  0  0  0  0  0  0  0  0  0  0
   49.4920   31.5550   42.6250 C   0  0  0  0  0  0  0  0  0  0  0  0
   50.6230   32.2540   42.4680 N   0  0  0  0  0  0  0  0  0  0  0  0
   51.4860   34.1360   42.1550 H   0  0  0  0  0  0  0  0  0  0  0  0
   49.5080   30.4820   42.7790 H   0  0  0  0  0  0  0  0  0  0  0  0
   49.2790   35.6770   42.0430 C   0  0  0  0  0  0  0  0  0  0  0  0
   49.1220   36.1040   40.8760 O   0  0  0  0  0  0  0  0  0  0  0  0
   49.3370   36.5470   42.6710 H   0  0  0  0  0  0  0  0  0  0  0  0
  2 15  1  0  0  0  0
  2  1  2  0  0  0  0
  3  2  1  0  0  0  0
  4  3  1  0  0  0  0
  5  3  2  0  0  0  0
  5 11  1  0  0  0  0
  6  8  1  0  0  0  0
  6  5  1  0  0  0  0
  7  6  1  0  0  0  0
  8 10  2  0  0  0  0
  9  8  1  0  0  0  0
 10 11  1  0  0  0  0
 11 12  2  0  0  0  0
 12  1  1  0  0  0  0
 13 18  1  0  0  0  0
 14 13  2  0  0  0  0
 14 15  1  0  0  0  0
 15 16  2  0  0  0  0
 16 17  1  0  0  0  0
 17 20  1  0  0  0  0
 18 17  2  0  0  0  0
 19 13  1  0  0  0  0
 21 14  1  0  0  0  0
 21 23  1  0  0  0  0
 22 21  2  0  0  0  0
M  END
>  <minimizedAffinity>
-5.11313105

>  <minimizedRMSD>
5.86406755

$$$$
