
 OpenBabel03252508533D

 46 50  0  0  1  0  0  0  0  0999 V2000
   43.2950   34.4280   40.6210 C   0  0  0  0  0  0  0  0  0  0  0  0
   43.3290   35.5320   39.9810 O   0  0  0  0  0  0  0  0  0  0  0  0
   41.8890   34.0830   40.4660 N   0  0  0  0  0  0  0  0  0  0  0  0
   41.4580   33.9210   39.0980 C   0  0  0  0  0  0  0  0  0  0  0  0
   40.7650   35.2520   38.7350 C   0  0  0  0  0  0  0  0  0  0  0  0
   40.0590   35.7360   40.0150 C   0  0  0  0  0  0  0  0  0  0  0  0
   39.6250   34.5530   40.8490 C   0  0  0  0  0  0  0  0  0  0  0  0
   40.8640   33.8810   41.4730 C   0  0  1  0  0  0  0  0  0  0  0  0
   40.7710   33.0710   38.9550 H   0  0  0  0  0  0  0  0  0  0  0  0
   42.2830   33.8170   38.3690 H   0  0  0  0  0  0  0  0  0  0  0  0
   40.0010   35.0240   37.9890 H   0  0  0  0  0  0  0  0  0  0  0  0
   41.5300   35.9810   38.4410 H   0  0  0  0  0  0  0  0  0  0  0  0
   40.7710   36.3230   40.6240 H   0  0  0  0  0  0  0  0  0  0  0  0
   39.1570   36.3220   39.7680 H   0  0  0  0  0  0  0  0  0  0  0  0
   38.8820   34.8450   41.5830 H   0  0  0  0  0  0  0  0  0  0  0  0
   39.2150   33.7670   40.1690 H   0  0  0  0  0  0  0  0  0  0  0  0
   41.1330   34.4170   42.3860 H   0  0  0  0  0  0  0  0  0  0  0  0
   41.5380   31.4780   42.0030 C   0  0  0  0  0  3  0  0  0  0  0  0
   40.6110   32.4300   41.6600 C   0  0  0  0  0  0  0  0  0  0  0  0
   39.3180   31.9870   41.4760 C   0  0  0  0  0  0  0  0  0  0  0  0
   38.4590   32.5820   41.2060 H   0  0  0  0  0  0  0  0  0  0  0  0
   38.9590   30.6450   41.6250 C   0  0  0  0  0  0  0  0  0  0  0  0
   37.8310   29.9130   41.5200 N   0  0  0  0  0  0  0  0  0  0  0  0
   36.9020   30.3190   41.2680 H   0  0  0  0  0  0  0  0  0  0  0  0
   38.0880   28.6190   41.7850 C   0  0  0  0  0  0  0  0  0  0  0  0
   37.3230   27.8290   41.7620 H   0  0  0  0  0  0  0  0  0  0  0  0
   39.4250   28.4540   42.0790 C   0  0  0  0  0  3  0  0  0  0  0  0
   39.9470   29.7260   41.9740 C   0  0  0  0  0  0  0  0  0  0  0  0
   41.2470   30.1500   42.1640 C   0  0  0  0  0  3  0  0  0  0  0  0
   44.3320   33.8120   41.2470 O   0  0  0  0  0  0  0  0  0  0  0  0
   45.6710   34.0750   41.1020 C   0  0  0  0  0  0  0  0  0  0  0  0
   46.3320   34.6810   42.1730 C   0  0  0  0  0  0  0  0  0  0  0  0
   47.7000   34.9400   41.9990 C   0  0  0  0  0  0  0  0  0  0  0  0
   48.2930   34.5900   40.8100 N   0  0  0  0  0  0  0  0  0  0  0  0
   47.6120   34.0190   39.8350 C   0  0  0  0  0  0  0  0  0  0  0  0
   46.3020   33.7560   39.9670 N   0  0  0  0  0  0  0  0  0  0  0  0
   48.1960   35.4050   42.8280 H   0  0  0  0  0  0  0  0  0  0  0  0
   48.1780   33.7810   38.9330 H   0  0  0  0  0  0  0  0  0  0  0  0
   45.6120   35.0080   43.3810 C   0  0  0  0  0  0  0  0  0  0  0  0
   45.0110   36.2420   43.5990 C   0  0  0  0  0  0  0  0  0  0  0  0
   44.4490   36.1240   44.8430 C   0  0  0  0  0  0  0  0  0  0  0  0
   44.6880   34.8980   45.3560 N   0  0  0  0  0  0  0  0  0  0  0  0
   45.3880   34.2520   44.4530 N   0  0  0  0  0  0  0  0  0  0  0  0
   44.9760   37.1180   42.9560 H   0  0  0  0  0  0  0  0  0  0  0  0
   43.8800   36.8470   45.4170 H   0  0  0  0  0  0  0  0  0  0  0  0
   44.3980   34.4960   46.2750 H   0  0  0  0  0  0  0  0  0  0  0  0
  1 30  1  0  0  0  0
  2  1  2  0  0  0  0
  3  1  1  0  0  0  0
  3  8  1  0  0  0  0
  4  3  1  0  0  0  0
  5  4  1  0  0  0  0
  5  6  1  0  0  0  0
  6 13  1  0  0  0  0
  6  7  1  0  0  0  0
  7  8  1  0  0  0  0
  7 15  1  0  0  0  0
  8 19  1  0  0  0  0
  8 17  1  1  0  0  0
  9  4  1  0  0  0  0
 10  4  1  0  0  0  0
 11  5  1  0  0  0  0
 12  5  1  0  0  0  0
 14  6  1  0  0  0  0
 16  7  1  0  0  0  0
 18 29  1  0  0  0  0
 19 18  2  0  0  0  0
 20 22  2  0  0  0  0
 20 19  1  0  0  0  0
 21 20  1  0  0  0  0
 22 28  1  0  0  0  0
 23 22  1  0  0  0  0
 23 25  1  0  0  0  0
 24 23  1  0  0  0  0
 25 27  2  0  0  0  0
 26 25  1  0  0  0  0
 28 27  1  0  0  0  0
 28 29  2  0  0  0  0
 31 30  1  0  0  0  0
 31 32  1  0  0  0  0
 32 39  1  0  0  0  0
 33 32  2  0  0  0  0
 33 37  1  0  0  0  0
 34 33  1  0  0  0  0
 35 36  1  0  0  0  0
 35 34  2  0  0  0  0
 36 31  2  0  0  0  0
 38 35  1  0  0  0  0
 39 40  1  0  0  0  0
 39 43  2  0  0  0  0
 40 41  2  0  0  0  0
 41 42  1  0  0  0  0
 41 45  1  0  0  0  0
 42 46  1  0  0  0  0
 43 42  1  0  0  0  0
 44 40  1  0  0  0  0
M  END
>  <minimizedAffinity>
-7.2180829

>  <minimizedRMSD>
1.01836264

$$$$
