
 OpenBabel03242518113D

 34 37  0  0  0  0  0  0  0  0999 V2000
   49.2070   33.1000   41.6920 C   0  0  0  0  0  0  0  0  0  0  0  0
   49.0560   32.4160   40.4410 C   0  0  0  0  0  0  0  0  0  0  0  0
   50.1020   31.7310   39.9190 C   0  0  0  0  0  0  0  0  0  0  0  0
   51.3460   31.7260   40.6700 C   0  0  0  0  0  0  0  0  0  0  0  0
   50.9980   32.7170   42.1380 S   0  0  0  0  0  0  0  0  0  0  0  0
   48.0750   32.5270   40.0310 H   0  0  0  0  0  0  0  0  0  0  0  0
   50.0120   31.2130   38.9850 H   0  0  0  0  0  0  0  0  0  0  0  0
   53.2170   30.1060   40.9930 C   0  0  0  0  0  0  0  0  0  0  0  0
   52.5410   31.0410   40.2380 C   0  0  0  0  0  0  0  0  0  0  0  0
   52.9480   31.4200   38.9740 C   0  0  0  0  0  0  0  0  0  0  0  0
   52.4510   32.1490   38.3450 H   0  0  0  0  0  0  0  0  0  0  0  0
   54.0810   30.8680   38.3910 C   0  0  0  0  0  0  0  0  0  0  0  0
   54.7230   31.0160   37.2190 N   0  0  0  0  0  0  0  0  0  0  0  0
   54.4240   31.6630   36.4580 H   0  0  0  0  0  0  0  0  0  0  0  0
   55.8040   30.2010   37.1840 C   0  0  0  0  0  0  0  0  0  0  0  0
   56.5270   30.0720   36.4030 H   0  0  0  0  0  0  0  0  0  0  0  0
   55.8390   29.5120   38.3890 C   0  0  0  0  0  0  0  0  0  0  0  0
   54.7660   29.9250   39.1420 C   0  0  0  0  0  0  0  0  0  0  0  0
   54.3370   29.5670   40.4000 C   0  0  0  0  0  0  0  0  0  0  0  0
   48.4050   33.9010   42.5580 C   0  0  0  0  0  0  0  0  0  0  0  0
   47.5860   33.2780   42.9810 H   0  0  0  0  0  0  0  0  0  0  0  0
   49.0090   34.2460   43.4250 H   0  0  0  0  0  0  0  0  0  0  0  0
   47.7890   35.1310   41.9540 C   0  0  0  0  0  0  0  0  0  0  0  0
   48.1590   35.2870   40.9450 H   0  0  0  0  0  0  0  0  0  0  0  0
   48.0900   36.0590   42.5230 H   0  0  0  0  0  0  0  0  0  0  0  0
   46.3420   35.0430   42.0190 C   0  0  0  0  0  0  0  0  0  0  0  0
   45.6260   35.6010   43.0780 C   0  0  0  0  0  0  0  0  0  0  0  0
   44.2390   35.4900   43.0940 C   0  0  0  0  0  0  0  0  0  0  0  0
   43.6490   34.8310   42.0580 N   0  0  0  0  0  0  0  0  0  0  0  0
   44.3640   34.3030   41.0510 C   0  0  0  0  0  0  0  0  0  0  0  0
   45.6900   34.4100   41.0370 N   0  0  0  0  0  0  0  0  0  0  0  0
   46.0970   36.1130   43.8810 H   0  0  0  0  0  0  0  0  0  0  0  0
   43.5870   35.8780   43.8530 H   0  0  0  0  0  0  0  0  0  0  0  0
   43.8700   33.7770   40.2280 H   0  0  0  0  0  0  0  0  0  0  0  0
  1  5  1  0  0  0  0
  1 20  1  0  0  0  0
  2  1  2  0  0  0  0
  3  2  1  0  0  0  0
  3  4  2  0  0  0  0
  4  5  1  0  0  0  0
  6  2  1  0  0  0  0
  7  3  1  0  0  0  0
  9  4  1  0  0  0  0
  9  8  2  0  0  0  0
 10  9  1  0  0  0  0
 11 10  1  0  0  0  0
 12 10  2  0  0  0  0
 12 18  1  0  0  0  0
 13 12  1  0  0  0  0
 14 13  1  0  0  0  0
 15 13  1  0  0  0  0
 15 17  2  0  0  0  0
 16 15  1  0  0  0  0
 17 18  1  0  0  0  0
 18 19  2  0  0  0  0
 19  8  1  0  0  0  0
 20 21  1  0  0  0  0
 20 22  1  0  0  0  0
 23 26  1  0  0  0  0
 23 25  1  0  0  0  0
 23 20  1  0  0  0  0
 24 23  1  0  0  0  0
 26 27  1  0  0  0  0
 27 28  2  0  0  0  0
 27 32  1  0  0  0  0
 28 33  1  0  0  0  0
 29 28  1  0  0  0  0
 30 29  2  0  0  0  0
 31 30  1  0  0  0  0
 31 26  2  0  0  0  0
 34 30  1  0  0  0  0
M  END
>  <minimizedAffinity>
-4.65060425

>  <minimizedRMSD>
1.36403573

$$$$
