
 OpenBabel03252508413D

 44 48  0  0  0  0  0  0  0  0999 V2000
   38.5140   30.0770   37.5960 C   0  0  0  0  0  0  0  0  0  0  0  0
   39.8840   30.0590   37.6710 C   0  0  0  0  0  0  0  0  0  0  0  0
   40.5240   28.9030   37.2970 C   0  0  0  0  0  0  0  0  0  0  0  0
   39.8640   27.7730   36.8560 C   0  0  0  0  0  0  0  0  0  0  0  0
   38.4960   27.8310   36.7960 C   0  0  0  0  0  0  0  0  0  0  0  0
   37.8030   28.9610   37.1570 C   0  0  0  0  0  0  0  0  0  0  0  0
   41.6050   28.9150   37.3660 H   0  0  0  0  0  0  0  0  0  0  0  0
   40.4160   26.8900   36.5760 H   0  0  0  0  0  0  0  0  0  0  0  0
   37.9530   26.9500   36.4510 H   0  0  0  0  0  0  0  0  0  0  0  0
   41.8040   33.3080   37.7230 C   0  0  0  0  0  0  0  0  0  0  0  0
   41.1750   32.1430   37.2460 C   0  0  0  0  0  0  0  0  0  0  0  0
   40.5400   31.2630   38.1390 C   0  0  0  0  0  0  0  0  0  0  0  0
   40.5880   31.6220   39.4410 N   0  0  0  0  0  0  0  0  0  0  0  0
   41.1900   32.7310   39.8760 C   0  0  0  0  0  0  0  0  0  0  0  0
   41.7910   33.5660   39.0330 N   0  0  0  0  0  0  0  0  0  0  0  0
   42.4250   34.1580   36.7910 N   0  0  0  0  0  0  0  0  0  0  0  0
   41.1840   31.9340   36.1860 H   0  0  0  0  0  0  0  0  0  0  0  0
   41.2050   32.9820   40.9250 H   0  0  0  0  0  0  0  0  0  0  0  0
   43.1480   34.8310   37.1640 H   0  0  0  0  0  0  0  0  0  0  0  0
   42.1830   34.1280   35.7680 H   0  0  0  0  0  0  0  0  0  0  0  0
   36.3510   28.9230   37.0570 C   0  0  0  0  0  0  0  0  0  0  0  0
   35.8320   29.2810   35.8440 C   0  0  0  0  0  0  0  0  0  0  0  0
   34.4700   29.3070   35.5500 C   0  0  0  0  0  0  0  0  0  0  0  0
   33.6080   28.9450   36.5560 C   0  0  0  0  0  0  0  0  0  0  0  0
   34.1030   28.5820   37.7790 C   0  0  0  0  0  0  0  0  0  0  0  0
   35.4710   28.5640   38.0470 C   0  0  0  0  0  0  0  0  0  0  0  0
   36.4700   29.5800   35.0000 H   0  0  0  0  0  0  0  0  0  0  0  0
   34.1100   29.5960   34.5800 H   0  0  0  0  0  0  0  0  0  0  0  0
   32.5410   28.9620   36.3390 H   0  0  0  0  0  0  0  0  0  0  0  0
   33.4180   28.2960   38.5720 H   0  0  0  0  0  0  0  0  0  0  0  0
   36.4620   26.9130   39.6460 C   0  0  0  0  0  3  0  0  0  0  0  0
   36.0320   28.1870   39.3430 C   0  0  0  0  0  0  0  0  0  0  0  0
   36.1620   29.1070   40.3610 C   0  0  0  0  0  0  0  0  0  0  0  0
   35.8470   30.1290   40.2010 H   0  0  0  0  0  0  0  0  0  0  0  0
   36.6940   28.7370   41.5980 C   0  0  0  0  0  0  0  0  0  0  0  0
   36.9230   29.4380   42.7410 N   0  0  0  0  0  0  0  0  0  0  0  0
   36.7260   30.4620   42.9140 H   0  0  0  0  0  0  0  0  0  0  0  0
   37.4650   28.6120   43.6790 C   0  0  0  0  0  0  0  0  0  0  0  0
   37.7780   28.7990   44.6960 H   0  0  0  0  0  0  0  0  0  0  0  0
   37.5930   27.3410   43.1400 C   0  0  0  0  0  3  0  0  0  0  0  0
   37.1090   27.4480   41.8520 C   0  0  0  0  0  0  0  0  0  0  0  0
   36.9890   26.5250   40.8570 C   0  0  0  0  0  3  0  0  0  0  0  0
   37.1770   32.2080   38.2850 N   0  0  0  0  0  0  0  0  0  0  0  0
   37.7790   31.2480   37.9700 C   0  0  0  0  0  0  0  0  0  0  0  0
  1  2  1  0  0  0  0
  1 44  1  0  0  0  0
  2 12  1  0  0  0  0
  3  7  1  0  0  0  0
  3  2  2  0  0  0  0
  4  3  1  0  0  0  0
  5  4  2  0  0  0  0
  5  6  1  0  0  0  0
  6  1  2  0  0  0  0
  8  4  1  0  0  0  0
  9  5  1  0  0  0  0
 10 15  1  0  0  0  0
 11 10  2  0  0  0  0
 11 12  1  0  0  0  0
 12 13  2  0  0  0  0
 13 14  1  0  0  0  0
 14 18  1  0  0  0  0
 15 14  2  0  0  0  0
 16 19  1  0  0  0  0
 16 10  1  0  0  0  0
 17 11  1  0  0  0  0
 20 16  1  0  0  0  0
 21  6  1  0  0  0  0
 21 26  1  0  0  0  0
 22 21  2  0  0  0  0
 23 22  1  0  0  0  0
 23 24  2  0  0  0  0
 24 25  1  0  0  0  0
 25 26  2  0  0  0  0
 25 30  1  0  0  0  0
 26 32  1  0  0  0  0
 27 22  1  0  0  0  0
 28 23  1  0  0  0  0
 29 24  1  0  0  0  0
 31 42  1  0  0  0  0
 32 31  2  0  0  0  0
 32 33  1  0  0  0  0
 33 35  2  0  0  0  0
 34 33  1  0  0  0  0
 35 41  1  0  0  0  0
 35 36  1  0  0  0  0
 36 37  1  0  0  0  0
 36 38  1  0  0  0  0
 38 39  1  0  0  0  0
 40 38  2  0  0  0  0
 41 40  1  0  0  0  0
 42 41  2  0  0  0  0
 44 43  3  0  0  0  0
M  END
>  <minimizedAffinity>
-7.59735346

$$$$

 OpenBabel03252508413D

 44 48  0  0  0  0  0  0  0  0999 V2000
   38.5110   30.5440   38.5500 C   0  0  0  0  0  0  0  0  0  0  0  0
   39.1490   31.6420   39.0720 C   0  0  0  0  0  0  0  0  0  0  0  0
   38.4220   32.4640   39.8980 C   0  0  0  0  0  0  0  0  0  0  0  0
   37.0990   32.2430   40.2230 C   0  0  0  0  0  0  0  0  0  0  0  0
   36.4980   31.1360   39.6810 C   0  0  0  0  0  0  0  0  0  0  0  0
   37.1750   30.2790   38.8480 C   0  0  0  0  0  0  0  0  0  0  0  0
   38.9480   33.3220   40.2970 H   0  0  0  0  0  0  0  0  0  0  0  0
   36.5730   32.9210   40.8770 H   0  0  0  0  0  0  0  0  0  0  0  0
   35.4520   30.9410   39.9230 H   0  0  0  0  0  0  0  0  0  0  0  0
   42.2830   33.0770   37.5350 C   0  0  0  0  0  0  0  0  0  0  0  0
   40.9290   32.9020   37.8740 C   0  0  0  0  0  0  0  0  0  0  0  0
   40.5360   31.8400   38.7070 C   0  0  0  0  0  0  0  0  0  0  0  0
   41.5370   31.0370   39.1330 N   0  0  0  0  0  0  0  0  0  0  0  0
   42.8170   31.2170   38.8010 C   0  0  0  0  0  0  0  0  0  0  0  0
   43.1900   32.2210   38.0130 N   0  0  0  0  0  0  0  0  0  0  0  0
   42.6260   34.1540   36.6990 N   0  0  0  0  0  0  0  0  0  0  0  0
   40.1950   33.5940   37.4890 H   0  0  0  0  0  0  0  0  0  0  0  0
   43.5850   30.5520   39.1630 H   0  0  0  0  0  0  0  0  0  0  0  0
   43.5550   34.0960   36.1990 H   0  0  0  0  0  0  0  0  0  0  0  0
   41.9900   34.9820   36.5750 H   0  0  0  0  0  0  0  0  0  0  0  0
   36.4480   29.1320   38.3240 C   0  0  0  0  0  0  0  0  0  0  0  0
   35.8000   29.3350   37.1370 C   0  0  0  0  0  0  0  0  0  0  0  0
   35.0530   28.3630   36.4750 C   0  0  0  0  0  0  0  0  0  0  0  0
   34.9740   27.1260   37.0660 C   0  0  0  0  0  0  0  0  0  0  0  0
   35.6140   26.8990   38.2540 C   0  0  0  0  0  0  0  0  0  0  0  0
   36.3560   27.8890   38.8970 C   0  0  0  0  0  0  0  0  0  0  0  0
   35.8260   30.3030   36.6150 H   0  0  0  0  0  0  0  0  0  0  0  0
   34.5610   28.5710   35.5430 H   0  0  0  0  0  0  0  0  0  0  0  0
   34.3930   26.3590   36.5580 H   0  0  0  0  0  0  0  0  0  0  0  0
   35.5500   25.9190   38.7190 H   0  0  0  0  0  0  0  0  0  0  0  0
   36.5110   28.0150   41.3920 C   0  0  0  0  0  3  0  0  0  0  0  0
   37.0470   27.6800   40.1670 C   0  0  0  0  0  0  0  0  0  0  0  0
   38.3090   27.1240   40.2120 C   0  0  0  0  0  0  0  0  0  0  0  0
   38.7970   26.8340   39.2930 H   0  0  0  0  0  0  0  0  0  0  0  0
   38.9650   26.9330   41.4300 C   0  0  0  0  0  0  0  0  0  0  0  0
   40.1850   26.4180   41.7400 N   0  0  0  0  0  0  0  0  0  0  0  0
   40.9100   26.0430   41.0680 H   0  0  0  0  0  0  0  0  0  0  0  0
   40.3610   26.4490   43.0900 C   0  0  0  0  0  0  0  0  0  0  0  0
   41.1900   26.1320   43.7070 H   0  0  0  0  0  0  0  0  0  0  0  0
   39.2320   26.9970   43.6790 C   0  0  0  0  0  3  0  0  0  0  0  0
   38.3840   27.2870   42.6280 C   0  0  0  0  0  0  0  0  0  0  0  0
   37.1380   27.8360   42.6040 C   0  0  0  0  0  3  0  0  0  0  0  0
   39.7780   28.9090   36.9610 N   0  0  0  0  0  0  0  0  0  0  0  0
   39.2060   29.6440   37.6800 C   0  0  0  0  0  0  0  0  0  0  0  0
  1  6  2  0  0  0  0
  1  2  1  0  0  0  0
  2  3  2  0  0  0  0
  3  4  1  0  0  0  0
  3  7  1  0  0  0  0
  4  8  1  0  0  0  0
  5  9  1  0  0  0  0
  5  4  2  0  0  0  0
  6  5  1  0  0  0  0
 10 11  2  0  0  0  0
 10 15  1  0  0  0  0
 11 12  1  0  0  0  0
 12  2  1  0  0  0  0
 12 13  2  0  0  0  0
 14 13  1  0  0  0  0
 14 18  1  0  0  0  0
 15 14  2  0  0  0  0
 16 10  1  0  0  0  0
 17 11  1  0  0  0  0
 19 16  1  0  0  0  0
 20 16  1  0  0  0  0
 21  6  1  0  0  0  0
 21 26  1  0  0  0  0
 22 21  2  0  0  0  0
 23 24  2  0  0  0  0
 23 22  1  0  0  0  0
 24 25  1  0  0  0  0
 25 30  1  0  0  0  0
 25 26  2  0  0  0  0
 26 32  1  0  0  0  0
 27 22  1  0  0  0  0
 28 23  1  0  0  0  0
 29 24  1  0  0  0  0
 31 42  1  0  0  0  0
 32 33  1  0  0  0  0
 32 31  2  0  0  0  0
 33 35  2  0  0  0  0
 34 33  1  0  0  0  0
 35 36  1  0  0  0  0
 35 41  1  0  0  0  0
 36 38  1  0  0  0  0
 37 36  1  0  0  0  0
 38 40  2  0  0  0  0
 38 39  1  0  0  0  0
 41 40  1  0  0  0  0
 42 41  2  0  0  0  0
 43 44  3  0  0  0  0
 44  1  1  0  0  0  0
M  END
>  <minimizedAffinity>
-6.93852663

$$$$

 OpenBabel03252508413D

 44 48  0  0  0  0  0  0  0  0999 V2000
   38.1850   29.4500   40.1680 C   0  0  0  0  0  0  0  0  0  0  0  0
   38.2720   30.8140   40.2870 C   0  0  0  0  0  0  0  0  0  0  0  0
   37.1530   31.4850   40.7160 C   0  0  0  0  0  0  0  0  0  0  0  0
   35.9620   30.8620   41.0300 C   0  0  0  0  0  0  0  0  0  0  0  0
   35.9150   29.4990   40.8970 C   0  0  0  0  0  0  0  0  0  0  0  0
   37.0030   28.7750   40.4720 C   0  0  0  0  0  0  0  0  0  0  0  0
   37.2480   32.5610   40.8020 H   0  0  0  0  0  0  0  0  0  0  0  0
   35.1120   31.4380   41.3620 H   0  0  0  0  0  0  0  0  0  0  0  0
   34.9840   28.9840   41.1390 H   0  0  0  0  0  0  0  0  0  0  0  0
   40.9950   32.5970   38.3770 C   0  0  0  0  0  0  0  0  0  0  0  0
   39.7580   32.0010   38.6830 C   0  0  0  0  0  0  0  0  0  0  0  0
   39.5370   31.4310   39.9480 C   0  0  0  0  0  0  0  0  0  0  0  0
   40.5780   31.5060   40.8070 N   0  0  0  0  0  0  0  0  0  0  0  0
   41.7460   32.0750   40.5000 C   0  0  0  0  0  0  0  0  0  0  0  0
   41.9570   32.6140   39.3040 N   0  0  0  0  0  0  0  0  0  0  0  0
   41.1680   33.1540   37.0970 N   0  0  0  0  0  0  0  0  0  0  0  0
   38.9800   31.9870   37.9340 H   0  0  0  0  0  0  0  0  0  0  0  0
   42.5520   32.1140   41.2160 H   0  0  0  0  0  0  0  0  0  0  0  0
   42.1610   33.3010   36.7690 H   0  0  0  0  0  0  0  0  0  0  0  0
   40.3480   33.4120   36.4920 H   0  0  0  0  0  0  0  0  0  0  0  0
   36.8520   27.3320   40.3640 C   0  0  0  0  0  0  0  0  0  0  0  0
   37.1850   26.6170   41.4820 C   0  0  0  0  0  0  0  0  0  0  0  0
   37.1080   25.2290   41.5770 C   0  0  0  0  0  0  0  0  0  0  0  0
   36.6670   24.5510   40.4670 C   0  0  0  0  0  0  0  0  0  0  0  0
   36.3270   25.2430   39.3380 C   0  0  0  0  0  0  0  0  0  0  0  0
   36.4130   26.6330   39.2670 C   0  0  0  0  0  0  0  0  0  0  0  0
   37.5450   27.1030   42.4000 H   0  0  0  0  0  0  0  0  0  0  0  0
   37.3820   24.7120   42.4780 H   0  0  0  0  0  0  0  0  0  0  0  0
   36.6030   23.4660   40.5300 H   0  0  0  0  0  0  0  0  0  0  0  0
   35.9780   24.7040   38.4610 H   0  0  0  0  0  0  0  0  0  0  0  0
   34.8230   27.9670   37.8680 C   0  0  0  0  0  3  0  0  0  0  0  0
   36.0630   27.4020   38.0750 C   0  0  0  0  0  0  0  0  0  0  0  0
   36.9770   27.6070   37.0630 C   0  0  0  0  0  0  0  0  0  0  0  0
   37.9720   27.1960   37.1510 H   0  0  0  0  0  0  0  0  0  0  0  0
   36.6330   28.3390   35.9240 C   0  0  0  0  0  0  0  0  0  0  0  0
   37.3330   28.6760   34.8090 N   0  0  0  0  0  0  0  0  0  0  0  0
   38.3360   28.4290   34.5840 H   0  0  0  0  0  0  0  0  0  0  0  0
   36.5400   29.4080   33.9780 C   0  0  0  0  0  0  0  0  0  0  0  0
   36.7380   29.8500   33.0120 H   0  0  0  0  0  0  0  0  0  0  0  0
   35.2910   29.5540   34.5610 C   0  0  0  0  0  3  0  0  0  0  0  0
   35.3770   28.8820   35.7650 C   0  0  0  0  0  0  0  0  0  0  0  0
   34.4610   28.6910   36.7550 C   0  0  0  0  0  3  0  0  0  0  0  0
   40.2330   28.0490   39.3660 N   0  0  0  0  0  0  0  0  0  0  0  0
   39.3100   28.6840   39.7250 C   0  0  0  0  0  0  0  0  0  0  0  0
  1  2  2  0  0  0  0
  1  6  1  0  0  0  0
  2  3  1  0  0  0  0
  3  7  1  0  0  0  0
  3  4  2  0  0  0  0
  4  8  1  0  0  0  0
  5  4  1  0  0  0  0
  5  9  1  0  0  0  0
  6  5  2  0  0  0  0
 10 11  2  0  0  0  0
 10 15  1  0  0  0  0
 11 12  1  0  0  0  0
 12  2  1  0  0  0  0
 12 13  2  0  0  0  0
 14 13  1  0  0  0  0
 14 18  1  0  0  0  0
 15 14  2  0  0  0  0
 16 10  1  0  0  0  0
 17 11  1  0  0  0  0
 19 16  1  0  0  0  0
 20 16  1  0  0  0  0
 21  6  1  0  0  0  0
 21 22  1  0  0  0  0
 22 23  2  0  0  0  0
 22 27  1  0  0  0  0
 23 28  1  0  0  0  0
 24 29  1  0  0  0  0
 24 23  1  0  0  0  0
 25 24  2  0  0  0  0
 26 25  1  0  0  0  0
 26 21  2  0  0  0  0
 30 25  1  0  0  0  0
 31 32  1  0  0  0  0
 32 26  1  0  0  0  0
 33 34  1  0  0  0  0
 33 32  2  0  0  0  0
 35 33  1  0  0  0  0
 36 35  1  0  0  0  0
 37 36  1  0  0  0  0
 38 40  2  0  0  0  0
 38 36  1  0  0  0  0
 39 38  1  0  0  0  0
 40 41  1  0  0  0  0
 41 35  2  0  0  0  0
 41 42  1  0  0  0  0
 42 31  2  0  0  0  0
 43 44  3  0  0  0  0
 44  1  1  0  0  0  0
M  END
>  <minimizedAffinity>
-6.86179113

$$$$

 OpenBabel03252508413D

 44 48  0  0  0  0  0  0  0  0999 V2000
   39.3790   31.0990   40.3970 C   0  0  0  0  0  0  0  0  0  0  0  0
   39.7190   32.2850   39.7950 C   0  0  0  0  0  0  0  0  0  0  0  0
   38.7210   33.2100   39.6100 C   0  0  0  0  0  0  0  0  0  0  0  0
   37.4110   33.0080   39.9950 C   0  0  0  0  0  0  0  0  0  0  0  0
   37.1120   31.8110   40.5920 C   0  0  0  0  0  0  0  0  0  0  0  0
   38.0690   30.8480   40.8030 C   0  0  0  0  0  0  0  0  0  0  0  0
   39.0160   34.1370   39.1330 H   0  0  0  0  0  0  0  0  0  0  0  0
   36.6650   33.7690   39.8250 H   0  0  0  0  0  0  0  0  0  0  0  0
   36.0830   31.6280   40.9050 H   0  0  0  0  0  0  0  0  0  0  0  0
   42.9180   32.2070   37.7940 C   0  0  0  0  0  0  0  0  0  0  0  0
   41.5700   32.0250   38.1520 C   0  0  0  0  0  0  0  0  0  0  0  0
   41.1030   32.4590   39.4050 C   0  0  0  0  0  0  0  0  0  0  0  0
   42.0280   33.0420   40.1980 N   0  0  0  0  0  0  0  0  0  0  0  0
   43.3040   33.2060   39.8420 C   0  0  0  0  0  0  0  0  0  0  0  0
   43.7480   32.7970   38.6580 N   0  0  0  0  0  0  0  0  0  0  0  0
   43.3380   31.7570   36.5290 N   0  0  0  0  0  0  0  0  0  0  0  0
   40.8970   31.5490   37.4530 H   0  0  0  0  0  0  0  0  0  0  0  0
   44.0120   33.6770   40.5070 H   0  0  0  0  0  0  0  0  0  0  0  0
   44.3730   31.6020   36.3950 H   0  0  0  0  0  0  0  0  0  0  0  0
   42.6540   31.5800   35.7510 H   0  0  0  0  0  0  0  0  0  0  0  0
   37.6510   29.6100   41.4450 C   0  0  0  0  0  0  0  0  0  0  0  0
   38.0160   29.4710   42.7560 C   0  0  0  0  0  0  0  0  0  0  0  0
   37.7090   28.3630   43.5420 C   0  0  0  0  0  0  0  0  0  0  0  0
   36.9940   27.3530   42.9450 C   0  0  0  0  0  0  0  0  0  0  0  0
   36.6170   27.4690   41.6350 C   0  0  0  0  0  0  0  0  0  0  0  0
   36.9360   28.5900   40.8700 C   0  0  0  0  0  0  0  0  0  0  0  0
   38.5890   30.2440   43.2880 H   0  0  0  0  0  0  0  0  0  0  0  0
   38.0190   28.2990   44.5690 H   0  0  0  0  0  0  0  0  0  0  0  0
   36.7490   26.4810   43.5500 H   0  0  0  0  0  0  0  0  0  0  0  0
   36.0510   26.6690   41.1660 H   0  0  0  0  0  0  0  0  0  0  0  0
   35.2730   29.0420   39.0540 C   0  0  0  0  0  3  0  0  0  0  0  0
   36.5540   28.7430   39.4680 C   0  0  0  0  0  0  0  0  0  0  0  0
   37.4750   28.5870   38.4540 C   0  0  0  0  0  0  0  0  0  0  0  0
   38.5020   28.3510   38.6970 H   0  0  0  0  0  0  0  0  0  0  0  0
   37.1010   28.7290   37.1160 C   0  0  0  0  0  0  0  0  0  0  0  0
   37.8010   28.6280   35.9550 N   0  0  0  0  0  0  0  0  0  0  0  0
   38.8300   28.4080   35.8450 H   0  0  0  0  0  0  0  0  0  0  0  0
   36.9700   28.8580   34.9020 C   0  0  0  0  0  0  0  0  0  0  0  0
   37.1550   28.8650   33.8370 H   0  0  0  0  0  0  0  0  0  0  0  0
   35.6950   29.1150   35.3810 C   0  0  0  0  0  3  0  0  0  0  0  0
   35.8050   29.0290   36.7550 C   0  0  0  0  0  0  0  0  0  0  0  0
   34.8810   29.1860   37.7430 C   0  0  0  0  0  3  0  0  0  0  0  0
   41.1740   29.2500   40.8000 N   0  0  0  0  0  0  0  0  0  0  0  0
   40.3660   30.0870   40.6210 C   0  0  0  0  0  0  0  0  0  0  0  0
  1 44  1  0  0  0  0
  1  6  1  0  0  0  0
  2  1  2  0  0  0  0
  3  2  1  0  0  0  0
  3  4  2  0  0  0  0
  4  5  1  0  0  0  0
  5  6  2  0  0  0  0
  5  9  1  0  0  0  0
  6 21  1  0  0  0  0
  7  3  1  0  0  0  0
  8  4  1  0  0  0  0
 10 11  2  0  0  0  0
 10 15  1  0  0  0  0
 11 12  1  0  0  0  0
 12  2  1  0  0  0  0
 12 13  2  0  0  0  0
 14 13  1  0  0  0  0
 14 18  1  0  0  0  0
 15 14  2  0  0  0  0
 16 10  1  0  0  0  0
 17 11  1  0  0  0  0
 19 16  1  0  0  0  0
 20 16  1  0  0  0  0
 21 22  1  0  0  0  0
 22 27  1  0  0  0  0
 22 23  2  0  0  0  0
 23 28  1  0  0  0  0
 24 23  1  0  0  0  0
 24 29  1  0  0  0  0
 25 24  2  0  0  0  0
 26 21  2  0  0  0  0
 26 25  1  0  0  0  0
 30 25  1  0  0  0  0
 31 32  1  0  0  0  0
 32 26  1  0  0  0  0
 33 34  1  0  0  0  0
 33 32  2  0  0  0  0
 35 33  1  0  0  0  0
 36 35  1  0  0  0  0
 37 36  1  0  0  0  0
 38 40  2  0  0  0  0
 38 36  1  0  0  0  0
 39 38  1  0  0  0  0
 40 41  1  0  0  0  0
 41 35  2  0  0  0  0
 41 42  1  0  0  0  0
 42 31  2  0  0  0  0
 44 43  3  0  0  0  0
M  END
>  <minimizedAffinity>
-6.81291246

$$$$

 OpenBabel03252508413D

 44 48  0  0  0  0  0  0  0  0999 V2000
   37.8240   28.0550   40.9340 C   0  0  0  0  0  0  0  0  0  0  0  0
   37.7490   29.0720   41.8520 C   0  0  0  0  0  0  0  0  0  0  0  0
   37.2250   28.7740   43.0850 C   0  0  0  0  0  0  0  0  0  0  0  0
   36.7740   27.5180   43.4410 C   0  0  0  0  0  0  0  0  0  0  0  0
   36.8660   26.5300   42.4960 C   0  0  0  0  0  0  0  0  0  0  0  0
   37.3820   26.7700   41.2450 C   0  0  0  0  0  0  0  0  0  0  0  0
   37.1770   29.5940   43.7920 H   0  0  0  0  0  0  0  0  0  0  0  0
   36.3700   27.3390   44.4250 H   0  0  0  0  0  0  0  0  0  0  0  0
   36.5160   25.5290   42.7540 H   0  0  0  0  0  0  0  0  0  0  0  0
   37.8630   32.5770   40.4570 C   0  0  0  0  0  0  0  0  0  0  0  0
   37.3740   31.3160   40.8460 C   0  0  0  0  0  0  0  0  0  0  0  0
   38.2310   30.3740   41.4410 C   0  0  0  0  0  0  0  0  0  0  0  0
   39.5120   30.7740   41.5990 N   0  0  0  0  0  0  0  0  0  0  0  0
   39.9590   31.9740   41.2240 C   0  0  0  0  0  0  0  0  0  0  0  0
   39.1510   32.8670   40.6600 N   0  0  0  0  0  0  0  0  0  0  0  0
   36.9680   33.4850   39.8650 N   0  0  0  0  0  0  0  0  0  0  0  0
   36.3330   31.0810   40.6820 H   0  0  0  0  0  0  0  0  0  0  0  0
   40.9920   32.2540   41.3680 H   0  0  0  0  0  0  0  0  0  0  0  0
   37.3870   34.2710   39.2990 H   0  0  0  0  0  0  0  0  0  0  0  0
   35.9270   33.3890   39.9790 H   0  0  0  0  0  0  0  0  0  0  0  0
   37.4350   25.6540   40.3120 C   0  0  0  0  0  0  0  0  0  0  0  0
   36.3390   25.5010   39.5090 C   0  0  0  0  0  0  0  0  0  0  0  0
   36.2010   24.4960   38.5530 C   0  0  0  0  0  0  0  0  0  0  0  0
   37.2430   23.6120   38.4220 C   0  0  0  0  0  0  0  0  0  0  0  0
   38.3510   23.7440   39.2140 C   0  0  0  0  0  0  0  0  0  0  0  0
   38.4650   24.7590   40.1640 C   0  0  0  0  0  0  0  0  0  0  0  0
   35.4730   26.1760   39.5670 H   0  0  0  0  0  0  0  0  0  0  0  0
   35.3180   24.4170   37.9460 H   0  0  0  0  0  0  0  0  0  0  0  0
   37.1460   22.8220   37.6790 H   0  0  0  0  0  0  0  0  0  0  0  0
   39.1740   23.0430   39.1080 H   0  0  0  0  0  0  0  0  0  0  0  0
   39.6460   24.5850   42.3640 C   0  0  0  0  0  3  0  0  0  0  0  0
   39.6310   24.9250   41.0280 C   0  0  0  0  0  0  0  0  0  0  0  0
   40.8110   25.4490   40.5440 C   0  0  0  0  0  0  0  0  0  0  0  0
   40.8790   25.7410   39.5050 H   0  0  0  0  0  0  0  0  0  0  0  0
   41.9200   25.6100   41.3770 C   0  0  0  0  0  0  0  0  0  0  0  0
   43.1720   26.0920   41.1510 N   0  0  0  0  0  0  0  0  0  0  0  0
   43.5610   26.4590   40.2390 H   0  0  0  0  0  0  0  0  0  0  0  0
   43.8940   26.0390   42.3050 C   0  0  0  0  0  0  0  0  0  0  0  0
   44.9120   26.3290   42.5200 H   0  0  0  0  0  0  0  0  0  0  0  0
   43.0990   25.5110   43.3100 C   0  0  0  0  0  3  0  0  0  0  0  0
   41.8830   25.2550   42.7080 C   0  0  0  0  0  0  0  0  0  0  0  0
   40.7250   24.7340   43.2040 C   0  0  0  0  0  3  0  0  0  0  0  0
   38.8030   28.4800   38.5540 N   0  0  0  0  0  0  0  0  0  0  0  0
   38.3580   28.2910   39.6260 C   0  0  0  0  0  0  0  0  0  0  0  0
  1  6  2  0  0  0  0
  1  2  1  0  0  0  0
  2  3  2  0  0  0  0
  3  4  1  0  0  0  0
  3  7  1  0  0  0  0
  4  8  1  0  0  0  0
  5  9  1  0  0  0  0
  5  4  2  0  0  0  0
  6  5  1  0  0  0  0
 10 15  2  0  0  0  0
 10 11  1  0  0  0  0
 11 12  2  0  0  0  0
 12 13  1  0  0  0  0
 12  2  1  0  0  0  0
 14 18  1  0  0  0  0
 14 13  2  0  0  0  0
 15 14  1  0  0  0  0
 16 20  1  0  0  0  0
 16 10  1  0  0  0  0
 17 11  1  0  0  0  0
 19 16  1  0  0  0  0
 21  6  1  0  0  0  0
 22 27  1  0  0  0  0
 22 21  2  0  0  0  0
 23 22  1  0  0  0  0
 24 23  2  0  0  0  0
 24 25  1  0  0  0  0
 25 26  2  0  0  0  0
 26 21  1  0  0  0  0
 26 32  1  0  0  0  0
 28 23  1  0  0  0  0
 29 24  1  0  0  0  0
 30 25  1  0  0  0  0
 31 42  1  0  0  0  0
 32 31  2  0  0  0  0
 33 32  1  0  0  0  0
 33 35  2  0  0  0  0
 34 33  1  0  0  0  0
 35 41  1  0  0  0  0
 36 35  1  0  0  0  0
 36 38  1  0  0  0  0
 37 36  1  0  0  0  0
 38 39  1  0  0  0  0
 38 40  2  0  0  0  0
 41 42  2  0  0  0  0
 41 40  1  0  0  0  0
 43 44  3  0  0  0  0
 44  1  1  0  0  0  0
M  END
>  <minimizedAffinity>
-6.79353666

$$$$

 OpenBabel03252508413D

 44 48  0  0  0  0  0  0  0  0999 V2000
   38.7530   28.4510   40.1450 C   0  0  0  0  0  0  0  0  0  0  0  0
   39.2890   27.2070   39.9270 C   0  0  0  0  0  0  0  0  0  0  0  0
   40.3020   27.1070   39.0060 C   0  0  0  0  0  0  0  0  0  0  0  0
   40.8010   28.1820   38.2980 C   0  0  0  0  0  0  0  0  0  0  0  0
   40.2380   29.4080   38.5440 C   0  0  0  0  0  0  0  0  0  0  0  0
   39.2220   29.5680   39.4550 C   0  0  0  0  0  0  0  0  0  0  0  0
   40.7080   26.1140   38.8520 H   0  0  0  0  0  0  0  0  0  0  0  0
   41.5980   28.0480   37.5840 H   0  0  0  0  0  0  0  0  0  0  0  0
   40.6150   30.2730   37.9970 H   0  0  0  0  0  0  0  0  0  0  0  0
   38.9040   24.4430   42.4680 C   0  0  0  0  0  0  0  0  0  0  0  0
   39.4580   25.5130   41.7410 C   0  0  0  0  0  0  0  0  0  0  0  0
   38.7390   26.1040   40.6870 C   0  0  0  0  0  0  0  0  0  0  0  0
   37.5200   25.5730   40.4480 N   0  0  0  0  0  0  0  0  0  0  0  0
   37.0090   24.5580   41.1480 C   0  0  0  0  0  0  0  0  0  0  0  0
   37.6870   23.9970   42.1440 N   0  0  0  0  0  0  0  0  0  0  0  0
   39.6610   23.8850   43.5130 N   0  0  0  0  0  0  0  0  0  0  0  0
   40.4420   25.8750   42.0020 H   0  0  0  0  0  0  0  0  0  0  0  0
   36.0300   24.1630   40.9240 H   0  0  0  0  0  0  0  0  0  0  0  0
   39.3960   22.9130   43.8300 H   0  0  0  0  0  0  0  0  0  0  0  0
   40.4550   24.4080   43.9600 H   0  0  0  0  0  0  0  0  0  0  0  0
   38.6920   30.9100   39.6440 C   0  0  0  0  0  0  0  0  0  0  0  0
   39.3530   31.6840   40.5580 C   0  0  0  0  0  0  0  0  0  0  0  0
   39.0010   32.9930   40.8790 C   0  0  0  0  0  0  0  0  0  0  0  0
   37.9170   33.5260   40.2250 C   0  0  0  0  0  0  0  0  0  0  0  0
   37.2390   32.7720   39.3060 C   0  0  0  0  0  0  0  0  0  0  0  0
   37.6120   31.4630   39.0020 C   0  0  0  0  0  0  0  0  0  0  0  0
   40.2270   31.3140   41.1140 H   0  0  0  0  0  0  0  0  0  0  0  0
   39.5520   33.5620   41.6050 H   0  0  0  0  0  0  0  0  0  0  0  0
   37.6320   34.5490   40.4670 H   0  0  0  0  0  0  0  0  0  0  0  0
   36.3830   33.1970   38.7900 H   0  0  0  0  0  0  0  0  0  0  0  0
   35.8120   29.8540   38.3440 C   0  0  0  0  0  3  0  0  0  0  0  0
   36.9080   30.6300   38.0310 C   0  0  0  0  0  0  0  0  0  0  0  0
   37.3120   30.5690   36.7140 C   0  0  0  0  0  0  0  0  0  0  0  0
   38.1640   31.1500   36.3900 H   0  0  0  0  0  0  0  0  0  0  0  0
   36.6360   29.7660   35.7930 C   0  0  0  0  0  0  0  0  0  0  0  0
   36.8290   29.5360   34.4670 N   0  0  0  0  0  0  0  0  0  0  0  0
   37.5800   29.9500   33.8480 H   0  0  0  0  0  0  0  0  0  0  0  0
   35.8890   28.6600   34.0160 C   0  0  0  0  0  0  0  0  0  0  0  0
   35.7190   28.2410   33.0350 H   0  0  0  0  0  0  0  0  0  0  0  0
   35.0600   28.3080   35.0700 C   0  0  0  0  0  3  0  0  0  0  0  0
   35.5450   29.0080   36.1570 C   0  0  0  0  0  0  0  0  0  0  0  0
   35.1310   29.0550   37.4540 C   0  0  0  0  0  3  0  0  0  0  0  0
   36.8210   28.7880   41.8650 N   0  0  0  0  0  0  0  0  0  0  0  0
   37.6930   28.6320   41.0900 C   0  0  0  0  0  0  0  0  0  0  0  0
  1 44  1  0  0  0  0
  2  1  1  0  0  0  0
  2 12  1  0  0  0  0
  3  2  2  0  0  0  0
  4  5  2  0  0  0  0
  4  3  1  0  0  0  0
  5  6  1  0  0  0  0
  6 21  1  0  0  0  0
  6  1  2  0  0  0  0
  7  3  1  0  0  0  0
  8  4  1  0  0  0  0
  9  5  1  0  0  0  0
 10 16  1  0  0  0  0
 11 17  1  0  0  0  0
 11 10  2  0  0  0  0
 12 11  1  0  0  0  0
 13 12  2  0  0  0  0
 13 14  1  0  0  0  0
 14 15  2  0  0  0  0
 15 10  1  0  0  0  0
 16 19  1  0  0  0  0
 16 20  1  0  0  0  0
 18 14  1  0  0  0  0
 21 22  1  0  0  0  0
 22 23  2  0  0  0  0
 22 27  1  0  0  0  0
 23 28  1  0  0  0  0
 24 29  1  0  0  0  0
 24 23  1  0  0  0  0
 25 24  2  0  0  0  0
 26 25  1  0  0  0  0
 26 21  2  0  0  0  0
 30 25  1  0  0  0  0
 32 31  1  0  0  0  0
 32 26  1  0  0  0  0
 33 32  2  0  0  0  0
 34 33  1  0  0  0  0
 35 41  2  0  0  0  0
 35 33  1  0  0  0  0
 36 35  1  0  0  0  0
 37 36  1  0  0  0  0
 38 36  1  0  0  0  0
 38 40  2  0  0  0  0
 39 38  1  0  0  0  0
 40 41  1  0  0  0  0
 41 42  1  0  0  0  0
 42 31  2  0  0  0  0
 44 43  3  0  0  0  0
M  END
>  <minimizedAffinity>
-6.57881069

$$$$

 OpenBabel03252508413D

 44 48  0  0  0  0  0  0  0  0999 V2000
   37.3120   27.9660   39.5900 C   0  0  0  0  0  0  0  0  0  0  0  0
   37.3000   27.7390   40.9430 C   0  0  0  0  0  0  0  0  0  0  0  0
   36.2180   28.1970   41.6530 C   0  0  0  0  0  0  0  0  0  0  0  0
   35.1560   28.8680   41.0800 C   0  0  0  0  0  0  0  0  0  0  0  0
   35.2060   29.0760   39.7260 C   0  0  0  0  0  0  0  0  0  0  0  0
   36.2630   28.6400   38.9650 C   0  0  0  0  0  0  0  0  0  0  0  0
   36.2330   28.0040   42.7200 H   0  0  0  0  0  0  0  0  0  0  0  0
   34.3300   29.2080   41.6850 H   0  0  0  0  0  0  0  0  0  0  0  0
   34.3780   29.6040   39.2510 H   0  0  0  0  0  0  0  0  0  0  0  0
   39.4430   25.0220   42.4510 C   0  0  0  0  0  0  0  0  0  0  0  0
   38.3300   25.6890   41.9060 C   0  0  0  0  0  0  0  0  0  0  0  0
   38.4320   27.0330   41.5080 C   0  0  0  0  0  0  0  0  0  0  0  0
   39.6440   27.6010   41.6880 N   0  0  0  0  0  0  0  0  0  0  0  0
   40.6900   26.9540   42.2070 C   0  0  0  0  0  0  0  0  0  0  0  0
   40.5960   25.6830   42.5840 N   0  0  0  0  0  0  0  0  0  0  0  0
   39.2920   23.6780   42.8340 N   0  0  0  0  0  0  0  0  0  0  0  0
   37.3970   25.1560   41.7970 H   0  0  0  0  0  0  0  0  0  0  0  0
   41.6420   27.4450   42.3340 H   0  0  0  0  0  0  0  0  0  0  0  0
   40.0000   23.2920   43.5150 H   0  0  0  0  0  0  0  0  0  0  0  0
   38.5110   23.0810   42.4610 H   0  0  0  0  0  0  0  0  0  0  0  0
   36.2210   28.9100   37.5350 C   0  0  0  0  0  0  0  0  0  0  0  0
   35.4690   28.0440   36.7910 C   0  0  0  0  0  0  0  0  0  0  0  0
   35.3040   28.1350   35.4100 C   0  0  0  0  0  0  0  0  0  0  0  0
   35.9450   29.1680   34.7720 C   0  0  0  0  0  0  0  0  0  0  0  0
   36.7030   30.0480   35.4950 C   0  0  0  0  0  0  0  0  0  0  0  0
   36.8520   29.9350   36.8770 C   0  0  0  0  0  0  0  0  0  0  0  0
   34.9320   27.1980   37.2440 H   0  0  0  0  0  0  0  0  0  0  0  0
   34.7020   27.4290   34.8690 H   0  0  0  0  0  0  0  0  0  0  0  0
   35.8240   29.2500   33.6930 H   0  0  0  0  0  0  0  0  0  0  0  0
   37.2090   30.8650   34.9870 H   0  0  0  0  0  0  0  0  0  0  0  0
   39.0350   30.8970   37.6340 C   0  0  0  0  0  3  0  0  0  0  0  0
   37.6580   30.8550   37.6770 C   0  0  0  0  0  0  0  0  0  0  0  0
   37.0710   31.7510   38.5450 C   0  0  0  0  0  0  0  0  0  0  0  0
   35.9940   31.7780   38.6360 H   0  0  0  0  0  0  0  0  0  0  0  0
   37.8490   32.6220   39.3110 C   0  0  0  0  0  0  0  0  0  0  0  0
   37.5220   33.5790   40.2200 N   0  0  0  0  0  0  0  0  0  0  0  0
   36.5520   33.8570   40.5370 H   0  0  0  0  0  0  0  0  0  0  0  0
   38.6580   34.1610   40.6940 C   0  0  0  0  0  0  0  0  0  0  0  0
   38.8050   34.9490   41.4190 H   0  0  0  0  0  0  0  0  0  0  0  0
   39.7550   33.5730   40.0830 C   0  0  0  0  0  3  0  0  0  0  0  0
   39.2240   32.6240   39.2310 C   0  0  0  0  0  0  0  0  0  0  0  0
   39.8220   31.7460   38.3780 C   0  0  0  0  0  3  0  0  0  0  0  0
   39.3130   27.1550   38.1280 N   0  0  0  0  0  0  0  0  0  0  0  0
   38.4080   27.5180   38.7850 C   0  0  0  0  0  0  0  0  0  0  0  0
  1  2  1  0  0  0  0
  2 12  1  0  0  0  0
  2  3  2  0  0  0  0
  3  7  1  0  0  0  0
  4  3  1  0  0  0  0
  4  8  1  0  0  0  0
  5  4  2  0  0  0  0
  6  1  2  0  0  0  0
  6  5  1  0  0  0  0
  9  5  1  0  0  0  0
 10 15  1  0  0  0  0
 10 16  1  0  0  0  0
 11 10  2  0  0  0  0
 12 13  2  0  0  0  0
 12 11  1  0  0  0  0
 13 14  1  0  0  0  0
 14 18  1  0  0  0  0
 14 15  2  0  0  0  0
 16 19  1  0  0  0  0
 17 11  1  0  0  0  0
 20 16  1  0  0  0  0
 21  6  1  0  0  0  0
 22 27  1  0  0  0  0
 22 21  2  0  0  0  0
 23 22  1  0  0  0  0
 24 23  2  0  0  0  0
 24 25  1  0  0  0  0
 25 26  2  0  0  0  0
 26 21  1  0  0  0  0
 26 32  1  0  0  0  0
 28 23  1  0  0  0  0
 29 24  1  0  0  0  0
 30 25  1  0  0  0  0
 31 32  2  0  0  0  0
 31 42  1  0  0  0  0
 32 33  1  0  0  0  0
 33 34  1  0  0  0  0
 33 35  2  0  0  0  0
 35 36  1  0  0  0  0
 36 37  1  0  0  0  0
 36 38  1  0  0  0  0
 38 39  1  0  0  0  0
 40 38  2  0  0  0  0
 41 35  1  0  0  0  0
 41 40  1  0  0  0  0
 42 41  2  0  0  0  0
 43 44  3  0  0  0  0
 44  1  1  0  0  0  0
M  END
>  <minimizedAffinity>
-6.52170134

$$$$

 OpenBabel03252508413D

 44 48  0  0  0  0  0  0  0  0999 V2000
   38.7660   27.0600   41.4490 C   0  0  0  0  0  0  0  0  0  0  0  0
   39.2080   27.2890   42.7270 C   0  0  0  0  0  0  0  0  0  0  0  0
   38.2980   27.7720   43.6350 C   0  0  0  0  0  0  0  0  0  0  0  0
   36.9780   28.0370   43.3270 C   0  0  0  0  0  0  0  0  0  0  0  0
   36.5770   27.7960   42.0390 C   0  0  0  0  0  0  0  0  0  0  0  0
   37.4430   27.3120   41.0880 C   0  0  0  0  0  0  0  0  0  0  0  0
   38.6720   27.9430   44.6370 H   0  0  0  0  0  0  0  0  0  0  0  0
   36.3050   28.4170   44.0790 H   0  0  0  0  0  0  0  0  0  0  0  0
   35.5380   27.9980   41.7720 H   0  0  0  0  0  0  0  0  0  0  0  0
   42.8970   27.7230   43.3940 C   0  0  0  0  0  0  0  0  0  0  0  0
   41.5520   28.0270   43.1150 C   0  0  0  0  0  0  0  0  0  0  0  0
   40.5980   27.0000   43.0120 C   0  0  0  0  0  0  0  0  0  0  0  0
   41.0720   25.7480   43.1970 N   0  0  0  0  0  0  0  0  0  0  0  0
   42.3520   25.4770   43.4610 C   0  0  0  0  0  0  0  0  0  0  0  0
   43.2560   26.4470   43.5590 N   0  0  0  0  0  0  0  0  0  0  0  0
   43.8140   28.7850   43.4880 N   0  0  0  0  0  0  0  0  0  0  0  0
   41.2610   29.0580   42.9820 H   0  0  0  0  0  0  0  0  0  0  0  0
   42.6890   24.4620   43.6030 H   0  0  0  0  0  0  0  0  0  0  0  0
   44.8370   28.5460   43.3760 H   0  0  0  0  0  0  0  0  0  0  0  0
   43.5000   29.7730   43.6610 H   0  0  0  0  0  0  0  0  0  0  0  0
   36.9190   27.0900   39.7490 C   0  0  0  0  0  0  0  0  0  0  0  0
   36.3690   25.8570   39.5260 C   0  0  0  0  0  0  0  0  0  0  0  0
   35.8140   25.4540   38.3130 C   0  0  0  0  0  0  0  0  0  0  0  0
   35.8290   26.3660   37.2860 C   0  0  0  0  0  0  0  0  0  0  0  0
   36.3740   27.6050   37.4840 C   0  0  0  0  0  0  0  0  0  0  0  0
   36.9230   27.9850   38.7090 C   0  0  0  0  0  0  0  0  0  0  0  0
   36.3270   25.0860   40.3080 H   0  0  0  0  0  0  0  0  0  0  0  0
   35.3940   24.4730   38.1860 H   0  0  0  0  0  0  0  0  0  0  0  0
   35.3990   26.0610   36.3330 H   0  0  0  0  0  0  0  0  0  0  0  0
   36.3840   28.3240   36.6700 H   0  0  0  0  0  0  0  0  0  0  0  0
   38.8530   29.5770   38.7680 C   0  0  0  0  0  3  0  0  0  0  0  0
   37.5160   29.2980   38.9520 C   0  0  0  0  0  0  0  0  0  0  0  0
   36.7520   30.3570   39.3960 C   0  0  0  0  0  0  0  0  0  0  0  0
   35.6940   30.2180   39.5640 H   0  0  0  0  0  0  0  0  0  0  0  0
   37.3280   31.6070   39.6310 C   0  0  0  0  0  0  0  0  0  0  0  0
   36.8060   32.7870   40.0610 N   0  0  0  0  0  0  0  0  0  0  0  0
   35.7990   32.9870   40.3140 H   0  0  0  0  0  0  0  0  0  0  0  0
   37.7940   33.7220   40.1280 C   0  0  0  0  0  0  0  0  0  0  0  0
   37.7700   34.7620   40.4220 H   0  0  0  0  0  0  0  0  0  0  0  0
   38.9900   33.1440   39.7340 C   0  0  0  0  0  3  0  0  0  0  0  0
   38.6720   31.8340   39.4320 C   0  0  0  0  0  0  0  0  0  0  0  0
   39.4430   30.8000   38.9930 C   0  0  0  0  0  3  0  0  0  0  0  0
   40.3870   26.1460   39.6210 N   0  0  0  0  0  0  0  0  0  0  0  0
   39.6590   26.5570   40.4480 C   0  0  0  0  0  0  0  0  0  0  0  0
  1  2  1  0  0  0  0
  2 12  1  0  0  0  0
  2  3  2  0  0  0  0
  3  7  1  0  0  0  0
  4  3  1  0  0  0  0
  4  8  1  0  0  0  0
  5  4  2  0  0  0  0
  6  1  2  0  0  0  0
  6  5  1  0  0  0  0
  9  5  1  0  0  0  0
 10 16  1  0  0  0  0
 10 15  1  0  0  0  0
 11 10  2  0  0  0  0
 12 11  1  0  0  0  0
 12 13  2  0  0  0  0
 13 14  1  0  0  0  0
 14 15  2  0  0  0  0
 14 18  1  0  0  0  0
 16 20  1  0  0  0  0
 17 11  1  0  0  0  0
 19 16  1  0  0  0  0
 21  6  1  0  0  0  0
 22 21  1  0  0  0  0
 22 27  1  0  0  0  0
 23 22  2  0  0  0  0
 24 25  2  0  0  0  0
 24 23  1  0  0  0  0
 25 26  1  0  0  0  0
 26 32  1  0  0  0  0
 26 21  2  0  0  0  0
 28 23  1  0  0  0  0
 29 24  1  0  0  0  0
 30 25  1  0  0  0  0
 31 32  2  0  0  0  0
 31 42  1  0  0  0  0
 32 33  1  0  0  0  0
 33 34  1  0  0  0  0
 33 35  2  0  0  0  0
 35 36  1  0  0  0  0
 36 38  1  0  0  0  0
 36 37  1  0  0  0  0
 38 39  1  0  0  0  0
 40 38  2  0  0  0  0
 41 35  1  0  0  0  0
 41 40  1  0  0  0  0
 42 41  2  0  0  0  0
 43 44  3  0  0  0  0
 44  1  1  0  0  0  0
M  END
>  <minimizedAffinity>
-6.50381231

$$$$

 OpenBabel03252508413D

 44 48  0  0  0  0  0  0  0  0999 V2000
   37.9140   27.1920   41.3110 C   0  0  0  0  0  0  0  0  0  0  0  0
   37.3270   26.0500   41.7940 C   0  0  0  0  0  0  0  0  0  0  0  0
   36.6240   26.1470   42.9690 C   0  0  0  0  0  0  0  0  0  0  0  0
   36.4820   27.3230   43.6800 C   0  0  0  0  0  0  0  0  0  0  0  0
   37.0840   28.4410   43.1640 C   0  0  0  0  0  0  0  0  0  0  0  0
   37.8000   28.4040   41.9920 C   0  0  0  0  0  0  0  0  0  0  0  0
   36.1700   25.2310   43.3290 H   0  0  0  0  0  0  0  0  0  0  0  0
   35.9190   27.3430   44.6000 H   0  0  0  0  0  0  0  0  0  0  0  0
   36.9860   29.3820   43.7090 H   0  0  0  0  0  0  0  0  0  0  0  0
   36.7020   23.2180   39.3790 C   0  0  0  0  0  0  0  0  0  0  0  0
   36.5130   24.3980   40.1210 C   0  0  0  0  0  0  0  0  0  0  0  0
   37.4980   24.8370   41.0210 C   0  0  0  0  0  0  0  0  0  0  0  0
   38.5970   24.0540   41.1050 N   0  0  0  0  0  0  0  0  0  0  0  0
   38.7590   22.9360   40.3940 C   0  0  0  0  0  0  0  0  0  0  0  0
   37.8290   22.5200   39.5410 N   0  0  0  0  0  0  0  0  0  0  0  0
   35.6870   22.8200   38.4900 N   0  0  0  0  0  0  0  0  0  0  0  0
   35.6020   24.9640   39.9890 H   0  0  0  0  0  0  0  0  0  0  0  0
   39.6530   22.3390   40.4910 H   0  0  0  0  0  0  0  0  0  0  0  0
   35.6830   21.8080   38.1900 H   0  0  0  0  0  0  0  0  0  0  0  0
   34.9650   23.4980   38.1380 H   0  0  0  0  0  0  0  0  0  0  0  0
   38.4010   29.6450   41.5290 C   0  0  0  0  0  0  0  0  0  0  0  0
   39.5130   30.0550   42.2130 C   0  0  0  0  0  0  0  0  0  0  0  0
   40.2300   31.2140   41.9210 C   0  0  0  0  0  0  0  0  0  0  0  0
   39.7770   31.9820   40.8760 C   0  0  0  0  0  0  0  0  0  0  0  0
   38.6670   31.5920   40.1770 C   0  0  0  0  0  0  0  0  0  0  0  0
   37.9670   30.4270   40.4880 C   0  0  0  0  0  0  0  0  0  0  0  0
   39.9230   29.4840   43.0570 H   0  0  0  0  0  0  0  0  0  0  0  0
   41.0980   31.4950   42.4880 H   0  0  0  0  0  0  0  0  0  0  0  0
   40.3290   32.8900   40.6390 H   0  0  0  0  0  0  0  0  0  0  0  0
   38.3120   32.2020   39.3500 H   0  0  0  0  0  0  0  0  0  0  0  0
   35.5670   29.7250   40.3740 C   0  0  0  0  0  3  0  0  0  0  0  0
   36.7760   29.9860   39.7660 C   0  0  0  0  0  0  0  0  0  0  0  0
   36.7980   29.7970   38.4000 C   0  0  0  0  0  0  0  0  0  0  0  0
   37.7100   29.9800   37.8500 H   0  0  0  0  0  0  0  0  0  0  0  0
   35.6570   29.3700   37.7170 C   0  0  0  0  0  0  0  0  0  0  0  0
   35.4210   29.1130   36.4020 N   0  0  0  0  0  0  0  0  0  0  0  0
   36.1070   29.1950   35.6010 H   0  0  0  0  0  0  0  0  0  0  0  0
   34.1280   28.7180   36.2420 C   0  0  0  0  0  0  0  0  0  0  0  0
   33.5760   28.4320   35.3580 H   0  0  0  0  0  0  0  0  0  0  0  0
   33.5010   28.7140   37.4780 C   0  0  0  0  0  3  0  0  0  0  0  0
   34.4710   29.1220   38.3730 C   0  0  0  0  0  0  0  0  0  0  0  0
   34.4310   29.3040   39.7220 C   0  0  0  0  0  3  0  0  0  0  0  0
   39.2730   27.1470   39.0850 N   0  0  0  0  0  0  0  0  0  0  0  0
   38.6640   27.1670   40.0910 C   0  0  0  0  0  0  0  0  0  0  0  0
  1  2  2  0  0  0  0
  1  6  1  0  0  0  0
  2  3  1  0  0  0  0
  3  7  1  0  0  0  0
  3  4  2  0  0  0  0
  4  8  1  0  0  0  0
  5  4  1  0  0  0  0
  5  9  1  0  0  0  0
  6  5  2  0  0  0  0
 10 15  2  0  0  0  0
 10 11  1  0  0  0  0
 11 12  2  0  0  0  0
 12 13  1  0  0  0  0
 12  2  1  0  0  0  0
 14 18  1  0  0  0  0
 14 13  2  0  0  0  0
 15 14  1  0  0  0  0
 16 10  1  0  0  0  0
 17 11  1  0  0  0  0
 19 16  1  0  0  0  0
 20 16  1  0  0  0  0
 21  6  1  0  0  0  0
 21 22  1  0  0  0  0
 22 27  1  0  0  0  0
 23 22  2  0  0  0  0
 23 28  1  0  0  0  0
 24 23  1  0  0  0  0
 25 26  1  0  0  0  0
 25 24  2  0  0  0  0
 26 21  2  0  0  0  0
 29 24  1  0  0  0  0
 30 25  1  0  0  0  0
 32 31  1  0  0  0  0
 32 26  1  0  0  0  0
 33 32  2  0  0  0  0
 34 33  1  0  0  0  0
 35 41  2  0  0  0  0
 35 33  1  0  0  0  0
 36 35  1  0  0  0  0
 37 36  1  0  0  0  0
 38 36  1  0  0  0  0
 38 40  2  0  0  0  0
 39 38  1  0  0  0  0
 40 41  1  0  0  0  0
 41 42  1  0  0  0  0
 42 31  2  0  0  0  0
 43 44  3  0  0  0  0
 44  1  1  0  0  0  0
M  END
>  <minimizedAffinity>
-6.45596361

$$$$
