
 OpenBabel03252506303D

 50 55  0  0  0  0  0  0  0  0999 V2000
   37.7850   32.3860   40.5520 C   0  0  0  0  0  0  0  0  0  0  0  0
   37.1450   33.1040   39.5280 C   0  0  0  0  0  0  0  0  0  0  0  0
   37.6940   34.3400   39.4570 C   0  0  0  0  0  0  0  0  0  0  0  0
   38.6350   34.3840   40.3980 N   0  0  0  0  0  0  0  0  0  0  0  0
   38.7070   33.2290   41.0640 N   0  0  0  0  0  0  0  0  0  0  0  0
   36.3380   32.7700   38.8730 H   0  0  0  0  0  0  0  0  0  0  0  0
   37.4170   35.1360   38.7640 H   0  0  0  0  0  0  0  0  0  0  0  0
   36.0450   29.2140   41.0490 C   0  0  0  0  0  0  0  0  0  0  0  0
   36.9990   28.4440   41.7320 C   0  0  0  0  0  0  0  0  0  0  0  0
   38.2270   29.0340   42.0100 C   0  0  0  0  0  0  0  0  0  0  0  0
   38.4050   30.2970   41.6010 N   0  0  0  0  0  0  0  0  0  0  0  0
   37.4920   31.0280   40.9490 C   0  0  0  0  0  0  0  0  0  0  0  0
   36.3120   30.4650   40.6810 N   0  0  0  0  0  0  0  0  0  0  0  0
   35.0800   28.7540   40.8290 H   0  0  0  0  0  0  0  0  0  0  0  0
   36.8160   27.4460   42.0370 H   0  0  0  0  0  0  0  0  0  0  0  0
   38.9840   27.2050   43.4070 C   0  0  0  0  0  3  0  0  0  0  0  0
   39.3070   28.3520   42.7110 C   0  0  0  0  0  0  0  0  0  0  0  0
   40.6100   28.7980   42.7050 C   0  0  0  0  0  0  0  0  0  0  0  0
   40.8790   29.6760   42.1780 H   0  0  0  0  0  0  0  0  0  0  0  0
   41.6270   28.1250   43.3860 C   0  0  0  0  0  0  0  0  0  0  0  0
   42.9450   28.3540   43.5300 N   0  0  0  0  0  0  0  0  0  0  0  0
   43.4180   29.1740   43.0870 H   0  0  0  0  0  0  0  0  0  0  0  0
   43.4330   27.3590   44.3070 C   0  0  0  0  0  0  0  0  0  0  0  0
   44.4850   27.3770   44.5320 H   0  0  0  0  0  0  0  0  0  0  0  0
   42.4170   26.4910   44.6590 C   0  0  0  0  0  3  0  0  0  0  0  0
   41.2560   26.9700   44.0770 C   0  0  0  0  0  0  0  0  0  0  0  0
   39.9560   26.5020   44.0980 C   0  0  0  0  0  3  0  0  0  0  0  0
   39.4790   35.5360   40.6720 C   0  0  0  0  0  0  0  0  0  0  0  0
   39.7900   35.4190   41.7380 H   0  0  0  0  0  0  0  0  0  0  0  0
   38.9230   36.4650   40.5740 H   0  0  0  0  0  0  0  0  0  0  0  0
   40.7320   35.4650   39.8640 C   0  0  0  0  0  0  0  0  0  0  0  0
   40.8230   36.4280   39.3030 H   0  0  0  0  0  0  0  0  0  0  0  0
   40.5850   34.6990   39.0730 H   0  0  0  0  0  0  0  0  0  0  0  0
   42.9440   34.2430   40.2590 C   0  0  0  0  0  0  0  0  0  0  0  0
   41.9560   35.1430   40.5810 C   0  0  0  0  0  0  0  0  0  0  0  0
   42.1320   35.8620   41.7620 C   0  0  0  0  0  0  0  0  0  0  0  0
   43.2280   35.6870   42.5620 C   0  0  0  0  0  0  0  0  0  0  0  0
   43.6550   36.2230   43.7250 N   0  0  0  0  0  0  0  0  0  0  0  0
   44.8200   35.7010   44.1030 C   0  0  0  0  0  0  0  0  0  0  0  0
   45.2170   34.7570   43.1540 C   0  0  0  0  0  0  0  0  0  0  0  0
   44.2090   34.7890   42.2360 C   0  0  0  0  0  0  0  0  0  0  0  0
   44.0440   34.0710   41.0670 C   0  0  0  0  0  0  0  0  0  0  0  0
   42.7730   33.7040   39.3350 H   0  0  0  0  0  0  0  0  0  0  0  0
   41.4290   36.6050   42.1350 H   0  0  0  0  0  0  0  0  0  0  0  0
   43.1350   36.9660   44.2730 H   0  0  0  0  0  0  0  0  0  0  0  0
   45.4100   35.9350   44.9990 H   0  0  0  0  0  0  0  0  0  0  0  0
   46.1070   34.1510   43.1520 H   0  0  0  0  0  0  0  0  0  0  0  0
   45.0620   33.0990   40.6710 C   0  0  0  0  0  0  0  0  0  0  0  0
   44.7930   32.1330   39.9190 O   0  0  0  0  0  0  0  0  0  0  0  0
   46.0850   33.1770   41.0140 H   0  0  0  0  0  0  0  0  0  0  0  0
  1 12  1  0  0  0  0
  1  5  2  0  0  0  0
  2  1  1  0  0  0  0
  3  2  2  0  0  0  0
  3  4  1  0  0  0  0
  4 28  1  0  0  0  0
  4  5  1  0  0  0  0
  6  2  1  0  0  0  0
  7  3  1  0  0  0  0
  8  9  1  0  0  0  0
  9 10  2  0  0  0  0
  9 15  1  0  0  0  0
 10 17  1  0  0  0  0
 11 10  1  0  0  0  0
 12 11  2  0  0  0  0
 13 12  1  0  0  0  0
 13  8  2  0  0  0  0
 14  8  1  0  0  0  0
 16 27  1  0  0  0  0
 17 16  2  0  0  0  0
 18 17  1  0  0  0  0
 18 20  2  0  0  0  0
 19 18  1  0  0  0  0
 20 21  1  0  0  0  0
 20 26  1  0  0  0  0
 21 23  1  0  0  0  0
 22 21  1  0  0  0  0
 23 24  1  0  0  0  0
 23 25  2  0  0  0  0
 26 27  2  0  0  0  0
 26 25  1  0  0  0  0
 28 29  1  0  0  0  0
 30 28  1  0  0  0  0
 31 35  1  0  0  0  0
 31 28  1  0  0  0  0
 32 31  1  0  0  0  0
 33 31  1  0  0  0  0
 34 35  2  0  0  0  0
 34 42  1  0  0  0  0
 35 36  1  0  0  0  0
 36 44  1  0  0  0  0
 36 37  2  0  0  0  0
 37 38  1  0  0  0  0
 38 39  1  0  0  0  0
 38 45  1  0  0  0  0
 39 46  1  0  0  0  0
 40 39  2  0  0  0  0
 41 37  1  0  0  0  0
 41 40  1  0  0  0  0
 42 41  2  0  0  0  0
 43 34  1  0  0  0  0
 47 40  1  0  0  0  0
 48 50  1  0  0  0  0
 48 42  1  0  0  0  0
 49 48  2  0  0  0  0
M  END
>  <minimizedAffinity>
-7.58852386

$$$$

 OpenBabel03252506303D

 50 55  0  0  0  0  0  0  0  0999 V2000
   37.5900   31.7190   38.9360 C   0  0  0  0  0  0  0  0  0  0  0  0
   37.6290   31.1050   37.6730 C   0  0  0  0  0  0  0  0  0  0  0  0
   36.7780   30.0500   37.6770 C   0  0  0  0  0  0  0  0  0  0  0  0
   36.2370   30.0140   38.8930 N   0  0  0  0  0  0  0  0  0  0  0  0
   36.7060   31.0010   39.6610 N   0  0  0  0  0  0  0  0  0  0  0  0
   38.2240   31.3880   36.8020 H   0  0  0  0  0  0  0  0  0  0  0  0
   36.5810   29.3700   36.8480 H   0  0  0  0  0  0  0  0  0  0  0  0
   38.4640   35.0140   40.2480 C   0  0  0  0  0  0  0  0  0  0  0  0
   39.8570   35.0480   40.0880 C   0  0  0  0  0  0  0  0  0  0  0  0
   40.4720   33.9320   39.5290 C   0  0  0  0  0  0  0  0  0  0  0  0
   39.6820   32.9070   39.1860 N   0  0  0  0  0  0  0  0  0  0  0  0
   38.3520   32.8780   39.3410 C   0  0  0  0  0  0  0  0  0  0  0  0
   37.7590   33.9470   39.8770 N   0  0  0  0  0  0  0  0  0  0  0  0
   37.9790   35.8870   40.6860 H   0  0  0  0  0  0  0  0  0  0  0  0
   40.4460   35.8810   40.3730 H   0  0  0  0  0  0  0  0  0  0  0  0
   42.7240   33.8470   40.4170 C   0  0  0  0  0  3  0  0  0  0  0  0
   41.9080   33.8320   39.3050 C   0  0  0  0  0  0  0  0  0  0  0  0
   42.4700   33.7250   38.0530 C   0  0  0  0  0  0  0  0  0  0  0  0
   41.8620   33.7120   37.1850 H   0  0  0  0  0  0  0  0  0  0  0  0
   43.8520   33.6310   37.8650 C   0  0  0  0  0  0  0  0  0  0  0  0
   44.6260   33.5210   36.7700 N   0  0  0  0  0  0  0  0  0  0  0  0
   44.2230   33.4890   35.8070 H   0  0  0  0  0  0  0  0  0  0  0  0
   45.9080   33.4680   37.2010 C   0  0  0  0  0  0  0  0  0  0  0  0
   46.6780   33.3780   36.4540 H   0  0  0  0  0  0  0  0  0  0  0  0
   45.9480   33.5450   38.5800 C   0  0  0  0  0  3  0  0  0  0  0  0
   44.6400   33.6500   39.0180 C   0  0  0  0  0  0  0  0  0  0  0  0
   44.0990   33.7570   40.2850 C   0  0  0  0  0  3  0  0  0  0  0  0
   35.2600   29.0330   39.3360 C   0  0  0  0  0  0  0  0  0  0  0  0
   34.5720   28.8980   38.4660 H   0  0  0  0  0  0  0  0  0  0  0  0
   34.6830   29.4020   40.1800 H   0  0  0  0  0  0  0  0  0  0  0  0
   35.9170   27.7100   39.5550 C   0  0  0  0  0  0  0  0  0  0  0  0
   36.5160   27.4780   38.6400 H   0  0  0  0  0  0  0  0  0  0  0  0
   35.1230   26.9330   39.5680 H   0  0  0  0  0  0  0  0  0  0  0  0
   36.5080   28.1130   42.0100 C   0  0  0  0  0  0  0  0  0  0  0  0
   36.7090   27.5640   40.7660 C   0  0  0  0  0  0  0  0  0  0  0  0
   37.8290   26.7470   40.6210 C   0  0  0  0  0  0  0  0  0  0  0  0
   38.6860   26.5000   41.6580 C   0  0  0  0  0  0  0  0  0  0  0  0
   39.8150   25.7750   41.8110 N   0  0  0  0  0  0  0  0  0  0  0  0
   40.2850   25.8620   43.0530 C   0  0  0  0  0  0  0  0  0  0  0  0
   39.4390   26.6880   43.7960 C   0  0  0  0  0  0  0  0  0  0  0  0
   38.4810   27.0490   42.8960 C   0  0  0  0  0  0  0  0  0  0  0  0
   37.3730   27.8610   43.0490 C   0  0  0  0  0  0  0  0  0  0  0  0
   35.6290   28.7400   42.0840 H   0  0  0  0  0  0  0  0  0  0  0  0
   38.1070   26.2500   39.6920 H   0  0  0  0  0  0  0  0  0  0  0  0
   40.2740   25.2060   41.0430 H   0  0  0  0  0  0  0  0  0  0  0  0
   41.1810   25.3860   43.4750 H   0  0  0  0  0  0  0  0  0  0  0  0
   39.5270   26.9690   44.8320 H   0  0  0  0  0  0  0  0  0  0  0  0
   37.1060   28.4730   44.3510 C   0  0  0  0  0  0  0  0  0  0  0  0
   36.4020   27.9010   45.2150 O   0  0  0  0  0  0  0  0  0  0  0  0
   37.5050   29.4430   44.6150 H   0  0  0  0  0  0  0  0  0  0  0  0
  1 12  1  0  0  0  0
  1  5  2  0  0  0  0
  2  3  2  0  0  0  0
  2  1  1  0  0  0  0
  3  4  1  0  0  0  0
  4 28  1  0  0  0  0
  4  5  1  0  0  0  0
  6  2  1  0  0  0  0
  7  3  1  0  0  0  0
  8 14  1  0  0  0  0
  9  8  1  0  0  0  0
  9 15  1  0  0  0  0
 10  9  2  0  0  0  0
 11 12  2  0  0  0  0
 11 10  1  0  0  0  0
 12 13  1  0  0  0  0
 13  8  2  0  0  0  0
 17 10  1  0  0  0  0
 17 16  2  0  0  0  0
 18 17  1  0  0  0  0
 19 18  1  0  0  0  0
 20 18  2  0  0  0  0
 20 26  1  0  0  0  0
 21 23  1  0  0  0  0
 21 20  1  0  0  0  0
 22 21  1  0  0  0  0
 23 25  2  0  0  0  0
 24 23  1  0  0  0  0
 25 26  1  0  0  0  0
 26 27  2  0  0  0  0
 27 16  1  0  0  0  0
 28 31  1  0  0  0  0
 28 30  1  0  0  0  0
 29 28  1  0  0  0  0
 31 33  1  0  0  0  0
 31 35  1  0  0  0  0
 32 31  1  0  0  0  0
 34 43  1  0  0  0  0
 34 42  1  0  0  0  0
 35 34  2  0  0  0  0
 36 35  1  0  0  0  0
 36 37  2  0  0  0  0
 37 38  1  0  0  0  0
 37 41  1  0  0  0  0
 38 39  1  0  0  0  0
 39 46  1  0  0  0  0
 39 40  2  0  0  0  0
 40 47  1  0  0  0  0
 41 42  2  0  0  0  0
 41 40  1  0  0  0  0
 42 48  1  0  0  0  0
 44 36  1  0  0  0  0
 45 38  1  0  0  0  0
 48 50  1  0  0  0  0
 48 49  2  0  0  0  0
M  END
>  <minimizedAffinity>
-7.49097443

$$$$

 OpenBabel03252506303D

 50 55  0  0  0  0  0  0  0  0999 V2000
   37.7680   32.3660   40.5600 C   0  0  0  0  0  0  0  0  0  0  0  0
   37.1200   33.1070   39.5580 C   0  0  0  0  0  0  0  0  0  0  0  0
   37.6650   34.3470   39.5150 C   0  0  0  0  0  0  0  0  0  0  0  0
   38.6110   34.3690   40.4520 N   0  0  0  0  0  0  0  0  0  0  0  0
   38.6900   33.1990   41.0880 N   0  0  0  0  0  0  0  0  0  0  0  0
   36.3100   32.7880   38.8990 H   0  0  0  0  0  0  0  0  0  0  0  0
   37.3810   35.1590   38.8450 H   0  0  0  0  0  0  0  0  0  0  0  0
   36.0510   29.1670   40.9590 C   0  0  0  0  0  0  0  0  0  0  0  0
   36.9990   28.3930   41.6460 C   0  0  0  0  0  0  0  0  0  0  0  0
   38.2160   28.9900   41.9600 C   0  0  0  0  0  0  0  0  0  0  0  0
   38.3890   30.2620   41.5810 N   0  0  0  0  0  0  0  0  0  0  0  0
   37.4810   30.9970   40.9240 C   0  0  0  0  0  0  0  0  0  0  0  0
   36.3130   30.4280   40.6210 N   0  0  0  0  0  0  0  0  0  0  0  0
   35.0960   28.7020   40.7110 H   0  0  0  0  0  0  0  0  0  0  0  0
   36.8210   27.3880   41.9280 H   0  0  0  0  0  0  0  0  0  0  0  0
   38.9590   27.1540   43.3550 C   0  0  0  0  0  3  0  0  0  0  0  0
   39.2880   28.3050   42.6700 C   0  0  0  0  0  0  0  0  0  0  0  0
   40.5910   28.7520   42.6810 C   0  0  0  0  0  0  0  0  0  0  0  0
   40.8650   29.6340   42.1620 H   0  0  0  0  0  0  0  0  0  0  0  0
   41.6010   28.0760   43.3700 C   0  0  0  0  0  0  0  0  0  0  0  0
   42.9170   28.3060   43.5300 N   0  0  0  0  0  0  0  0  0  0  0  0
   43.3940   29.1290   43.0960 H   0  0  0  0  0  0  0  0  0  0  0  0
   43.3970   27.3070   44.3060 C   0  0  0  0  0  0  0  0  0  0  0  0
   44.4470   27.3250   44.5440 H   0  0  0  0  0  0  0  0  0  0  0  0
   42.3780   26.4360   44.6420 C   0  0  0  0  0  3  0  0  0  0  0  0
   41.2240   26.9170   44.0500 C   0  0  0  0  0  0  0  0  0  0  0  0
   39.9230   26.4480   44.0530 C   0  0  0  0  0  3  0  0  0  0  0  0
   39.4530   35.5170   40.7500 C   0  0  0  0  0  0  0  0  0  0  0  0
   40.0970   35.1890   41.6020 H   0  0  0  0  0  0  0  0  0  0  0  0
   38.8600   36.3690   41.0720 H   0  0  0  0  0  0  0  0  0  0  0  0
   40.3790   35.7900   39.6110 C   0  0  0  0  0  0  0  0  0  0  0  0
   40.5680   36.8920   39.5920 H   0  0  0  0  0  0  0  0  0  0  0  0
   39.8290   35.5880   38.6680 H   0  0  0  0  0  0  0  0  0  0  0  0
   42.3310   34.4810   40.6210 C   0  0  0  0  0  0  0  0  0  0  0  0
   41.6200   35.0320   39.5810 C   0  0  0  0  0  0  0  0  0  0  0  0
   42.1480   34.8500   38.3030 C   0  0  0  0  0  0  0  0  0  0  0  0
   43.3100   34.1610   38.0890 C   0  0  0  0  0  0  0  0  0  0  0  0
   44.0380   33.8350   37.0000 N   0  0  0  0  0  0  0  0  0  0  0  0
   45.1200   33.1340   37.3310 C   0  0  0  0  0  0  0  0  0  0  0  0
   45.1410   32.9680   38.7160 C   0  0  0  0  0  0  0  0  0  0  0  0
   44.0140   33.6140   39.1290 C   0  0  0  0  0  0  0  0  0  0  0  0
   43.4990   33.7890   40.3990 C   0  0  0  0  0  0  0  0  0  0  0  0
   41.8910   34.6420   41.5970 H   0  0  0  0  0  0  0  0  0  0  0  0
   41.6890   35.2330   37.3930 H   0  0  0  0  0  0  0  0  0  0  0  0
   43.7860   34.1000   36.0050 H   0  0  0  0  0  0  0  0  0  0  0  0
   45.8970   32.7320   36.6670 H   0  0  0  0  0  0  0  0  0  0  0  0
   45.8750   32.4520   39.3130 H   0  0  0  0  0  0  0  0  0  0  0  0
   44.2110   33.2250   41.5460 C   0  0  0  0  0  0  0  0  0  0  0  0
   43.9360   32.0890   41.9960 O   0  0  0  0  0  0  0  0  0  0  0  0
   44.9990   33.7690   42.0490 H   0  0  0  0  0  0  0  0  0  0  0  0
  1 12  1  0  0  0  0
  1  5  2  0  0  0  0
  2  1  1  0  0  0  0
  3  2  2  0  0  0  0
  3  4  1  0  0  0  0
  4 28  1  0  0  0  0
  4  5  1  0  0  0  0
  6  2  1  0  0  0  0
  7  3  1  0  0  0  0
  8  9  1  0  0  0  0
  9 15  1  0  0  0  0
  9 10  2  0  0  0  0
 10 17  1  0  0  0  0
 11 10  1  0  0  0  0
 12 11  2  0  0  0  0
 13 12  1  0  0  0  0
 13  8  2  0  0  0  0
 14  8  1  0  0  0  0
 16 27  1  0  0  0  0
 17 18  1  0  0  0  0
 17 16  2  0  0  0  0
 18 20  2  0  0  0  0
 19 18  1  0  0  0  0
 20 21  1  0  0  0  0
 20 26  1  0  0  0  0
 21 23  1  0  0  0  0
 22 21  1  0  0  0  0
 23 24  1  0  0  0  0
 23 25  2  0  0  0  0
 26 27  2  0  0  0  0
 26 25  1  0  0  0  0
 28 30  1  0  0  0  0
 28 29  1  0  0  0  0
 31 28  1  0  0  0  0
 32 31  1  0  0  0  0
 33 31  1  0  0  0  0
 34 43  1  0  0  0  0
 35 31  1  0  0  0  0
 35 34  2  0  0  0  0
 36 35  1  0  0  0  0
 37 36  2  0  0  0  0
 37 41  1  0  0  0  0
 38 39  1  0  0  0  0
 38 37  1  0  0  0  0
 39 40  2  0  0  0  0
 40 41  1  0  0  0  0
 40 47  1  0  0  0  0
 41 42  2  0  0  0  0
 42 34  1  0  0  0  0
 42 48  1  0  0  0  0
 44 36  1  0  0  0  0
 45 38  1  0  0  0  0
 46 39  1  0  0  0  0
 48 49  2  0  0  0  0
 48 50  1  0  0  0  0
M  END
>  <minimizedAffinity>
-7.41984129

$$$$

 OpenBabel03252506303D

 50 55  0  0  0  0  0  0  0  0999 V2000
   40.7670   30.6420   41.9640 C   0  0  0  0  0  0  0  0  0  0  0  0
   41.7410   31.2000   42.8080 C   0  0  0  0  0  0  0  0  0  0  0  0
   42.4640   30.1950   43.3600 C   0  0  0  0  0  0  0  0  0  0  0  0
   41.9560   29.0640   42.8760 N   0  0  0  0  0  0  0  0  0  0  0  0
   40.9430   29.3060   42.0410 N   0  0  0  0  0  0  0  0  0  0  0  0
   41.9270   32.2550   43.0190 H   0  0  0  0  0  0  0  0  0  0  0  0
   43.2940   30.3000   44.0590 H   0  0  0  0  0  0  0  0  0  0  0  0
   38.9930   33.3690   40.3040 C   0  0  0  0  0  0  0  0  0  0  0  0
   37.9080   32.7100   39.7060 C   0  0  0  0  0  0  0  0  0  0  0  0
   37.8070   31.3350   39.8860 C   0  0  0  0  0  0  0  0  0  0  0  0
   38.7590   30.7430   40.6200 N   0  0  0  0  0  0  0  0  0  0  0  0
   39.7930   31.3760   41.1890 C   0  0  0  0  0  0  0  0  0  0  0  0
   39.8930   32.6960   41.0180 N   0  0  0  0  0  0  0  0  0  0  0  0
   39.0750   34.4480   40.1650 H   0  0  0  0  0  0  0  0  0  0  0  0
   37.1760   33.2180   39.1320 H   0  0  0  0  0  0  0  0  0  0  0  0
   35.8010   30.0140   40.1990 C   0  0  0  0  0  3  0  0  0  0  0  0
   36.7340   30.5260   39.3220 C   0  0  0  0  0  0  0  0  0  0  0  0
   36.6190   30.2600   37.9760 C   0  0  0  0  0  0  0  0  0  0  0  0
   37.3250   30.6430   37.2860 H   0  0  0  0  0  0  0  0  0  0  0  0
   35.5800   29.4820   37.4600 C   0  0  0  0  0  0  0  0  0  0  0  0
   35.2570   29.0880   36.2150 N   0  0  0  0  0  0  0  0  0  0  0  0
   35.8260   29.3590   35.3820 H   0  0  0  0  0  0  0  0  0  0  0  0
   34.1340   28.3390   36.3200 C   0  0  0  0  0  0  0  0  0  0  0  0
   33.7230   27.9330   35.4120 H   0  0  0  0  0  0  0  0  0  0  0  0
   33.7410   28.2570   37.6420 C   0  0  0  0  0  3  0  0  0  0  0  0
   34.6580   28.9830   38.3830 C   0  0  0  0  0  0  0  0  0  0  0  0
   34.7520   29.2370   39.7380 C   0  0  0  0  0  3  0  0  0  0  0  0
   42.4380   27.7330   43.2080 C   0  0  0  0  0  0  0  0  0  0  0  0
   43.3850   27.9010   43.7750 H   0  0  0  0  0  0  0  0  0  0  0  0
   42.6680   27.1610   42.3120 H   0  0  0  0  0  0  0  0  0  0  0  0
   41.5000   27.0630   44.1570 C   0  0  0  0  0  0  0  0  0  0  0  0
   41.3590   27.7500   45.0280 H   0  0  0  0  0  0  0  0  0  0  0  0
   42.0200   26.1800   44.5850 H   0  0  0  0  0  0  0  0  0  0  0  0
   38.9970   27.2310   43.6580 C   0  0  0  0  0  0  0  0  0  0  0  0
   40.2270   26.6170   43.6140 C   0  0  0  0  0  0  0  0  0  0  0  0
   40.2840   25.3880   42.9590 C   0  0  0  0  0  0  0  0  0  0  0  0
   39.1790   24.8170   42.3880 C   0  0  0  0  0  0  0  0  0  0  0  0
   38.9390   23.6750   41.7100 N   0  0  0  0  0  0  0  0  0  0  0  0
   37.6590   23.5800   41.3560 C   0  0  0  0  0  0  0  0  0  0  0  0
   36.9820   24.7120   41.8120 C   0  0  0  0  0  0  0  0  0  0  0  0
   37.9570   25.4330   42.4350 C   0  0  0  0  0  0  0  0  0  0  0  0
   37.8900   26.6520   43.0820 C   0  0  0  0  0  0  0  0  0  0  0  0
   38.9920   28.1820   44.1740 H   0  0  0  0  0  0  0  0  0  0  0  0
   41.1910   24.7950   42.8510 H   0  0  0  0  0  0  0  0  0  0  0  0
   39.6710   22.9430   41.4840 H   0  0  0  0  0  0  0  0  0  0  0  0
   37.1670   22.7700   40.8000 H   0  0  0  0  0  0  0  0  0  0  0  0
   35.9390   24.9530   41.6980 H   0  0  0  0  0  0  0  0  0  0  0  0
   36.6090   27.3540   43.1610 C   0  0  0  0  0  0  0  0  0  0  0  0
   35.9930   27.4790   44.2450 O   0  0  0  0  0  0  0  0  0  0  0  0
   36.1450   27.7890   42.2860 H   0  0  0  0  0  0  0  0  0  0  0  0
  1  5  2  0  0  0  0
  1  2  1  0  0  0  0
  2  6  1  0  0  0  0
  2  3  2  0  0  0  0
  3  7  1  0  0  0  0
  4 28  1  0  0  0  0
  4  3  1  0  0  0  0
  5  4  1  0  0  0  0
  8 13  1  0  0  0  0
  9 10  1  0  0  0  0
  9  8  2  0  0  0  0
 10 11  2  0  0  0  0
 11 12  1  0  0  0  0
 12  1  1  0  0  0  0
 13 12  2  0  0  0  0
 14  8  1  0  0  0  0
 15  9  1  0  0  0  0
 17 10  1  0  0  0  0
 17 16  2  0  0  0  0
 18 17  1  0  0  0  0
 19 18  1  0  0  0  0
 20 18  2  0  0  0  0
 20 26  1  0  0  0  0
 21 23  1  0  0  0  0
 21 20  1  0  0  0  0
 22 21  1  0  0  0  0
 23 25  2  0  0  0  0
 24 23  1  0  0  0  0
 25 26  1  0  0  0  0
 26 27  2  0  0  0  0
 27 16  1  0  0  0  0
 28 29  1  0  0  0  0
 28 31  1  0  0  0  0
 30 28  1  0  0  0  0
 31 33  1  0  0  0  0
 31 32  1  0  0  0  0
 34 43  1  0  0  0  0
 35 34  1  0  0  0  0
 35 31  1  0  0  0  0
 36 35  2  0  0  0  0
 37 41  2  0  0  0  0
 37 36  1  0  0  0  0
 38 37  1  0  0  0  0
 39 38  1  0  0  0  0
 39 40  2  0  0  0  0
 40 41  1  0  0  0  0
 41 42  1  0  0  0  0
 42 48  1  0  0  0  0
 42 34  2  0  0  0  0
 44 36  1  0  0  0  0
 45 38  1  0  0  0  0
 46 39  1  0  0  0  0
 47 40  1  0  0  0  0
 48 49  2  0  0  0  0
 50 48  1  0  0  0  0
M  END
>  <minimizedAffinity>
-7.40923548

$$$$

 OpenBabel03252506303D

 50 55  0  0  0  0  0  0  0  0999 V2000
   41.6470   31.5330   41.7030 C   0  0  0  0  0  0  0  0  0  0  0  0
   42.5480   32.6090   41.7840 C   0  0  0  0  0  0  0  0  0  0  0  0
   42.0870   33.6190   41.0070 C   0  0  0  0  0  0  0  0  0  0  0  0
   40.9490   33.1840   40.4690 N   0  0  0  0  0  0  0  0  0  0  0  0
   40.6680   31.9420   40.8700 N   0  0  0  0  0  0  0  0  0  0  0  0
   43.4740   32.6720   42.3590 H   0  0  0  0  0  0  0  0  0  0  0  0
   42.5580   34.5910   40.8580 H   0  0  0  0  0  0  0  0  0  0  0  0
   42.9350   28.8330   43.7990 C   0  0  0  0  0  0  0  0  0  0  0  0
   41.9610   27.8350   43.6470 C   0  0  0  0  0  0  0  0  0  0  0  0
   40.8750   28.1120   42.8220 C   0  0  0  0  0  0  0  0  0  0  0  0
   40.8440   29.3150   42.2350 N   0  0  0  0  0  0  0  0  0  0  0  0
   41.7760   30.2650   42.3840 C   0  0  0  0  0  0  0  0  0  0  0  0
   42.8190   30.0030   43.1740 N   0  0  0  0  0  0  0  0  0  0  0  0
   43.7880   28.6200   44.4450 H   0  0  0  0  0  0  0  0  0  0  0  0
   42.0240   26.8950   44.1310 H   0  0  0  0  0  0  0  0  0  0  0  0
   38.5290   27.5330   42.9900 C   0  0  0  0  0  3  0  0  0  0  0  0
   39.7920   27.1680   42.5750 C   0  0  0  0  0  0  0  0  0  0  0  0
   39.9790   25.9520   41.9560 C   0  0  0  0  0  0  0  0  0  0  0  0
   40.9410   25.6520   41.6300 H   0  0  0  0  0  0  0  0  0  0  0  0
   38.9230   25.0650   41.7300 C   0  0  0  0  0  0  0  0  0  0  0  0
   38.8510   23.8480   41.1610 N   0  0  0  0  0  0  0  0  0  0  0  0
   39.6920   23.3670   40.7700 H   0  0  0  0  0  0  0  0  0  0  0  0
   37.5540   23.4640   41.2220 C   0  0  0  0  0  0  0  0  0  0  0  0
   37.3020   22.5030   40.8080 H   0  0  0  0  0  0  0  0  0  0  0  0
   36.7980   24.4450   41.8350 C   0  0  0  0  0  3  0  0  0  0  0  0
   37.6610   25.4740   42.1660 C   0  0  0  0  0  0  0  0  0  0  0  0
   37.4490   26.6900   42.7900 C   0  0  0  0  0  3  0  0  0  0  0  0
   40.1150   33.9560   39.5620 C   0  0  0  0  0  0  0  0  0  0  0  0
   40.1880   33.4250   38.5810 H   0  0  0  0  0  0  0  0  0  0  0  0
   40.4970   34.9660   39.4370 H   0  0  0  0  0  0  0  0  0  0  0  0
   38.6830   33.8710   39.9740 C   0  0  0  0  0  0  0  0  0  0  0  0
   38.1770   34.8020   39.6170 H   0  0  0  0  0  0  0  0  0  0  0  0
   38.6420   33.9420   41.0820 H   0  0  0  0  0  0  0  0  0  0  0  0
   37.9320   32.0390   38.3550 C   0  0  0  0  0  0  0  0  0  0  0  0
   37.9560   32.6770   39.5720 C   0  0  0  0  0  0  0  0  0  0  0  0
   37.1780   32.1150   40.5830 C   0  0  0  0  0  0  0  0  0  0  0  0
   36.4270   30.9890   40.3810 C   0  0  0  0  0  0  0  0  0  0  0  0
   35.6030   30.2420   41.1450 N   0  0  0  0  0  0  0  0  0  0  0  0
   35.1010   29.2160   40.4610 C   0  0  0  0  0  0  0  0  0  0  0  0
   35.6030   29.2570   39.1590 C   0  0  0  0  0  0  0  0  0  0  0  0
   36.4070   30.3580   39.1650 C   0  0  0  0  0  0  0  0  0  0  0  0
   37.1760   30.9070   38.1570 C   0  0  0  0  0  0  0  0  0  0  0  0
   38.5480   32.5040   37.5960 H   0  0  0  0  0  0  0  0  0  0  0  0
   37.1040   32.5170   41.5930 H   0  0  0  0  0  0  0  0  0  0  0  0
   35.3790   30.4410   42.1620 H   0  0  0  0  0  0  0  0  0  0  0  0
   34.4060   28.4410   40.8120 H   0  0  0  0  0  0  0  0  0  0  0  0
   35.4020   28.5780   38.3480 H   0  0  0  0  0  0  0  0  0  0  0  0
   37.1910   30.2730   36.8390 C   0  0  0  0  0  0  0  0  0  0  0  0
   38.0120   29.3710   36.5530 O   0  0  0  0  0  0  0  0  0  0  0  0
   36.4960   30.5610   36.0620 H   0  0  0  0  0  0  0  0  0  0  0  0
  1  2  1  0  0  0  0
  1 12  1  0  0  0  0
  2  6  1  0  0  0  0
  3  2  2  0  0  0  0
  4  5  1  0  0  0  0
  4  3  1  0  0  0  0
  5  1  2  0  0  0  0
  7  3  1  0  0  0  0
  8 14  1  0  0  0  0
  9  8  1  0  0  0  0
  9 15  1  0  0  0  0
 10  9  2  0  0  0  0
 11 12  2  0  0  0  0
 11 10  1  0  0  0  0
 12 13  1  0  0  0  0
 13  8  2  0  0  0  0
 17 10  1  0  0  0  0
 17 16  2  0  0  0  0
 18 17  1  0  0  0  0
 19 18  1  0  0  0  0
 20 18  2  0  0  0  0
 20 26  1  0  0  0  0
 21 23  1  0  0  0  0
 21 20  1  0  0  0  0
 22 21  1  0  0  0  0
 23 25  2  0  0  0  0
 24 23  1  0  0  0  0
 25 26  1  0  0  0  0
 26 27  2  0  0  0  0
 27 16  1  0  0  0  0
 28 31  1  0  0  0  0
 28  4  1  0  0  0  0
 29 28  1  0  0  0  0
 30 28  1  0  0  0  0
 31 33  1  0  0  0  0
 32 31  1  0  0  0  0
 34 35  1  0  0  0  0
 35 31  1  0  0  0  0
 35 36  2  0  0  0  0
 36 44  1  0  0  0  0
 37 36  1  0  0  0  0
 37 38  1  0  0  0  0
 38 45  1  0  0  0  0
 39 46  1  0  0  0  0
 39 38  1  0  0  0  0
 40 41  1  0  0  0  0
 40 39  2  0  0  0  0
 41 37  2  0  0  0  0
 42 34  2  0  0  0  0
 42 41  1  0  0  0  0
 43 34  1  0  0  0  0
 47 40  1  0  0  0  0
 48 42  1  0  0  0  0
 49 48  2  0  0  0  0
 50 48  1  0  0  0  0
M  END
>  <minimizedAffinity>
-7.30443335

$$$$

 OpenBabel03252506303D

 50 55  0  0  0  0  0  0  0  0999 V2000
   36.1480   26.2400   37.8820 C   0  0  0  0  0  0  0  0  0  0  0  0
   35.1670   25.2870   37.5570 C   0  0  0  0  0  0  0  0  0  0  0  0
   35.3120   24.2180   38.3780 C   0  0  0  0  0  0  0  0  0  0  0  0
   36.3400   24.5000   39.1760 N   0  0  0  0  0  0  0  0  0  0  0  0
   36.8540   25.7010   38.8980 N   0  0  0  0  0  0  0  0  0  0  0  0
   34.3970   25.3470   36.7860 H   0  0  0  0  0  0  0  0  0  0  0  0
   34.7050   23.3130   38.3790 H   0  0  0  0  0  0  0  0  0  0  0  0
   36.2460   28.8720   35.3520 C   0  0  0  0  0  0  0  0  0  0  0  0
   36.7080   29.9790   36.0800 C   0  0  0  0  0  0  0  0  0  0  0  0
   36.9770   29.7980   37.4320 C   0  0  0  0  0  0  0  0  0  0  0  0
   36.7740   28.5750   37.9370 N   0  0  0  0  0  0  0  0  0  0  0  0
   36.3330   27.5200   37.2400 C   0  0  0  0  0  0  0  0  0  0  0  0
   36.0730   27.6900   35.9410 N   0  0  0  0  0  0  0  0  0  0  0  0
   36.0340   29.0100   34.2910 H   0  0  0  0  0  0  0  0  0  0  0  0
   36.8550   30.9320   35.6400 H   0  0  0  0  0  0  0  0  0  0  0  0
   36.7290   31.1250   39.4430 C   0  0  0  0  0  3  0  0  0  0  0  0
   37.4610   30.8600   38.3050 C   0  0  0  0  0  0  0  0  0  0  0  0
   38.5970   31.5930   38.0430 C   0  0  0  0  0  0  0  0  0  0  0  0
   39.1740   31.4050   37.1740 H   0  0  0  0  0  0  0  0  0  0  0  0
   39.0400   32.6060   38.8960 C   0  0  0  0  0  0  0  0  0  0  0  0
   40.0920   33.4440   38.8610 N   0  0  0  0  0  0  0  0  0  0  0  0
   40.7910   33.4250   38.0840 H   0  0  0  0  0  0  0  0  0  0  0  0
   40.0120   34.2200   39.9670 C   0  0  0  0  0  0  0  0  0  0  0  0
   40.7810   34.9590   40.1100 H   0  0  0  0  0  0  0  0  0  0  0  0
   38.9000   33.8720   40.7100 C   0  0  0  0  0  3  0  0  0  0  0  0
   38.2690   32.8410   40.0360 C   0  0  0  0  0  0  0  0  0  0  0  0
   37.1250   32.1200   40.3210 C   0  0  0  0  0  3  0  0  0  0  0  0
   36.8440   23.6200   40.2180 C   0  0  0  0  0  0  0  0  0  0  0  0
   37.9560   23.6620   40.1190 H   0  0  0  0  0  0  0  0  0  0  0  0
   36.5210   22.5940   40.0600 H   0  0  0  0  0  0  0  0  0  0  0  0
   36.5270   24.1780   41.5670 C   0  0  0  0  0  0  0  0  0  0  0  0
   36.3010   23.3150   42.2400 H   0  0  0  0  0  0  0  0  0  0  0  0
   35.5650   24.7280   41.4910 H   0  0  0  0  0  0  0  0  0  0  0  0
   37.3900   26.3970   42.5020 C   0  0  0  0  0  0  0  0  0  0  0  0
   37.5130   25.0720   42.1530 C   0  0  0  0  0  0  0  0  0  0  0  0
   38.7530   24.4810   42.3880 C   0  0  0  0  0  0  0  0  0  0  0  0
   39.7970   25.1760   42.9340 C   0  0  0  0  0  0  0  0  0  0  0  0
   41.0710   24.8780   43.2660 N   0  0  0  0  0  0  0  0  0  0  0  0
   41.6990   25.9330   43.7820 C   0  0  0  0  0  0  0  0  0  0  0  0
   40.8150   27.0130   43.8080 C   0  0  0  0  0  0  0  0  0  0  0  0
   39.6690   26.4950   43.2800 C   0  0  0  0  0  0  0  0  0  0  0  0
   38.4430   27.0900   43.0510 C   0  0  0  0  0  0  0  0  0  0  0  0
   36.4140   26.8210   42.3050 H   0  0  0  0  0  0  0  0  0  0  0  0
   38.9880   23.4420   42.1590 H   0  0  0  0  0  0  0  0  0  0  0  0
   41.5220   23.9280   43.1350 H   0  0  0  0  0  0  0  0  0  0  0  0
   42.7350   25.9970   44.1410 H   0  0  0  0  0  0  0  0  0  0  0  0
   40.9980   28.0130   44.1610 H   0  0  0  0  0  0  0  0  0  0  0  0
   38.2510   28.4980   43.4020 C   0  0  0  0  0  0  0  0  0  0  0  0
   37.3360   29.1840   42.8930 O   0  0  0  0  0  0  0  0  0  0  0  0
   38.8950   28.9980   44.1130 H   0  0  0  0  0  0  0  0  0  0  0  0
  1  5  2  0  0  0  0
  2  1  1  0  0  0  0
  2  3  2  0  0  0  0
  3  7  1  0  0  0  0
  3  4  1  0  0  0  0
  4 28  1  0  0  0  0
  5  4  1  0  0  0  0
  6  2  1  0  0  0  0
  8 13  2  0  0  0  0
  8  9  1  0  0  0  0
  9 10  2  0  0  0  0
 10 11  1  0  0  0  0
 10 17  1  0  0  0  0
 12  1  1  0  0  0  0
 12 11  2  0  0  0  0
 13 12  1  0  0  0  0
 14  8  1  0  0  0  0
 15  9  1  0  0  0  0
 16 27  1  0  0  0  0
 17 16  2  0  0  0  0
 18 17  1  0  0  0  0
 18 20  2  0  0  0  0
 19 18  1  0  0  0  0
 20 26  1  0  0  0  0
 21 20  1  0  0  0  0
 21 23  1  0  0  0  0
 22 21  1  0  0  0  0
 23 24  1  0  0  0  0
 23 25  2  0  0  0  0
 26 27  2  0  0  0  0
 26 25  1  0  0  0  0
 28 31  1  0  0  0  0
 29 28  1  0  0  0  0
 30 28  1  0  0  0  0
 31 35  1  0  0  0  0
 31 32  1  0  0  0  0
 33 31  1  0  0  0  0
 34 42  1  0  0  0  0
 35 36  1  0  0  0  0
 35 34  2  0  0  0  0
 36 37  2  0  0  0  0
 37 38  1  0  0  0  0
 37 41  1  0  0  0  0
 38 39  1  0  0  0  0
 39 40  2  0  0  0  0
 39 46  1  0  0  0  0
 40 47  1  0  0  0  0
 41 40  1  0  0  0  0
 42 41  2  0  0  0  0
 42 48  1  0  0  0  0
 43 34  1  0  0  0  0
 44 36  1  0  0  0  0
 45 38  1  0  0  0  0
 48 50  1  0  0  0  0
 49 48  2  0  0  0  0
M  END
>  <minimizedAffinity>
-7.24090195

$$$$

 OpenBabel03252506303D

 50 55  0  0  0  0  0  0  0  0999 V2000
   38.3750   31.3010   39.7350 C   0  0  0  0  0  0  0  0  0  0  0  0
   37.2220   32.0220   40.0910 C   0  0  0  0  0  0  0  0  0  0  0  0
   36.3510   31.1770   40.6940 C   0  0  0  0  0  0  0  0  0  0  0  0
   36.9420   29.9840   40.7090 N   0  0  0  0  0  0  0  0  0  0  0  0
   38.1490   30.0340   40.1420 N   0  0  0  0  0  0  0  0  0  0  0  0
   37.0130   33.0820   39.9330 H   0  0  0  0  0  0  0  0  0  0  0  0
   35.3660   31.4300   41.0860 H   0  0  0  0  0  0  0  0  0  0  0  0
   40.7830   32.2070   37.1430 C   0  0  0  0  0  0  0  0  0  0  0  0
   41.7780   32.8770   37.8700 C   0  0  0  0  0  0  0  0  0  0  0  0
   41.6010   33.0060   39.2440 C   0  0  0  0  0  0  0  0  0  0  0  0
   40.4880   32.4770   39.7680 N   0  0  0  0  0  0  0  0  0  0  0  0
   39.5400   31.8370   39.0710 C   0  0  0  0  0  0  0  0  0  0  0  0
   39.7070   31.7120   37.7520 N   0  0  0  0  0  0  0  0  0  0  0  0
   40.9190   32.1040   36.0660 H   0  0  0  0  0  0  0  0  0  0  0  0
   42.6450   33.2820   37.4150 H   0  0  0  0  0  0  0  0  0  0  0  0
   43.8930   33.5020   39.8480 C   0  0  0  0  0  3  0  0  0  0  0  0
   42.5530   33.6770   40.1190 C   0  0  0  0  0  0  0  0  0  0  0  0
   42.1730   34.4640   41.1830 C   0  0  0  0  0  0  0  0  0  0  0  0
   41.1480   34.6120   41.4100 H   0  0  0  0  0  0  0  0  0  0  0  0
   43.1060   35.0980   42.0070 C   0  0  0  0  0  0  0  0  0  0  0  0
   42.9890   35.8980   43.0830 N   0  0  0  0  0  0  0  0  0  0  0  0
   42.0600   36.1710   43.4740 H   0  0  0  0  0  0  0  0  0  0  0  0
   44.2460   36.2150   43.4730 C   0  0  0  0  0  0  0  0  0  0  0  0
   44.3510   36.8560   44.3310 H   0  0  0  0  0  0  0  0  0  0  0  0
   45.1680   35.6110   42.6400 C   0  0  0  0  0  3  0  0  0  0  0  0
   44.4520   34.8930   41.6970 C   0  0  0  0  0  0  0  0  0  0  0  0
   44.8580   34.1080   40.6340 C   0  0  0  0  0  3  0  0  0  0  0  0
   36.3540   28.7770   41.2680 C   0  0  0  0  0  0  0  0  0  0  0  0
   36.7510   27.9440   40.6390 H   0  0  0  0  0  0  0  0  0  0  0  0
   35.2710   28.7890   41.1830 H   0  0  0  0  0  0  0  0  0  0  0  0
   36.8740   28.5380   42.6480 C   0  0  0  0  0  0  0  0  0  0  0  0
   36.0230   28.1540   43.2630 H   0  0  0  0  0  0  0  0  0  0  0  0
   37.1150   29.5250   43.0970 H   0  0  0  0  0  0  0  0  0  0  0  0
   38.1630   26.3300   42.5960 C   0  0  0  0  0  0  0  0  0  0  0  0
   38.0490   27.6890   42.7670 C   0  0  0  0  0  0  0  0  0  0  0  0
   39.2160   28.3730   43.1030 C   0  0  0  0  0  0  0  0  0  0  0  0
   40.4140   27.7310   43.2570 C   0  0  0  0  0  0  0  0  0  0  0  0
   41.6700   28.1170   43.5690 N   0  0  0  0  0  0  0  0  0  0  0  0
   42.5060   27.0810   43.5920 C   0  0  0  0  0  0  0  0  0  0  0  0
   41.7930   25.9220   43.2810 C   0  0  0  0  0  0  0  0  0  0  0  0
   40.5220   26.3760   43.0850 C   0  0  0  0  0  0  0  0  0  0  0  0
   39.3700   25.6900   42.7510 C   0  0  0  0  0  0  0  0  0  0  0  0
   37.2360   25.8340   42.3350 H   0  0  0  0  0  0  0  0  0  0  0  0
   39.2680   29.4480   43.2680 H   0  0  0  0  0  0  0  0  0  0  0  0
   41.9610   29.1160   43.7710 H   0  0  0  0  0  0  0  0  0  0  0  0
   43.5820   27.0820   43.8130 H   0  0  0  0  0  0  0  0  0  0  0  0
   42.1620   24.9130   43.2120 H   0  0  0  0  0  0  0  0  0  0  0  0
   39.4290   24.2410   42.5560 C   0  0  0  0  0  0  0  0  0  0  0  0
   38.8190   23.6790   41.6170 O   0  0  0  0  0  0  0  0  0  0  0  0
   39.9990   23.6020   43.2160 H   0  0  0  0  0  0  0  0  0  0  0  0
  1  2  1  0  0  0  0
  1  5  2  0  0  0  0
  2  3  2  0  0  0  0
  3  4  1  0  0  0  0
  3  7  1  0  0  0  0
  4 28  1  0  0  0  0
  5  4  1  0  0  0  0
  6  2  1  0  0  0  0
  8 13  2  0  0  0  0
  8  9  1  0  0  0  0
  9 10  2  0  0  0  0
 10 11  1  0  0  0  0
 10 17  1  0  0  0  0
 12  1  1  0  0  0  0
 12 11  2  0  0  0  0
 13 12  1  0  0  0  0
 14  8  1  0  0  0  0
 15  9  1  0  0  0  0
 16 17  2  0  0  0  0
 16 27  1  0  0  0  0
 17 18  1  0  0  0  0
 18 19  1  0  0  0  0
 18 20  2  0  0  0  0
 20 21  1  0  0  0  0
 21 23  1  0  0  0  0
 21 22  1  0  0  0  0
 23 24  1  0  0  0  0
 25 23  2  0  0  0  0
 26 20  1  0  0  0  0
 26 25  1  0  0  0  0
 27 26  2  0  0  0  0
 28 31  1  0  0  0  0
 29 28  1  0  0  0  0
 30 28  1  0  0  0  0
 31 35  1  0  0  0  0
 31 33  1  0  0  0  0
 31 32  1  0  0  0  0
 34 42  2  0  0  0  0
 34 35  1  0  0  0  0
 35 36  2  0  0  0  0
 36 37  1  0  0  0  0
 36 44  1  0  0  0  0
 37 38  1  0  0  0  0
 38 39  1  0  0  0  0
 38 45  1  0  0  0  0
 39 46  1  0  0  0  0
 40 39  2  0  0  0  0
 41 37  2  0  0  0  0
 41 40  1  0  0  0  0
 42 41  1  0  0  0  0
 43 34  1  0  0  0  0
 47 40  1  0  0  0  0
 48 42  1  0  0  0  0
 48 50  1  0  0  0  0
 49 48  2  0  0  0  0
M  END
>  <minimizedAffinity>
-7.08055592

$$$$

 OpenBabel03252506303D

 50 55  0  0  0  0  0  0  0  0999 V2000
   38.5550   32.5570   40.1380 C   0  0  0  0  0  0  0  0  0  0  0  0
   37.3220   32.5060   39.4650 C   0  0  0  0  0  0  0  0  0  0  0  0
   36.5670   31.5260   40.0170 C   0  0  0  0  0  0  0  0  0  0  0  0
   37.3030   30.9940   40.9900 N   0  0  0  0  0  0  0  0  0  0  0  0
   38.4930   31.5920   41.0810 N   0  0  0  0  0  0  0  0  0  0  0  0
   36.9810   33.1270   38.6350 H   0  0  0  0  0  0  0  0  0  0  0  0
   35.5590   31.2370   39.7190 H   0  0  0  0  0  0  0  0  0  0  0  0
   40.6110   35.5720   39.9910 C   0  0  0  0  0  0  0  0  0  0  0  0
   41.7400   35.1390   39.2780 C   0  0  0  0  0  0  0  0  0  0  0  0
   41.7710   33.8120   38.8590 C   0  0  0  0  0  0  0  0  0  0  0  0
   40.7170   33.0480   39.1720 N   0  0  0  0  0  0  0  0  0  0  0  0
   39.6420   33.4650   39.8530 C   0  0  0  0  0  0  0  0  0  0  0  0
   39.6080   34.7370   40.2560 N   0  0  0  0  0  0  0  0  0  0  0  0
   40.5830   36.6110   40.3210 H   0  0  0  0  0  0  0  0  0  0  0  0
   42.5540   35.7780   39.0520 H   0  0  0  0  0  0  0  0  0  0  0  0
   44.1200   33.8110   38.2670 C   0  0  0  0  0  3  0  0  0  0  0  0
   42.8780   33.2310   38.1120 C   0  0  0  0  0  0  0  0  0  0  0  0
   42.7350   32.1470   37.2740 C   0  0  0  0  0  0  0  0  0  0  0  0
   41.7910   31.6870   37.1400 H   0  0  0  0  0  0  0  0  0  0  0  0
   43.8140   31.6080   36.5690 C   0  0  0  0  0  0  0  0  0  0  0  0
   43.9280   30.5780   35.7100 N   0  0  0  0  0  0  0  0  0  0  0  0
   43.1100   29.9870   35.4400 H   0  0  0  0  0  0  0  0  0  0  0  0
   45.2290   30.5220   35.3370 C   0  0  0  0  0  0  0  0  0  0  0  0
   45.5120   29.7500   34.6430 H   0  0  0  0  0  0  0  0  0  0  0  0
   45.9450   31.5230   35.9640 C   0  0  0  0  0  3  0  0  0  0  0  0
   45.0520   32.2260   36.7550 C   0  0  0  0  0  0  0  0  0  0  0  0
   45.2200   33.3150   37.5890 C   0  0  0  0  0  3  0  0  0  0  0  0
   36.8740   29.9010   41.8480 C   0  0  0  0  0  0  0  0  0  0  0  0
   36.6840   29.0460   41.1550 H   0  0  0  0  0  0  0  0  0  0  0  0
   35.9470   30.1420   42.3620 H   0  0  0  0  0  0  0  0  0  0  0  0
   37.9930   29.4710   42.7390 C   0  0  0  0  0  0  0  0  0  0  0  0
   37.7360   29.7950   43.7780 H   0  0  0  0  0  0  0  0  0  0  0  0
   38.8890   30.0720   42.4770 H   0  0  0  0  0  0  0  0  0  0  0  0
   39.4650   27.4360   43.2230 C   0  0  0  0  0  0  0  0  0  0  0  0
   38.3640   28.0660   42.6930 C   0  0  0  0  0  0  0  0  0  0  0  0
   37.4580   27.2580   42.0060 C   0  0  0  0  0  0  0  0  0  0  0  0
   37.6490   25.9110   41.8630 C   0  0  0  0  0  0  0  0  0  0  0  0
   36.9670   24.9080   41.2710 N   0  0  0  0  0  0  0  0  0  0  0  0
   37.5910   23.7420   41.4190 C   0  0  0  0  0  0  0  0  0  0  0  0
   38.7620   23.9480   42.1490 C   0  0  0  0  0  0  0  0  0  0  0  0
   38.7480   25.2890   42.3950 C   0  0  0  0  0  0  0  0  0  0  0  0
   39.6520   26.0810   43.0780 C   0  0  0  0  0  0  0  0  0  0  0  0
   40.1440   28.0950   43.7490 H   0  0  0  0  0  0  0  0  0  0  0  0
   36.5460   27.6250   41.5360 H   0  0  0  0  0  0  0  0  0  0  0  0
   36.0500   25.0270   40.7520 H   0  0  0  0  0  0  0  0  0  0  0  0
   37.2810   22.7550   41.0490 H   0  0  0  0  0  0  0  0  0  0  0  0
   39.4980   23.2200   42.4450 H   0  0  0  0  0  0  0  0  0  0  0  0
   40.8430   25.4690   43.6650 C   0  0  0  0  0  0  0  0  0  0  0  0
   41.9070   25.3450   43.0170 O   0  0  0  0  0  0  0  0  0  0  0  0
   40.8480   25.0980   44.6820 H   0  0  0  0  0  0  0  0  0  0  0  0
  1  5  2  0  0  0  0
  2  3  2  0  0  0  0
  2  1  1  0  0  0  0
  3  4  1  0  0  0  0
  4  5  1  0  0  0  0
  4 28  1  0  0  0  0
  6  2  1  0  0  0  0
  7  3  1  0  0  0  0
  8 13  1  0  0  0  0
  8 14  1  0  0  0  0
  9  8  2  0  0  0  0
 10 11  2  0  0  0  0
 10  9  1  0  0  0  0
 11 12  1  0  0  0  0
 12  1  1  0  0  0  0
 12 13  2  0  0  0  0
 15  9  1  0  0  0  0
 17 16  1  0  0  0  0
 17 10  1  0  0  0  0
 18 17  2  0  0  0  0
 19 18  1  0  0  0  0
 20 26  2  0  0  0  0
 20 18  1  0  0  0  0
 21 20  1  0  0  0  0
 22 21  1  0  0  0  0
 23 21  1  0  0  0  0
 23 25  2  0  0  0  0
 24 23  1  0  0  0  0
 25 26  1  0  0  0  0
 26 27  1  0  0  0  0
 27 16  2  0  0  0  0
 28 30  1  0  0  0  0
 28 31  1  0  0  0  0
 29 28  1  0  0  0  0
 31 32  1  0  0  0  0
 33 31  1  0  0  0  0
 34 43  1  0  0  0  0
 35 31  1  0  0  0  0
 35 34  2  0  0  0  0
 36 35  1  0  0  0  0
 37 36  2  0  0  0  0
 37 41  1  0  0  0  0
 38 39  1  0  0  0  0
 38 37  1  0  0  0  0
 39 40  2  0  0  0  0
 40 41  1  0  0  0  0
 40 47  1  0  0  0  0
 41 42  2  0  0  0  0
 42 34  1  0  0  0  0
 42 48  1  0  0  0  0
 44 36  1  0  0  0  0
 45 38  1  0  0  0  0
 46 39  1  0  0  0  0
 48 50  1  0  0  0  0
 49 48  2  0  0  0  0
M  END
>  <minimizedAffinity>
-7.03309345

$$$$

 OpenBabel03252506303D

 50 55  0  0  0  0  0  0  0  0999 V2000
   39.3940   32.4260   39.7700 C   0  0  0  0  0  0  0  0  0  0  0  0
   38.2910   33.2910   39.6710 C   0  0  0  0  0  0  0  0  0  0  0  0
   37.3340   32.6900   38.9240 C   0  0  0  0  0  0  0  0  0  0  0  0
   37.8270   31.5030   38.5760 N   0  0  0  0  0  0  0  0  0  0  0  0
   39.0540   31.3240   39.0700 N   0  0  0  0  0  0  0  0  0  0  0  0
   38.1740   34.2870   40.1030 H   0  0  0  0  0  0  0  0  0  0  0  0
   36.3590   33.1010   38.6640 H   0  0  0  0  0  0  0  0  0  0  0  0
   42.4380   34.0690   40.9450 C   0  0  0  0  0  0  0  0  0  0  0  0
   42.9510   33.1410   41.8650 C   0  0  0  0  0  0  0  0  0  0  0  0
   42.2370   31.9640   42.0640 C   0  0  0  0  0  0  0  0  0  0  0  0
   41.1100   31.8070   41.3590 N   0  0  0  0  0  0  0  0  0  0  0  0
   40.6230   32.6940   40.4820 C   0  0  0  0  0  0  0  0  0  0  0  0
   41.3050   33.8250   40.2880 N   0  0  0  0  0  0  0  0  0  0  0  0
   42.9950   34.9930   40.7870 H   0  0  0  0  0  0  0  0  0  0  0  0
   43.8480   33.3060   42.4030 H   0  0  0  0  0  0  0  0  0  0  0  0
   43.5990   31.2490   43.9350 C   0  0  0  0  0  3  0  0  0  0  0  0
   42.6530   30.9170   42.9880 C   0  0  0  0  0  0  0  0  0  0  0  0
   42.1500   29.6360   42.9510 C   0  0  0  0  0  0  0  0  0  0  0  0
   41.4230   29.3600   42.2310 H   0  0  0  0  0  0  0  0  0  0  0  0
   42.5660   28.6500   43.8490 C   0  0  0  0  0  0  0  0  0  0  0  0
   42.2320   27.3560   44.0140 N   0  0  0  0  0  0  0  0  0  0  0  0
   41.5280   26.8830   43.4040 H   0  0  0  0  0  0  0  0  0  0  0  0
   42.9650   26.8930   45.0540 C   0  0  0  0  0  0  0  0  0  0  0  0
   42.8290   25.8630   45.3340 H   0  0  0  0  0  0  0  0  0  0  0  0
   43.7690   27.8990   45.5530 C   0  0  0  0  0  3  0  0  0  0  0  0
   43.5240   29.0290   44.7910 C   0  0  0  0  0  0  0  0  0  0  0  0
   44.0450   30.3080   44.8470 C   0  0  0  0  0  3  0  0  0  0  0  0
   37.1240   30.5220   37.7650 C   0  0  0  0  0  0  0  0  0  0  0  0
   37.8520   29.6850   37.6290 H   0  0  0  0  0  0  0  0  0  0  0  0
   36.8740   30.9240   36.7860 H   0  0  0  0  0  0  0  0  0  0  0  0
   35.9720   29.9500   38.5220 C   0  0  0  0  0  0  0  0  0  0  0  0
   35.2640   29.5140   37.7750 H   0  0  0  0  0  0  0  0  0  0  0  0
   35.4090   30.7940   38.9750 H   0  0  0  0  0  0  0  0  0  0  0  0
   36.5030   27.6460   39.4970 C   0  0  0  0  0  0  0  0  0  0  0  0
   36.2880   29.0020   39.5780 C   0  0  0  0  0  0  0  0  0  0  0  0
   36.3840   29.5700   40.8480 C   0  0  0  0  0  0  0  0  0  0  0  0
   36.6740   28.8250   41.9570 C   0  0  0  0  0  0  0  0  0  0  0  0
   36.8260   29.0910   43.2720 N   0  0  0  0  0  0  0  0  0  0  0  0
   37.1140   27.9890   43.9610 C   0  0  0  0  0  0  0  0  0  0  0  0
   37.1620   26.9080   43.0790 C   0  0  0  0  0  0  0  0  0  0  0  0
   36.8860   27.4740   41.8700 C   0  0  0  0  0  0  0  0  0  0  0  0
   36.7940   26.9010   40.6160 C   0  0  0  0  0  0  0  0  0  0  0  0
   36.4210   27.2410   38.4970 H   0  0  0  0  0  0  0  0  0  0  0  0
   36.2370   30.6290   41.0550 H   0  0  0  0  0  0  0  0  0  0  0  0
   36.7310   30.0530   43.7070 H   0  0  0  0  0  0  0  0  0  0  0  0
   37.2910   27.8900   45.0410 H   0  0  0  0  0  0  0  0  0  0  0  0
   37.3680   25.8750   43.3050 H   0  0  0  0  0  0  0  0  0  0  0  0
   37.0130   25.4630   40.4660 C   0  0  0  0  0  0  0  0  0  0  0  0
   37.5760   24.9850   39.4540 O   0  0  0  0  0  0  0  0  0  0  0  0
   36.6950   24.7580   41.2230 H   0  0  0  0  0  0  0  0  0  0  0  0
  1 12  1  0  0  0  0
  2  1  1  0  0  0  0
  2  6  1  0  0  0  0
  3  2  2  0  0  0  0
  4  3  1  0  0  0  0
  4  5  1  0  0  0  0
  5  1  2  0  0  0  0
  7  3  1  0  0  0  0
  8  9  1  0  0  0  0
  9 10  2  0  0  0  0
  9 15  1  0  0  0  0
 10 17  1  0  0  0  0
 11 10  1  0  0  0  0
 12 11  2  0  0  0  0
 13 12  1  0  0  0  0
 13  8  2  0  0  0  0
 14  8  1  0  0  0  0
 16 27  1  0  0  0  0
 17 16  2  0  0  0  0
 18 17  1  0  0  0  0
 18 20  2  0  0  0  0
 19 18  1  0  0  0  0
 20 21  1  0  0  0  0
 20 26  1  0  0  0  0
 21 23  1  0  0  0  0
 22 21  1  0  0  0  0
 23 24  1  0  0  0  0
 23 25  2  0  0  0  0
 26 27  2  0  0  0  0
 26 25  1  0  0  0  0
 28 31  1  0  0  0  0
 28  4  1  0  0  0  0
 29 28  1  0  0  0  0
 30 28  1  0  0  0  0
 31 33  1  0  0  0  0
 31 35  1  0  0  0  0
 32 31  1  0  0  0  0
 34 35  2  0  0  0  0
 34 42  1  0  0  0  0
 35 36  1  0  0  0  0
 36 44  1  0  0  0  0
 36 37  2  0  0  0  0
 37 38  1  0  0  0  0
 38 45  1  0  0  0  0
 38 39  1  0  0  0  0
 39 46  1  0  0  0  0
 40 47  1  0  0  0  0
 40 39  2  0  0  0  0
 41 37  1  0  0  0  0
 41 40  1  0  0  0  0
 42 41  2  0  0  0  0
 43 34  1  0  0  0  0
 48 42  1  0  0  0  0
 48 50  1  0  0  0  0
 49 48  2  0  0  0  0
M  END
>  <minimizedAffinity>
-7.02518272

$$$$
