
 OpenBabel03252508593D

 48 51  0  0  1  0  0  0  0  0999 V2000
   46.9170   34.3940   43.3040 N   0  0  0  0  0  0  0  0  0  0  0  0
   46.4210   35.5260   42.6060 C   0  0  0  0  0  0  0  0  0  0  0  0
   44.9320   35.7460   42.7110 C   0  0  0  0  0  0  0  0  0  0  0  0
   44.3250   35.3060   44.0170 C   0  0  0  0  0  0  0  0  0  0  0  0
   45.3840   34.8490   44.9920 C   0  0  0  0  0  0  0  0  0  0  0  0
   46.1240   33.7050   44.2070 C   0  0  2  0  0  0  0  0  0  0  0  0
   46.8970   36.4190   43.0830 H   0  0  0  0  0  0  0  0  0  0  0  0
   46.6770   35.5830   41.5460 H   0  0  0  0  0  0  0  0  0  0  0  0
   44.7300   36.8560   42.6390 H   0  0  0  0  0  0  0  0  0  0  0  0
   44.3990   35.3050   41.8410 H   0  0  0  0  0  0  0  0  0  0  0  0
   43.6400   36.0220   44.4750 H   0  0  0  0  0  0  0  0  0  0  0  0
   43.7040   34.4020   43.7870 H   0  0  0  0  0  0  0  0  0  0  0  0
   46.1040   35.6250   45.2580 H   0  0  0  0  0  0  0  0  0  0  0  0
   44.9020   34.3310   45.8400 H   0  0  0  0  0  0  0  0  0  0  0  0
   45.3330   33.0310   43.8200 H   0  0  0  0  0  0  0  0  0  0  0  0
   47.9550   33.6850   42.6130 C   0  0  0  0  0  0  0  0  0  0  0  0
   48.6210   34.4180   42.1240 H   0  0  0  0  0  0  0  0  0  0  0  0
   48.5460   33.1200   43.3720 H   0  0  0  0  0  0  0  0  0  0  0  0
   47.3290   32.6990   41.6810 C   0  0  0  0  0  0  0  0  0  0  0  0
   47.4610   31.6470   41.9830 H   0  0  0  0  0  0  0  0  0  0  0  0
   46.2300   32.8850   41.5900 H   0  0  0  0  0  0  0  0  0  0  0  0
   49.2790   32.1340   38.5160 C   0  0  0  0  0  0  0  0  0  0  0  0
   48.7450   31.9600   39.8060 C   0  0  0  0  0  0  0  0  0  0  0  0
   47.8840   32.9000   40.3160 C   0  0  0  0  0  0  0  0  0  0  0  0
   47.5890   33.9570   39.5470 N   0  0  0  0  0  0  0  0  0  0  0  0
   48.1020   34.1220   38.3110 C   0  0  0  0  0  0  0  0  0  0  0  0
   48.9440   33.2230   37.7870 N   0  0  0  0  0  0  0  0  0  0  0  0
   49.9520   31.4040   38.1090 H   0  0  0  0  0  0  0  0  0  0  0  0
   49.0180   31.0850   40.3860 H   0  0  0  0  0  0  0  0  0  0  0  0
   47.8090   35.0080   37.7580 H   0  0  0  0  0  0  0  0  0  0  0  0
   46.8770   33.1160   45.2110 O   0  0  0  0  0  0  0  0  0  0  0  0
   45.4910   30.9430   44.5530 O   0  0  0  0  0  0  0  0  0  0  0  0
   46.2760   31.6200   45.6860 P   0  0  2  0  0  0  0  0  0  0  0  0
   45.1020   31.9410   46.8900 O   0  0  0  0  0  0  0  0  0  0  0  0
   44.4420   31.2270   46.8860 H   0  0  0  0  0  0  0  0  0  0  0  0
   47.4400   30.6340   46.3420 O   0  0  0  0  0  0  0  0  0  0  0  0
   48.3600   28.4790   46.5600 C   0  0  0  0  0  3  0  0  0  0  0  0
   47.2920   29.3470   46.7770 C   0  0  0  0  0  0  0  0  0  0  0  0
   46.1850   28.8080   47.4150 C   0  0  0  0  0  0  0  0  0  0  0  0
   45.3550   29.4830   47.5830 H   0  0  0  0  0  0  0  0  0  0  0  0
   46.1100   27.5070   47.8210 C   0  0  0  0  0  0  0  0  0  0  0  0
   45.1620   26.7960   48.4400 N   0  0  0  0  0  0  0  0  0  0  0  0
   44.2250   27.1250   48.7540 H   0  0  0  0  0  0  0  0  0  0  0  0
   45.6100   25.5420   48.6040 C   0  0  0  0  0  0  0  0  0  0  0  0
   45.0520   24.7430   49.0780 H   0  0  0  0  0  0  0  0  0  0  0  0
   46.8860   25.3970   48.0890 C   0  0  0  0  0  3  0  0  0  0  0  0
   47.1790   26.6590   47.6000 C   0  0  0  0  0  0  0  0  0  0  0  0
   48.3000   27.1710   46.9630 C   0  0  0  0  0  3  0  0  0  0  0  0
  1  6  1  0  0  0  0
  2  3  1  0  0  0  0
  2  7  1  0  0  0  0
  2  1  1  0  0  0  0
  3  4  1  0  0  0  0
  4 11  1  0  0  0  0
  4  5  1  0  0  0  0
  5 13  1  0  0  0  0
  5 14  1  0  0  0  0
  6 15  1  6  0  0  0
  6  5  1  0  0  0  0
  6 31  1  0  0  0  0
  8  2  1  0  0  0  0
  9  3  1  0  0  0  0
 10  3  1  0  0  0  0
 12  4  1  0  0  0  0
 16  1  1  0  0  0  0
 16 18  1  0  0  0  0
 17 16  1  0  0  0  0
 19 20  1  0  0  0  0
 19 16  1  0  0  0  0
 21 19  1  0  0  0  0
 22 23  1  0  0  0  0
 23 24  2  0  0  0  0
 23 29  1  0  0  0  0
 24 19  1  0  0  0  0
 25 24  1  0  0  0  0
 26 25  2  0  0  0  0
 27 26  1  0  0  0  0
 27 22  2  0  0  0  0
 28 22  1  0  0  0  0
 30 26  1  0  0  0  0
 31 33  1  0  0  0  0
 33 32  2  6  0  0  0
 33 36  1  0  0  0  0
 33 34  1  0  0  0  0
 35 34  1  0  0  0  0
 36 38  1  0  0  0  0
 37 38  2  0  0  0  0
 37 48  1  0  0  0  0
 38 39  1  0  0  0  0
 39 40  1  0  0  0  0
 39 41  2  0  0  0  0
 41 42  1  0  0  0  0
 42 44  1  0  0  0  0
 42 43  1  0  0  0  0
 44 45  1  0  0  0  0
 46 44  2  0  0  0  0
 47 41  1  0  0  0  0
 47 46  1  0  0  0  0
 48 47  2  0  0  0  0
M  END
>  <minimizedAffinity>
-4.60296583

>  <minimizedRMSD>
1.40997565

$$$$
