
 OpenBabel03252500313D

 46 50  0  0  1  0  0  0  0  0999 V2000
   46.0470   31.5860   47.5930 N   0  0  0  0  0  0  0  0  0  0  0  0
   46.9110   32.4370   48.3400 C   0  0  0  0  0  0  0  0  0  0  0  0
   48.3210   31.8730   48.4010 C   0  0  0  0  0  0  0  0  0  0  0  0
   48.2220   30.5930   49.2190 C   0  0  0  0  0  0  0  0  0  0  0  0
   47.3290   29.6670   48.4230 C   0  0  0  0  0  0  0  0  0  0  0  0
   45.9860   30.2950   48.0950 C   0  0  2  0  0  0  0  0  0  0  0  0
   46.8330   33.5000   48.1980 H   0  0  0  0  0  0  0  0  0  0  0  0
   46.5330   32.3070   49.4050 H   0  0  0  0  0  0  0  0  0  0  0  0
   48.6830   31.5730   47.3930 H   0  0  0  0  0  0  0  0  0  0  0  0
   49.0020   32.5840   48.8820 H   0  0  0  0  0  0  0  0  0  0  0  0
   47.8060   30.8080   50.2220 H   0  0  0  0  0  0  0  0  0  0  0  0
   49.1970   30.0800   49.2950 H   0  0  0  0  0  0  0  0  0  0  0  0
   47.1070   28.7420   49.0140 H   0  0  0  0  0  0  0  0  0  0  0  0
   47.8870   29.3520   47.5310 H   0  0  0  0  0  0  0  0  0  0  0  0
   45.5440   30.4220   49.1400 H   0  0  0  0  0  0  0  0  0  0  0  0
   44.4260   29.3760   46.2920 C   0  0  0  0  0  0  0  0  0  0  0  0
   45.1730   29.2810   47.4420 C   0  0  0  0  0  0  0  0  0  0  0  0
   45.0530   27.9910   47.9880 C   0  0  0  0  0  0  0  0  0  0  0  0
   45.6040   27.7730   48.9190 H   0  0  0  0  0  0  0  0  0  0  0  0
   44.3140   26.9380   47.4930 C   0  0  0  0  0  0  0  0  0  0  0  0
   44.1270   25.6790   47.9260 N   0  0  0  0  0  0  0  0  0  0  0  0
   44.5340   25.2300   48.7740 H   0  0  0  0  0  0  0  0  0  0  0  0
   43.3000   25.1040   47.0350 C   0  0  0  0  0  0  0  0  0  0  0  0
   42.9040   24.0940   47.0190 H   0  0  0  0  0  0  0  0  0  0  0  0
   42.9580   25.9910   46.0350 C   0  0  0  0  0  0  0  0  0  0  0  0
   43.6140   27.1650   46.3390 C   0  0  0  0  0  0  0  0  0  0  0  0
   43.6560   28.3920   45.7130 C   0  0  0  0  0  0  0  0  0  0  0  0
   45.9130   31.8890   46.2170 C   0  0  0  0  0  0  0  0  0  0  0  0
   44.9670   31.5900   45.7760 H   0  0  0  0  0  0  0  0  0  0  0  0
   46.7250   31.3310   45.6610 H   0  0  0  0  0  0  0  0  0  0  0  0
   46.2310   33.9210   44.6140 C   0  0  1  0  0  0  0  0  0  0  0  0
   45.2270   34.2730   45.5500 C   0  0  0  0  0  0  0  0  0  0  0  0
   46.2620   33.3280   46.0380 C   0  0  1  0  0  0  0  0  0  0  0  0
   47.0440   34.6520   44.3650 H   0  0  0  0  0  0  0  0  0  0  0  0
   45.2040   35.3180   45.9670 H   0  0  0  0  0  0  0  0  0  0  0  0
   44.1840   33.8670   45.5050 H   0  0  0  0  0  0  0  0  0  0  0  0
   47.1840   33.6410   46.5410 H   0  0  0  0  0  0  0  0  0  0  0  0
   44.7390   32.7670   42.9880 C   0  0  0  0  0  0  0  0  0  0  0  0
   46.0590   32.9650   43.4870 C   0  0  0  0  0  0  0  0  0  0  0  0
   47.0830   32.2650   42.9060 C   0  0  0  0  0  0  0  0  0  0  0  0
   46.7720   31.4110   41.8740 N   0  0  0  0  0  0  0  0  0  0  0  0
   45.5170   31.2400   41.4180 C   0  0  0  0  0  0  0  0  0  0  0  0
   44.4680   31.9200   41.9710 N   0  0  0  0  0  0  0  0  0  0  0  0
   43.9270   33.3190   43.4450 H   0  0  0  0  0  0  0  0  0  0  0  0
   48.0750   32.3980   43.2640 H   0  0  0  0  0  0  0  0  0  0  0  0
   45.3500   30.5500   40.6000 H   0  0  0  0  0  0  0  0  0  0  0  0
  1  6  1  0  0  0  0
  1  2  1  0  0  0  0
  2  3  1  0  0  0  0
  2  8  1  0  0  0  0
  3 10  1  0  0  0  0
  3  4  1  0  0  0  0
  4 12  1  0  0  0  0
  4 11  1  0  0  0  0
  5 13  1  0  0  0  0
  5  4  1  0  0  0  0
  6  5  1  0  0  0  0
  6 15  1  1  0  0  0
  7  2  1  0  0  0  0
  9  3  1  0  0  0  0
 14  5  1  0  0  0  0
 16 17  1  0  0  0  0
 17 18  2  0  0  0  0
 17  6  1  0  0  0  0
 18 19  1  0  0  0  0
 20 21  1  0  0  0  0
 20 18  1  0  0  0  0
 21 22  1  0  0  0  0
 23 21  1  0  0  0  0
 24 23  1  0  0  0  0
 25 26  1  0  0  0  0
 25 23  2  0  0  0  0
 26 20  2  0  0  0  0
 27 16  2  0  0  0  0
 27 26  1  0  0  0  0
 28  1  1  0  0  0  0
 29 28  1  0  0  0  0
 30 28  1  0  0  0  0
 31 34  1  6  0  0  0
 31 32  1  0  0  0  0
 31 33  1  0  0  0  0
 32 35  1  0  0  0  0
 32 33  1  0  0  0  0
 33 28  1  0  0  0  0
 33 37  1  1  0  0  0
 36 32  1  0  0  0  0
 38 44  1  0  0  0  0
 38 39  1  0  0  0  0
 39 31  1  0  0  0  0
 40 45  1  0  0  0  0
 40 39  2  0  0  0  0
 41 40  1  0  0  0  0
 42 41  2  0  0  0  0
 42 43  1  0  0  0  0
 43 38  2  0  0  0  0
 46 42  1  0  0  0  0
M  END
>  <minimizedAffinity>
-4.80452967

>  <minimizedRMSD>
1.28538954

$$$$
