
 OpenBabel03252505353D

 33 36  0  0  0  0  0  0  0  0999 V2000
   37.7540   29.4860   41.6490 C   0  0  0  0  0  0  0  0  0  0  0  0
   37.9450   29.2860   42.9910 C   0  0  0  0  0  0  0  0  0  0  0  0
   37.4720   28.1730   43.6790 C   0  0  0  0  0  0  0  0  0  0  0  0
   36.7710   27.2070   42.9940 C   0  0  0  0  0  0  0  0  0  0  0  0
   36.5770   27.4020   41.6510 C   0  0  0  0  0  0  0  0  0  0  0  0
   37.0550   28.5150   40.9860 C   0  0  0  0  0  0  0  0  0  0  0  0
   38.4940   30.0200   43.5860 H   0  0  0  0  0  0  0  0  0  0  0  0
   37.6430   28.0580   44.7270 H   0  0  0  0  0  0  0  0  0  0  0  0
   36.3880   26.3260   43.5030 H   0  0  0  0  0  0  0  0  0  0  0  0
   36.0260   26.6680   41.0480 H   0  0  0  0  0  0  0  0  0  0  0  0
   35.4660   28.9690   39.3280 C   0  0  0  0  0  3  0  0  0  0  0  0
   36.8140   28.6590   39.5530 C   0  0  0  0  0  0  0  0  0  0  0  0
   37.6620   28.5410   38.4710 C   0  0  0  0  0  0  0  0  0  0  0  0
   38.6550   28.3040   38.7770 H   0  0  0  0  0  0  0  0  0  0  0  0
   37.1780   28.7260   37.2160 C   0  0  0  0  0  0  0  0  0  0  0  0
   37.8210   28.6580   36.0460 N   0  0  0  0  0  0  0  0  0  0  0  0
   38.8270   28.4480   35.8870 H   0  0  0  0  0  0  0  0  0  0  0  0
   36.9390   28.9130   35.0700 C   0  0  0  0  0  0  0  0  0  0  0  0
   37.0780   28.9500   33.9860 H   0  0  0  0  0  0  0  0  0  0  0  0
   35.6750   29.1580   35.5870 C   0  0  0  0  0  3  0  0  0  0  0  0
   35.8470   29.0350   36.9570 C   0  0  0  0  0  0  0  0  0  0  0  0
   34.9900   29.1540   38.0300 C   0  0  0  0  0  3  0  0  0  0  0  0
   40.0630   32.0770   40.2250 C   0  0  0  0  0  0  0  0  0  0  0  0
   39.6580   30.8730   40.8210 C   0  0  0  0  0  0  0  0  0  0  0  0
   38.2890   30.6710   41.0490 C   0  0  0  0  0  0  0  0  0  0  0  0
   37.4270   31.6480   40.6810 N   0  0  0  0  0  0  0  0  0  0  0  0
   37.8680   32.7950   40.1090 C   0  0  0  0  0  0  0  0  0  0  0  0
   39.1810   33.0070   39.8820 N   0  0  0  0  0  0  0  0  0  0  0  0
   36.9410   33.8140   39.7310 N   0  0  0  0  0  0  0  0  0  0  0  0
   41.1410   32.1960   40.0650 H   0  0  0  0  0  0  0  0  0  0  0  0
   40.3490   30.0870   41.1160 H   0  0  0  0  0  0  0  0  0  0  0  0
   37.0630   34.3020   38.8100 H   0  0  0  0  0  0  0  0  0  0  0  0
   36.1730   34.0070   40.4300 H   0  0  0  0  0  0  0  0  0  0  0  0
  1  2  1  0  0  0  0
  2  7  1  0  0  0  0
  2  3  2  0  0  0  0
  3  8  1  0  0  0  0
  4  9  1  0  0  0  0
  4  3  1  0  0  0  0
  5  4  2  0  0  0  0
  6  1  2  0  0  0  0
  6  5  1  0  0  0  0
 10  5  1  0  0  0  0
 11 12  1  0  0  0  0
 12  6  1  0  0  0  0
 13 14  1  0  0  0  0
 13 12  2  0  0  0  0
 15 13  1  0  0  0  0
 16 15  1  0  0  0  0
 17 16  1  0  0  0  0
 18 20  2  0  0  0  0
 18 16  1  0  0  0  0
 19 18  1  0  0  0  0
 20 21  1  0  0  0  0
 21 15  2  0  0  0  0
 21 22  1  0  0  0  0
 22 11  2  0  0  0  0
 23 24  1  0  0  0  0
 24 25  2  0  0  0  0
 24 31  1  0  0  0  0
 25  1  1  0  0  0  0
 26 25  1  0  0  0  0
 27 26  2  0  0  0  0
 28 27  1  0  0  0  0
 28 23  2  0  0  0  0
 29 27  1  0  0  0  0
 29 33  1  0  0  0  0
 30 23  1  0  0  0  0
 32 29  1  0  0  0  0
M  END
>  <minimizedAffinity>
-6.53713894

$$$$

 OpenBabel03252505353D

 33 36  0  0  0  0  0  0  0  0999 V2000
   37.4850   29.5150   41.3820 C   0  0  0  0  0  0  0  0  0  0  0  0
   38.1990   29.6050   42.5470 C   0  0  0  0  0  0  0  0  0  0  0  0
   37.9990   28.7670   43.6410 C   0  0  0  0  0  0  0  0  0  0  0  0
   37.0350   27.7870   43.5680 C   0  0  0  0  0  0  0  0  0  0  0  0
   36.3180   27.6940   42.4040 C   0  0  0  0  0  0  0  0  0  0  0  0
   36.5320   28.5350   41.3300 C   0  0  0  0  0  0  0  0  0  0  0  0
   38.9780   30.3640   42.6620 H   0  0  0  0  0  0  0  0  0  0  0  0
   38.5790   28.8730   44.5310 H   0  0  0  0  0  0  0  0  0  0  0  0
   36.8550   27.1170   44.4050 H   0  0  0  0  0  0  0  0  0  0  0  0
   35.5350   26.9330   42.2840 H   0  0  0  0  0  0  0  0  0  0  0  0
   36.2710   27.3610   39.3220 C   0  0  0  0  0  3  0  0  0  0  0  0
   35.7320   28.3800   40.1180 C   0  0  0  0  0  0  0  0  0  0  0  0
   34.6060   29.0460   39.6800 C   0  0  0  0  0  0  0  0  0  0  0  0
   34.2990   29.7930   40.3740 H   0  0  0  0  0  0  0  0  0  0  0  0
   34.0440   28.7030   38.4920 C   0  0  0  0  0  0  0  0  0  0  0  0
   32.9650   29.2150   37.8910 N   0  0  0  0  0  0  0  0  0  0  0  0
   32.3530   29.9810   38.2340 H   0  0  0  0  0  0  0  0  0  0  0  0
   32.7850   28.5650   36.7330 C   0  0  0  0  0  0  0  0  0  0  0  0
   32.0180   28.6920   35.9650 H   0  0  0  0  0  0  0  0  0  0  0  0
   33.7590   27.5940   36.5460 C   0  0  0  0  0  3  0  0  0  0  0  0
   34.5530   27.6970   37.6770 C   0  0  0  0  0  0  0  0  0  0  0  0
   35.6780   27.0260   38.1050 C   0  0  0  0  0  3  0  0  0  0  0  0
   38.8060   31.0960   38.2470 C   0  0  0  0  0  0  0  0  0  0  0  0
   38.5870   30.1110   39.2220 C   0  0  0  0  0  0  0  0  0  0  0  0
   37.7810   30.4340   40.3230 C   0  0  0  0  0  0  0  0  0  0  0  0
   37.2550   31.6780   40.3900 N   0  0  0  0  0  0  0  0  0  0  0  0
   37.4960   32.5960   39.4210 C   0  0  0  0  0  0  0  0  0  0  0  0
   38.2690   32.3040   38.3550 N   0  0  0  0  0  0  0  0  0  0  0  0
   36.9320   33.9050   39.5130 N   0  0  0  0  0  0  0  0  0  0  0  0
   39.4420   30.8040   37.4030 H   0  0  0  0  0  0  0  0  0  0  0  0
   39.0090   29.1100   39.1700 H   0  0  0  0  0  0  0  0  0  0  0  0
   36.5250   34.3500   38.6530 H   0  0  0  0  0  0  0  0  0  0  0  0
   36.9660   34.3450   40.4720 H   0  0  0  0  0  0  0  0  0  0  0  0
  1  2  1  0  0  0  0
  2  7  1  0  0  0  0
  2  3  2  0  0  0  0
  3  8  1  0  0  0  0
  4  3  1  0  0  0  0
  4  9  1  0  0  0  0
  5  4  2  0  0  0  0
  6  1  2  0  0  0  0
  6  5  1  0  0  0  0
 10  5  1  0  0  0  0
 11 12  1  0  0  0  0
 12  6  1  0  0  0  0
 13 12  2  0  0  0  0
 13 14  1  0  0  0  0
 15 13  1  0  0  0  0
 16 17  1  0  0  0  0
 16 15  1  0  0  0  0
 18 16  1  0  0  0  0
 19 18  1  0  0  0  0
 20 18  2  0  0  0  0
 20 21  1  0  0  0  0
 21 22  1  0  0  0  0
 21 15  2  0  0  0  0
 22 11  2  0  0  0  0
 23 28  2  0  0  0  0
 23 24  1  0  0  0  0
 24 25  2  0  0  0  0
 25 26  1  0  0  0  0
 25  1  1  0  0  0  0
 27 29  1  0  0  0  0
 27 26  2  0  0  0  0
 28 27  1  0  0  0  0
 29 33  1  0  0  0  0
 30 23  1  0  0  0  0
 31 24  1  0  0  0  0
 32 29  1  0  0  0  0
M  END
>  <minimizedAffinity>
-6.4430995

$$$$

 OpenBabel03252505353D

 33 36  0  0  0  0  0  0  0  0999 V2000
   41.2460   31.8600   41.3070 C   0  0  0  0  0  0  0  0  0  0  0  0
   42.2550   32.7810   41.1930 C   0  0  0  0  0  0  0  0  0  0  0  0
   43.3220   32.8690   42.0830 C   0  0  0  0  0  0  0  0  0  0  0  0
   43.3870   31.9940   43.1430 C   0  0  0  0  0  0  0  0  0  0  0  0
   42.3800   31.0710   43.2610 C   0  0  0  0  0  0  0  0  0  0  0  0
   41.3290   30.9990   42.3670 C   0  0  0  0  0  0  0  0  0  0  0  0
   42.2560   33.5010   40.3710 H   0  0  0  0  0  0  0  0  0  0  0  0
   44.0860   33.6040   41.9570 H   0  0  0  0  0  0  0  0  0  0  0  0
   44.2070   32.0370   43.8550 H   0  0  0  0  0  0  0  0  0  0  0  0
   42.3750   30.3440   44.0850 H   0  0  0  0  0  0  0  0  0  0  0  0
   40.7650   28.7400   42.1350 C   0  0  0  0  0  3  0  0  0  0  0  0
   40.2900   29.9900   42.5510 C   0  0  0  0  0  0  0  0  0  0  0  0
   39.0030   30.0890   43.0390 C   0  0  0  0  0  0  0  0  0  0  0  0
   38.7670   31.0890   43.3190 H   0  0  0  0  0  0  0  0  0  0  0  0
   38.2260   28.9770   43.1070 C   0  0  0  0  0  0  0  0  0  0  0  0
   36.9670   28.8550   43.5410 N   0  0  0  0  0  0  0  0  0  0  0  0
   36.3490   29.6040   43.9120 H   0  0  0  0  0  0  0  0  0  0  0  0
   36.6080   27.5690   43.4220 C   0  0  0  0  0  0  0  0  0  0  0  0
   35.6650   27.0740   43.6690 H   0  0  0  0  0  0  0  0  0  0  0  0
   37.6420   26.8060   42.8970 C   0  0  0  0  0  3  0  0  0  0  0  0
   38.6650   27.7210   42.7030 C   0  0  0  0  0  0  0  0  0  0  0  0
   39.9490   27.6120   42.2130 C   0  0  0  0  0  3  0  0  0  0  0  0
   39.1350   31.1640   38.2860 C   0  0  0  0  0  0  0  0  0  0  0  0
   40.2190   31.0730   39.1720 C   0  0  0  0  0  0  0  0  0  0  0  0
   40.2000   31.8650   40.3290 C   0  0  0  0  0  0  0  0  0  0  0  0
   39.1370   32.6770   40.5330 N   0  0  0  0  0  0  0  0  0  0  0  0
   38.1130   32.7290   39.6460 C   0  0  0  0  0  0  0  0  0  0  0  0
   38.1140   31.9750   38.5270 N   0  0  0  0  0  0  0  0  0  0  0  0
   37.0010   33.5950   39.8800 N   0  0  0  0  0  0  0  0  0  0  0  0
   39.1890   30.5290   37.3930 H   0  0  0  0  0  0  0  0  0  0  0  0
   41.0740   30.4210   39.0100 H   0  0  0  0  0  0  0  0  0  0  0  0
   36.0290   33.2440   39.6930 H   0  0  0  0  0  0  0  0  0  0  0  0
   37.2460   34.5590   40.2370 H   0  0  0  0  0  0  0  0  0  0  0  0
  1  6  1  0  0  0  0
  2  1  2  0  0  0  0
  2  3  1  0  0  0  0
  3  4  2  0  0  0  0
  4  5  1  0  0  0  0
  4  9  1  0  0  0  0
  5 10  1  0  0  0  0
  6 12  1  0  0  0  0
  6  5  2  0  0  0  0
  7  2  1  0  0  0  0
  8  3  1  0  0  0  0
 11 22  2  0  0  0  0
 11 12  1  0  0  0  0
 12 13  2  0  0  0  0
 13 15  1  0  0  0  0
 13 14  1  0  0  0  0
 15 16  1  0  0  0  0
 16 17  1  0  0  0  0
 18 16  1  0  0  0  0
 18 19  1  0  0  0  0
 20 18  2  0  0  0  0
 21 20  1  0  0  0  0
 21 15  2  0  0  0  0
 22 21  1  0  0  0  0
 23 28  2  0  0  0  0
 23 24  1  0  0  0  0
 24 25  2  0  0  0  0
 25 26  1  0  0  0  0
 25  1  1  0  0  0  0
 27 29  1  0  0  0  0
 27 26  2  0  0  0  0
 28 27  1  0  0  0  0
 29 33  1  0  0  0  0
 30 23  1  0  0  0  0
 31 24  1  0  0  0  0
 32 29  1  0  0  0  0
M  END
>  <minimizedAffinity>
-6.34228897

$$$$

 OpenBabel03252505353D

 33 36  0  0  0  0  0  0  0  0999 V2000
   36.9700   26.5050   40.3890 C   0  0  0  0  0  0  0  0  0  0  0  0
   37.1110   25.6580   41.4560 C   0  0  0  0  0  0  0  0  0  0  0  0
   36.7750   24.3070   41.4180 C   0  0  0  0  0  0  0  0  0  0  0  0
   36.2730   23.7730   40.2530 C   0  0  0  0  0  0  0  0  0  0  0  0
   36.1320   24.6160   39.1820 C   0  0  0  0  0  0  0  0  0  0  0  0
   36.4700   25.9550   39.2410 C   0  0  0  0  0  0  0  0  0  0  0  0
   37.5040   26.0270   42.4070 H   0  0  0  0  0  0  0  0  0  0  0  0
   36.9000   23.6830   42.2750 H   0  0  0  0  0  0  0  0  0  0  0  0
   36.0020   22.7220   40.1910 H   0  0  0  0  0  0  0  0  0  0  0  0
   35.7370   24.2510   38.2250 H   0  0  0  0  0  0  0  0  0  0  0  0
   34.9580   27.2100   37.9690 C   0  0  0  0  0  3  0  0  0  0  0  0
   36.2940   26.7970   38.0620 C   0  0  0  0  0  0  0  0  0  0  0  0
   37.1900   27.2120   37.0980 C   0  0  0  0  0  0  0  0  0  0  0  0
   38.1680   26.8310   37.2830 H   0  0  0  0  0  0  0  0  0  0  0  0
   36.7630   28.0070   36.0830 C   0  0  0  0  0  0  0  0  0  0  0  0
   37.4590   28.5150   35.0600 N   0  0  0  0  0  0  0  0  0  0  0  0
   38.4700   28.3870   34.8570 H   0  0  0  0  0  0  0  0  0  0  0  0
   36.6220   29.2410   34.3060 C   0  0  0  0  0  0  0  0  0  0  0  0
   36.8090   29.8080   33.3910 H   0  0  0  0  0  0  0  0  0  0  0  0
   35.3360   29.2260   34.8280 C   0  0  0  0  0  3  0  0  0  0  0  0
   35.4460   28.4350   35.9610 C   0  0  0  0  0  0  0  0  0  0  0  0
   34.5420   28.0260   36.9180 C   0  0  0  0  0  3  0  0  0  0  0  0
   38.9140   29.7080   40.5680 C   0  0  0  0  0  0  0  0  0  0  0  0
   38.6640   28.3400   40.3870 C   0  0  0  0  0  0  0  0  0  0  0  0
   37.3500   27.8770   40.5480 C   0  0  0  0  0  0  0  0  0  0  0  0
   36.3890   28.7740   40.8690 N   0  0  0  0  0  0  0  0  0  0  0  0
   36.6820   30.0880   41.0350 C   0  0  0  0  0  0  0  0  0  0  0  0
   37.9400   30.5510   40.8840 N   0  0  0  0  0  0  0  0  0  0  0  0
   35.6520   31.0170   41.3760 N   0  0  0  0  0  0  0  0  0  0  0  0
   39.9540   30.0290   40.4350 H   0  0  0  0  0  0  0  0  0  0  0  0
   39.4350   27.6180   40.1280 H   0  0  0  0  0  0  0  0  0  0  0  0
   35.6260   31.9520   40.9000 H   0  0  0  0  0  0  0  0  0  0  0  0
   34.9680   30.6840   42.1080 H   0  0  0  0  0  0  0  0  0  0  0  0
  1 25  1  0  0  0  0
  1  2  1  0  0  0  0
  2  7  1  0  0  0  0
  3  2  2  0  0  0  0
  3  8  1  0  0  0  0
  4  3  1  0  0  0  0
  5  6  1  0  0  0  0
  5  4  2  0  0  0  0
  6  1  2  0  0  0  0
  9  4  1  0  0  0  0
 10  5  1  0  0  0  0
 11 12  1  0  0  0  0
 12  6  1  0  0  0  0
 13 14  1  0  0  0  0
 13 12  2  0  0  0  0
 15 13  1  0  0  0  0
 16 15  1  0  0  0  0
 17 16  1  0  0  0  0
 18 20  2  0  0  0  0
 18 16  1  0  0  0  0
 19 18  1  0  0  0  0
 20 21  1  0  0  0  0
 21 15  2  0  0  0  0
 21 22  1  0  0  0  0
 22 11  2  0  0  0  0
 23 28  1  0  0  0  0
 24 25  1  0  0  0  0
 24 23  2  0  0  0  0
 25 26  2  0  0  0  0
 26 27  1  0  0  0  0
 27 29  1  0  0  0  0
 28 27  2  0  0  0  0
 29 33  1  0  0  0  0
 30 23  1  0  0  0  0
 31 24  1  0  0  0  0
 32 29  1  0  0  0  0
M  END
>  <minimizedAffinity>
-6.10235262

$$$$

 OpenBabel03252505353D

 33 36  0  0  0  0  0  0  0  0999 V2000
   36.4690   29.3520   37.1230 C   0  0  0  0  0  0  0  0  0  0  0  0
   35.9650   29.5800   35.8690 C   0  0  0  0  0  0  0  0  0  0  0  0
   34.6660   29.2560   35.4900 C   0  0  0  0  0  0  0  0  0  0  0  0
   33.8240   28.6720   36.4090 C   0  0  0  0  0  0  0  0  0  0  0  0
   34.3230   28.4420   37.6640 C   0  0  0  0  0  0  0  0  0  0  0  0
   35.6160   28.7720   38.0210 C   0  0  0  0  0  0  0  0  0  0  0  0
   36.5880   30.0410   35.0990 H   0  0  0  0  0  0  0  0  0  0  0  0
   34.3150   29.4500   34.5010 H   0  0  0  0  0  0  0  0  0  0  0  0
   32.8030   28.4060   36.1430 H   0  0  0  0  0  0  0  0  0  0  0  0
   33.7010   27.9790   38.4430 H   0  0  0  0  0  0  0  0  0  0  0  0
   36.4010   27.1410   39.5060 C   0  0  0  0  0  3  0  0  0  0  0  0
   36.0840   28.4990   39.3780 C   0  0  0  0  0  0  0  0  0  0  0  0
   36.2430   29.3290   40.4690 C   0  0  0  0  0  0  0  0  0  0  0  0
   35.9670   30.3320   40.2400 H   0  0  0  0  0  0  0  0  0  0  0  0
   36.7020   28.8170   41.6390 C   0  0  0  0  0  0  0  0  0  0  0  0
   36.9250   29.4380   42.8020 N   0  0  0  0  0  0  0  0  0  0  0  0
   36.7850   30.4450   43.0190 H   0  0  0  0  0  0  0  0  0  0  0  0
   37.3760   28.5310   43.6800 C   0  0  0  0  0  0  0  0  0  0  0  0
   37.6690   28.6480   44.7260 H   0  0  0  0  0  0  0  0  0  0  0  0
   37.4610   27.2730   43.1020 C   0  0  0  0  0  3  0  0  0  0  0  0
   37.0270   27.4740   41.8010 C   0  0  0  0  0  0  0  0  0  0  0  0
   36.8710   26.6360   40.7180 C   0  0  0  0  0  3  0  0  0  0  0  0
   40.1860   29.3270   37.6260 C   0  0  0  0  0  0  0  0  0  0  0  0
   38.9030   28.8390   37.3360 C   0  0  0  0  0  0  0  0  0  0  0  0
   37.8230   29.7310   37.3970 C   0  0  0  0  0  0  0  0  0  0  0  0
   38.0720   31.0180   37.7320 N   0  0  0  0  0  0  0  0  0  0  0  0
   39.3310   31.4420   38.0050 C   0  0  0  0  0  0  0  0  0  0  0  0
   40.3820   30.5980   37.9510 N   0  0  0  0  0  0  0  0  0  0  0  0
   39.5710   32.8040   38.3590 N   0  0  0  0  0  0  0  0  0  0  0  0
   41.0030   28.5980   37.5680 H   0  0  0  0  0  0  0  0  0  0  0  0
   38.7010   27.8050   37.0660 H   0  0  0  0  0  0  0  0  0  0  0  0
   40.3990   33.3030   37.9490 H   0  0  0  0  0  0  0  0  0  0  0  0
   38.8730   33.2260   39.0300 H   0  0  0  0  0  0  0  0  0  0  0  0
  1 25  1  0  0  0  0
  1  6  1  0  0  0  0
  2  1  2  0  0  0  0
  3  2  1  0  0  0  0
  3  4  2  0  0  0  0
  4  5  1  0  0  0  0
  5  6  2  0  0  0  0
  5 10  1  0  0  0  0
  6 12  1  0  0  0  0
  7  2  1  0  0  0  0
  8  3  1  0  0  0  0
  9  4  1  0  0  0  0
 11 22  1  0  0  0  0
 12 11  2  0  0  0  0
 12 13  1  0  0  0  0
 13 15  2  0  0  0  0
 14 13  1  0  0  0  0
 15 21  1  0  0  0  0
 15 16  1  0  0  0  0
 16 17  1  0  0  0  0
 16 18  1  0  0  0  0
 18 19  1  0  0  0  0
 20 18  2  0  0  0  0
 21 20  1  0  0  0  0
 22 21  2  0  0  0  0
 23 28  1  0  0  0  0
 24 25  1  0  0  0  0
 24 23  2  0  0  0  0
 25 26  2  0  0  0  0
 26 27  1  0  0  0  0
 27 29  1  0  0  0  0
 28 27  2  0  0  0  0
 29 33  1  0  0  0  0
 30 23  1  0  0  0  0
 31 24  1  0  0  0  0
 32 29  1  0  0  0  0
M  END
>  <minimizedAffinity>
-6.0562582

$$$$

 OpenBabel03252505353D

 33 36  0  0  0  0  0  0  0  0999 V2000
   36.3120   28.0730   38.9530 C   0  0  0  0  0  0  0  0  0  0  0  0
   35.5590   27.0190   38.5060 C   0  0  0  0  0  0  0  0  0  0  0  0
   34.7520   27.0740   37.3730 C   0  0  0  0  0  0  0  0  0  0  0  0
   34.6920   28.2420   36.6470 C   0  0  0  0  0  0  0  0  0  0  0  0
   35.4440   29.2990   37.0900 C   0  0  0  0  0  0  0  0  0  0  0  0
   36.2390   29.2240   38.2170 C   0  0  0  0  0  0  0  0  0  0  0  0
   35.5680   26.0670   39.0420 H   0  0  0  0  0  0  0  0  0  0  0  0
   34.1800   26.2280   37.0610 H   0  0  0  0  0  0  0  0  0  0  0  0
   34.0710   28.3160   35.7580 H   0  0  0  0  0  0  0  0  0  0  0  0
   35.4390   30.2580   36.5540 H   0  0  0  0  0  0  0  0  0  0  0  0
   38.2650   30.3760   37.9990 C   0  0  0  0  0  3  0  0  0  0  0  0
   37.0160   30.3890   38.6330 C   0  0  0  0  0  0  0  0  0  0  0  0
   36.7150   31.4210   39.4980 C   0  0  0  0  0  0  0  0  0  0  0  0
   35.7390   31.3130   39.9110 H   0  0  0  0  0  0  0  0  0  0  0  0
   37.6300   32.4000   39.7170 C   0  0  0  0  0  0  0  0  0  0  0  0
   37.5420   33.4750   40.5060 N   0  0  0  0  0  0  0  0  0  0  0  0
   36.7390   33.7590   41.1030 H   0  0  0  0  0  0  0  0  0  0  0  0
   38.6890   34.1610   40.4070 C   0  0  0  0  0  0  0  0  0  0  0  0
   39.0000   35.0890   40.8940 H   0  0  0  0  0  0  0  0  0  0  0  0
   39.5710   33.5390   39.5350 C   0  0  0  0  0  3  0  0  0  0  0  0
   38.8790   32.4180   39.1050 C   0  0  0  0  0  0  0  0  0  0  0  0
   39.1900   31.3910   38.2400 C   0  0  0  0  0  3  0  0  0  0  0  0
   39.0370   27.1410   41.3560 C   0  0  0  0  0  0  0  0  0  0  0  0
   38.3510   27.2520   40.1380 C   0  0  0  0  0  0  0  0  0  0  0  0
   37.1060   27.8970   40.1320 C   0  0  0  0  0  0  0  0  0  0  0  0
   36.6290   28.3810   41.3020 N   0  0  0  0  0  0  0  0  0  0  0  0
   37.3300   28.2480   42.4550 C   0  0  0  0  0  0  0  0  0  0  0  0
   38.5290   27.6300   42.4800 N   0  0  0  0  0  0  0  0  0  0  0  0
   36.8070   28.7640   43.6800 N   0  0  0  0  0  0  0  0  0  0  0  0
   40.0060   26.6290   41.3180 H   0  0  0  0  0  0  0  0  0  0  0  0
   38.7330   26.8640   39.1960 H   0  0  0  0  0  0  0  0  0  0  0  0
   37.4480   29.2700   44.3390 H   0  0  0  0  0  0  0  0  0  0  0  0
   35.7770   28.5930   43.8380 H   0  0  0  0  0  0  0  0  0  0  0  0
  1 25  1  0  0  0  0
  2  1  1  0  0  0  0
  2  7  1  0  0  0  0
  3  2  2  0  0  0  0
  4  5  2  0  0  0  0
  4  3  1  0  0  0  0
  5  6  1  0  0  0  0
  6 12  1  0  0  0  0
  6  1  2  0  0  0  0
  8  3  1  0  0  0  0
  9  4  1  0  0  0  0
 10  5  1  0  0  0  0
 11 22  2  0  0  0  0
 11 12  1  0  0  0  0
 12 13  2  0  0  0  0
 13 15  1  0  0  0  0
 13 14  1  0  0  0  0
 15 16  1  0  0  0  0
 16 17  1  0  0  0  0
 18 16  1  0  0  0  0
 18 19  1  0  0  0  0
 20 18  2  0  0  0  0
 21 20  1  0  0  0  0
 21 15  2  0  0  0  0
 22 21  1  0  0  0  0
 23 28  1  0  0  0  0
 24 23  2  0  0  0  0
 25 24  1  0  0  0  0
 25 26  2  0  0  0  0
 26 27  1  0  0  0  0
 27 28  2  0  0  0  0
 27 29  1  0  0  0  0
 29 33  1  0  0  0  0
 29 32  1  0  0  0  0
 30 23  1  0  0  0  0
 31 24  1  0  0  0  0
M  END
>  <minimizedAffinity>
-6.0099659

$$$$

 OpenBabel03252505353D

 33 36  0  0  0  0  0  0  0  0999 V2000
   37.1830   30.9580   39.0140 C   0  0  0  0  0  0  0  0  0  0  0  0
   37.2610   32.2910   38.7080 C   0  0  0  0  0  0  0  0  0  0  0  0
   37.8500   33.2390   39.5400 C   0  0  0  0  0  0  0  0  0  0  0  0
   38.3890   32.8370   40.7400 C   0  0  0  0  0  0  0  0  0  0  0  0
   38.3140   31.5050   41.0510 C   0  0  0  0  0  0  0  0  0  0  0  0
   37.7250   30.5780   40.2120 C   0  0  0  0  0  0  0  0  0  0  0  0
   36.8500   32.6670   37.7680 H   0  0  0  0  0  0  0  0  0  0  0  0
   37.8880   34.2690   39.2620 H   0  0  0  0  0  0  0  0  0  0  0  0
   38.8560   33.5540   41.4120 H   0  0  0  0  0  0  0  0  0  0  0  0
   38.7260   31.1210   41.9940 H   0  0  0  0  0  0  0  0  0  0  0  0
   36.7580   29.0010   41.6450 C   0  0  0  0  0  3  0  0  0  0  0  0
   37.6790   29.1730   40.6040 C   0  0  0  0  0  0  0  0  0  0  0  0
   38.3660   28.0740   40.1310 C   0  0  0  0  0  0  0  0  0  0  0  0
   39.0320   28.3380   39.3430 H   0  0  0  0  0  0  0  0  0  0  0  0
   38.1360   26.8530   40.6790 C   0  0  0  0  0  0  0  0  0  0  0  0
   38.6870   25.6740   40.3720 N   0  0  0  0  0  0  0  0  0  0  0  0
   39.4020   25.4790   39.6440 H   0  0  0  0  0  0  0  0  0  0  0  0
   38.1560   24.7430   41.1780 C   0  0  0  0  0  0  0  0  0  0  0  0
   38.3470   23.6680   41.2350 H   0  0  0  0  0  0  0  0  0  0  0  0
   37.2280   25.3010   42.0450 C   0  0  0  0  0  3  0  0  0  0  0  0
   37.2290   26.6470   41.7130 C   0  0  0  0  0  0  0  0  0  0  0  0
   36.5380   27.7380   42.1940 C   0  0  0  0  0  3  0  0  0  0  0  0
   34.7690   28.6660   37.2840 C   0  0  0  0  0  0  0  0  0  0  0  0
   35.2810   29.5190   38.2740 C   0  0  0  0  0  0  0  0  0  0  0  0
   36.5530   30.0750   38.0780 C   0  0  0  0  0  0  0  0  0  0  0  0
   37.2230   29.7630   36.9440 N   0  0  0  0  0  0  0  0  0  0  0  0
   36.6840   28.9330   36.0170 C   0  0  0  0  0  0  0  0  0  0  0  0
   35.4620   28.3880   36.1880 N   0  0  0  0  0  0  0  0  0  0  0  0
   37.4090   28.6150   34.8280 N   0  0  0  0  0  0  0  0  0  0  0  0
   33.7720   28.2520   37.4760 H   0  0  0  0  0  0  0  0  0  0  0  0
   34.7450   29.7710   39.1860 H   0  0  0  0  0  0  0  0  0  0  0  0
   36.9020   28.5940   33.9080 H   0  0  0  0  0  0  0  0  0  0  0  0
   38.4370   28.4170   34.9650 H   0  0  0  0  0  0  0  0  0  0  0  0
  1  6  1  0  0  0  0
  2  1  2  0  0  0  0
  2  3  1  0  0  0  0
  3  4  2  0  0  0  0
  4  5  1  0  0  0  0
  4  9  1  0  0  0  0
  5 10  1  0  0  0  0
  6 12  1  0  0  0  0
  6  5  2  0  0  0  0
  7  2  1  0  0  0  0
  8  3  1  0  0  0  0
 11 22  1  0  0  0  0
 12 11  2  0  0  0  0
 13 12  1  0  0  0  0
 13 15  2  0  0  0  0
 14 13  1  0  0  0  0
 15 21  1  0  0  0  0
 16 15  1  0  0  0  0
 16 18  1  0  0  0  0
 17 16  1  0  0  0  0
 18 19  1  0  0  0  0
 18 20  2  0  0  0  0
 21 20  1  0  0  0  0
 21 22  2  0  0  0  0
 23 30  1  0  0  0  0
 23 24  1  0  0  0  0
 24 31  1  0  0  0  0
 25 24  2  0  0  0  0
 25  1  1  0  0  0  0
 26 25  1  0  0  0  0
 27 28  1  0  0  0  0
 27 26  2  0  0  0  0
 28 23  2  0  0  0  0
 29 33  1  0  0  0  0
 29 27  1  0  0  0  0
 32 29  1  0  0  0  0
M  END
>  <minimizedAffinity>
-6.0010066

$$$$

 OpenBabel03252505353D

 33 36  0  0  0  0  0  0  0  0999 V2000
   36.4030   29.2030   37.8130 C   0  0  0  0  0  0  0  0  0  0  0  0
   35.7310   29.3330   36.6270 C   0  0  0  0  0  0  0  0  0  0  0  0
   34.8420   28.3800   36.1360 C   0  0  0  0  0  0  0  0  0  0  0  0
   34.6100   27.2380   36.8680 C   0  0  0  0  0  0  0  0  0  0  0  0
   35.2800   27.1040   38.0560 C   0  0  0  0  0  0  0  0  0  0  0  0
   36.1590   28.0610   38.5260 C   0  0  0  0  0  0  0  0  0  0  0  0
   35.8750   30.2190   36.0030 H   0  0  0  0  0  0  0  0  0  0  0  0
   34.3400   28.5220   35.2050 H   0  0  0  0  0  0  0  0  0  0  0  0
   33.9220   26.4750   36.5120 H   0  0  0  0  0  0  0  0  0  0  0  0
   35.1390   26.2150   38.6860 H   0  0  0  0  0  0  0  0  0  0  0  0
   36.0260   28.3040   40.8500 C   0  0  0  0  0  3  0  0  0  0  0  0
   36.8390   27.8550   39.8010 C   0  0  0  0  0  0  0  0  0  0  0  0
   38.0770   27.3220   40.0960 C   0  0  0  0  0  0  0  0  0  0  0  0
   38.5930   27.0200   39.2150 H   0  0  0  0  0  0  0  0  0  0  0  0
   38.4820   27.2430   41.3900 C   0  0  0  0  0  0  0  0  0  0  0  0
   39.6280   26.7670   41.8870 N   0  0  0  0  0  0  0  0  0  0  0  0
   40.4280   26.3650   41.3600 H   0  0  0  0  0  0  0  0  0  0  0  0
   39.5880   26.8920   43.2210 C   0  0  0  0  0  0  0  0  0  0  0  0
   40.3280   26.6190   43.9770 H   0  0  0  0  0  0  0  0  0  0  0  0
   38.3930   27.4620   43.6360 C   0  0  0  0  0  3  0  0  0  0  0  0
   37.7000   27.6780   42.4550 C   0  0  0  0  0  0  0  0  0  0  0  0
   36.4620   28.2130   42.1710 C   0  0  0  0  0  3  0  0  0  0  0  0
   39.4350   31.3420   38.3660 C   0  0  0  0  0  0  0  0  0  0  0  0
   38.6630   30.2590   37.9180 C   0  0  0  0  0  0  0  0  0  0  0  0
   37.2930   30.2510   38.2160 C   0  0  0  0  0  0  0  0  0  0  0  0
   36.7830   31.2880   38.9190 N   0  0  0  0  0  0  0  0  0  0  0  0
   37.5710   32.3130   39.3310 C   0  0  0  0  0  0  0  0  0  0  0  0
   38.8910   32.3380   39.0540 N   0  0  0  0  0  0  0  0  0  0  0  0
   37.0130   33.3960   40.0750 N   0  0  0  0  0  0  0  0  0  0  0  0
   40.5010   31.3100   38.1130 H   0  0  0  0  0  0  0  0  0  0  0  0
   39.0710   29.4250   37.3520 H   0  0  0  0  0  0  0  0  0  0  0  0
   37.3040   34.3790   39.8470 H   0  0  0  0  0  0  0  0  0  0  0  0
   36.3220   33.1210   40.8250 H   0  0  0  0  0  0  0  0  0  0  0  0
  1 25  1  0  0  0  0
  1  6  1  0  0  0  0
  2  1  2  0  0  0  0
  3  2  1  0  0  0  0
  3  4  2  0  0  0  0
  4  5  1  0  0  0  0
  5  6  2  0  0  0  0
  5 10  1  0  0  0  0
  6 12  1  0  0  0  0
  7  2  1  0  0  0  0
  8  3  1  0  0  0  0
  9  4  1  0  0  0  0
 11 22  1  0  0  0  0
 12 13  1  0  0  0  0
 12 11  2  0  0  0  0
 13 15  2  0  0  0  0
 14 13  1  0  0  0  0
 15 16  1  0  0  0  0
 15 21  1  0  0  0  0
 16 18  1  0  0  0  0
 17 16  1  0  0  0  0
 18 20  2  0  0  0  0
 18 19  1  0  0  0  0
 21 20  1  0  0  0  0
 22 21  2  0  0  0  0
 23 28  1  0  0  0  0
 24 25  1  0  0  0  0
 24 23  2  0  0  0  0
 25 26  2  0  0  0  0
 26 27  1  0  0  0  0
 27 29  1  0  0  0  0
 28 27  2  0  0  0  0
 29 33  1  0  0  0  0
 30 23  1  0  0  0  0
 31 24  1  0  0  0  0
 32 29  1  0  0  0  0
M  END
>  <minimizedAffinity>
-5.89765596

$$$$

 OpenBabel03252505353D

 33 36  0  0  0  0  0  0  0  0999 V2000
   37.8990   30.8480   40.4950 C   0  0  0  0  0  0  0  0  0  0  0  0
   38.6230   31.7570   41.2210 C   0  0  0  0  0  0  0  0  0  0  0  0
   38.7110   33.1080   40.8970 C   0  0  0  0  0  0  0  0  0  0  0  0
   38.0420   33.5780   39.7900 C   0  0  0  0  0  0  0  0  0  0  0  0
   37.3160   32.6730   39.0610 C   0  0  0  0  0  0  0  0  0  0  0  0
   37.2410   31.3350   39.3990 C   0  0  0  0  0  0  0  0  0  0  0  0
   39.1750   31.4410   42.1100 H   0  0  0  0  0  0  0  0  0  0  0  0
   39.2880   33.7820   41.4910 H   0  0  0  0  0  0  0  0  0  0  0  0
   38.0910   34.6280   39.5110 H   0  0  0  0  0  0  0  0  0  0  0  0
   36.7590   32.9860   38.1670 H   0  0  0  0  0  0  0  0  0  0  0  0
   37.0560   30.2650   37.3260 C   0  0  0  0  0  3  0  0  0  0  0  0
   36.4480   30.4250   38.5780 C   0  0  0  0  0  0  0  0  0  0  0  0
   35.2720   29.7530   38.8410 C   0  0  0  0  0  0  0  0  0  0  0  0
   34.9160   29.9590   39.8240 H   0  0  0  0  0  0  0  0  0  0  0  0
   34.7300   28.9520   37.8880 C   0  0  0  0  0  0  0  0  0  0  0  0
   33.6110   28.2210   37.9370 N   0  0  0  0  0  0  0  0  0  0  0  0
   32.9460   28.1340   38.7320 H   0  0  0  0  0  0  0  0  0  0  0  0
   33.4720   27.5930   36.7620 C   0  0  0  0  0  0  0  0  0  0  0  0
   32.6920   26.9100   36.4160 H   0  0  0  0  0  0  0  0  0  0  0  0
   34.5140   27.9030   35.9000 C   0  0  0  0  0  3  0  0  0  0  0  0
   35.3060   28.7710   36.6350 C   0  0  0  0  0  0  0  0  0  0  0  0
   36.4810   29.4380   36.3610 C   0  0  0  0  0  3  0  0  0  0  0  0
   38.5420   27.1680   40.8360 C   0  0  0  0  0  0  0  0  0  0  0  0
   38.6420   28.4710   40.3230 C   0  0  0  0  0  0  0  0  0  0  0  0
   37.8820   29.4830   40.9270 C   0  0  0  0  0  0  0  0  0  0  0  0
   37.0910   29.1530   41.9740 N   0  0  0  0  0  0  0  0  0  0  0  0
   37.0290   27.8780   42.4330 C   0  0  0  0  0  0  0  0  0  0  0  0
   37.7520   26.8920   41.8650 N   0  0  0  0  0  0  0  0  0  0  0  0
   36.1850   27.5510   43.5380 N   0  0  0  0  0  0  0  0  0  0  0  0
   39.1520   26.4070   40.3350 H   0  0  0  0  0  0  0  0  0  0  0  0
   39.2780   28.7380   39.4820 H   0  0  0  0  0  0  0  0  0  0  0  0
   36.5440   26.9060   44.2840 H   0  0  0  0  0  0  0  0  0  0  0  0
   35.2280   27.9990   43.5240 H   0  0  0  0  0  0  0  0  0  0  0  0
  1 25  1  0  0  0  0
  1  2  1  0  0  0  0
  2  7  1  0  0  0  0
  3  2  2  0  0  0  0
  3  8  1  0  0  0  0
  4  3  1  0  0  0  0
  5  6  1  0  0  0  0
  5  4  2  0  0  0  0
  6  1  2  0  0  0  0
  9  4  1  0  0  0  0
 10  5  1  0  0  0  0
 11 12  1  0  0  0  0
 12 13  2  0  0  0  0
 12  6  1  0  0  0  0
 13 14  1  0  0  0  0
 15 16  1  0  0  0  0
 15 13  1  0  0  0  0
 16 17  1  0  0  0  0
 18 16  1  0  0  0  0
 19 18  1  0  0  0  0
 20 21  1  0  0  0  0
 20 18  2  0  0  0  0
 21 15  2  0  0  0  0
 22 21  1  0  0  0  0
 22 11  2  0  0  0  0
 23 28  1  0  0  0  0
 24 23  2  0  0  0  0
 24 25  1  0  0  0  0
 25 26  2  0  0  0  0
 26 27  1  0  0  0  0
 27 29  1  0  0  0  0
 28 27  2  0  0  0  0
 29 32  1  0  0  0  0
 30 23  1  0  0  0  0
 31 24  1  0  0  0  0
 33 29  1  0  0  0  0
M  END
>  <minimizedAffinity>
-5.85237122

$$$$
