
 OpenBabel03252508593D

 48 51  0  0  1  0  0  0  0  0999 V2000
   47.1270   34.2150   43.4620 N   0  0  0  0  0  0  0  0  0  0  0  0
   46.7050   35.3600   42.7380 C   0  0  0  0  0  0  0  0  0  0  0  0
   45.2190   35.6180   42.7500 C   0  0  0  0  0  0  0  0  0  0  0  0
   44.5190   35.1910   44.0130 C   0  0  0  0  0  0  0  0  0  0  0  0
   45.5030   34.7050   45.0520 C   0  0  0  0  0  0  0  0  0  0  0  0
   46.2620   33.5450   44.3110 C   0  0  2  0  0  0  0  0  0  0  0  0
   47.1730   36.2400   43.2470 H   0  0  0  0  0  0  0  0  0  0  0  0
   47.0290   35.4130   41.6960 H   0  0  0  0  0  0  0  0  0  0  0  0
   45.0500   36.7330   42.6690 H   0  0  0  0  0  0  0  0  0  0  0  0
   44.7310   35.1920   41.8470 H   0  0  0  0  0  0  0  0  0  0  0  0
   43.8250   35.9230   44.4300 H   0  0  0  0  0  0  0  0  0  0  0  0
   43.8910   34.3040   43.7410 H   0  0  0  0  0  0  0  0  0  0  0  0
   46.2240   35.4630   45.3650 H   0  0  0  0  0  0  0  0  0  0  0  0
   44.9550   34.1980   45.8650 H   0  0  0  0  0  0  0  0  0  0  0  0
   45.4790   32.8920   43.8720 H   0  0  0  0  0  0  0  0  0  0  0  0
   48.1880   33.4810   42.8360 C   0  0  0  0  0  0  0  0  0  0  0  0
   48.8570   34.1930   42.3220 H   0  0  0  0  0  0  0  0  0  0  0  0
   48.7680   32.9670   43.6390 H   0  0  0  0  0  0  0  0  0  0  0  0
   47.5950   32.4360   41.9480 C   0  0  0  0  0  0  0  0  0  0  0  0
   47.8530   31.4030   42.2320 H   0  0  0  0  0  0  0  0  0  0  0  0
   46.4780   32.5120   41.9400 H   0  0  0  0  0  0  0  0  0  0  0  0
   49.3910   32.1010   38.6610 C   0  0  0  0  0  0  0  0  0  0  0  0
   48.9760   31.8750   39.9870 C   0  0  0  0  0  0  0  0  0  0  0  0
   48.0220   32.6900   40.5460 C   0  0  0  0  0  0  0  0  0  0  0  0
   47.5250   33.6780   39.7890 N   0  0  0  0  0  0  0  0  0  0  0  0
   47.9250   33.8920   38.5190 C   0  0  0  0  0  0  0  0  0  0  0  0
   48.8520   33.1150   37.9470 N   0  0  0  0  0  0  0  0  0  0  0  0
   50.1350   31.4690   38.2160 H   0  0  0  0  0  0  0  0  0  0  0  0
   49.4110   31.0600   40.5540 H   0  0  0  0  0  0  0  0  0  0  0  0
   47.4690   34.7150   37.9800 H   0  0  0  0  0  0  0  0  0  0  0  0
   46.9350   32.9340   45.3590 O   0  0  0  0  0  0  0  0  0  0  0  0
   45.4270   30.8460   44.6950 O   0  0  0  0  0  0  0  0  0  0  0  0
   46.2220   31.4910   45.8390 P   0  0  2  0  0  0  0  0  0  0  0  0
   45.0380   31.9090   47.0030 O   0  0  0  0  0  0  0  0  0  0  0  0
   44.3320   31.2400   46.9900 H   0  0  0  0  0  0  0  0  0  0  0  0
   47.2990   30.4420   46.5460 O   0  0  0  0  0  0  0  0  0  0  0  0
   48.1610   28.3030   47.0120 C   0  0  0  0  0  3  0  0  0  0  0  0
   47.0640   29.1600   46.9570 C   0  0  0  0  0  0  0  0  0  0  0  0
   45.8430   28.6170   47.3290 C   0  0  0  0  0  0  0  0  0  0  0  0
   44.9910   29.2850   47.2860 H   0  0  0  0  0  0  0  0  0  0  0  0
   45.6870   27.3210   47.7300 C   0  0  0  0  0  0  0  0  0  0  0  0
   44.6270   26.6090   48.1230 N   0  0  0  0  0  0  0  0  0  0  0  0
   43.6390   26.9310   48.2050 H   0  0  0  0  0  0  0  0  0  0  0  0
   45.0350   25.3640   48.4110 C   0  0  0  0  0  0  0  0  0  0  0  0
   44.3870   24.5650   48.7560 H   0  0  0  0  0  0  0  0  0  0  0  0
   46.3960   25.2260   48.2110 C   0  0  0  0  0  3  0  0  0  0  0  0
   46.7850   26.4840   47.7800 C   0  0  0  0  0  0  0  0  0  0  0  0
   48.0200   27.0000   47.4130 C   0  0  0  0  0  3  0  0  0  0  0  0
  1  6  1  0  0  0  0
  2  3  1  0  0  0  0
  2  7  1  0  0  0  0
  2  1  1  0  0  0  0
  3  4  1  0  0  0  0
  4 11  1  0  0  0  0
  4  5  1  0  0  0  0
  5 13  1  0  0  0  0
  5 14  1  0  0  0  0
  6 15  1  6  0  0  0
  6  5  1  0  0  0  0
  6 31  1  0  0  0  0
  8  2  1  0  0  0  0
  9  3  1  0  0  0  0
 10  3  1  0  0  0  0
 12  4  1  0  0  0  0
 16  1  1  0  0  0  0
 16 18  1  0  0  0  0
 17 16  1  0  0  0  0
 19 20  1  0  0  0  0
 19 16  1  0  0  0  0
 21 19  1  0  0  0  0
 22 23  1  0  0  0  0
 23 24  2  0  0  0  0
 23 29  1  0  0  0  0
 24 19  1  0  0  0  0
 25 24  1  0  0  0  0
 26 25  2  0  0  0  0
 27 26  1  0  0  0  0
 27 22  2  0  0  0  0
 28 22  1  0  0  0  0
 30 26  1  0  0  0  0
 31 33  1  0  0  0  0
 33 32  2  6  0  0  0
 33 36  1  0  0  0  0
 33 34  1  0  0  0  0
 35 34  1  0  0  0  0
 36 38  1  0  0  0  0
 37 48  1  0  0  0  0
 38 37  2  0  0  0  0
 38 39  1  0  0  0  0
 39 41  2  0  0  0  0
 40 39  1  0  0  0  0
 41 47  1  0  0  0  0
 41 42  1  0  0  0  0
 42 43  1  0  0  0  0
 42 44  1  0  0  0  0
 44 45  1  0  0  0  0
 46 44  2  0  0  0  0
 47 46  1  0  0  0  0
 48 47  2  0  0  0  0
M  END
>  <minimizedAffinity>
-4.60324478

>  <minimizedRMSD>
1.69811392

$$$$
