
 OpenBabel03242512393D

 37 41  0  0  0  0  0  0  0  0999 V2000
   36.7260   28.7870   41.7660 C   0  0  0  0  0  0  0  0  0  0  0  0
   35.5960   28.5030   40.9860 C   0  0  0  0  0  0  0  0  0  0  0  0
   35.2880   29.4680   40.0030 C   0  0  0  0  0  0  0  0  0  0  0  0
   36.0810   30.5760   39.8810 N   0  0  0  0  0  0  0  0  0  0  0  0
   37.1510   30.7760   40.6710 C   0  0  0  0  0  0  0  0  0  0  0  0
   37.4680   29.8700   41.6170 N   0  0  0  0  0  0  0  0  0  0  0  0
   35.0060   27.6070   41.1300 H   0  0  0  0  0  0  0  0  0  0  0  0
   34.4310   29.3110   39.3680 H   0  0  0  0  0  0  0  0  0  0  0  0
   37.4380   33.1030   40.0080 C   0  0  0  0  0  3  0  0  0  0  0  0
   38.0010   31.9550   40.5450 C   0  0  0  0  0  0  0  0  0  0  0  0
   39.3260   31.9500   40.9420 C   0  0  0  0  0  0  0  0  0  0  0  0
   39.7220   31.0510   41.3490 H   0  0  0  0  0  0  0  0  0  0  0  0
   40.0140   33.1300   40.7680 C   0  0  0  0  0  0  0  0  0  0  0  0
   41.3090   33.3910   41.0690 N   0  0  0  0  0  0  0  0  0  0  0  0
   42.0010   32.7330   41.4880 H   0  0  0  0  0  0  0  0  0  0  0  0
   41.5710   34.6880   40.7320 C   0  0  0  0  0  0  0  0  0  0  0  0
   42.5460   35.1310   40.8800 H   0  0  0  0  0  0  0  0  0  0  0  0
   40.4260   35.2860   40.1980 C   0  0  0  0  0  3  0  0  0  0  0  0
   39.4750   34.2780   40.2380 C   0  0  0  0  0  0  0  0  0  0  0  0
   38.1540   34.2780   39.8440 C   0  0  0  0  0  3  0  0  0  0  0  0
   37.0420   27.8090   42.7640 C   0  0  0  0  0  0  0  0  0  0  0  0
   36.3110   27.4640   43.7370 O   0  0  0  0  0  0  0  0  0  0  0  0
   38.6300   26.1410   41.7470 C   0  0  0  0  0  0  0  0  0  0  0  0
   38.3190   27.0850   42.7310 C   0  0  0  0  0  0  0  0  0  0  0  0
   39.2540   27.3480   43.6960 C   0  0  0  0  0  0  0  0  0  0  0  0
   40.5020   26.7360   43.7650 C   0  0  0  0  0  0  0  0  0  0  0  0
   41.5440   26.8500   44.6090 N   0  0  0  0  0  0  0  0  0  0  0  0
   42.5140   26.0270   44.2190 C   0  0  0  0  0  0  0  0  0  0  0  0
   42.0740   25.3590   43.0810 C   0  0  0  0  0  0  0  0  0  0  0  0
   40.7970   25.8030   42.7840 C   0  0  0  0  0  0  0  0  0  0  0  0
   39.8820   25.5170   41.8050 C   0  0  0  0  0  0  0  0  0  0  0  0
   37.9140   25.9280   40.9940 H   0  0  0  0  0  0  0  0  0  0  0  0
   39.1000   28.0750   44.5120 H   0  0  0  0  0  0  0  0  0  0  0  0
   41.6060   27.4880   45.4550 H   0  0  0  0  0  0  0  0  0  0  0  0
   43.4830   25.8970   44.7040 H   0  0  0  0  0  0  0  0  0  0  0  0
   42.6480   24.6130   42.5240 H   0  0  0  0  0  0  0  0  0  0  0  0
   40.1580   24.7820   41.0630 H   0  0  0  0  0  0  0  0  0  0  0  0
  1 21  1  0  0  0  0
  2  7  1  0  0  0  0
  2  1  2  0  0  0  0
  3  2  1  0  0  0  0
  4  3  2  0  0  0  0
  4  5  1  0  0  0  0
  5  6  2  0  0  0  0
  6  1  1  0  0  0  0
  8  3  1  0  0  0  0
  9 10  1  0  0  0  0
 10  5  1  0  0  0  0
 10 11  2  0  0  0  0
 11 12  1  0  0  0  0
 13 11  1  0  0  0  0
 13 14  1  0  0  0  0
 14 15  1  0  0  0  0
 16 17  1  0  0  0  0
 16 14  1  0  0  0  0
 18 19  1  0  0  0  0
 18 16  2  0  0  0  0
 19 13  2  0  0  0  0
 20  9  2  0  0  0  0
 20 19  1  0  0  0  0
 21 22  2  0  0  0  0
 23 31  2  0  0  0  0
 23 24  1  0  0  0  0
 24 21  1  0  0  0  0
 24 25  2  0  0  0  0
 25 26  1  0  0  0  0
 25 33  1  0  0  0  0
 26 27  1  0  0  0  0
 27 34  1  0  0  0  0
 28 27  1  0  0  0  0
 28 35  1  0  0  0  0
 29 28  2  0  0  0  0
 30 29  1  0  0  0  0
 30 26  2  0  0  0  0
 31 30  1  0  0  0  0
 32 23  1  0  0  0  0
 36 29  1  0  0  0  0
 37 31  1  0  0  0  0
M  END
>  <minimizedAffinity>
-7.35194635

$$$$

 OpenBabel03242512393D

 37 41  0  0  0  0  0  0  0  0999 V2000
   38.1930   32.2240   39.2810 C   0  0  0  0  0  0  0  0  0  0  0  0
   37.5190   33.3370   39.8050 C   0  0  0  0  0  0  0  0  0  0  0  0
   38.3410   34.4360   40.1330 C   0  0  0  0  0  0  0  0  0  0  0  0
   39.6910   34.3480   39.9270 N   0  0  0  0  0  0  0  0  0  0  0  0
   40.2630   33.2420   39.4190 C   0  0  0  0  0  0  0  0  0  0  0  0
   39.5010   32.1770   39.0970 N   0  0  0  0  0  0  0  0  0  0  0  0
   36.4460   33.3460   39.9450 H   0  0  0  0  0  0  0  0  0  0  0  0
   37.8850   35.3250   40.5400 H   0  0  0  0  0  0  0  0  0  0  0  0
   42.4810   32.6370   40.2260 C   0  0  0  0  0  3  0  0  0  0  0  0
   41.7010   33.1430   39.1970 C   0  0  0  0  0  0  0  0  0  0  0  0
   42.2880   33.5330   38.0070 C   0  0  0  0  0  0  0  0  0  0  0  0
   41.6580   33.9160   37.2410 H   0  0  0  0  0  0  0  0  0  0  0  0
   43.6550   33.3860   37.9300 C   0  0  0  0  0  0  0  0  0  0  0  0
   44.4680   33.6900   36.8890 N   0  0  0  0  0  0  0  0  0  0  0  0
   44.1860   34.0870   35.9680 H   0  0  0  0  0  0  0  0  0  0  0  0
   45.7500   33.3820   37.2470 C   0  0  0  0  0  0  0  0  0  0  0  0
   46.5830   33.5370   36.5760 H   0  0  0  0  0  0  0  0  0  0  0  0
   45.7750   32.8690   38.5470 C   0  0  0  0  0  3  0  0  0  0  0  0
   44.4450   32.8880   38.9390 C   0  0  0  0  0  0  0  0  0  0  0  0
   43.8560   32.5000   40.1220 C   0  0  0  0  0  3  0  0  0  0  0  0
   37.3620   31.1070   38.9460 C   0  0  0  0  0  0  0  0  0  0  0  0
   36.7660   30.9160   37.8470 O   0  0  0  0  0  0  0  0  0  0  0  0
   36.6200   28.7770   39.5460 C   0  0  0  0  0  0  0  0  0  0  0  0
   37.1250   30.0280   39.9140 C   0  0  0  0  0  0  0  0  0  0  0  0
   37.4190   30.2470   41.2340 C   0  0  0  0  0  0  0  0  0  0  0  0
   37.2470   29.3020   42.2410 C   0  0  0  0  0  0  0  0  0  0  0  0
   37.4710   29.3120   43.5680 N   0  0  0  0  0  0  0  0  0  0  0  0
   37.1360   28.1280   44.0760 C   0  0  0  0  0  0  0  0  0  0  0  0
   36.6790   27.3310   43.0330 C   0  0  0  0  0  0  0  0  0  0  0  0
   36.7450   28.0670   41.8620 C   0  0  0  0  0  0  0  0  0  0  0  0
   36.4410   27.8180   40.5500 C   0  0  0  0  0  0  0  0  0  0  0  0
   36.3880   28.5960   38.5270 H   0  0  0  0  0  0  0  0  0  0  0  0
   37.8200   31.1990   41.6190 H   0  0  0  0  0  0  0  0  0  0  0  0
   37.8540   30.1200   44.1380 H   0  0  0  0  0  0  0  0  0  0  0  0
   37.2060   27.8330   45.1240 H   0  0  0  0  0  0  0  0  0  0  0  0
   36.3280   26.2990   43.1320 H   0  0  0  0  0  0  0  0  0  0  0  0
   36.0530   26.8400   40.3040 H   0  0  0  0  0  0  0  0  0  0  0  0
  1  2  1  0  0  0  0
  2  7  1  0  0  0  0
  2  3  2  0  0  0  0
  3  8  1  0  0  0  0
  4  3  1  0  0  0  0
  5  4  2  0  0  0  0
  6  1  2  0  0  0  0
  6  5  1  0  0  0  0
 10  5  1  0  0  0  0
 10  9  2  0  0  0  0
 11 10  1  0  0  0  0
 12 11  1  0  0  0  0
 13 11  2  0  0  0  0
 13 19  1  0  0  0  0
 14 16  1  0  0  0  0
 14 13  1  0  0  0  0
 15 14  1  0  0  0  0
 16 18  2  0  0  0  0
 17 16  1  0  0  0  0
 18 19  1  0  0  0  0
 19 20  2  0  0  0  0
 20  9  1  0  0  0  0
 21  1  1  0  0  0  0
 21 24  1  0  0  0  0
 22 21  2  0  0  0  0
 23 24  2  0  0  0  0
 23 31  1  0  0  0  0
 24 25  1  0  0  0  0
 25 33  1  0  0  0  0
 25 26  2  0  0  0  0
 26 27  1  0  0  0  0
 27 28  1  0  0  0  0
 27 34  1  0  0  0  0
 28 35  1  0  0  0  0
 29 36  1  0  0  0  0
 29 28  2  0  0  0  0
 30 26  1  0  0  0  0
 30 29  1  0  0  0  0
 31 30  2  0  0  0  0
 32 23  1  0  0  0  0
 37 31  1  0  0  0  0
M  END
>  <minimizedAffinity>
-7.13869286

$$$$

 OpenBabel03242512393D

 37 41  0  0  0  0  0  0  0  0999 V2000
   39.1240   33.0870   39.9210 C   0  0  0  0  0  0  0  0  0  0  0  0
   38.8910   34.3660   40.4480 C   0  0  0  0  0  0  0  0  0  0  0  0
   39.9470   35.2860   40.2770 C   0  0  0  0  0  0  0  0  0  0  0  0
   41.0870   34.8860   39.6350 N   0  0  0  0  0  0  0  0  0  0  0  0
   41.2330   33.6370   39.1580 C   0  0  0  0  0  0  0  0  0  0  0  0
   40.2400   32.7380   39.3060 N   0  0  0  0  0  0  0  0  0  0  0  0
   37.9650   34.6230   40.9470 H   0  0  0  0  0  0  0  0  0  0  0  0
   39.8320   36.2880   40.6590 H   0  0  0  0  0  0  0  0  0  0  0  0
   43.6400   33.8160   38.8220 C   0  0  0  0  0  3  0  0  0  0  0  0
   42.4460   33.2050   38.4720 C   0  0  0  0  0  0  0  0  0  0  0  0
   42.4280   32.2180   37.5010 C   0  0  0  0  0  0  0  0  0  0  0  0
   41.4930   31.7720   37.2600 H   0  0  0  0  0  0  0  0  0  0  0  0
   43.6430   31.9060   36.9340 C   0  0  0  0  0  0  0  0  0  0  0  0
   43.9010   30.9880   35.9710 N   0  0  0  0  0  0  0  0  0  0  0  0
   43.2130   30.3620   35.5000 H   0  0  0  0  0  0  0  0  0  0  0  0
   45.2410   31.0110   35.7090 C   0  0  0  0  0  0  0  0  0  0  0  0
   45.6900   30.3610   34.9710 H   0  0  0  0  0  0  0  0  0  0  0  0
   45.8710   31.9630   36.5150 C   0  0  0  0  0  3  0  0  0  0  0  0
   44.8370   32.5010   37.2660 C   0  0  0  0  0  0  0  0  0  0  0  0
   44.8500   33.4820   38.2330 C   0  0  0  0  0  3  0  0  0  0  0  0
   38.0530   32.1510   40.0920 C   0  0  0  0  0  0  0  0  0  0  0  0
   36.9690   32.1210   39.4400 O   0  0  0  0  0  0  0  0  0  0  0  0
   39.2200   30.9560   41.9760 C   0  0  0  0  0  0  0  0  0  0  0  0
   38.1380   31.0860   41.0990 C   0  0  0  0  0  0  0  0  0  0  0  0
   37.1130   30.1830   41.1960 C   0  0  0  0  0  0  0  0  0  0  0  0
   37.0740   29.1380   42.1140 C   0  0  0  0  0  0  0  0  0  0  0  0
   36.1800   28.1650   42.3720 N   0  0  0  0  0  0  0  0  0  0  0  0
   36.6310   27.4130   43.3730 C   0  0  0  0  0  0  0  0  0  0  0  0
   37.8620   27.9240   43.7700 C   0  0  0  0  0  0  0  0  0  0  0  0
   38.1530   29.0210   42.9760 C   0  0  0  0  0  0  0  0  0  0  0  0
   39.1940   29.9080   42.9040 C   0  0  0  0  0  0  0  0  0  0  0  0
   40.0210   31.6490   41.9100 H   0  0  0  0  0  0  0  0  0  0  0  0
   36.2190   30.2040   40.5490 H   0  0  0  0  0  0  0  0  0  0  0  0
   35.2580   28.0050   41.8720 H   0  0  0  0  0  0  0  0  0  0  0  0
   36.1280   26.5480   43.8070 H   0  0  0  0  0  0  0  0  0  0  0  0
   38.4850   27.5210   44.5730 H   0  0  0  0  0  0  0  0  0  0  0  0
   40.0120   29.7760   43.5970 H   0  0  0  0  0  0  0  0  0  0  0  0
  1 21  1  0  0  0  0
  1  2  1  0  0  0  0
  2  7  1  0  0  0  0
  3  2  2  0  0  0  0
  3  8  1  0  0  0  0
  4  3  1  0  0  0  0
  5  6  1  0  0  0  0
  5  4  2  0  0  0  0
  6  1  2  0  0  0  0
 10  9  1  0  0  0  0
 10  5  1  0  0  0  0
 11 10  2  0  0  0  0
 12 11  1  0  0  0  0
 13 19  2  0  0  0  0
 13 11  1  0  0  0  0
 14 13  1  0  0  0  0
 15 14  1  0  0  0  0
 16 14  1  0  0  0  0
 16 18  2  0  0  0  0
 17 16  1  0  0  0  0
 18 19  1  0  0  0  0
 19 20  1  0  0  0  0
 20  9  2  0  0  0  0
 21 24  1  0  0  0  0
 22 21  2  0  0  0  0
 23 31  1  0  0  0  0
 24 25  1  0  0  0  0
 24 23  2  0  0  0  0
 25 26  2  0  0  0  0
 26 27  1  0  0  0  0
 26 30  1  0  0  0  0
 27 28  1  0  0  0  0
 28 29  2  0  0  0  0
 28 35  1  0  0  0  0
 29 36  1  0  0  0  0
 30 29  1  0  0  0  0
 31 30  2  0  0  0  0
 31 37  1  0  0  0  0
 32 23  1  0  0  0  0
 33 25  1  0  0  0  0
 34 27  1  0  0  0  0
M  END
>  <minimizedAffinity>
-7.01946831

$$$$

 OpenBabel03242512393D

 37 41  0  0  0  0  0  0  0  0999 V2000
   38.4170   26.8880   43.2120 C   0  0  0  0  0  0  0  0  0  0  0  0
   39.6200   26.6130   43.8780 C   0  0  0  0  0  0  0  0  0  0  0  0
   40.2010   25.3640   43.5730 C   0  0  0  0  0  0  0  0  0  0  0  0
   39.5760   24.5340   42.6820 N   0  0  0  0  0  0  0  0  0  0  0  0
   38.4200   24.8720   42.0850 C   0  0  0  0  0  0  0  0  0  0  0  0
   37.8430   26.0590   42.3570 N   0  0  0  0  0  0  0  0  0  0  0  0
   40.0660   27.3120   44.5730 H   0  0  0  0  0  0  0  0  0  0  0  0
   41.1280   25.0900   44.0500 H   0  0  0  0  0  0  0  0  0  0  0  0
   38.4730   22.9280   40.6170 C   0  0  0  0  0  3  0  0  0  0  0  0
   37.7490   23.9910   41.1350 C   0  0  0  0  0  0  0  0  0  0  0  0
   36.4350   24.1920   40.7500 C   0  0  0  0  0  0  0  0  0  0  0  0
   35.9130   25.0180   41.1690 H   0  0  0  0  0  0  0  0  0  0  0  0
   35.9250   23.2860   39.8470 C   0  0  0  0  0  0  0  0  0  0  0  0
   34.6800   23.2560   39.3120 N   0  0  0  0  0  0  0  0  0  0  0  0
   33.8990   23.9200   39.5020 H   0  0  0  0  0  0  0  0  0  0  0  0
   34.6080   22.1870   38.4640 C   0  0  0  0  0  0  0  0  0  0  0  0
   33.7060   21.9530   37.9160 H   0  0  0  0  0  0  0  0  0  0  0  0
   35.8290   21.5070   38.4440 C   0  0  0  0  0  3  0  0  0  0  0  0
   36.6260   22.2270   39.3220 C   0  0  0  0  0  0  0  0  0  0  0  0
   37.9330   22.0310   39.7080 C   0  0  0  0  0  3  0  0  0  0  0  0
   37.8240   28.1560   43.5180 C   0  0  0  0  0  0  0  0  0  0  0  0
   37.0260   28.4030   44.4690 O   0  0  0  0  0  0  0  0  0  0  0  0
   39.3560   29.9890   42.7250 C   0  0  0  0  0  0  0  0  0  0  0  0
   38.1170   29.3410   42.7030 C   0  0  0  0  0  0  0  0  0  0  0  0
   37.1420   29.8320   41.8740 C   0  0  0  0  0  0  0  0  0  0  0  0
   37.3020   30.9390   41.0470 C   0  0  0  0  0  0  0  0  0  0  0  0
   36.4930   31.5690   40.1750 N   0  0  0  0  0  0  0  0  0  0  0  0
   37.1480   32.5930   39.6320 C   0  0  0  0  0  0  0  0  0  0  0  0
   38.4260   32.6190   40.1800 C   0  0  0  0  0  0  0  0  0  0  0  0
   38.5350   31.5720   41.0800 C   0  0  0  0  0  0  0  0  0  0  0  0
   39.5300   31.1060   41.8980 C   0  0  0  0  0  0  0  0  0  0  0  0
   40.1180   29.6190   43.3630 H   0  0  0  0  0  0  0  0  0  0  0  0
   36.1350   29.3890   41.7890 H   0  0  0  0  0  0  0  0  0  0  0  0
   35.4920   31.3090   39.9420 H   0  0  0  0  0  0  0  0  0  0  0  0
   36.7550   33.2890   38.8900 H   0  0  0  0  0  0  0  0  0  0  0  0
   39.2050   33.3460   39.9330 H   0  0  0  0  0  0  0  0  0  0  0  0
   40.4730   31.6330   41.8880 H   0  0  0  0  0  0  0  0  0  0  0  0
  1 21  1  0  0  0  0
  1  2  1  0  0  0  0
  2  7  1  0  0  0  0
  3  2  2  0  0  0  0
  3  8  1  0  0  0  0
  4  3  1  0  0  0  0
  5  6  1  0  0  0  0
  5  4  2  0  0  0  0
  6  1  2  0  0  0  0
  9 10  1  0  0  0  0
 10  5  1  0  0  0  0
 11 10  2  0  0  0  0
 11 12  1  0  0  0  0
 13 11  1  0  0  0  0
 14 15  1  0  0  0  0
 14 13  1  0  0  0  0
 16 14  1  0  0  0  0
 17 16  1  0  0  0  0
 18 16  2  0  0  0  0
 18 19  1  0  0  0  0
 19 20  1  0  0  0  0
 19 13  2  0  0  0  0
 20  9  2  0  0  0  0
 21 22  2  0  0  0  0
 23 32  1  0  0  0  0
 24 23  1  0  0  0  0
 24 21  1  0  0  0  0
 25 24  2  0  0  0  0
 26 30  2  0  0  0  0
 26 25  1  0  0  0  0
 27 26  1  0  0  0  0
 28 27  1  0  0  0  0
 28 29  2  0  0  0  0
 29 30  1  0  0  0  0
 30 31  1  0  0  0  0
 31 23  2  0  0  0  0
 33 25  1  0  0  0  0
 34 27  1  0  0  0  0
 35 28  1  0  0  0  0
 36 29  1  0  0  0  0
 37 31  1  0  0  0  0
M  END
>  <minimizedAffinity>
-7.00921583

$$$$

 OpenBabel03242512393D

 37 41  0  0  0  0  0  0  0  0999 V2000
   37.7450   26.4170   42.6590 C   0  0  0  0  0  0  0  0  0  0  0  0
   37.2920   25.2110   42.1040 C   0  0  0  0  0  0  0  0  0  0  0  0
   38.2710   24.2030   41.9820 C   0  0  0  0  0  0  0  0  0  0  0  0
   39.5500   24.4560   42.3970 N   0  0  0  0  0  0  0  0  0  0  0  0
   39.9060   25.6430   42.9200 C   0  0  0  0  0  0  0  0  0  0  0  0
   38.9910   26.6240   43.0480 N   0  0  0  0  0  0  0  0  0  0  0  0
   36.2640   25.0700   41.7940 H   0  0  0  0  0  0  0  0  0  0  0  0
   37.9880   23.2500   41.5630 H   0  0  0  0  0  0  0  0  0  0  0  0
   41.4820   27.0620   44.1190 C   0  0  0  0  0  3  0  0  0  0  0  0
   41.2680   25.9190   43.3640 C   0  0  0  0  0  0  0  0  0  0  0  0
   42.3240   25.0810   43.0540 C   0  0  0  0  0  0  0  0  0  0  0  0
   42.1200   24.2140   42.4730 H   0  0  0  0  0  0  0  0  0  0  0  0
   43.5570   25.4600   43.5360 C   0  0  0  0  0  0  0  0  0  0  0  0
   44.7440   24.8250   43.3770 N   0  0  0  0  0  0  0  0  0  0  0  0
   44.9160   23.9370   42.8590 H   0  0  0  0  0  0  0  0  0  0  0  0
   45.7040   25.5510   44.0220 C   0  0  0  0  0  0  0  0  0  0  0  0
   46.7400   25.2420   44.0370 H   0  0  0  0  0  0  0  0  0  0  0  0
   45.1350   26.6830   44.6130 C   0  0  0  0  0  3  0  0  0  0  0  0
   43.7910   26.5890   44.2850 C   0  0  0  0  0  0  0  0  0  0  0  0
   42.7350   27.4190   44.5920 C   0  0  0  0  0  3  0  0  0  0  0  0
   36.7540   27.4430   42.7850 C   0  0  0  0  0  0  0  0  0  0  0  0
   35.8490   27.5110   43.6670 O   0  0  0  0  0  0  0  0  0  0  0  0
   35.7110   28.7040   40.8710 C   0  0  0  0  0  0  0  0  0  0  0  0
   36.7100   28.5670   41.8410 C   0  0  0  0  0  0  0  0  0  0  0  0
   37.6790   29.5310   41.9130 C   0  0  0  0  0  0  0  0  0  0  0  0
   37.7390   30.6460   41.0830 C   0  0  0  0  0  0  0  0  0  0  0  0
   38.5850   31.6890   40.9910 N   0  0  0  0  0  0  0  0  0  0  0  0
   38.1820   32.4940   40.0110 C   0  0  0  0  0  0  0  0  0  0  0  0
   37.0330   31.9430   39.4520 C   0  0  0  0  0  0  0  0  0  0  0  0
   36.7430   30.7680   40.1260 C   0  0  0  0  0  0  0  0  0  0  0  0
   35.7600   29.8200   40.0280 C   0  0  0  0  0  0  0  0  0  0  0  0
   34.9550   27.9620   40.8040 H   0  0  0  0  0  0  0  0  0  0  0  0
   38.5070   29.5100   42.6430 H   0  0  0  0  0  0  0  0  0  0  0  0
   39.4410   31.8630   41.5940 H   0  0  0  0  0  0  0  0  0  0  0  0
   38.6640   33.4210   39.6980 H   0  0  0  0  0  0  0  0  0  0  0  0
   36.4650   32.3730   38.6230 H   0  0  0  0  0  0  0  0  0  0  0  0
   35.0060   29.9600   39.2670 H   0  0  0  0  0  0  0  0  0  0  0  0
  1 21  1  0  0  0  0
  1  6  1  0  0  0  0
  2  1  2  0  0  0  0
  3  2  1  0  0  0  0
  3  4  2  0  0  0  0
  4  5  1  0  0  0  0
  5  6  2  0  0  0  0
  5 10  1  0  0  0  0
  7  2  1  0  0  0  0
  8  3  1  0  0  0  0
  9 20  1  0  0  0  0
 10  9  2  0  0  0  0
 11 10  1  0  0  0  0
 11 13  2  0  0  0  0
 12 11  1  0  0  0  0
 13 19  1  0  0  0  0
 14 13  1  0  0  0  0
 14 16  1  0  0  0  0
 15 14  1  0  0  0  0
 16 17  1  0  0  0  0
 16 18  2  0  0  0  0
 19 20  2  0  0  0  0
 19 18  1  0  0  0  0
 21 22  2  0  0  0  0
 23 24  1  0  0  0  0
 24 25  2  0  0  0  0
 24 21  1  0  0  0  0
 25 33  1  0  0  0  0
 26 25  1  0  0  0  0
 27 26  1  0  0  0  0
 27 34  1  0  0  0  0
 28 27  1  0  0  0  0
 29 28  2  0  0  0  0
 29 30  1  0  0  0  0
 30 26  2  0  0  0  0
 31 30  1  0  0  0  0
 31 23  2  0  0  0  0
 32 23  1  0  0  0  0
 35 28  1  0  0  0  0
 36 29  1  0  0  0  0
 37 31  1  0  0  0  0
M  END
>  <minimizedAffinity>
-6.85730219

$$$$

 OpenBabel03242512393D

 37 41  0  0  0  0  0  0  0  0999 V2000
   37.0780   28.8160   41.6860 C   0  0  0  0  0  0  0  0  0  0  0  0
   35.8290   28.6810   41.0640 C   0  0  0  0  0  0  0  0  0  0  0  0
   35.4410   29.7710   40.2560 C   0  0  0  0  0  0  0  0  0  0  0  0
   36.2760   30.8480   40.1380 N   0  0  0  0  0  0  0  0  0  0  0  0
   37.4620   30.9010   40.7690 C   0  0  0  0  0  0  0  0  0  0  0  0
   37.8580   29.8740   41.5470 N   0  0  0  0  0  0  0  0  0  0  0  0
   35.2110   27.8020   41.1960 H   0  0  0  0  0  0  0  0  0  0  0  0
   34.4900   29.7310   39.7480 H   0  0  0  0  0  0  0  0  0  0  0  0
   37.8320   33.2270   40.1440 C   0  0  0  0  0  3  0  0  0  0  0  0
   38.3570   32.0470   40.6460 C   0  0  0  0  0  0  0  0  0  0  0  0
   39.6890   31.9790   41.0150 C   0  0  0  0  0  0  0  0  0  0  0  0
   40.0560   31.0570   41.3960 H   0  0  0  0  0  0  0  0  0  0  0  0
   40.4220   33.1340   40.8480 C   0  0  0  0  0  0  0  0  0  0  0  0
   41.7330   33.3350   41.1250 N   0  0  0  0  0  0  0  0  0  0  0  0
   42.4050   32.6410   41.5170 H   0  0  0  0  0  0  0  0  0  0  0  0
   42.0420   34.6260   40.8060 C   0  0  0  0  0  0  0  0  0  0  0  0
   43.0370   35.0260   40.9410 H   0  0  0  0  0  0  0  0  0  0  0  0
   40.9110   35.2810   40.3080 C   0  0  0  0  0  3  0  0  0  0  0  0
   39.9200   34.3120   40.3500 C   0  0  0  0  0  0  0  0  0  0  0  0
   38.5930   34.3750   39.9850 C   0  0  0  0  0  3  0  0  0  0  0  0
   37.4760   27.7110   42.5060 C   0  0  0  0  0  0  0  0  0  0  0  0
   37.7140   27.7440   43.7480 O   0  0  0  0  0  0  0  0  0  0  0  0
   36.9490   25.2520   42.3970 C   0  0  0  0  0  0  0  0  0  0  0  0
   37.6480   26.3710   41.9320 C   0  0  0  0  0  0  0  0  0  0  0  0
   38.5200   26.2030   40.8900 C   0  0  0  0  0  0  0  0  0  0  0  0
   38.7600   24.9880   40.2570 C   0  0  0  0  0  0  0  0  0  0  0  0
   39.5560   24.6150   39.2370 N   0  0  0  0  0  0  0  0  0  0  0  0
   39.4050   23.3110   39.0190 C   0  0  0  0  0  0  0  0  0  0  0  0
   38.4780   22.8300   39.9370 C   0  0  0  0  0  0  0  0  0  0  0  0
   38.0610   23.8870   40.7290 C   0  0  0  0  0  0  0  0  0  0  0  0
   37.1820   24.0220   41.7700 C   0  0  0  0  0  0  0  0  0  0  0  0
   36.2710   25.3690   43.2050 H   0  0  0  0  0  0  0  0  0  0  0  0
   39.1150   27.0250   40.4550 H   0  0  0  0  0  0  0  0  0  0  0  0
   40.2050   25.2430   38.6810 H   0  0  0  0  0  0  0  0  0  0  0  0
   39.9170   22.7220   38.2580 H   0  0  0  0  0  0  0  0  0  0  0  0
   38.1420   21.7920   40.0120 H   0  0  0  0  0  0  0  0  0  0  0  0
   36.6610   23.1350   42.1020 H   0  0  0  0  0  0  0  0  0  0  0  0
  1 21  1  0  0  0  0
  2  7  1  0  0  0  0
  2  1  2  0  0  0  0
  3  2  1  0  0  0  0
  4  3  2  0  0  0  0
  4  5  1  0  0  0  0
  5  6  2  0  0  0  0
  6  1  1  0  0  0  0
  8  3  1  0  0  0  0
  9 10  1  0  0  0  0
 10  5  1  0  0  0  0
 10 11  2  0  0  0  0
 11 12  1  0  0  0  0
 13 11  1  0  0  0  0
 13 14  1  0  0  0  0
 14 15  1  0  0  0  0
 16 17  1  0  0  0  0
 16 14  1  0  0  0  0
 18 19  1  0  0  0  0
 18 16  2  0  0  0  0
 19 13  2  0  0  0  0
 20  9  2  0  0  0  0
 20 19  1  0  0  0  0
 21 22  2  0  0  0  0
 23 32  1  0  0  0  0
 24 23  1  0  0  0  0
 24 21  1  0  0  0  0
 25 24  2  0  0  0  0
 26 30  2  0  0  0  0
 26 25  1  0  0  0  0
 27 26  1  0  0  0  0
 28 27  1  0  0  0  0
 28 29  2  0  0  0  0
 29 36  1  0  0  0  0
 29 30  1  0  0  0  0
 30 31  1  0  0  0  0
 31 37  1  0  0  0  0
 31 23  2  0  0  0  0
 33 25  1  0  0  0  0
 34 27  1  0  0  0  0
 35 28  1  0  0  0  0
M  END
>  <minimizedAffinity>
-6.79263687

$$$$

 OpenBabel03242512393D

 37 41  0  0  0  0  0  0  0  0999 V2000
   37.3300   29.1430   41.7840 C   0  0  0  0  0  0  0  0  0  0  0  0
   37.6550   29.2500   43.1440 C   0  0  0  0  0  0  0  0  0  0  0  0
   37.8680   28.0220   43.8070 C   0  0  0  0  0  0  0  0  0  0  0  0
   37.7480   26.8530   43.1070 N   0  0  0  0  0  0  0  0  0  0  0  0
   37.4310   26.8360   41.8000 C   0  0  0  0  0  0  0  0  0  0  0  0
   37.2220   27.9930   41.1420 N   0  0  0  0  0  0  0  0  0  0  0  0
   37.7360   30.2060   43.6440 H   0  0  0  0  0  0  0  0  0  0  0  0
   38.1220   28.0330   44.8550 H   0  0  0  0  0  0  0  0  0  0  0  0
   36.5760   25.6230   39.8680 C   0  0  0  0  0  3  0  0  0  0  0  0
   37.3020   25.5920   41.0480 C   0  0  0  0  0  0  0  0  0  0  0  0
   37.8770   24.4100   41.4810 C   0  0  0  0  0  0  0  0  0  0  0  0
   38.4260   24.4260   42.3910 H   0  0  0  0  0  0  0  0  0  0  0  0
   37.6770   23.3110   40.6760 C   0  0  0  0  0  0  0  0  0  0  0  0
   38.1260   22.0460   40.8670 N   0  0  0  0  0  0  0  0  0  0  0  0
   38.7030   21.6990   41.6640 H   0  0  0  0  0  0  0  0  0  0  0  0
   37.6940   21.2790   39.8230 C   0  0  0  0  0  0  0  0  0  0  0  0
   37.9290   20.2270   39.7530 H   0  0  0  0  0  0  0  0  0  0  0  0
   36.9480   22.0570   38.9330 C   0  0  0  0  0  3  0  0  0  0  0  0
   36.9610   23.3210   39.5030 C   0  0  0  0  0  0  0  0  0  0  0  0
   36.3900   24.5000   39.0760 C   0  0  0  0  0  3  0  0  0  0  0  0
   37.1130   30.3870   41.1080 C   0  0  0  0  0  0  0  0  0  0  0  0
   35.9980   30.8550   40.7320 O   0  0  0  0  0  0  0  0  0  0  0  0
   39.5520   30.8100   40.6500 C   0  0  0  0  0  0  0  0  0  0  0  0
   38.2380   31.2720   40.7790 C   0  0  0  0  0  0  0  0  0  0  0  0
   37.9960   32.6050   40.5800 C   0  0  0  0  0  0  0  0  0  0  0  0
   38.9750   33.5390   40.2550 C   0  0  0  0  0  0  0  0  0  0  0  0
   38.9490   34.8630   40.0190 N   0  0  0  0  0  0  0  0  0  0  0  0
   40.1820   35.2820   39.7420 C   0  0  0  0  0  0  0  0  0  0  0  0
   41.0300   34.1810   39.8050 C   0  0  0  0  0  0  0  0  0  0  0  0
   40.2720   33.0670   40.1300 C   0  0  0  0  0  0  0  0  0  0  0  0
   40.5470   31.7400   40.3240 C   0  0  0  0  0  0  0  0  0  0  0  0
   39.7520   29.7800   40.8030 H   0  0  0  0  0  0  0  0  0  0  0  0
   36.9940   33.0610   40.6610 H   0  0  0  0  0  0  0  0  0  0  0  0
   38.0960   35.4930   40.0420 H   0  0  0  0  0  0  0  0  0  0  0  0
   40.4790   36.3050   39.5080 H   0  0  0  0  0  0  0  0  0  0  0  0
   42.1080   34.2020   39.6260 H   0  0  0  0  0  0  0  0  0  0  0  0
   41.5740   31.4210   40.2150 H   0  0  0  0  0  0  0  0  0  0  0  0
  1  2  1  0  0  0  0
  2  7  1  0  0  0  0
  2  3  2  0  0  0  0
  3  8  1  0  0  0  0
  4  3  1  0  0  0  0
  5  4  2  0  0  0  0
  6  1  2  0  0  0  0
  6  5  1  0  0  0  0
  9 10  1  0  0  0  0
 10 11  2  0  0  0  0
 10  5  1  0  0  0  0
 11 12  1  0  0  0  0
 13 14  1  0  0  0  0
 13 11  1  0  0  0  0
 14 15  1  0  0  0  0
 16 14  1  0  0  0  0
 17 16  1  0  0  0  0
 18 19  1  0  0  0  0
 18 16  2  0  0  0  0
 19 13  2  0  0  0  0
 20 19  1  0  0  0  0
 20  9  2  0  0  0  0
 21  1  1  0  0  0  0
 22 21  2  0  0  0  0
 23 24  1  0  0  0  0
 23 32  1  0  0  0  0
 24 21  1  0  0  0  0
 25 33  1  0  0  0  0
 25 24  2  0  0  0  0
 26 25  1  0  0  0  0
 27 34  1  0  0  0  0
 27 26  1  0  0  0  0
 28 29  2  0  0  0  0
 28 27  1  0  0  0  0
 29 30  1  0  0  0  0
 30 26  2  0  0  0  0
 30 31  1  0  0  0  0
 31 23  2  0  0  0  0
 35 28  1  0  0  0  0
 36 29  1  0  0  0  0
 37 31  1  0  0  0  0
M  END
>  <minimizedAffinity>
-6.77347326

$$$$

 OpenBabel03242512393D

 37 41  0  0  0  0  0  0  0  0999 V2000
   38.8980   32.8730   40.5020 C   0  0  0  0  0  0  0  0  0  0  0  0
   37.6200   33.0490   39.9520 C   0  0  0  0  0  0  0  0  0  0  0  0
   36.7270   31.9760   40.1570 C   0  0  0  0  0  0  0  0  0  0  0  0
   37.1490   30.8750   40.8510 N   0  0  0  0  0  0  0  0  0  0  0  0
   38.3960   30.7820   41.3480 C   0  0  0  0  0  0  0  0  0  0  0  0
   39.2700   31.7930   41.1670 N   0  0  0  0  0  0  0  0  0  0  0  0
   37.3440   33.9450   39.4120 H   0  0  0  0  0  0  0  0  0  0  0  0
   35.7260   32.0470   39.7610 H   0  0  0  0  0  0  0  0  0  0  0  0
   37.8900   28.7530   42.5970 C   0  0  0  0  0  3  0  0  0  0  0  0
   38.8520   29.6120   42.0880 C   0  0  0  0  0  0  0  0  0  0  0  0
   40.1960   29.3480   42.2880 C   0  0  0  0  0  0  0  0  0  0  0  0
   40.9040   30.0300   41.8830 H   0  0  0  0  0  0  0  0  0  0  0  0
   40.4880   28.2090   43.0040 C   0  0  0  0  0  0  0  0  0  0  0  0
   41.7100   27.7260   43.3380 N   0  0  0  0  0  0  0  0  0  0  0  0
   42.6360   28.1440   43.1020 H   0  0  0  0  0  0  0  0  0  0  0  0
   41.5320   26.5740   44.0490 C   0  0  0  0  0  0  0  0  0  0  0  0
   42.3670   26.0010   44.4280 H   0  0  0  0  0  0  0  0  0  0  0  0
   40.1680   26.2990   44.1850 C   0  0  0  0  0  3  0  0  0  0  0  0
   39.5500   27.3450   43.5170 C   0  0  0  0  0  0  0  0  0  0  0  0
   38.2130   27.6120   43.3160 C   0  0  0  0  0  3  0  0  0  0  0  0
   39.8080   33.9600   40.2960 C   0  0  0  0  0  0  0  0  0  0  0  0
   39.6900   35.1350   40.7500 O   0  0  0  0  0  0  0  0  0  0  0  0
   41.0130   33.2100   38.2170 C   0  0  0  0  0  0  0  0  0  0  0  0
   41.0240   33.7820   39.4940 C   0  0  0  0  0  0  0  0  0  0  0  0
   42.2230   34.2020   40.0060 C   0  0  0  0  0  0  0  0  0  0  0  0
   43.4400   34.0970   39.3390 C   0  0  0  0  0  0  0  0  0  0  0  0
   44.7020   34.4430   39.6540 N   0  0  0  0  0  0  0  0  0  0  0  0
   45.5070   34.1220   38.6440 C   0  0  0  0  0  0  0  0  0  0  0  0
   44.7300   33.5480   37.6440 C   0  0  0  0  0  0  0  0  0  0  0  0
   43.4140   33.5280   38.0750 C   0  0  0  0  0  0  0  0  0  0  0  0
   42.2310   33.0980   37.5350 C   0  0  0  0  0  0  0  0  0  0  0  0
   40.0910   32.8800   37.8100 H   0  0  0  0  0  0  0  0  0  0  0  0
   42.3320   34.6640   41.0020 H   0  0  0  0  0  0  0  0  0  0  0  0
   45.0250   34.8990   40.5560 H   0  0  0  0  0  0  0  0  0  0  0  0
   46.5860   34.2800   38.6050 H   0  0  0  0  0  0  0  0  0  0  0  0
   45.1040   33.1800   36.6850 H   0  0  0  0  0  0  0  0  0  0  0  0
   42.2620   32.6610   36.5470 H   0  0  0  0  0  0  0  0  0  0  0  0
  1  6  1  0  0  0  0
  2  3  1  0  0  0  0
  2  1  2  0  0  0  0
  3  4  2  0  0  0  0
  4  5  1  0  0  0  0
  5 10  1  0  0  0  0
  6  5  2  0  0  0  0
  7  2  1  0  0  0  0
  8  3  1  0  0  0  0
  9 20  1  0  0  0  0
 10 11  1  0  0  0  0
 10  9  2  0  0  0  0
 11 13  2  0  0  0  0
 12 11  1  0  0  0  0
 13 14  1  0  0  0  0
 13 19  1  0  0  0  0
 14 16  1  0  0  0  0
 15 14  1  0  0  0  0
 16 18  2  0  0  0  0
 16 17  1  0  0  0  0
 19 18  1  0  0  0  0
 20 19  2  0  0  0  0
 21  1  1  0  0  0  0
 21 22  2  0  0  0  0
 23 24  1  0  0  0  0
 24 25  2  0  0  0  0
 24 21  1  0  0  0  0
 25 33  1  0  0  0  0
 26 27  1  0  0  0  0
 26 25  1  0  0  0  0
 27 34  1  0  0  0  0
 28 27  1  0  0  0  0
 29 30  1  0  0  0  0
 29 28  2  0  0  0  0
 30 26  2  0  0  0  0
 31 30  1  0  0  0  0
 31 23  2  0  0  0  0
 32 23  1  0  0  0  0
 35 28  1  0  0  0  0
 36 29  1  0  0  0  0
 37 31  1  0  0  0  0
M  END
>  <minimizedAffinity>
-6.75355434

$$$$

 OpenBabel03242512393D

 37 41  0  0  0  0  0  0  0  0999 V2000
   36.9330   25.4870   40.2920 C   0  0  0  0  0  0  0  0  0  0  0  0
   36.2260   24.6750   39.3930 C   0  0  0  0  0  0  0  0  0  0  0  0
   35.6940   25.3460   38.2710 C   0  0  0  0  0  0  0  0  0  0  0  0
   35.8930   26.6930   38.1390 N   0  0  0  0  0  0  0  0  0  0  0  0
   36.5850   27.4020   39.0480 C   0  0  0  0  0  0  0  0  0  0  0  0
   37.1050   26.7880   40.1290 N   0  0  0  0  0  0  0  0  0  0  0  0
   36.1020   23.6120   39.5530 H   0  0  0  0  0  0  0  0  0  0  0  0
   35.1390   24.7790   37.5400 H   0  0  0  0  0  0  0  0  0  0  0  0
   37.1580   29.3230   37.6640 C   0  0  0  0  0  3  0  0  0  0  0  0
   36.8010   28.8390   38.9120 C   0  0  0  0  0  0  0  0  0  0  0  0
   36.6580   29.7060   39.9810 C   0  0  0  0  0  0  0  0  0  0  0  0
   36.3830   29.2970   40.9230 H   0  0  0  0  0  0  0  0  0  0  0  0
   36.8920   31.0370   39.7140 C   0  0  0  0  0  0  0  0  0  0  0  0
   36.8230   32.0830   40.5740 N   0  0  0  0  0  0  0  0  0  0  0  0
   36.5780   32.0470   41.5870 H   0  0  0  0  0  0  0  0  0  0  0  0
   37.1310   33.2200   39.8840 C   0  0  0  0  0  0  0  0  0  0  0  0
   37.1430   34.1910   40.3600 H   0  0  0  0  0  0  0  0  0  0  0  0
   37.4080   32.9130   38.5490 C   0  0  0  0  0  3  0  0  0  0  0  0
   37.2480   31.5370   38.4840 C   0  0  0  0  0  0  0  0  0  0  0  0
   37.3880   30.6690   37.4230 C   0  0  0  0  0  3  0  0  0  0  0  0
   37.4750   24.8100   41.4320 C   0  0  0  0  0  0  0  0  0  0  0  0
   37.1010   23.6920   41.8900 O   0  0  0  0  0  0  0  0  0  0  0  0
   38.4190   26.5310   43.0080 C   0  0  0  0  0  0  0  0  0  0  0  0
   38.5770   25.3990   42.2030 C   0  0  0  0  0  0  0  0  0  0  0  0
   39.8140   24.8130   42.1440 C   0  0  0  0  0  0  0  0  0  0  0  0
   40.9310   25.2700   42.8360 C   0  0  0  0  0  0  0  0  0  0  0  0
   42.2070   24.8490   42.9180 N   0  0  0  0  0  0  0  0  0  0  0  0
   42.8810   25.6530   43.7360 C   0  0  0  0  0  0  0  0  0  0  0  0
   42.0020   26.6280   44.1950 C   0  0  0  0  0  0  0  0  0  0  0  0
   40.7590   26.3940   43.6290 C   0  0  0  0  0  0  0  0  0  0  0  0
   39.5350   27.0030   43.7090 C   0  0  0  0  0  0  0  0  0  0  0  0
   37.4660   26.9950   43.0610 H   0  0  0  0  0  0  0  0  0  0  0  0
   40.0360   23.9180   41.5380 H   0  0  0  0  0  0  0  0  0  0  0  0
   42.6290   24.0120   42.4200 H   0  0  0  0  0  0  0  0  0  0  0  0
   43.9350   25.5660   44.0020 H   0  0  0  0  0  0  0  0  0  0  0  0
   42.2580   27.4360   44.8860 H   0  0  0  0  0  0  0  0  0  0  0  0
   39.4520   27.8760   44.3400 H   0  0  0  0  0  0  0  0  0  0  0  0
  1 21  1  0  0  0  0
  2  7  1  0  0  0  0
  2  1  2  0  0  0  0
  3  2  1  0  0  0  0
  4  3  2  0  0  0  0
  4  5  1  0  0  0  0
  5  6  2  0  0  0  0
  6  1  1  0  0  0  0
  8  3  1  0  0  0  0
  9 10  1  0  0  0  0
 10  5  1  0  0  0  0
 10 11  2  0  0  0  0
 11 12  1  0  0  0  0
 13 11  1  0  0  0  0
 13 14  1  0  0  0  0
 14 15  1  0  0  0  0
 16 17  1  0  0  0  0
 16 14  1  0  0  0  0
 18 16  2  0  0  0  0
 19 18  1  0  0  0  0
 19 13  2  0  0  0  0
 20  9  2  0  0  0  0
 20 19  1  0  0  0  0
 21 22  2  0  0  0  0
 21 24  1  0  0  0  0
 23 32  1  0  0  0  0
 23 31  1  0  0  0  0
 24 23  2  0  0  0  0
 25 24  1  0  0  0  0
 25 26  2  0  0  0  0
 26 27  1  0  0  0  0
 26 30  1  0  0  0  0
 27 28  1  0  0  0  0
 28 35  1  0  0  0  0
 28 29  2  0  0  0  0
 29 36  1  0  0  0  0
 30 31  2  0  0  0  0
 30 29  1  0  0  0  0
 31 37  1  0  0  0  0
 33 25  1  0  0  0  0
 34 27  1  0  0  0  0
M  END
>  <minimizedAffinity>
-6.69949341

$$$$
