
     RDKit          3D

 20 21  0  0  0  0  0  0  0  0999 V2000
   45.4336   35.0721   43.9953 C   0  0  0  0  0  0  0  0  0  0  0  0
   46.4971   34.2973   43.5071 C   0  0  0  0  0  0  0  0  0  0  0  0
   47.0207   33.2885   44.3308 C   0  0  0  0  0  0  0  0  0  0  0  0
   46.4594   33.1241   45.5603 N   0  0  0  0  0  0  0  0  0  0  0  0
   45.4306   33.8896   46.0054 C   0  0  0  0  0  0  0  0  0  0  0  0
   44.9201   34.8694   45.2091 N   0  0  0  0  0  0  0  0  0  0  0  0
   44.9036   36.1320   43.0960 C   0  0  0  0  0  0  0  0  0  0  0  0
   46.8925   34.4831   42.5224 H   0  0  0  0  0  0  0  0  0  0  0  0
   47.8245   32.7081   43.9528 H   0  0  0  0  0  0  0  0  0  0  0  0
   45.0142   33.7228   46.9938 H   0  0  0  0  0  0  0  0  0  0  0  0
   43.8068   36.2572   43.3309 H   0  0  0  0  0  0  0  0  0  0  0  0
   44.9817   35.7917   42.0360 H   0  0  0  0  0  0  0  0  0  0  0  0
   45.5326   37.3998   43.2316 C   0  0  0  0  0  0  0  0  0  0  0  0
   46.9107   37.7575   43.0470 C   0  0  0  0  0  0  0  0  0  0  0  0
   47.5874   36.9712   42.7642 H   0  0  0  0  0  0  0  0  0  0  0  0
   47.2835   39.0562   43.2371 C   0  0  0  0  0  0  0  0  0  0  0  0
   46.1989   39.9909   43.6254 C   0  0  0  0  0  0  0  0  0  0  0  0
   44.6862   38.8580   43.6802 S   0  0  0  0  0  0  0  0  0  0  0  0
   48.2972   39.3876   43.1149 H   0  0  0  0  0  0  0  0  0  0  0  0
   46.4952   41.0697   43.7858 H   0  0  0  0  0  0  0  0  0  0  0  0
  1  6  1  0
  2  1  2  0
  2  3  1  0
  3  4  2  0
  4  5  1  0
  6  5  2  0
  7  1  1  0
  2  8  1  0
  3  9  1  0
  5 10  1  0
  7 11  1  0
  7 12  1  0
 13 14  2  0
 14 15  1  0
 14 16  1  0
 16 17  2  0
 17 18  1  0
 18 13  1  0
 16 19  1  0
 17 20  1  0
  7 13  1  0
M  ISO  6   8  14   9  14  10  14  11   8  12   8  15  15
M  END
>  <DihAtoms>  (1) 
0,6,12,13

>  <DihDeg>  (1) 
-90.24734236193807

$$$$
