
 OpenBabel03252508063D

 37 40  0  0  0  0  0  0  0  0999 V2000
   45.2090   35.5980   41.8800 C   0  0  0  0  0  0  0  0  0  0  0  0
   44.9970   34.2220   41.8020 C   0  0  0  0  0  0  0  0  0  0  0  0
   44.7890   33.5020   42.9640 C   0  0  0  0  0  0  0  0  0  0  0  0
   44.7920   34.1870   44.1550 N   0  0  0  0  0  0  0  0  0  0  0  0
   44.9960   35.5110   44.2050 C   0  0  0  0  0  0  0  0  0  0  0  0
   45.2030   36.2000   43.0680 N   0  0  0  0  0  0  0  0  0  0  0  0
   45.3800   36.2060   40.9950 H   0  0  0  0  0  0  0  0  0  0  0  0
   44.9770   35.9520   45.2120 H   0  0  0  0  0  0  0  0  0  0  0  0
   44.5600   32.0980   43.0200 C   0  0  0  0  0  0  0  0  0  0  0  0
   43.4680   31.4420   42.4750 C   0  0  0  0  0  0  0  0  0  0  0  0
   43.2250   30.0970   42.6310 C   0  0  0  0  0  0  0  0  0  0  0  0
   44.0960   29.3200   43.3670 C   0  0  0  0  0  0  0  0  0  0  0  0
   45.2200   29.9780   43.9290 C   0  0  0  0  0  0  0  0  0  0  0  0
   46.0880   29.2150   44.6630 C   0  0  0  0  0  0  0  0  0  0  0  0
   47.2110   29.7830   45.2370 C   0  0  0  0  0  0  0  0  0  0  0  0
   47.4530   31.1480   45.0580 C   0  0  0  0  0  0  0  0  0  0  0  0
   46.5410   31.9050   44.3000 C   0  0  0  0  0  0  0  0  0  0  0  0
   45.4260   31.3100   43.7480 C   0  0  0  0  0  0  0  0  0  0  0  0
   42.7510   31.9530   41.9070 H   0  0  0  0  0  0  0  0  0  0  0  0
   42.3770   29.5880   42.2070 H   0  0  0  0  0  0  0  0  0  0  0  0
   43.9140   28.2620   43.4990 H   0  0  0  0  0  0  0  0  0  0  0  0
   45.8700   28.1410   44.7820 H   0  0  0  0  0  0  0  0  0  0  0  0
   47.8280   29.0780   45.8000 H   0  0  0  0  0  0  0  0  0  0  0  0
   48.3620   31.4160   45.5640 H   0  0  0  0  0  0  0  0  0  0  0  0
   46.9790   32.8500   44.2950 H   0  0  0  0  0  0  0  0  0  0  0  0
   44.9970   33.6660   40.5560 O   0  0  0  0  0  0  0  0  0  0  0  0
   46.0470   32.0790   38.7350 O   0  0  0  0  0  0  0  0  0  0  0  0
   46.4000   33.0620   39.8000 P   0  0  1  0  0  0  0  0  0  0  0  0
   47.2660   34.3140   39.0560 O   0  0  0  0  0  0  0  0  0  0  0  0
   47.8740   33.8960   38.4080 H   0  0  0  0  0  0  0  0  0  0  0  0
   47.3810   32.3580   40.9590 O   0  0  0  0  0  0  0  0  0  0  0  0
   48.5510   32.7970   41.4500 C   0  0  0  0  0  0  0  0  0  0  0  0
   49.8230   32.2280   41.4600 C   0  0  0  0  0  0  0  0  0  0  0  0
   49.9240   31.2570   40.9970 H   0  0  0  0  0  0  0  0  0  0  0  0
   50.8520   32.9240   42.0450 C   0  0  0  0  0  3  0  0  0  0  0  0
   50.6350   34.1420   42.6050 C   0  0  0  0  0  3  0  0  0  0  0  0
   48.7800   34.4280   42.3190 S   0  0  0  0  0  0  0  0  0  0  0  0
  1  6  1  0  0  0  0
  2  1  2  0  0  0  0
  2  3  1  0  0  0  0
  3  9  1  0  0  0  0
  3  4  2  0  0  0  0
  4  5  1  0  0  0  0
  5  8  1  0  0  0  0
  6  5  2  0  0  0  0
  7  1  1  0  0  0  0
  9 18  1  0  0  0  0
 10 11  1  0  0  0  0
 10  9  2  0  0  0  0
 11 12  2  0  0  0  0
 12 21  1  0  0  0  0
 12 13  1  0  0  0  0
 13 14  1  0  0  0  0
 14 22  1  0  0  0  0
 14 15  2  0  0  0  0
 15 23  1  0  0  0  0
 16 15  1  0  0  0  0
 16 24  1  0  0  0  0
 17 16  2  0  0  0  0
 18 13  2  0  0  0  0
 18 17  1  0  0  0  0
 19 10  1  0  0  0  0
 20 11  1  0  0  0  0
 25 17  1  0  0  0  0
 26  2  1  0  0  0  0
 28 27  2  6  0  0  0
 28 26  1  0  0  0  0
 28 31  1  0  0  0  0
 29 28  1  0  0  0  0
 30 29  1  0  0  0  0
 31 32  1  0  0  0  0
 32 33  2  0  0  0  0
 32 37  1  0  0  0  0
 33 35  1  0  0  0  0
 34 33  1  0  0  0  0
 35 36  2  0  0  0  0
 37 36  1  0  0  0  0
M  END
>  <minimizedAffinity>
-4.29459572

>  <minimizedRMSD>
3.8443377

$$$$
