
 OpenBabel03252509163D

 22 24  0  0  0  0  0  0  0  0999 V2000
   46.9070   33.8230   43.2810 C   0  0  0  0  0  0  0  0  0  0  0  0
   45.8680   34.5210   43.9450 C   0  0  0  0  0  0  0  0  0  0  0  0
   45.4990   34.1320   45.1830 C   0  0  0  0  0  0  0  0  0  0  0  0
   46.1640   33.0360   45.7800 C   0  0  0  0  0  0  0  0  0  0  0  0
   47.3650   32.5590   44.4950 S   0  0  0  0  0  0  0  0  0  0  0  0
   45.3840   35.3600   43.4480 H   0  0  0  0  0  0  0  0  0  0  0  0
   44.7310   34.5860   45.7670 H   0  0  0  0  0  0  0  0  0  0  0  0
   48.6160   35.2750   40.3250 C   0  0  0  0  0  0  0  0  0  0  0  0
   48.0620   34.4600   39.3030 C   0  0  0  0  0  0  0  0  0  0  0  0
   47.1400   33.4630   39.6790 C   0  0  0  0  0  0  0  0  0  0  0  0
   46.8330   33.3410   41.0090 N   0  0  0  0  0  0  0  0  0  0  0  0
   47.3940   34.1480   41.9410 C   0  0  0  0  0  0  0  0  0  0  0  0
   48.2850   35.1150   41.6010 N   0  0  0  0  0  0  0  0  0  0  0  0
   49.3220   36.0370   40.0340 H   0  0  0  0  0  0  0  0  0  0  0  0
   48.3150   34.5690   38.2530 H   0  0  0  0  0  0  0  0  0  0  0  0
   46.6710   32.7990   38.9660 H   0  0  0  0  0  0  0  0  0  0  0  0
   46.0380   32.4080   46.9780 C   0  0  0  0  0  0  0  0  0  0  0  0
   45.1340   32.4980   47.9720 C   0  0  0  0  0  0  0  0  0  0  0  0
   44.3160   33.1950   47.8620 H   0  0  0  0  0  0  0  0  0  0  0  0
   45.2090   31.7510   49.1100 C   0  0  0  0  0  0  0  0  0  0  0  0
   46.3720   30.8090   49.1910 C   0  0  0  0  0  0  0  0  0  0  0  0
   47.2480   31.1210   47.5650 S   0  0  0  0  0  0  0  0  0  0  0  0
  1  2  2  0  0  0  0
  1  5  1  0  0  0  0
  2  3  1  0  0  0  0
  3  7  1  0  0  0  0
  3  4  2  0  0  0  0
  4 17  1  0  0  0  0
  5  4  1  0  0  0  0
  6  2  1  0  0  0  0
  8 13  1  0  0  0  0
  9 10  1  0  0  0  0
  9  8  2  0  0  0  0
 10 11  2  0  0  0  0
 11 12  1  0  0  0  0
 12  1  1  0  0  0  0
 13 12  2  0  0  0  0
 14  8  1  0  0  0  0
 15  9  1  0  0  0  0
 16 10  1  0  0  0  0
 17 22  1  0  0  0  0
 17 18  2  0  0  0  0
 18 20  1  0  0  0  0
 19 18  1  0  0  0  0
 20 21  2  0  0  0  0
 22 21  1  0  0  0  0
M  END
>  <minimizedAffinity>
-4.54852581

>  <minimizedRMSD>
4.24686766

$$$$
