
 OpenBabel03252505403D

 25 27  0  0  1  0  0  0  0  0999 V2000
   46.8040   33.0840   43.1290 C   0  0  1  0  0  0  0  0  0  0  0  0
   47.2660   34.5440   43.2310 C   0  0  0  0  0  0  0  0  0  0  0  0
   48.0630   33.4950   42.5050 C   0  0  2  0  0  0  0  0  0  0  0  0
   45.9050   32.9030   42.5050 H   0  0  0  0  0  0  0  0  0  0  0  0
   47.6000   34.9290   44.2090 H   0  0  0  0  0  0  0  0  0  0  0  0
   46.6950   35.2220   42.5800 H   0  0  0  0  0  0  0  0  0  0  0  0
   48.9950   33.2270   43.0450 H   0  0  0  0  0  0  0  0  0  0  0  0
   46.7750   32.3600   44.4260 C   0  0  0  0  0  0  0  0  0  0  0  0
   47.5570   31.1840   44.5550 C   0  0  0  0  0  0  0  0  0  0  0  0
   47.5370   30.5140   45.7810 C   0  0  0  0  0  0  0  0  0  0  0  0
   46.7650   31.0360   46.7700 N   0  0  0  0  0  0  0  0  0  0  0  0
   46.0360   32.1570   46.6070 C   0  0  0  0  0  0  0  0  0  0  0  0
   46.0500   32.8060   45.4310 N   0  0  0  0  0  0  0  0  0  0  0  0
   48.1690   30.7840   43.7460 H   0  0  0  0  0  0  0  0  0  0  0  0
   48.1020   29.6100   45.9680 H   0  0  0  0  0  0  0  0  0  0  0  0
   45.2720   32.5510   47.8330 C   0  0  0  0  0  0  0  0  0  0  0  0
   44.5790   33.7280   47.6400 F   0  0  0  0  0  0  0  0  0  0  0  0
   46.1530   32.7340   48.9020 F   0  0  0  0  0  0  0  0  0  0  0  0
   44.4310   31.5050   48.1940 F   0  0  0  0  0  0  0  0  0  0  0  0
   48.1790   33.4960   41.0680 C   0  0  0  0  0  0  0  0  0  0  0  0
   47.8560   34.3590   40.0760 C   0  0  0  0  0  0  0  0  0  0  0  0
   47.4020   35.2790   40.4050 H   0  0  0  0  0  0  0  0  0  0  0  0
   48.0960   34.0690   38.7690 C   0  0  0  0  0  3  0  0  0  0  0  0
   48.7270   32.7570   38.5310 C   0  0  0  0  0  3  0  0  0  0  0  0
   48.9210   32.0440   40.2570 S   0  0  0  0  0  0  0  0  0  0  0  0
  1  4  1  6  0  0  0
  1  2  1  0  0  0  0
  1  8  1  0  0  0  0
  2  5  1  0  0  0  0
  3  7  1  1  0  0  0
  3  1  1  0  0  0  0
  3  2  1  0  0  0  0
  6  2  1  0  0  0  0
  8  9  2  0  0  0  0
  8 13  1  0  0  0  0
  9 10  1  0  0  0  0
 10 15  1  0  0  0  0
 10 11  2  0  0  0  0
 12 11  1  0  0  0  0
 12 16  1  0  0  0  0
 13 12  2  0  0  0  0
 14  9  1  0  0  0  0
 16 19  1  0  0  0  0
 16 18  1  0  0  0  0
 17 16  1  0  0  0  0
 20  3  1  0  0  0  0
 21 22  1  0  0  0  0
 21 20  2  0  0  0  0
 23 21  1  0  0  0  0
 24 23  2  0  0  0  0
 24 25  1  0  0  0  0
 25 20  1  0  0  0  0
M  END
>  <minimizedAffinity>
-4.66147661

>  <minimizedRMSD>
3.94049406

$$$$
