
 OpenBabel03252509233D

 24 26  0  0  1  0  0  0  0  0999 V2000
   46.9350   34.8770   41.9110 C   0  0  1  0  0  0  0  0  0  0  0  0
   48.3440   35.5190   42.0100 C   0  0  0  0  0  0  0  0  0  0  0  0
   48.0370   34.0700   41.5250 C   0  0  2  0  0  0  0  0  0  0  0  0
   46.2580   35.4150   41.2230 H   0  0  0  0  0  0  0  0  0  0  0  0
   48.5520   36.2450   41.2060 H   0  0  0  0  0  0  0  0  0  0  0  0
   48.8040   35.6640   42.9820 H   0  0  0  0  0  0  0  0  0  0  0  0
   48.4230   33.3210   42.2550 H   0  0  0  0  0  0  0  0  0  0  0  0
   44.7860   35.1950   44.9670 C   0  0  0  0  0  0  0  0  0  0  0  0
   45.3180   35.4990   43.6710 C   0  0  0  0  0  0  0  0  0  0  0  0
   46.3510   34.6790   43.2970 C   0  0  0  0  0  0  0  0  0  0  0  0
   46.8190   33.6640   44.1150 N   0  0  0  0  0  0  0  0  0  0  0  0
   46.2770   33.4330   45.3170 C   0  0  0  0  0  0  0  0  0  0  0  0
   45.2470   34.2080   45.7470 N   0  0  0  0  0  0  0  0  0  0  0  0
   43.9770   35.7980   45.3140 H   0  0  0  0  0  0  0  0  0  0  0  0
   46.7890   32.6020   45.7810 H   0  0  0  0  0  0  0  0  0  0  0  0
   44.8330   36.5550   42.8620 N   0  0  0  0  0  0  0  0  0  0  0  0
   45.2230   37.4440   43.2740 H   0  0  0  0  0  0  0  0  0  0  0  0
   44.2120   36.5020   42.0210 H   0  0  0  0  0  0  0  0  0  0  0  0
   48.2500   33.7750   40.1120 C   0  0  0  0  0  0  0  0  0  0  0  0
   48.0140   34.4360   38.9590 C   0  0  0  0  0  0  0  0  0  0  0  0
   47.5650   35.4110   39.0590 H   0  0  0  0  0  0  0  0  0  0  0  0
   48.3450   33.8520   37.7590 C   0  0  0  0  0  3  0  0  0  0  0  0
   48.9250   32.5680   37.8210 C   0  0  0  0  0  3  0  0  0  0  0  0
   48.9890   32.2090   39.6150 S   0  0  0  0  0  0  0  0  0  0  0  0
  1  4  1  6  0  0  0
  1  2  1  0  0  0  0
  1 10  1  0  0  0  0
  2  6  1  0  0  0  0
  3  1  1  0  0  0  0
  3  2  1  0  0  0  0
  3  7  1  1  0  0  0
  5  2  1  0  0  0  0
  8 14  1  0  0  0  0
  8 13  1  0  0  0  0
  9  8  2  0  0  0  0
 10  9  1  0  0  0  0
 10 11  2  0  0  0  0
 11 12  1  0  0  0  0
 12 13  2  0  0  0  0
 12 15  1  0  0  0  0
 16 17  1  0  0  0  0
 16  9  1  0  0  0  0
 18 16  1  0  0  0  0
 19  3  1  0  0  0  0
 20 21  1  0  0  0  0
 20 19  2  0  0  0  0
 22 23  2  0  0  0  0
 22 20  1  0  0  0  0
 23 24  1  0  0  0  0
 24 19  1  0  0  0  0
M  END
>  <minimizedAffinity>
-4.7981205

>  <minimizedRMSD>
0.748910606

$$$$
