REMARK  Name = 
REMARK  7 active torsions:
REMARK  status: ('A' for Active; 'I' for Inactive)
REMARK    1  A    between atoms: C_1  and  C_8
REMARK    2  A    between atoms: C_4  and  C_12
REMARK    3  A    between atoms: C_14  and  O_15
REMARK    4  A    between atoms: O_15  and  P_17
REMARK    5  A    between atoms: P_17  and  O_18
REMARK    6  A    between atoms: P_17  and  O_19
REMARK    7  A    between atoms: O_19  and  C_36
REMARK                            x       y       z     vdW  Elec       q    Type
REMARK                         _______ _______ _______ _____ _____    ______ ____
ROOT
ATOM      1  C   UNL     1      47.058  34.807  41.956  0.00  0.00    +0.000 C 
ATOM      2  C   UNL     1      46.299  34.189  40.781  0.00  0.00    +0.000 C 
ATOM      3  C   UNL     1      47.497  33.992  39.830  0.00  0.00    +0.000 C 
ATOM      4  C   UNL     1      48.640  33.624  40.724  0.00  0.00    +0.000 C 
ATOM      5  C   UNL     1      48.131  33.766  42.128  0.00  0.00    +0.000 C 
ATOM      6  H   UNL     1      47.459  35.767  41.620  0.00  0.00    +0.000 HD
ATOM      7  H   UNL     1      45.924  33.197  41.052  0.00  0.00    +0.000 HD
ATOM      8  H   UNL     1      45.566  34.874  40.348  0.00  0.00    +0.000 HD
ATOM      9  H   UNL     1      47.726  34.986  39.378  0.00  0.00    +0.000 HD
ATOM     10  H   UNL     1      47.266  33.217  39.079  0.00  0.00    +0.000 HD
ATOM     11  H   UNL     1      49.520  34.294  40.602  0.00  0.00    +0.000 HD
ATOM     12  H   UNL     1      48.898  34.193  42.809  0.00  0.00    +0.000 HD
ATOM     13  H   UNL     1      47.679  32.837  42.521  0.00  0.00    +0.000 HD
ENDROOT
BRANCH   1  16
ATOM     14  C   UNL     1      44.558  35.999  44.508  0.00  0.00    +0.000 A 
ATOM     15  C   UNL     1      45.296  35.983  43.315  0.00  0.00    +0.000 A 
ATOM     16  C   UNL     1      46.194  34.932  43.160  0.00  0.00    +0.000 A 
ATOM     17  N   UNL     1      46.337  33.954  44.156  0.00  0.00    +0.000 NA
ATOM     18  C   UNL     1      45.591  34.032  45.287  0.00  0.00    +0.000 A 
ATOM     19  N   UNL     1      44.707  35.052  45.457  0.00  0.00    +0.000 NA
ATOM     20  H   UNL     1      43.850  36.807  44.657  0.00  0.00    +0.000 HD
ATOM     21  H   UNL     1      45.209  36.715  42.537  0.00  0.00    +0.000 HD
ATOM     22  H   UNL     1      45.792  33.224  45.974  0.00  0.00    +0.000 HD
ENDBRANCH   1  16
BRANCH   4  23
ATOM     23  C   UNL     1      49.124  32.200  40.566  0.00  0.00    +0.000 C 
ATOM     24  C   UNL     1      49.769  31.615  41.737  0.00  0.00    +0.000 C 
ATOM     25  C   UNL     1      50.551  31.879  40.495  0.00  0.00    +0.000 C 
ATOM     26  H   UNL     1      48.436  31.562  39.985  0.00  0.00    +0.000 HD
ATOM     27  H   UNL     1      49.901  32.219  42.636  0.00  0.00    +0.000 HD
ATOM     28  H   UNL     1      49.493  30.553  41.998  0.00  0.00    +0.000 HD
ATOM     29  H   UNL     1      51.258  32.721  40.480  0.00  0.00    +0.000 HD
BRANCH  25  30
ATOM     30  O   UNL     1      50.929  30.765  39.709  0.00  0.00    +0.000 OA
BRANCH  30  32
ATOM     31  O   UNL     1      52.040  30.208  37.420  0.00  0.00    +0.000 OA
ATOM     32  P   UNL     1      51.882  31.310  38.441  0.00  0.00    +0.000 P 
BRANCH  32  33
ATOM     33  O   UNL     1      51.107  32.625  37.654  0.00  0.00    +0.000 OA
ATOM     34  H   UNL     1      51.058  33.370  38.328  0.00  0.00    +0.000 HD
ENDBRANCH  32  33
BRANCH  32  35
ATOM     35  O   UNL     1      53.392  31.847  38.874  0.00  0.00    +0.000 OA
BRANCH  35  36
ATOM     36  C   UNL     1      54.126  32.603  37.964  0.00  0.00    +0.000 A 
ATOM     37  C   UNL     1      54.112  33.864  37.488  0.00  0.00    +0.000 A 
ATOM     38  H   UNL     1      53.317  34.450  37.929  0.00  0.00    +0.000 HD
ATOM     39  C   UNL     1      55.010  34.285  36.570  0.00  0.00    +0.000 A 
ATOM     40  C   UNL     1      55.947  33.314  36.159  0.00  0.00    +0.000 A 
ATOM     41  S   UNL     1      55.445  31.799  37.167  0.00  0.00    +0.000 S 
ENDBRANCH  35  36
ENDBRANCH  32  35
ENDBRANCH  30  32
ENDBRANCH  25  30
ENDBRANCH   4  23
TORSDOF 7
