
 OpenBabel03252509263D

 27 29  0  0  1  0  0  0  0  0999 V2000
   46.7070   35.1110   41.9150 C   0  0  1  0  0  0  0  0  0  0  0  0
   48.2280   35.4400   41.9690 C   0  0  0  0  0  0  0  0  0  0  0  0
   47.5720   34.1790   41.3180 C   0  0  2  0  0  0  0  0  0  0  0  0
   46.1300   35.8630   41.3400 H   0  0  0  0  0  0  0  0  0  0  0  0
   48.7670   35.3170   42.9010 H   0  0  0  0  0  0  0  0  0  0  0  0
   48.5840   36.1790   41.2340 H   0  0  0  0  0  0  0  0  0  0  0  0
   47.8040   33.2470   41.9210 H   0  0  0  0  0  0  0  0  0  0  0  0
   44.7080   35.2810   45.0870 C   0  0  0  0  0  0  0  0  0  0  0  0
   45.1850   35.6400   43.7880 C   0  0  0  0  0  0  0  0  0  0  0  0
   46.1730   34.8550   43.2960 C   0  0  0  0  0  0  0  0  0  0  0  0
   46.6800   33.7860   44.0110 N   0  0  0  0  0  0  0  0  0  0  0  0
   46.1980   33.4820   45.2420 C   0  0  0  0  0  0  0  0  0  0  0  0
   45.2100   34.2340   45.7790 N   0  0  0  0  0  0  0  0  0  0  0  0
   43.9130   35.9160   45.4750 H   0  0  0  0  0  0  0  0  0  0  0  0
   46.5860   32.6490   45.8100 H   0  0  0  0  0  0  0  0  0  0  0  0
   44.6750   36.7470   43.0720 N   0  0  0  0  0  0  0  0  0  0  0  0
   44.7460   37.7830   43.2540 H   0  0  0  0  0  0  0  0  0  0  0  0
   44.1850   36.2860   42.2800 H   0  0  0  0  0  0  0  0  0  0  0  0
   47.6620   34.0290   39.8160 C   0  0  0  0  0  0  0  0  0  0  0  0
   46.5960   33.9850   39.4560 H   0  0  0  0  0  0  0  0  0  0  0  0
   48.2200   34.8710   39.3570 H   0  0  0  0  0  0  0  0  0  0  0  0
   48.2580   32.7200   39.4960 C   0  0  0  0  0  0  0  0  0  0  0  0
   49.2080   32.2630   38.6280 C   0  0  0  0  0  0  0  0  0  0  0  0
   49.6860   32.9860   37.9820 H   0  0  0  0  0  0  0  0  0  0  0  0
   49.4920   30.9200   38.6330 C   0  0  0  0  0  3  0  0  0  0  0  0
   48.8130   30.1100   39.5030 C   0  0  0  0  0  3  0  0  0  0  0  0
   47.6910   31.3340   40.3780 S   0  0  0  0  0  0  0  0  0  0  0  0
  1  4  1  6  0  0  0
  1  2  1  0  0  0  0
  1 10  1  0  0  0  0
  2  5  1  0  0  0  0
  3  1  1  0  0  0  0
  3  7  1  1  0  0  0
  3  2  1  0  0  0  0
  6  2  1  0  0  0  0
  8 14  1  0  0  0  0
  8 13  1  0  0  0  0
  9  8  2  0  0  0  0
 10  9  1  0  0  0  0
 10 11  2  0  0  0  0
 11 12  1  0  0  0  0
 12 13  2  0  0  0  0
 12 15  1  0  0  0  0
 16 17  1  0  0  0  0
 16  9  1  0  0  0  0
 18 16  1  0  0  0  0
 19  3  1  0  0  0  0
 20 19  1  0  0  0  0
 21 19  1  0  0  0  0
 22 19  1  0  0  0  0
 22 27  1  0  0  0  0
 23 25  1  0  0  0  0
 23 22  2  0  0  0  0
 24 23  1  0  0  0  0
 25 26  2  0  0  0  0
 26 27  1  0  0  0  0
M  END
>  <minimizedAffinity>
-4.38832903

>  <minimizedRMSD>
0.305188

$$$$
