
 OpenBabel03252506423D

 37 40  0  0  1  0  0  0  0  0999 V2000
   49.3010   33.2120   41.5080 N   0  0  1  0  0  0  0  0  0  0  0  0
   50.6620   33.1950   42.0560 C   0  0  0  0  0  0  0  0  0  0  0  0
   51.3620   31.9000   41.7850 C   0  0  0  0  0  0  0  0  0  0  0  0
   50.7070   30.8450   42.6570 C   0  0  0  0  0  0  0  0  0  0  0  0
   49.2300   31.0460   42.7080 C   0  0  0  0  0  0  0  0  0  0  0  0
   48.7640   31.8760   41.5180 C   0  0  2  0  0  0  0  0  0  0  0  0
   50.6030   33.3020   43.1740 H   0  0  0  0  0  0  0  0  0  0  0  0
   51.2220   34.0870   41.7020 H   0  0  0  0  0  0  0  0  0  0  0  0
   51.4250   31.6430   40.7280 H   0  0  0  0  0  0  0  0  0  0  0  0
   52.4050   32.0290   42.1400 H   0  0  0  0  0  0  0  0  0  0  0  0
   51.0900   30.9830   43.7060 H   0  0  0  0  0  0  0  0  0  0  0  0
   51.0360   29.8510   42.3410 H   0  0  0  0  0  0  0  0  0  0  0  0
   48.9230   31.6280   43.6000 H   0  0  0  0  0  0  0  0  0  0  0  0
   48.6670   30.0850   42.6270 H   0  0  0  0  0  0  0  0  0  0  0  0
   47.6720   31.9990   41.6940 H   0  0  0  0  0  0  0  0  0  0  0  0
   47.1530   34.5360   42.0340 C   0  0  1  0  0  0  0  0  0  0  0  0
   48.2600   35.4500   41.7130 C   0  0  0  0  0  0  0  0  0  0  0  0
   48.5660   34.1300   42.3140 C   0  0  2  0  0  0  0  0  0  0  0  0
   46.6770   34.0340   41.1690 H   0  0  0  0  0  0  0  0  0  0  0  0
   48.3660   36.3670   42.3410 H   0  0  0  0  0  0  0  0  0  0  0  0
   48.5200   35.6580   40.6380 H   0  0  0  0  0  0  0  0  0  0  0  0
   48.8590   34.1740   43.4030 H   0  0  0  0  0  0  0  0  0  0  0  0
   45.4890   36.0270   43.1890 C   0  0  0  0  0  0  0  0  0  0  0  0
   46.2540   34.8440   43.1780 C   0  0  0  0  0  0  0  0  0  0  0  0
   46.1310   33.9690   44.2700 C   0  0  0  0  0  0  0  0  0  0  0  0
   45.2850   34.3110   45.2770 N   0  0  0  0  0  0  0  0  0  0  0  0
   44.5620   35.4610   45.2530 C   0  0  0  0  0  0  0  0  0  0  0  0
   44.6600   36.3310   44.2050 N   0  0  0  0  0  0  0  0  0  0  0  0
   45.6280   36.6560   42.3210 H   0  0  0  0  0  0  0  0  0  0  0  0
   46.7070   33.0490   44.2920 H   0  0  0  0  0  0  0  0  0  0  0  0
   43.8890   35.7330   46.0510 H   0  0  0  0  0  0  0  0  0  0  0  0
   48.9360   31.1490   40.2550 C   0  0  0  0  0  0  0  0  0  0  0  0
   48.9020   29.8630   39.9500 C   0  0  0  0  0  0  0  0  0  0  0  0
   48.7180   29.1480   40.7370 H   0  0  0  0  0  0  0  0  0  0  0  0
   49.1010   29.4670   38.6570 C   0  0  0  0  0  3  0  0  0  0  0  0
   49.3300   30.4410   37.7070 C   0  0  0  0  0  3  0  0  0  0  0  0
   49.2740   32.0780   38.6680 S   0  0  0  0  0  0  0  0  0  0  0  0
  1  6  1  0  0  0  0
  1  2  1  1  0  0  0
  1 18  1  0  0  0  0
  2  7  1  0  0  0  0
  3  2  1  0  0  0  0
  3 10  1  0  0  0  0
  3  4  1  0  0  0  0
  4  5  1  0  0  0  0
  4 11  1  0  0  0  0
  5 13  1  0  0  0  0
  6 15  1  1  0  0  0
  6  5  1  0  0  0  0
  8  2  1  0  0  0  0
  9  3  1  0  0  0  0
 12  4  1  0  0  0  0
 14  5  1  0  0  0  0
 16 19  1  6  0  0  0
 16 18  1  0  0  0  0
 16 24  1  0  0  0  0
 17 16  1  0  0  0  0
 17 18  1  0  0  0  0
 17 20  1  0  0  0  0
 18 22  1  1  0  0  0
 21 17  1  0  0  0  0
 23 28  1  0  0  0  0
 24 23  2  0  0  0  0
 24 25  1  0  0  0  0
 25 30  1  0  0  0  0
 25 26  2  0  0  0  0
 27 26  1  0  0  0  0
 27 31  1  0  0  0  0
 28 27  2  0  0  0  0
 29 23  1  0  0  0  0
 32  6  1  0  0  0  0
 33 32  2  0  0  0  0
 33 34  1  0  0  0  0
 35 33  1  0  0  0  0
 36 35  2  0  0  0  0
 36 37  1  0  0  0  0
 37 32  1  0  0  0  0
M  END
>  <minimizedAffinity>
-4.67690134

>  <minimizedRMSD>
0.419240952

$$$$
