
 OpenBabel03252508143D

 34 37  0  0  1  0  0  0  0  0999 V2000
   47.0490   30.7940   46.7930 C   0  0  0  0  0  0  0  0  0  0  0  0
   46.2310   30.0380   46.7170 H   0  0  0  0  0  0  0  0  0  0  0  0
   48.0590   30.3460   46.7950 H   0  0  0  0  0  0  0  0  0  0  0  0
   46.8260   31.6290   48.0310 C   0  0  1  0  0  0  0  0  0  0  0  0
   46.2170   30.9330   49.1960 C   0  0  0  0  0  0  0  0  0  0  0  0
   47.6100   31.3320   49.2550 C   0  0  1  0  0  0  0  0  0  0  0  0
   46.6120   32.7010   47.8760 H   0  0  0  0  0  0  0  0  0  0  0  0
   46.0080   29.8410   49.0890 H   0  0  0  0  0  0  0  0  0  0  0  0
   45.4380   31.4490   49.8090 H   0  0  0  0  0  0  0  0  0  0  0  0
   47.8140   32.1920   49.9680 H   0  0  0  0  0  0  0  0  0  0  0  0
   48.7740   30.4240   49.1290 C   0  0  0  0  0  0  0  0  0  0  0  0
   49.6360   30.2810   50.4070 C   0  0  0  0  0  0  0  0  0  0  0  0
   50.1510   31.0940   49.2860 C   0  0  0  0  0  0  0  0  0  0  0  0
   48.7300   29.5320   48.4740 H   0  0  0  0  0  0  0  0  0  0  0  0
   50.0890   29.2860   50.5890 H   0  0  0  0  0  0  0  0  0  0  0  0
   49.2220   30.7260   51.3310 H   0  0  0  0  0  0  0  0  0  0  0  0
   50.1570   32.1960   49.4760 H   0  0  0  0  0  0  0  0  0  0  0  0
   50.9510   30.6660   48.6610 H   0  0  0  0  0  0  0  0  0  0  0  0
   46.3770   32.8040   45.7270 C   0  0  0  0  0  3  0  0  0  0  0  0
   46.9160   31.6600   45.5540 C   0  0  0  0  0  3  0  0  0  0  0  0
   45.2390   35.5330   43.5410 C   0  0  0  0  0  0  0  0  0  0  0  0
   45.8660   35.2630   42.3330 C   0  0  0  0  0  0  0  0  0  0  0  0
   46.6700   34.1660   42.3060 C   0  0  0  0  0  0  0  0  0  0  0  0
   46.8260   33.4020   43.4190 N   0  0  0  0  0  0  0  0  0  0  0  0
   46.2080   33.6810   44.5770 C   0  0  0  0  0  0  0  0  0  0  0  0
   45.4220   34.7540   44.6010 N   0  0  0  0  0  0  0  0  0  0  0  0
   44.6060   36.4100   43.5390 H   0  0  0  0  0  0  0  0  0  0  0  0
   45.8190   35.7850   41.4080 H   0  0  0  0  0  0  0  0  0  0  0  0
   47.4430   33.6780   41.1400 C   0  0  0  0  0  0  0  0  0  0  0  0
   47.5370   34.3260   39.8980 C   0  0  0  0  0  0  0  0  0  0  0  0
   47.0230   35.2580   39.7300 H   0  0  0  0  0  0  0  0  0  0  0  0
   48.2950   33.7220   38.9440 C   0  0  0  0  0  3  0  0  0  0  0  0
   48.9580   32.5210   39.1620 C   0  0  0  0  0  3  0  0  0  0  0  0
   48.4300   32.1980   40.9810 S   0  0  0  0  0  0  0  0  0  0  0  0
  1  3  1  0  0  0  0
  1  4  1  0  0  0  0
  2  1  1  0  0  0  0
  4  7  1  6  0  0  0
  4  5  1  0  0  0  0
  4  6  1  0  0  0  0
  5  6  1  0  0  0  0
  5  9  1  0  0  0  0
  6 10  1  1  0  0  0
  8  5  1  0  0  0  0
 11  6  1  0  0  0  0
 11 13  1  0  0  0  0
 11 12  1  0  0  0  0
 12 15  1  0  0  0  0
 12 16  1  0  0  0  0
 13 17  1  0  0  0  0
 13 12  1  0  0  0  0
 14 11  1  0  0  0  0
 18 13  1  0  0  0  0
 20 19  2  0  0  0  0
 20  1  1  0  0  0  0
 21 26  1  0  0  0  0
 22 21  2  0  0  0  0
 23 22  1  0  0  0  0
 23 24  2  0  0  0  0
 24 25  1  0  0  0  0
 25 26  2  0  0  0  0
 25 19  1  0  0  0  0
 27 21  1  0  0  0  0
 28 22  1  0  0  0  0
 29 23  1  0  0  0  0
 30 29  2  0  0  0  0
 31 30  1  0  0  0  0
 32 33  2  0  0  0  0
 32 30  1  0  0  0  0
 33 34  1  0  0  0  0
 34 29  1  0  0  0  0
M  END
>  <minimizedAffinity>
-4.7045393

>  <minimizedRMSD>
1.14234006

$$$$
