
 OpenBabel03252509243D

 24 26  0  0  1  0  0  0  0  0999 V2000
   46.6800   34.8340   41.9770 C   0  0  1  0  0  0  0  0  0  0  0  0
   48.1380   35.3610   42.0310 C   0  0  0  0  0  0  0  0  0  0  0  0
   47.7080   33.9150   41.6430 C   0  0  2  0  0  0  0  0  0  0  0  0
   46.0460   35.3810   41.2550 H   0  0  0  0  0  0  0  0  0  0  0  0
   48.4010   36.0120   41.1820 H   0  0  0  0  0  0  0  0  0  0  0  0
   48.6150   35.5290   42.9910 H   0  0  0  0  0  0  0  0  0  0  0  0
   48.0340   33.1840   42.4210 H   0  0  0  0  0  0  0  0  0  0  0  0
   44.5820   35.5300   45.0060 C   0  0  0  0  0  0  0  0  0  0  0  0
   45.1290   35.7010   43.6920 C   0  0  0  0  0  0  0  0  0  0  0  0
   46.0910   34.7780   43.3730 C   0  0  0  0  0  0  0  0  0  0  0  0
   46.4800   33.7860   44.2570 N   0  0  0  0  0  0  0  0  0  0  0  0
   45.9290   33.6800   45.4720 C   0  0  0  0  0  0  0  0  0  0  0  0
   44.9670   34.5630   45.8500 N   0  0  0  0  0  0  0  0  0  0  0  0
   43.8270   36.2180   45.3120 H   0  0  0  0  0  0  0  0  0  0  0  0
   46.3750   32.8430   45.9910 H   0  0  0  0  0  0  0  0  0  0  0  0
   44.7250   36.7370   42.8140 N   0  0  0  0  0  0  0  0  0  0  0  0
   45.1880   37.6170   43.1650 H   0  0  0  0  0  0  0  0  0  0  0  0
   44.0970   36.6780   41.9790 H   0  0  0  0  0  0  0  0  0  0  0  0
   47.8860   33.5100   40.2530 C   0  0  0  0  0  0  0  0  0  0  0  0
   47.3070   33.8550   39.0830 C   0  0  0  0  0  0  0  0  0  0  0  0
   46.5290   34.6000   39.1460 H   0  0  0  0  0  0  0  0  0  0  0  0
   47.7240   33.2630   37.9150 C   0  0  0  0  0  3  0  0  0  0  0  0
   48.7570   32.3080   38.0260 C   0  0  0  0  0  3  0  0  0  0  0  0
   49.1210   32.2720   39.8180 S   0  0  0  0  0  0  0  0  0  0  0  0
  1  4  1  6  0  0  0
  1  2  1  0  0  0  0
  1 10  1  0  0  0  0
  2  6  1  0  0  0  0
  3  1  1  0  0  0  0
  3  2  1  0  0  0  0
  3  7  1  1  0  0  0
  5  2  1  0  0  0  0
  8 14  1  0  0  0  0
  8 13  1  0  0  0  0
  9  8  2  0  0  0  0
 10  9  1  0  0  0  0
 10 11  2  0  0  0  0
 11 12  1  0  0  0  0
 12 13  2  0  0  0  0
 12 15  1  0  0  0  0
 16 17  1  0  0  0  0
 16  9  1  0  0  0  0
 18 16  1  0  0  0  0
 19  3  1  0  0  0  0
 20 21  1  0  0  0  0
 20 19  2  0  0  0  0
 22 23  2  0  0  0  0
 22 20  1  0  0  0  0
 23 24  1  0  0  0  0
 24 19  1  0  0  0  0
M  END
>  <minimizedAffinity>
-4.63901472

>  <minimizedRMSD>
0.51569593

$$$$
