
 OpenBabel03242516153D

 38 41  0  0  0  0  0  0  0  0999 V2000
   37.7700   27.7150   42.5900 C   0  0  0  0  0  0  0  0  0  0  0  0
   36.6060   27.3380   43.5240 C   0  0  0  0  0  0  0  0  0  0  0  0
   37.3270   28.5740   43.6800 C   0  0  0  0  0  0  0  0  0  0  0  0
   35.5910   27.3760   43.1270 H   0  0  0  0  0  0  0  0  0  0  0  0
   36.7770   26.4930   44.2130 H   0  0  0  0  0  0  0  0  0  0  0  0
   37.9150   28.7040   44.6240 H   0  0  0  0  0  0  0  0  0  0  0  0
   36.8950   29.5660   43.3690 H   0  0  0  0  0  0  0  0  0  0  0  0
   37.3360   27.9780   41.1940 C   0  0  0  0  0  0  0  0  0  0  0  0
   38.4160   28.5410   40.2710 C   0  0  0  0  0  0  0  0  0  0  0  0
   37.7500   28.5250   38.8780 C   0  0  0  0  0  0  0  0  0  0  0  0
   36.8610   29.5920   38.8660 O   0  0  0  0  0  0  0  0  0  0  0  0
   35.7820   29.1400   39.6750 C   0  0  0  0  0  0  0  0  0  0  0  0
   36.2460   29.0610   41.1270 C   0  0  0  0  0  0  0  0  0  0  0  0
   36.9290   27.0930   40.6390 H   0  0  0  0  0  0  0  0  0  0  0  0
   38.7150   29.5520   40.5380 H   0  0  0  0  0  0  0  0  0  0  0  0
   39.2630   27.8130   40.1530 H   0  0  0  0  0  0  0  0  0  0  0  0
   38.5200   28.6350   38.1040 H   0  0  0  0  0  0  0  0  0  0  0  0
   37.1770   27.6060   38.7270 H   0  0  0  0  0  0  0  0  0  0  0  0
   35.0130   29.9210   39.5980 H   0  0  0  0  0  0  0  0  0  0  0  0
   35.4940   28.1680   39.2710 H   0  0  0  0  0  0  0  0  0  0  0  0
   36.6960   30.0320   41.3930 H   0  0  0  0  0  0  0  0  0  0  0  0
   35.3630   28.7740   41.7250 H   0  0  0  0  0  0  0  0  0  0  0  0
   40.0890   27.3640   43.5390 C   0  0  0  0  0  0  0  0  0  0  0  0
   39.0150   26.8880   42.7650 C   0  0  0  0  0  0  0  0  0  0  0  0
   39.1610   25.6300   42.1630 C   0  0  0  0  0  0  0  0  0  0  0  0
   40.3250   24.9510   42.3640 N   0  0  0  0  0  0  0  0  0  0  0  0
   41.3090   25.4490   43.1060 C   0  0  0  0  0  0  0  0  0  0  0  0
   41.1980   26.6210   43.6790 N   0  0  0  0  0  0  0  0  0  0  0  0
   42.5040   24.7190   43.3010 N   0  0  0  0  0  0  0  0  0  0  0  0
   39.9520   28.3260   43.9870 H   0  0  0  0  0  0  0  0  0  0  0  0
   42.7910   24.6190   44.3080 H   0  0  0  0  0  0  0  0  0  0  0  0
   42.9620   24.3660   42.4180 H   0  0  0  0  0  0  0  0  0  0  0  0
   38.1580   24.9390   41.3800 C   0  0  0  0  0  0  0  0  0  0  0  0
   36.9300   24.3150   41.5530 C   0  0  0  0  0  0  0  0  0  0  0  0
   36.4730   24.2690   42.5040 H   0  0  0  0  0  0  0  0  0  0  0  0
   36.2960   23.7320   40.5330 C   0  0  0  0  0  3  0  0  0  0  0  0
   36.8720   23.7350   39.2140 C   0  0  0  0  0  3  0  0  0  0  0  0
   38.4180   24.6590   39.5880 S   0  0  0  0  0  0  0  0  0  0  0  0
  1 24  1  0  0  0  0
  1  2  1  0  0  0  0
  1  3  1  0  0  0  0
  2  3  1  0  0  0  0
  2  5  1  0  0  0  0
  3  6  1  0  0  0  0
  4  2  1  0  0  0  0
  7  3  1  0  0  0  0
  8  1  1  0  0  0  0
  9 15  1  0  0  0  0
  9  8  1  0  0  0  0
 10  9  1  0  0  0  0
 11 10  1  0  0  0  0
 11 12  1  0  0  0  0
 12 13  1  0  0  0  0
 13  8  1  0  0  0  0
 13 21  1  0  0  0  0
 13 22  1  0  0  0  0
 14  8  1  0  0  0  0
 16  9  1  0  0  0  0
 17 10  1  0  0  0  0
 18 10  1  0  0  0  0
 19 12  1  0  0  0  0
 20 12  1  0  0  0  0
 23 28  1  0  0  0  0
 23 30  1  0  0  0  0
 24 23  2  0  0  0  0
 25 26  2  0  0  0  0
 25 24  1  0  0  0  0
 26 27  1  0  0  0  0
 27 29  1  0  0  0  0
 27 28  2  0  0  0  0
 29 31  1  0  0  0  0
 32 29  1  0  0  0  0
 33 34  2  0  0  0  0
 33 25  1  0  0  0  0
 34 35  1  0  0  0  0
 36 34  1  0  0  0  0
 37 38  1  0  0  0  0
 37 36  2  0  0  0  0
 38 33  1  0  0  0  0
M  END
>  <minimizedAffinity>
-5.6985445

$$$$

 OpenBabel03242516153D

 38 41  0  0  0  0  0  0  0  0999 V2000
   37.3270   27.7220   42.2470 C   0  0  0  0  0  0  0  0  0  0  0  0
   37.8810   27.6150   43.6790 C   0  0  0  0  0  0  0  0  0  0  0  0
   36.4870   27.4030   43.3940 C   0  0  0  0  0  0  0  0  0  0  0  0
   38.4970   26.7510   43.9330 H   0  0  0  0  0  0  0  0  0  0  0  0
   38.2260   28.5520   44.1490 H   0  0  0  0  0  0  0  0  0  0  0  0
   35.7610   28.1340   43.8330 H   0  0  0  0  0  0  0  0  0  0  0  0
   36.0240   26.3770   43.3840 H   0  0  0  0  0  0  0  0  0  0  0  0
   37.8220   26.6470   41.3490 C   0  0  0  0  0  0  0  0  0  0  0  0
   37.4840   26.8280   39.8700 C   0  0  0  0  0  0  0  0  0  0  0  0
   38.2740   25.6980   39.1740 C   0  0  0  0  0  0  0  0  0  0  0  0
   37.5720   24.5270   39.4270 O   0  0  0  0  0  0  0  0  0  0  0  0
   37.8630   24.2470   40.7910 C   0  0  0  0  0  0  0  0  0  0  0  0
   37.1780   25.2880   41.6720 C   0  0  0  0  0  0  0  0  0  0  0  0
   38.9300   26.4770   41.3630 H   0  0  0  0  0  0  0  0  0  0  0  0
   36.4210   26.7310   39.6640 H   0  0  0  0  0  0  0  0  0  0  0  0
   37.9620   27.7580   39.4590 H   0  0  0  0  0  0  0  0  0  0  0  0
   38.3370   25.9050   38.0990 H   0  0  0  0  0  0  0  0  0  0  0  0
   39.2730   25.5930   39.6070 H   0  0  0  0  0  0  0  0  0  0  0  0
   37.4080   23.2690   40.9910 H   0  0  0  0  0  0  0  0  0  0  0  0
   38.9510   24.2750   40.8740 H   0  0  0  0  0  0  0  0  0  0  0  0
   36.1130   25.3250   41.3870 H   0  0  0  0  0  0  0  0  0  0  0  0
   37.3730   24.9940   42.7180 H   0  0  0  0  0  0  0  0  0  0  0  0
   36.0770   29.7590   41.4170 C   0  0  0  0  0  0  0  0  0  0  0  0
   37.3000   29.1160   41.6810 C   0  0  0  0  0  0  0  0  0  0  0  0
   38.4760   29.8190   41.3860 C   0  0  0  0  0  0  0  0  0  0  0  0
   38.3630   31.0740   40.8660 N   0  0  0  0  0  0  0  0  0  0  0  0
   37.1810   31.6340   40.6360 C   0  0  0  0  0  0  0  0  0  0  0  0
   36.0670   30.9990   40.9030 N   0  0  0  0  0  0  0  0  0  0  0  0
   37.0930   32.9400   40.1000 N   0  0  0  0  0  0  0  0  0  0  0  0
   35.1950   29.2000   41.6510 H   0  0  0  0  0  0  0  0  0  0  0  0
   36.4680   33.5890   40.6410 H   0  0  0  0  0  0  0  0  0  0  0  0
   37.6630   33.1030   39.2260 H   0  0  0  0  0  0  0  0  0  0  0  0
   39.8280   29.3620   41.6350 C   0  0  0  0  0  0  0  0  0  0  0  0
   40.7410   29.2880   42.6790 C   0  0  0  0  0  0  0  0  0  0  0  0
   40.4910   29.6330   43.6450 H   0  0  0  0  0  0  0  0  0  0  0  0
   41.9700   28.8040   42.4940 C   0  0  0  0  0  3  0  0  0  0  0  0
   42.3880   28.3400   41.1970 C   0  0  0  0  0  3  0  0  0  0  0  0
   40.8350   28.6720   40.2700 S   0  0  0  0  0  0  0  0  0  0  0  0
  1  3  1  0  0  0  0
  1  2  1  0  0  0  0
  2  4  1  0  0  0  0
  2  5  1  0  0  0  0
  3  2  1  0  0  0  0
  3  6  1  0  0  0  0
  7  3  1  0  0  0  0
  8 14  1  0  0  0  0
  8 13  1  0  0  0  0
  8  1  1  0  0  0  0
  9  8  1  0  0  0  0
 10 11  1  0  0  0  0
 10 18  1  0  0  0  0
 10  9  1  0  0  0  0
 11 12  1  0  0  0  0
 12 20  1  0  0  0  0
 12 19  1  0  0  0  0
 12 13  1  0  0  0  0
 13 22  1  0  0  0  0
 15  9  1  0  0  0  0
 16  9  1  0  0  0  0
 17 10  1  0  0  0  0
 21 13  1  0  0  0  0
 23 30  1  0  0  0  0
 23 24  1  0  0  0  0
 24  1  1  0  0  0  0
 25 33  1  0  0  0  0
 25 24  2  0  0  0  0
 26 25  1  0  0  0  0
 27 26  2  0  0  0  0
 27 28  1  0  0  0  0
 28 23  2  0  0  0  0
 29 27  1  0  0  0  0
 29 31  1  0  0  0  0
 32 29  1  0  0  0  0
 33 34  2  0  0  0  0
 34 35  1  0  0  0  0
 36 34  1  0  0  0  0
 37 36  2  0  0  0  0
 38 37  1  0  0  0  0
 38 33  1  0  0  0  0
M  END
>  <minimizedAffinity>
-5.40967178

$$$$

 OpenBabel03242516153D

 38 41  0  0  0  0  0  0  0  0999 V2000
   37.9100   27.9170   42.4070 C   0  0  0  0  0  0  0  0  0  0  0  0
   37.0460   27.9590   43.6800 C   0  0  0  0  0  0  0  0  0  0  0  0
   36.4610   27.7730   42.3790 C   0  0  0  0  0  0  0  0  0  0  0  0
   37.0830   27.1070   44.3590 H   0  0  0  0  0  0  0  0  0  0  0  0
   36.9750   28.9300   44.1990 H   0  0  0  0  0  0  0  0  0  0  0  0
   35.7800   28.5820   42.0070 H   0  0  0  0  0  0  0  0  0  0  0  0
   36.0800   26.7740   42.0270 H   0  0  0  0  0  0  0  0  0  0  0  0
   38.7900   26.7220   42.3390 C   0  0  0  0  0  0  0  0  0  0  0  0
   38.0700   25.3950   42.1050 C   0  0  0  0  0  0  0  0  0  0  0  0
   39.2210   24.3890   41.8860 C   0  0  0  0  0  0  0  0  0  0  0  0
   39.7560   24.1400   43.1430 O   0  0  0  0  0  0  0  0  0  0  0  0
   40.4950   25.3200   43.4350 C   0  0  0  0  0  0  0  0  0  0  0  0
   39.5210   26.4720   43.6680 C   0  0  0  0  0  0  0  0  0  0  0  0
   39.5850   26.7520   41.5480 H   0  0  0  0  0  0  0  0  0  0  0  0
   37.4560   25.0920   42.9500 H   0  0  0  0  0  0  0  0  0  0  0  0
   37.5420   25.3930   41.1130 H   0  0  0  0  0  0  0  0  0  0  0  0
   38.8240   23.4740   41.4290 H   0  0  0  0  0  0  0  0  0  0  0  0
   40.0080   24.8220   41.2630 H   0  0  0  0  0  0  0  0  0  0  0  0
   41.0180   25.1110   44.3770 H   0  0  0  0  0  0  0  0  0  0  0  0
   41.1440   25.4850   42.5730 H   0  0  0  0  0  0  0  0  0  0  0  0
   38.7840   26.1460   44.4210 H   0  0  0  0  0  0  0  0  0  0  0  0
   40.1310   27.3460   43.9580 H   0  0  0  0  0  0  0  0  0  0  0  0
   39.2260   30.0060   42.9600 C   0  0  0  0  0  0  0  0  0  0  0  0
   38.5260   29.2320   42.0150 C   0  0  0  0  0  0  0  0  0  0  0  0
   38.4230   29.7420   40.7130 C   0  0  0  0  0  0  0  0  0  0  0  0
   39.0010   30.9460   40.4440 N   0  0  0  0  0  0  0  0  0  0  0  0
   39.6510   31.6350   41.3760 C   0  0  0  0  0  0  0  0  0  0  0  0
   39.7630   31.1820   42.5990 N   0  0  0  0  0  0  0  0  0  0  0  0
   40.2470   32.8800   41.0670 N   0  0  0  0  0  0  0  0  0  0  0  0
   39.2900   29.5940   43.9450 H   0  0  0  0  0  0  0  0  0  0  0  0
   41.2550   32.9610   41.3550 H   0  0  0  0  0  0  0  0  0  0  0  0
   39.6110   33.5740   40.5880 H   0  0  0  0  0  0  0  0  0  0  0  0
   37.7990   29.0800   39.5870 C   0  0  0  0  0  0  0  0  0  0  0  0
   37.9700   27.9480   38.8010 C   0  0  0  0  0  0  0  0  0  0  0  0
   38.7630   27.2740   38.9840 H   0  0  0  0  0  0  0  0  0  0  0  0
   37.1600   27.6840   37.7740 C   0  0  0  0  0  3  0  0  0  0  0  0
   36.0740   28.5720   37.4500 C   0  0  0  0  0  3  0  0  0  0  0  0
   36.3380   29.8260   38.7710 S   0  0  0  0  0  0  0  0  0  0  0  0
  1  2  1  0  0  0  0
  2  5  1  0  0  0  0
  2  4  1  0  0  0  0
  3  1  1  0  0  0  0
  3  2  1  0  0  0  0
  6  3  1  0  0  0  0
  7  3  1  0  0  0  0
  8  1  1  0  0  0  0
  8 13  1  0  0  0  0
  9  8  1  0  0  0  0
  9 15  1  0  0  0  0
 10  9  1  0  0  0  0
 10 11  1  0  0  0  0
 11 12  1  0  0  0  0
 12 13  1  0  0  0  0
 12 19  1  0  0  0  0
 13 22  1  0  0  0  0
 13 21  1  0  0  0  0
 14  8  1  0  0  0  0
 16  9  1  0  0  0  0
 17 10  1  0  0  0  0
 18 10  1  0  0  0  0
 20 12  1  0  0  0  0
 23 30  1  0  0  0  0
 24  1  1  0  0  0  0
 24 23  2  0  0  0  0
 25 24  1  0  0  0  0
 26 25  2  0  0  0  0
 26 27  1  0  0  0  0
 27 28  2  0  0  0  0
 28 23  1  0  0  0  0
 29 31  1  0  0  0  0
 29 27  1  0  0  0  0
 32 29  1  0  0  0  0
 33 25  1  0  0  0  0
 34 35  1  0  0  0  0
 34 33  2  0  0  0  0
 36 34  1  0  0  0  0
 37 36  2  0  0  0  0
 37 38  1  0  0  0  0
 38 33  1  0  0  0  0
M  END
>  <minimizedAffinity>
-5.36608887

$$$$

 OpenBabel03242516153D

 38 41  0  0  0  0  0  0  0  0999 V2000
   37.7980   27.8910   42.1980 C   0  0  0  0  0  0  0  0  0  0  0  0
   37.8500   27.4810   43.6800 C   0  0  0  0  0  0  0  0  0  0  0  0
   36.6000   27.6740   42.9960 C   0  0  0  0  0  0  0  0  0  0  0  0
   38.1570   26.4630   43.9260 H   0  0  0  0  0  0  0  0  0  0  0  0
   38.2290   28.2360   44.3900 H   0  0  0  0  0  0  0  0  0  0  0  0
   35.9500   28.5140   43.3510 H   0  0  0  0  0  0  0  0  0  0  0  0
   35.9520   26.8120   42.6720 H   0  0  0  0  0  0  0  0  0  0  0  0
   38.3000   26.8330   41.2820 C   0  0  0  0  0  0  0  0  0  0  0  0
   39.3050   27.3040   40.2320 C   0  0  0  0  0  0  0  0  0  0  0  0
   39.7870   25.9930   39.5750 C   0  0  0  0  0  0  0  0  0  0  0  0
   38.7580   25.5830   38.7380 O   0  0  0  0  0  0  0  0  0  0  0  0
   37.7750   25.0780   39.6340 C   0  0  0  0  0  0  0  0  0  0  0  0
   37.1730   26.2400   40.4200 C   0  0  0  0  0  0  0  0  0  0  0  0
   38.8030   25.9630   41.7790 H   0  0  0  0  0  0  0  0  0  0  0  0
   38.8620   27.9620   39.4880 H   0  0  0  0  0  0  0  0  0  0  0  0
   40.2380   27.7000   40.7170 H   0  0  0  0  0  0  0  0  0  0  0  0
   40.7100   26.1840   39.0130 H   0  0  0  0  0  0  0  0  0  0  0  0
   39.9440   25.2120   40.3240 H   0  0  0  0  0  0  0  0  0  0  0  0
   36.9920   24.6480   38.9960 H   0  0  0  0  0  0  0  0  0  0  0  0
   38.2960   24.3620   40.2720 H   0  0  0  0  0  0  0  0  0  0  0  0
   36.8430   27.0040   39.6960 H   0  0  0  0  0  0  0  0  0  0  0  0
   36.3730   25.8130   41.0490 H   0  0  0  0  0  0  0  0  0  0  0  0
   39.3560   29.8460   42.5840 C   0  0  0  0  0  0  0  0  0  0  0  0
   38.2480   29.2980   41.9130 C   0  0  0  0  0  0  0  0  0  0  0  0
   37.5840   30.1160   40.9880 C   0  0  0  0  0  0  0  0  0  0  0  0
   38.0500   31.3820   40.7960 N   0  0  0  0  0  0  0  0  0  0  0  0
   39.1030   31.8490   41.4580 C   0  0  0  0  0  0  0  0  0  0  0  0
   39.7410   31.1070   42.3270 N   0  0  0  0  0  0  0  0  0  0  0  0
   39.5680   33.1670   41.2360 N   0  0  0  0  0  0  0  0  0  0  0  0
   39.8450   29.2020   43.2850 H   0  0  0  0  0  0  0  0  0  0  0  0
   40.5970   33.2330   41.0300 H   0  0  0  0  0  0  0  0  0  0  0  0
   38.8300   33.9190   41.3030 H   0  0  0  0  0  0  0  0  0  0  0  0
   36.4650   29.7270   40.1560 C   0  0  0  0  0  0  0  0  0  0  0  0
   35.1150   29.4230   40.2780 C   0  0  0  0  0  0  0  0  0  0  0  0
   34.6330   29.4560   41.2170 H   0  0  0  0  0  0  0  0  0  0  0  0
   34.3870   29.0540   39.2220 C   0  0  0  0  0  3  0  0  0  0  0  0
   34.9840   28.9620   37.9160 C   0  0  0  0  0  3  0  0  0  0  0  0
   36.6990   29.4570   38.3590 S   0  0  0  0  0  0  0  0  0  0  0  0
  1  3  1  0  0  0  0
  1  2  1  0  0  0  0
  2  4  1  0  0  0  0
  2  5  1  0  0  0  0
  3  6  1  0  0  0  0
  3  2  1  0  0  0  0
  7  3  1  0  0  0  0
  8 14  1  0  0  0  0
  8  1  1  0  0  0  0
  9 16  1  0  0  0  0
  9  8  1  0  0  0  0
 10  9  1  0  0  0  0
 10 18  1  0  0  0  0
 11 10  1  0  0  0  0
 11 12  1  0  0  0  0
 12 20  1  0  0  0  0
 12 13  1  0  0  0  0
 13 22  1  0  0  0  0
 13  8  1  0  0  0  0
 15  9  1  0  0  0  0
 17 10  1  0  0  0  0
 19 12  1  0  0  0  0
 21 13  1  0  0  0  0
 23 30  1  0  0  0  0
 24  1  1  0  0  0  0
 24 23  2  0  0  0  0
 25 24  1  0  0  0  0
 26 25  2  0  0  0  0
 26 27  1  0  0  0  0
 27 28  2  0  0  0  0
 28 23  1  0  0  0  0
 29 32  1  0  0  0  0
 29 27  1  0  0  0  0
 31 29  1  0  0  0  0
 33 34  2  0  0  0  0
 33 25  1  0  0  0  0
 34 35  1  0  0  0  0
 36 34  1  0  0  0  0
 37 38  1  0  0  0  0
 37 36  2  0  0  0  0
 38 33  1  0  0  0  0
M  END
>  <minimizedAffinity>
-5.16504478

$$$$

 OpenBabel03242516153D

 38 41  0  0  0  0  0  0  0  0999 V2000
   37.4180   27.4120   42.5620 C   0  0  0  0  0  0  0  0  0  0  0  0
   36.4220   27.0570   43.6800 C   0  0  0  0  0  0  0  0  0  0  0  0
   37.0080   28.3680   43.5820 C   0  0  0  0  0  0  0  0  0  0  0  0
   35.3700   26.9380   43.4180 H   0  0  0  0  0  0  0  0  0  0  0  0
   36.7680   26.3390   44.4430 H   0  0  0  0  0  0  0  0  0  0  0  0
   37.6830   28.6870   44.4170 H   0  0  0  0  0  0  0  0  0  0  0  0
   36.4310   29.2580   43.2070 H   0  0  0  0  0  0  0  0  0  0  0  0
   36.7970   27.4330   41.2120 C   0  0  0  0  0  0  0  0  0  0  0  0
   37.5840   26.7080   40.1220 C   0  0  0  0  0  0  0  0  0  0  0  0
   36.6280   26.7220   38.9100 C   0  0  0  0  0  0  0  0  0  0  0  0
   36.6720   28.0140   38.4020 O   0  0  0  0  0  0  0  0  0  0  0  0
   35.9160   28.7710   39.3400 C   0  0  0  0  0  0  0  0  0  0  0  0
   36.6920   28.8610   40.6510 C   0  0  0  0  0  0  0  0  0  0  0  0
   35.7650   26.9970   41.1480 H   0  0  0  0  0  0  0  0  0  0  0  0
   38.5190   27.2040   39.8750 H   0  0  0  0  0  0  0  0  0  0  0  0
   37.6780   25.6120   40.3550 H   0  0  0  0  0  0  0  0  0  0  0  0
   36.9650   25.9870   38.1690 H   0  0  0  0  0  0  0  0  0  0  0  0
   35.5990   26.5160   39.2190 H   0  0  0  0  0  0  0  0  0  0  0  0
   35.8430   29.7780   38.9100 H   0  0  0  0  0  0  0  0  0  0  0  0
   34.9650   28.2450   39.4480 H   0  0  0  0  0  0  0  0  0  0  0  0
   37.7070   29.2240   40.4200 H   0  0  0  0  0  0  0  0  0  0  0  0
   36.1030   29.5100   41.3220 H   0  0  0  0  0  0  0  0  0  0  0  0
   38.8600   25.3760   42.9800 C   0  0  0  0  0  0  0  0  0  0  0  0
   38.7620   26.7460   42.6760 C   0  0  0  0  0  0  0  0  0  0  0  0
   39.9590   27.4550   42.4970 C   0  0  0  0  0  0  0  0  0  0  0  0
   41.1340   26.7780   42.6280 N   0  0  0  0  0  0  0  0  0  0  0  0
   41.1680   25.4810   42.9160 C   0  0  0  0  0  0  0  0  0  0  0  0
   40.0660   24.7960   43.0870 N   0  0  0  0  0  0  0  0  0  0  0  0
   42.4030   24.8030   43.0410 N   0  0  0  0  0  0  0  0  0  0  0  0
   37.9330   24.8590   43.1110 H   0  0  0  0  0  0  0  0  0  0  0  0
   42.4730   23.9230   42.4690 H   0  0  0  0  0  0  0  0  0  0  0  0
   43.1010   25.2600   43.6890 H   0  0  0  0  0  0  0  0  0  0  0  0
   40.0750   28.8490   42.1250 C   0  0  0  0  0  0  0  0  0  0  0  0
   39.9370   30.1080   42.6950 C   0  0  0  0  0  0  0  0  0  0  0  0
   39.6740   30.2190   43.7130 H   0  0  0  0  0  0  0  0  0  0  0  0
   40.1040   31.2200   41.9770 C   0  0  0  0  0  3  0  0  0  0  0  0
   40.4380   31.1450   40.5780 C   0  0  0  0  0  3  0  0  0  0  0  0
   40.4840   29.3140   40.4020 S   0  0  0  0  0  0  0  0  0  0  0  0
  1 24  1  0  0  0  0
  1  3  1  0  0  0  0
  1  2  1  0  0  0  0
  2  5  1  0  0  0  0
  3  2  1  0  0  0  0
  3  6  1  0  0  0  0
  4  2  1  0  0  0  0
  7  3  1  0  0  0  0
  8  1  1  0  0  0  0
  9 16  1  0  0  0  0
  9  8  1  0  0  0  0
 10 18  1  0  0  0  0
 10  9  1  0  0  0  0
 11 10  1  0  0  0  0
 11 12  1  0  0  0  0
 12 20  1  0  0  0  0
 12 13  1  0  0  0  0
 13  8  1  0  0  0  0
 13 22  1  0  0  0  0
 14  8  1  0  0  0  0
 15  9  1  0  0  0  0
 17 10  1  0  0  0  0
 19 12  1  0  0  0  0
 21 13  1  0  0  0  0
 23 28  1  0  0  0  0
 23 30  1  0  0  0  0
 24 23  2  0  0  0  0
 25 26  2  0  0  0  0
 25 24  1  0  0  0  0
 26 27  1  0  0  0  0
 27 29  1  0  0  0  0
 27 28  2  0  0  0  0
 29 32  1  0  0  0  0
 31 29  1  0  0  0  0
 33 25  1  0  0  0  0
 33 34  2  0  0  0  0
 34 35  1  0  0  0  0
 36 34  1  0  0  0  0
 37 36  2  0  0  0  0
 38 37  1  0  0  0  0
 38 33  1  0  0  0  0
M  END
>  <minimizedAffinity>
-5.11429214

$$$$

 OpenBabel03242516153D

 38 41  0  0  0  0  0  0  0  0999 V2000
   36.3470   28.9380   40.0410 C   0  0  0  0  0  0  0  0  0  0  0  0
   35.6490   30.1640   40.6550 C   0  0  0  0  0  0  0  0  0  0  0  0
   34.9840   28.8930   40.5520 C   0  0  0  0  0  0  0  0  0  0  0  0
   35.9700   30.5040   41.6410 H   0  0  0  0  0  0  0  0  0  0  0  0
   35.4000   30.9900   39.9670 H   0  0  0  0  0  0  0  0  0  0  0  0
   34.0880   28.8400   39.8810 H   0  0  0  0  0  0  0  0  0  0  0  0
   34.8230   28.2240   41.4430 H   0  0  0  0  0  0  0  0  0  0  0  0
   37.4800   28.4400   40.8630 C   0  0  0  0  0  0  0  0  0  0  0  0
   38.6140   27.7820   40.0780 C   0  0  0  0  0  0  0  0  0  0  0  0
   39.7090   27.5510   41.1420 C   0  0  0  0  0  0  0  0  0  0  0  0
   39.2890   26.4600   41.8920 O   0  0  0  0  0  0  0  0  0  0  0  0
   38.2460   26.9900   42.7020 C   0  0  0  0  0  0  0  0  0  0  0  0
   37.0450   27.3170   41.8190 C   0  0  0  0  0  0  0  0  0  0  0  0
   37.9910   29.2090   41.4990 H   0  0  0  0  0  0  0  0  0  0  0  0
   38.3210   26.8390   39.6220 H   0  0  0  0  0  0  0  0  0  0  0  0
   39.0960   28.5160   39.3770 H   0  0  0  0  0  0  0  0  0  0  0  0
   40.6660   27.3520   40.6440 H   0  0  0  0  0  0  0  0  0  0  0  0
   39.7920   28.4100   41.8120 H   0  0  0  0  0  0  0  0  0  0  0  0
   37.9650   26.1770   43.3840 H   0  0  0  0  0  0  0  0  0  0  0  0
   38.6660   27.8730   43.1860 H   0  0  0  0  0  0  0  0  0  0  0  0
   36.8070   26.4190   41.2250 H   0  0  0  0  0  0  0  0  0  0  0  0
   36.2410   27.6580   42.4940 H   0  0  0  0  0  0  0  0  0  0  0  0
   36.1510   27.9730   37.7110 C   0  0  0  0  0  0  0  0  0  0  0  0
   36.5730   29.0160   38.5560 C   0  0  0  0  0  0  0  0  0  0  0  0
   37.2140   30.1110   37.9590 C   0  0  0  0  0  0  0  0  0  0  0  0
   37.3890   30.0980   36.6080 N   0  0  0  0  0  0  0  0  0  0  0  0
   36.9700   29.0850   35.8570 C   0  0  0  0  0  0  0  0  0  0  0  0
   36.3680   28.0510   36.3880 N   0  0  0  0  0  0  0  0  0  0  0  0
   37.1600   29.1010   34.4550 N   0  0  0  0  0  0  0  0  0  0  0  0
   35.6650   27.1500   38.1910 H   0  0  0  0  0  0  0  0  0  0  0  0
   36.2890   28.9070   33.8980 H   0  0  0  0  0  0  0  0  0  0  0  0
   38.1470   29.3030   34.1400 H   0  0  0  0  0  0  0  0  0  0  0  0
   37.6700   31.3050   38.6400 C   0  0  0  0  0  0  0  0  0  0  0  0
   37.2030   32.5670   38.9830 C   0  0  0  0  0  0  0  0  0  0  0  0
   36.2220   32.8700   38.7330 H   0  0  0  0  0  0  0  0  0  0  0  0
   37.9800   33.4480   39.6160 C   0  0  0  0  0  3  0  0  0  0  0  0
   39.3360   33.1120   39.9640 C   0  0  0  0  0  3  0  0  0  0  0  0
   39.3800   31.4020   39.2890 S   0  0  0  0  0  0  0  0  0  0  0  0
  1  3  1  0  0  0  0
  1  2  1  0  0  0  0
  1  8  1  0  0  0  0
  2  4  1  0  0  0  0
  3  2  1  0  0  0  0
  3  7  1  0  0  0  0
  5  2  1  0  0  0  0
  6  3  1  0  0  0  0
  8 14  1  0  0  0  0
  8 13  1  0  0  0  0
  9  8  1  0  0  0  0
  9 10  1  0  0  0  0
 10 18  1  0  0  0  0
 10 11  1  0  0  0  0
 11 12  1  0  0  0  0
 12 20  1  0  0  0  0
 12 19  1  0  0  0  0
 13 22  1  0  0  0  0
 13 12  1  0  0  0  0
 15  9  1  0  0  0  0
 16  9  1  0  0  0  0
 17 10  1  0  0  0  0
 21 13  1  0  0  0  0
 23 30  1  0  0  0  0
 23 24  1  0  0  0  0
 24  1  1  0  0  0  0
 25 24  2  0  0  0  0
 25 33  1  0  0  0  0
 26 25  1  0  0  0  0
 27 28  1  0  0  0  0
 27 26  2  0  0  0  0
 28 23  2  0  0  0  0
 29 27  1  0  0  0  0
 31 29  1  0  0  0  0
 32 29  1  0  0  0  0
 33 34  2  0  0  0  0
 33 38  1  0  0  0  0
 34 36  1  0  0  0  0
 35 34  1  0  0  0  0
 36 37  2  0  0  0  0
 38 37  1  0  0  0  0
M  END
>  <minimizedAffinity>
-5.01985121

$$$$

 OpenBabel03242516153D

 38 41  0  0  0  0  0  0  0  0999 V2000
   35.5240   28.9480   38.9890 C   0  0  0  0  0  0  0  0  0  0  0  0
   34.0470   28.9690   38.5570 C   0  0  0  0  0  0  0  0  0  0  0  0
   34.4290   29.0700   39.9410 C   0  0  0  0  0  0  0  0  0  0  0  0
   33.6660   29.8610   38.0570 H   0  0  0  0  0  0  0  0  0  0  0  0
   33.6360   28.0300   38.1510 H   0  0  0  0  0  0  0  0  0  0  0  0
   34.1190   28.2310   40.6160 H   0  0  0  0  0  0  0  0  0  0  0  0
   34.3860   30.0410   40.5080 H   0  0  0  0  0  0  0  0  0  0  0  0
   36.2780   30.1500   38.5450 C   0  0  0  0  0  0  0  0  0  0  0  0
   37.6570   29.8700   37.9500 C   0  0  0  0  0  0  0  0  0  0  0  0
   38.1080   31.2440   37.4110 C   0  0  0  0  0  0  0  0  0  0  0  0
   38.4850   31.9870   38.5220 O   0  0  0  0  0  0  0  0  0  0  0  0
   37.2470   32.3380   39.1290 C   0  0  0  0  0  0  0  0  0  0  0  0
   36.6080   31.0850   39.7200 C   0  0  0  0  0  0  0  0  0  0  0  0
   35.7660   30.7850   37.7760 H   0  0  0  0  0  0  0  0  0  0  0  0
   38.3670   29.4980   38.6850 H   0  0  0  0  0  0  0  0  0  0  0  0
   37.5740   29.2490   37.0180 H   0  0  0  0  0  0  0  0  0  0  0  0
   38.9450   31.1080   36.7160 H   0  0  0  0  0  0  0  0  0  0  0  0
   37.2800   31.7650   36.9220 H   0  0  0  0  0  0  0  0  0  0  0  0
   37.5090   33.0160   39.9520 H   0  0  0  0  0  0  0  0  0  0  0  0
   36.6450   32.7860   38.3370 H   0  0  0  0  0  0  0  0  0  0  0  0
   37.3570   30.5940   40.3640 H   0  0  0  0  0  0  0  0  0  0  0  0
   35.6900   31.4140   40.2370 H   0  0  0  0  0  0  0  0  0  0  0  0
   36.0890   26.8910   37.6290 C   0  0  0  0  0  0  0  0  0  0  0  0
   36.2130   27.6210   38.8250 C   0  0  0  0  0  0  0  0  0  0  0  0
   36.9900   27.0580   39.8480 C   0  0  0  0  0  0  0  0  0  0  0  0
   37.5720   25.8460   39.6220 N   0  0  0  0  0  0  0  0  0  0  0  0
   37.4210   25.1990   38.4710 C   0  0  0  0  0  0  0  0  0  0  0  0
   36.7020   25.7030   37.5000 N   0  0  0  0  0  0  0  0  0  0  0  0
   38.0410   23.9450   38.2630 N   0  0  0  0  0  0  0  0  0  0  0  0
   35.4910   27.3430   36.8650 H   0  0  0  0  0  0  0  0  0  0  0  0
   38.6000   23.8820   37.3740 H   0  0  0  0  0  0  0  0  0  0  0  0
   37.8680   23.2290   39.0190 H   0  0  0  0  0  0  0  0  0  0  0  0
   37.2890   27.6690   41.1260 C   0  0  0  0  0  0  0  0  0  0  0  0
   36.7090   27.8370   42.3760 C   0  0  0  0  0  0  0  0  0  0  0  0
   35.7570   27.4330   42.5930 H   0  0  0  0  0  0  0  0  0  0  0  0
   37.3190   28.5320   43.3390 C   0  0  0  0  0  3  0  0  0  0  0  0
   38.6070   29.1310   43.1060 C   0  0  0  0  0  3  0  0  0  0  0  0
   38.8510   28.5960   41.3630 S   0  0  0  0  0  0  0  0  0  0  0  0
  1  3  1  0  0  0  0
  2  1  1  0  0  0  0
  2  3  1  0  0  0  0
  3  7  1  0  0  0  0
  3  6  1  0  0  0  0
  4  2  1  0  0  0  0
  5  2  1  0  0  0  0
  8  1  1  0  0  0  0
  8 13  1  0  0  0  0
  9  8  1  0  0  0  0
  9 15  1  0  0  0  0
 10  9  1  0  0  0  0
 10 11  1  0  0  0  0
 11 12  1  0  0  0  0
 12 13  1  0  0  0  0
 12 19  1  0  0  0  0
 13 22  1  0  0  0  0
 13 21  1  0  0  0  0
 14  8  1  0  0  0  0
 16  9  1  0  0  0  0
 17 10  1  0  0  0  0
 18 10  1  0  0  0  0
 20 12  1  0  0  0  0
 23 24  1  0  0  0  0
 24  1  1  0  0  0  0
 24 25  2  0  0  0  0
 25 33  1  0  0  0  0
 26 25  1  0  0  0  0
 27 26  2  0  0  0  0
 28 23  2  0  0  0  0
 28 27  1  0  0  0  0
 29 27  1  0  0  0  0
 29 32  1  0  0  0  0
 30 23  1  0  0  0  0
 31 29  1  0  0  0  0
 33 38  1  0  0  0  0
 33 34  2  0  0  0  0
 34 35  1  0  0  0  0
 34 36  1  0  0  0  0
 37 36  2  0  0  0  0
 38 37  1  0  0  0  0
M  END
>  <minimizedAffinity>
-4.99702978

$$$$

 OpenBabel03242516153D

 38 41  0  0  0  0  0  0  0  0999 V2000
   36.2300   28.9420   39.8310 C   0  0  0  0  0  0  0  0  0  0  0  0
   34.7350   29.2530   39.6460 C   0  0  0  0  0  0  0  0  0  0  0  0
   35.3250   28.0520   39.1170 C   0  0  0  0  0  0  0  0  0  0  0  0
   34.0770   29.1700   40.5120 H   0  0  0  0  0  0  0  0  0  0  0  0
   34.4820   30.0980   38.9830 H   0  0  0  0  0  0  0  0  0  0  0  0
   35.3420   27.9420   38.0030 H   0  0  0  0  0  0  0  0  0  0  0  0
   35.1650   27.0440   39.5900 H   0  0  0  0  0  0  0  0  0  0  0  0
   36.5990   28.6720   41.2450 C   0  0  0  0  0  0  0  0  0  0  0  0
   37.8530   29.3910   41.7400 C   0  0  0  0  0  0  0  0  0  0  0  0
   37.8740   29.0870   43.2540 C   0  0  0  0  0  0  0  0  0  0  0  0
   38.3030   27.7710   43.3750 O   0  0  0  0  0  0  0  0  0  0  0  0
   37.1700   27.0090   42.9720 C   0  0  0  0  0  0  0  0  0  0  0  0
   36.9530   27.1930   41.4720 C   0  0  0  0  0  0  0  0  0  0  0  0
   35.8140   28.9240   42.0060 H   0  0  0  0  0  0  0  0  0  0  0  0
   38.7620   29.0290   41.2670 H   0  0  0  0  0  0  0  0  0  0  0  0
   37.7150   30.5060   41.7100 H   0  0  0  0  0  0  0  0  0  0  0  0
   38.5590   29.7800   43.7570 H   0  0  0  0  0  0  0  0  0  0  0  0
   36.8700   29.1550   43.6830 H   0  0  0  0  0  0  0  0  0  0  0  0
   37.4430   25.9620   43.1580 H   0  0  0  0  0  0  0  0  0  0  0  0
   36.3350   27.3820   43.5680 H   0  0  0  0  0  0  0  0  0  0  0  0
   37.9070   26.9760   40.9630 H   0  0  0  0  0  0  0  0  0  0  0  0
   36.1130   26.5340   41.1930 H   0  0  0  0  0  0  0  0  0  0  0  0
   36.9340   31.2120   38.9620 C   0  0  0  0  0  0  0  0  0  0  0  0
   37.1630   29.8260   39.0490 C   0  0  0  0  0  0  0  0  0  0  0  0
   38.2780   29.3130   38.3720 C   0  0  0  0  0  0  0  0  0  0  0  0
   39.0670   30.1810   37.6780 N   0  0  0  0  0  0  0  0  0  0  0  0
   38.8040   31.4820   37.6300 C   0  0  0  0  0  0  0  0  0  0  0  0
   37.7690   31.9880   38.2530 N   0  0  0  0  0  0  0  0  0  0  0  0
   39.6430   32.3610   36.9050 N   0  0  0  0  0  0  0  0  0  0  0  0
   36.0770   31.5780   39.4880 H   0  0  0  0  0  0  0  0  0  0  0  0
   39.9670   33.1990   37.4520 H   0  0  0  0  0  0  0  0  0  0  0  0
   39.8400   32.0710   35.9090 H   0  0  0  0  0  0  0  0  0  0  0  0
   38.7200   27.9340   38.3820 C   0  0  0  0  0  0  0  0  0  0  0  0
   38.3650   26.7090   37.8330 C   0  0  0  0  0  0  0  0  0  0  0  0
   37.5360   26.6240   37.1830 H   0  0  0  0  0  0  0  0  0  0  0  0
   39.0380   25.5940   38.1240 C   0  0  0  0  0  3  0  0  0  0  0  0
   40.1620   25.6310   39.0230 C   0  0  0  0  0  3  0  0  0  0  0  0
   40.1510   27.4300   39.4070 S   0  0  0  0  0  0  0  0  0  0  0  0
  1  8  1  0  0  0  0
  2  1  1  0  0  0  0
  2  4  1  0  0  0  0
  3  7  1  0  0  0  0
  3  2  1  0  0  0  0
  3  1  1  0  0  0  0
  5  2  1  0  0  0  0
  6  3  1  0  0  0  0
  8 13  1  0  0  0  0
  8  9  1  0  0  0  0
  8 14  1  0  0  0  0
  9 10  1  0  0  0  0
 10 11  1  0  0  0  0
 10 18  1  0  0  0  0
 10 17  1  0  0  0  0
 12 19  1  0  0  0  0
 12 11  1  0  0  0  0
 12 20  1  0  0  0  0
 13 12  1  0  0  0  0
 15  9  1  0  0  0  0
 16  9  1  0  0  0  0
 21 13  1  0  0  0  0
 22 13  1  0  0  0  0
 23 24  1  0  0  0  0
 23 30  1  0  0  0  0
 24  1  1  0  0  0  0
 25 33  1  0  0  0  0
 25 24  2  0  0  0  0
 26 25  1  0  0  0  0
 27 26  2  0  0  0  0
 27 28  1  0  0  0  0
 28 23  2  0  0  0  0
 29 31  1  0  0  0  0
 29 27  1  0  0  0  0
 32 29  1  0  0  0  0
 33 38  1  0  0  0  0
 34 36  1  0  0  0  0
 34 33  2  0  0  0  0
 35 34  1  0  0  0  0
 36 37  2  0  0  0  0
 37 38  1  0  0  0  0
M  END
>  <minimizedAffinity>
-4.98666573

$$$$

 OpenBabel03242516153D

 38 41  0  0  0  0  0  0  0  0999 V2000
   37.4240   27.2610   42.1180 C   0  0  0  0  0  0  0  0  0  0  0  0
   36.5070   27.2800   43.3530 C   0  0  0  0  0  0  0  0  0  0  0  0
   36.2370   28.1010   42.2040 C   0  0  0  0  0  0  0  0  0  0  0  0
   35.8660   26.4160   43.5370 H   0  0  0  0  0  0  0  0  0  0  0  0
   36.9270   27.7170   44.2750 H   0  0  0  0  0  0  0  0  0  0  0  0
   36.2920   29.2110   42.3470 H   0  0  0  0  0  0  0  0  0  0  0  0
   35.4180   27.8590   41.4700 H   0  0  0  0  0  0  0  0  0  0  0  0
   37.3850   25.9690   41.3830 C   0  0  0  0  0  0  0  0  0  0  0  0
   37.9350   24.7680   42.1490 C   0  0  0  0  0  0  0  0  0  0  0  0
   37.5910   23.5670   41.2400 C   0  0  0  0  0  0  0  0  0  0  0  0
   38.5020   23.6060   40.1930 O   0  0  0  0  0  0  0  0  0  0  0  0
   38.0420   24.6840   39.3860 C   0  0  0  0  0  0  0  0  0  0  0  0
   38.2730   25.9970   40.1280 C   0  0  0  0  0  0  0  0  0  0  0  0
   36.3700   25.6400   41.0380 H   0  0  0  0  0  0  0  0  0  0  0  0
   39.0090   24.8260   42.3120 H   0  0  0  0  0  0  0  0  0  0  0  0
   37.3270   24.5670   43.0720 H   0  0  0  0  0  0  0  0  0  0  0  0
   37.6790   22.6370   41.8150 H   0  0  0  0  0  0  0  0  0  0  0  0
   36.5870   23.6680   40.8190 H   0  0  0  0  0  0  0  0  0  0  0  0
   38.6800   24.6720   38.4930 H   0  0  0  0  0  0  0  0  0  0  0  0
   36.9850   24.4850   39.2000 H   0  0  0  0  0  0  0  0  0  0  0  0
   39.3300   26.0270   40.4430 H   0  0  0  0  0  0  0  0  0  0  0  0
   37.9670   26.8050   39.4410 H   0  0  0  0  0  0  0  0  0  0  0  0
   39.7410   27.2440   43.1330 C   0  0  0  0  0  0  0  0  0  0  0  0
   38.7800   27.8780   42.3240 C   0  0  0  0  0  0  0  0  0  0  0  0
   39.1350   29.1010   41.7370 C   0  0  0  0  0  0  0  0  0  0  0  0
   40.3800   29.5970   41.9830 N   0  0  0  0  0  0  0  0  0  0  0  0
   41.2500   28.9550   42.7560 C   0  0  0  0  0  0  0  0  0  0  0  0
   40.9440   27.8120   43.3160 N   0  0  0  0  0  0  0  0  0  0  0  0
   42.5380   29.4900   42.9900 N   0  0  0  0  0  0  0  0  0  0  0  0
   39.4440   26.3130   43.5690 H   0  0  0  0  0  0  0  0  0  0  0  0
   43.3260   28.8160   42.8120 H   0  0  0  0  0  0  0  0  0  0  0  0
   42.5530   30.4950   43.3150 H   0  0  0  0  0  0  0  0  0  0  0  0
   38.3170   29.8810   40.8310 C   0  0  0  0  0  0  0  0  0  0  0  0
   37.4150   30.9360   40.8670 C   0  0  0  0  0  0  0  0  0  0  0  0
   37.1690   31.4100   41.7790 H   0  0  0  0  0  0  0  0  0  0  0  0
   36.8100   31.3720   39.7610 C   0  0  0  0  0  3  0  0  0  0  0  0
   37.0790   30.7570   38.4880 C   0  0  0  0  0  3  0  0  0  0  0  0
   38.2880   29.4860   39.0430 S   0  0  0  0  0  0  0  0  0  0  0  0
  1  3  1  0  0  0  0
  1 24  1  0  0  0  0
  1  2  1  0  0  0  0
  2  4  1  0  0  0  0
  2  5  1  0  0  0  0
  3  6  1  0  0  0  0
  3  2  1  0  0  0  0
  7  3  1  0  0  0  0
  8  1  1  0  0  0  0
  8  9  1  0  0  0  0
  9 15  1  0  0  0  0
  9 16  1  0  0  0  0
 10 17  1  0  0  0  0
 10  9  1  0  0  0  0
 11 10  1  0  0  0  0
 12 13  1  0  0  0  0
 12 11  1  0  0  0  0
 13 21  1  0  0  0  0
 13  8  1  0  0  0  0
 14  8  1  0  0  0  0
 18 10  1  0  0  0  0
 19 12  1  0  0  0  0
 20 12  1  0  0  0  0
 22 13  1  0  0  0  0
 23 28  1  0  0  0  0
 23 30  1  0  0  0  0
 24 23  2  0  0  0  0
 25 26  2  0  0  0  0
 25 24  1  0  0  0  0
 26 27  1  0  0  0  0
 27 29  1  0  0  0  0
 27 28  2  0  0  0  0
 29 32  1  0  0  0  0
 31 29  1  0  0  0  0
 33 34  2  0  0  0  0
 33 25  1  0  0  0  0
 34 35  1  0  0  0  0
 36 34  1  0  0  0  0
 37 38  1  0  0  0  0
 37 36  2  0  0  0  0
 38 33  1  0  0  0  0
M  END
>  <minimizedAffinity>
-4.9501009

$$$$
