
     RDKit          3D

 20 21  0  0  0  0  0  0  0  0999 V2000
   44.5702   36.0011   44.4903 C   0  0  0  0  0  0  0  0  0  0  0  0
   45.3051   35.9245   43.2937 C   0  0  0  0  0  0  0  0  0  0  0  0
   46.1914   34.8617   43.1709 C   0  0  0  0  0  0  0  0  0  0  0  0
   46.3014   33.9598   44.2033 N   0  0  0  0  0  0  0  0  0  0  0  0
   45.5683   34.0856   45.3299 C   0  0  0  0  0  0  0  0  0  0  0  0
   44.7078   35.1021   45.4698 N   0  0  0  0  0  0  0  0  0  0  0  0
   46.9579   34.7801   41.9251 C   0  0  0  0  0  0  0  0  0  0  0  0
   43.8842   36.8451   44.5563 H   0  0  0  0  0  0  0  0  0  0  0  0
   45.1975   36.6393   42.5116 H   0  0  0  0  0  0  0  0  0  0  0  0
   45.6579   33.3743   46.1390 H   0  0  0  0  0  0  0  0  0  0  0  0
   47.2358   33.7309   41.6804 H   0  0  0  0  0  0  0  0  0  0  0  0
   46.3762   35.2130   41.0908 H   0  0  0  0  0  0  0  0  0  0  0  0
   48.2279   35.5300   42.0759 C   0  0  0  0  0  0  0  0  0  0  0  0
   49.4490   35.1181   42.5083 C   0  0  0  0  0  0  0  0  0  0  0  0
   49.5628   34.0836   42.8011 H   0  0  0  0  0  0  0  0  0  0  0  0
   50.4620   36.0458   42.5449 C   0  0  0  0  0  0  0  0  0  0  0  0
   50.2133   37.3215   42.1545 C   0  0  0  0  0  0  0  0  0  0  0  0
   48.4264   37.2627   41.6897 S   0  0  0  0  0  0  0  0  0  0  0  0
   51.4779   35.7919   42.8821 H   0  0  0  0  0  0  0  0  0  0  0  0
   50.8400   38.1646   42.1090 H   0  0  0  0  0  0  0  0  0  0  0  0
  1  6  2  0
  2  1  1  0
  3  2  2  0
  3  4  1  0
  4  5  2  0
  5  6  1  0
  7  3  1  0
  1  8  1  0
  2  9  1  0
  5 10  1  0
  7 11  1  0
  7 12  1  0
 13 14  2  0
 14 15  1  0
 14 16  1  0
 16 17  2  0
 17 18  1  0
 18 13  1  0
 16 19  1  0
 17 20  1  0
  7 13  1  0
M  ISO  6   8  14   9  14  10  14  11   8  12   8  15  15
M  END
>  <DihAtoms>  (1) 
2,6,12,13

>  <DihDeg>  (1) 
90.00689871162325

$$$$
