REMARK  Name = 
REMARK  5 active torsions:
REMARK  status: ('A' for Active; 'I' for Inactive)
REMARK    1  A    between atoms: C_1  and  C_2
REMARK    2  A    between atoms: C_1  and  C_9
REMARK    3  A    between atoms: C_4  and  C_5
REMARK    4  A    between atoms: C_8  and  C_14
REMARK    5  A    between atoms: C_12  and  C_31
REMARK                            x       y       z     vdW  Elec       q    Type
REMARK                         _______ _______ _______ _____ _____    ______ ____
ROOT
ATOM      1  C   UNL     1      47.154  31.281  46.717  0.00  0.00    +0.000 C 
ATOM      2  H   UNL     1      46.461  30.456  46.423  0.00  0.00    +0.000 HD
ATOM      3  H   UNL     1      48.219  30.990  46.682  0.00  0.00    +0.000 HD
ENDROOT
BRANCH   1   4
ATOM      4  C   UNL     1      46.772  31.769  48.094  0.00  0.00    +0.000 C 
ATOM      5  C   UNL     1      46.179  30.760  49.011  0.00  0.00    +0.000 C 
ATOM      6  C   UNL     1      47.515  31.261  49.273  0.00  0.00    +0.000 C 
ATOM      7  H   UNL     1      46.451  32.822  48.177  0.00  0.00    +0.000 HD
ATOM      8  H   UNL     1      46.097  29.711  48.636  0.00  0.00    +0.000 HD
ATOM      9  H   UNL     1      45.316  31.038  49.663  0.00  0.00    +0.000 HD
ATOM     10  H   UNL     1      47.584  31.939  50.181  0.00  0.00    +0.000 HD
BRANCH   6  11
ATOM     11  C   UNL     1      48.776  30.522  49.032  0.00  0.00    +0.000 C 
ATOM     12  C   UNL     1      49.604  30.205  50.301  0.00  0.00    +0.000 C 
ATOM     13  C   UNL     1      50.064  31.281  49.400  0.00  0.00    +0.000 C 
ATOM     14  H   UNL     1      48.855  29.786  48.208  0.00  0.00    +0.000 HD
ATOM     15  H   UNL     1      50.158  29.245  50.303  0.00  0.00    +0.000 HD
ATOM     16  H   UNL     1      49.111  30.403  51.271  0.00  0.00    +0.000 HD
ATOM     17  H   UNL     1      49.940  32.314  49.810  0.00  0.00    +0.000 HD
ATOM     18  H   UNL     1      50.928  31.077  48.748  0.00  0.00    +0.000 HD
ENDBRANCH   6  11
ENDBRANCH   1   4
BRANCH   1  20
ATOM     19  C   UNL     1      45.937  33.154  45.919  0.00  0.00    +0.000 C 
ATOM     20  C   UNL     1      46.928  32.382  45.697  0.00  0.00    +0.000 C 
BRANCH  19  25
ATOM     21  C   UNL     1      44.516  36.164  44.355  0.00  0.00    +0.000 A 
ATOM     22  C   UNL     1      45.108  36.188  43.101  0.00  0.00    +0.000 A 
ATOM     23  C   UNL     1      45.986  35.184  42.833  0.00  0.00    +0.000 A 
ATOM     24  N   UNL     1      46.243  34.230  43.765  0.00  0.00    +0.000 NA
ATOM     25  C   UNL     1      45.657  34.225  44.972  0.00  0.00    +0.000 A 
ATOM     26  N   UNL     1      44.799  35.208  45.233  0.00  0.00    +0.000 NA
ATOM     27  H   UNL     1      43.822  36.972  44.547  0.00  0.00    +0.000 HD
ATOM     28  H   UNL     1      44.984  36.877  42.301  0.00  0.00    +0.000 HD
BRANCH  23  29
ATOM     29  C   UNL     1      46.740  34.998  41.571  0.00  0.00    +0.000 A 
ATOM     30  C   UNL     1      46.304  35.392  40.297  0.00  0.00    +0.000 A 
ATOM     31  H   UNL     1      45.347  35.873  40.174  0.00  0.00    +0.000 HD
ATOM     32  C   UNL     1      47.138  35.136  39.253  0.00  0.00    +0.000 A 
ATOM     33  C   UNL     1      48.370  34.516  39.413  0.00  0.00    +0.000 A 
ATOM     34  S   UNL     1      48.345  34.256  41.316  0.00  0.00    +0.000 S 
ENDBRANCH  23  29
ENDBRANCH  19  25
ENDBRANCH   1  20
TORSDOF 5
