
 OpenBabel03252500253D

 34 36  0  0  1  0  0  0  0  0999 V2000
   47.0610   30.1620   48.1470 C   0  0  2  0  0  0  0  0  0  0  0  0
   45.6200   30.4310   48.3660 C   0  0  2  0  0  0  0  0  0  0  0  0
   44.9520   29.5370   47.3900 C   0  0  0  0  0  0  0  0  0  0  0  0
   45.7630   28.4250   47.2220 O   0  0  0  0  0  0  0  0  0  0  0  0
   46.9610   28.6600   47.8130 C   0  0  0  0  0  0  0  0  0  0  0  0
   47.6480   30.5320   47.3640 H   0  0  0  0  0  0  0  0  0  0  0  0
   45.4400   30.1900   49.4410 H   0  0  0  0  0  0  0  0  0  0  0  0
   44.5140   29.9710   46.5130 H   0  0  0  0  0  0  0  0  0  0  0  0
   44.0620   29.1160   47.9540 H   0  0  0  0  0  0  0  0  0  0  0  0
   47.0170   28.1810   48.8350 H   0  0  0  0  0  0  0  0  0  0  0  0
   47.8320   28.2870   47.2720 H   0  0  0  0  0  0  0  0  0  0  0  0
   45.2680   31.7570   48.2080 O   0  0  0  0  0  0  0  0  0  0  0  0
   47.4060   32.8670   47.3010 O   0  0  0  0  0  0  0  0  0  0  0  0
   46.0410   32.3960   46.8760 P   0  0  1  0  0  0  0  0  0  0  0  0
   46.2310   31.1840   45.7060 O   0  0  0  0  0  0  0  0  0  0  0  0
   46.9310   31.4810   45.0720 H   0  0  0  0  0  0  0  0  0  0  0  0
   45.2040   33.7370   46.2230 O   0  0  0  0  0  0  0  0  0  0  0  0
   45.2450   36.0460   43.5120 C   0  0  0  0  0  0  0  0  0  0  0  0
   46.0510   35.4140   42.5280 C   0  0  0  0  0  0  0  0  0  0  0  0
   46.5740   34.1570   42.8510 C   0  0  0  0  0  0  0  0  0  0  0  0
   46.2850   33.6300   44.0590 N   0  0  0  0  0  0  0  0  0  0  0  0
   45.5110   34.2710   44.9680 C   0  0  0  0  0  0  0  0  0  0  0  0
   44.9980   35.4780   44.6810 N   0  0  0  0  0  0  0  0  0  0  0  0
   46.2590   35.8650   41.5750 H   0  0  0  0  0  0  0  0  0  0  0  0
   47.1930   33.6340   42.1360 H   0  0  0  0  0  0  0  0  0  0  0  0
   44.7340   37.2890   43.1870 O   0  0  0  0  0  0  0  0  0  0  0  0
   45.1560   38.0820   43.6820 H   0  0  0  0  0  0  0  0  0  0  0  0
   47.8200   30.4020   49.2820 O   0  0  0  0  0  0  0  0  0  0  0  0
   48.9990   30.7120   49.5500 C   0  0  0  0  0  0  0  0  0  0  0  0
   49.9120   31.8720   49.6140 C   0  0  0  0  0  0  0  0  0  0  0  0
   49.3370   32.7280   49.3250 H   0  0  0  0  0  0  0  0  0  0  0  0
   51.2100   31.6810   49.9920 C   0  0  0  0  0  3  0  0  0  0  0  0
   51.6720   30.3660   50.3230 C   0  0  0  0  0  3  0  0  0  0  0  0
   50.1710   29.3180   50.0840 S   0  0  0  0  0  0  0  0  0  0  0  0
  1  6  1  6  0  0  0
  1  2  1  0  0  0  0
  1 28  1  0  0  0  0
  2  7  1  1  0  0  0
  3  9  1  0  0  0  0
  3  2  1  0  0  0  0
  4  3  1  0  0  0  0
  4  5  1  0  0  0  0
  5  1  1  0  0  0  0
  5 10  1  0  0  0  0
  8  3  1  0  0  0  0
 11  5  1  0  0  0  0
 12  2  1  0  0  0  0
 14 13  2  1  0  0  0
 14 12  1  0  0  0  0
 15 14  1  0  0  0  0
 16 15  1  0  0  0  0
 17 14  1  0  0  0  0
 18 23  1  0  0  0  0
 19 20  1  0  0  0  0
 19 18  2  0  0  0  0
 20 21  2  0  0  0  0
 21 22  1  0  0  0  0
 22 17  1  0  0  0  0
 23 22  2  0  0  0  0
 24 19  1  0  0  0  0
 25 20  1  0  0  0  0
 26 18  1  0  0  0  0
 26 27  1  0  0  0  0
 28 29  1  0  0  0  0
 29 30  2  0  0  0  0
 29 34  1  0  0  0  0
 30 32  1  0  0  0  0
 31 30  1  0  0  0  0
 32 33  2  0  0  0  0
 34 33  1  0  0  0  0
M  END
>  <minimizedAffinity>
-5.05488348

>  <minimizedRMSD>
0.436636776

$$$$
