
 OpenBabel03242521583D

 30 32  0  0  0  0  0  0  0  0999 V2000
   46.4330   34.5430   42.0090 C   0  0  0  0  0  0  0  0  0  0  0  0
   47.6160   35.1150   41.6070 C   0  0  0  0  0  0  0  0  0  0  0  0
   48.2640   34.8470   40.4110 C   0  0  0  0  0  0  0  0  0  0  0  0
   47.6830   33.9380   39.5520 C   0  0  0  0  0  0  0  0  0  0  0  0
   46.5200   33.3850   39.9590 C   0  0  0  0  0  0  0  0  0  0  0  0
   45.9160   33.6580   41.1160 N   0  0  0  0  0  0  0  0  0  0  0  0
   48.0120   35.8270   42.3500 H   0  0  0  0  0  0  0  0  0  0  0  0
   49.1860   35.4130   40.2980 H   0  0  0  0  0  0  0  0  0  0  0  0
   48.3260   33.8460   38.6980 H   0  0  0  0  0  0  0  0  0  0  0  0
   44.4860   36.0360   44.8620 C   0  0  0  0  0  0  0  0  0  0  0  0
   45.0270   35.9350   43.5690 C   0  0  0  0  0  0  0  0  0  0  0  0
   45.7880   34.8330   43.2820 C   0  0  0  0  0  0  0  0  0  0  0  0
   45.9700   33.9020   44.2780 N   0  0  0  0  0  0  0  0  0  0  0  0
   45.4450   34.0190   45.5050 C   0  0  0  0  0  0  0  0  0  0  0  0
   44.7010   35.0960   45.7840 N   0  0  0  0  0  0  0  0  0  0  0  0
   43.8930   36.9270   45.0320 H   0  0  0  0  0  0  0  0  0  0  0  0
   44.9010   36.6410   42.7780 H   0  0  0  0  0  0  0  0  0  0  0  0
   45.6690   33.2120   46.1890 H   0  0  0  0  0  0  0  0  0  0  0  0
   45.9110   32.4720   39.1150 O   0  0  0  0  0  0  0  0  0  0  0  0
   45.2450   33.4730   36.7620 O   0  0  0  0  0  0  0  0  0  0  0  0
   44.6540   32.9110   38.0310 P   0  0  1  0  0  0  0  0  0  0  0  0
   43.7850   31.5000   37.6470 O   0  0  0  0  0  0  0  0  0  0  0  0
   42.8320   31.6140   37.8390 H   0  0  0  0  0  0  0  0  0  0  0  0
   43.6760   34.0490   38.7730 O   0  0  0  0  0  0  0  0  0  0  0  0
   42.5280   34.0430   39.3530 C   0  0  0  0  0  0  0  0  0  0  0  0
   41.0970   33.4910   39.1770 C   0  0  0  0  0  0  0  0  0  0  0  0
   41.1130   32.9430   38.2630 H   0  0  0  0  0  0  0  0  0  0  0  0
   40.2200   33.8170   40.1640 C   0  0  0  0  0  0  0  0  0  0  0  0
   40.6040   34.6050   41.2690 C   0  0  0  0  0  0  0  0  0  0  0  0
   42.3460   34.9810   40.9950 S   0  0  0  0  0  0  0  0  0  0  0  0
  1 12  1  0  0  0  0
  2  1  1  0  0  0  0
  2  7  1  0  0  0  0
  3  2  2  0  0  0  0
  4  5  2  0  0  0  0
  4  3  1  0  0  0  0
  5  6  1  0  0  0  0
  6  1  2  0  0  0  0
  8  3  1  0  0  0  0
  9  4  1  0  0  0  0
 10 16  1  0  0  0  0
 10 15  1  0  0  0  0
 11 10  2  0  0  0  0
 12 11  1  0  0  0  0
 12 13  2  0  0  0  0
 13 14  1  0  0  0  0
 14 15  2  0  0  0  0
 14 18  1  0  0  0  0
 17 11  1  0  0  0  0
 19  5  1  0  0  0  0
 21 20  2  6  0  0  0
 21 24  1  0  0  0  0
 21 19  1  0  0  0  0
 22 23  1  0  0  0  0
 22 21  1  0  0  0  0
 24 25  1  0  0  0  0
 25 30  1  0  0  0  0
 26 25  2  0  0  0  0
 26 28  1  0  0  0  0
 27 26  1  0  0  0  0
 28 29  2  0  0  0  0
 30 29  1  0  0  0  0
M  END
>  <minimizedAffinity>
-5.35985279

>  <minimizedRMSD>
2.191643

$$$$
