
 OpenBabel03242523563D

 42 45  0  0  1  0  0  0  0  0999 V2000
   36.9330   30.5610   40.5580 C   0  0  1  0  0  0  0  0  0  0  0  0
   36.5950   29.9720   39.1980 C   0  0  1  0  0  0  0  0  0  0  0  0
   37.1340   30.8100   38.2050 O   0  0  0  0  0  0  0  0  0  0  0  0
   37.0780   32.1620   38.5540 C   0  0  0  0  0  0  0  0  0  0  0  0
   38.0300   32.4900   39.6910 C   0  0  2  0  0  0  0  0  0  0  0  0
   38.3060   31.1360   40.4330 C   0  0  1  0  0  0  0  0  0  0  0  0
   36.8680   29.7750   41.3530 H   0  0  0  0  0  0  0  0  0  0  0  0
   35.5170   29.8110   39.0500 H   0  0  0  0  0  0  0  0  0  0  0  0
   37.4150   32.7190   37.6740 H   0  0  0  0  0  0  0  0  0  0  0  0
   36.0440   32.4930   38.7690 H   0  0  0  0  0  0  0  0  0  0  0  0
   38.9760   32.9190   39.3290 H   0  0  0  0  0  0  0  0  0  0  0  0
   38.8810   30.6630   39.5680 H   0  0  0  0  0  0  0  0  0  0  0  0
   36.0110   31.5540   40.9200 O   0  0  0  0  0  0  0  0  0  0  0  0
   35.1600   31.1710   41.1860 H   0  0  0  0  0  0  0  0  0  0  0  0
   37.3810   33.2870   40.6240 O   0  0  0  0  0  0  0  0  0  0  0  0
   37.5750   34.2580   40.4780 H   0  0  0  0  0  0  0  0  0  0  0  0
   37.3570   28.7970   39.1020 O   0  0  0  0  0  0  0  0  0  0  0  0
   36.8540   27.5630   38.9730 C   0  0  0  0  0  0  0  0  0  0  0  0
   37.0810   26.5850   39.9530 C   0  0  0  0  0  0  0  0  0  0  0  0
   36.5350   25.3250   39.7690 C   0  0  0  0  0  0  0  0  0  0  0  0
   35.7880   25.0700   38.6320 N   0  0  0  0  0  0  0  0  0  0  0  0
   35.5910   26.0390   37.7090 C   0  0  0  0  0  0  0  0  0  0  0  0
   36.1220   27.2790   37.8790 N   0  0  0  0  0  0  0  0  0  0  0  0
   37.6600   26.7760   40.8390 H   0  0  0  0  0  0  0  0  0  0  0  0
   34.9970   25.7680   36.8460 H   0  0  0  0  0  0  0  0  0  0  0  0
   36.7450   24.2260   40.7600 C   0  0  0  0  0  0  0  0  0  0  0  0
   38.1240   24.1500   41.4160 C   0  0  0  0  0  0  0  0  0  0  0  0
   36.8210   24.4970   42.1600 C   0  0  0  0  0  0  0  0  0  0  0  0
   36.3860   23.2270   40.3850 H   0  0  0  0  0  0  0  0  0  0  0  0
   38.8050   24.9870   41.2640 H   0  0  0  0  0  0  0  0  0  0  0  0
   38.5160   23.1460   41.6670 H   0  0  0  0  0  0  0  0  0  0  0  0
   36.4370   23.7710   42.9060 H   0  0  0  0  0  0  0  0  0  0  0  0
   36.7200   25.5540   42.5080 H   0  0  0  0  0  0  0  0  0  0  0  0
   38.9650   31.4260   41.5710 O   0  0  0  0  0  0  0  0  0  0  0  0
   39.7110   30.6580   42.3620 C   0  0  0  0  0  0  0  0  0  0  0  0
   40.8160   31.0840   42.9510 O   0  0  0  0  0  0  0  0  0  0  0  0
   39.5870   29.1520   42.8470 C   0  0  0  0  0  0  0  0  0  0  0  0
   38.5930   28.4390   43.2440 C   0  0  0  0  0  0  0  0  0  0  0  0
   37.6380   28.9530   43.2460 H   0  0  0  0  0  0  0  0  0  0  0  0
   38.7890   27.1480   43.6170 C   0  0  0  0  0  3  0  0  0  0  0  0
   40.1020   26.6740   43.5400 C   0  0  0  0  0  3  0  0  0  0  0  0
   41.0270   28.2320   42.8890 S   0  0  0  0  0  0  0  0  0  0  0  0
  1 13  1  0  0  0  0
  1  7  1  1  0  0  0
  2  8  1  6  0  0  0
  2  1  1  0  0  0  0
  3  4  1  0  0  0  0
  3  2  1  0  0  0  0
  4 10  1  0  0  0  0
  4  5  1  0  0  0  0
  5 11  1  6  0  0  0
  5  6  1  0  0  0  0
  5 15  1  0  0  0  0
  6 12  1  6  0  0  0
  6  1  1  0  0  0  0
  6 34  1  0  0  0  0
  9  4  1  0  0  0  0
 13 14  1  0  0  0  0
 16 15  1  0  0  0  0
 17  2  1  0  0  0  0
 18 17  1  0  0  0  0
 18 19  1  0  0  0  0
 19 24  1  0  0  0  0
 20 19  2  0  0  0  0
 20 26  1  0  0  0  0
 21 20  1  0  0  0  0
 22 23  1  0  0  0  0
 22 21  2  0  0  0  0
 23 18  2  0  0  0  0
 25 22  1  0  0  0  0
 26 27  1  0  0  0  0
 26 28  1  0  0  0  0
 27 31  1  0  0  0  0
 27 28  1  0  0  0  0
 28 33  1  0  0  0  0
 28 32  1  0  0  0  0
 29 26  1  0  0  0  0
 30 27  1  0  0  0  0
 34 35  1  0  0  0  0
 35 37  1  0  0  0  0
 35 36  2  0  0  0  0
 37 42  1  0  0  0  0
 37 38  2  0  0  0  0
 38 39  1  0  0  0  0
 38 40  1  0  0  0  0
 41 40  2  0  0  0  0
 42 41  1  0  0  0  0
M  END
>  <minimizedAffinity>
-5.9549365

$$$$

 OpenBabel03242523563D

 42 45  0  0  1  0  0  0  0  0999 V2000
   37.6070   29.3820   42.2970 C   0  0  1  0  0  0  0  0  0  0  0  0
   39.1030   29.3410   42.5630 C   0  0  1  0  0  0  0  0  0  0  0  0
   39.4590   28.0210   42.8950 O   0  0  0  0  0  0  0  0  0  0  0  0
   38.4720   27.3690   43.6390 C   0  0  0  0  0  0  0  0  0  0  0  0
   37.2350   27.0840   42.8070 C   0  0  2  0  0  0  0  0  0  0  0  0
   37.2710   28.0990   41.6100 C   0  0  1  0  0  0  0  0  0  0  0  0
   37.3420   30.2790   41.6830 H   0  0  0  0  0  0  0  0  0  0  0  0
   39.4270   30.0540   43.3350 H   0  0  0  0  0  0  0  0  0  0  0  0
   38.8990   26.4050   43.9330 H   0  0  0  0  0  0  0  0  0  0  0  0
   38.2290   27.9130   44.5730 H   0  0  0  0  0  0  0  0  0  0  0  0
   37.2210   26.0530   42.4240 H   0  0  0  0  0  0  0  0  0  0  0  0
   38.1890   27.6360   41.1140 H   0  0  0  0  0  0  0  0  0  0  0  0
   36.8870   29.5070   43.4940 O   0  0  0  0  0  0  0  0  0  0  0  0
   36.9470   30.4050   43.8550 H   0  0  0  0  0  0  0  0  0  0  0  0
   36.1010   27.4220   43.5310 O   0  0  0  0  0  0  0  0  0  0  0  0
   35.7040   26.6240   43.9880 H   0  0  0  0  0  0  0  0  0  0  0  0
   39.7090   29.5530   41.3140 O   0  0  0  0  0  0  0  0  0  0  0  0
   39.8110   30.7380   40.7000 C   0  0  0  0  0  0  0  0  0  0  0  0
   40.2980   30.8310   39.3880 C   0  0  0  0  0  0  0  0  0  0  0  0
   40.3810   32.0830   38.8000 C   0  0  0  0  0  0  0  0  0  0  0  0
   39.9830   33.1960   39.5210 N   0  0  0  0  0  0  0  0  0  0  0  0
   39.5180   33.0660   40.7840 C   0  0  0  0  0  0  0  0  0  0  0  0
   39.4340   31.8430   41.3700 N   0  0  0  0  0  0  0  0  0  0  0  0
   40.6090   29.9710   38.8220 H   0  0  0  0  0  0  0  0  0  0  0  0
   39.2260   33.9790   41.2860 H   0  0  0  0  0  0  0  0  0  0  0  0
   40.9030   32.2670   37.4130 C   0  0  0  0  0  0  0  0  0  0  0  0
   42.2130   33.0430   37.2710 C   0  0  0  0  0  0  0  0  0  0  0  0
   42.0460   31.5450   36.9500 C   0  0  0  0  0  0  0  0  0  0  0  0
   40.1120   32.6160   36.6910 H   0  0  0  0  0  0  0  0  0  0  0  0
   42.7750   33.2590   38.1800 H   0  0  0  0  0  0  0  0  0  0  0  0
   42.3420   33.6700   36.3690 H   0  0  0  0  0  0  0  0  0  0  0  0
   42.1330   31.2250   35.8910 H   0  0  0  0  0  0  0  0  0  0  0  0
   42.5490   30.8330   37.6500 H   0  0  0  0  0  0  0  0  0  0  0  0
   36.0840   28.0220   40.9800 O   0  0  0  0  0  0  0  0  0  0  0  0
   35.5640   28.7770   40.0140 C   0  0  0  0  0  0  0  0  0  0  0  0
   34.3080   29.1910   40.0180 O   0  0  0  0  0  0  0  0  0  0  0  0
   36.1570   29.3960   38.6790 C   0  0  0  0  0  0  0  0  0  0  0  0
   36.8910   30.4240   38.4410 C   0  0  0  0  0  0  0  0  0  0  0  0
   37.1790   30.9900   39.3210 H   0  0  0  0  0  0  0  0  0  0  0  0
   37.2470   30.7260   37.1650 C   0  0  0  0  0  3  0  0  0  0  0  0
   36.7700   29.8650   36.1710 C   0  0  0  0  0  3  0  0  0  0  0  0
   35.7740   28.5930   37.2190 S   0  0  0  0  0  0  0  0  0  0  0  0
  1  7  1  6  0  0  0
  1  2  1  0  0  0  0
  1 13  1  0  0  0  0
  2  3  1  0  0  0  0
  2  8  1  1  0  0  0
  3  4  1  0  0  0  0
  4  9  1  0  0  0  0
  4 10  1  0  0  0  0
  5 11  1  6  0  0  0
  5 15  1  0  0  0  0
  5  4  1  0  0  0  0
  6 12  1  6  0  0  0
  6  1  1  0  0  0  0
  6  5  1  0  0  0  0
 13 14  1  0  0  0  0
 15 16  1  0  0  0  0
 17  2  1  0  0  0  0
 18 17  1  0  0  0  0
 18 23  1  0  0  0  0
 19 18  2  0  0  0  0
 20 19  1  0  0  0  0
 20 21  2  0  0  0  0
 21 22  1  0  0  0  0
 22 25  1  0  0  0  0
 22 23  2  0  0  0  0
 24 19  1  0  0  0  0
 26 20  1  0  0  0  0
 27 26  1  0  0  0  0
 27 30  1  0  0  0  0
 28 27  1  0  0  0  0
 28 26  1  0  0  0  0
 28 33  1  0  0  0  0
 29 26  1  0  0  0  0
 31 27  1  0  0  0  0
 32 28  1  0  0  0  0
 34  6  1  0  0  0  0
 35 36  2  0  0  0  0
 35 34  1  0  0  0  0
 37 35  1  0  0  0  0
 38 37  2  0  0  0  0
 38 39  1  0  0  0  0
 40 38  1  0  0  0  0
 41 40  2  0  0  0  0
 41 42  1  0  0  0  0
 42 37  1  0  0  0  0
M  END
>  <minimizedAffinity>
-5.84333038

$$$$

 OpenBabel03242523563D

 42 45  0  0  1  0  0  0  0  0999 V2000
   38.0440   31.4850   38.4550 C   0  0  1  0  0  0  0  0  0  0  0  0
   39.5490   31.5600   38.2570 C   0  0  1  0  0  0  0  0  0  0  0  0
   40.1020   32.2940   39.3220 O   0  0  0  0  0  0  0  0  0  0  0  0
   39.2740   33.3370   39.7430 C   0  0  0  0  0  0  0  0  0  0  0  0
   38.0210   32.8220   40.4270 C   0  0  2  0  0  0  0  0  0  0  0  0
   37.8250   31.3480   39.9260 C   0  0  1  0  0  0  0  0  0  0  0  0
   37.6130   30.6300   37.8760 H   0  0  0  0  0  0  0  0  0  0  0  0
   39.8380   31.9810   37.2820 H   0  0  0  0  0  0  0  0  0  0  0  0
   39.8470   33.9000   40.4870 H   0  0  0  0  0  0  0  0  0  0  0  0
   39.0390   34.0390   38.9180 H   0  0  0  0  0  0  0  0  0  0  0  0
   38.1110   32.8370   41.5240 H   0  0  0  0  0  0  0  0  0  0  0  0
   38.7520   30.9400   40.4520 H   0  0  0  0  0  0  0  0  0  0  0  0
   37.4140   32.6390   37.9660 O   0  0  0  0  0  0  0  0  0  0  0  0
   37.3850   32.6460   36.9960 H   0  0  0  0  0  0  0  0  0  0  0  0
   36.9160   33.5140   39.9540 O   0  0  0  0  0  0  0  0  0  0  0  0
   36.6660   34.2710   40.5600 H   0  0  0  0  0  0  0  0  0  0  0  0
   40.0170   30.2520   38.4640 O   0  0  0  0  0  0  0  0  0  0  0  0
   40.8920   29.6150   37.6780 C   0  0  0  0  0  0  0  0  0  0  0  0
   41.9170   30.3150   37.0230 C   0  0  0  0  0  0  0  0  0  0  0  0
   42.7960   29.6040   36.2220 C   0  0  0  0  0  0  0  0  0  0  0  0
   42.6390   28.2350   36.0930 N   0  0  0  0  0  0  0  0  0  0  0  0
   41.6390   27.5960   36.7410 C   0  0  0  0  0  0  0  0  0  0  0  0
   40.7700   28.2830   37.5290 N   0  0  0  0  0  0  0  0  0  0  0  0
   42.0450   31.3790   37.1180 H   0  0  0  0  0  0  0  0  0  0  0  0
   41.5770   26.5250   36.5940 H   0  0  0  0  0  0  0  0  0  0  0  0
   43.9030   30.2800   35.4790 C   0  0  0  0  0  0  0  0  0  0  0  0
   44.8090   31.2040   36.2940 C   0  0  0  0  0  0  0  0  0  0  0  0
   45.2630   29.8790   35.6520 C   0  0  0  0  0  0  0  0  0  0  0  0
   43.5580   30.7490   34.5150 H   0  0  0  0  0  0  0  0  0  0  0  0
   44.7140   31.1810   37.3790 H   0  0  0  0  0  0  0  0  0  0  0  0
   45.2190   32.0970   35.7850 H   0  0  0  0  0  0  0  0  0  0  0  0
   45.9860   29.9270   34.8110 H   0  0  0  0  0  0  0  0  0  0  0  0
   45.4890   29.0430   36.3580 H   0  0  0  0  0  0  0  0  0  0  0  0
   36.6090   30.9400   40.3390 O   0  0  0  0  0  0  0  0  0  0  0  0
   36.2000   29.7580   40.7950 C   0  0  0  0  0  0  0  0  0  0  0  0
   35.0110   29.2490   40.5170 O   0  0  0  0  0  0  0  0  0  0  0  0
   36.8760   28.6510   41.7090 C   0  0  0  0  0  0  0  0  0  0  0  0
   36.8000   27.3680   41.7320 C   0  0  0  0  0  0  0  0  0  0  0  0
   36.1540   26.9390   40.9740 H   0  0  0  0  0  0  0  0  0  0  0  0
   37.5010   26.6610   42.6560 C   0  0  0  0  0  3  0  0  0  0  0  0
   38.2780   27.4090   43.5470 C   0  0  0  0  0  3  0  0  0  0  0  0
   37.9200   29.2030   42.9460 S   0  0  0  0  0  0  0  0  0  0  0  0
  1  7  1  6  0  0  0
  1  6  1  0  0  0  0
  2  8  1  6  0  0  0
  2  1  1  0  0  0  0
  2 17  1  0  0  0  0
  2  3  1  0  0  0  0
  3  4  1  0  0  0  0
  4  5  1  0  0  0  0
  4  9  1  0  0  0  0
  5 11  1  1  0  0  0
  6 34  1  0  0  0  0
  6  5  1  0  0  0  0
  6 12  1  1  0  0  0
 10  4  1  0  0  0  0
 13  1  1  0  0  0  0
 14 13  1  0  0  0  0
 15  5  1  0  0  0  0
 15 16  1  0  0  0  0
 18 17  1  0  0  0  0
 19 24  1  0  0  0  0
 19 18  2  0  0  0  0
 20 19  1  0  0  0  0
 21 20  2  0  0  0  0
 21 22  1  0  0  0  0
 22 23  2  0  0  0  0
 23 18  1  0  0  0  0
 25 22  1  0  0  0  0
 26 28  1  0  0  0  0
 26 20  1  0  0  0  0
 26 27  1  0  0  0  0
 27 30  1  0  0  0  0
 28 27  1  0  0  0  0
 28 33  1  0  0  0  0
 29 26  1  0  0  0  0
 31 27  1  0  0  0  0
 32 28  1  0  0  0  0
 34 35  1  0  0  0  0
 35 37  1  0  0  0  0
 36 35  2  0  0  0  0
 37 38  2  0  0  0  0
 37 42  1  0  0  0  0
 38 40  1  0  0  0  0
 39 38  1  0  0  0  0
 40 41  2  0  0  0  0
 42 41  1  0  0  0  0
M  END
>  <minimizedAffinity>
-5.73509836

$$$$

 OpenBabel03242523563D

 42 45  0  0  1  0  0  0  0  0999 V2000
   36.8620   30.1420   41.3070 C   0  0  1  0  0  0  0  0  0  0  0  0
   36.4590   28.9970   40.3900 C   0  0  1  0  0  0  0  0  0  0  0  0
   36.6830   29.3940   39.0600 O   0  0  0  0  0  0  0  0  0  0  0  0
   36.4160   30.7500   38.8510 C   0  0  0  0  0  0  0  0  0  0  0  0
   37.4340   31.6380   39.5430 C   0  0  2  0  0  0  0  0  0  0  0  0
   38.0670   30.7680   40.6850 C   0  0  1  0  0  0  0  0  0  0  0  0
   37.0600   29.7650   42.3420 H   0  0  0  0  0  0  0  0  0  0  0  0
   35.4230   28.6620   40.5440 H   0  0  0  0  0  0  0  0  0  0  0  0
   36.5140   30.9170   37.7730 H   0  0  0  0  0  0  0  0  0  0  0  0
   35.3770   31.0150   39.1260 H   0  0  0  0  0  0  0  0  0  0  0  0
   38.2200   31.9830   38.8550 H   0  0  0  0  0  0  0  0  0  0  0  0
   38.5970   30.0460   39.9780 H   0  0  0  0  0  0  0  0  0  0  0  0
   35.8240   31.0770   41.4290 O   0  0  0  0  0  0  0  0  0  0  0  0
   35.1090   30.7460   41.9940 H   0  0  0  0  0  0  0  0  0  0  0  0
   36.7790   32.6710   40.1980 O   0  0  0  0  0  0  0  0  0  0  0  0
   36.7600   33.5050   39.6450 H   0  0  0  0  0  0  0  0  0  0  0  0
   37.4130   27.9910   40.6110 O   0  0  0  0  0  0  0  0  0  0  0  0
   37.1370   26.6900   40.7660 C   0  0  0  0  0  0  0  0  0  0  0  0
   36.6710   25.9180   39.6910 C   0  0  0  0  0  0  0  0  0  0  0  0
   36.4020   24.5770   39.9070 C   0  0  0  0  0  0  0  0  0  0  0  0
   36.6010   24.0420   41.1680 N   0  0  0  0  0  0  0  0  0  0  0  0
   37.0520   24.8180   42.1800 C   0  0  0  0  0  0  0  0  0  0  0  0
   37.3180   26.1350   41.9790 N   0  0  0  0  0  0  0  0  0  0  0  0
   36.5140   26.3280   38.7090 H   0  0  0  0  0  0  0  0  0  0  0  0
   37.1830   24.3320   43.1380 H   0  0  0  0  0  0  0  0  0  0  0  0
   35.8880   23.6930   38.8180 C   0  0  0  0  0  0  0  0  0  0  0  0
   34.6070   22.9120   39.1160 C   0  0  0  0  0  0  0  0  0  0  0  0
   34.7200   24.0400   38.0720 C   0  0  0  0  0  0  0  0  0  0  0  0
   36.6930   23.0500   38.3620 H   0  0  0  0  0  0  0  0  0  0  0  0
   34.0530   23.1720   40.0180 H   0  0  0  0  0  0  0  0  0  0  0  0
   34.5030   21.9080   38.6630 H   0  0  0  0  0  0  0  0  0  0  0  0
   34.6230   23.7700   37.0000 H   0  0  0  0  0  0  0  0  0  0  0  0
   34.1910   24.9920   38.3190 H   0  0  0  0  0  0  0  0  0  0  0  0
   38.8090   31.5880   41.4540 O   0  0  0  0  0  0  0  0  0  0  0  0
   40.1080   31.8760   41.4140 C   0  0  0  0  0  0  0  0  0  0  0  0
   40.9700   31.4510   42.3220 O   0  0  0  0  0  0  0  0  0  0  0  0
   41.0060   32.7110   40.4070 C   0  0  0  0  0  0  0  0  0  0  0  0
   40.7340   33.6100   39.5300 C   0  0  0  0  0  0  0  0  0  0  0  0
   39.6820   33.8670   39.4550 H   0  0  0  0  0  0  0  0  0  0  0  0
   41.7290   34.1590   38.7860 C   0  0  0  0  0  3  0  0  0  0  0  0
   43.0210   33.6870   39.0390 C   0  0  0  0  0  3  0  0  0  0  0  0
   42.6860   32.3960   40.4280 S   0  0  0  0  0  0  0  0  0  0  0  0
  1 13  1  0  0  0  0
  1  7  1  1  0  0  0
  2  8  1  1  0  0  0
  2 17  1  0  0  0  0
  2  1  1  0  0  0  0
  3  2  1  0  0  0  0
  4  3  1  0  0  0  0
  4 10  1  0  0  0  0
  4  5  1  0  0  0  0
  5 11  1  6  0  0  0
  5 15  1  0  0  0  0
  5  6  1  0  0  0  0
  6 12  1  6  0  0  0
  6  1  1  0  0  0  0
  6 34  1  0  0  0  0
  9  4  1  0  0  0  0
 13 14  1  0  0  0  0
 16 15  1  0  0  0  0
 17 18  1  0  0  0  0
 18 23  1  0  0  0  0
 19 20  1  0  0  0  0
 19 18  2  0  0  0  0
 20 21  2  0  0  0  0
 21 22  1  0  0  0  0
 22 25  1  0  0  0  0
 23 22  2  0  0  0  0
 24 19  1  0  0  0  0
 26 27  1  0  0  0  0
 26 20  1  0  0  0  0
 27 30  1  0  0  0  0
 28 33  1  0  0  0  0
 28 26  1  0  0  0  0
 28 27  1  0  0  0  0
 29 26  1  0  0  0  0
 31 27  1  0  0  0  0
 32 28  1  0  0  0  0
 35 34  1  0  0  0  0
 35 36  2  0  0  0  0
 37 42  1  0  0  0  0
 37 35  1  0  0  0  0
 38 37  2  0  0  0  0
 39 38  1  0  0  0  0
 40 41  2  0  0  0  0
 40 38  1  0  0  0  0
 41 42  1  0  0  0  0
M  END
>  <minimizedAffinity>
-5.72801208

$$$$

 OpenBabel03242523563D

 42 45  0  0  1  0  0  0  0  0999 V2000
   38.5260   30.4030   39.7030 C   0  0  1  0  0  0  0  0  0  0  0  0
   37.9120   30.8350   41.0250 C   0  0  1  0  0  0  0  0  0  0  0  0
   36.9690   31.8460   40.7680 O   0  0  0  0  0  0  0  0  0  0  0  0
   37.3580   32.6910   39.7260 C   0  0  0  0  0  0  0  0  0  0  0  0
   37.3250   31.9830   38.3840 C   0  0  2  0  0  0  0  0  0  0  0  0
   37.4220   30.4490   38.6980 C   0  0  1  0  0  0  0  0  0  0  0  0
   38.9810   29.3840   39.7950 H   0  0  0  0  0  0  0  0  0  0  0  0
   38.6590   31.1560   41.7660 H   0  0  0  0  0  0  0  0  0  0  0  0
   36.6140   33.4940   39.6910 H   0  0  0  0  0  0  0  0  0  0  0  0
   38.3380   33.1680   39.9210 H   0  0  0  0  0  0  0  0  0  0  0  0
   36.4010   32.1940   37.8250 H   0  0  0  0  0  0  0  0  0  0  0  0
   36.3980   30.3840   39.1970 H   0  0  0  0  0  0  0  0  0  0  0  0
   39.5710   31.2600   39.3300 O   0  0  0  0  0  0  0  0  0  0  0  0
   40.3670   31.1060   39.8630 H   0  0  0  0  0  0  0  0  0  0  0  0
   38.4810   32.2790   37.6750 O   0  0  0  0  0  0  0  0  0  0  0  0
   38.3360   33.0310   37.0300 H   0  0  0  0  0  0  0  0  0  0  0  0
   37.1360   29.7440   41.4480 O   0  0  0  0  0  0  0  0  0  0  0  0
   37.6190   28.6230   41.9980 C   0  0  0  0  0  0  0  0  0  0  0  0
   37.0270   27.3780   41.7380 C   0  0  0  0  0  0  0  0  0  0  0  0
   37.5700   26.2500   42.3320 C   0  0  0  0  0  0  0  0  0  0  0  0
   38.6720   26.3850   43.1590 N   0  0  0  0  0  0  0  0  0  0  0  0
   39.2150   27.6030   43.3850 C   0  0  0  0  0  0  0  0  0  0  0  0
   38.6910   28.7150   42.8080 N   0  0  0  0  0  0  0  0  0  0  0  0
   36.1710   27.2660   41.0960 H   0  0  0  0  0  0  0  0  0  0  0  0
   40.0740   27.6320   44.0430 H   0  0  0  0  0  0  0  0  0  0  0  0
   36.9870   24.8920   42.1160 C   0  0  0  0  0  0  0  0  0  0  0  0
   36.6540   24.5100   40.6730 C   0  0  0  0  0  0  0  0  0  0  0  0
   37.7530   23.8430   41.5220 C   0  0  0  0  0  0  0  0  0  0  0  0
   36.1480   24.6580   42.8310 H   0  0  0  0  0  0  0  0  0  0  0  0
   37.0170   25.1630   39.8790 H   0  0  0  0  0  0  0  0  0  0  0  0
   35.7760   23.8580   40.5060 H   0  0  0  0  0  0  0  0  0  0  0  0
   37.6080   22.7850   41.8240 H   0  0  0  0  0  0  0  0  0  0  0  0
   38.8070   24.0560   41.2170 H   0  0  0  0  0  0  0  0  0  0  0  0
   37.6180   29.8090   37.5290 O   0  0  0  0  0  0  0  0  0  0  0  0
   36.7890   29.0690   36.7960 C   0  0  0  0  0  0  0  0  0  0  0  0
   37.2020   28.1000   35.9950 O   0  0  0  0  0  0  0  0  0  0  0  0
   35.2120   29.0510   36.6210 C   0  0  0  0  0  0  0  0  0  0  0  0
   34.2390   28.9780   37.4590 C   0  0  0  0  0  0  0  0  0  0  0  0
   34.5400   28.9240   38.5000 H   0  0  0  0  0  0  0  0  0  0  0  0
   32.9560   28.9730   37.0130 C   0  0  0  0  0  3  0  0  0  0  0  0
   32.7840   29.0490   35.6270 C   0  0  0  0  0  3  0  0  0  0  0  0
   34.6100   29.1300   35.0230 S   0  0  0  0  0  0  0  0  0  0  0  0
  1  7  1  1  0  0  0
  1  2  1  0  0  0  0
  2 17  1  0  0  0  0
  2  8  1  1  0  0  0
  3  2  1  0  0  0  0
  4 10  1  0  0  0  0
  4  3  1  0  0  0  0
  5 11  1  6  0  0  0
  5  6  1  0  0  0  0
  5  4  1  0  0  0  0
  6 12  1  1  0  0  0
  6  1  1  0  0  0  0
  9  4  1  0  0  0  0
 13  1  1  0  0  0  0
 13 14  1  0  0  0  0
 15  5  1  0  0  0  0
 16 15  1  0  0  0  0
 17 18  1  0  0  0  0
 18 23  1  0  0  0  0
 19 18  2  0  0  0  0
 19 20  1  0  0  0  0
 20 21  2  0  0  0  0
 21 22  1  0  0  0  0
 22 25  1  0  0  0  0
 23 22  2  0  0  0  0
 24 19  1  0  0  0  0
 26 20  1  0  0  0  0
 26 29  1  0  0  0  0
 27 28  1  0  0  0  0
 27 26  1  0  0  0  0
 28 32  1  0  0  0  0
 28 26  1  0  0  0  0
 30 27  1  0  0  0  0
 31 27  1  0  0  0  0
 33 28  1  0  0  0  0
 34  6  1  0  0  0  0
 35 34  1  0  0  0  0
 36 35  2  0  0  0  0
 37 35  1  0  0  0  0
 37 38  2  0  0  0  0
 38 39  1  0  0  0  0
 40 38  1  0  0  0  0
 41 40  2  0  0  0  0
 42 41  1  0  0  0  0
 42 37  1  0  0  0  0
M  END
>  <minimizedAffinity>
-5.69264889

$$$$

 OpenBabel03242523563D

 42 45  0  0  1  0  0  0  0  0999 V2000
   38.7170   31.4190   39.9830 C   0  0  1  0  0  0  0  0  0  0  0  0
   39.6640   32.1390   40.9300 C   0  0  1  0  0  0  0  0  0  0  0  0
   39.2060   33.4580   41.0980 O   0  0  0  0  0  0  0  0  0  0  0  0
   38.6500   33.9870   39.9310 C   0  0  0  0  0  0  0  0  0  0  0  0
   37.3340   33.3170   39.5790 C   0  0  2  0  0  0  0  0  0  0  0  0
   37.3480   31.9240   40.3010 C   0  0  1  0  0  0  0  0  0  0  0  0
   38.8050   30.3100   40.1070 H   0  0  0  0  0  0  0  0  0  0  0  0
   40.7120   32.1130   40.5990 H   0  0  0  0  0  0  0  0  0  0  0  0
   38.4350   35.0400   40.1440 H   0  0  0  0  0  0  0  0  0  0  0  0
   39.3650   33.9690   39.0850 H   0  0  0  0  0  0  0  0  0  0  0  0
   36.4660   33.9040   39.9150 H   0  0  0  0  0  0  0  0  0  0  0  0
   37.2950   32.3570   41.3550 H   0  0  0  0  0  0  0  0  0  0  0  0
   39.0450   31.6860   38.6460 O   0  0  0  0  0  0  0  0  0  0  0  0
   39.8430   31.2060   38.3710 H   0  0  0  0  0  0  0  0  0  0  0  0
   37.3110   33.0210   38.2240 O   0  0  0  0  0  0  0  0  0  0  0  0
   36.8350   33.7280   37.7000 H   0  0  0  0  0  0  0  0  0  0  0  0
   39.4570   31.5440   42.1850 O   0  0  0  0  0  0  0  0  0  0  0  0
   39.7510   30.2750   42.4920 C   0  0  0  0  0  0  0  0  0  0  0  0
   38.7400   29.3570   42.8130 C   0  0  0  0  0  0  0  0  0  0  0  0
   39.1010   28.0560   43.1220 C   0  0  0  0  0  0  0  0  0  0  0  0
   40.4390   27.7020   43.1040 N   0  0  0  0  0  0  0  0  0  0  0  0
   41.3860   28.6160   42.7890 C   0  0  0  0  0  0  0  0  0  0  0  0
   41.0430   29.8950   42.4860 N   0  0  0  0  0  0  0  0  0  0  0  0
   37.6980   29.6250   42.8290 H   0  0  0  0  0  0  0  0  0  0  0  0
   42.4110   28.2690   42.7960 H   0  0  0  0  0  0  0  0  0  0  0  0
   38.0840   27.0240   43.4890 C   0  0  0  0  0  0  0  0  0  0  0  0
   36.6490   27.5160   43.6800 C   0  0  0  0  0  0  0  0  0  0  0  0
   37.1080   26.5790   42.5460 C   0  0  0  0  0  0  0  0  0  0  0  0
   38.4270   26.3520   44.3250 H   0  0  0  0  0  0  0  0  0  0  0  0
   36.4160   28.5350   43.3690 H   0  0  0  0  0  0  0  0  0  0  0  0
   36.0310   27.0070   44.4430 H   0  0  0  0  0  0  0  0  0  0  0  0
   36.7400   25.5320   42.5530 H   0  0  0  0  0  0  0  0  0  0  0  0
   37.1170   27.0180   41.5190 H   0  0  0  0  0  0  0  0  0  0  0  0
   36.3010   31.2170   39.8340 O   0  0  0  0  0  0  0  0  0  0  0  0
   36.0390   29.9130   39.8920 C   0  0  0  0  0  0  0  0  0  0  0  0
   35.4620   29.3370   40.9340 O   0  0  0  0  0  0  0  0  0  0  0  0
   36.2720   28.7110   38.8820 C   0  0  0  0  0  0  0  0  0  0  0  0
   36.2150   27.4340   39.0140 C   0  0  0  0  0  0  0  0  0  0  0  0
   35.9470   27.0910   40.0080 H   0  0  0  0  0  0  0  0  0  0  0  0
   36.4790   26.6280   37.9530 C   0  0  0  0  0  3  0  0  0  0  0  0
   36.8060   27.2720   36.7550 C   0  0  0  0  0  3  0  0  0  0  0  0
   36.7020   29.1210   37.2790 S   0  0  0  0  0  0  0  0  0  0  0  0
  1  7  1  1  0  0  0
  1  6  1  0  0  0  0
  1  2  1  0  0  0  0
  2  8  1  6  0  0  0
  2  3  1  0  0  0  0
  2 17  1  0  0  0  0
  4  9  1  0  0  0  0
  4  3  1  0  0  0  0
  5 11  1  1  0  0  0
  5  4  1  0  0  0  0
  5  6  1  0  0  0  0
  6 12  1  1  0  0  0
 10  4  1  0  0  0  0
 13  1  1  0  0  0  0
 14 13  1  0  0  0  0
 15  5  1  0  0  0  0
 16 15  1  0  0  0  0
 17 18  1  0  0  0  0
 18 19  1  0  0  0  0
 19 24  1  0  0  0  0
 19 20  2  0  0  0  0
 20 26  1  0  0  0  0
 21 20  1  0  0  0  0
 22 25  1  0  0  0  0
 22 21  2  0  0  0  0
 23 18  2  0  0  0  0
 23 22  1  0  0  0  0
 26 27  1  0  0  0  0
 26 29  1  0  0  0  0
 27 31  1  0  0  0  0
 28 32  1  0  0  0  0
 28 26  1  0  0  0  0
 28 27  1  0  0  0  0
 30 27  1  0  0  0  0
 33 28  1  0  0  0  0
 34 35  1  0  0  0  0
 34  6  1  0  0  0  0
 35 36  2  0  0  0  0
 37 38  2  0  0  0  0
 37 35  1  0  0  0  0
 38 39  1  0  0  0  0
 40 38  1  0  0  0  0
 41 42  1  0  0  0  0
 41 40  2  0  0  0  0
 42 37  1  0  0  0  0
M  END
>  <minimizedAffinity>
-5.68094158

$$$$

 OpenBabel03242523563D

 42 45  0  0  1  0  0  0  0  0999 V2000
   37.7060   32.1560   40.6160 C   0  0  1  0  0  0  0  0  0  0  0  0
   37.0660   30.8230   40.9710 C   0  0  1  0  0  0  0  0  0  0  0  0
   36.9600   30.0560   39.7970 O   0  0  0  0  0  0  0  0  0  0  0  0
   36.6750   30.8330   38.6710 C   0  0  0  0  0  0  0  0  0  0  0  0
   37.8500   31.7110   38.2800 C   0  0  2  0  0  0  0  0  0  0  0  0
   38.7300   31.8610   39.5700 C   0  0  1  0  0  0  0  0  0  0  0  0
   38.1480   32.6340   41.5270 H   0  0  0  0  0  0  0  0  0  0  0  0
   36.0940   30.9290   41.4750 H   0  0  0  0  0  0  0  0  0  0  0  0
   36.5050   30.1280   37.8490 H   0  0  0  0  0  0  0  0  0  0  0  0
   35.7420   31.4170   38.7940 H   0  0  0  0  0  0  0  0  0  0  0  0
   38.4470   31.2690   37.4680 H   0  0  0  0  0  0  0  0  0  0  0  0
   39.0540   30.7670   39.5970 H   0  0  0  0  0  0  0  0  0  0  0  0
   36.7500   33.0600   40.1320 O   0  0  0  0  0  0  0  0  0  0  0  0
   36.1910   33.4060   40.8460 H   0  0  0  0  0  0  0  0  0  0  0  0
   37.3980   32.9930   38.0010 O   0  0  0  0  0  0  0  0  0  0  0  0
   37.2580   33.1290   37.0200 H   0  0  0  0  0  0  0  0  0  0  0  0
   38.0260   30.1420   41.7370 O   0  0  0  0  0  0  0  0  0  0  0  0
   37.9410   28.8600   42.1120 C   0  0  0  0  0  0  0  0  0  0  0  0
   39.0250   27.9860   41.9410 C   0  0  0  0  0  0  0  0  0  0  0  0
   38.8840   26.6690   42.3490 C   0  0  0  0  0  0  0  0  0  0  0  0
   37.6860   26.2590   42.9080 N   0  0  0  0  0  0  0  0  0  0  0  0
   36.6640   27.1320   43.0570 C   0  0  0  0  0  0  0  0  0  0  0  0
   36.7910   28.4250   42.6600 N   0  0  0  0  0  0  0  0  0  0  0  0
   39.9590   28.2980   41.5070 H   0  0  0  0  0  0  0  0  0  0  0  0
   35.7580   26.7410   43.5010 H   0  0  0  0  0  0  0  0  0  0  0  0
   39.9870   25.6740   42.1860 C   0  0  0  0  0  0  0  0  0  0  0  0
   40.9810   25.5590   43.3420 C   0  0  0  0  0  0  0  0  0  0  0  0
   39.9960   24.4510   42.9240 C   0  0  0  0  0  0  0  0  0  0  0  0
   40.4930   25.7450   41.1830 H   0  0  0  0  0  0  0  0  0  0  0  0
   40.7360   26.0670   44.2750 H   0  0  0  0  0  0  0  0  0  0  0  0
   42.0330   25.3240   43.0910 H   0  0  0  0  0  0  0  0  0  0  0  0
   40.4120   23.5200   42.4870 H   0  0  0  0  0  0  0  0  0  0  0  0
   39.1560   24.2480   43.6330 H   0  0  0  0  0  0  0  0  0  0  0  0
   39.6550   32.8070   39.3200 O   0  0  0  0  0  0  0  0  0  0  0  0
   40.8980   32.9480   39.7770 C   0  0  0  0  0  0  0  0  0  0  0  0
   41.2240   32.7850   41.0480 O   0  0  0  0  0  0  0  0  0  0  0  0
   42.2780   33.3040   39.0800 C   0  0  0  0  0  0  0  0  0  0  0  0
   42.6910   33.2300   37.8650 C   0  0  0  0  0  0  0  0  0  0  0  0
   41.9570   32.8570   37.1580 H   0  0  0  0  0  0  0  0  0  0  0  0
   43.9590   33.6050   37.5520 C   0  0  0  0  0  3  0  0  0  0  0  0
   44.7480   34.0580   38.6140 C   0  0  0  0  0  3  0  0  0  0  0  0
   43.5220   33.9020   40.0900 S   0  0  0  0  0  0  0  0  0  0  0  0
  1  2  1  0  0  0  0
  1  7  1  1  0  0  0
  2  8  1  1  0  0  0
  2 17  1  0  0  0  0
  3  2  1  0  0  0  0
  4 10  1  0  0  0  0
  4  3  1  0  0  0  0
  5 11  1  6  0  0  0
  5  4  1  0  0  0  0
  5  6  1  0  0  0  0
  6 12  1  1  0  0  0
  6  1  1  0  0  0  0
  9  4  1  0  0  0  0
 13  1  1  0  0  0  0
 13 14  1  0  0  0  0
 15  5  1  0  0  0  0
 16 15  1  0  0  0  0
 17 18  1  0  0  0  0
 18 23  1  0  0  0  0
 19 18  2  0  0  0  0
 19 20  1  0  0  0  0
 20 21  2  0  0  0  0
 21 22  1  0  0  0  0
 22 25  1  0  0  0  0
 23 22  2  0  0  0  0
 24 19  1  0  0  0  0
 26 20  1  0  0  0  0
 26 28  1  0  0  0  0
 26 27  1  0  0  0  0
 27 30  1  0  0  0  0
 28 27  1  0  0  0  0
 28 33  1  0  0  0  0
 29 26  1  0  0  0  0
 31 27  1  0  0  0  0
 32 28  1  0  0  0  0
 34  6  1  0  0  0  0
 34 35  1  0  0  0  0
 35 36  2  0  0  0  0
 37 35  1  0  0  0  0
 37 42  1  0  0  0  0
 38 37  2  0  0  0  0
 39 38  1  0  0  0  0
 40 38  1  0  0  0  0
 40 41  2  0  0  0  0
 41 42  1  0  0  0  0
M  END
>  <minimizedAffinity>
-5.67831469

$$$$

 OpenBabel03242523563D

 42 45  0  0  1  0  0  0  0  0999 V2000
   35.6480   28.7800   40.1030 C   0  0  1  0  0  0  0  0  0  0  0  0
   36.0590   28.8140   38.6400 C   0  0  1  0  0  0  0  0  0  0  0  0
   36.9180   29.9110   38.4450 O   0  0  0  0  0  0  0  0  0  0  0  0
   36.5680   31.0140   39.2270 C   0  0  0  0  0  0  0  0  0  0  0  0
   36.8260   30.7630   40.7020 C   0  0  2  0  0  0  0  0  0  0  0  0
   36.8500   29.2040   40.8820 C   0  0  1  0  0  0  0  0  0  0  0  0
   35.2910   27.7580   40.3870 H   0  0  0  0  0  0  0  0  0  0  0  0
   35.2030   28.8420   37.9490 H   0  0  0  0  0  0  0  0  0  0  0  0
   37.2250   31.8310   38.9140 H   0  0  0  0  0  0  0  0  0  0  0  0
   35.5280   31.3440   39.0370 H   0  0  0  0  0  0  0  0  0  0  0  0
   37.7820   31.1930   41.0350 H   0  0  0  0  0  0  0  0  0  0  0  0
   37.8110   29.0500   40.2870 H   0  0  0  0  0  0  0  0  0  0  0  0
   34.5710   29.6450   40.3430 O   0  0  0  0  0  0  0  0  0  0  0  0
   33.7390   29.2840   39.9990 H   0  0  0  0  0  0  0  0  0  0  0  0
   35.7350   31.1950   41.4440 O   0  0  0  0  0  0  0  0  0  0  0  0
   35.8770   32.1170   41.8050 H   0  0  0  0  0  0  0  0  0  0  0  0
   36.8880   27.6950   38.4600 O   0  0  0  0  0  0  0  0  0  0  0  0
   36.4860   26.4200   38.5350 C   0  0  0  0  0  0  0  0  0  0  0  0
   37.0570   25.5380   39.4640 C   0  0  0  0  0  0  0  0  0  0  0  0
   36.6020   24.2290   39.4990 C   0  0  0  0  0  0  0  0  0  0  0  0
   35.6050   23.8360   38.6230 N   0  0  0  0  0  0  0  0  0  0  0  0
   35.0800   24.7170   37.7420 C   0  0  0  0  0  0  0  0  0  0  0  0
   35.5190   26.0020   37.6980 N   0  0  0  0  0  0  0  0  0  0  0  0
   37.8320   25.8370   40.1480 H   0  0  0  0  0  0  0  0  0  0  0  0
   34.3050   24.3380   37.0870 H   0  0  0  0  0  0  0  0  0  0  0  0
   37.1700   23.2260   40.4490 C   0  0  0  0  0  0  0  0  0  0  0  0
   37.5700   21.8730   39.8580 C   0  0  0  0  0  0  0  0  0  0  0  0
   38.5610   22.9000   40.4380 C   0  0  0  0  0  0  0  0  0  0  0  0
   36.5620   23.1250   41.3920 H   0  0  0  0  0  0  0  0  0  0  0  0
   37.5860   21.7790   38.7720 H   0  0  0  0  0  0  0  0  0  0  0  0
   37.4450   20.9790   40.4970 H   0  0  0  0  0  0  0  0  0  0  0  0
   39.0960   22.6380   41.3740 H   0  0  0  0  0  0  0  0  0  0  0  0
   39.2250   23.4130   39.7000 H   0  0  0  0  0  0  0  0  0  0  0  0
   36.8550   28.9500   42.2050 O   0  0  0  0  0  0  0  0  0  0  0  0
   37.1280   27.8320   42.8720 C   0  0  0  0  0  0  0  0  0  0  0  0
   36.2490   27.2210   43.6490 O   0  0  0  0  0  0  0  0  0  0  0  0
   38.4200   26.9170   42.9790 C   0  0  0  0  0  0  0  0  0  0  0  0
   38.5940   25.6430   42.9770 C   0  0  0  0  0  0  0  0  0  0  0  0
   37.6840   25.0610   42.8740 H   0  0  0  0  0  0  0  0  0  0  0  0
   39.8450   25.1260   43.0970 C   0  0  0  0  0  3  0  0  0  0  0  0
   40.8860   26.0520   43.2190 C   0  0  0  0  0  3  0  0  0  0  0  0
   39.9220   27.7170   43.1470 S   0  0  0  0  0  0  0  0  0  0  0  0
  1 13  1  0  0  0  0
  1  7  1  1  0  0  0
  1  6  1  0  0  0  0
  2  8  1  6  0  0  0
  2  1  1  0  0  0  0
  3  2  1  0  0  0  0
  3  4  1  0  0  0  0
  4  5  1  0  0  0  0
  5  6  1  0  0  0  0
  5 11  1  1  0  0  0
  5 15  1  0  0  0  0
  6 12  1  6  0  0  0
  6 34  1  0  0  0  0
  9  4  1  0  0  0  0
 10  4  1  0  0  0  0
 14 13  1  0  0  0  0
 15 16  1  0  0  0  0
 17 18  1  0  0  0  0
 17  2  1  0  0  0  0
 18 19  1  0  0  0  0
 19 20  2  0  0  0  0
 19 24  1  0  0  0  0
 20 26  1  0  0  0  0
 21 20  1  0  0  0  0
 22 21  2  0  0  0  0
 23 22  1  0  0  0  0
 23 18  2  0  0  0  0
 25 22  1  0  0  0  0
 26 29  1  0  0  0  0
 27 28  1  0  0  0  0
 27 26  1  0  0  0  0
 27 31  1  0  0  0  0
 28 26  1  0  0  0  0
 28 32  1  0  0  0  0
 30 27  1  0  0  0  0
 33 28  1  0  0  0  0
 34 35  1  0  0  0  0
 35 37  1  0  0  0  0
 35 36  2  0  0  0  0
 37 42  1  0  0  0  0
 38 37  2  0  0  0  0
 38 40  1  0  0  0  0
 39 38  1  0  0  0  0
 40 41  2  0  0  0  0
 42 41  1  0  0  0  0
M  END
>  <minimizedAffinity>
-5.61345243

$$$$

 OpenBabel03242523563D

 42 45  0  0  1  0  0  0  0  0999 V2000
   37.5980   31.7720   39.9250 C   0  0  1  0  0  0  0  0  0  0  0  0
   38.0740   31.8480   38.4830 C   0  0  1  0  0  0  0  0  0  0  0  0
   39.3920   32.3390   38.4760 O   0  0  0  0  0  0  0  0  0  0  0  0
   39.6150   33.2970   39.4690 C   0  0  0  0  0  0  0  0  0  0  0  0
   39.5910   32.6850   40.8570 C   0  0  2  0  0  0  0  0  0  0  0  0
   38.7810   31.3470   40.7310 C   0  0  1  0  0  0  0  0  0  0  0  0
   36.7380   31.0610   40.0170 H   0  0  0  0  0  0  0  0  0  0  0  0
   37.4150   32.4500   37.8400 H   0  0  0  0  0  0  0  0  0  0  0  0
   40.6240   33.6850   39.2980 H   0  0  0  0  0  0  0  0  0  0  0  0
   38.9200   34.1550   39.3810 H   0  0  0  0  0  0  0  0  0  0  0  0
   40.6030   32.4770   41.2360 H   0  0  0  0  0  0  0  0  0  0  0  0
   39.5610   30.8190   40.0860 H   0  0  0  0  0  0  0  0  0  0  0  0
   37.1200   33.0150   40.3630 O   0  0  0  0  0  0  0  0  0  0  0  0
   36.2500   33.2180   39.9830 H   0  0  0  0  0  0  0  0  0  0  0  0
   38.8370   33.4850   41.7040 O   0  0  0  0  0  0  0  0  0  0  0  0
   39.4130   34.1100   42.2320 H   0  0  0  0  0  0  0  0  0  0  0  0
   38.2050   30.5150   38.0630 O   0  0  0  0  0  0  0  0  0  0  0  0
   37.2790   29.5630   38.2290 C   0  0  0  0  0  0  0  0  0  0  0  0
   37.5370   28.4360   39.0240 C   0  0  0  0  0  0  0  0  0  0  0  0
   36.5420   27.4810   39.1620 C   0  0  0  0  0  0  0  0  0  0  0  0
   35.3320   27.6670   38.5160 N   0  0  0  0  0  0  0  0  0  0  0  0
   35.1200   28.7680   37.7590 C   0  0  0  0  0  0  0  0  0  0  0  0
   36.0890   29.7100   37.6160 N   0  0  0  0  0  0  0  0  0  0  0  0
   38.4750   28.2850   39.5280 H   0  0  0  0  0  0  0  0  0  0  0  0
   34.1510   28.8460   37.2840 H   0  0  0  0  0  0  0  0  0  0  0  0
   36.7460   26.2470   39.9780 C   0  0  0  0  0  0  0  0  0  0  0  0
   36.3340   24.9230   39.3330 C   0  0  0  0  0  0  0  0  0  0  0  0
   37.7850   25.3170   39.6680 C   0  0  0  0  0  0  0  0  0  0  0  0
   36.3640   26.3530   41.0320 H   0  0  0  0  0  0  0  0  0  0  0  0
   36.0880   24.9320   38.2710 H   0  0  0  0  0  0  0  0  0  0  0  0
   35.9330   24.1340   39.9960 H   0  0  0  0  0  0  0  0  0  0  0  0
   38.3080   24.7530   40.4680 H   0  0  0  0  0  0  0  0  0  0  0  0
   38.4510   25.5300   38.7960 H   0  0  0  0  0  0  0  0  0  0  0  0
   38.5540   30.8930   41.9790 O   0  0  0  0  0  0  0  0  0  0  0  0
   38.2700   29.6700   42.4180 C   0  0  0  0  0  0  0  0  0  0  0  0
   37.0340   29.2200   42.5560 O   0  0  0  0  0  0  0  0  0  0  0  0
   39.1670   28.4430   42.8760 C   0  0  0  0  0  0  0  0  0  0  0  0
   38.8870   27.2860   43.3600 C   0  0  0  0  0  0  0  0  0  0  0  0
   37.8270   27.0880   43.4780 H   0  0  0  0  0  0  0  0  0  0  0  0
   39.8850   26.4210   43.6770 C   0  0  0  0  0  3  0  0  0  0  0  0
   41.1890   26.8710   43.4460 C   0  0  0  0  0  3  0  0  0  0  0  0
   40.8610   28.6310   42.7390 S   0  0  0  0  0  0  0  0  0  0  0  0
  1  7  1  1  0  0  0
  1 13  1  0  0  0  0
  1  6  1  0  0  0  0
  2  8  1  6  0  0  0
  2  1  1  0  0  0  0
  3  2  1  0  0  0  0
  3  4  1  0  0  0  0
  4  5  1  0  0  0  0
  5 11  1  1  0  0  0
  5 15  1  0  0  0  0
  6 12  1  6  0  0  0
  6  5  1  0  0  0  0
  6 34  1  0  0  0  0
  9  4  1  0  0  0  0
 10  4  1  0  0  0  0
 14 13  1  0  0  0  0
 15 16  1  0  0  0  0
 17 18  1  0  0  0  0
 17  2  1  0  0  0  0
 18 19  1  0  0  0  0
 19 20  2  0  0  0  0
 19 24  1  0  0  0  0
 20 26  1  0  0  0  0
 21 20  1  0  0  0  0
 22 21  2  0  0  0  0
 23 22  1  0  0  0  0
 23 18  2  0  0  0  0
 25 22  1  0  0  0  0
 26 29  1  0  0  0  0
 27 28  1  0  0  0  0
 27 26  1  0  0  0  0
 27 31  1  0  0  0  0
 28 26  1  0  0  0  0
 28 32  1  0  0  0  0
 30 27  1  0  0  0  0
 33 28  1  0  0  0  0
 34 35  1  0  0  0  0
 35 36  2  0  0  0  0
 35 37  1  0  0  0  0
 37 38  2  0  0  0  0
 38 39  1  0  0  0  0
 38 40  1  0  0  0  0
 41 40  2  0  0  0  0
 42 37  1  0  0  0  0
 42 41  1  0  0  0  0
M  END
>  <minimizedAffinity>
-5.59129477

$$$$
