
 OpenBabel03252503533D

 33 35  0  0  1  0  0  0  0  0999 V2000
   46.8360   32.7330   45.1690 N   0  0  0  0  0  0  0  0  0  0  0  0
   46.4950   33.0140   46.5600 C   0  0  0  0  0  0  0  0  0  0  0  0
   47.2640   32.0020   47.4000 C   0  0  0  0  0  0  0  0  0  0  0  0
   46.6220   30.6560   47.1760 C   0  0  0  0  0  0  0  0  0  0  0  0
   46.7260   30.3610   45.7060 C   0  0  0  0  0  0  0  0  0  0  0  0
   47.2680   31.4240   44.8610 C   0  0  1  0  0  0  0  0  0  0  0  0
   46.7540   34.0550   46.8330 H   0  0  0  0  0  0  0  0  0  0  0  0
   45.3970   32.8670   46.6430 H   0  0  0  0  0  0  0  0  0  0  0  0
   47.1570   32.2110   48.4790 H   0  0  0  0  0  0  0  0  0  0  0  0
   48.3220   32.0250   47.0670 H   0  0  0  0  0  0  0  0  0  0  0  0
   45.5450   30.7720   47.4290 H   0  0  0  0  0  0  0  0  0  0  0  0
   47.0410   29.8640   47.8240 H   0  0  0  0  0  0  0  0  0  0  0  0
   45.7580   29.9190   45.3260 H   0  0  0  0  0  0  0  0  0  0  0  0
   47.4340   29.4810   45.6360 H   0  0  0  0  0  0  0  0  0  0  0  0
   48.3260   31.3310   44.5700 H   0  0  0  0  0  0  0  0  0  0  0  0
   47.6000   34.9960   42.3470 C   0  0  0  0  0  0  0  0  0  0  0  0
   47.7880   34.0380   43.3500 C   0  0  0  0  0  0  0  0  0  0  0  0
   46.7270   33.7060   44.1750 C   0  0  0  0  0  0  0  0  0  0  0  0
   45.5370   34.3340   43.9760 N   0  0  0  0  0  0  0  0  0  0  0  0
   45.3570   35.2660   43.0010 C   0  0  0  0  0  0  0  0  0  0  0  0
   46.3890   35.5920   42.1910 N   0  0  0  0  0  0  0  0  0  0  0  0
   48.7700   33.6130   43.4510 H   0  0  0  0  0  0  0  0  0  0  0  0
   44.3770   35.7330   42.8950 H   0  0  0  0  0  0  0  0  0  0  0  0
   48.7640   35.3050   41.4630 C   0  0  0  0  0  0  0  0  0  0  0  0
   48.4210   35.2170   40.1180 F   0  0  0  0  0  0  0  0  0  0  0  0
   49.2100   36.5700   41.7860 F   0  0  0  0  0  0  0  0  0  0  0  0
   49.7970   34.4120   41.7280 F   0  0  0  0  0  0  0  0  0  0  0  0
   46.5790   31.1230   43.4540 C   0  0  0  0  0  0  0  0  0  0  0  0
   47.3670   30.9500   42.2110 C   0  0  0  0  0  0  0  0  0  0  0  0
   48.4380   31.0040   42.2830 H   0  0  0  0  0  0  0  0  0  0  0  0
   46.5360   30.7410   41.1460 C   0  0  0  0  0  0  0  0  0  0  0  0
   45.1780   30.6980   41.2170 C   0  0  0  0  0  0  0  0  0  0  0  0
   44.9020   30.9940   43.0740 S   0  0  0  0  0  0  0  0  0  0  0  0
  1  2  1  0  0  0  0
  2  8  1  0  0  0  0
  2  7  1  0  0  0  0
  2  3  1  0  0  0  0
  3  9  1  0  0  0  0
  4  3  1  0  0  0  0
  4 11  1  0  0  0  0
  4 12  1  0  0  0  0
  5  4  1  0  0  0  0
  6 15  1  6  0  0  0
  6  1  1  0  0  0  0
  6  5  1  0  0  0  0
 10  3  1  0  0  0  0
 13  5  1  0  0  0  0
 14  5  1  0  0  0  0
 16 17  1  0  0  0  0
 17 22  1  0  0  0  0
 17 18  2  0  0  0  0
 18  1  1  0  0  0  0
 19 18  1  0  0  0  0
 20 19  2  0  0  0  0
 21 16  2  0  0  0  0
 21 20  1  0  0  0  0
 23 20  1  0  0  0  0
 24 27  1  0  0  0  0
 24 26  1  0  0  0  0
 24 16  1  0  0  0  0
 25 24  1  0  0  0  0
 28  6  1  0  0  0  0
 29 30  1  0  0  0  0
 29 28  2  0  0  0  0
 31 32  2  0  0  0  0
 31 29  1  0  0  0  0
 32 33  1  0  0  0  0
 33 28  1  0  0  0  0
M  END
>  <minimizedAffinity>
-5.13862991

>  <minimizedRMSD>
1.80234551

$$$$
