
 OpenBabel03252505213D

 25 27  0  0  0  0  0  0  0  0999 V2000
   46.9430   33.5130   45.0810 F   0  0  0  0  0  0  0  0  0  0  0  0
   47.3900   32.2650   44.7790 C   0  0  0  0  0  0  0  0  0  0  0  0
   48.0420   32.0950   43.5620 C   0  0  0  0  0  0  0  0  0  0  0  0
   48.5070   30.8600   43.2200 C   0  0  0  0  0  0  0  0  0  0  0  0
   48.3310   29.7940   44.0670 C   0  0  0  0  0  0  0  0  0  0  0  0
   47.6830   29.9390   45.2850 C   0  0  0  0  0  0  0  0  0  0  0  0
   47.2160   31.2020   45.6210 C   0  0  0  0  0  0  0  0  0  0  0  0
   49.0190   30.6950   42.2810 H   0  0  0  0  0  0  0  0  0  0  0  0
   48.6920   28.8060   43.8130 H   0  0  0  0  0  0  0  0  0  0  0  0
   47.5450   29.0830   45.9590 H   0  0  0  0  0  0  0  0  0  0  0  0
   49.3630   35.1790   42.0830 C   0  0  0  0  0  0  0  0  0  0  0  0
   48.5220   35.3900   40.9680 C   0  0  0  0  0  0  0  0  0  0  0  0
   47.5140   34.4570   40.7530 C   0  0  0  0  0  0  0  0  0  0  0  0
   47.4070   33.4140   41.6230 N   0  0  0  0  0  0  0  0  0  0  0  0
   48.2210   33.2450   42.6700 C   0  0  0  0  0  0  0  0  0  0  0  0
   49.2050   34.1290   42.9040 N   0  0  0  0  0  0  0  0  0  0  0  0
   50.1490   35.9000   42.2570 H   0  0  0  0  0  0  0  0  0  0  0  0
   48.6740   36.2390   40.3330 H   0  0  0  0  0  0  0  0  0  0  0  0
   46.8410   34.5680   39.9160 H   0  0  0  0  0  0  0  0  0  0  0  0
   46.5560   31.3730   46.8510 C   0  0  0  0  0  0  0  0  0  0  0  0
   46.6690   32.2980   47.8390 C   0  0  0  0  0  0  0  0  0  0  0  0
   47.3990   33.0830   47.7030 H   0  0  0  0  0  0  0  0  0  0  0  0
   45.8860   32.2300   48.9620 C   0  0  0  0  0  0  0  0  0  0  0  0
   44.9640   31.1650   49.0430 C   0  0  0  0  0  0  0  0  0  0  0  0
   45.2860   30.2600   47.4100 S   0  0  0  0  0  0  0  0  0  0  0  0
  2  1  1  0  0  0  0
  2  7  1  0  0  0  0
  3  2  2  0  0  0  0
  4  3  1  0  0  0  0
  4  5  2  0  0  0  0
  5  6  1  0  0  0  0
  6  7  2  0  0  0  0
  6 10  1  0  0  0  0
  7 20  1  0  0  0  0
  8  4  1  0  0  0  0
  9  5  1  0  0  0  0
 11 17  1  0  0  0  0
 11 16  1  0  0  0  0
 12 11  2  0  0  0  0
 13 12  1  0  0  0  0
 13 14  2  0  0  0  0
 14 15  1  0  0  0  0
 15 16  2  0  0  0  0
 15  3  1  0  0  0  0
 18 12  1  0  0  0  0
 19 13  1  0  0  0  0
 20 25  1  0  0  0  0
 20 21  2  0  0  0  0
 21 23  1  0  0  0  0
 22 21  1  0  0  0  0
 23 24  2  0  0  0  0
 25 24  1  0  0  0  0
M  END
>  <minimizedAffinity>
-4.89790154

>  <minimizedRMSD>
3.76399112

$$$$
