
 OpenBabel03242518203D

 27 29  0  0  0  0  0  0  0  0999 V2000
   39.4410   30.0630   42.5280 C   0  0  0  0  0  0  0  0  0  0  0  0
   40.4240   29.8460   42.0550 H   0  0  0  0  0  0  0  0  0  0  0  0
   39.6640   30.4880   43.5350 H   0  0  0  0  0  0  0  0  0  0  0  0
   38.7700   33.1410   40.6600 C   0  0  0  0  0  0  0  0  0  0  0  0
   37.5390   32.8930   40.0290 C   0  0  0  0  0  0  0  0  0  0  0  0
   36.9440   31.6730   40.2460 C   0  0  0  0  0  0  0  0  0  0  0  0
   37.5640   30.7700   41.0520 N   0  0  0  0  0  0  0  0  0  0  0  0
   38.7510   31.0370   41.6460 C   0  0  0  0  0  0  0  0  0  0  0  0
   39.3570   32.2390   41.4450 N   0  0  0  0  0  0  0  0  0  0  0  0
   39.2730   34.0920   40.5150 H   0  0  0  0  0  0  0  0  0  0  0  0
   36.0150   31.4880   39.7690 H   0  0  0  0  0  0  0  0  0  0  0  0
   37.0310   33.9370   39.2260 N   0  0  0  0  0  0  0  0  0  0  0  0
   35.9960   34.0720   39.1420 H   0  0  0  0  0  0  0  0  0  0  0  0
   37.6300   34.5870   38.7060 H   0  0  0  0  0  0  0  0  0  0  0  0
   38.6180   28.8060   42.6780 C   0  0  0  0  0  0  0  0  0  0  0  0
   37.6140   28.6360   43.5970 C   0  0  0  0  0  0  0  0  0  0  0  0
   37.0990   27.3680   43.4320 C   0  0  0  0  0  0  0  0  0  0  0  0
   37.8470   26.8210   42.3850 C   0  0  0  0  0  0  0  0  0  0  0  0
   38.7010   27.7090   42.0040 O   0  0  0  0  0  0  0  0  0  0  0  0
   37.2240   29.3040   44.3490 H   0  0  0  0  0  0  0  0  0  0  0  0
   36.3360   26.7860   43.8860 H   0  0  0  0  0  0  0  0  0  0  0  0
   37.7670   25.5010   41.7530 C   0  0  0  0  0  0  0  0  0  0  0  0
   36.7200   24.9170   41.1720 C   0  0  0  0  0  0  0  0  0  0  0  0
   35.7540   25.4460   41.1270 H   0  0  0  0  0  0  0  0  0  0  0  0
   36.8150   23.6660   40.6240 C   0  0  0  0  0  3  0  0  0  0  0  0
   38.1180   23.0820   40.7440 C   0  0  0  0  0  3  0  0  0  0  0  0
   39.1020   24.3020   41.5990 S   0  0  0  0  0  0  0  0  0  0  0  0
  1 15  1  0  0  0  0
  1  3  1  0  0  0  0
  2  1  1  0  0  0  0
  4  9  1  0  0  0  0
  5  6  1  0  0  0  0
  5  4  2  0  0  0  0
  6  7  2  0  0  0  0
  7  8  1  0  0  0  0
  8  1  1  0  0  0  0
  9  8  2  0  0  0  0
 10  4  1  0  0  0  0
 11  6  1  0  0  0  0
 12  5  1  0  0  0  0
 13 12  1  0  0  0  0
 14 12  1  0  0  0  0
 15 16  2  0  0  0  0
 16 20  1  0  0  0  0
 17 16  1  0  0  0  0
 17 21  1  0  0  0  0
 18 17  2  0  0  0  0
 19 18  1  0  0  0  0
 19 15  1  0  0  0  0
 22 18  1  0  0  0  0
 23 22  2  0  0  0  0
 24 23  1  0  0  0  0
 25 26  2  0  0  0  0
 25 23  1  0  0  0  0
 26 27  1  0  0  0  0
 27 22  1  0  0  0  0
M  END
>  <minimizedAffinity>
-5.44413185

$$$$

 OpenBabel03242518203D

 27 29  0  0  0  0  0  0  0  0999 V2000
   36.6910   27.3030   42.9220 C   0  0  0  0  0  0  0  0  0  0  0  0
   35.9770   26.4930   42.6520 H   0  0  0  0  0  0  0  0  0  0  0  0
   36.3740   27.6800   43.9220 H   0  0  0  0  0  0  0  0  0  0  0  0
   39.4200   24.9540   42.2490 C   0  0  0  0  0  0  0  0  0  0  0  0
   40.5060   25.4830   42.9670 C   0  0  0  0  0  0  0  0  0  0  0  0
   40.3000   26.6410   43.6790 C   0  0  0  0  0  0  0  0  0  0  0  0
   39.0690   27.2180   43.6580 N   0  0  0  0  0  0  0  0  0  0  0  0
   38.0400   26.6860   42.9560 C   0  0  0  0  0  0  0  0  0  0  0  0
   38.2230   25.5400   42.2450 N   0  0  0  0  0  0  0  0  0  0  0  0
   39.5410   24.0410   41.6750 H   0  0  0  0  0  0  0  0  0  0  0  0
   41.1220   27.0380   44.2200 H   0  0  0  0  0  0  0  0  0  0  0  0
   41.7170   24.7600   42.8840 N   0  0  0  0  0  0  0  0  0  0  0  0
   42.3730   24.7500   43.7010 H   0  0  0  0  0  0  0  0  0  0  0  0
   41.9980   24.2320   42.0520 H   0  0  0  0  0  0  0  0  0  0  0  0
   36.6460   28.4290   41.9170 C   0  0  0  0  0  0  0  0  0  0  0  0
   35.8080   28.4720   40.8320 C   0  0  0  0  0  0  0  0  0  0  0  0
   36.0570   29.6460   40.1520 C   0  0  0  0  0  0  0  0  0  0  0  0
   37.0670   30.2700   40.8900 C   0  0  0  0  0  0  0  0  0  0  0  0
   37.3540   29.5080   41.8900 O   0  0  0  0  0  0  0  0  0  0  0  0
   35.0620   27.7750   40.4880 H   0  0  0  0  0  0  0  0  0  0  0  0
   35.6800   30.1210   39.2810 H   0  0  0  0  0  0  0  0  0  0  0  0
   37.7510   31.5470   40.6680 C   0  0  0  0  0  0  0  0  0  0  0  0
   37.3060   32.6310   40.0340 C   0  0  0  0  0  0  0  0  0  0  0  0
   36.2950   32.6320   39.5950 H   0  0  0  0  0  0  0  0  0  0  0  0
   38.0800   33.7540   39.9140 C   0  0  0  0  0  3  0  0  0  0  0  0
   39.3710   33.6320   40.5250 C   0  0  0  0  0  3  0  0  0  0  0  0
   39.4120   31.9840   41.2110 S   0  0  0  0  0  0  0  0  0  0  0  0
  1  8  1  0  0  0  0
  1  3  1  0  0  0  0
  2  1  1  0  0  0  0
  4  5  1  0  0  0  0
  5  6  2  0  0  0  0
  6 11  1  0  0  0  0
  7  6  1  0  0  0  0
  8  7  2  0  0  0  0
  9  4  2  0  0  0  0
  9  8  1  0  0  0  0
 10  4  1  0  0  0  0
 12  5  1  0  0  0  0
 12 13  1  0  0  0  0
 14 12  1  0  0  0  0
 15  1  1  0  0  0  0
 16 15  2  0  0  0  0
 17 16  1  0  0  0  0
 17 18  2  0  0  0  0
 18 19  1  0  0  0  0
 19 15  1  0  0  0  0
 20 16  1  0  0  0  0
 21 17  1  0  0  0  0
 22 18  1  0  0  0  0
 22 27  1  0  0  0  0
 23 22  2  0  0  0  0
 24 23  1  0  0  0  0
 25 23  1  0  0  0  0
 25 26  2  0  0  0  0
 26 27  1  0  0  0  0
M  END
>  <minimizedAffinity>
-5.33420467

$$$$

 OpenBabel03242518203D

 27 29  0  0  0  0  0  0  0  0999 V2000
   36.6120   30.6550   41.1320 C   0  0  0  0  0  0  0  0  0  0  0  0
   36.6510   31.4930   41.8620 H   0  0  0  0  0  0  0  0  0  0  0  0
   35.5360   30.5110   40.8770 H   0  0  0  0  0  0  0  0  0  0  0  0
   39.5070   31.6460   39.1190 C   0  0  0  0  0  0  0  0  0  0  0  0
   38.9730   31.8570   37.8370 C   0  0  0  0  0  0  0  0  0  0  0  0
   37.6220   31.6600   37.6660 C   0  0  0  0  0  0  0  0  0  0  0  0
   36.8720   31.2740   38.7330 N   0  0  0  0  0  0  0  0  0  0  0  0
   37.4160   31.0770   39.9580 C   0  0  0  0  0  0  0  0  0  0  0  0
   38.7500   31.2670   40.1470 N   0  0  0  0  0  0  0  0  0  0  0  0
   40.5690   31.7910   39.2960 H   0  0  0  0  0  0  0  0  0  0  0  0
   37.2210   31.8200   36.6980 H   0  0  0  0  0  0  0  0  0  0  0  0
   39.8880   32.2570   36.8390 N   0  0  0  0  0  0  0  0  0  0  0  0
   39.5720   32.8900   36.0660 H   0  0  0  0  0  0  0  0  0  0  0  0
   40.8690   31.9580   36.8260 H   0  0  0  0  0  0  0  0  0  0  0  0
   37.1670   29.3840   41.7280 C   0  0  0  0  0  0  0  0  0  0  0  0
   37.7220   29.2870   42.9790 C   0  0  0  0  0  0  0  0  0  0  0  0
   38.1130   27.9780   43.1670 C   0  0  0  0  0  0  0  0  0  0  0  0
   37.7620   27.3340   41.9780 C   0  0  0  0  0  0  0  0  0  0  0  0
   37.2230   28.2080   41.1980 O   0  0  0  0  0  0  0  0  0  0  0  0
   37.8690   30.0300   43.7450 H   0  0  0  0  0  0  0  0  0  0  0  0
   38.5760   27.4220   43.9440 H   0  0  0  0  0  0  0  0  0  0  0  0
   37.9250   25.9340   41.5760 C   0  0  0  0  0  0  0  0  0  0  0  0
   37.0850   24.9140   41.7470 C   0  0  0  0  0  0  0  0  0  0  0  0
   36.1190   25.0810   42.2510 H   0  0  0  0  0  0  0  0  0  0  0  0
   37.3930   23.6550   41.3070 C   0  0  0  0  0  3  0  0  0  0  0  0
   38.6730   23.5650   40.6680 C   0  0  0  0  0  3  0  0  0  0  0  0
   39.3440   25.2190   40.7260 S   0  0  0  0  0  0  0  0  0  0  0  0
  1 15  1  0  0  0  0
  1  2  1  0  0  0  0
  3  1  1  0  0  0  0
  4 10  1  0  0  0  0
  4  9  1  0  0  0  0
  5  4  2  0  0  0  0
  6  5  1  0  0  0  0
  6  7  2  0  0  0  0
  7  8  1  0  0  0  0
  8  9  2  0  0  0  0
  8  1  1  0  0  0  0
 11  6  1  0  0  0  0
 12  5  1  0  0  0  0
 13 12  1  0  0  0  0
 14 12  1  0  0  0  0
 15 16  2  0  0  0  0
 16 17  1  0  0  0  0
 16 20  1  0  0  0  0
 17 21  1  0  0  0  0
 18 17  2  0  0  0  0
 19 15  1  0  0  0  0
 19 18  1  0  0  0  0
 22 23  2  0  0  0  0
 22 18  1  0  0  0  0
 23 24  1  0  0  0  0
 25 23  1  0  0  0  0
 26 27  1  0  0  0  0
 26 25  2  0  0  0  0
 27 22  1  0  0  0  0
M  END
>  <minimizedAffinity>
-5.22088337

$$$$

 OpenBabel03242518203D

 27 29  0  0  0  0  0  0  0  0999 V2000
   39.8670   34.0390   40.0110 C   0  0  0  0  0  0  0  0  0  0  0  0
   40.3310   34.3040   40.9870 H   0  0  0  0  0  0  0  0  0  0  0  0
   39.4240   34.9790   39.6080 H   0  0  0  0  0  0  0  0  0  0  0  0
   41.5490   32.3130   37.2520 C   0  0  0  0  0  0  0  0  0  0  0  0
   42.9150   32.5150   37.5090 C   0  0  0  0  0  0  0  0  0  0  0  0
   43.2560   33.2410   38.6270 C   0  0  0  0  0  0  0  0  0  0  0  0
   42.2670   33.7260   39.4250 N   0  0  0  0  0  0  0  0  0  0  0  0
   40.9580   33.5160   39.1510 C   0  0  0  0  0  0  0  0  0  0  0  0
   40.6000   32.7990   38.0510 N   0  0  0  0  0  0  0  0  0  0  0  0
   41.2380   31.7450   36.3810 H   0  0  0  0  0  0  0  0  0  0  0  0
   44.2880   33.3920   38.8190 H   0  0  0  0  0  0  0  0  0  0  0  0
   43.8130   31.9430   36.5820 N   0  0  0  0  0  0  0  0  0  0  0  0
   44.7490   31.6030   36.9070 H   0  0  0  0  0  0  0  0  0  0  0  0
   43.5990   31.8400   35.5850 H   0  0  0  0  0  0  0  0  0  0  0  0
   38.7840   33.0010   40.1860 C   0  0  0  0  0  0  0  0  0  0  0  0
   37.5510   33.0530   39.5880 C   0  0  0  0  0  0  0  0  0  0  0  0
   36.8420   31.9380   39.9840 C   0  0  0  0  0  0  0  0  0  0  0  0
   37.7160   31.2500   40.8310 C   0  0  0  0  0  0  0  0  0  0  0  0
   38.8140   31.9240   40.8970 O   0  0  0  0  0  0  0  0  0  0  0  0
   37.1200   33.7800   38.9200 H   0  0  0  0  0  0  0  0  0  0  0  0
   35.8750   31.5400   39.7990 H   0  0  0  0  0  0  0  0  0  0  0  0
   37.5340   29.9930   41.5600 C   0  0  0  0  0  0  0  0  0  0  0  0
   36.6310   29.0340   41.3570 C   0  0  0  0  0  0  0  0  0  0  0  0
   35.8940   29.1410   40.5450 H   0  0  0  0  0  0  0  0  0  0  0  0
   36.5970   27.9090   42.1370 C   0  0  0  0  0  3  0  0  0  0  0  0
   37.6040   27.8850   43.1570 C   0  0  0  0  0  3  0  0  0  0  0  0
   38.5120   29.4100   42.9570 S   0  0  0  0  0  0  0  0  0  0  0  0
  1 15  1  0  0  0  0
  1  2  1  0  0  0  0
  3  1  1  0  0  0  0
  4  5  2  0  0  0  0
  4  9  1  0  0  0  0
  5  6  1  0  0  0  0
  6 11  1  0  0  0  0
  6  7  2  0  0  0  0
  8  7  1  0  0  0  0
  8  1  1  0  0  0  0
  9  8  2  0  0  0  0
 10  4  1  0  0  0  0
 12 13  1  0  0  0  0
 12  5  1  0  0  0  0
 14 12  1  0  0  0  0
 15 19  1  0  0  0  0
 16 17  1  0  0  0  0
 16 15  2  0  0  0  0
 17 18  2  0  0  0  0
 18 19  1  0  0  0  0
 18 22  1  0  0  0  0
 20 16  1  0  0  0  0
 21 17  1  0  0  0  0
 22 27  1  0  0  0  0
 23 22  2  0  0  0  0
 23 25  1  0  0  0  0
 24 23  1  0  0  0  0
 25 26  2  0  0  0  0
 27 26  1  0  0  0  0
M  END
>  <minimizedAffinity>
-4.92366314

$$$$

 OpenBabel03242518203D

 27 29  0  0  0  0  0  0  0  0999 V2000
   38.1290   27.8220   43.6280 C   0  0  0  0  0  0  0  0  0  0  0  0
   37.0450   27.9950   43.8070 H   0  0  0  0  0  0  0  0  0  0  0  0
   38.6220   27.8590   44.6270 H   0  0  0  0  0  0  0  0  0  0  0  0
   37.2970   24.8950   41.5880 C   0  0  0  0  0  0  0  0  0  0  0  0
   38.3860   24.0280   41.7800 C   0  0  0  0  0  0  0  0  0  0  0  0
   39.4010   24.4490   42.6060 C   0  0  0  0  0  0  0  0  0  0  0  0
   39.3080   25.6710   43.1960 N   0  0  0  0  0  0  0  0  0  0  0  0
   38.2450   26.4860   42.9920 C   0  0  0  0  0  0  0  0  0  0  0  0
   37.2300   26.0880   42.1780 N   0  0  0  0  0  0  0  0  0  0  0  0
   36.4740   24.6010   40.9440 H   0  0  0  0  0  0  0  0  0  0  0  0
   40.2220   23.7930   42.7490 H   0  0  0  0  0  0  0  0  0  0  0  0
   38.3260   22.7950   41.0950 N   0  0  0  0  0  0  0  0  0  0  0  0
   38.7610   21.9420   41.5200 H   0  0  0  0  0  0  0  0  0  0  0  0
   37.8730   22.6820   40.1820 H   0  0  0  0  0  0  0  0  0  0  0  0
   38.7120   28.8890   42.7330 C   0  0  0  0  0  0  0  0  0  0  0  0
   40.0190   28.9310   42.3190 C   0  0  0  0  0  0  0  0  0  0  0  0
   40.1740   30.0440   41.5200 C   0  0  0  0  0  0  0  0  0  0  0  0
   38.9070   30.6350   41.4940 C   0  0  0  0  0  0  0  0  0  0  0  0
   38.1190   29.9130   42.2160 O   0  0  0  0  0  0  0  0  0  0  0  0
   40.8450   28.2700   42.5220 H   0  0  0  0  0  0  0  0  0  0  0  0
   40.9690   30.4950   40.9800 H   0  0  0  0  0  0  0  0  0  0  0  0
   38.4410   31.8450   40.8120 C   0  0  0  0  0  0  0  0  0  0  0  0
   38.9000   33.0920   40.9190 C   0  0  0  0  0  0  0  0  0  0  0  0
   39.7430   33.3080   41.5960 H   0  0  0  0  0  0  0  0  0  0  0  0
   38.3460   34.1190   40.2030 C   0  0  0  0  0  3  0  0  0  0  0  0
   37.2600   33.7140   39.3600 C   0  0  0  0  0  3  0  0  0  0  0  0
   37.0920   31.9560   39.6230 S   0  0  0  0  0  0  0  0  0  0  0  0
  1  2  1  0  0  0  0
  1  3  1  0  0  0  0
  4  5  2  0  0  0  0
  4  9  1  0  0  0  0
  5  6  1  0  0  0  0
  6 11  1  0  0  0  0
  6  7  2  0  0  0  0
  8  7  1  0  0  0  0
  8  1  1  0  0  0  0
  9  8  2  0  0  0  0
 10  4  1  0  0  0  0
 12 13  1  0  0  0  0
 12  5  1  0  0  0  0
 14 12  1  0  0  0  0
 15  1  1  0  0  0  0
 16 20  1  0  0  0  0
 16 15  2  0  0  0  0
 17 16  1  0  0  0  0
 18 17  2  0  0  0  0
 18 19  1  0  0  0  0
 19 15  1  0  0  0  0
 21 17  1  0  0  0  0
 22 23  2  0  0  0  0
 22 18  1  0  0  0  0
 23 24  1  0  0  0  0
 25 23  1  0  0  0  0
 26 27  1  0  0  0  0
 26 25  2  0  0  0  0
 27 22  1  0  0  0  0
M  END
>  <minimizedAffinity>
-4.91455221

$$$$

 OpenBabel03242518203D

 27 29  0  0  0  0  0  0  0  0999 V2000
   37.4130   31.4520   37.6530 C   0  0  0  0  0  0  0  0  0  0  0  0
   36.6450   32.2010   37.3600 H   0  0  0  0  0  0  0  0  0  0  0  0
   37.9390   31.1580   36.7150 H   0  0  0  0  0  0  0  0  0  0  0  0
   40.4990   32.4910   39.3320 C   0  0  0  0  0  0  0  0  0  0  0  0
   40.0560   33.3370   40.3620 C   0  0  0  0  0  0  0  0  0  0  0  0
   38.7020   33.5490   40.4780 C   0  0  0  0  0  0  0  0  0  0  0  0
   37.8610   32.9370   39.6020 N   0  0  0  0  0  0  0  0  0  0  0  0
   38.3180   32.1270   38.6180 C   0  0  0  0  0  0  0  0  0  0  0  0
   39.6530   31.9030   38.4860 N   0  0  0  0  0  0  0  0  0  0  0  0
   41.5600   32.2970   39.2060 H   0  0  0  0  0  0  0  0  0  0  0  0
   38.3690   34.1890   41.2560 H   0  0  0  0  0  0  0  0  0  0  0  0
   41.0590   33.8920   41.1850 N   0  0  0  0  0  0  0  0  0  0  0  0
   40.8550   34.0860   42.1940 H   0  0  0  0  0  0  0  0  0  0  0  0
   41.9990   34.1230   40.8460 H   0  0  0  0  0  0  0  0  0  0  0  0
   36.7780   30.2350   38.2820 C   0  0  0  0  0  0  0  0  0  0  0  0
   35.6470   29.6160   37.8140 C   0  0  0  0  0  0  0  0  0  0  0  0
   35.3740   28.5490   38.6440 C   0  0  0  0  0  0  0  0  0  0  0  0
   36.3910   28.5840   39.6030 C   0  0  0  0  0  0  0  0  0  0  0  0
   37.1600   29.5820   39.3280 O   0  0  0  0  0  0  0  0  0  0  0  0
   35.0180   29.8410   36.9680 H   0  0  0  0  0  0  0  0  0  0  0  0
   34.6320   27.7920   38.6990 H   0  0  0  0  0  0  0  0  0  0  0  0
   36.6410   27.7060   40.7490 C   0  0  0  0  0  0  0  0  0  0  0  0
   36.5620   27.9890   42.0490 C   0  0  0  0  0  0  0  0  0  0  0  0
   36.2750   29.0030   42.3710 H   0  0  0  0  0  0  0  0  0  0  0  0
   36.8310   27.0430   43.0020 C   0  0  0  0  0  3  0  0  0  0  0  0
   37.1920   25.7660   42.4610 C   0  0  0  0  0  3  0  0  0  0  0  0
   37.1310   25.9730   40.6880 S   0  0  0  0  0  0  0  0  0  0  0  0
  1 15  1  0  0  0  0
  1  8  1  0  0  0  0
  2  1  1  0  0  0  0
  3  1  1  0  0  0  0
  4  5  1  0  0  0  0
  5  6  2  0  0  0  0
  5 12  1  0  0  0  0
  6 11  1  0  0  0  0
  7  6  1  0  0  0  0
  8  7  2  0  0  0  0
  9  8  1  0  0  0  0
  9  4  2  0  0  0  0
 10  4  1  0  0  0  0
 12 13  1  0  0  0  0
 14 12  1  0  0  0  0
 15 19  1  0  0  0  0
 16 15  2  0  0  0  0
 16 17  1  0  0  0  0
 17 21  1  0  0  0  0
 17 18  2  0  0  0  0
 18 22  1  0  0  0  0
 19 18  1  0  0  0  0
 20 16  1  0  0  0  0
 22 23  2  0  0  0  0
 23 24  1  0  0  0  0
 23 25  1  0  0  0  0
 26 25  2  0  0  0  0
 27 22  1  0  0  0  0
 27 26  1  0  0  0  0
M  END
>  <minimizedAffinity>
-4.76975584

$$$$

 OpenBabel03242518203D

 27 29  0  0  0  0  0  0  0  0999 V2000
   36.9170   26.8820   39.3740 C   0  0  0  0  0  0  0  0  0  0  0  0
   37.5780   26.8450   38.4800 H   0  0  0  0  0  0  0  0  0  0  0  0
   35.9310   26.4720   39.0530 H   0  0  0  0  0  0  0  0  0  0  0  0
   39.5020   25.5250   41.5870 C   0  0  0  0  0  0  0  0  0  0  0  0
   38.8320   24.5300   42.3200 C   0  0  0  0  0  0  0  0  0  0  0  0
   37.4980   24.3280   42.0530 C   0  0  0  0  0  0  0  0  0  0  0  0
   36.8920   25.0890   41.1040 N   0  0  0  0  0  0  0  0  0  0  0  0
   37.5640   26.0420   40.4130 C   0  0  0  0  0  0  0  0  0  0  0  0
   38.8840   26.2570   40.6610 N   0  0  0  0  0  0  0  0  0  0  0  0
   40.5550   25.7160   41.7660 H   0  0  0  0  0  0  0  0  0  0  0  0
   36.9950   23.5760   42.6080 H   0  0  0  0  0  0  0  0  0  0  0  0
   39.6080   23.8290   43.2690 N   0  0  0  0  0  0  0  0  0  0  0  0
   39.3940   22.8240   43.4750 H   0  0  0  0  0  0  0  0  0  0  0  0
   40.3870   24.2550   43.7800 H   0  0  0  0  0  0  0  0  0  0  0  0
   36.7420   28.2970   39.8680 C   0  0  0  0  0  0  0  0  0  0  0  0
   35.6520   28.7510   40.5670 C   0  0  0  0  0  0  0  0  0  0  0  0
   35.8520   30.0870   40.8420 C   0  0  0  0  0  0  0  0  0  0  0  0
   37.0950   30.3790   40.2720 C   0  0  0  0  0  0  0  0  0  0  0  0
   37.5450   29.2990   39.7300 O   0  0  0  0  0  0  0  0  0  0  0  0
   34.7600   28.2410   40.8910 H   0  0  0  0  0  0  0  0  0  0  0  0
   35.3150   30.8550   41.3410 H   0  0  0  0  0  0  0  0  0  0  0  0
   37.8470   31.6360   40.2350 C   0  0  0  0  0  0  0  0  0  0  0  0
   37.4030   32.8660   39.9820 C   0  0  0  0  0  0  0  0  0  0  0  0
   36.3340   33.0270   39.7640 H   0  0  0  0  0  0  0  0  0  0  0  0
   38.2470   33.9440   39.9870 C   0  0  0  0  0  3  0  0  0  0  0  0
   39.6090   33.6090   40.2830 C   0  0  0  0  0  3  0  0  0  0  0  0
   39.6130   31.8400   40.5300 S   0  0  0  0  0  0  0  0  0  0  0  0
  1 15  1  0  0  0  0
  1  8  1  0  0  0  0
  2  1  1  0  0  0  0
  3  1  1  0  0  0  0
  4 10  1  0  0  0  0
  4  5  1  0  0  0  0
  5 12  1  0  0  0  0
  6  5  2  0  0  0  0
  6 11  1  0  0  0  0
  7  6  1  0  0  0  0
  8  9  1  0  0  0  0
  8  7  2  0  0  0  0
  9  4  2  0  0  0  0
 12 13  1  0  0  0  0
 12 14  1  0  0  0  0
 15 16  2  0  0  0  0
 16 17  1  0  0  0  0
 16 20  1  0  0  0  0
 17 21  1  0  0  0  0
 18 17  2  0  0  0  0
 19 15  1  0  0  0  0
 19 18  1  0  0  0  0
 22 18  1  0  0  0  0
 22 27  1  0  0  0  0
 23 25  1  0  0  0  0
 23 22  2  0  0  0  0
 24 23  1  0  0  0  0
 25 26  2  0  0  0  0
 26 27  1  0  0  0  0
M  END
>  <minimizedAffinity>
-4.75146866

$$$$

 OpenBabel03242518203D

 27 29  0  0  0  0  0  0  0  0999 V2000
   35.3200   28.2450   38.5700 C   0  0  0  0  0  0  0  0  0  0  0  0
   36.1150   27.8340   37.9080 H   0  0  0  0  0  0  0  0  0  0  0  0
   35.1240   27.4680   39.3440 H   0  0  0  0  0  0  0  0  0  0  0  0
   36.9660   31.5100   38.7920 C   0  0  0  0  0  0  0  0  0  0  0  0
   36.8860   31.8380   40.1560 C   0  0  0  0  0  0  0  0  0  0  0  0
   36.2690   30.9390   40.9950 C   0  0  0  0  0  0  0  0  0  0  0  0
   35.7690   29.7870   40.4740 N   0  0  0  0  0  0  0  0  0  0  0  0
   35.8600   29.4980   39.1540 C   0  0  0  0  0  0  0  0  0  0  0  0
   36.4680   30.3730   38.3070 N   0  0  0  0  0  0  0  0  0  0  0  0
   37.4450   32.1920   38.0970 H   0  0  0  0  0  0  0  0  0  0  0  0
   36.2090   31.1880   42.0240 H   0  0  0  0  0  0  0  0  0  0  0  0
   37.4550   33.0730   40.5330 N   0  0  0  0  0  0  0  0  0  0  0  0
   37.8870   33.1790   41.4820 H   0  0  0  0  0  0  0  0  0  0  0  0
   37.4710   33.8940   39.9190 H   0  0  0  0  0  0  0  0  0  0  0  0
   34.0540   28.5220   37.7950 C   0  0  0  0  0  0  0  0  0  0  0  0
   33.7800   28.0260   36.5460 C   0  0  0  0  0  0  0  0  0  0  0  0
   32.5390   28.4940   36.1690 C   0  0  0  0  0  0  0  0  0  0  0  0
   32.1170   29.2750   37.2480 C   0  0  0  0  0  0  0  0  0  0  0  0
   33.0420   29.2420   38.1450 O   0  0  0  0  0  0  0  0  0  0  0  0
   34.3560   27.3850   35.8990 H   0  0  0  0  0  0  0  0  0  0  0  0
   31.9080   28.3940   35.3200 H   0  0  0  0  0  0  0  0  0  0  0  0
   30.8780   30.0340   37.4400 C   0  0  0  0  0  0  0  0  0  0  0  0
   30.1410   30.1640   38.5430 C   0  0  0  0  0  0  0  0  0  0  0  0
   30.4520   29.6550   39.4700 H   0  0  0  0  0  0  0  0  0  0  0  0
   28.9990   30.9190   38.5530 C   0  0  0  0  0  3  0  0  0  0  0  0
   28.7010   31.5290   37.2910 C   0  0  0  0  0  3  0  0  0  0  0  0
   30.0150   31.0130   36.1970 S   0  0  0  0  0  0  0  0  0  0  0  0
  1  8  1  0  0  0  0
  1  3  1  0  0  0  0
  2  1  1  0  0  0  0
  4  5  1  0  0  0  0
  5 12  1  0  0  0  0
  5  6  2  0  0  0  0
  6 11  1  0  0  0  0
  7  6  1  0  0  0  0
  8  7  2  0  0  0  0
  9  4  2  0  0  0  0
  9  8  1  0  0  0  0
 10  4  1  0  0  0  0
 12 13  1  0  0  0  0
 14 12  1  0  0  0  0
 15 19  1  0  0  0  0
 15  1  1  0  0  0  0
 16 15  2  0  0  0  0
 17 16  1  0  0  0  0
 17 18  2  0  0  0  0
 18 22  1  0  0  0  0
 18 19  1  0  0  0  0
 20 16  1  0  0  0  0
 21 17  1  0  0  0  0
 22 23  2  0  0  0  0
 23 25  1  0  0  0  0
 23 24  1  0  0  0  0
 26 25  2  0  0  0  0
 27 26  1  0  0  0  0
 27 22  1  0  0  0  0
M  END
>  <minimizedAffinity>
-4.72239685

$$$$

 OpenBabel03242518203D

 27 29  0  0  0  0  0  0  0  0999 V2000
   35.8410   28.8690   38.3250 C   0  0  0  0  0  0  0  0  0  0  0  0
   34.7350   28.9440   38.4230 H   0  0  0  0  0  0  0  0  0  0  0  0
   36.0510   28.7260   37.2390 H   0  0  0  0  0  0  0  0  0  0  0  0
   36.6040   31.6040   40.6390 C   0  0  0  0  0  0  0  0  0  0  0  0
   37.3970   32.4790   39.8790 C   0  0  0  0  0  0  0  0  0  0  0  0
   37.6680   32.1300   38.5770 C   0  0  0  0  0  0  0  0  0  0  0  0
   37.1620   30.9670   38.0870 N   0  0  0  0  0  0  0  0  0  0  0  0
   36.4000   30.1420   38.8440 C   0  0  0  0  0  0  0  0  0  0  0  0
   36.1200   30.4690   40.1350 N   0  0  0  0  0  0  0  0  0  0  0  0
   36.3670   31.8420   41.6710 H   0  0  0  0  0  0  0  0  0  0  0  0
   38.2670   32.7920   38.0050 H   0  0  0  0  0  0  0  0  0  0  0  0
   37.8420   33.6460   40.5380 N   0  0  0  0  0  0  0  0  0  0  0  0
   37.9750   34.5320   39.9950 H   0  0  0  0  0  0  0  0  0  0  0  0
   38.0490   33.6780   41.5420 H   0  0  0  0  0  0  0  0  0  0  0  0
   36.3790   27.6940   39.1050 C   0  0  0  0  0  0  0  0  0  0  0  0
   36.0740   26.3810   38.8480 C   0  0  0  0  0  0  0  0  0  0  0  0
   36.7510   25.6030   39.7640 C   0  0  0  0  0  0  0  0  0  0  0  0
   37.4520   26.5200   40.5520 C   0  0  0  0  0  0  0  0  0  0  0  0
   37.1870   27.7030   40.1120 O   0  0  0  0  0  0  0  0  0  0  0  0
   35.4400   25.9380   38.0980 H   0  0  0  0  0  0  0  0  0  0  0  0
   36.8390   24.5650   39.9700 H   0  0  0  0  0  0  0  0  0  0  0  0
   38.3480   26.3000   41.6900 C   0  0  0  0  0  0  0  0  0  0  0  0
   38.6810   27.1440   42.6660 C   0  0  0  0  0  0  0  0  0  0  0  0
   38.2580   28.1620   42.6750 H   0  0  0  0  0  0  0  0  0  0  0  0
   39.5410   26.7760   43.6650 C   0  0  0  0  0  3  0  0  0  0  0  0
   40.0230   25.4310   43.5440 C   0  0  0  0  0  3  0  0  0  0  0  0
   39.2530   24.7870   42.0670 S   0  0  0  0  0  0  0  0  0  0  0  0
  1  2  1  0  0  0  0
  1  8  1  0  0  0  0
  1 15  1  0  0  0  0
  3  1  1  0  0  0  0
  4 10  1  0  0  0  0
  5 12  1  0  0  0  0
  5  4  2  0  0  0  0
  6  5  1  0  0  0  0
  7  6  2  0  0  0  0
  7  8  1  0  0  0  0
  8  9  2  0  0  0  0
  9  4  1  0  0  0  0
 11  6  1  0  0  0  0
 12 14  1  0  0  0  0
 13 12  1  0  0  0  0
 15 19  1  0  0  0  0
 16 15  2  0  0  0  0
 16 17  1  0  0  0  0
 17 21  1  0  0  0  0
 17 18  2  0  0  0  0
 18 22  1  0  0  0  0
 19 18  1  0  0  0  0
 20 16  1  0  0  0  0
 22 27  1  0  0  0  0
 22 23  2  0  0  0  0
 23 24  1  0  0  0  0
 23 25  1  0  0  0  0
 26 25  2  0  0  0  0
 27 26  1  0  0  0  0
M  END
>  <minimizedAffinity>
-4.69743681

$$$$
