
 OpenBabel03252509233D

 24 26  0  0  1  0  0  0  0  0999 V2000
   47.6600   33.9550   42.4490 C   0  0  1  0  0  0  0  0  0  0  0  0
   48.9510   34.8000   42.6090 C   0  0  0  0  0  0  0  0  0  0  0  0
   48.8900   33.2470   42.5030 C   0  0  2  0  0  0  0  0  0  0  0  0
   47.0940   34.1930   41.5310 H   0  0  0  0  0  0  0  0  0  0  0  0
   49.2530   35.3180   41.6840 H   0  0  0  0  0  0  0  0  0  0  0  0
   49.1820   35.2550   43.5670 H   0  0  0  0  0  0  0  0  0  0  0  0
   49.1830   32.7740   43.4710 H   0  0  0  0  0  0  0  0  0  0  0  0
   44.9870   34.8650   44.9160 C   0  0  0  0  0  0  0  0  0  0  0  0
   45.7630   34.9060   43.7110 C   0  0  0  0  0  0  0  0  0  0  0  0
   46.8210   34.0350   43.7110 C   0  0  0  0  0  0  0  0  0  0  0  0
   47.0950   33.2080   44.7870 N   0  0  0  0  0  0  0  0  0  0  0  0
   46.3310   33.2190   45.8850 C   0  0  0  0  0  0  0  0  0  0  0  0
   45.2640   34.0580   45.9500 N   0  0  0  0  0  0  0  0  0  0  0  0
   44.1470   35.5200   44.9770 H   0  0  0  0  0  0  0  0  0  0  0  0
   46.7200   32.5020   46.5940 H   0  0  0  0  0  0  0  0  0  0  0  0
   45.4700   35.7750   42.6310 N   0  0  0  0  0  0  0  0  0  0  0  0
   45.8040   36.7310   42.9250 H   0  0  0  0  0  0  0  0  0  0  0  0
   45.0170   35.5500   41.7160 H   0  0  0  0  0  0  0  0  0  0  0  0
   49.4190   32.6340   41.2910 C   0  0  0  0  0  0  0  0  0  0  0  0
   48.9340   32.4140   40.0500 C   0  0  0  0  0  0  0  0  0  0  0  0
   47.9260   32.7550   39.8720 H   0  0  0  0  0  0  0  0  0  0  0  0
   49.7200   31.7890   39.1110 C   0  0  0  0  0  3  0  0  0  0  0  0
   51.0160   31.4140   39.5240 C   0  0  0  0  0  3  0  0  0  0  0  0
   51.0900   31.9630   41.2670 S   0  0  0  0  0  0  0  0  0  0  0  0
  1  4  1  6  0  0  0
  1  3  1  0  0  0  0
  1  2  1  0  0  0  0
  1 10  1  0  0  0  0
  2  6  1  0  0  0  0
  3  2  1  0  0  0  0
  3  7  1  1  0  0  0
  5  2  1  0  0  0  0
  8 14  1  0  0  0  0
  8 13  1  0  0  0  0
  9  8  2  0  0  0  0
 10  9  1  0  0  0  0
 10 11  2  0  0  0  0
 11 12  1  0  0  0  0
 12 13  2  0  0  0  0
 12 15  1  0  0  0  0
 16 17  1  0  0  0  0
 16  9  1  0  0  0  0
 18 16  1  0  0  0  0
 19  3  1  0  0  0  0
 20 19  2  0  0  0  0
 21 20  1  0  0  0  0
 22 23  2  0  0  0  0
 22 20  1  0  0  0  0
 23 24  1  0  0  0  0
 24 19  1  0  0  0  0
M  END
>  <minimizedAffinity>
-4.11861134

>  <minimizedRMSD>
2.41125107

$$$$
