
 OpenBabel03252506343D

 30 32  0  0  1  0  0  0  0  0999 V2000
   44.4680   35.7380   45.0050 C   0  0  0  0  0  0  0  0  0  0  0  0
   45.1160   35.7050   43.7610 C   0  0  0  0  0  0  0  0  0  0  0  0
   46.0320   34.7230   43.5020 C   0  0  0  0  0  0  0  0  0  0  0  0
   46.2510   33.8280   44.4970 N   0  0  0  0  0  0  0  0  0  0  0  0
   45.6360   33.8600   45.6740 C   0  0  0  0  0  0  0  0  0  0  0  0
   44.7320   34.8140   45.9560 N   0  0  0  0  0  0  0  0  0  0  0  0
   45.9620   32.8570   46.6210 N   0  0  0  0  0  0  0  0  0  0  0  0
   45.1630   32.5690   47.8190 C   0  0  0  0  0  0  0  0  0  0  0  0
   46.2330   32.2490   48.8410 C   0  0  0  0  0  0  0  0  0  0  0  0
   47.5260   32.1070   48.0850 C   0  0  0  0  0  0  0  0  0  0  0  0
   47.0570   31.9330   46.6650 C   0  0  1  0  0  0  0  0  0  0  0  0
   43.7400   36.5030   45.2400 H   0  0  0  0  0  0  0  0  0  0  0  0
   46.5280   34.7000   42.5440 H   0  0  0  0  0  0  0  0  0  0  0  0
   44.6040   33.5080   48.0960 H   0  0  0  0  0  0  0  0  0  0  0  0
   44.4620   31.7320   47.6440 H   0  0  0  0  0  0  0  0  0  0  0  0
   46.2770   33.0030   49.6560 H   0  0  0  0  0  0  0  0  0  0  0  0
   45.9720   31.2600   49.2850 H   0  0  0  0  0  0  0  0  0  0  0  0
   48.0730   33.0710   48.1460 H   0  0  0  0  0  0  0  0  0  0  0  0
   48.1370   31.2470   48.4300 H   0  0  0  0  0  0  0  0  0  0  0  0
   47.8620   32.2150   45.9310 H   0  0  0  0  0  0  0  0  0  0  0  0
   44.7630   36.7340   42.8190 N   0  0  0  0  0  0  0  0  0  0  0  0
   44.5160   37.6820   43.1270 H   0  0  0  0  0  0  0  0  0  0  0  0
   44.7530   36.5190   41.7770 H   0  0  0  0  0  0  0  0  0  0  0  0
   46.5260   30.2160   46.4080 S   0  0  0  0  0  0  0  0  0  0  0  0
   45.8930   29.8660   44.8770 C   0  0  0  0  0  0  0  0  0  0  0  0
   45.1830   30.5180   43.8400 C   0  0  0  0  0  0  0  0  0  0  0  0
   44.9980   31.5320   44.1240 H   0  0  0  0  0  0  0  0  0  0  0  0
   44.8290   29.8770   42.6910 C   0  0  0  0  0  3  0  0  0  0  0  0
   45.2300   28.4400   42.5730 C   0  0  0  0  0  3  0  0  0  0  0  0
   46.1200   28.1240   44.2010 S   0  0  0  0  0  0  0  0  0  0  0  0
  1 12  1  0  0  0  0
  1  6  1  0  0  0  0
  2  1  2  0  0  0  0
  3  2  1  0  0  0  0
  3  4  2  0  0  0  0
  4  5  1  0  0  0  0
  5  6  2  0  0  0  0
  5  7  1  0  0  0  0
  7 11  1  0  0  0  0
  7  8  1  0  0  0  0
  8 14  1  0  0  0  0
  8  9  1  0  0  0  0
  9 17  1  0  0  0  0
  9 16  1  0  0  0  0
 10 18  1  0  0  0  0
 10 19  1  0  0  0  0
 10  9  1  0  0  0  0
 11 20  1  6  0  0  0
 11 10  1  0  0  0  0
 13  3  1  0  0  0  0
 15  8  1  0  0  0  0
 21 22  1  0  0  0  0
 21  2  1  0  0  0  0
 23 21  1  0  0  0  0
 24 11  1  0  0  0  0
 25 24  1  0  0  0  0
 26 27  1  0  0  0  0
 26 25  2  0  0  0  0
 28 26  1  0  0  0  0
 29 28  2  0  0  0  0
 29 30  1  0  0  0  0
 30 25  1  0  0  0  0
M  END
>  <minimizedAffinity>
-4.786726

>  <minimizedRMSD>
0.0489214472

$$$$
