
 OpenBabel03242515153D

 31 33  0  0  0  0  0  0  0  0999 V2000
   37.0010   28.8250   42.3110 C   0  0  0  0  0  0  0  0  0  0  0  0
   37.0230   27.9500   41.6660 H   0  0  0  0  0  0  0  0  0  0  0  0
   36.0060   28.8480   42.7980 H   0  0  0  0  0  0  0  0  0  0  0  0
   37.1310   30.0910   41.5650 C   0  0  0  0  0  0  0  0  0  0  0  0
   36.2310   30.7510   40.7780 C   0  0  0  0  0  0  0  0  0  0  0  0
   36.8610   31.8900   40.3180 C   0  0  0  0  0  0  0  0  0  0  0  0
   38.0980   31.9060   40.8180 N   0  0  0  0  0  0  0  0  0  0  0  0
   38.2450   30.8180   41.5660 N   0  0  0  0  0  0  0  0  0  0  0  0
   35.2180   30.4150   40.5710 H   0  0  0  0  0  0  0  0  0  0  0  0
   36.4410   32.6540   39.6620 H   0  0  0  0  0  0  0  0  0  0  0  0
   39.1290   32.8760   40.6310 C   0  0  0  0  0  0  0  0  0  0  0  0
   38.9630   34.1720   40.3620 C   0  0  0  0  0  0  0  0  0  0  0  0
   37.9620   34.6210   40.2570 H   0  0  0  0  0  0  0  0  0  0  0  0
   40.0420   34.9970   40.2050 C   0  0  0  0  0  3  0  0  0  0  0  0
   41.3210   34.3460   40.3550 C   0  0  0  0  0  3  0  0  0  0  0  0
   40.8300   32.5610   40.7160 S   0  0  0  0  0  0  0  0  0  0  0  0
   38.1200   28.6590   43.3060 C   0  0  0  0  0  0  0  0  0  0  0  0
   38.9610   29.3490   43.0860 H   0  0  0  0  0  0  0  0  0  0  0  0
   37.7050   28.8990   44.2880 H   0  0  0  0  0  0  0  0  0  0  0  0
   40.1530   25.5210   43.6810 C   0  0  0  0  0  0  0  0  0  0  0  0
   39.4030   24.6420   42.8570 C   0  0  0  0  0  0  0  0  0  0  0  0
   38.2600   25.1720   42.2300 C   0  0  0  0  0  0  0  0  0  0  0  0
   37.9530   26.4780   42.4530 N   0  0  0  0  0  0  0  0  0  0  0  0
   38.7060   27.2760   43.2520 C   0  0  0  0  0  0  0  0  0  0  0  0
   39.7900   26.7980   43.8560 N   0  0  0  0  0  0  0  0  0  0  0  0
   41.0340   25.1690   44.1850 H   0  0  0  0  0  0  0  0  0  0  0  0
   39.7400   23.6230   42.7510 H   0  0  0  0  0  0  0  0  0  0  0  0
   37.5210   24.2430   41.3960 C   0  0  0  0  0  0  0  0  0  0  0  0
   37.3690   24.8030   40.1330 F   0  0  0  0  0  0  0  0  0  0  0  0
   36.2320   24.1780   41.9220 F   0  0  0  0  0  0  0  0  0  0  0  0
   38.1160   23.0270   41.2720 F   0  0  0  0  0  0  0  0  0  0  0  0
  1  3  1  0  0  0  0
  1 17  1  0  0  0  0
  2  1  1  0  0  0  0
  4  8  2  0  0  0  0
  4  1  1  0  0  0  0
  5  4  1  0  0  0  0
  6  5  2  0  0  0  0
  6  7  1  0  0  0  0
  7  8  1  0  0  0  0
  9  5  1  0  0  0  0
 10  6  1  0  0  0  0
 11 16  1  0  0  0  0
 11  7  1  0  0  0  0
 12 11  2  0  0  0  0
 13 12  1  0  0  0  0
 14 15  2  0  0  0  0
 14 12  1  0  0  0  0
 15 16  1  0  0  0  0
 17 19  1  0  0  0  0
 18 17  1  0  0  0  0
 20 25  1  0  0  0  0
 20 26  1  0  0  0  0
 21 20  2  0  0  0  0
 22 23  2  0  0  0  0
 22 21  1  0  0  0  0
 23 24  1  0  0  0  0
 24 17  1  0  0  0  0
 24 25  2  0  0  0  0
 27 21  1  0  0  0  0
 28 30  1  0  0  0  0
 28 22  1  0  0  0  0
 29 28  1  0  0  0  0
 31 28  1  0  0  0  0
M  END
>  <minimizedAffinity>
-5.80188751

$$$$

 OpenBabel03242515153D

 31 33  0  0  0  0  0  0  0  0999 V2000
   36.3270   30.0950   38.4780 C   0  0  0  0  0  0  0  0  0  0  0  0
   36.9170   29.2980   38.0320 H   0  0  0  0  0  0  0  0  0  0  0  0
   35.7480   30.5710   37.6610 H   0  0  0  0  0  0  0  0  0  0  0  0
   37.1570   31.1580   39.0760 C   0  0  0  0  0  0  0  0  0  0  0  0
   36.9650   31.9010   40.2060 C   0  0  0  0  0  0  0  0  0  0  0  0
   38.0450   32.7550   40.3100 C   0  0  0  0  0  0  0  0  0  0  0  0
   38.8540   32.5250   39.2750 N   0  0  0  0  0  0  0  0  0  0  0  0
   38.3070   31.5610   38.5420 N   0  0  0  0  0  0  0  0  0  0  0  0
   36.1120   31.8130   40.8730 H   0  0  0  0  0  0  0  0  0  0  0  0
   38.2240   33.4940   41.0930 H   0  0  0  0  0  0  0  0  0  0  0  0
   40.0930   33.1550   38.9470 C   0  0  0  0  0  0  0  0  0  0  0  0
   40.6300   34.2160   39.5500 C   0  0  0  0  0  0  0  0  0  0  0  0
   40.1330   34.7190   40.3950 H   0  0  0  0  0  0  0  0  0  0  0  0
   41.8300   34.7230   39.1340 C   0  0  0  0  0  3  0  0  0  0  0  0
   42.4260   34.0190   38.0250 C   0  0  0  0  0  3  0  0  0  0  0  0
   41.1650   32.6600   37.6800 S   0  0  0  0  0  0  0  0  0  0  0  0
   35.4370   29.4510   39.5080 C   0  0  0  0  0  0  0  0  0  0  0  0
   35.2090   30.1500   40.3390 H   0  0  0  0  0  0  0  0  0  0  0  0
   34.5070   29.1850   38.9980 H   0  0  0  0  0  0  0  0  0  0  0  0
   37.0030   26.1420   40.3550 C   0  0  0  0  0  0  0  0  0  0  0  0
   37.3340   26.3670   41.7160 C   0  0  0  0  0  0  0  0  0  0  0  0
   37.0040   27.6250   42.2550 C   0  0  0  0  0  0  0  0  0  0  0  0
   36.3960   28.5310   41.4440 N   0  0  0  0  0  0  0  0  0  0  0  0
   36.1010   28.2640   40.1460 C   0  0  0  0  0  0  0  0  0  0  0  0
   36.4030   27.0830   39.6140 N   0  0  0  0  0  0  0  0  0  0  0  0
   37.2320   25.2000   39.8920 H   0  0  0  0  0  0  0  0  0  0  0  0
   37.8160   25.5750   42.2660 H   0  0  0  0  0  0  0  0  0  0  0  0
   37.3580   27.8170   43.6490 C   0  0  0  0  0  0  0  0  0  0  0  0
   36.2280   27.5970   44.4290 F   0  0  0  0  0  0  0  0  0  0  0  0
   37.6470   29.1710   43.8010 F   0  0  0  0  0  0  0  0  0  0  0  0
   38.3570   27.0000   44.0770 F   0  0  0  0  0  0  0  0  0  0  0  0
  1  4  1  0  0  0  0
  1 17  1  0  0  0  0
  2  1  1  0  0  0  0
  3  1  1  0  0  0  0
  4  5  1  0  0  0  0
  5  6  2  0  0  0  0
  5  9  1  0  0  0  0
  6 10  1  0  0  0  0
  7  6  1  0  0  0  0
  8  4  2  0  0  0  0
  8  7  1  0  0  0  0
 11  7  1  0  0  0  0
 11 12  2  0  0  0  0
 12 13  1  0  0  0  0
 14 12  1  0  0  0  0
 15 14  2  0  0  0  0
 16 15  1  0  0  0  0
 16 11  1  0  0  0  0
 17 24  1  0  0  0  0
 17 18  1  0  0  0  0
 19 17  1  0  0  0  0
 20 21  1  0  0  0  0
 21 22  2  0  0  0  0
 21 27  1  0  0  0  0
 22 28  1  0  0  0  0
 23 22  1  0  0  0  0
 24 23  2  0  0  0  0
 25 24  1  0  0  0  0
 25 20  2  0  0  0  0
 26 20  1  0  0  0  0
 28 30  1  0  0  0  0
 28 31  1  0  0  0  0
 28 29  1  0  0  0  0
M  END
>  <minimizedAffinity>
-5.79044533

$$$$

 OpenBabel03242515153D

 31 33  0  0  0  0  0  0  0  0999 V2000
   35.6680   28.9250   40.1360 C   0  0  0  0  0  0  0  0  0  0  0  0
   34.5920   29.0790   40.1270 H   0  0  0  0  0  0  0  0  0  0  0  0
   35.9950   28.9580   41.1940 H   0  0  0  0  0  0  0  0  0  0  0  0
   36.4060   29.9940   39.4360 C   0  0  0  0  0  0  0  0  0  0  0  0
   36.5550   30.2380   38.1000 C   0  0  0  0  0  0  0  0  0  0  0  0
   37.3430   31.3650   37.9860 C   0  0  0  0  0  0  0  0  0  0  0  0
   37.6510   31.7800   39.2160 N   0  0  0  0  0  0  0  0  0  0  0  0
   37.0800   30.9440   40.0780 N   0  0  0  0  0  0  0  0  0  0  0  0
   36.1240   29.6370   37.3040 H   0  0  0  0  0  0  0  0  0  0  0  0
   37.6680   31.8490   37.0630 H   0  0  0  0  0  0  0  0  0  0  0  0
   38.4410   32.9010   39.6150 C   0  0  0  0  0  0  0  0  0  0  0  0
   37.9910   34.1070   39.9620 C   0  0  0  0  0  0  0  0  0  0  0  0
   36.9160   34.3480   39.9690 H   0  0  0  0  0  0  0  0  0  0  0  0
   38.8600   35.0980   40.3250 C   0  0  0  0  0  3  0  0  0  0  0  0
   40.2510   34.7180   40.2950 C   0  0  0  0  0  3  0  0  0  0  0  0
   40.1690   32.9200   39.7300 S   0  0  0  0  0  0  0  0  0  0  0  0
   35.9180   27.5820   39.5020 C   0  0  0  0  0  0  0  0  0  0  0  0
   34.9790   26.9990   39.4070 H   0  0  0  0  0  0  0  0  0  0  0  0
   36.3230   27.7760   38.5050 H   0  0  0  0  0  0  0  0  0  0  0  0
   38.1340   24.9300   40.9780 C   0  0  0  0  0  0  0  0  0  0  0  0
   38.5080   25.5680   42.1880 C   0  0  0  0  0  0  0  0  0  0  0  0
   37.9860   26.8530   42.4220 C   0  0  0  0  0  0  0  0  0  0  0  0
   37.1630   27.3930   41.4830 N   0  0  0  0  0  0  0  0  0  0  0  0
   36.8360   26.7380   40.3400 C   0  0  0  0  0  0  0  0  0  0  0  0
   37.3180   25.5230   40.0960 N   0  0  0  0  0  0  0  0  0  0  0  0
   38.5040   23.9480   40.7470 H   0  0  0  0  0  0  0  0  0  0  0  0
   39.1680   25.0450   42.8630 H   0  0  0  0  0  0  0  0  0  0  0  0
   38.3910   27.4730   43.6700 C   0  0  0  0  0  0  0  0  0  0  0  0
   37.2520   27.7850   44.4030 F   0  0  0  0  0  0  0  0  0  0  0  0
   38.9570   28.7010   43.3370 F   0  0  0  0  0  0  0  0  0  0  0  0
   39.2050   26.6900   44.4290 F   0  0  0  0  0  0  0  0  0  0  0  0
  1  3  1  0  0  0  0
  2  1  1  0  0  0  0
  4  8  2  0  0  0  0
  4  1  1  0  0  0  0
  5  4  1  0  0  0  0
  6  5  2  0  0  0  0
  6  7  1  0  0  0  0
  7 11  1  0  0  0  0
  7  8  1  0  0  0  0
  9  5  1  0  0  0  0
 10  6  1  0  0  0  0
 11 16  1  0  0  0  0
 11 12  2  0  0  0  0
 12 13  1  0  0  0  0
 12 14  1  0  0  0  0
 15 14  2  0  0  0  0
 16 15  1  0  0  0  0
 17  1  1  0  0  0  0
 17 24  1  0  0  0  0
 18 17  1  0  0  0  0
 19 17  1  0  0  0  0
 20 21  1  0  0  0  0
 21 22  2  0  0  0  0
 21 27  1  0  0  0  0
 22 28  1  0  0  0  0
 23 22  1  0  0  0  0
 24 23  2  0  0  0  0
 25 24  1  0  0  0  0
 25 20  2  0  0  0  0
 26 20  1  0  0  0  0
 28 29  1  0  0  0  0
 28 31  1  0  0  0  0
 30 28  1  0  0  0  0
M  END
>  <minimizedAffinity>
-5.50912476

$$$$

 OpenBabel03242515153D

 31 33  0  0  0  0  0  0  0  0999 V2000
   36.5920   31.2800   40.5000 C   0  0  0  0  0  0  0  0  0  0  0  0
   35.5910   31.6940   40.4140 H   0  0  0  0  0  0  0  0  0  0  0  0
   36.6940   30.8800   41.5280 H   0  0  0  0  0  0  0  0  0  0  0  0
   37.6490   32.2970   40.3400 C   0  0  0  0  0  0  0  0  0  0  0  0
   37.5740   33.5910   39.9090 C   0  0  0  0  0  0  0  0  0  0  0  0
   38.8560   34.1010   39.9510 C   0  0  0  0  0  0  0  0  0  0  0  0
   39.6670   33.1410   40.3950 N   0  0  0  0  0  0  0  0  0  0  0  0
   38.9260   32.0610   40.6250 N   0  0  0  0  0  0  0  0  0  0  0  0
   36.6620   34.0930   39.5970 H   0  0  0  0  0  0  0  0  0  0  0  0
   39.1710   35.1090   39.6750 H   0  0  0  0  0  0  0  0  0  0  0  0
   41.0790   33.1850   40.6100 C   0  0  0  0  0  0  0  0  0  0  0  0
   41.7870   32.3830   41.4050 C   0  0  0  0  0  0  0  0  0  0  0  0
   41.3150   31.5790   41.9910 H   0  0  0  0  0  0  0  0  0  0  0  0
   43.1410   32.5340   41.5210 C   0  0  0  0  0  3  0  0  0  0  0  0
   43.6960   33.6040   40.7280 C   0  0  0  0  0  3  0  0  0  0  0  0
   42.1710   34.3070   39.8700 S   0  0  0  0  0  0  0  0  0  0  0  0
   36.7080   30.2030   39.4540 C   0  0  0  0  0  0  0  0  0  0  0  0
   35.8030   30.1640   38.8130 H   0  0  0  0  0  0  0  0  0  0  0  0
   37.5740   30.4560   38.8370 H   0  0  0  0  0  0  0  0  0  0  0  0
   36.9440   26.5320   40.2240 C   0  0  0  0  0  0  0  0  0  0  0  0
   37.0610   26.5850   41.6370 C   0  0  0  0  0  0  0  0  0  0  0  0
   37.0530   27.8590   42.2330 C   0  0  0  0  0  0  0  0  0  0  0  0
   36.9330   28.9460   41.4240 N   0  0  0  0  0  0  0  0  0  0  0  0
   36.8240   28.8390   40.0750 C   0  0  0  0  0  0  0  0  0  0  0  0
   36.8300   27.6460   39.4890 N   0  0  0  0  0  0  0  0  0  0  0  0
   36.9460   25.5860   39.7160 H   0  0  0  0  0  0  0  0  0  0  0  0
   37.1510   25.6570   42.1810 H   0  0  0  0  0  0  0  0  0  0  0  0
   37.1740   27.8720   43.6790 C   0  0  0  0  0  0  0  0  0  0  0  0
   38.2470   27.0660   44.0420 F   0  0  0  0  0  0  0  0  0  0  0  0
   36.0470   27.2230   44.1760 F   0  0  0  0  0  0  0  0  0  0  0  0
   37.3570   29.1140   44.2010 F   0  0  0  0  0  0  0  0  0  0  0  0
  1  3  1  0  0  0  0
  2  1  1  0  0  0  0
  4  1  1  0  0  0  0
  4  8  2  0  0  0  0
  5  6  2  0  0  0  0
  5  4  1  0  0  0  0
  6  7  1  0  0  0  0
  7 11  1  0  0  0  0
  7  8  1  0  0  0  0
  9  5  1  0  0  0  0
 10  6  1  0  0  0  0
 11 12  2  0  0  0  0
 12 14  1  0  0  0  0
 12 13  1  0  0  0  0
 15 14  2  0  0  0  0
 16 11  1  0  0  0  0
 16 15  1  0  0  0  0
 17 24  1  0  0  0  0
 17  1  1  0  0  0  0
 18 17  1  0  0  0  0
 19 17  1  0  0  0  0
 20 21  1  0  0  0  0
 21 27  1  0  0  0  0
 21 22  2  0  0  0  0
 22 28  1  0  0  0  0
 23 22  1  0  0  0  0
 24 23  2  0  0  0  0
 25 24  1  0  0  0  0
 25 20  2  0  0  0  0
 26 20  1  0  0  0  0
 28 29  1  0  0  0  0
 28 30  1  0  0  0  0
 28 31  1  0  0  0  0
M  END
>  <minimizedAffinity>
-5.48715925

$$$$

 OpenBabel03242515153D

 31 33  0  0  0  0  0  0  0  0999 V2000
   35.8240   30.5900   40.7960 C   0  0  0  0  0  0  0  0  0  0  0  0
   34.8220   30.8900   40.5010 H   0  0  0  0  0  0  0  0  0  0  0  0
   35.9690   30.9190   41.8440 H   0  0  0  0  0  0  0  0  0  0  0  0
   36.8770   31.2500   40.0010 C   0  0  0  0  0  0  0  0  0  0  0  0
   37.0440   31.3330   38.6480 C   0  0  0  0  0  0  0  0  0  0  0  0
   38.1940   32.0660   38.4310 C   0  0  0  0  0  0  0  0  0  0  0  0
   38.6940   32.4100   39.6190 N   0  0  0  0  0  0  0  0  0  0  0  0
   37.8910   31.9120   40.5540 N   0  0  0  0  0  0  0  0  0  0  0  0
   36.3800   30.8930   37.9100 H   0  0  0  0  0  0  0  0  0  0  0  0
   38.6330   32.3300   37.4680 H   0  0  0  0  0  0  0  0  0  0  0  0
   39.8670   33.1680   39.9140 C   0  0  0  0  0  0  0  0  0  0  0  0
   39.9490   34.4940   40.0260 C   0  0  0  0  0  0  0  0  0  0  0  0
   39.0710   35.1450   39.8940 H   0  0  0  0  0  0  0  0  0  0  0  0
   41.1410   35.0990   40.3140 C   0  0  0  0  0  3  0  0  0  0  0  0
   42.2510   34.1900   40.4760 C   0  0  0  0  0  3  0  0  0  0  0  0
   41.4450   32.5090   40.1900 S   0  0  0  0  0  0  0  0  0  0  0  0
   35.8890   29.0920   40.6530 C   0  0  0  0  0  0  0  0  0  0  0  0
   34.8870   28.6310   40.7780 H   0  0  0  0  0  0  0  0  0  0  0  0
   36.2550   28.8890   39.6430 H   0  0  0  0  0  0  0  0  0  0  0  0
   38.0690   28.3130   43.6120 C   0  0  0  0  0  0  0  0  0  0  0  0
   38.2810   26.9250   43.4040 C   0  0  0  0  0  0  0  0  0  0  0  0
   37.6710   26.3480   42.2750 C   0  0  0  0  0  0  0  0  0  0  0  0
   36.9270   27.1490   41.4660 N   0  0  0  0  0  0  0  0  0  0  0  0
   36.7560   28.4730   41.7130 C   0  0  0  0  0  0  0  0  0  0  0  0
   37.3220   29.0420   42.7730 N   0  0  0  0  0  0  0  0  0  0  0  0
   38.5100   28.8050   44.4590 H   0  0  0  0  0  0  0  0  0  0  0  0
   38.8910   26.3860   44.1110 H   0  0  0  0  0  0  0  0  0  0  0  0
   37.9110   24.9280   42.0950 C   0  0  0  0  0  0  0  0  0  0  0  0
   38.2470   24.6990   40.7660 F   0  0  0  0  0  0  0  0  0  0  0  0
   36.6840   24.2930   42.2750 F   0  0  0  0  0  0  0  0  0  0  0  0
   38.8970   24.4360   42.8920 F   0  0  0  0  0  0  0  0  0  0  0  0
  1  3  1  0  0  0  0
  2  1  1  0  0  0  0
  4  8  2  0  0  0  0
  4  1  1  0  0  0  0
  5  4  1  0  0  0  0
  6  5  2  0  0  0  0
  6  7  1  0  0  0  0
  7 11  1  0  0  0  0
  7  8  1  0  0  0  0
  9  5  1  0  0  0  0
 10  6  1  0  0  0  0
 11 12  2  0  0  0  0
 11 16  1  0  0  0  0
 12 14  1  0  0  0  0
 13 12  1  0  0  0  0
 14 15  2  0  0  0  0
 16 15  1  0  0  0  0
 17 18  1  0  0  0  0
 17  1  1  0  0  0  0
 17 24  1  0  0  0  0
 19 17  1  0  0  0  0
 20 26  1  0  0  0  0
 21 20  1  0  0  0  0
 21 27  1  0  0  0  0
 22 21  2  0  0  0  0
 23 24  2  0  0  0  0
 23 22  1  0  0  0  0
 24 25  1  0  0  0  0
 25 20  2  0  0  0  0
 28 22  1  0  0  0  0
 28 30  1  0  0  0  0
 28 31  1  0  0  0  0
 29 28  1  0  0  0  0
M  END
>  <minimizedAffinity>
-5.455585

$$$$

 OpenBabel03242515153D

 31 33  0  0  0  0  0  0  0  0999 V2000
   34.8860   28.2660   38.4740 C   0  0  0  0  0  0  0  0  0  0  0  0
   35.8600   28.5850   38.1120 H   0  0  0  0  0  0  0  0  0  0  0  0
   34.9750   27.2000   38.7620 H   0  0  0  0  0  0  0  0  0  0  0  0
   33.8380   28.3330   37.4370 C   0  0  0  0  0  0  0  0  0  0  0  0
   33.3480   27.3630   36.6110 C   0  0  0  0  0  0  0  0  0  0  0  0
   32.3760   27.9570   35.8310 C   0  0  0  0  0  0  0  0  0  0  0  0
   32.2900   29.2400   36.1840 N   0  0  0  0  0  0  0  0  0  0  0  0
   33.1760   29.4510   37.1520 N   0  0  0  0  0  0  0  0  0  0  0  0
   33.6830   26.3300   36.5940 H   0  0  0  0  0  0  0  0  0  0  0  0
   31.7720   27.4800   35.0570 H   0  0  0  0  0  0  0  0  0  0  0  0
   31.4330   30.2590   35.6680 C   0  0  0  0  0  0  0  0  0  0  0  0
   30.8120   31.2070   36.3700 C   0  0  0  0  0  0  0  0  0  0  0  0
   30.9160   31.2840   37.4640 H   0  0  0  0  0  0  0  0  0  0  0  0
   30.0140   32.1270   35.7480 C   0  0  0  0  0  3  0  0  0  0  0  0
   29.9210   31.9710   34.3170 C   0  0  0  0  0  3  0  0  0  0  0  0
   31.0210   30.4720   33.9990 S   0  0  0  0  0  0  0  0  0  0  0  0
   34.5500   29.1490   39.6480 C   0  0  0  0  0  0  0  0  0  0  0  0
   34.2220   30.1560   39.3160 H   0  0  0  0  0  0  0  0  0  0  0  0
   33.7300   28.6620   40.1830 H   0  0  0  0  0  0  0  0  0  0  0  0
   37.6470   30.4040   41.3680 C   0  0  0  0  0  0  0  0  0  0  0  0
   37.8090   29.3940   42.3510 C   0  0  0  0  0  0  0  0  0  0  0  0
   36.8590   28.3560   42.3650 C   0  0  0  0  0  0  0  0  0  0  0  0
   35.8580   28.3890   41.4440 N   0  0  0  0  0  0  0  0  0  0  0  0
   35.7490   29.3810   40.5240 C   0  0  0  0  0  0  0  0  0  0  0  0
   36.6340   30.3730   40.4910 N   0  0  0  0  0  0  0  0  0  0  0  0
   38.3420   31.2210   41.3120 H   0  0  0  0  0  0  0  0  0  0  0  0
   38.6420   29.4680   43.0330 H   0  0  0  0  0  0  0  0  0  0  0  0
   37.0580   27.3420   43.3830 C   0  0  0  0  0  0  0  0  0  0  0  0
   37.0260   26.0910   42.7780 F   0  0  0  0  0  0  0  0  0  0  0  0
   35.9330   27.3790   44.2040 F   0  0  0  0  0  0  0  0  0  0  0  0
   38.2290   27.4750   44.0640 F   0  0  0  0  0  0  0  0  0  0  0  0
  1  3  1  0  0  0  0
  1 17  1  0  0  0  0
  2  1  1  0  0  0  0
  4  1  1  0  0  0  0
  5  4  1  0  0  0  0
  6  7  1  0  0  0  0
  6  5  2  0  0  0  0
  7  8  1  0  0  0  0
  8  4  2  0  0  0  0
  9  5  1  0  0  0  0
 10  6  1  0  0  0  0
 11  7  1  0  0  0  0
 11 12  2  0  0  0  0
 12 13  1  0  0  0  0
 14 12  1  0  0  0  0
 15 14  2  0  0  0  0
 16 15  1  0  0  0  0
 16 11  1  0  0  0  0
 17 19  1  0  0  0  0
 17 24  1  0  0  0  0
 18 17  1  0  0  0  0
 20 21  1  0  0  0  0
 21 22  2  0  0  0  0
 21 27  1  0  0  0  0
 22 28  1  0  0  0  0
 23 22  1  0  0  0  0
 24 23  2  0  0  0  0
 25 24  1  0  0  0  0
 25 20  2  0  0  0  0
 26 20  1  0  0  0  0
 28 31  1  0  0  0  0
 28 30  1  0  0  0  0
 29 28  1  0  0  0  0
M  END
>  <minimizedAffinity>
-5.42756891

$$$$

 OpenBabel03242515153D

 31 33  0  0  0  0  0  0  0  0999 V2000
   39.1160   31.5780   41.3260 C   0  0  0  0  0  0  0  0  0  0  0  0
   38.9580   30.7340   40.6590 H   0  0  0  0  0  0  0  0  0  0  0  0
   38.1220   32.0190   41.5380 H   0  0  0  0  0  0  0  0  0  0  0  0
   39.9270   32.6480   40.7160 C   0  0  0  0  0  0  0  0  0  0  0  0
   39.5480   33.8270   40.1390 C   0  0  0  0  0  0  0  0  0  0  0  0
   40.7040   34.4600   39.7280 C   0  0  0  0  0  0  0  0  0  0  0  0
   41.7380   33.6830   40.0530 N   0  0  0  0  0  0  0  0  0  0  0  0
   41.2550   32.5960   40.6470 N   0  0  0  0  0  0  0  0  0  0  0  0
   38.5230   34.1700   40.0360 H   0  0  0  0  0  0  0  0  0  0  0  0
   40.7810   35.4260   39.2260 H   0  0  0  0  0  0  0  0  0  0  0  0
   43.1320   33.9050   39.8380 C   0  0  0  0  0  0  0  0  0  0  0  0
   43.7740   33.8560   38.6700 C   0  0  0  0  0  0  0  0  0  0  0  0
   43.2510   33.6270   37.7270 H   0  0  0  0  0  0  0  0  0  0  0  0
   45.1190   34.0900   38.6010 C   0  0  0  0  0  3  0  0  0  0  0  0
   45.7420   34.3840   39.8690 C   0  0  0  0  0  3  0  0  0  0  0  0
   44.2890   34.2900   41.0680 S   0  0  0  0  0  0  0  0  0  0  0  0
   39.7740   31.0320   42.5660 C   0  0  0  0  0  0  0  0  0  0  0  0
   40.8620   31.2500   42.5750 H   0  0  0  0  0  0  0  0  0  0  0  0
   39.3010   31.5290   43.4170 H   0  0  0  0  0  0  0  0  0  0  0  0
   40.3040   27.3120   42.6240 C   0  0  0  0  0  0  0  0  0  0  0  0
   38.9720   26.8770   42.8410 C   0  0  0  0  0  0  0  0  0  0  0  0
   37.9830   27.8720   42.9520 C   0  0  0  0  0  0  0  0  0  0  0  0
   38.3670   29.1730   42.8460 N   0  0  0  0  0  0  0  0  0  0  0  0
   39.6590   29.5350   42.6390 C   0  0  0  0  0  0  0  0  0  0  0  0
   40.6110   28.6130   42.5310 N   0  0  0  0  0  0  0  0  0  0  0  0
   41.0990   26.5950   42.5320 H   0  0  0  0  0  0  0  0  0  0  0  0
   38.7810   25.8170   42.9080 H   0  0  0  0  0  0  0  0  0  0  0  0
   36.6340   27.3880   43.1720 C   0  0  0  0  0  0  0  0  0  0  0  0
   36.6040   26.0210   42.9220 F   0  0  0  0  0  0  0  0  0  0  0  0
   35.8420   27.9570   42.1770 F   0  0  0  0  0  0  0  0  0  0  0  0
   36.1690   27.6180   44.4300 F   0  0  0  0  0  0  0  0  0  0  0  0
  1  3  1  0  0  0  0
  1 17  1  0  0  0  0
  2  1  1  0  0  0  0
  4  1  1  0  0  0  0
  5  4  1  0  0  0  0
  6  7  1  0  0  0  0
  6  5  2  0  0  0  0
  7  8  1  0  0  0  0
  8  4  2  0  0  0  0
  9  5  1  0  0  0  0
 10  6  1  0  0  0  0
 11  7  1  0  0  0  0
 11 16  1  0  0  0  0
 12 11  2  0  0  0  0
 13 12  1  0  0  0  0
 14 12  1  0  0  0  0
 14 15  2  0  0  0  0
 15 16  1  0  0  0  0
 17 18  1  0  0  0  0
 17 24  1  0  0  0  0
 17 19  1  0  0  0  0
 20 21  1  0  0  0  0
 21 27  1  0  0  0  0
 21 22  2  0  0  0  0
 22 28  1  0  0  0  0
 23 22  1  0  0  0  0
 24 23  2  0  0  0  0
 25 20  2  0  0  0  0
 25 24  1  0  0  0  0
 26 20  1  0  0  0  0
 28 31  1  0  0  0  0
 29 28  1  0  0  0  0
 30 28  1  0  0  0  0
M  END
>  <minimizedAffinity>
-5.41481256

$$$$

 OpenBabel03242515153D

 31 33  0  0  0  0  0  0  0  0999 V2000
   40.3070   29.5040   42.6070 C   0  0  0  0  0  0  0  0  0  0  0  0
   40.8640   29.4130   41.6780 H   0  0  0  0  0  0  0  0  0  0  0  0
   40.9440   29.0900   43.4140 H   0  0  0  0  0  0  0  0  0  0  0  0
   39.0620   28.7130   42.6090 C   0  0  0  0  0  0  0  0  0  0  0  0
   37.9500   28.8140   43.3950 C   0  0  0  0  0  0  0  0  0  0  0  0
   37.0750   27.8310   42.9790 C   0  0  0  0  0  0  0  0  0  0  0  0
   37.6490   27.1670   41.9750 N   0  0  0  0  0  0  0  0  0  0  0  0
   38.8440   27.7090   41.7630 N   0  0  0  0  0  0  0  0  0  0  0  0
   37.8130   29.5420   44.1910 H   0  0  0  0  0  0  0  0  0  0  0  0
   36.0850   27.6180   43.3850 H   0  0  0  0  0  0  0  0  0  0  0  0
   37.1410   26.0680   41.2180 C   0  0  0  0  0  0  0  0  0  0  0  0
   36.9360   24.8260   41.6590 C   0  0  0  0  0  0  0  0  0  0  0  0
   37.1540   24.5340   42.6980 H   0  0  0  0  0  0  0  0  0  0  0  0
   36.4410   23.8620   40.8250 C   0  0  0  0  0  3  0  0  0  0  0  0
   36.1770   24.3100   39.4800 C   0  0  0  0  0  3  0  0  0  0  0  0
   36.6810   26.1260   39.5490 S   0  0  0  0  0  0  0  0  0  0  0  0
   40.0230   30.9710   42.7990 C   0  0  0  0  0  0  0  0  0  0  0  0
   39.0000   31.1360   43.1950 H   0  0  0  0  0  0  0  0  0  0  0  0
   40.7530   31.3390   43.5260 H   0  0  0  0  0  0  0  0  0  0  0  0
   40.9790   32.8880   39.7120 C   0  0  0  0  0  0  0  0  0  0  0  0
   39.7060   33.0160   39.0980 C   0  0  0  0  0  0  0  0  0  0  0  0
   38.6110   32.4450   39.7710 C   0  0  0  0  0  0  0  0  0  0  0  0
   38.8420   31.8150   40.9540 N   0  0  0  0  0  0  0  0  0  0  0  0
   40.0820   31.7200   41.4980 C   0  0  0  0  0  0  0  0  0  0  0  0
   41.1330   32.2510   40.8800 N   0  0  0  0  0  0  0  0  0  0  0  0
   41.8510   33.3040   39.2410 H   0  0  0  0  0  0  0  0  0  0  0  0
   39.6390   33.5390   38.1560 H   0  0  0  0  0  0  0  0  0  0  0  0
   37.3270   32.5980   39.1130 C   0  0  0  0  0  0  0  0  0  0  0  0
   36.8780   33.8980   39.3090 F   0  0  0  0  0  0  0  0  0  0  0  0
   36.4270   31.7930   39.8090 F   0  0  0  0  0  0  0  0  0  0  0  0
   37.3630   32.3390   37.7790 F   0  0  0  0  0  0  0  0  0  0  0  0
  1  4  1  0  0  0  0
  1 17  1  0  0  0  0
  1  3  1  0  0  0  0
  2  1  1  0  0  0  0
  4  5  1  0  0  0  0
  5  9  1  0  0  0  0
  6 10  1  0  0  0  0
  6  5  2  0  0  0  0
  7  6  1  0  0  0  0
  8  7  1  0  0  0  0
  8  4  2  0  0  0  0
 11 12  2  0  0  0  0
 11  7  1  0  0  0  0
 12 13  1  0  0  0  0
 14 12  1  0  0  0  0
 15 16  1  0  0  0  0
 15 14  2  0  0  0  0
 16 11  1  0  0  0  0
 17 18  1  0  0  0  0
 17 19  1  0  0  0  0
 20 25  1  0  0  0  0
 21 20  2  0  0  0  0
 21 22  1  0  0  0  0
 22 23  2  0  0  0  0
 23 24  1  0  0  0  0
 24 17  1  0  0  0  0
 25 24  2  0  0  0  0
 26 20  1  0  0  0  0
 27 21  1  0  0  0  0
 28 29  1  0  0  0  0
 28 22  1  0  0  0  0
 28 30  1  0  0  0  0
 31 28  1  0  0  0  0
M  END
>  <minimizedAffinity>
-5.41368866

$$$$

 OpenBabel03242515153D

 31 33  0  0  0  0  0  0  0  0999 V2000
   36.3580   29.5490   38.2270 C   0  0  0  0  0  0  0  0  0  0  0  0
   36.9380   28.7130   37.8440 H   0  0  0  0  0  0  0  0  0  0  0  0
   35.8210   29.9970   37.3680 H   0  0  0  0  0  0  0  0  0  0  0  0
   37.2020   30.6170   38.7970 C   0  0  0  0  0  0  0  0  0  0  0  0
   37.1300   31.9740   38.6530 C   0  0  0  0  0  0  0  0  0  0  0  0
   38.1600   32.5100   39.4000 C   0  0  0  0  0  0  0  0  0  0  0  0
   38.8220   31.5030   39.9710 N   0  0  0  0  0  0  0  0  0  0  0  0
   38.2340   30.3710   39.5990 N   0  0  0  0  0  0  0  0  0  0  0  0
   36.3910   32.4990   38.0550 H   0  0  0  0  0  0  0  0  0  0  0  0
   38.4060   33.5670   39.5160 H   0  0  0  0  0  0  0  0  0  0  0  0
   39.9600   31.5510   40.8330 C   0  0  0  0  0  0  0  0  0  0  0  0
   40.1380   30.8520   41.9540 C   0  0  0  0  0  0  0  0  0  0  0  0
   39.3800   30.1430   42.3250 H   0  0  0  0  0  0  0  0  0  0  0  0
   41.2810   30.9920   42.6910 C   0  0  0  0  0  3  0  0  0  0  0  0
   42.2310   31.9340   42.1510 C   0  0  0  0  0  3  0  0  0  0  0  0
   41.3600   32.5420   40.5920 S   0  0  0  0  0  0  0  0  0  0  0  0
   35.4170   28.9870   39.2600 C   0  0  0  0  0  0  0  0  0  0  0  0
   35.1280   29.7570   40.0050 H   0  0  0  0  0  0  0  0  0  0  0  0
   34.5240   28.6550   38.7230 H   0  0  0  0  0  0  0  0  0  0  0  0
   36.9530   25.7970   40.5190 C   0  0  0  0  0  0  0  0  0  0  0  0
   37.2340   26.1710   41.8580 C   0  0  0  0  0  0  0  0  0  0  0  0
   36.8840   27.4780   42.2450 C   0  0  0  0  0  0  0  0  0  0  0  0
   36.3050   28.2880   41.3180 N   0  0  0  0  0  0  0  0  0  0  0  0
   36.0580   27.8800   40.0470 C   0  0  0  0  0  0  0  0  0  0  0  0
   36.3810   26.6500   39.6580 N   0  0  0  0  0  0  0  0  0  0  0  0
   37.2000   24.8120   40.1700 H   0  0  0  0  0  0  0  0  0  0  0  0
   37.6970   25.4460   42.5090 H   0  0  0  0  0  0  0  0  0  0  0  0
   37.1860   27.8230   43.6210 C   0  0  0  0  0  0  0  0  0  0  0  0
   38.3100   27.1110   44.0220 F   0  0  0  0  0  0  0  0  0  0  0  0
   36.1410   27.3200   44.3930 F   0  0  0  0  0  0  0  0  0  0  0  0
   37.4110   29.1510   43.8150 F   0  0  0  0  0  0  0  0  0  0  0  0
  1  4  1  0  0  0  0
  1 17  1  0  0  0  0
  2  1  1  0  0  0  0
  3  1  1  0  0  0  0
  4  8  2  0  0  0  0
  5  4  1  0  0  0  0
  5  6  2  0  0  0  0
  6 10  1  0  0  0  0
  6  7  1  0  0  0  0
  7 11  1  0  0  0  0
  8  7  1  0  0  0  0
  9  5  1  0  0  0  0
 11 12  2  0  0  0  0
 12 13  1  0  0  0  0
 12 14  1  0  0  0  0
 15 14  2  0  0  0  0
 16 11  1  0  0  0  0
 16 15  1  0  0  0  0
 17 18  1  0  0  0  0
 17 24  1  0  0  0  0
 19 17  1  0  0  0  0
 20 21  1  0  0  0  0
 21 22  2  0  0  0  0
 21 27  1  0  0  0  0
 22 28  1  0  0  0  0
 23 22  1  0  0  0  0
 24 23  2  0  0  0  0
 25 24  1  0  0  0  0
 25 20  2  0  0  0  0
 26 20  1  0  0  0  0
 28 31  1  0  0  0  0
 28 29  1  0  0  0  0
 28 30  1  0  0  0  0
M  END
>  <minimizedAffinity>
-5.40791845

$$$$
