
     RDKit          3D

 24 25  0  0  0  0  0  0  0  0999 V2000
   47.7404   34.8498   42.0920 C   0  0  0  0  0  0  0  0  0  0  0  0
   48.3086   33.8118   42.8262 C   0  0  0  0  0  0  0  0  0  0  0  0
   47.5977   33.2963   43.9090 C   0  0  0  0  0  0  0  0  0  0  0  0
   46.3644   33.8255   44.2171 N   0  0  0  0  0  0  0  0  0  0  0  0
   45.8641   34.8298   43.4711 C   0  0  0  0  0  0  0  0  0  0  0  0
   46.5347   35.3323   42.4318 N   0  0  0  0  0  0  0  0  0  0  0  0
   49.9097   33.1390   42.4104 S   0  0  0  0  0  0  0  0  0  0  0  0
   48.5476   35.3401   40.9673 C   0  0  0  0  0  0  0  0  0  0  0  0
   48.1977   34.7045   39.6441 C   0  0  0  0  0  0  0  0  0  0  0  0
   47.9939   32.4948   44.5066 H   0  0  0  0  0  0  0  0  0  0  0  0
   44.9065   35.3058   43.6386 H   0  0  0  0  0  0  0  0  0  0  0  0
   49.9371   31.7412   42.5221 H   0  0  0  0  0  0  0  0  0  0  0  0
   48.3508   36.4403   40.8445 H   0  0  0  0  0  0  0  0  0  0  0  0
   49.6316   35.2404   41.1344 H   0  0  0  0  0  0  0  0  0  0  0  0
   48.3945   33.6108   39.6437 H   0  0  0  0  0  0  0  0  0  0  0  0
   47.1566   34.9518   39.3989 H   0  0  0  0  0  0  0  0  0  0  0  0
   49.0934   35.3037   38.6331 C   0  0  0  0  0  0  0  0  0  0  0  0
   49.8711   36.4272   38.7243 C   0  0  0  0  0  0  0  0  0  0  0  0
   49.8512   36.9802   39.6533 H   0  0  0  0  0  0  0  0  0  0  0  0
   50.6363   36.8350   37.6975 C   0  0  0  0  0  0  0  0  0  0  0  0
   50.5256   35.9350   36.5003 C   0  0  0  0  0  0  0  0  0  0  0  0
   49.3012   34.6103   37.0674 S   0  0  0  0  0  0  0  0  0  0  0  0
   51.2737   37.7004   37.6841 H   0  0  0  0  0  0  0  0  0  0  0  0
   51.2422   36.3287   35.5578 H   0  0  0  0  0  0  0  0  0  0  0  0
  1  6  1  0
  1  2  2  0
  2  3  1  0
  3  4  2  0
  5  4  1  0
  6  5  2  0
  7  2  1  0
  8  1  1  0
  9  8  1  0
  3 10  1  0
  5 11  1  0
  7 12  1  0
  8 13  1  0
  8 14  1  0
  9 15  1  0
  9 16  1  0
 17 18  2  0
 18 19  1  0
 18 20  1  0
 20 21  2  0
 21 22  1  0
 22 17  1  0
 20 23  1  0
 21 24  1  0
  9 17  1  0
M  ISO  8  10  14  11  14  12  11  13   8  14   8  15   8  16   8  19  15
M  END
>  <DihAtoms>  (1) 
7,8,16,17

>  <DihDeg>  (1) 
90.18380083870798

$$$$
