
 OpenBabel03242513343D

 18 19  0  0  0  0  0  0  0  0999 V2000
   44.6700   35.2360   45.1130 C   0  0  0  0  0  0  0  0  0  0  0  0
   45.3200   34.9970   43.9050 C   0  0  0  0  0  0  0  0  0  0  0  0
   46.2200   33.9300   43.8290 C   0  0  0  0  0  0  0  0  0  0  0  0
   46.4190   33.1700   44.9440 N   0  0  0  0  0  0  0  0  0  0  0  0
   45.7730   33.4270   46.0990 C   0  0  0  0  0  0  0  0  0  0  0  0
   44.9060   34.4480   46.1900 N   0  0  0  0  0  0  0  0  0  0  0  0
   43.9550   36.0420   45.2620 H   0  0  0  0  0  0  0  0  0  0  0  0
   46.6930   33.7870   42.8840 H   0  0  0  0  0  0  0  0  0  0  0  0
   46.0170   32.5820   47.2800 C   0  0  0  0  0  0  0  0  0  0  0  0
   45.0670   32.2220   48.2020 C   0  0  0  0  0  0  0  0  0  0  0  0
   44.0390   32.5430   48.1240 H   0  0  0  0  0  0  0  0  0  0  0  0
   45.4130   31.4280   49.2640 C   0  0  0  0  0  0  0  0  0  0  0  0
   46.8040   31.0140   49.3400 C   0  0  0  0  0  0  0  0  0  0  0  0
   47.5240   31.8480   47.7930 S   0  0  0  0  0  0  0  0  0  0  0  0
   44.9950   35.9150   42.7810 C   0  0  0  0  0  0  0  0  0  0  0  0
   45.2710   37.1980   43.2280 F   0  0  0  0  0  0  0  0  0  0  0  0
   43.6820   35.7800   42.4520 F   0  0  0  0  0  0  0  0  0  0  0  0
   45.8180   35.5610   41.6990 F   0  0  0  0  0  0  0  0  0  0  0  0
  1  7  1  0  0  0  0
  1  6  1  0  0  0  0
  2  1  2  0  0  0  0
  3  2  1  0  0  0  0
  3  4  2  0  0  0  0
  4  5  1  0  0  0  0
  5  6  2  0  0  0  0
  5  9  1  0  0  0  0
  8  3  1  0  0  0  0
  9 14  1  0  0  0  0
  9 10  2  0  0  0  0
 10 12  1  0  0  0  0
 11 10  1  0  0  0  0
 12 13  2  0  0  0  0
 14 13  1  0  0  0  0
 15 16  1  0  0  0  0
 15  2  1  0  0  0  0
 17 15  1  0  0  0  0
 18 15  1  0  0  0  0
M  END
>  <minimizedAffinity>
-5.00128317

>  <minimizedRMSD>
0.70670408

$$$$
