
 OpenBabel03252507553D

 41 44  0  0  1  0  0  0  0  0999 V2000
   47.1590   34.7390   42.1560 C   0  0  2  0  0  0  0  0  0  0  0  0
   46.3500   34.3850   40.9070 C   0  0  0  0  0  0  0  0  0  0  0  0
   47.5280   34.2350   39.9220 C   0  0  0  0  0  0  0  0  0  0  0  0
   48.6310   33.6300   40.7330 C   0  0  1  0  0  0  0  0  0  0  0  0
   48.1340   33.5930   42.1480 C   0  0  0  0  0  0  0  0  0  0  0  0
   47.6460   35.7010   41.9700 H   0  0  0  0  0  0  0  0  0  0  0  0
   45.8870   33.4000   41.0230 H   0  0  0  0  0  0  0  0  0  0  0  0
   45.6830   35.1920   40.5960 H   0  0  0  0  0  0  0  0  0  0  0  0
   47.8460   35.2640   39.6300 H   0  0  0  0  0  0  0  0  0  0  0  0
   47.2300   33.6120   39.0610 H   0  0  0  0  0  0  0  0  0  0  0  0
   49.5680   34.2300   40.7080 H   0  0  0  0  0  0  0  0  0  0  0  0
   48.9350   33.8370   42.8790 H   0  0  0  0  0  0  0  0  0  0  0  0
   47.6000   32.6570   42.3950 H   0  0  0  0  0  0  0  0  0  0  0  0
   44.5800   35.6010   44.7620 C   0  0  0  0  0  0  0  0  0  0  0  0
   45.2950   35.6840   43.5570 C   0  0  0  0  0  0  0  0  0  0  0  0
   46.3080   34.7490   43.3750 C   0  0  0  0  0  0  0  0  0  0  0  0
   46.5820   33.7840   44.3560 N   0  0  0  0  0  0  0  0  0  0  0  0
   45.8520   33.7610   45.5000 C   0  0  0  0  0  0  0  0  0  0  0  0
   44.8570   34.6680   45.6960 N   0  0  0  0  0  0  0  0  0  0  0  0
   43.7850   36.3180   44.9320 H   0  0  0  0  0  0  0  0  0  0  0  0
   45.1080   36.4090   42.7890 H   0  0  0  0  0  0  0  0  0  0  0  0
   46.1580   32.9760   46.1730 H   0  0  0  0  0  0  0  0  0  0  0  0
   48.9860   32.2110   40.3470 C   0  0  2  0  0  0  0  0  0  0  0  0
   50.0470   31.5860   41.1290 C   0  0  0  0  0  0  0  0  0  0  0  0
   50.2520   31.8910   39.6840 C   0  0  1  0  0  0  0  0  0  0  0  0
   48.1100   31.5940   40.0820 H   0  0  0  0  0  0  0  0  0  0  0  0
   50.5470   32.1590   41.9120 H   0  0  0  0  0  0  0  0  0  0  0  0
   49.8870   30.5160   41.4490 H   0  0  0  0  0  0  0  0  0  0  0  0
   50.9020   32.7320   39.4040 H   0  0  0  0  0  0  0  0  0  0  0  0
   50.2550   30.8040   38.7790 O   0  0  0  0  0  0  0  0  0  0  0  0
   48.5750   31.0650   36.8060 O   0  0  0  0  0  0  0  0  0  0  0  0
   49.9850   31.3990   37.2340 P   0  0  1  0  0  0  0  0  0  0  0  0
   50.1230   33.1110   37.2380 O   0  0  0  0  0  0  0  0  0  0  0  0
   51.0790   33.3180   37.4710 H   0  0  0  0  0  0  0  0  0  0  0  0
   51.0330   30.8470   36.0720 O   0  0  0  0  0  0  0  0  0  0  0  0
   50.5150   30.3190   34.8920 C   0  0  0  0  0  0  0  0  0  0  0  0
   50.1290   29.1120   34.4360 C   0  0  0  0  0  0  0  0  0  0  0  0
   50.2530   28.3420   35.1870 H   0  0  0  0  0  0  0  0  0  0  0  0
   49.6530   28.9460   33.1830 C   0  0  0  0  0  3  0  0  0  0  0  0
   49.5940   30.1200   32.4040 C   0  0  0  0  0  3  0  0  0  0  0  0
   50.2580   31.4350   33.5850 S   0  0  0  0  0  0  0  0  0  0  0  0
  1  6  1  6  0  0  0
  1 16  1  0  0  0  0
  2  7  1  0  0  0  0
  2  1  1  0  0  0  0
  3  4  1  0  0  0  0
  3  2  1  0  0  0  0
  4 11  1  6  0  0  0
  4  5  1  0  0  0  0
  5  1  1  0  0  0  0
  5 13  1  0  0  0  0
  5 12  1  0  0  0  0
  8  2  1  0  0  0  0
  9  3  1  0  0  0  0
 10  3  1  0  0  0  0
 14 20  1  0  0  0  0
 14 19  1  0  0  0  0
 15 14  2  0  0  0  0
 16 15  1  0  0  0  0
 16 17  2  0  0  0  0
 17 18  1  0  0  0  0
 18 19  2  0  0  0  0
 18 22  1  0  0  0  0
 21 15  1  0  0  0  0
 23 26  1  6  0  0  0
 23  4  1  0  0  0  0
 23 24  1  0  0  0  0
 24 28  1  0  0  0  0
 24 27  1  0  0  0  0
 25 29  1  6  0  0  0
 25 23  1  0  0  0  0
 25 24  1  0  0  0  0
 30 25  1  0  0  0  0
 32 31  2  6  0  0  0
 32 33  1  0  0  0  0
 32 30  1  0  0  0  0
 33 34  1  0  0  0  0
 35 32  1  0  0  0  0
 36 35  1  0  0  0  0
 37 36  2  0  0  0  0
 37 38  1  0  0  0  0
 39 37  1  0  0  0  0
 40 39  2  0  0  0  0
 40 41  1  0  0  0  0
 41 36  1  0  0  0  0
M  END
>  <minimizedAffinity>
-4.9402833

>  <minimizedRMSD>
3.35802794

$$$$
