
 OpenBabel03252507553D

 41 44  0  0  1  0  0  0  0  0999 V2000
   47.0580   34.8080   41.9550 C   0  0  2  0  0  0  0  0  0  0  0  0
   46.2930   34.2070   40.7750 C   0  0  0  0  0  0  0  0  0  0  0  0
   47.4900   33.9930   39.8280 C   0  0  0  0  0  0  0  0  0  0  0  0
   48.6240   33.6030   40.7240 C   0  0  1  0  0  0  0  0  0  0  0  0
   48.1130   33.7480   42.1270 C   0  0  0  0  0  0  0  0  0  0  0  0
   47.4760   35.7620   41.6240 H   0  0  0  0  0  0  0  0  0  0  0  0
   45.9000   33.2210   41.0410 H   0  0  0  0  0  0  0  0  0  0  0  0
   45.5730   34.9060   40.3420 H   0  0  0  0  0  0  0  0  0  0  0  0
   47.7380   34.9850   39.3800 H   0  0  0  0  0  0  0  0  0  0  0  0
   47.2490   33.2250   39.0730 H   0  0  0  0  0  0  0  0  0  0  0  0
   49.5160   34.2580   40.6080 H   0  0  0  0  0  0  0  0  0  0  0  0
   48.8840   34.1600   42.8120 H   0  0  0  0  0  0  0  0  0  0  0  0
   47.6440   32.8260   42.5150 H   0  0  0  0  0  0  0  0  0  0  0  0
   44.5440   36.0140   44.4870 C   0  0  0  0  0  0  0  0  0  0  0  0
   45.2830   35.9870   43.2940 C   0  0  0  0  0  0  0  0  0  0  0  0
   46.1920   34.9430   43.1570 C   0  0  0  0  0  0  0  0  0  0  0  0
   46.3450   33.9830   44.1680 N   0  0  0  0  0  0  0  0  0  0  0  0
   45.5980   34.0710   45.2980 C   0  0  0  0  0  0  0  0  0  0  0  0
   44.7030   35.0840   45.4510 N   0  0  0  0  0  0  0  0  0  0  0  0
   43.8270   36.8170   44.6220 H   0  0  0  0  0  0  0  0  0  0  0  0
   45.1880   36.7050   42.5050 H   0  0  0  0  0  0  0  0  0  0  0  0
   45.8070   33.2770   45.9980 H   0  0  0  0  0  0  0  0  0  0  0  0
   49.0840   32.1710   40.5620 C   0  0  2  0  0  0  0  0  0  0  0  0
   49.9810   31.6720   41.6000 C   0  0  0  0  0  0  0  0  0  0  0  0
   50.4660   31.8470   40.2000 C   0  0  1  0  0  0  0  0  0  0  0  0
   48.2960   31.4930   40.1930 H   0  0  0  0  0  0  0  0  0  0  0  0
   50.2980   32.3380   42.4030 H   0  0  0  0  0  0  0  0  0  0  0  0
   49.7860   30.6310   41.9880 H   0  0  0  0  0  0  0  0  0  0  0  0
   51.1380   32.6860   39.9710 H   0  0  0  0  0  0  0  0  0  0  0  0
   50.6790   30.6800   39.4300 O   0  0  0  0  0  0  0  0  0  0  0  0
   51.9260   29.9950   37.2480 O   0  0  0  0  0  0  0  0  0  0  0  0
   51.9930   30.9440   38.4210 P   0  0  1  0  0  0  0  0  0  0  0  0
   51.9290   32.5390   37.7880 O   0  0  0  0  0  0  0  0  0  0  0  0
   52.0300   33.1600   38.5730 H   0  0  0  0  0  0  0  0  0  0  0  0
   53.4790   30.7850   39.1430 O   0  0  0  0  0  0  0  0  0  0  0  0
   54.5810   30.4630   38.3550 C   0  0  0  0  0  0  0  0  0  0  0  0
   55.1400   30.9010   37.2090 C   0  0  0  0  0  0  0  0  0  0  0  0
   54.5850   31.7270   36.7850 H   0  0  0  0  0  0  0  0  0  0  0  0
   56.2590   30.3360   36.7060 C   0  0  0  0  0  3  0  0  0  0  0  0
   56.7850   29.2680   37.4620 C   0  0  0  0  0  3  0  0  0  0  0  0
   55.5770   29.1500   38.9080 S   0  0  0  0  0  0  0  0  0  0  0  0
  1  6  1  6  0  0  0
  1  5  1  0  0  0  0
  1 16  1  0  0  0  0
  2  7  1  0  0  0  0
  2  1  1  0  0  0  0
  3  4  1  0  0  0  0
  3  2  1  0  0  0  0
  4 11  1  6  0  0  0
  4  5  1  0  0  0  0
  5 13  1  0  0  0  0
  5 12  1  0  0  0  0
  8  2  1  0  0  0  0
  9  3  1  0  0  0  0
 10  3  1  0  0  0  0
 14 20  1  0  0  0  0
 14 19  1  0  0  0  0
 15 14  2  0  0  0  0
 16 15  1  0  0  0  0
 16 17  2  0  0  0  0
 17 18  1  0  0  0  0
 18 19  2  0  0  0  0
 18 22  1  0  0  0  0
 21 15  1  0  0  0  0
 23 26  1  6  0  0  0
 23  4  1  0  0  0  0
 23 24  1  0  0  0  0
 24 28  1  0  0  0  0
 24 27  1  0  0  0  0
 25 29  1  6  0  0  0
 25 23  1  0  0  0  0
 25 24  1  0  0  0  0
 30 25  1  0  0  0  0
 32 31  2  6  0  0  0
 32 35  1  0  0  0  0
 32 30  1  0  0  0  0
 33 32  1  0  0  0  0
 33 34  1  0  0  0  0
 36 41  1  0  0  0  0
 36 35  1  0  0  0  0
 37 36  2  0  0  0  0
 38 37  1  0  0  0  0
 39 37  1  0  0  0  0
 39 40  2  0  0  0  0
 40 41  1  0  0  0  0
M  END
>  <minimizedAffinity>
-5.40096426

>  <minimizedRMSD>
1.61726451

$$$$
