
 OpenBabel03252509263D

 27 29  0  0  1  0  0  0  0  0999 V2000
   46.6740   35.0990   41.9390 C   0  0  1  0  0  0  0  0  0  0  0  0
   48.1950   35.4300   41.9880 C   0  0  0  0  0  0  0  0  0  0  0  0
   47.5390   34.1600   41.3540 C   0  0  2  0  0  0  0  0  0  0  0  0
   46.0960   35.8430   41.3540 H   0  0  0  0  0  0  0  0  0  0  0  0
   48.7340   35.3190   42.9220 H   0  0  0  0  0  0  0  0  0  0  0  0
   48.5500   36.1590   41.2440 H   0  0  0  0  0  0  0  0  0  0  0  0
   47.7720   33.2360   41.9700 H   0  0  0  0  0  0  0  0  0  0  0  0
   44.6820   35.3170   45.1130 C   0  0  0  0  0  0  0  0  0  0  0  0
   45.1600   35.6590   43.8100 C   0  0  0  0  0  0  0  0  0  0  0  0
   46.1410   34.8610   43.3240 C   0  0  0  0  0  0  0  0  0  0  0  0
   46.6400   33.7950   44.0480 N   0  0  0  0  0  0  0  0  0  0  0  0
   46.1570   33.5070   45.2830 C   0  0  0  0  0  0  0  0  0  0  0  0
   45.1770   34.2730   45.8140 N   0  0  0  0  0  0  0  0  0  0  0  0
   43.8940   35.9630   45.4960 H   0  0  0  0  0  0  0  0  0  0  0  0
   46.5400   32.6770   45.8580 H   0  0  0  0  0  0  0  0  0  0  0  0
   44.6570   36.7630   43.0840 N   0  0  0  0  0  0  0  0  0  0  0  0
   44.7380   37.8010   43.2560 H   0  0  0  0  0  0  0  0  0  0  0  0
   44.1620   36.2990   42.2970 H   0  0  0  0  0  0  0  0  0  0  0  0
   47.6290   33.9900   39.8540 C   0  0  0  0  0  0  0  0  0  0  0  0
   46.5650   34.0100   39.4880 H   0  0  0  0  0  0  0  0  0  0  0  0
   48.2420   34.7900   39.3910 H   0  0  0  0  0  0  0  0  0  0  0  0
   48.1430   32.6430   39.5510 C   0  0  0  0  0  0  0  0  0  0  0  0
   49.3430   32.1160   39.1700 C   0  0  0  0  0  0  0  0  0  0  0  0
   50.1700   32.7980   39.0400 H   0  0  0  0  0  0  0  0  0  0  0  0
   49.4200   30.7590   38.9780 C   0  0  0  0  0  3  0  0  0  0  0  0
   48.2940   30.0050   39.1770 C   0  0  0  0  0  3  0  0  0  0  0  0
   47.0360   31.3080   39.6700 S   0  0  0  0  0  0  0  0  0  0  0  0
  1  4  1  6  0  0  0
  1  2  1  0  0  0  0
  1 10  1  0  0  0  0
  2  5  1  0  0  0  0
  3  1  1  0  0  0  0
  3  7  1  1  0  0  0
  3  2  1  0  0  0  0
  6  2  1  0  0  0  0
  8 14  1  0  0  0  0
  8 13  1  0  0  0  0
  9  8  2  0  0  0  0
 10  9  1  0  0  0  0
 10 11  2  0  0  0  0
 11 12  1  0  0  0  0
 12 13  2  0  0  0  0
 12 15  1  0  0  0  0
 16 17  1  0  0  0  0
 16  9  1  0  0  0  0
 18 16  1  0  0  0  0
 19  3  1  0  0  0  0
 20 19  1  0  0  0  0
 21 19  1  0  0  0  0
 22 27  1  0  0  0  0
 22 19  1  0  0  0  0
 23 22  2  0  0  0  0
 24 23  1  0  0  0  0
 25 23  1  0  0  0  0
 25 26  2  0  0  0  0
 26 27  1  0  0  0  0
M  END
>  <minimizedAffinity>
-4.3680315

>  <minimizedRMSD>
0.43174845

$$$$
