
 OpenBabel03252509243D

 24 26  0  0  1  0  0  0  0  0999 V2000
   47.8840   33.8220   42.4980 C   0  0  1  0  0  0  0  0  0  0  0  0
   49.0690   34.8150   42.6280 C   0  0  0  0  0  0  0  0  0  0  0  0
   49.1750   33.2610   42.6750 C   0  0  2  0  0  0  0  0  0  0  0  0
   47.3450   33.9090   41.5370 H   0  0  0  0  0  0  0  0  0  0  0  0
   49.3640   35.2730   41.6690 H   0  0  0  0  0  0  0  0  0  0  0  0
   49.2010   35.3800   43.5440 H   0  0  0  0  0  0  0  0  0  0  0  0
   49.4640   32.9170   43.6960 H   0  0  0  0  0  0  0  0  0  0  0  0
   45.0560   34.7550   44.7770 C   0  0  0  0  0  0  0  0  0  0  0  0
   45.8950   34.7680   43.6150 C   0  0  0  0  0  0  0  0  0  0  0  0
   46.9750   33.9310   43.7080 C   0  0  0  0  0  0  0  0  0  0  0  0
   47.2120   33.1580   44.8330 N   0  0  0  0  0  0  0  0  0  0  0  0
   46.3890   33.1910   45.8870 C   0  0  0  0  0  0  0  0  0  0  0  0
   45.2980   34.0000   45.8590 N   0  0  0  0  0  0  0  0  0  0  0  0
   44.1960   35.3860   44.7650 H   0  0  0  0  0  0  0  0  0  0  0  0
   46.7590   32.5170   46.6460 H   0  0  0  0  0  0  0  0  0  0  0  0
   45.6380   35.5830   42.4840 N   0  0  0  0  0  0  0  0  0  0  0  0
   45.9290   36.5600   42.7540 H   0  0  0  0  0  0  0  0  0  0  0  0
   45.2410   35.3060   41.5560 H   0  0  0  0  0  0  0  0  0  0  0  0
   49.8290   32.5970   41.5530 C   0  0  0  0  0  0  0  0  0  0  0  0
   51.0760   32.1340   41.3210 C   0  0  0  0  0  0  0  0  0  0  0  0
   51.7830   32.2640   42.1260 H   0  0  0  0  0  0  0  0  0  0  0  0
   51.3700   31.5410   40.1160 C   0  0  0  0  0  3  0  0  0  0  0  0
   50.3170   31.4580   39.1820 C   0  0  0  0  0  3  0  0  0  0  0  0
   48.9060   32.2360   40.0480 S   0  0  0  0  0  0  0  0  0  0  0  0
  1  4  1  6  0  0  0
  1  2  1  0  0  0  0
  1  3  1  0  0  0  0
  1 10  1  0  0  0  0
  2  3  1  0  0  0  0
  2  6  1  0  0  0  0
  3  7  1  1  0  0  0
  5  2  1  0  0  0  0
  8 13  1  0  0  0  0
  9 10  1  0  0  0  0
  9  8  2  0  0  0  0
 10 11  2  0  0  0  0
 11 12  1  0  0  0  0
 12 15  1  0  0  0  0
 13 12  2  0  0  0  0
 14  8  1  0  0  0  0
 16 17  1  0  0  0  0
 16  9  1  0  0  0  0
 18 16  1  0  0  0  0
 19  3  1  0  0  0  0
 20 19  2  0  0  0  0
 20 21  1  0  0  0  0
 22 20  1  0  0  0  0
 23 24  1  0  0  0  0
 23 22  2  0  0  0  0
 24 19  1  0  0  0  0
M  END
>  <minimizedAffinity>
-4.12815332

>  <minimizedRMSD>
2.58225918

$$$$
