REMARK  Name = 
REMARK  4 active torsions:
REMARK  status: ('A' for Active; 'I' for Inactive)
REMARK    1  A    between atoms: C_1  and  O_12
REMARK    2  A    between atoms: C_2  and  C_7
REMARK    3  A    between atoms: O_12  and  C_13
REMARK    4  A    between atoms: C_20  and  C_35
REMARK                            x       y       z     vdW  Elec       q    Type
REMARK                         _______ _______ _______ _____ _____    ______ ____
ROOT
ATOM      1  C   UNL     1      43.389  34.466  40.768  0.00  0.00    +0.000 C 
ATOM      2  O   UNL     1      43.299  35.723  40.547  0.00  0.00    +0.000 OA
ATOM      3  N   UNL     1      42.048  34.076  40.380  0.00  0.00    +0.000 N 
ATOM      4  C   UNL     1      41.690  34.356  39.010  0.00  0.00    +0.000 C 
ATOM      5  C   UNL     1      40.842  35.632  39.083  0.00  0.00    +0.000 C 
ATOM      6  C   UNL     1      40.020  35.529  40.375  0.00  0.00    +0.000 C 
ATOM      7  C   UNL     1      39.728  34.067  40.725  0.00  0.00    +0.000 C 
ATOM      8  C   UNL     1      41.016  33.433  41.211  0.00  0.00    +0.000 C 
ATOM      9  H   UNL     1      41.058  33.553  38.579  0.00  0.00    +0.000 HD
ATOM     10  H   UNL     1      42.551  34.610  38.376  0.00  0.00    +0.000 HD
ATOM     11  H   UNL     1      41.553  36.492  39.176  0.00  0.00    +0.000 HD
ATOM     12  H   UNL     1      40.180  35.733  38.196  0.00  0.00    +0.000 HD
ATOM     13  H   UNL     1      39.118  36.123  40.248  0.00  0.00    +0.000 HD
ATOM     14  H   UNL     1      40.600  35.962  41.223  0.00  0.00    +0.000 HD
ATOM     15  H   UNL     1      39.405  33.584  39.790  0.00  0.00    +0.000 HD
ATOM     16  H   UNL     1      38.931  34.091  41.489  0.00  0.00    +0.000 HD
ATOM     17  H   UNL     1      41.195  33.858  42.225  0.00  0.00    +0.000 HD
ENDROOT
BRANCH   8  18
ATOM     18  C   UNL     1      41.079  32.046  41.197  0.00  0.00    +0.000 A 
ATOM     19  C   UNL     1      41.984  31.079  40.819  0.00  0.00    +0.000 A 
ATOM     20  H   UNL     1      42.904  31.466  40.420  0.00  0.00    +0.000 HD
ATOM     21  C   UNL     1      41.747  29.741  40.935  0.00  0.00    +0.000 A 
ATOM     22  C   UNL     1      40.389  29.391  41.520  0.00  0.00    +0.000 A 
ATOM     23  S   UNL     1      39.684  31.128  41.804  0.00  0.00    +0.000 S 
ENDBRANCH   8  18
BRANCH   1  24
ATOM     24  O   UNL     1      44.464  33.771  41.232  0.00  0.00    +0.000 OA
BRANCH  24  25
ATOM     25  C   UNL     1      45.792  34.119  41.079  0.00  0.00    +0.000 A 
ATOM     26  C   UNL     1      46.425  34.756  42.160  0.00  0.00    +0.000 A 
ATOM     27  C   UNL     1      47.773  35.099  41.979  0.00  0.00    +0.000 A 
ATOM     28  N   UNL     1      48.379  34.801  40.788  0.00  0.00    +0.000 NA
ATOM     29  C   UNL     1      47.726  34.198  39.804  0.00  0.00    +0.000 A 
ATOM     30  N   UNL     1      46.429  33.850  39.936  0.00  0.00    +0.000 NA
ATOM     31  H   UNL     1      48.275  35.589  42.799  0.00  0.00    +0.000 HD
ATOM     32  H   UNL     1      48.227  33.970  38.866  0.00  0.00    +0.000 HD
BRANCH  26  33
ATOM     33  C   UNL     1      45.691  35.025  43.377  0.00  0.00    +0.000 A 
ATOM     34  C   UNL     1      45.045  36.235  43.612  0.00  0.00    +0.000 A 
ATOM     35  C   UNL     1      44.483  36.082  44.851  0.00  0.00    +0.000 A 
ATOM     36  N   UNL     1      44.767  34.851  45.349  0.00  0.00    +0.000 N 
ATOM     37  N   UNL     1      45.495  34.248  44.430  0.00  0.00    +0.000 NA
ATOM     38  H   UNL     1      44.979  37.116  42.987  0.00  0.00    +0.000 HD
ATOM     39  H   UNL     1      43.887  36.771  45.436  0.00  0.00    +0.000 HD
ATOM     40  H   UNL     1      44.524  34.365  46.245  0.00  0.00    +0.000 HD
ENDBRANCH  26  33
ENDBRANCH  24  25
ENDBRANCH   1  24
TORSDOF 4
