
     RDKit          3D

 26 28  0  0  0  0  0  0  0  0999 V2000
   44.6328   35.4539   45.1282 C   0  0  0  0  0  0  0  0  0  0  0  0
   45.0980   35.7196   43.7980 C   0  0  0  0  0  0  0  0  0  0  0  0
   46.0424   34.8291   43.3595 C   0  0  0  0  0  0  0  0  0  0  0  0
   46.4890   33.7817   44.1474 N   0  0  0  0  0  0  0  0  0  0  0  0
   46.0144   33.5878   45.3828 C   0  0  0  0  0  0  0  0  0  0  0  0
   45.0740   34.4349   45.8790 N   0  0  0  0  0  0  0  0  0  0  0  0
   46.5444   34.9859   41.9362 C   0  0  1  0  0  0  0  0  0  0  0  0
   48.0698   35.2652   41.9335 C   0  0  0  0  0  0  0  0  0  0  0  0
   47.3820   33.9725   41.4031 C   0  0  2  0  0  0  0  0  0  0  0  0
   44.6362   36.8105   43.0203 N   0  0  0  0  0  0  0  0  0  0  0  0
   43.8952   36.1128   45.5267 H   0  0  0  0  0  0  0  0  0  0  0  0
   46.4949   32.7222   45.8151 H   0  0  0  0  0  0  0  0  0  0  0  0
   45.9658   35.7200   41.3463 H   0  0  0  0  0  0  0  0  0  0  0  0
   48.3836   35.9788   41.1547 H   0  0  0  0  0  0  0  0  0  0  0  0
   48.6269   35.2217   42.8643 H   0  0  0  0  0  0  0  0  0  0  0  0
   47.6298   33.0985   42.0519 H   0  0  0  0  0  0  0  0  0  0  0  0
   45.1162   37.6679   43.4022 H   0  0  0  0  0  0  0  0  0  0  0  0
   43.9582   36.8033   42.2232 H   0  0  0  0  0  0  0  0  0  0  0  0
   47.4031   33.7420   39.9634 C   0  0  0  0  0  0  0  0  0  0  0  0
   47.1682   32.6748   39.1697 C   0  0  0  0  0  0  0  0  0  0  0  0
   46.8995   31.7621   39.6772 H   0  0  0  0  0  0  0  0  0  0  0  0
   47.2795   32.8017   37.8055 C   0  0  0  0  0  0  0  0  0  0  0  0
   47.6417   34.0756   37.3186 C   0  0  0  0  0  0  0  0  0  0  0  0
   47.8198   35.0833   38.8348 S   0  0  0  0  0  0  0  0  0  0  0  0
   47.1030   31.9811   37.1219 H   0  0  0  0  0  0  0  0  0  0  0  0
   47.7682   34.3376   36.3084 H   0  0  0  0  0  0  0  0  0  0  0  0
  1  6  2  0
  2  1  1  0
  3  2  2  0
  3  4  1  0
  4  5  2  0
  5  6  1  0
  7  3  1  0
  8  7  1  0
  9  8  1  0
  9  7  1  0
 10  2  1  0
  1 11  1  0
  5 12  1  0
  7 13  1  6
  8 14  1  0
  8 15  1  0
  9 16  1  1
 10 17  1  0
 10 18  1  0
 19 20  2  0
 20 21  1  0
 20 22  1  0
 22 23  2  0
 23 24  1  0
 24 19  1  0
 22 25  1  0
 23 26  1  0
  9 19  1  0
M  ISO  7  11  14  12  14  13  13  14  13  15  13  16  13  21  15
M  END
>  <DihAtoms>  (1) 
7,8,18,19

>  <DihDeg>  (1) 
134.64810164067597

$$$$
