
 OpenBabel03252509263D

 27 29  0  0  1  0  0  0  0  0999 V2000
   46.9890   35.1390   41.7850 C   0  0  1  0  0  0  0  0  0  0  0  0
   48.4830   35.5690   41.8630 C   0  0  0  0  0  0  0  0  0  0  0  0
   47.9140   34.3180   41.1170 C   0  0  2  0  0  0  0  0  0  0  0  0
   46.3570   35.8910   41.2690 H   0  0  0  0  0  0  0  0  0  0  0  0
   49.0350   35.4120   42.7830 H   0  0  0  0  0  0  0  0  0  0  0  0
   48.7830   36.3850   41.1870 H   0  0  0  0  0  0  0  0  0  0  0  0
   48.2130   33.3610   41.6470 H   0  0  0  0  0  0  0  0  0  0  0  0
   44.9740   34.8930   44.9420 C   0  0  0  0  0  0  0  0  0  0  0  0
   45.4140   35.3820   43.6720 C   0  0  0  0  0  0  0  0  0  0  0  0
   46.4820   34.7410   43.1420 C   0  0  0  0  0  0  0  0  0  0  0  0
   47.1000   33.6900   43.7940 N   0  0  0  0  0  0  0  0  0  0  0  0
   46.6500   33.2590   44.9990 C   0  0  0  0  0  0  0  0  0  0  0  0
   45.5850   33.8650   45.5720 N   0  0  0  0  0  0  0  0  0  0  0  0
   44.1150   35.4140   45.3610 H   0  0  0  0  0  0  0  0  0  0  0  0
   47.1250   32.4390   45.5180 H   0  0  0  0  0  0  0  0  0  0  0  0
   44.7880   36.4700   43.0210 N   0  0  0  0  0  0  0  0  0  0  0  0
   44.7470   37.4950   43.2680 H   0  0  0  0  0  0  0  0  0  0  0  0
   44.3530   36.0100   42.1980 H   0  0  0  0  0  0  0  0  0  0  0  0
   48.0050   34.2910   39.6080 C   0  0  0  0  0  0  0  0  0  0  0  0
   46.9400   34.2770   39.2450 H   0  0  0  0  0  0  0  0  0  0  0  0
   48.5640   35.1670   39.2190 H   0  0  0  0  0  0  0  0  0  0  0  0
   48.6010   33.0120   39.1840 C   0  0  0  0  0  0  0  0  0  0  0  0
   48.7510   32.3460   38.0010 C   0  0  0  0  0  0  0  0  0  0  0  0
   48.3580   32.8130   37.1100 H   0  0  0  0  0  0  0  0  0  0  0  0
   49.3870   31.1300   38.0240 C   0  0  0  0  0  3  0  0  0  0  0  0
   49.8370   30.6470   39.2230 C   0  0  0  0  0  3  0  0  0  0  0  0
   49.3250   32.0110   40.4070 S   0  0  0  0  0  0  0  0  0  0  0  0
  1  4  1  6  0  0  0
  1  2  1  0  0  0  0
  1 10  1  0  0  0  0
  2  5  1  0  0  0  0
  3  7  1  1  0  0  0
  3  1  1  0  0  0  0
  3  2  1  0  0  0  0
  6  2  1  0  0  0  0
  8 14  1  0  0  0  0
  8 13  1  0  0  0  0
  9  8  2  0  0  0  0
 10  9  1  0  0  0  0
 10 11  2  0  0  0  0
 11 12  1  0  0  0  0
 12 15  1  0  0  0  0
 12 13  2  0  0  0  0
 16 17  1  0  0  0  0
 16  9  1  0  0  0  0
 18 16  1  0  0  0  0
 19  3  1  0  0  0  0
 20 19  1  0  0  0  0
 21 19  1  0  0  0  0
 22 19  1  0  0  0  0
 22 27  1  0  0  0  0
 23 25  1  0  0  0  0
 23 22  2  0  0  0  0
 24 23  1  0  0  0  0
 25 26  2  0  0  0  0
 26 27  1  0  0  0  0
M  END
>  <minimizedAffinity>
-4.52117157

>  <minimizedRMSD>
0.866338968

$$$$
