
     RDKit          3D

 39 42  0  0  0  0  0  0  0  0999 V2000
   47.1929   34.5691   42.0138 C   0  0  1  0  0  0  0  0  0  0  0  0
   48.3372   35.4573   41.7551 C   0  0  0  0  0  0  0  0  0  0  0  0
   48.5842   34.1017   42.3040 C   0  0  2  0  0  0  0  0  0  0  0  0
   45.4882   36.0242   43.1554 C   0  0  0  0  0  0  0  0  0  0  0  0
   46.2798   34.8588   43.1518 C   0  0  0  0  0  0  0  0  0  0  0  0
   46.1714   33.9845   44.2450 C   0  0  0  0  0  0  0  0  0  0  0  0
   45.3106   34.3083   45.2456 N   0  0  0  0  0  0  0  0  0  0  0  0
   44.5624   35.4412   45.2155 C   0  0  0  0  0  0  0  0  0  0  0  0
   44.6462   36.3113   44.1655 N   0  0  0  0  0  0  0  0  0  0  0  0
   49.3054   33.1948   41.4742 N   0  0  0  0  0  0  0  0  0  0  0  0
   50.6550   33.1143   42.0424 C   0  0  0  0  0  0  0  0  0  0  0  0
   51.3201   31.8094   41.7308 C   0  0  0  0  0  0  0  0  0  0  0  0
   50.6188   30.7424   42.5491 C   0  0  0  0  0  0  0  0  0  0  0  0
   49.1481   30.9859   42.5854 C   0  0  0  0  0  0  0  0  0  0  0  0
   48.7277   31.8757   41.4224 C   0  0  2  0  0  0  0  0  0  0  0  0
   46.7187   34.1219   41.1176 H   0  0  0  0  0  0  0  0  0  0  0  0
   48.4596   36.3422   42.4251 H   0  0  0  0  0  0  0  0  0  0  0  0
   48.6275   35.7008   40.6961 H   0  0  0  0  0  0  0  0  0  0  0  0
   48.8551   34.0894   43.4003 H   0  0  0  0  0  0  0  0  0  0  0  0
   45.6180   36.6545   42.2869 H   0  0  0  0  0  0  0  0  0  0  0  0
   46.7682   33.0769   44.2734 H   0  0  0  0  0  0  0  0  0  0  0  0
   43.8784   35.6999   46.0089 H   0  0  0  0  0  0  0  0  0  0  0  0
   50.5804   33.1777   43.1629 H   0  0  0  0  0  0  0  0  0  0  0  0
   51.2480   34.0014   41.7329 H   0  0  0  0  0  0  0  0  0  0  0  0
   51.3942   31.5934   40.6661 H   0  0  0  0  0  0  0  0  0  0  0  0
   52.3614   31.8924   42.1069 H   0  0  0  0  0  0  0  0  0  0  0  0
   50.9884   30.8262   43.6088 H   0  0  0  0  0  0  0  0  0  0  0  0
   50.9231   29.7511   42.1988 H   0  0  0  0  0  0  0  0  0  0  0  0
   48.8430   31.5406   43.4938 H   0  0  0  0  0  0  0  0  0  0  0  0
   48.5567   30.0466   42.4562 H   0  0  0  0  0  0  0  0  0  0  0  0
   47.6373   32.0262   41.5847 H   0  0  0  0  0  0  0  0  0  0  0  0
   48.8988   31.1950   40.1330 C   0  0  0  0  0  0  0  0  0  0  0  0
   49.2573   29.9647   39.8115 C   0  0  0  0  0  0  0  0  0  0  0  0
   49.4850   29.2659   40.6036 H   0  0  0  0  0  0  0  0  0  0  0  0
   49.3331   29.6013   38.4960 C   0  0  0  0  0  0  0  0  0  0  0  0
   49.0269   30.5504   37.5416 C   0  0  0  0  0  0  0  0  0  0  0  0
   48.5869   32.1096   38.5315 S   0  0  0  0  0  0  0  0  0  0  0  0
   49.6122   28.6320   38.1073 H   0  0  0  0  0  0  0  0  0  0  0  0
   49.0112   30.5137   36.4591 H   0  0  0  0  0  0  0  0  0  0  0  0
  1  3  1  0
  1  5  1  0
  2  1  1  0
  2  3  1  0
  4  9  2  0
  5  4  1  0
  5  6  2  0
  6  7  1  0
  8  7  2  0
  9  8  1  0
 10 11  1  0
 10  3  1  0
 12 11  1  0
 12 13  1  0
 13 14  1  0
 15 10  1  0
 15 14  1  0
  1 16  1  6
  2 17  1  0
  2 18  1  0
  3 19  1  1
  4 20  1  0
  6 21  1  0
  8 22  1  0
 11 23  1  0
 11 24  1  0
 12 25  1  0
 12 26  1  0
 13 27  1  0
 13 28  1  0
 14 29  1  0
 14 30  1  0
 15 31  1  1
 32 33  2  0
 33 34  1  0
 33 35  1  0
 35 36  2  0
 36 37  1  0
 37 32  1  0
 35 38  1  0
 36 39  1  0
 15 32  1  0
M  ISO  8  16  13  17  13  18  13  19  13  20  14  21  14  22  14  23  13
M  ISO  8  24  13  25  13  26  13  27  13  28  13  29  13  30  13  31  13
M  ISO  1  34  15
M  END
>  <DihAtoms>  (1) 
9,14,31,32

>  <DihDeg>  (1) 
-44.940922785467485

$$$$
