
 OpenBabel03252505103D

 41 44  0  0  1  0  0  0  0  0999 V2000
   44.5580   35.5320   44.5990 C   0  0  0  0  0  0  0  0  0  0  0  0
   45.2490   35.6030   43.3800 C   0  0  0  0  0  0  0  0  0  0  0  0
   46.3780   34.7350   43.2170 C   0  0  0  0  0  0  0  0  0  0  0  0
   46.7140   33.9030   44.2380 N   0  0  0  0  0  0  0  0  0  0  0  0
   46.0200   33.8710   45.3910 C   0  0  0  0  0  0  0  0  0  0  0  0
   44.9290   34.6950   45.5740 N   0  0  0  0  0  0  0  0  0  0  0  0
   43.7190   36.2130   44.6440 H   0  0  0  0  0  0  0  0  0  0  0  0
   44.9880   36.2510   42.5820 H   0  0  0  0  0  0  0  0  0  0  0  0
   46.4260   32.9480   46.4730 C   0  0  2  0  0  0  0  0  0  0  0  0
   46.9530   31.7180   45.7620 C   0  0  0  0  0  0  0  0  0  0  0  0
   46.0690   30.5420   45.7890 C   0  0  0  0  0  0  0  0  0  0  0  0
   45.7880   30.2720   47.2670 C   0  0  0  0  0  0  0  0  0  0  0  0
   44.9990   31.3510   47.8800 C   0  0  0  0  0  0  0  0  0  0  0  0
   45.3780   32.7110   47.4270 C   0  0  0  0  0  0  0  0  0  0  0  0
   47.2830   33.4580   46.9870 H   0  0  0  0  0  0  0  0  0  0  0  0
   47.9080   31.4330   46.2580 H   0  0  0  0  0  0  0  0  0  0  0  0
   47.2370   31.9120   44.7060 H   0  0  0  0  0  0  0  0  0  0  0  0
   46.6370   29.6780   45.4030 H   0  0  0  0  0  0  0  0  0  0  0  0
   45.1140   30.7080   45.2890 H   0  0  0  0  0  0  0  0  0  0  0  0
   45.1390   29.3860   47.2800 H   0  0  0  0  0  0  0  0  0  0  0  0
   46.7460   30.0690   47.7630 H   0  0  0  0  0  0  0  0  0  0  0  0
   44.2070   31.4020   48.5830 H   0  0  0  0  0  0  0  0  0  0  0  0
   44.6920   33.8640   47.9400 N   0  0  0  0  0  0  0  0  0  0  0  0
   43.6910   33.8160   47.6080 H   0  0  0  0  0  0  0  0  0  0  0  0
   45.1240   34.6010   48.5330 H   0  0  0  0  0  0  0  0  0  0  0  0
   47.1140   34.7720   41.9660 C   0  0  0  0  0  0  0  0  0  0  0  0
   48.2480   35.5240   41.9100 C   0  0  0  0  0  0  0  0  0  0  0  0
   48.9250   35.5260   40.6760 C   0  0  0  0  0  0  0  0  0  0  0  0
   48.3650   34.7640   39.6600 C   0  0  0  0  0  0  0  0  0  0  0  0
   47.2360   34.0160   39.7180 C   0  0  0  0  0  0  0  0  0  0  0  0
   46.6090   34.0430   40.9330 N   0  0  0  0  0  0  0  0  0  0  0  0
   48.6170   36.0880   42.7520 H   0  0  0  0  0  0  0  0  0  0  0  0
   49.8170   36.1100   40.6140 H   0  0  0  0  0  0  0  0  0  0  0  0
   48.9730   34.8470   38.7760 H   0  0  0  0  0  0  0  0  0  0  0  0
   46.7390   33.2850   38.6720 O   0  0  0  0  0  0  0  0  0  0  0  0
   47.4240   33.2040   37.4890 C   0  0  0  0  0  0  0  0  0  0  0  0
   48.0750   33.1850   36.3540 C   0  0  0  0  0  0  0  0  0  0  0  0
   48.0700   34.2550   36.1560 H   0  0  0  0  0  0  0  0  0  0  0  0
   48.5470   32.1080   35.7370 C   0  0  0  0  0  3  0  0  0  0  0  0
   48.3280   30.8980   36.3560 C   0  0  0  0  0  3  0  0  0  0  0  0
   47.3690   31.4610   37.9230 S   0  0  0  0  0  0  0  0  0  0  0  0
  1  7  1  0  0  0  0
  1  6  1  0  0  0  0
  2  1  2  0  0  0  0
  3  2  1  0  0  0  0
  3  4  2  0  0  0  0
  4  5  1  0  0  0  0
  5  6  2  0  0  0  0
  5  9  1  0  0  0  0
  8  2  1  0  0  0  0
  9 15  1  1  0  0  0
  9 14  1  0  0  0  0
 10 11  1  0  0  0  0
 10 16  1  0  0  0  0
 10  9  1  0  0  0  0
 11 12  1  0  0  0  0
 12 20  1  0  0  0  0
 12 21  1  0  0  0  0
 12 13  1  0  0  0  0
 13 22  1  0  0  0  0
 14 13  2  0  0  0  0
 14 23  1  0  0  0  0
 17 10  1  0  0  0  0
 18 11  1  0  0  0  0
 19 11  1  0  0  0  0
 23 25  1  0  0  0  0
 24 23  1  0  0  0  0
 26  3  1  0  0  0  0
 27 26  1  0  0  0  0
 27 32  1  0  0  0  0
 28 27  2  0  0  0  0
 29 30  2  0  0  0  0
 29 28  1  0  0  0  0
 30 31  1  0  0  0  0
 31 26  2  0  0  0  0
 33 28  1  0  0  0  0
 34 29  1  0  0  0  0
 35 30  1  0  0  0  0
 36 41  1  0  0  0  0
 36 35  1  0  0  0  0
 37 36  2  0  0  0  0
 38 37  1  0  0  0  0
 39 37  1  0  0  0  0
 39 40  2  0  0  0  0
 40 41  1  0  0  0  0
M  END
>  <minimizedAffinity>
-7.01612043

>  <minimizedRMSD>
0.232807741

$$$$
