
 OpenBabel03252505523D

 22 23  0  0  0  0  0  0  0  0999 V2000
   38.7350   31.3540   40.9400 C   0  0  0  0  0  0  0  0  0  0  0  0
   37.5830   31.7120   40.2430 C   0  0  0  0  0  0  0  0  0  0  0  0
   36.3870   31.0380   40.5600 C   0  0  0  0  0  0  0  0  0  0  0  0
   36.4130   30.0820   41.5190 N   0  0  0  0  0  0  0  0  0  0  0  0
   37.5420   29.7690   42.1660 C   0  0  0  0  0  0  0  0  0  0  0  0
   38.7090   30.3880   41.8930 N   0  0  0  0  0  0  0  0  0  0  0  0
   39.6580   31.8620   40.7080 H   0  0  0  0  0  0  0  0  0  0  0  0
   35.5270   31.3360   40.0080 H   0  0  0  0  0  0  0  0  0  0  0  0
   37.7020   32.7920   39.2070 C   0  0  0  0  0  0  0  0  0  0  0  0
   39.0270   33.1100   39.1570 F   0  0  0  0  0  0  0  0  0  0  0  0
   36.9690   33.8710   39.6930 F   0  0  0  0  0  0  0  0  0  0  0  0
   37.1660   32.3240   38.0390 F   0  0  0  0  0  0  0  0  0  0  0  0
   37.6100   28.8020   43.1510 O   0  0  0  0  0  0  0  0  0  0  0  0
   38.7270   27.9490   43.2960 C   0  0  0  0  0  0  0  0  0  0  0  0
   39.5680   28.2640   42.6220 H   0  0  0  0  0  0  0  0  0  0  0  0
   39.0660   27.8450   44.3410 H   0  0  0  0  0  0  0  0  0  0  0  0
   38.3040   26.6150   42.7940 C   0  0  0  0  0  0  0  0  0  0  0  0
   37.0930   26.1350   42.4980 C   0  0  0  0  0  0  0  0  0  0  0  0
   36.2410   26.7920   42.6290 H   0  0  0  0  0  0  0  0  0  0  0  0
   36.9190   24.8550   42.0430 C   0  0  0  0  0  3  0  0  0  0  0  0
   38.1590   24.1090   41.9240 C   0  0  0  0  0  3  0  0  0  0  0  0
   39.4420   25.3570   42.4910 S   0  0  0  0  0  0  0  0  0  0  0  0
  1  6  1  0  0  0  0
  2  3  1  0  0  0  0
  2  1  2  0  0  0  0
  3  4  2  0  0  0  0
  4  5  1  0  0  0  0
  5 13  1  0  0  0  0
  6  5  2  0  0  0  0
  7  1  1  0  0  0  0
  8  3  1  0  0  0  0
  9 11  1  0  0  0  0
  9  2  1  0  0  0  0
 10  9  1  0  0  0  0
 12  9  1  0  0  0  0
 13 14  1  0  0  0  0
 14 16  1  0  0  0  0
 15 14  1  0  0  0  0
 17 14  1  0  0  0  0
 18 19  1  0  0  0  0
 18 17  2  0  0  0  0
 20 18  1  0  0  0  0
 21 20  2  0  0  0  0
 21 22  1  0  0  0  0
 22 17  1  0  0  0  0
M  END
>  <minimizedAffinity>
-4.77250004

$$$$

 OpenBabel03252505523D

 22 23  0  0  0  0  0  0  0  0999 V2000
   38.6590   31.1710   40.9050 C   0  0  0  0  0  0  0  0  0  0  0  0
   37.5510   31.6490   40.2090 C   0  0  0  0  0  0  0  0  0  0  0  0
   36.2960   31.0800   40.5030 C   0  0  0  0  0  0  0  0  0  0  0  0
   36.2260   30.1040   41.4380 N   0  0  0  0  0  0  0  0  0  0  0  0
   37.3180   29.6740   42.0850 C   0  0  0  0  0  0  0  0  0  0  0  0
   38.5380   30.1900   41.8340 N   0  0  0  0  0  0  0  0  0  0  0  0
   39.6270   31.5980   40.6900 H   0  0  0  0  0  0  0  0  0  0  0  0
   35.4710   31.4680   39.9520 H   0  0  0  0  0  0  0  0  0  0  0  0
   37.7770   32.7380   39.2000 C   0  0  0  0  0  0  0  0  0  0  0  0
   36.9570   33.7620   39.5730 F   0  0  0  0  0  0  0  0  0  0  0  0
   37.3660   32.2170   37.9760 F   0  0  0  0  0  0  0  0  0  0  0  0
   39.1130   33.0320   39.1820 F   0  0  0  0  0  0  0  0  0  0  0  0
   37.2880   28.6820   43.0470 O   0  0  0  0  0  0  0  0  0  0  0  0
   36.9720   27.3400   42.7370 C   0  0  0  0  0  0  0  0  0  0  0  0
   36.2410   26.9140   43.4750 H   0  0  0  0  0  0  0  0  0  0  0  0
   36.6240   27.2000   41.6990 H   0  0  0  0  0  0  0  0  0  0  0  0
   38.2220   26.5590   42.9320 C   0  0  0  0  0  0  0  0  0  0  0  0
   39.3260   26.8350   43.6310 C   0  0  0  0  0  0  0  0  0  0  0  0
   39.3660   27.7770   44.1650 H   0  0  0  0  0  0  0  0  0  0  0  0
   40.3820   25.9640   43.6800 C   0  0  0  0  0  3  0  0  0  0  0  0
   40.1680   24.7510   42.9110 C   0  0  0  0  0  3  0  0  0  0  0  0
   38.4500   25.0150   42.2010 S   0  0  0  0  0  0  0  0  0  0  0  0
  1  6  1  0  0  0  0
  2  3  1  0  0  0  0
  2  1  2  0  0  0  0
  3  4  2  0  0  0  0
  4  5  1  0  0  0  0
  5 13  1  0  0  0  0
  6  5  2  0  0  0  0
  7  1  1  0  0  0  0
  8  3  1  0  0  0  0
  9 10  1  0  0  0  0
  9  2  1  0  0  0  0
 11  9  1  0  0  0  0
 12  9  1  0  0  0  0
 14 17  1  0  0  0  0
 14 13  1  0  0  0  0
 14 15  1  0  0  0  0
 16 14  1  0  0  0  0
 17 18  2  0  0  0  0
 18 20  1  0  0  0  0
 18 19  1  0  0  0  0
 21 20  2  0  0  0  0
 22 21  1  0  0  0  0
 22 17  1  0  0  0  0
M  END
>  <minimizedAffinity>
-4.71879673

$$$$

 OpenBabel03252505523D

 22 23  0  0  0  0  0  0  0  0999 V2000
   36.4590   31.3240   40.5170 C   0  0  0  0  0  0  0  0  0  0  0  0
   37.7840   31.7110   40.7070 C   0  0  0  0  0  0  0  0  0  0  0  0
   38.6390   30.8160   41.3810 C   0  0  0  0  0  0  0  0  0  0  0  0
   38.1370   29.6340   41.8090 N   0  0  0  0  0  0  0  0  0  0  0  0
   36.8560   29.3010   41.6050 C   0  0  0  0  0  0  0  0  0  0  0  0
   36.0040   30.1280   40.9650 N   0  0  0  0  0  0  0  0  0  0  0  0
   35.7930   32.0000   40.0020 H   0  0  0  0  0  0  0  0  0  0  0  0
   39.6440   31.1450   41.5100 H   0  0  0  0  0  0  0  0  0  0  0  0
   38.2020   33.0510   40.1760 C   0  0  0  0  0  0  0  0  0  0  0  0
   38.6730   33.7440   41.2520 F   0  0  0  0  0  0  0  0  0  0  0  0
   37.0420   33.6510   39.6920 F   0  0  0  0  0  0  0  0  0  0  0  0
   39.1050   32.8490   39.1680 F   0  0  0  0  0  0  0  0  0  0  0  0
   36.3070   28.1040   42.0240 O   0  0  0  0  0  0  0  0  0  0  0  0
   36.8390   27.3680   43.1060 C   0  0  0  0  0  0  0  0  0  0  0  0
   37.6950   27.9130   43.5870 H   0  0  0  0  0  0  0  0  0  0  0  0
   36.0810   27.0740   43.8510 H   0  0  0  0  0  0  0  0  0  0  0  0
   37.4390   26.1390   42.5220 C   0  0  0  0  0  0  0  0  0  0  0  0
   36.8780   24.9890   42.1380 C   0  0  0  0  0  0  0  0  0  0  0  0
   35.8060   24.8860   42.2510 H   0  0  0  0  0  0  0  0  0  0  0  0
   37.6240   23.9660   41.6170 C   0  0  0  0  0  3  0  0  0  0  0  0
   39.0420   24.2660   41.5340 C   0  0  0  0  0  3  0  0  0  0  0  0
   39.1320   26.0080   42.2260 S   0  0  0  0  0  0  0  0  0  0  0  0
  1  2  2  0  0  0  0
  1  6  1  0  0  0  0
  2  3  1  0  0  0  0
  3  8  1  0  0  0  0
  3  4  2  0  0  0  0
  5  4  1  0  0  0  0
  5 13  1  0  0  0  0
  6  5  2  0  0  0  0
  7  1  1  0  0  0  0
  9  2  1  0  0  0  0
  9 10  1  0  0  0  0
 11  9  1  0  0  0  0
 12  9  1  0  0  0  0
 13 14  1  0  0  0  0
 14 15  1  0  0  0  0
 14 16  1  0  0  0  0
 17 14  1  0  0  0  0
 18 19  1  0  0  0  0
 18 17  2  0  0  0  0
 20 18  1  0  0  0  0
 21 20  2  0  0  0  0
 21 22  1  0  0  0  0
 22 17  1  0  0  0  0
M  END
>  <minimizedAffinity>
-4.7148571

$$$$

 OpenBabel03252505523D

 22 23  0  0  0  0  0  0  0  0999 V2000
   38.8090   26.8890   43.0450 C   0  0  0  0  0  0  0  0  0  0  0  0
   38.2490   25.9380   42.1940 C   0  0  0  0  0  0  0  0  0  0  0  0
   37.2440   26.3650   41.3040 C   0  0  0  0  0  0  0  0  0  0  0  0
   36.8710   27.6660   41.3170 N   0  0  0  0  0  0  0  0  0  0  0  0
   37.4360   28.5480   42.1520 C   0  0  0  0  0  0  0  0  0  0  0  0
   38.4010   28.1830   43.0200 N   0  0  0  0  0  0  0  0  0  0  0  0
   39.5810   26.5770   43.7320 H   0  0  0  0  0  0  0  0  0  0  0  0
   36.8380   25.6120   40.6680 H   0  0  0  0  0  0  0  0  0  0  0  0
   38.7630   24.5310   42.2870 C   0  0  0  0  0  0  0  0  0  0  0  0
   39.5290   24.3430   41.1750 F   0  0  0  0  0  0  0  0  0  0  0  0
   37.6400   23.7090   42.2380 F   0  0  0  0  0  0  0  0  0  0  0  0
   39.4170   24.3930   43.4800 F   0  0  0  0  0  0  0  0  0  0  0  0
   37.0850   29.8840   42.1950 O   0  0  0  0  0  0  0  0  0  0  0  0
   36.2170   30.4670   41.2450 C   0  0  0  0  0  0  0  0  0  0  0  0
   35.6430   29.6820   40.6830 H   0  0  0  0  0  0  0  0  0  0  0  0
   35.5420   31.2270   41.6760 H   0  0  0  0  0  0  0  0  0  0  0  0
   37.0840   31.1190   40.2280 C   0  0  0  0  0  0  0  0  0  0  0  0
   36.9700   31.1950   38.9000 C   0  0  0  0  0  0  0  0  0  0  0  0
   36.1160   30.7160   38.4360 H   0  0  0  0  0  0  0  0  0  0  0  0
   37.8960   31.8550   38.1360 C   0  0  0  0  0  3  0  0  0  0  0  0
   38.9760   32.4390   38.9110 C   0  0  0  0  0  3  0  0  0  0  0  0
   38.5210   31.9620   40.6690 S   0  0  0  0  0  0  0  0  0  0  0  0
  1  7  1  0  0  0  0
  2  9  1  0  0  0  0
  2  1  2  0  0  0  0
  3  4  2  0  0  0  0
  3  2  1  0  0  0  0
  4  5  1  0  0  0  0
  5 13  1  0  0  0  0
  5  6  2  0  0  0  0
  6  1  1  0  0  0  0
  8  3  1  0  0  0  0
  9 12  1  0  0  0  0
 10  9  1  0  0  0  0
 11  9  1  0  0  0  0
 14 16  1  0  0  0  0
 14 13  1  0  0  0  0
 15 14  1  0  0  0  0
 17 22  1  0  0  0  0
 17 14  1  0  0  0  0
 18 17  2  0  0  0  0
 19 18  1  0  0  0  0
 20 18  1  0  0  0  0
 20 21  2  0  0  0  0
 21 22  1  0  0  0  0
M  END
>  <minimizedAffinity>
-4.35454512

$$$$

 OpenBabel03252505523D

 22 23  0  0  0  0  0  0  0  0999 V2000
   39.0230   27.0500   42.2490 C   0  0  0  0  0  0  0  0  0  0  0  0
   37.6620   26.7510   42.2210 C   0  0  0  0  0  0  0  0  0  0  0  0
   36.7520   27.8170   42.3660 C   0  0  0  0  0  0  0  0  0  0  0  0
   37.2380   29.0710   42.5260 N   0  0  0  0  0  0  0  0  0  0  0  0
   38.5550   29.3140   42.5460 C   0  0  0  0  0  0  0  0  0  0  0  0
   39.4600   28.3230   42.4120 N   0  0  0  0  0  0  0  0  0  0  0  0
   39.7310   26.2430   42.1390 H   0  0  0  0  0  0  0  0  0  0  0  0
   35.7210   27.5520   42.3400 H   0  0  0  0  0  0  0  0  0  0  0  0
   37.2670   25.3150   42.0340 C   0  0  0  0  0  0  0  0  0  0  0  0
   38.4120   24.5920   42.2000 F   0  0  0  0  0  0  0  0  0  0  0  0
   36.8210   25.2080   40.7190 F   0  0  0  0  0  0  0  0  0  0  0  0
   36.2610   25.0300   42.9150 F   0  0  0  0  0  0  0  0  0  0  0  0
   39.0910   30.5780   42.7050 O   0  0  0  0  0  0  0  0  0  0  0  0
   39.8690   31.2000   41.7030 C   0  0  0  0  0  0  0  0  0  0  0  0
   40.2930   32.1740   42.0640 H   0  0  0  0  0  0  0  0  0  0  0  0
   40.6560   30.5460   41.2920 H   0  0  0  0  0  0  0  0  0  0  0  0
   38.9300   31.5640   40.6090 C   0  0  0  0  0  0  0  0  0  0  0  0
   37.9620   32.4830   40.5570 C   0  0  0  0  0  0  0  0  0  0  0  0
   37.7930   33.0920   41.4370 H   0  0  0  0  0  0  0  0  0  0  0  0
   37.1990   32.6600   39.4340 C   0  0  0  0  0  3  0  0  0  0  0  0
   37.5530   31.7640   38.3470 C   0  0  0  0  0  3  0  0  0  0  0  0
   38.9590   30.7630   39.0840 S   0  0  0  0  0  0  0  0  0  0  0  0
  1  6  1  0  0  0  0
  2  1  2  0  0  0  0
  2  3  1  0  0  0  0
  3  4  2  0  0  0  0
  4  5  1  0  0  0  0
  5 13  1  0  0  0  0
  6  5  2  0  0  0  0
  7  1  1  0  0  0  0
  8  3  1  0  0  0  0
  9 10  1  0  0  0  0
  9  2  1  0  0  0  0
  9 12  1  0  0  0  0
 11  9  1  0  0  0  0
 14 15  1  0  0  0  0
 14 13  1  0  0  0  0
 16 14  1  0  0  0  0
 17 14  1  0  0  0  0
 18 17  2  0  0  0  0
 18 19  1  0  0  0  0
 20 18  1  0  0  0  0
 21 22  1  0  0  0  0
 21 20  2  0  0  0  0
 22 17  1  0  0  0  0
M  END
>  <minimizedAffinity>
-4.3375392

$$$$

 OpenBabel03252505523D

 22 23  0  0  0  0  0  0  0  0999 V2000
   37.2200   31.6730   39.1630 C   0  0  0  0  0  0  0  0  0  0  0  0
   38.3270   32.1310   39.8750 C   0  0  0  0  0  0  0  0  0  0  0  0
   39.2250   31.1700   40.3800 C   0  0  0  0  0  0  0  0  0  0  0  0
   38.9730   29.8590   40.1540 N   0  0  0  0  0  0  0  0  0  0  0  0
   37.8970   29.4620   39.4630 C   0  0  0  0  0  0  0  0  0  0  0  0
   37.0110   30.3470   38.9630 N   0  0  0  0  0  0  0  0  0  0  0  0
   36.5230   32.3970   38.7700 H   0  0  0  0  0  0  0  0  0  0  0  0
   40.0600   31.5550   40.9190 H   0  0  0  0  0  0  0  0  0  0  0  0
   38.4810   33.6140   40.0460 C   0  0  0  0  0  0  0  0  0  0  0  0
   37.3170   34.1610   39.5920 F   0  0  0  0  0  0  0  0  0  0  0  0
   39.5390   33.9870   39.2210 F   0  0  0  0  0  0  0  0  0  0  0  0
   38.7740   33.8640   41.3590 F   0  0  0  0  0  0  0  0  0  0  0  0
   37.6050   28.1350   39.2100 O   0  0  0  0  0  0  0  0  0  0  0  0
   36.6320   27.4230   39.9450 C   0  0  0  0  0  0  0  0  0  0  0  0
   35.6560   27.9770   39.9700 H   0  0  0  0  0  0  0  0  0  0  0  0
   36.4950   26.3840   39.6000 H   0  0  0  0  0  0  0  0  0  0  0  0
   37.1040   27.4010   41.3550 C   0  0  0  0  0  0  0  0  0  0  0  0
   36.5940   27.9560   42.4570 C   0  0  0  0  0  0  0  0  0  0  0  0
   35.6800   28.5290   42.3600 H   0  0  0  0  0  0  0  0  0  0  0  0
   37.1960   27.8120   43.6790 C   0  0  0  0  0  3  0  0  0  0  0  0
   38.4100   27.0160   43.6350 C   0  0  0  0  0  3  0  0  0  0  0  0
   38.5380   26.5650   41.8180 S   0  0  0  0  0  0  0  0  0  0  0  0
  1  2  1  0  0  0  0
  2  9  1  0  0  0  0
  2  3  2  0  0  0  0
  3  8  1  0  0  0  0
  4  3  1  0  0  0  0
  5  4  2  0  0  0  0
  6  1  2  0  0  0  0
  6  5  1  0  0  0  0
  7  1  1  0  0  0  0
  9 12  1  0  0  0  0
 10  9  1  0  0  0  0
 11  9  1  0  0  0  0
 13  5  1  0  0  0  0
 13 14  1  0  0  0  0
 14 15  1  0  0  0  0
 14 17  1  0  0  0  0
 16 14  1  0  0  0  0
 17 22  1  0  0  0  0
 17 18  2  0  0  0  0
 18 20  1  0  0  0  0
 19 18  1  0  0  0  0
 21 20  2  0  0  0  0
 22 21  1  0  0  0  0
M  END
>  <minimizedAffinity>
-4.11128807

$$$$

 OpenBabel03252505523D

 22 23  0  0  0  0  0  0  0  0999 V2000
   36.5750   26.1460   39.9290 C   0  0  0  0  0  0  0  0  0  0  0  0
   36.9400   25.1220   40.8000 C   0  0  0  0  0  0  0  0  0  0  0  0
   37.2640   25.4720   42.1260 C   0  0  0  0  0  0  0  0  0  0  0  0
   37.2070   26.7760   42.4880 N   0  0  0  0  0  0  0  0  0  0  0  0
   36.8500   27.7290   41.6180 C   0  0  0  0  0  0  0  0  0  0  0  0
   36.5330   27.4380   40.3390 N   0  0  0  0  0  0  0  0  0  0  0  0
   36.3240   25.8920   38.9100 H   0  0  0  0  0  0  0  0  0  0  0  0
   37.5390   24.6650   42.7640 H   0  0  0  0  0  0  0  0  0  0  0  0
   36.9580   23.7210   40.2610 C   0  0  0  0  0  0  0  0  0  0  0  0
   35.6500   23.3710   40.1000 F   0  0  0  0  0  0  0  0  0  0  0  0
   37.5440   22.9370   41.2520 F   0  0  0  0  0  0  0  0  0  0  0  0
   37.7130   23.7110   39.1200 F   0  0  0  0  0  0  0  0  0  0  0  0
   36.7770   29.0690   41.9480 O   0  0  0  0  0  0  0  0  0  0  0  0
   37.9190   29.9010   41.9810 C   0  0  0  0  0  0  0  0  0  0  0  0
   37.8800   30.6110   42.8500 H   0  0  0  0  0  0  0  0  0  0  0  0
   38.8700   29.3410   41.9610 H   0  0  0  0  0  0  0  0  0  0  0  0
   37.8450   30.7620   40.7700 C   0  0  0  0  0  0  0  0  0  0  0  0
   37.0570   31.8010   40.4830 C   0  0  0  0  0  0  0  0  0  0  0  0
   36.3310   32.1070   41.2250 H   0  0  0  0  0  0  0  0  0  0  0  0
   37.1530   32.4660   39.2900 C   0  0  0  0  0  3  0  0  0  0  0  0
   38.1740   31.9290   38.4070 C   0  0  0  0  0  3  0  0  0  0  0  0
   38.8810   30.5130   39.4160 S   0  0  0  0  0  0  0  0  0  0  0  0
  1  6  2  0  0  0  0
  1  2  1  0  0  0  0
  2  3  2  0  0  0  0
  3  4  1  0  0  0  0
  3  8  1  0  0  0  0
  5 13  1  0  0  0  0
  5  4  2  0  0  0  0
  6  5  1  0  0  0  0
  7  1  1  0  0  0  0
  9  2  1  0  0  0  0
  9 11  1  0  0  0  0
 10  9  1  0  0  0  0
 12  9  1  0  0  0  0
 13 14  1  0  0  0  0
 14 15  1  0  0  0  0
 16 14  1  0  0  0  0
 17 14  1  0  0  0  0
 18 17  2  0  0  0  0
 18 19  1  0  0  0  0
 20 18  1  0  0  0  0
 21 20  2  0  0  0  0
 21 22  1  0  0  0  0
 22 17  1  0  0  0  0
M  END
>  <minimizedAffinity>
-4.0918417

$$$$

 OpenBabel03252505523D

 22 23  0  0  0  0  0  0  0  0999 V2000
   38.6480   27.9360   41.0260 C   0  0  0  0  0  0  0  0  0  0  0  0
   37.6460   28.0140   41.9910 C   0  0  0  0  0  0  0  0  0  0  0  0
   37.0290   29.2640   42.1960 C   0  0  0  0  0  0  0  0  0  0  0  0
   37.4350   30.3210   41.4530 N   0  0  0  0  0  0  0  0  0  0  0  0
   38.4020   30.2020   40.5350 C   0  0  0  0  0  0  0  0  0  0  0  0
   39.0200   29.0250   40.3070 N   0  0  0  0  0  0  0  0  0  0  0  0
   39.1300   26.9850   40.8570 H   0  0  0  0  0  0  0  0  0  0  0  0
   36.2680   29.2870   42.9410 H   0  0  0  0  0  0  0  0  0  0  0  0
   37.2970   26.7590   42.7370 C   0  0  0  0  0  0  0  0  0  0  0  0
   38.4600   26.3340   43.3080 F   0  0  0  0  0  0  0  0  0  0  0  0
   36.8750   25.8460   41.7740 F   0  0  0  0  0  0  0  0  0  0  0  0
   36.2860   27.0500   43.6110 F   0  0  0  0  0  0  0  0  0  0  0  0
   38.8430   31.2550   39.7560 O   0  0  0  0  0  0  0  0  0  0  0  0
   39.2980   31.0750   38.4310 C   0  0  0  0  0  0  0  0  0  0  0  0
   39.8040   30.0800   38.3070 H   0  0  0  0  0  0  0  0  0  0  0  0
   38.5100   31.2220   37.6730 H   0  0  0  0  0  0  0  0  0  0  0  0
   40.3660   32.0860   38.2130 C   0  0  0  0  0  0  0  0  0  0  0  0
   41.3220   32.1620   37.2830 C   0  0  0  0  0  0  0  0  0  0  0  0
   41.3680   31.3770   36.5380 H   0  0  0  0  0  0  0  0  0  0  0  0
   42.2210   33.1940   37.2610 C   0  0  0  0  0  3  0  0  0  0  0  0
   42.0220   34.1600   38.3270 C   0  0  0  0  0  3  0  0  0  0  0  0
   40.5440   33.4540   39.2450 S   0  0  0  0  0  0  0  0  0  0  0  0
  1  2  1  0  0  0  0
  2  3  2  0  0  0  0
  2  9  1  0  0  0  0
  3  8  1  0  0  0  0
  4  3  1  0  0  0  0
  5  4  2  0  0  0  0
  6  5  1  0  0  0  0
  6  1  2  0  0  0  0
  7  1  1  0  0  0  0
  9 10  1  0  0  0  0
  9 12  1  0  0  0  0
 11  9  1  0  0  0  0
 13  5  1  0  0  0  0
 14 13  1  0  0  0  0
 15 14  1  0  0  0  0
 16 14  1  0  0  0  0
 17 14  1  0  0  0  0
 17 22  1  0  0  0  0
 18 17  2  0  0  0  0
 19 18  1  0  0  0  0
 20 18  1  0  0  0  0
 20 21  2  0  0  0  0
 21 22  1  0  0  0  0
M  END
>  <minimizedAffinity>
-4.08595991

$$$$

 OpenBabel03252505523D

 22 23  0  0  0  0  0  0  0  0999 V2000
   36.7150   31.2580   39.4100 C   0  0  0  0  0  0  0  0  0  0  0  0
   37.6460   31.8030   40.2920 C   0  0  0  0  0  0  0  0  0  0  0  0
   38.1010   30.9910   41.3500 C   0  0  0  0  0  0  0  0  0  0  0  0
   37.6160   29.7320   41.4610 N   0  0  0  0  0  0  0  0  0  0  0  0
   36.7210   29.2470   40.5900 C   0  0  0  0  0  0  0  0  0  0  0  0
   36.2580   29.9890   39.5630 N   0  0  0  0  0  0  0  0  0  0  0  0
   36.3570   31.8680   38.5950 H   0  0  0  0  0  0  0  0  0  0  0  0
   38.8110   31.4400   42.0050 H   0  0  0  0  0  0  0  0  0  0  0  0
   38.0980   33.2130   40.0450 C   0  0  0  0  0  0  0  0  0  0  0  0
   37.0140   33.8640   39.5350 F   0  0  0  0  0  0  0  0  0  0  0  0
   39.1020   33.1310   39.0850 F   0  0  0  0  0  0  0  0  0  0  0  0
   38.5850   33.7170   41.2200 F   0  0  0  0  0  0  0  0  0  0  0  0
   36.2030   27.9680   40.6680 O   0  0  0  0  0  0  0  0  0  0  0  0
   36.3940   27.0140   39.6430 C   0  0  0  0  0  0  0  0  0  0  0  0
   35.4140   26.7000   39.1930 H   0  0  0  0  0  0  0  0  0  0  0  0
   37.1060   27.3410   38.8670 H   0  0  0  0  0  0  0  0  0  0  0  0
   36.9310   25.7930   40.3010 C   0  0  0  0  0  0  0  0  0  0  0  0
   37.0510   25.4770   41.5930 C   0  0  0  0  0  0  0  0  0  0  0  0
   36.7130   26.2010   42.3260 H   0  0  0  0  0  0  0  0  0  0  0  0
   37.5820   24.2800   41.9930 C   0  0  0  0  0  3  0  0  0  0  0  0
   37.9840   23.4270   40.8890 C   0  0  0  0  0  3  0  0  0  0  0  0
   37.5430   24.4660   39.3890 S   0  0  0  0  0  0  0  0  0  0  0  0
  1  6  2  0  0  0  0
  1  2  1  0  0  0  0
  2  3  2  0  0  0  0
  3  4  1  0  0  0  0
  3  8  1  0  0  0  0
  5 13  1  0  0  0  0
  5  4  2  0  0  0  0
  6  5  1  0  0  0  0
  7  1  1  0  0  0  0
  9  2  1  0  0  0  0
  9 12  1  0  0  0  0
 10  9  1  0  0  0  0
 11  9  1  0  0  0  0
 14 17  1  0  0  0  0
 14 13  1  0  0  0  0
 15 14  1  0  0  0  0
 16 14  1  0  0  0  0
 17 18  2  0  0  0  0
 18 20  1  0  0  0  0
 18 19  1  0  0  0  0
 21 20  2  0  0  0  0
 22 17  1  0  0  0  0
 22 21  1  0  0  0  0
M  END
>  <minimizedAffinity>
-4.07778931

$$$$
