
 OpenBabel03242523583D

 18 19  0  0  0  0  0  0  0  0999 V2000
   44.4770   35.9710   44.6980 C   0  0  0  0  0  0  0  0  0  0  0  0
   45.2100   35.9280   43.4860 C   0  0  0  0  0  0  0  0  0  0  0  0
   46.1140   34.8870   43.3620 C   0  0  0  0  0  0  0  0  0  0  0  0
   46.2680   33.9780   44.3500 N   0  0  0  0  0  0  0  0  0  0  0  0
   45.5440   34.0590   45.4930 C   0  0  0  0  0  0  0  0  0  0  0  0
   44.6590   35.0560   45.6470 N   0  0  0  0  0  0  0  0  0  0  0  0
   43.7530   36.7700   44.8470 H   0  0  0  0  0  0  0  0  0  0  0  0
   45.0210   36.6960   42.7510 H   0  0  0  0  0  0  0  0  0  0  0  0
   46.8850   34.7950   42.1520 C   0  0  0  0  0  0  0  0  0  0  0  0
   48.0900   35.3390   41.7950 C   0  0  0  0  0  0  0  0  0  0  0  0
   48.5840   35.9580   42.5290 H   0  0  0  0  0  0  0  0  0  0  0  0
   48.5890   35.0690   40.5430 C   0  0  0  0  0  0  0  0  0  0  0  0
   47.8310   34.2550   39.7150 C   0  0  0  0  0  0  0  0  0  0  0  0
   46.3470   33.8630   40.7750 S   0  0  0  0  0  0  0  0  0  0  0  0
   45.8410   32.9810   46.4680 C   0  0  0  0  0  0  0  0  0  0  0  0
   45.0040   33.0190   47.5510 F   0  0  0  0  0  0  0  0  0  0  0  0
   47.1530   33.0810   46.9030 F   0  0  0  0  0  0  0  0  0  0  0  0
   45.7730   31.7420   45.8160 F   0  0  0  0  0  0  0  0  0  0  0  0
  1  7  1  0  0  0  0
  1  6  1  0  0  0  0
  2  1  2  0  0  0  0
  3  2  1  0  0  0  0
  3  4  2  0  0  0  0
  4  5  1  0  0  0  0
  5  6  2  0  0  0  0
  5 15  1  0  0  0  0
  8  2  1  0  0  0  0
  9  3  1  0  0  0  0
 10  9  2  0  0  0  0
 10 11  1  0  0  0  0
 12 10  1  0  0  0  0
 13 12  2  0  0  0  0
 13 14  1  0  0  0  0
 14  9  1  0  0  0  0
 15 17  1  0  0  0  0
 15 16  1  0  0  0  0
 18 15  1  0  0  0  0
M  END
>  <minimizedAffinity>
-5.4603219

>  <minimizedRMSD>
0.469860464

$$$$
