
 OpenBabel03252501163D

 32 35  0  0  1  0  0  0  0  0999 V2000
   46.0300   32.6120   43.8370 C   0  0  1  0  0  0  0  0  0  0  0  0
   47.1030   33.6240   43.7480 C   0  0  0  0  0  0  0  0  0  0  0  0
   47.0150   32.3770   42.7850 C   0  0  2  0  0  0  0  0  0  0  0  0
   45.0050   32.8800   43.4990 H   0  0  0  0  0  0  0  0  0  0  0  0
   47.9870   33.5950   44.4130 H   0  0  0  0  0  0  0  0  0  0  0  0
   46.9250   34.6110   43.2710 H   0  0  0  0  0  0  0  0  0  0  0  0
   47.8220   31.6570   42.9130 H   0  0  0  0  0  0  0  0  0  0  0  0
   46.5090   31.4100   47.3650 C   0  0  0  0  0  0  0  0  0  0  0  0
   46.5260   32.2740   46.2830 C   0  0  0  0  0  0  0  0  0  0  0  0
   46.0490   31.7740   45.0780 C   0  0  0  0  0  0  0  0  0  0  0  0
   45.5980   30.5020   45.0060 N   0  0  0  0  0  0  0  0  0  0  0  0
   45.6000   29.6880   46.0950 C   0  0  0  0  0  0  0  0  0  0  0  0
   46.0620   30.1590   47.2790 N   0  0  0  0  0  0  0  0  0  0  0  0
   46.8760   33.2840   46.3060 H   0  0  0  0  0  0  0  0  0  0  0  0
   45.2260   28.6600   45.9940 H   0  0  0  0  0  0  0  0  0  0  0  0
   47.0080   31.9230   48.6820 C   0  0  0  0  0  0  0  0  0  0  0  0
   47.2760   30.8350   49.4790 F   0  0  0  0  0  0  0  0  0  0  0  0
   45.9850   32.6450   49.2600 F   0  0  0  0  0  0  0  0  0  0  0  0
   48.1480   32.6690   48.5260 F   0  0  0  0  0  0  0  0  0  0  0  0
   46.6090   32.7490   41.3990 C   0  0  0  0  0  0  0  0  0  0  0  0
   45.4570   33.4320   41.0220 C   0  0  0  0  0  0  0  0  0  0  0  0
   45.5760   33.5100   39.6560 C   0  0  0  0  0  0  0  0  0  0  0  0
   46.7520   32.8960   39.2470 C   0  0  0  0  0  0  0  0  0  0  0  0
   47.3150   32.4640   40.3540 O   0  0  0  0  0  0  0  0  0  0  0  0
   44.6730   33.8040   41.6490 H   0  0  0  0  0  0  0  0  0  0  0  0
   44.7940   34.0090   39.0620 H   0  0  0  0  0  0  0  0  0  0  0  0
   47.1940   32.7940   37.8680 C   0  0  0  0  0  0  0  0  0  0  0  0
   46.6830   32.1760   36.8010 C   0  0  0  0  0  0  0  0  0  0  0  0
   45.7560   31.6320   36.9570 H   0  0  0  0  0  0  0  0  0  0  0  0
   47.2780   32.2180   35.5910 C   0  0  0  0  0  3  0  0  0  0  0  0
   48.5170   32.9990   35.5820 C   0  0  0  0  0  3  0  0  0  0  0  0
   48.6510   33.5640   37.3190 S   0  0  0  0  0  0  0  0  0  0  0  0
  1  4  1  6  0  0  0
  1 10  1  0  0  0  0
  2  1  1  0  0  0  0
  2  5  1  0  0  0  0
  3  7  1  1  0  0  0
  3  2  1  0  0  0  0
  3  1  1  0  0  0  0
  6  2  1  0  0  0  0
  8 16  1  0  0  0  0
  9 14  1  0  0  0  0
  9  8  2  0  0  0  0
 10  9  1  0  0  0  0
 11 10  2  0  0  0  0
 11 12  1  0  0  0  0
 12 13  2  0  0  0  0
 13  8  1  0  0  0  0
 15 12  1  0  0  0  0
 16 18  1  0  0  0  0
 16 17  1  0  0  0  0
 19 16  1  0  0  0  0
 20  3  1  0  0  0  0
 21 20  2  0  0  0  0
 21 25  1  0  0  0  0
 22 21  1  0  0  0  0
 23 22  2  0  0  0  0
 23 24  1  0  0  0  0
 24 20  1  0  0  0  0
 26 22  1  0  0  0  0
 27 23  1  0  0  0  0
 28 29  1  0  0  0  0
 28 27  2  0  0  0  0
 30 28  1  0  0  0  0
 31 30  2  0  0  0  0
 31 32  1  0  0  0  0
 32 27  1  0  0  0  0
M  END
>  <minimizedAffinity>
-4.62282038

>  <minimizedRMSD>
3.50899076

$$$$
