
 OpenBabel03242520283D

 38 40  0  0  0  0  0  0  0  0999 V2000
   45.0910   35.7110   43.4920 C   0  0  0  0  0  0  0  0  0  0  0  0
   46.0070   34.6270   43.5590 C   0  0  0  0  0  0  0  0  0  0  0  0
   46.1150   33.9390   44.7550 C   0  0  0  0  0  0  0  0  0  0  0  0
   45.3410   34.3290   45.8120 N   0  0  0  0  0  0  0  0  0  0  0  0
   44.4830   35.3570   45.7230 C   0  0  0  0  0  0  0  0  0  0  0  0
   44.3600   36.0410   44.5750 N   0  0  0  0  0  0  0  0  0  0  0  0
   44.9650   36.2810   42.5940 H   0  0  0  0  0  0  0  0  0  0  0  0
   43.8900   35.6240   46.6010 H   0  0  0  0  0  0  0  0  0  0  0  0
   46.7260   34.3600   42.3760 N   0  0  0  0  0  0  0  0  0  0  0  0
   47.9220   35.0960   41.9780 C   0  0  0  0  0  0  0  0  0  0  0  0
   48.5210   34.4890   40.7460 C   0  0  0  0  0  0  0  0  0  0  0  0
   47.5770   34.2860   39.6940 N   0  0  0  0  0  0  0  0  0  0  0  0
   46.3440   33.6630   40.0620 C   0  0  0  0  0  0  0  0  0  0  0  0
   46.2460   33.2940   41.5100 C   0  0  0  0  0  0  0  0  0  0  0  0
   47.5700   36.1210   41.6920 H   0  0  0  0  0  0  0  0  0  0  0  0
   48.6760   35.1630   42.7650 H   0  0  0  0  0  0  0  0  0  0  0  0
   49.2870   35.2020   40.3830 H   0  0  0  0  0  0  0  0  0  0  0  0
   49.0550   33.5660   41.0380 H   0  0  0  0  0  0  0  0  0  0  0  0
   47.4750   35.0830   39.0360 H   0  0  0  0  0  0  0  0  0  0  0  0
   45.5230   34.3680   39.8180 H   0  0  0  0  0  0  0  0  0  0  0  0
   46.1970   32.7530   39.4560 H   0  0  0  0  0  0  0  0  0  0  0  0
   45.1660   33.0750   41.7170 H   0  0  0  0  0  0  0  0  0  0  0  0
   46.8160   32.3460   41.6450 H   0  0  0  0  0  0  0  0  0  0  0  0
   47.0130   32.8930   44.7860 O   0  0  0  0  0  0  0  0  0  0  0  0
   45.4200   30.7830   44.4520 O   0  0  0  0  0  0  0  0  0  0  0  0
   46.4900   31.3580   45.3860 P   0  0  1  0  0  0  0  0  0  0  0  0
   47.8010   30.3500   45.5120 O   0  0  0  0  0  0  0  0  0  0  0  0
   48.7420   29.9750   44.7260 C   0  0  0  0  0  0  0  0  0  0  0  0
   49.0940   30.2830   43.3900 C   0  0  0  0  0  0  0  0  0  0  0  0
   48.4500   30.9840   42.8920 H   0  0  0  0  0  0  0  0  0  0  0  0
   50.1890   29.7040   42.8120 C   0  0  0  0  0  0  0  0  0  0  0  0
   50.9690   28.7870   43.5710 C   0  0  0  0  0  0  0  0  0  0  0  0
   50.0830   28.7380   45.2470 S   0  0  0  0  0  0  0  0  0  0  0  0
   45.7520   31.6490   46.8780 O   0  0  0  0  0  0  0  0  0  0  0  0
   46.6670   31.7990   47.9080 C   0  0  0  0  0  0  0  0  0  0  0  0
   47.7140   32.6490   47.5950 F   0  0  0  0  0  0  0  0  0  0  0  0
   47.1860   30.6240   48.3800 F   0  0  0  0  0  0  0  0  0  0  0  0
   45.9570   32.3650   48.9630 F   0  0  0  0  0  0  0  0  0  0  0  0
  1  2  2  0  0  0  0
  1  6  1  0  0  0  0
  2  3  1  0  0  0  0
  3 24  1  0  0  0  0
  3  4  2  0  0  0  0
  5  4  1  0  0  0  0
  5  8  1  0  0  0  0
  6  5  2  0  0  0  0
  7  1  1  0  0  0  0
  9  2  1  0  0  0  0
 10  9  1  0  0  0  0
 10 16  1  0  0  0  0
 11 18  1  0  0  0  0
 11 10  1  0  0  0  0
 12 13  1  0  0  0  0
 12 11  1  0  0  0  0
 13 14  1  0  0  0  0
 14 23  1  0  0  0  0
 14 22  1  0  0  0  0
 14  9  1  0  0  0  0
 15 10  1  0  0  0  0
 17 11  1  0  0  0  0
 19 12  1  0  0  0  0
 20 13  1  0  0  0  0
 21 13  1  0  0  0  0
 24 26  1  0  0  0  0
 26 25  2  6  0  0  0
 26 27  1  0  0  0  0
 26 34  1  0  0  0  0
 28 33  1  0  0  0  0
 28 27  1  0  0  0  0
 29 28  2  0  0  0  0
 30 29  1  0  0  0  0
 31 29  1  0  0  0  0
 31 32  2  0  0  0  0
 32 33  1  0  0  0  0
 34 35  1  0  0  0  0
 35 37  1  0  0  0  0
 35 38  1  0  0  0  0
 36 35  1  0  0  0  0
M  END
>  <minimizedAffinity>
-4.93196106

>  <minimizedRMSD>
0.809702039

$$$$
