
 OpenBabel03252507413D

 22 23  0  0  0  0  0  0  0  0999 V2000
   46.8570   34.9410   42.7540 C   0  0  0  0  0  0  0  0  0  0  0  0
   46.6290   35.9230   43.2520 H   0  0  0  0  0  0  0  0  0  0  0  0
   47.3890   34.3340   43.5030 H   0  0  0  0  0  0  0  0  0  0  0  0
   45.5890   34.3420   42.3150 C   0  0  0  0  0  0  0  0  0  0  0  0
   45.2990   33.0950   42.8610 C   0  0  0  0  0  0  0  0  0  0  0  0
   44.1120   32.4650   42.4890 C   0  0  0  0  0  0  0  0  0  0  0  0
   43.2690   33.0930   41.5990 N   0  0  0  0  0  0  0  0  0  0  0  0
   43.6020   34.3010   41.1030 C   0  0  0  0  0  0  0  0  0  0  0  0
   44.7350   34.9130   41.4510 N   0  0  0  0  0  0  0  0  0  0  0  0
   43.8430   31.5020   42.8840 H   0  0  0  0  0  0  0  0  0  0  0  0
   43.0020   34.8660   40.4020 H   0  0  0  0  0  0  0  0  0  0  0  0
   46.4060   32.2970   44.0140 S   0  0  0  0  0  0  0  0  0  0  0  0
   46.5200   30.9210   43.7660 H   0  0  0  0  0  0  0  0  0  0  0  0
   47.8040   35.2600   41.6230 C   0  0  0  0  0  0  0  0  0  0  0  0
   47.3170   35.1470   40.6300 H   0  0  0  0  0  0  0  0  0  0  0  0
   48.2200   36.2630   41.7840 H   0  0  0  0  0  0  0  0  0  0  0  0
   48.8930   34.2640   41.6850 C   0  0  0  0  0  0  0  0  0  0  0  0
   50.0490   34.2910   42.4170 C   0  0  0  0  0  0  0  0  0  0  0  0
   50.2250   35.1500   43.0500 H   0  0  0  0  0  0  0  0  0  0  0  0
   50.9420   33.2880   42.3550 C   0  0  0  0  0  0  0  0  0  0  0  0
   50.5160   32.1910   41.4230 C   0  0  0  0  0  0  0  0  0  0  0  0
   48.8510   32.8030   40.7670 S   0  0  0  0  0  0  0  0  0  0  0  0
  1  2  1  0  0  0  0
  1  3  1  0  0  0  0
  4  1  1  0  0  0  0
  4  5  1  0  0  0  0
  5 12  1  0  0  0  0
  6  5  2  0  0  0  0
  6 10  1  0  0  0  0
  7  6  1  0  0  0  0
  8  9  1  0  0  0  0
  8  7  2  0  0  0  0
  9  4  2  0  0  0  0
 11  8  1  0  0  0  0
 13 12  1  0  0  0  0
 14 17  1  0  0  0  0
 14 16  1  0  0  0  0
 14  1  1  0  0  0  0
 15 14  1  0  0  0  0
 17 18  2  0  0  0  0
 18 19  1  0  0  0  0
 20 18  1  0  0  0  0
 21 20  2  0  0  0  0
 22 21  1  0  0  0  0
 22 17  1  0  0  0  0
M  END
>  <minimizedAffinity>
-3.65549135

>  <minimizedRMSD>
3.83888602

$$$$
