
 OpenBabel03252506423D

 37 40  0  0  1  0  0  0  0  0999 V2000
   49.2910   33.2070   41.4570 N   0  0  1  0  0  0  0  0  0  0  0  0
   50.6440   33.1370   42.0200 C   0  0  0  0  0  0  0  0  0  0  0  0
   51.3140   31.8340   41.7170 C   0  0  0  0  0  0  0  0  0  0  0  0
   50.6220   30.7690   42.5460 C   0  0  0  0  0  0  0  0  0  0  0  0
   49.1500   31.0060   42.5860 C   0  0  0  0  0  0  0  0  0  0  0  0
   48.7210   31.8850   41.4180 C   0  0  2  0  0  0  0  0  0  0  0  0
   50.5730   33.2100   43.1410 H   0  0  0  0  0  0  0  0  0  0  0  0
   51.2310   34.0250   41.7020 H   0  0  0  0  0  0  0  0  0  0  0  0
   51.3850   31.6100   40.6530 H   0  0  0  0  0  0  0  0  0  0  0  0
   52.3560   31.9250   42.0880 H   0  0  0  0  0  0  0  0  0  0  0  0
   50.9950   30.8640   43.6040 H   0  0  0  0  0  0  0  0  0  0  0  0
   50.9300   29.7770   42.2030 H   0  0  0  0  0  0  0  0  0  0  0  0
   48.8460   31.5660   43.4920 H   0  0  0  0  0  0  0  0  0  0  0  0
   48.5630   30.0630   42.4670 H   0  0  0  0  0  0  0  0  0  0  0  0
   47.6300   32.0300   41.5840 H   0  0  0  0  0  0  0  0  0  0  0  0
   47.1650   34.5550   42.0080 C   0  0  1  0  0  0  0  0  0  0  0  0
   48.2900   35.4570   41.7140 C   0  0  0  0  0  0  0  0  0  0  0  0
   48.5680   34.1170   42.2830 C   0  0  2  0  0  0  0  0  0  0  0  0
   46.6840   34.0850   41.1280 H   0  0  0  0  0  0  0  0  0  0  0  0
   48.4090   36.3560   42.3670 H   0  0  0  0  0  0  0  0  0  0  0  0
   48.5590   35.6870   40.6470 H   0  0  0  0  0  0  0  0  0  0  0  0
   48.8570   34.1280   43.3740 H   0  0  0  0  0  0  0  0  0  0  0  0
   45.4960   36.0300   43.1760 C   0  0  0  0  0  0  0  0  0  0  0  0
   46.2660   34.8510   43.1550 C   0  0  0  0  0  0  0  0  0  0  0  0
   46.1490   33.9670   44.2410 C   0  0  0  0  0  0  0  0  0  0  0  0
   45.3030   34.2960   45.2510 N   0  0  0  0  0  0  0  0  0  0  0  0
   44.5740   35.4430   45.2370 C   0  0  0  0  0  0  0  0  0  0  0  0
   44.6660   36.3220   44.1960 N   0  0  0  0  0  0  0  0  0  0  0  0
   45.6310   36.6660   42.3130 H   0  0  0  0  0  0  0  0  0  0  0  0
   46.7300   33.0490   44.2550 H   0  0  0  0  0  0  0  0  0  0  0  0
   43.9010   35.7070   46.0390 H   0  0  0  0  0  0  0  0  0  0  0  0
   48.8900   31.1940   40.1330 C   0  0  0  0  0  0  0  0  0  0  0  0
   48.8370   29.9200   39.7890 C   0  0  0  0  0  0  0  0  0  0  0  0
   48.6340   29.1820   40.5520 H   0  0  0  0  0  0  0  0  0  0  0  0
   49.0390   29.5600   38.4850 C   0  0  0  0  0  3  0  0  0  0  0  0
   49.2940   30.5600   37.5690 C   0  0  0  0  0  3  0  0  0  0  0  0
   49.2570   32.1670   38.5780 S   0  0  0  0  0  0  0  0  0  0  0  0
  1  2  1  1  0  0  0
  1 18  1  0  0  0  0
  2  7  1  0  0  0  0
  3  2  1  0  0  0  0
  3 10  1  0  0  0  0
  3  4  1  0  0  0  0
  4  5  1  0  0  0  0
  4 11  1  0  0  0  0
  5 13  1  0  0  0  0
  6  1  1  0  0  0  0
  6 15  1  1  0  0  0
  6  5  1  0  0  0  0
  8  2  1  0  0  0  0
  9  3  1  0  0  0  0
 12  4  1  0  0  0  0
 14  5  1  0  0  0  0
 16 19  1  6  0  0  0
 16 18  1  0  0  0  0
 16 24  1  0  0  0  0
 17 16  1  0  0  0  0
 17 18  1  0  0  0  0
 17 20  1  0  0  0  0
 18 22  1  1  0  0  0
 21 17  1  0  0  0  0
 23 28  1  0  0  0  0
 24 23  2  0  0  0  0
 24 25  1  0  0  0  0
 25 30  1  0  0  0  0
 25 26  2  0  0  0  0
 27 26  1  0  0  0  0
 27 31  1  0  0  0  0
 28 27  2  0  0  0  0
 29 23  1  0  0  0  0
 32  6  1  0  0  0  0
 33 32  2  0  0  0  0
 33 34  1  0  0  0  0
 35 33  1  0  0  0  0
 36 35  2  0  0  0  0
 36 37  1  0  0  0  0
 37 32  1  0  0  0  0
M  END
>  <minimizedAffinity>
-4.68376589

>  <minimizedRMSD>
0.510263145

$$$$
