
     RDKit          3D

 24 25  0  0  0  0  0  0  0  0999 V2000
   44.7315   35.3976   45.0329 C   0  0  0  0  0  0  0  0  0  0  0  0
   45.6053   34.9377   44.0496 C   0  0  0  0  0  0  0  0  0  0  0  0
   46.3524   33.7760   44.3280 C   0  0  0  0  0  0  0  0  0  0  0  0
   46.1876   33.1674   45.5255 N   0  0  0  0  0  0  0  0  0  0  0  0
   45.3364   33.6429   46.4426 C   0  0  0  0  0  0  0  0  0  0  0  0
   44.6017   34.7516   46.2186 N   0  0  0  0  0  0  0  0  0  0  0  0
   45.6823   35.7130   42.7673 C   0  0  0  0  0  0  0  0  0  0  0  0
   45.2342   36.9657   43.0651 F   0  0  0  0  0  0  0  0  0  0  0  0
   44.8022   35.0875   41.8879 F   0  0  0  0  0  0  0  0  0  0  0  0
   46.9669   35.6444   42.3028 F   0  0  0  0  0  0  0  0  0  0  0  0
   45.1388   33.0503   47.6764 O   0  0  0  0  0  0  0  0  0  0  0  0
   46.1387   32.2797   48.3111 C   0  0  0  0  0  0  0  0  0  0  0  0
   44.1518   36.2873   44.8344 H   0  0  0  0  0  0  0  0  0  0  0  0
   47.0104   33.4525   43.5550 H   0  0  0  0  0  0  0  0  0  0  0  0
   46.3566   31.3416   47.7342 H   0  0  0  0  0  0  0  0  0  0  0  0
   47.0619   32.8469   48.5201 H   0  0  0  0  0  0  0  0  0  0  0  0
   45.5576   31.8192   49.5996 C   0  0  0  0  0  0  0  0  0  0  0  0
   45.9580   30.8695   50.4503 C   0  0  0  0  0  0  0  0  0  0  0  0
   46.8533   30.3130   50.2025 H   0  0  0  0  0  0  0  0  0  0  0  0
   45.2673   30.5997   51.6006 C   0  0  0  0  0  0  0  0  0  0  0  0
   44.0931   31.4345   51.7815 C   0  0  0  0  0  0  0  0  0  0  0  0
   44.1263   32.5223   50.2516 S   0  0  0  0  0  0  0  0  0  0  0  0
   45.5285   29.8513   52.3323 H   0  0  0  0  0  0  0  0  0  0  0  0
   43.4423   31.2640   52.7506 H   0  0  0  0  0  0  0  0  0  0  0  0
  1  6  2  0
  2  3  2  0
  2  1  1  0
  3  4  1  0
  4  5  2  0
  5 11  1  0
  6  5  1  0
  7  8  1  0
  7  2  1  0
  9  7  1  0
 10  7  1  0
 11 12  1  0
  1 13  1  0
  3 14  1  0
 12 15  1  0
 12 16  1  0
 17 18  2  0
 18 19  1  0
 18 20  1  0
 20 21  2  0
 21 22  1  0
 22 17  1  0
 20 23  1  0
 21 24  1  0
 12 17  1  0
M  ISO  5  13  14  14  14  15   8  16   8  19  15
M  END
>  <DihAtoms>  (1) 
10,11,16,17

>  <DihDeg>  (1) 
90.18024365870878

$$$$
