
 OpenBabel03242514583D

 22 23  0  0  0  0  0  0  0  0999 V2000
   38.5720   29.5250   42.8910 C   0  0  0  0  0  0  0  0  0  0  0  0
   38.5070   30.5100   43.4400 H   0  0  0  0  0  0  0  0  0  0  0  0
   39.6250   29.1980   43.0200 H   0  0  0  0  0  0  0  0  0  0  0  0
   37.6590   28.5800   43.6230 C   0  0  0  0  0  0  0  0  0  0  0  0
   36.6190   28.8550   43.4050 H   0  0  0  0  0  0  0  0  0  0  0  0
   37.8690   28.5610   44.7090 H   0  0  0  0  0  0  0  0  0  0  0  0
   37.8530   27.2080   43.1330 C   0  0  0  0  0  0  0  0  0  0  0  0
   36.9990   26.3140   42.5130 C   0  0  0  0  0  0  0  0  0  0  0  0
   35.9950   26.6800   42.3510 H   0  0  0  0  0  0  0  0  0  0  0  0
   37.4500   25.0760   42.1560 C   0  0  0  0  0  3  0  0  0  0  0  0
   38.7620   24.7450   42.4280 C   0  0  0  0  0  3  0  0  0  0  0  0
   39.4130   26.3160   43.2570 S   0  0  0  0  0  0  0  0  0  0  0  0
   38.1530   29.8360   41.1980 S   0  0  0  0  0  0  0  0  0  0  0  0
   38.1840   31.5740   40.7450 C   0  0  0  0  0  0  0  0  0  0  0  0
   37.1810   31.9760   39.8520 C   0  0  0  0  0  0  0  0  0  0  0  0
   37.1520   33.3280   39.4580 C   0  0  0  0  0  0  0  0  0  0  0  0
   38.0980   34.1530   39.9680 N   0  0  0  0  0  0  0  0  0  0  0  0
   39.0480   33.7350   40.8230 C   0  0  0  0  0  0  0  0  0  0  0  0
   39.1000   32.4570   41.2150 N   0  0  0  0  0  0  0  0  0  0  0  0
   36.4350   31.3010   39.4570 H   0  0  0  0  0  0  0  0  0  0  0  0
   36.4100   33.7050   38.7770 H   0  0  0  0  0  0  0  0  0  0  0  0
   39.8170   34.3390   41.2560 H   0  0  0  0  0  0  0  0  0  0  0  0
  1  3  1  0  0  0  0
  1  2  1  0  0  0  0
  1  4  1  0  0  0  0
  4  6  1  0  0  0  0
  5  4  1  0  0  0  0
  7 12  1  0  0  0  0
  7  4  1  0  0  0  0
  8  7  2  0  0  0  0
  9  8  1  0  0  0  0
 10 11  2  0  0  0  0
 10  8  1  0  0  0  0
 11 12  1  0  0  0  0
 13  1  1  0  0  0  0
 14 13  1  0  0  0  0
 14 19  1  0  0  0  0
 15 14  2  0  0  0  0
 16 15  1  0  0  0  0
 16 17  2  0  0  0  0
 17 18  1  0  0  0  0
 18 19  2  0  0  0  0
 18 22  1  0  0  0  0
 20 15  1  0  0  0  0
 21 16  1  0  0  0  0
M  END
>  <minimizedAffinity>
-4.10105658

$$$$

 OpenBabel03242514583D

 22 23  0  0  0  0  0  0  0  0999 V2000
   38.3370   29.7600   42.4080 C   0  0  0  0  0  0  0  0  0  0  0  0
   39.4320   29.5140   42.2780 H   0  0  0  0  0  0  0  0  0  0  0  0
   38.3280   30.7470   42.9160 H   0  0  0  0  0  0  0  0  0  0  0  0
   37.7760   29.9040   41.0210 C   0  0  0  0  0  0  0  0  0  0  0  0
   36.7140   29.6280   41.0380 H   0  0  0  0  0  0  0  0  0  0  0  0
   38.3500   29.3160   40.2790 H   0  0  0  0  0  0  0  0  0  0  0  0
   37.8480   31.3080   40.5890 C   0  0  0  0  0  0  0  0  0  0  0  0
   37.0120   32.0820   39.8030 C   0  0  0  0  0  0  0  0  0  0  0  0
   36.1370   31.5710   39.4290 H   0  0  0  0  0  0  0  0  0  0  0  0
   37.3260   33.3870   39.5560 C   0  0  0  0  0  3  0  0  0  0  0  0
   38.4810   33.9070   40.1020 C   0  0  0  0  0  3  0  0  0  0  0  0
   39.1860   32.4250   41.0460 S   0  0  0  0  0  0  0  0  0  0  0  0
   37.6210   28.4740   43.3930 S   0  0  0  0  0  0  0  0  0  0  0  0
   38.2900   26.8400   43.0600 C   0  0  0  0  0  0  0  0  0  0  0  0
   39.5160   26.5600   43.6800 C   0  0  0  0  0  0  0  0  0  0  0  0
   40.0930   25.2940   43.4570 C   0  0  0  0  0  0  0  0  0  0  0  0
   39.4240   24.4290   42.6570 N   0  0  0  0  0  0  0  0  0  0  0  0
   38.2490   24.7300   42.0780 C   0  0  0  0  0  0  0  0  0  0  0  0
   37.6770   25.9240   42.2710 N   0  0  0  0  0  0  0  0  0  0  0  0
   40.0330   27.2650   44.3150 H   0  0  0  0  0  0  0  0  0  0  0  0
   41.0310   25.0120   43.9010 H   0  0  0  0  0  0  0  0  0  0  0  0
   37.6780   24.0880   41.4390 H   0  0  0  0  0  0  0  0  0  0  0  0
  1  3  1  0  0  0  0
  1 13  1  0  0  0  0
  2  1  1  0  0  0  0
  4  5  1  0  0  0  0
  4  1  1  0  0  0  0
  6  4  1  0  0  0  0
  7  4  1  0  0  0  0
  7 12  1  0  0  0  0
  8  7  2  0  0  0  0
  9  8  1  0  0  0  0
 10  8  1  0  0  0  0
 10 11  2  0  0  0  0
 11 12  1  0  0  0  0
 14 13  1  0  0  0  0
 14 15  1  0  0  0  0
 15 20  1  0  0  0  0
 16 15  2  0  0  0  0
 16 21  1  0  0  0  0
 17 16  1  0  0  0  0
 18 19  1  0  0  0  0
 18 17  2  0  0  0  0
 19 14  2  0  0  0  0
 22 18  1  0  0  0  0
M  END
>  <minimizedAffinity>
-3.98505306

$$$$

 OpenBabel03242514583D

 22 23  0  0  0  0  0  0  0  0999 V2000
   36.4140   28.0200   41.2250 C   0  0  0  0  0  0  0  0  0  0  0  0
   37.3790   27.7760   40.6900 H   0  0  0  0  0  0  0  0  0  0  0  0
   35.7000   27.2390   40.8910 H   0  0  0  0  0  0  0  0  0  0  0  0
   36.6970   27.8490   42.6910 C   0  0  0  0  0  0  0  0  0  0  0  0
   35.8320   27.3670   43.1640 H   0  0  0  0  0  0  0  0  0  0  0  0
   36.9600   28.8080   43.1770 H   0  0  0  0  0  0  0  0  0  0  0  0
   37.8470   26.9540   42.8840 C   0  0  0  0  0  0  0  0  0  0  0  0
   38.9770   27.0500   43.6780 C   0  0  0  0  0  0  0  0  0  0  0  0
   39.0380   27.9480   44.2750 H   0  0  0  0  0  0  0  0  0  0  0  0
   39.9060   26.0500   43.6630 C   0  0  0  0  0  3  0  0  0  0  0  0
   39.6930   24.9580   42.8470 C   0  0  0  0  0  3  0  0  0  0  0  0
   38.0380   25.3780   42.0310 S   0  0  0  0  0  0  0  0  0  0  0  0
   35.9330   29.6500   40.7230 S   0  0  0  0  0  0  0  0  0  0  0  0
   37.2570   30.8610   40.8050 C   0  0  0  0  0  0  0  0  0  0  0  0
   37.0730   32.0010   40.0110 C   0  0  0  0  0  0  0  0  0  0  0  0
   38.0770   32.9890   40.0310 C   0  0  0  0  0  0  0  0  0  0  0  0
   39.1580   32.7720   40.8190 N   0  0  0  0  0  0  0  0  0  0  0  0
   39.3030   31.6660   41.5710 C   0  0  0  0  0  0  0  0  0  0  0  0
   38.3660   30.7110   41.5710 N   0  0  0  0  0  0  0  0  0  0  0  0
   36.2020   32.1550   39.3880 H   0  0  0  0  0  0  0  0  0  0  0  0
   38.0010   33.8880   39.4470 H   0  0  0  0  0  0  0  0  0  0  0  0
   40.1320   31.4420   42.2090 H   0  0  0  0  0  0  0  0  0  0  0  0
  1  4  1  0  0  0  0
  2  1  1  0  0  0  0
  3  1  1  0  0  0  0
  4  7  1  0  0  0  0
  4  5  1  0  0  0  0
  4  6  1  0  0  0  0
  7  8  2  0  0  0  0
  8  9  1  0  0  0  0
 10  8  1  0  0  0  0
 11 10  2  0  0  0  0
 12 11  1  0  0  0  0
 12  7  1  0  0  0  0
 13 14  1  0  0  0  0
 13  1  1  0  0  0  0
 14 19  1  0  0  0  0
 15 16  1  0  0  0  0
 15 14  2  0  0  0  0
 16 17  2  0  0  0  0
 17 18  1  0  0  0  0
 18 22  1  0  0  0  0
 19 18  2  0  0  0  0
 20 15  1  0  0  0  0
 21 16  1  0  0  0  0
M  END
>  <minimizedAffinity>
-3.94582748

$$$$

 OpenBabel03242514583D

 22 23  0  0  0  0  0  0  0  0999 V2000
   36.0640   29.6460   39.5750 C   0  0  0  0  0  0  0  0  0  0  0  0
   36.4770   28.5950   39.5520 H   0  0  0  0  0  0  0  0  0  0  0  0
   35.0000   29.5390   39.2790 H   0  0  0  0  0  0  0  0  0  0  0  0
   36.1440   30.0920   41.0090 C   0  0  0  0  0  0  0  0  0  0  0  0
   35.1270   30.1610   41.4150 H   0  0  0  0  0  0  0  0  0  0  0  0
   36.7030   31.0410   41.1170 H   0  0  0  0  0  0  0  0  0  0  0  0
   36.8600   29.0900   41.8110 C   0  0  0  0  0  0  0  0  0  0  0  0
   36.5430   27.7920   42.1750 C   0  0  0  0  0  0  0  0  0  0  0  0
   35.5920   27.4350   41.8060 H   0  0  0  0  0  0  0  0  0  0  0  0
   37.4090   27.0700   42.9430 C   0  0  0  0  0  3  0  0  0  0  0  0
   38.5920   27.6590   43.3420 C   0  0  0  0  0  3  0  0  0  0  0  0
   38.4700   29.3800   42.5650 S   0  0  0  0  0  0  0  0  0  0  0  0
   37.0040   30.6080   38.4220 S   0  0  0  0  0  0  0  0  0  0  0  0
   37.9990   31.8950   39.1820 C   0  0  0  0  0  0  0  0  0  0  0  0
   37.3360   33.1110   39.4010 C   0  0  0  0  0  0  0  0  0  0  0  0
   38.0630   34.1610   39.9950 C   0  0  0  0  0  0  0  0  0  0  0  0
   39.3590   33.9270   40.3160 N   0  0  0  0  0  0  0  0  0  0  0  0
   39.9650   32.7480   40.0930 C   0  0  0  0  0  0  0  0  0  0  0  0
   39.3000   31.7320   39.5300 N   0  0  0  0  0  0  0  0  0  0  0  0
   36.3010   33.2760   39.1360 H   0  0  0  0  0  0  0  0  0  0  0  0
   37.6180   35.1190   40.1910 H   0  0  0  0  0  0  0  0  0  0  0  0
   40.9810   32.5080   40.3260 H   0  0  0  0  0  0  0  0  0  0  0  0
  1  4  1  0  0  0  0
  2  1  1  0  0  0  0
  3  1  1  0  0  0  0
  4  6  1  0  0  0  0
  4  5  1  0  0  0  0
  4  7  1  0  0  0  0
  7  8  2  0  0  0  0
  7 12  1  0  0  0  0
  8 10  1  0  0  0  0
  9  8  1  0  0  0  0
 10 11  2  0  0  0  0
 12 11  1  0  0  0  0
 13 14  1  0  0  0  0
 13  1  1  0  0  0  0
 14 15  2  0  0  0  0
 14 19  1  0  0  0  0
 15 16  1  0  0  0  0
 16 21  1  0  0  0  0
 16 17  2  0  0  0  0
 18 17  1  0  0  0  0
 18 22  1  0  0  0  0
 19 18  2  0  0  0  0
 20 15  1  0  0  0  0
M  END
>  <minimizedAffinity>
-3.86611319

$$$$

 OpenBabel03242514583D

 22 23  0  0  0  0  0  0  0  0999 V2000
   39.3190   30.8010   41.2150 C   0  0  0  0  0  0  0  0  0  0  0  0
   40.1690   31.5430   41.1640 H   0  0  0  0  0  0  0  0  0  0  0  0
   39.6140   29.9850   40.5230 H   0  0  0  0  0  0  0  0  0  0  0  0
   39.3050   30.2830   42.6260 C   0  0  0  0  0  0  0  0  0  0  0  0
   38.8490   31.0410   43.2760 H   0  0  0  0  0  0  0  0  0  0  0  0
   40.3150   29.9890   42.9690 H   0  0  0  0  0  0  0  0  0  0  0  0
   38.4650   29.0800   42.7150 C   0  0  0  0  0  0  0  0  0  0  0  0
   37.4740   28.7020   43.6040 C   0  0  0  0  0  0  0  0  0  0  0  0
   37.2680   29.4180   44.3870 H   0  0  0  0  0  0  0  0  0  0  0  0
   36.8420   27.5030   43.4500 C   0  0  0  0  0  3  0  0  0  0  0  0
   37.2120   26.6880   42.3990 C   0  0  0  0  0  3  0  0  0  0  0  0
   38.5680   27.7040   41.5570 S   0  0  0  0  0  0  0  0  0  0  0  0
   37.8510   31.6450   40.6940 S   0  0  0  0  0  0  0  0  0  0  0  0
   36.6260   30.5770   39.9290 C   0  0  0  0  0  0  0  0  0  0  0  0
   36.7320   30.4500   38.5370 C   0  0  0  0  0  0  0  0  0  0  0  0
   35.8000   29.6260   37.8770 C   0  0  0  0  0  0  0  0  0  0  0  0
   34.8590   29.0090   38.6330 N   0  0  0  0  0  0  0  0  0  0  0  0
   34.7850   29.1530   39.9670 C   0  0  0  0  0  0  0  0  0  0  0  0
   35.6560   29.9300   40.6210 N   0  0  0  0  0  0  0  0  0  0  0  0
   37.4920   30.9510   37.9530 H   0  0  0  0  0  0  0  0  0  0  0  0
   35.8230   29.4820   36.8120 H   0  0  0  0  0  0  0  0  0  0  0  0
   34.0660   28.6930   40.6120 H   0  0  0  0  0  0  0  0  0  0  0  0
  1  4  1  0  0  0  0
  2  1  1  0  0  0  0
  3  1  1  0  0  0  0
  4  7  1  0  0  0  0
  4  6  1  0  0  0  0
  4  5  1  0  0  0  0
  7  8  2  0  0  0  0
  8  9  1  0  0  0  0
 10  8  1  0  0  0  0
 11 10  2  0  0  0  0
 12 11  1  0  0  0  0
 12  7  1  0  0  0  0
 13  1  1  0  0  0  0
 14 19  1  0  0  0  0
 14 13  1  0  0  0  0
 15 14  2  0  0  0  0
 16 15  1  0  0  0  0
 16 17  2  0  0  0  0
 17 18  1  0  0  0  0
 18 22  1  0  0  0  0
 18 19  2  0  0  0  0
 20 15  1  0  0  0  0
 21 16  1  0  0  0  0
M  END
>  <minimizedAffinity>
-3.84102368

$$$$

 OpenBabel03242514583D

 22 23  0  0  0  0  0  0  0  0999 V2000
   36.8980   29.4310   38.4880 C   0  0  0  0  0  0  0  0  0  0  0  0
   36.3830   28.7560   37.7420 H   0  0  0  0  0  0  0  0  0  0  0  0
   37.8980   28.9760   38.6380 H   0  0  0  0  0  0  0  0  0  0  0  0
   37.0480   30.7630   37.8080 C   0  0  0  0  0  0  0  0  0  0  0  0
   36.0510   31.1440   37.5530 H   0  0  0  0  0  0  0  0  0  0  0  0
   37.7120   30.7040   36.9240 H   0  0  0  0  0  0  0  0  0  0  0  0
   37.6580   31.7350   38.7270 C   0  0  0  0  0  0  0  0  0  0  0  0
   37.2190   32.9530   39.2160 C   0  0  0  0  0  0  0  0  0  0  0  0
   36.2450   33.2610   38.8630 H   0  0  0  0  0  0  0  0  0  0  0  0
   38.0050   33.6640   40.0760 C   0  0  0  0  0  3  0  0  0  0  0  0
   39.2300   33.1440   40.4400 C   0  0  0  0  0  3  0  0  0  0  0  0
   39.2760   31.5110   39.4850 S   0  0  0  0  0  0  0  0  0  0  0  0
   35.9150   29.4310   39.9630 S   0  0  0  0  0  0  0  0  0  0  0  0
   36.7930   28.8680   41.4250 C   0  0  0  0  0  0  0  0  0  0  0  0
   36.6630   27.5020   41.7100 C   0  0  0  0  0  0  0  0  0  0  0  0
   37.3280   26.9990   42.8460 C   0  0  0  0  0  0  0  0  0  0  0  0
   38.0500   27.8710   43.5900 N   0  0  0  0  0  0  0  0  0  0  0  0
   38.1540   29.1770   43.2890 C   0  0  0  0  0  0  0  0  0  0  0  0
   37.5330   29.6830   42.2170 N   0  0  0  0  0  0  0  0  0  0  0  0
   36.0810   26.8230   41.1020 H   0  0  0  0  0  0  0  0  0  0  0  0
   37.2730   25.9620   43.1230 H   0  0  0  0  0  0  0  0  0  0  0  0
   38.7080   29.9090   43.8380 H   0  0  0  0  0  0  0  0  0  0  0  0
  1  3  1  0  0  0  0
  1 13  1  0  0  0  0
  2  1  1  0  0  0  0
  4  1  1  0  0  0  0
  4  7  1  0  0  0  0
  5  4  1  0  0  0  0
  6  4  1  0  0  0  0
  7  8  2  0  0  0  0
  7 12  1  0  0  0  0
  8 10  1  0  0  0  0
  9  8  1  0  0  0  0
 10 11  2  0  0  0  0
 12 11  1  0  0  0  0
 13 14  1  0  0  0  0
 14 15  2  0  0  0  0
 14 19  1  0  0  0  0
 15 16  1  0  0  0  0
 16 21  1  0  0  0  0
 16 17  2  0  0  0  0
 18 17  1  0  0  0  0
 18 22  1  0  0  0  0
 19 18  2  0  0  0  0
 20 15  1  0  0  0  0
M  END
>  <minimizedAffinity>
-3.79551148

$$$$

 OpenBabel03242514583D

 22 23  0  0  0  0  0  0  0  0999 V2000
   36.7990   28.6740   39.2210 C   0  0  0  0  0  0  0  0  0  0  0  0
   37.9200   28.8000   39.2880 H   0  0  0  0  0  0  0  0  0  0  0  0
   36.5990   28.4860   38.1460 H   0  0  0  0  0  0  0  0  0  0  0  0
   36.4730   27.4400   40.0160 C   0  0  0  0  0  0  0  0  0  0  0  0
   36.8810   26.5650   39.4930 H   0  0  0  0  0  0  0  0  0  0  0  0
   35.3870   27.3450   40.2060 H   0  0  0  0  0  0  0  0  0  0  0  0
   37.1260   27.4980   41.3310 C   0  0  0  0  0  0  0  0  0  0  0  0
   36.6230   27.6490   42.6120 C   0  0  0  0  0  0  0  0  0  0  0  0
   35.5490   27.7450   42.6710 H   0  0  0  0  0  0  0  0  0  0  0  0
   37.4730   27.6690   43.6790 C   0  0  0  0  0  3  0  0  0  0  0  0
   38.8280   27.5360   43.4510 C   0  0  0  0  0  3  0  0  0  0  0  0
   38.9070   27.3680   41.5680 S   0  0  0  0  0  0  0  0  0  0  0  0
   36.0640   30.1760   39.8050 S   0  0  0  0  0  0  0  0  0  0  0  0
   37.2470   31.4810   40.1570 C   0  0  0  0  0  0  0  0  0  0  0  0
   38.2970   31.1190   41.0130 C   0  0  0  0  0  0  0  0  0  0  0  0
   39.2580   32.0990   41.3290 C   0  0  0  0  0  0  0  0  0  0  0  0
   39.1050   33.3300   40.7830 N   0  0  0  0  0  0  0  0  0  0  0  0
   38.0860   33.6440   39.9650 C   0  0  0  0  0  0  0  0  0  0  0  0
   37.1570   32.7340   39.6480 N   0  0  0  0  0  0  0  0  0  0  0  0
   38.4000   30.1300   41.4380 H   0  0  0  0  0  0  0  0  0  0  0  0
   40.0890   31.8900   41.9780 H   0  0  0  0  0  0  0  0  0  0  0  0
   37.9160   34.5960   39.5070 H   0  0  0  0  0  0  0  0  0  0  0  0
  1  2  1  0  0  0  0
  1 13  1  0  0  0  0
  1  4  1  0  0  0  0
  3  1  1  0  0  0  0
  4  6  1  0  0  0  0
  4  7  1  0  0  0  0
  5  4  1  0  0  0  0
  7 12  1  0  0  0  0
  7  8  2  0  0  0  0
  8  9  1  0  0  0  0
  8 10  1  0  0  0  0
 11 10  2  0  0  0  0
 12 11  1  0  0  0  0
 13 14  1  0  0  0  0
 14 15  1  0  0  0  0
 15 16  2  0  0  0  0
 15 20  1  0  0  0  0
 16 21  1  0  0  0  0
 17 16  1  0  0  0  0
 18 17  2  0  0  0  0
 19 18  1  0  0  0  0
 19 14  2  0  0  0  0
 22 18  1  0  0  0  0
M  END
>  <minimizedAffinity>
-3.70402575

$$$$

 OpenBabel03242514583D

 22 23  0  0  0  0  0  0  0  0999 V2000
   36.9680   26.7280   39.0750 C   0  0  0  0  0  0  0  0  0  0  0  0
   37.9720   27.2400   39.1430 H   0  0  0  0  0  0  0  0  0  0  0  0
   37.0770   26.0000   38.2450 H   0  0  0  0  0  0  0  0  0  0  0  0
   36.7920   25.9880   40.3720 C   0  0  0  0  0  0  0  0  0  0  0  0
   37.4090   25.0810   40.3480 H   0  0  0  0  0  0  0  0  0  0  0  0
   35.7280   25.7650   40.5810 H   0  0  0  0  0  0  0  0  0  0  0  0
   37.2760   26.8070   41.4920 C   0  0  0  0  0  0  0  0  0  0  0  0
   36.7370   27.0930   42.7350 C   0  0  0  0  0  0  0  0  0  0  0  0
   35.7800   26.6330   42.9330 H   0  0  0  0  0  0  0  0  0  0  0  0
   37.4150   27.9020   43.6010 C   0  0  0  0  0  3  0  0  0  0  0  0
   38.6320   28.4200   43.2100 C   0  0  0  0  0  3  0  0  0  0  0  0
   38.8380   27.7030   41.4710 S   0  0  0  0  0  0  0  0  0  0  0  0
   35.7590   27.9790   38.7380 S   0  0  0  0  0  0  0  0  0  0  0  0
   36.2390   29.6230   39.2790 C   0  0  0  0  0  0  0  0  0  0  0  0
   36.7670   30.4500   38.2780 C   0  0  0  0  0  0  0  0  0  0  0  0
   37.1630   31.7530   38.6400 C   0  0  0  0  0  0  0  0  0  0  0  0
   37.0060   32.1220   39.9350 N   0  0  0  0  0  0  0  0  0  0  0  0
   36.4950   31.3030   40.8710 C   0  0  0  0  0  0  0  0  0  0  0  0
   36.1120   30.0600   40.5570 N   0  0  0  0  0  0  0  0  0  0  0  0
   36.8830   30.1360   37.2510 H   0  0  0  0  0  0  0  0  0  0  0  0
   37.5750   32.4400   37.9240 H   0  0  0  0  0  0  0  0  0  0  0  0
   36.3500   31.5400   41.9030 H   0  0  0  0  0  0  0  0  0  0  0  0
  1  2  1  0  0  0  0
  1  4  1  0  0  0  0
  3  1  1  0  0  0  0
  4  6  1  0  0  0  0
  4  7  1  0  0  0  0
  5  4  1  0  0  0  0
  7  8  2  0  0  0  0
  8  9  1  0  0  0  0
  8 10  1  0  0  0  0
 11 10  2  0  0  0  0
 12  7  1  0  0  0  0
 12 11  1  0  0  0  0
 13  1  1  0  0  0  0
 13 14  1  0  0  0  0
 14 19  1  0  0  0  0
 15 16  1  0  0  0  0
 15 14  2  0  0  0  0
 16 17  2  0  0  0  0
 17 18  1  0  0  0  0
 18 22  1  0  0  0  0
 19 18  2  0  0  0  0
 20 15  1  0  0  0  0
 21 16  1  0  0  0  0
M  END
>  <minimizedAffinity>
-3.69846964

$$$$

 OpenBabel03242514583D

 22 23  0  0  0  0  0  0  0  0999 V2000
   39.6280   27.2100   42.5960 C   0  0  0  0  0  0  0  0  0  0  0  0
   40.5680   27.4950   43.1540 H   0  0  0  0  0  0  0  0  0  0  0  0
   39.8260   27.4990   41.5430 H   0  0  0  0  0  0  0  0  0  0  0  0
   39.5220   25.7140   42.6960 C   0  0  0  0  0  0  0  0  0  0  0  0
   39.2470   25.4470   43.7250 H   0  0  0  0  0  0  0  0  0  0  0  0
   40.4510   25.2110   42.3670 H   0  0  0  0  0  0  0  0  0  0  0  0
   38.4470   25.2230   41.8220 C   0  0  0  0  0  0  0  0  0  0  0  0
   37.3030   24.4880   42.0800 C   0  0  0  0  0  0  0  0  0  0  0  0
   37.1600   24.2170   43.1160 H   0  0  0  0  0  0  0  0  0  0  0  0
   36.4590   24.1620   41.0590 C   0  0  0  0  0  3  0  0  0  0  0  0
   36.7710   24.5790   39.7810 C   0  0  0  0  0  3  0  0  0  0  0  0
   38.3970   25.5100   40.0440 S   0  0  0  0  0  0  0  0  0  0  0  0
   38.2910   28.1210   43.3180 S   0  0  0  0  0  0  0  0  0  0  0  0
   37.2830   29.0090   42.1260 C   0  0  0  0  0  0  0  0  0  0  0  0
   36.2350   28.2680   41.5620 C   0  0  0  0  0  0  0  0  0  0  0  0
   35.4080   28.9080   40.6180 C   0  0  0  0  0  0  0  0  0  0  0  0
   35.6790   30.2010   40.3170 N   0  0  0  0  0  0  0  0  0  0  0  0
   36.6930   30.8840   40.8770 C   0  0  0  0  0  0  0  0  0  0  0  0
   37.4960   30.3010   41.7760 N   0  0  0  0  0  0  0  0  0  0  0  0
   36.0360   27.2360   41.8160 H   0  0  0  0  0  0  0  0  0  0  0  0
   34.5860   28.4000   40.1460 H   0  0  0  0  0  0  0  0  0  0  0  0
   36.9530   31.9020   40.6780 H   0  0  0  0  0  0  0  0  0  0  0  0
  1  4  1  0  0  0  0
  1  2  1  0  0  0  0
  1 13  1  0  0  0  0
  3  1  1  0  0  0  0
  4  5  1  0  0  0  0
  6  4  1  0  0  0  0
  7  8  2  0  0  0  0
  7  4  1  0  0  0  0
  8  9  1  0  0  0  0
 10  8  1  0  0  0  0
 11 12  1  0  0  0  0
 11 10  2  0  0  0  0
 12  7  1  0  0  0  0
 14 13  1  0  0  0  0
 15 20  1  0  0  0  0
 15 14  2  0  0  0  0
 16 15  1  0  0  0  0
 17 16  2  0  0  0  0
 17 18  1  0  0  0  0
 18 19  2  0  0  0  0
 19 14  1  0  0  0  0
 21 16  1  0  0  0  0
 22 18  1  0  0  0  0
M  END
>  <minimizedAffinity>
-3.69628644

$$$$
