
 OpenBabel03252500003D

 18 19  0  0  0  0  0  0  0  0999 V2000
   36.1260   28.4030   39.3790 C   0  0  0  0  0  0  0  0  0  0  0  0
   36.6010   29.7350   39.2870 C   0  0  0  0  0  0  0  0  0  0  0  0
   37.1950   30.2460   40.4280 C   0  0  0  0  0  0  0  0  0  0  0  0
   37.3040   29.5000   41.5500 N   0  0  0  0  0  0  0  0  0  0  0  0
   36.8350   28.2290   41.5910 C   0  0  0  0  0  0  0  0  0  0  0  0
   36.2530   27.7020   40.5030 N   0  0  0  0  0  0  0  0  0  0  0  0
   35.6500   27.9530   38.5110 H   0  0  0  0  0  0  0  0  0  0  0  0
   36.4720   30.2570   38.3500 H   0  0  0  0  0  0  0  0  0  0  0  0
   37.6970   31.5940   40.3900 C   0  0  0  0  0  0  0  0  0  0  0  0
   37.2010   32.7350   39.8190 C   0  0  0  0  0  0  0  0  0  0  0  0
   36.2630   32.6510   39.2920 H   0  0  0  0  0  0  0  0  0  0  0  0
   37.9160   33.9010   39.9520 C   0  0  0  0  0  3  0  0  0  0  0  0
   39.1060   33.8440   40.6620 C   0  0  0  0  0  3  0  0  0  0  0  0
   39.2000   32.0480   41.1570 S   0  0  0  0  0  0  0  0  0  0  0  0
   37.0380   27.5590   42.8990 C   0  0  0  0  0  0  0  0  0  0  0  0
   35.8620   27.3910   43.5820 F   0  0  0  0  0  0  0  0  0  0  0  0
   37.9160   28.2940   43.6790 F   0  0  0  0  0  0  0  0  0  0  0  0
   37.6840   26.3320   42.6900 F   0  0  0  0  0  0  0  0  0  0  0  0
  1  6  1  0  0  0  0
  2  1  2  0  0  0  0
  2  3  1  0  0  0  0
  3  4  2  0  0  0  0
  4  5  1  0  0  0  0
  5 15  1  0  0  0  0
  6  5  2  0  0  0  0
  7  1  1  0  0  0  0
  8  2  1  0  0  0  0
  9  3  1  0  0  0  0
  9 14  1  0  0  0  0
 10 12  1  0  0  0  0
 10  9  2  0  0  0  0
 11 10  1  0  0  0  0
 12 13  2  0  0  0  0
 13 14  1  0  0  0  0
 15 16  1  0  0  0  0
 15 17  1  0  0  0  0
 18 15  1  0  0  0  0
M  END
>  <minimizedAffinity>
-4.58530235

$$$$

 OpenBabel03252500003D

 18 19  0  0  0  0  0  0  0  0999 V2000
   40.2740   28.7010   42.8840 C   0  0  0  0  0  0  0  0  0  0  0  0
   40.0660   29.9380   42.2270 C   0  0  0  0  0  0  0  0  0  0  0  0
   38.7950   30.1510   41.7230 C   0  0  0  0  0  0  0  0  0  0  0  0
   37.8260   29.2190   41.8630 N   0  0  0  0  0  0  0  0  0  0  0  0
   38.0710   28.0480   42.5000 C   0  0  0  0  0  0  0  0  0  0  0  0
   39.2930   27.8090   43.0000 N   0  0  0  0  0  0  0  0  0  0  0  0
   41.2560   28.4820   43.2990 H   0  0  0  0  0  0  0  0  0  0  0  0
   40.8970   30.6240   42.1620 H   0  0  0  0  0  0  0  0  0  0  0  0
   38.5280   31.3920   41.0460 C   0  0  0  0  0  0  0  0  0  0  0  0
   37.3960   31.8820   40.4540 C   0  0  0  0  0  0  0  0  0  0  0  0
   36.5190   31.2530   40.4780 H   0  0  0  0  0  0  0  0  0  0  0  0
   37.4420   33.1270   39.8750 C   0  0  0  0  0  3  0  0  0  0  0  0
   38.6470   33.8120   39.9270 C   0  0  0  0  0  3  0  0  0  0  0  0
   39.7530   32.6230   40.8450 S   0  0  0  0  0  0  0  0  0  0  0  0
   36.8960   27.1440   42.5610 C   0  0  0  0  0  0  0  0  0  0  0  0
   36.0620   27.4510   43.6040 F   0  0  0  0  0  0  0  0  0  0  0  0
   37.3130   25.8280   42.6850 F   0  0  0  0  0  0  0  0  0  0  0  0
   36.2170   27.1900   41.3360 F   0  0  0  0  0  0  0  0  0  0  0  0
  1  6  1  0  0  0  0
  1  7  1  0  0  0  0
  2  1  2  0  0  0  0
  3  4  2  0  0  0  0
  3  2  1  0  0  0  0
  4  5  1  0  0  0  0
  5 15  1  0  0  0  0
  5  6  2  0  0  0  0
  8  2  1  0  0  0  0
  9  3  1  0  0  0  0
 10 11  1  0  0  0  0
 10  9  2  0  0  0  0
 12 13  2  0  0  0  0
 12 10  1  0  0  0  0
 13 14  1  0  0  0  0
 14  9  1  0  0  0  0
 15 17  1  0  0  0  0
 15 16  1  0  0  0  0
 18 15  1  0  0  0  0
M  END
>  <minimizedAffinity>
-4.46882391

$$$$

 OpenBabel03252500003D

 18 19  0  0  0  0  0  0  0  0999 V2000
   38.1170   28.3440   43.4330 C   0  0  0  0  0  0  0  0  0  0  0  0
   38.2290   27.0040   42.9890 C   0  0  0  0  0  0  0  0  0  0  0  0
   37.5640   26.6970   41.8140 C   0  0  0  0  0  0  0  0  0  0  0  0
   36.8570   27.6370   41.1490 N   0  0  0  0  0  0  0  0  0  0  0  0
   36.7780   28.9090   41.6120 C   0  0  0  0  0  0  0  0  0  0  0  0
   37.4110   29.2400   42.7480 N   0  0  0  0  0  0  0  0  0  0  0  0
   38.6200   28.6390   44.3510 H   0  0  0  0  0  0  0  0  0  0  0  0
   38.8150   26.3190   43.5830 H   0  0  0  0  0  0  0  0  0  0  0  0
   37.6450   25.3500   41.3170 C   0  0  0  0  0  0  0  0  0  0  0  0
   36.6840   24.4880   40.8580 C   0  0  0  0  0  0  0  0  0  0  0  0
   35.6660   24.8490   40.8510 H   0  0  0  0  0  0  0  0  0  0  0  0
   37.0680   23.2370   40.4390 C   0  0  0  0  0  3  0  0  0  0  0  0
   38.4180   22.9260   40.5110 C   0  0  0  0  0  3  0  0  0  0  0  0
   39.1620   24.4890   41.2050 S   0  0  0  0  0  0  0  0  0  0  0  0
   35.9630   29.8070   40.7570 C   0  0  0  0  0  0  0  0  0  0  0  0
   35.8490   31.0640   41.2910 F   0  0  0  0  0  0  0  0  0  0  0  0
   34.6980   29.2730   40.5760 F   0  0  0  0  0  0  0  0  0  0  0  0
   36.5220   29.8490   39.4720 F   0  0  0  0  0  0  0  0  0  0  0  0
  1  7  1  0  0  0  0
  2  1  1  0  0  0  0
  2  8  1  0  0  0  0
  3  2  2  0  0  0  0
  4  5  2  0  0  0  0
  4  3  1  0  0  0  0
  5  6  1  0  0  0  0
  6  1  2  0  0  0  0
  9  3  1  0  0  0  0
 10  9  2  0  0  0  0
 11 10  1  0  0  0  0
 12 13  2  0  0  0  0
 12 10  1  0  0  0  0
 13 14  1  0  0  0  0
 14  9  1  0  0  0  0
 15 16  1  0  0  0  0
 15  5  1  0  0  0  0
 17 15  1  0  0  0  0
 18 15  1  0  0  0  0
M  END
>  <minimizedAffinity>
-4.40839052

$$$$

 OpenBabel03252500003D

 18 19  0  0  0  0  0  0  0  0999 V2000
   37.6250   28.4990   43.5650 C   0  0  0  0  0  0  0  0  0  0  0  0
   37.6390   29.4750   42.5380 C   0  0  0  0  0  0  0  0  0  0  0  0
   37.5080   28.9970   41.2460 C   0  0  0  0  0  0  0  0  0  0  0  0
   37.3750   27.6740   41.0040 N   0  0  0  0  0  0  0  0  0  0  0  0
   37.3670   26.7760   42.0190 C   0  0  0  0  0  0  0  0  0  0  0  0
   37.4920   27.2050   43.2840 N   0  0  0  0  0  0  0  0  0  0  0  0
   37.7250   28.8210   44.5990 H   0  0  0  0  0  0  0  0  0  0  0  0
   37.7490   30.5110   42.8230 H   0  0  0  0  0  0  0  0  0  0  0  0
   37.5150   29.9450   40.1640 C   0  0  0  0  0  0  0  0  0  0  0  0
   36.8660   31.1380   39.9920 C   0  0  0  0  0  0  0  0  0  0  0  0
   36.2200   31.4630   40.7940 H   0  0  0  0  0  0  0  0  0  0  0  0
   37.0720   31.8380   38.8290 C   0  0  0  0  0  3  0  0  0  0  0  0
   37.9330   31.2840   37.8940 C   0  0  0  0  0  3  0  0  0  0  0  0
   38.4660   29.6980   38.7180 S   0  0  0  0  0  0  0  0  0  0  0  0
   37.2120   25.3700   41.5720 C   0  0  0  0  0  0  0  0  0  0  0  0
   38.4170   24.7820   41.2900 F   0  0  0  0  0  0  0  0  0  0  0  0
   36.4050   25.3130   40.4480 F   0  0  0  0  0  0  0  0  0  0  0  0
   36.5140   24.6510   42.5530 F   0  0  0  0  0  0  0  0  0  0  0  0
  1  7  1  0  0  0  0
  2  8  1  0  0  0  0
  2  1  2  0  0  0  0
  3  2  1  0  0  0  0
  4  3  2  0  0  0  0
  4  5  1  0  0  0  0
  5  6  2  0  0  0  0
  6  1  1  0  0  0  0
  9  3  1  0  0  0  0
 10  9  2  0  0  0  0
 10 11  1  0  0  0  0
 12 10  1  0  0  0  0
 13 14  1  0  0  0  0
 13 12  2  0  0  0  0
 14  9  1  0  0  0  0
 15  5  1  0  0  0  0
 15 18  1  0  0  0  0
 16 15  1  0  0  0  0
 17 15  1  0  0  0  0
M  END
>  <minimizedAffinity>
-4.29410505

$$$$

 OpenBabel03252500003D

 18 19  0  0  0  0  0  0  0  0999 V2000
   36.8190   26.4160   38.8290 C   0  0  0  0  0  0  0  0  0  0  0  0
   36.9090   27.8000   38.5420 C   0  0  0  0  0  0  0  0  0  0  0  0
   37.0150   28.6400   39.6370 C   0  0  0  0  0  0  0  0  0  0  0  0
   37.0310   28.1450   40.8940 N   0  0  0  0  0  0  0  0  0  0  0  0
   36.9430   26.8120   41.1210 C   0  0  0  0  0  0  0  0  0  0  0  0
   36.8380   25.9690   40.0820 N   0  0  0  0  0  0  0  0  0  0  0  0
   36.7330   25.7110   38.0040 H   0  0  0  0  0  0  0  0  0  0  0  0
   36.8890   28.1060   37.5070 H   0  0  0  0  0  0  0  0  0  0  0  0
   37.1100   30.0560   39.4030 C   0  0  0  0  0  0  0  0  0  0  0  0
   37.3620   30.7780   38.2670 C   0  0  0  0  0  0  0  0  0  0  0  0
   37.5250   30.2190   37.3580 H   0  0  0  0  0  0  0  0  0  0  0  0
   37.3920   32.1490   38.3520 C   0  0  0  0  0  3  0  0  0  0  0  0
   37.1640   32.7170   39.5960 C   0  0  0  0  0  3  0  0  0  0  0  0
   36.8950   31.2260   40.6840 S   0  0  0  0  0  0  0  0  0  0  0  0
   36.9760   26.4460   42.5580 C   0  0  0  0  0  0  0  0  0  0  0  0
   36.2180   27.2920   43.3250 F   0  0  0  0  0  0  0  0  0  0  0  0
   38.2810   26.4580   43.0230 F   0  0  0  0  0  0  0  0  0  0  0  0
   36.5560   25.1160   42.7030 F   0  0  0  0  0  0  0  0  0  0  0  0
  1  6  1  0  0  0  0
  2  1  2  0  0  0  0
  2  3  1  0  0  0  0
  3  4  2  0  0  0  0
  4  5  1  0  0  0  0
  5 15  1  0  0  0  0
  6  5  2  0  0  0  0
  7  1  1  0  0  0  0
  8  2  1  0  0  0  0
  9  3  1  0  0  0  0
  9 14  1  0  0  0  0
 10 12  1  0  0  0  0
 10  9  2  0  0  0  0
 11 10  1  0  0  0  0
 12 13  2  0  0  0  0
 13 14  1  0  0  0  0
 15 18  1  0  0  0  0
 15 17  1  0  0  0  0
 15 16  1  0  0  0  0
M  END
>  <minimizedAffinity>
-4.23940086

$$$$

 OpenBabel03252500003D

 18 19  0  0  0  0  0  0  0  0999 V2000
   40.0240   29.7970   42.5040 C   0  0  0  0  0  0  0  0  0  0  0  0
   39.7190   28.4140   42.4780 C   0  0  0  0  0  0  0  0  0  0  0  0
   38.5240   28.0680   41.8710 C   0  0  0  0  0  0  0  0  0  0  0  0
   37.7140   29.0120   41.3410 N   0  0  0  0  0  0  0  0  0  0  0  0
   38.0480   30.3250   41.3890 C   0  0  0  0  0  0  0  0  0  0  0  0
   39.1990   30.6950   41.9710 N   0  0  0  0  0  0  0  0  0  0  0  0
   40.9510   30.1230   42.9690 H   0  0  0  0  0  0  0  0  0  0  0  0
   40.4240   27.7290   42.9250 H   0  0  0  0  0  0  0  0  0  0  0  0
   38.1640   26.6760   41.8160 C   0  0  0  0  0  0  0  0  0  0  0  0
   37.0970   25.9900   42.3320 C   0  0  0  0  0  0  0  0  0  0  0  0
   36.3690   26.5610   42.8880 H   0  0  0  0  0  0  0  0  0  0  0  0
   37.0190   24.6350   42.1120 C   0  0  0  0  0  3  0  0  0  0  0  0
   38.0370   24.0470   41.3770 C   0  0  0  0  0  3  0  0  0  0  0  0
   39.1460   25.4940   40.9850 S   0  0  0  0  0  0  0  0  0  0  0  0
   37.0450   31.2200   40.7610 C   0  0  0  0  0  0  0  0  0  0  0  0
   35.8340   31.1680   41.3990 F   0  0  0  0  0  0  0  0  0  0  0  0
   36.8720   30.8800   39.4290 F   0  0  0  0  0  0  0  0  0  0  0  0
   37.5500   32.5270   40.7340 F   0  0  0  0  0  0  0  0  0  0  0  0
  1  7  1  0  0  0  0
  2  1  1  0  0  0  0
  2  8  1  0  0  0  0
  3  2  2  0  0  0  0
  4  5  2  0  0  0  0
  4  3  1  0  0  0  0
  5  6  1  0  0  0  0
  6  1  2  0  0  0  0
  9  3  1  0  0  0  0
  9 10  2  0  0  0  0
 10 11  1  0  0  0  0
 12 10  1  0  0  0  0
 13 12  2  0  0  0  0
 14 13  1  0  0  0  0
 14  9  1  0  0  0  0
 15  5  1  0  0  0  0
 15 16  1  0  0  0  0
 17 15  1  0  0  0  0
 18 15  1  0  0  0  0
M  END
>  <minimizedAffinity>
-4.20981073

$$$$

 OpenBabel03252500003D

 18 19  0  0  0  0  0  0  0  0999 V2000
   38.9490   30.2440   38.2360 C   0  0  0  0  0  0  0  0  0  0  0  0
   38.5410   29.3590   39.2640 C   0  0  0  0  0  0  0  0  0  0  0  0
   38.2140   29.9460   40.4740 C   0  0  0  0  0  0  0  0  0  0  0  0
   38.2870   31.2850   40.6400 N   0  0  0  0  0  0  0  0  0  0  0  0
   38.6830   32.0940   39.6270 C   0  0  0  0  0  0  0  0  0  0  0  0
   39.0080   31.5580   38.4410 N   0  0  0  0  0  0  0  0  0  0  0  0
   39.2180   29.8350   37.2640 H   0  0  0  0  0  0  0  0  0  0  0  0
   38.5120   28.3020   39.0430 H   0  0  0  0  0  0  0  0  0  0  0  0
   37.7930   29.0930   41.5540 C   0  0  0  0  0  0  0  0  0  0  0  0
   38.1710   29.0320   42.8680 C   0  0  0  0  0  0  0  0  0  0  0  0
   38.9220   29.7360   43.1950 H   0  0  0  0  0  0  0  0  0  0  0  0
   37.5810   28.0930   43.6790 C   0  0  0  0  0  3  0  0  0  0  0  0
   36.6330   27.2590   43.1070 C   0  0  0  0  0  3  0  0  0  0  0  0
   36.5860   27.8480   41.3380 S   0  0  0  0  0  0  0  0  0  0  0  0
   38.7050   33.5330   39.9850 C   0  0  0  0  0  0  0  0  0  0  0  0
   38.8060   33.7290   41.3370 F   0  0  0  0  0  0  0  0  0  0  0  0
   37.5580   34.1570   39.5200 F   0  0  0  0  0  0  0  0  0  0  0  0
   39.7560   34.1600   39.3010 F   0  0  0  0  0  0  0  0  0  0  0  0
  1  6  2  0  0  0  0
  1  2  1  0  0  0  0
  2  3  2  0  0  0  0
  3  4  1  0  0  0  0
  3  9  1  0  0  0  0
  5 15  1  0  0  0  0
  5  4  2  0  0  0  0
  6  5  1  0  0  0  0
  7  1  1  0  0  0  0
  8  2  1  0  0  0  0
  9 10  2  0  0  0  0
 10 11  1  0  0  0  0
 10 12  1  0  0  0  0
 13 12  2  0  0  0  0
 14  9  1  0  0  0  0
 14 13  1  0  0  0  0
 15 16  1  0  0  0  0
 17 15  1  0  0  0  0
 18 15  1  0  0  0  0
M  END
>  <minimizedAffinity>
-4.15566492

$$$$

 OpenBabel03252500003D

 18 19  0  0  0  0  0  0  0  0999 V2000
   40.5410   26.1160   43.6800 C   0  0  0  0  0  0  0  0  0  0  0  0
   41.0520   27.3900   43.3310 C   0  0  0  0  0  0  0  0  0  0  0  0
   40.1480   28.2710   42.7630 C   0  0  0  0  0  0  0  0  0  0  0  0
   38.8600   27.9130   42.5630 N   0  0  0  0  0  0  0  0  0  0  0  0
   38.4150   26.6820   42.9130 C   0  0  0  0  0  0  0  0  0  0  0  0
   39.2650   25.8030   43.4660 N   0  0  0  0  0  0  0  0  0  0  0  0
   41.2090   25.3850   44.1290 H   0  0  0  0  0  0  0  0  0  0  0  0
   42.0950   27.5900   43.5270 H   0  0  0  0  0  0  0  0  0  0  0  0
   40.6130   29.5800   42.3900 C   0  0  0  0  0  0  0  0  0  0  0  0
   41.7450   30.2740   42.7230 C   0  0  0  0  0  0  0  0  0  0  0  0
   42.4430   29.7840   43.3850 H   0  0  0  0  0  0  0  0  0  0  0  0
   41.9220   31.5330   42.2020 C   0  0  0  0  0  3  0  0  0  0  0  0
   40.9310   32.0230   41.3650 C   0  0  0  0  0  3  0  0  0  0  0  0
   39.7000   30.6230   41.3250 S   0  0  0  0  0  0  0  0  0  0  0  0
   36.9770   26.4610   42.6230 C   0  0  0  0  0  0  0  0  0  0  0  0
   36.6670   25.1290   42.5290 F   0  0  0  0  0  0  0  0  0  0  0  0
   36.6260   27.0930   41.4420 F   0  0  0  0  0  0  0  0  0  0  0  0
   36.2070   27.0920   43.6110 F   0  0  0  0  0  0  0  0  0  0  0  0
  1  7  1  0  0  0  0
  2  8  1  0  0  0  0
  2  1  2  0  0  0  0
  3  2  1  0  0  0  0
  4  3  2  0  0  0  0
  4  5  1  0  0  0  0
  5  6  2  0  0  0  0
  6  1  1  0  0  0  0
  9 10  2  0  0  0  0
  9  3  1  0  0  0  0
 10 11  1  0  0  0  0
 12 10  1  0  0  0  0
 13 12  2  0  0  0  0
 14 13  1  0  0  0  0
 14  9  1  0  0  0  0
 15  5  1  0  0  0  0
 15 18  1  0  0  0  0
 16 15  1  0  0  0  0
 17 15  1  0  0  0  0
M  END
>  <minimizedAffinity>
-4.008389

$$$$

 OpenBabel03252500003D

 18 19  0  0  0  0  0  0  0  0999 V2000
   37.5790   31.5280   40.3290 C   0  0  0  0  0  0  0  0  0  0  0  0
   36.8740   31.1450   39.1610 C   0  0  0  0  0  0  0  0  0  0  0  0
   36.3470   29.8650   39.1650 C   0  0  0  0  0  0  0  0  0  0  0  0
   36.5070   29.0500   40.2310 N   0  0  0  0  0  0  0  0  0  0  0  0
   37.1890   29.4610   41.3280 C   0  0  0  0  0  0  0  0  0  0  0  0
   37.7140   30.6950   41.3580 N   0  0  0  0  0  0  0  0  0  0  0  0
   38.0140   32.5240   40.3780 H   0  0  0  0  0  0  0  0  0  0  0  0
   36.7960   31.8610   38.3570 H   0  0  0  0  0  0  0  0  0  0  0  0
   35.6210   29.4230   38.0040 C   0  0  0  0  0  0  0  0  0  0  0  0
   35.9600   29.3820   36.6780 C   0  0  0  0  0  0  0  0  0  0  0  0
   36.9440   29.7380   36.4130 H   0  0  0  0  0  0  0  0  0  0  0  0
   35.0410   28.8970   35.7790 C   0  0  0  0  0  3  0  0  0  0  0  0
   33.8170   28.4780   36.2800 C   0  0  0  0  0  3  0  0  0  0  0  0
   33.9950   28.7910   38.1100 S   0  0  0  0  0  0  0  0  0  0  0  0
   37.2660   28.4390   42.4020 C   0  0  0  0  0  0  0  0  0  0  0  0
   38.2380   27.5050   42.1570 F   0  0  0  0  0  0  0  0  0  0  0  0
   36.0450   27.7990   42.5390 F   0  0  0  0  0  0  0  0  0  0  0  0
   37.4740   29.0810   43.6310 F   0  0  0  0  0  0  0  0  0  0  0  0
  1  7  1  0  0  0  0
  1  6  1  0  0  0  0
  2  3  1  0  0  0  0
  2  1  2  0  0  0  0
  3  4  2  0  0  0  0
  4  5  1  0  0  0  0
  5  6  2  0  0  0  0
  5 15  1  0  0  0  0
  8  2  1  0  0  0  0
  9 14  1  0  0  0  0
  9  3  1  0  0  0  0
 10  9  2  0  0  0  0
 11 10  1  0  0  0  0
 12 13  2  0  0  0  0
 12 10  1  0  0  0  0
 13 14  1  0  0  0  0
 15 17  1  0  0  0  0
 15 18  1  0  0  0  0
 16 15  1  0  0  0  0
M  END
>  <minimizedAffinity>
-3.90446043

$$$$
