
 OpenBabel03252509233D

 24 26  0  0  1  0  0  0  0  0999 V2000
   46.4830   34.7500   41.9870 C   0  0  1  0  0  0  0  0  0  0  0  0
   47.9420   35.2780   41.9600 C   0  0  0  0  0  0  0  0  0  0  0  0
   47.4990   33.8180   41.6470 C   0  0  2  0  0  0  0  0  0  0  0  0
   45.8190   35.2680   41.2720 H   0  0  0  0  0  0  0  0  0  0  0  0
   48.1680   35.8960   41.0760 H   0  0  0  0  0  0  0  0  0  0  0  0
   48.4570   35.4840   42.8920 H   0  0  0  0  0  0  0  0  0  0  0  0
   47.8580   33.1190   42.4390 H   0  0  0  0  0  0  0  0  0  0  0  0
   44.5380   35.5880   45.0810 C   0  0  0  0  0  0  0  0  0  0  0  0
   45.0340   35.7090   43.7410 C   0  0  0  0  0  0  0  0  0  0  0  0
   45.9530   34.7480   43.4080 C   0  0  0  0  0  0  0  0  0  0  0  0
   46.3480   33.7670   44.3010 N   0  0  0  0  0  0  0  0  0  0  0  0
   45.8460   33.7090   45.5400 C   0  0  0  0  0  0  0  0  0  0  0  0
   44.9290   34.6320   45.9340 N   0  0  0  0  0  0  0  0  0  0  0  0
   43.8180   36.3080   45.4000 H   0  0  0  0  0  0  0  0  0  0  0  0
   46.2880   32.8730   46.0630 H   0  0  0  0  0  0  0  0  0  0  0  0
   44.6250   36.7340   42.8530 N   0  0  0  0  0  0  0  0  0  0  0  0
   45.1290   37.6080   43.1610 H   0  0  0  0  0  0  0  0  0  0  0  0
   43.9600   36.6740   42.0470 H   0  0  0  0  0  0  0  0  0  0  0  0
   47.6190   33.3600   40.2680 C   0  0  0  0  0  0  0  0  0  0  0  0
   48.6490   32.9760   39.4820 C   0  0  0  0  0  0  0  0  0  0  0  0
   49.6250   32.9970   39.9420 H   0  0  0  0  0  0  0  0  0  0  0  0
   48.4100   32.5900   38.1850 C   0  0  0  0  0  3  0  0  0  0  0  0
   47.0670   32.6250   37.7540 C   0  0  0  0  0  3  0  0  0  0  0  0
   46.1560   33.2150   39.2270 S   0  0  0  0  0  0  0  0  0  0  0  0
  1  4  1  6  0  0  0
  1 10  1  0  0  0  0
  2  1  1  0  0  0  0
  2  6  1  0  0  0  0
  3  2  1  0  0  0  0
  3  1  1  0  0  0  0
  3  7  1  1  0  0  0
  5  2  1  0  0  0  0
  8 14  1  0  0  0  0
  8 13  1  0  0  0  0
  9  8  2  0  0  0  0
 10  9  1  0  0  0  0
 10 11  2  0  0  0  0
 11 12  1  0  0  0  0
 12 13  2  0  0  0  0
 12 15  1  0  0  0  0
 16 17  1  0  0  0  0
 16  9  1  0  0  0  0
 18 16  1  0  0  0  0
 19  3  1  0  0  0  0
 20 21  1  0  0  0  0
 20 19  2  0  0  0  0
 22 20  1  0  0  0  0
 23 22  2  0  0  0  0
 23 24  1  0  0  0  0
 24 19  1  0  0  0  0
M  END
>  <minimizedAffinity>
-4.49037266

>  <minimizedRMSD>
0.548515618

$$$$
