
     RDKit          3D

 46 49  0  0  0  0  0  0  0  0999 V2000
   43.2052   33.2348   41.1418 C   0  0  0  0  0  0  0  0  0  0  0  0
   44.2321   34.0817   41.7748 C   0  0  0  0  0  0  0  0  0  0  0  0
   43.8804   35.2595   42.3975 C   0  0  0  0  0  0  0  0  0  0  0  0
   44.8856   36.0241   42.9672 C   0  0  0  0  0  0  0  0  0  0  0  0
   46.1762   35.5702   42.8846 N   0  0  0  0  0  0  0  0  0  0  0  0
   46.4719   34.4268   42.2762 C   0  0  0  0  0  0  0  0  0  0  0  0
   45.4894   33.7056   41.7320 N   0  0  0  0  0  0  0  0  0  0  0  0
   47.8731   34.0050   42.2582 C   0  0  0  0  0  0  0  0  0  0  0  0
   48.1991   32.6767   42.0225 C   0  0  0  0  0  0  0  0  0  0  0  0
   49.5319   32.2906   42.0215 C   0  0  0  0  0  0  0  0  0  0  0  0
   50.4303   33.3128   42.2652 C   0  0  0  0  0  0  0  0  0  0  0  0
   50.1355   34.6424   42.5024 C   0  0  0  0  0  0  0  0  0  0  0  0
   48.8133   34.9348   42.4863 N   0  0  0  0  0  0  0  0  0  0  0  0
   41.9053   33.9501   41.2099 C   0  0  0  0  0  0  0  0  0  0  0  0
   41.0017   33.5091   40.3252 N   0  0  0  0  0  0  0  0  0  0  0  0
   40.3279   32.2472   40.3393 C   0  0  0  0  0  0  0  0  0  0  0  0
   38.9535   32.7231   40.8121 C   0  0  0  0  0  0  0  0  0  0  0  0
   38.3290   33.6849   39.9201 C   0  0  0  0  0  0  0  0  0  0  0  0
   39.1674   34.4960   39.0651 C   0  0  0  0  0  0  0  0  0  0  0  0
   40.6630   34.4611   39.2480 C   0  0  0  0  0  0  0  0  0  0  0  0
   41.7703   35.4227   38.3454 S   0  0  0  0  0  0  0  0  0  0  0  0
   43.4817   32.9031   40.1207 H   0  0  0  0  0  0  0  0  0  0  0  0
   43.1099   32.3045   41.7377 H   0  0  0  0  0  0  0  0  0  0  0  0
   42.9503   35.7676   42.5797 H   0  0  0  0  0  0  0  0  0  0  0  0
   44.8054   36.9709   43.4931 H   0  0  0  0  0  0  0  0  0  0  0  0
   47.4455   31.9221   41.8373 H   0  0  0  0  0  0  0  0  0  0  0  0
   49.8800   31.2827   41.8484 H   0  0  0  0  0  0  0  0  0  0  0  0
   51.4866   33.0489   42.2726 H   0  0  0  0  0  0  0  0  0  0  0  0
   50.8965   35.3629   42.6808 H   0  0  0  0  0  0  0  0  0  0  0  0
   41.5442   33.9203   42.2604 H   0  0  0  0  0  0  0  0  0  0  0  0
   42.1829   35.0492   41.0605 H   0  0  0  0  0  0  0  0  0  0  0  0
   40.7661   31.6225   41.1516 H   0  0  0  0  0  0  0  0  0  0  0  0
   40.2596   31.6806   39.4268 H   0  0  0  0  0  0  0  0  0  0  0  0
   39.1457   33.2040   41.8051 H   0  0  0  0  0  0  0  0  0  0  0  0
   38.3392   31.8261   41.0231 H   0  0  0  0  0  0  0  0  0  0  0  0
   37.5982   33.1458   39.2532 H   0  0  0  0  0  0  0  0  0  0  0  0
   37.6675   34.3762   40.5178 H   0  0  0  0  0  0  0  0  0  0  0  0
   38.8272   35.1445   38.3159 H   0  0  0  0  0  0  0  0  0  0  0  0
   41.1670   36.4995   37.2177 C   0  0  0  0  0  0  0  0  0  0  0  0
   40.2046   37.2605   36.6039 C   0  0  0  0  0  0  0  0  0  0  0  0
   39.2909   37.1034   37.1185 H   0  0  0  0  0  0  0  0  0  0  0  0
   40.4351   38.0567   35.5338 C   0  0  0  0  0  0  0  0  0  0  0  0
   41.8205   38.0810   35.0249 C   0  0  0  0  0  0  0  0  0  0  0  0
   42.6485   36.8786   36.2342 S   0  0  0  0  0  0  0  0  0  0  0  0
   39.6322   38.6287   35.0999 H   0  0  0  0  0  0  0  0  0  0  0  0
   42.0045   38.7414   34.1400 H   0  0  0  0  0  0  0  0  0  0  0  0
  1 14  1  0
  1  2  1  0
  2  3  2  0
  3  4  1  0
  5  4  2  0
  6  5  1  0
  7  2  1  0
  7  6  2  0
  8  6  1  0
  8 13  1  0
  9  8  2  0
 10  9  1  0
 10 11  2  0
 11 12  1  0
 13 12  2  0
 15 14  1  0
 16 15  1  0
 16 17  1  0
 18 17  1  0
 19 20  2  0
 19 18  1  0
 20 15  1  0
 21 20  1  0
  1 22  1  0
  1 23  1  0
  3 24  1  0
  4 25  1  0
  9 26  1  0
 10 27  1  0
 11 28  1  0
 12 29  1  0
 14 30  1  0
 14 31  1  0
 16 32  1  0
 16 33  1  0
 17 34  1  0
 17 35  1  0
 18 36  1  0
 18 37  1  0
 19 38  1  0
 39 40  2  0
 40 41  1  0
 40 42  1  0
 42 43  2  0
 43 44  1  0
 44 39  1  0
 42 45  1  0
 43 46  1  0
 21 39  1  0
M  ISO  8  22   8  23   8  24  14  25  14  26  14  27  14  28  14  29  14
M  ISO  8  30   8  31   8  32  13  33  13  34  13  35  13  36  13  37  13
M  ISO  2  38  13  41  15
M  END
>  <DihAtoms>  (1) 
19,20,38,39

>  <DihDeg>  (1) 
0.7453445374957366

$$$$
