
 OpenBabel03242510573D

 33 35  0  0  0  0  0  0  0  0999 V2000
   45.6400   31.5730   47.1050 C   0  0  0  0  0  0  0  0  0  0  0  0
   45.4970   32.0450   48.4290 C   0  0  0  0  0  0  0  0  0  0  0  0
   45.2730   31.2180   49.5120 C   0  0  0  0  0  0  0  0  0  0  0  0
   45.1870   29.8670   49.2680 C   0  0  0  0  0  0  0  0  0  0  0  0
   45.3280   29.4000   47.9620 C   0  0  0  0  0  0  0  0  0  0  0  0
   45.5430   30.2520   46.9610 N   0  0  0  0  0  0  0  0  0  0  0  0
   45.5700   33.1180   48.5870 H   0  0  0  0  0  0  0  0  0  0  0  0
   45.1730   31.6520   50.4940 H   0  0  0  0  0  0  0  0  0  0  0  0
   45.0110   29.2190   50.1190 H   0  0  0  0  0  0  0  0  0  0  0  0
   44.7830   36.5820   43.8520 C   0  0  0  0  0  0  0  0  0  0  0  0
   45.6860   36.2880   42.8110 C   0  0  0  0  0  0  0  0  0  0  0  0
   46.3360   35.0380   42.8390 C   0  0  0  0  0  0  0  0  0  0  0  0
   46.0670   34.1760   43.8600 N   0  0  0  0  0  0  0  0  0  0  0  0
   45.1940   34.5060   44.8330 C   0  0  0  0  0  0  0  0  0  0  0  0
   44.5470   35.7120   44.8330 N   0  0  0  0  0  0  0  0  0  0  0  0
   45.8740   32.5220   46.0350 C   0  0  0  0  0  0  0  0  0  0  0  0
   46.8900   32.3490   45.2970 O   0  0  0  0  0  0  0  0  0  0  0  0
   44.9230   33.5920   45.8990 N   0  0  0  0  0  0  0  0  0  0  0  0
   44.3090   37.5540   43.7840 H   0  0  0  0  0  0  0  0  0  0  0  0
   45.8730   36.9990   42.0180 H   0  0  0  0  0  0  0  0  0  0  0  0
   47.0370   34.7670   42.0610 H   0  0  0  0  0  0  0  0  0  0  0  0
   44.0940   33.7310   46.5020 H   0  0  0  0  0  0  0  0  0  0  0  0
   45.2390   27.9740   47.7140 C   0  0  0  0  0  0  0  0  0  0  0  0
   44.5780   27.1980   48.5480 C   0  0  0  0  0  0  0  0  0  0  0  0
   44.4020   25.7240   48.4310 C   0  0  0  0  0  0  0  0  0  0  0  0
   45.3480   25.2420   48.1890 H   0  0  0  0  0  0  0  0  0  0  0  0
   43.9770   25.3420   49.3910 H   0  0  0  0  0  0  0  0  0  0  0  0
   43.3930   25.3710   47.3830 C   0  0  0  0  0  0  0  0  0  0  0  0
   42.1160   25.8460   47.2090 C   0  0  0  0  0  0  0  0  0  0  0  0
   41.7480   26.5800   47.9080 H   0  0  0  0  0  0  0  0  0  0  0  0
   41.3540   25.3900   46.1740 C   0  0  0  0  0  0  0  0  0  0  0  0
   41.9410   24.4080   45.2940 C   0  0  0  0  0  0  0  0  0  0  0  0
   43.6710   24.1700   46.0390 S   0  0  0  0  0  0  0  0  0  0  0  0
  1  2  1  0  0  0  0
  2  7  1  0  0  0  0
  2  3  2  0  0  0  0
  3  8  1  0  0  0  0
  4  3  1  0  0  0  0
  4  9  1  0  0  0  0
  5  4  2  0  0  0  0
  6  1  2  0  0  0  0
  6  5  1  0  0  0  0
 10 15  1  0  0  0  0
 11 12  1  0  0  0  0
 11 10  2  0  0  0  0
 12 13  2  0  0  0  0
 13 14  1  0  0  0  0
 14 18  1  0  0  0  0
 15 14  2  0  0  0  0
 16  1  1  0  0  0  0
 17 16  2  0  0  0  0
 18 16  1  0  0  0  0
 18 22  1  0  0  0  0
 19 10  1  0  0  0  0
 20 11  1  0  0  0  0
 21 12  1  0  0  0  0
 23  5  1  0  0  0  0
 23 24  2  0  0  0  0
 25 24  1  0  0  0  0
 25 27  1  0  0  0  0
 26 25  1  0  0  0  0
 28 25  1  0  0  0  0
 29 28  2  0  0  0  0
 29 30  1  0  0  0  0
 31 29  1  0  0  0  0
 32 33  1  0  0  0  0
 32 31  2  0  0  0  0
 33 28  1  0  0  0  0
M  END
>  <minimizedAffinity>
-5.68999147

>  <minimizedRMSD>
1.70086062

$$$$
