
 OpenBabel03252508463D

 42 44  0  0  0  0  0  0  0  0999 V2000
   43.0030   32.4610   41.6740 C   0  0  0  0  0  0  0  0  0  0  0  0
   42.0800   32.9130   41.2650 H   0  0  0  0  0  0  0  0  0  0  0  0
   43.5620   32.0430   40.7870 H   0  0  0  0  0  0  0  0  0  0  0  0
   43.6770   34.8610   41.9080 C   0  0  0  0  0  0  0  0  0  0  0  0
   43.8880   33.5310   42.2180 C   0  0  0  0  0  0  0  0  0  0  0  0
   44.9440   33.2060   43.0450 C   0  0  0  0  0  0  0  0  0  0  0  0
   45.7530   34.1950   43.5400 C   0  0  0  0  0  0  0  0  0  0  0  0
   45.5610   35.5270   43.2450 C   0  0  0  0  0  0  0  0  0  0  0  0
   44.4900   35.8020   42.4120 C   0  0  0  0  0  0  0  0  0  0  0  0
   45.1590   32.1830   43.3210 H   0  0  0  0  0  0  0  0  0  0  0  0
   46.5840   33.9460   44.1900 H   0  0  0  0  0  0  0  0  0  0  0  0
   46.1460   36.3460   43.5920 H   0  0  0  0  0  0  0  0  0  0  0  0
   44.2620   36.8210   42.1270 H   0  0  0  0  0  0  0  0  0  0  0  0
   40.2610   35.7630   40.5440 C   0  0  0  0  0  0  0  0  0  0  0  0
   41.2830   35.5190   41.4770 C   0  0  0  0  0  0  0  0  0  0  0  0
   42.5410   35.1390   41.0270 C   0  0  0  0  0  0  0  0  0  0  0  0
   42.7160   35.0220   39.6820 N   0  0  0  0  0  0  0  0  0  0  0  0
   41.7230   35.2590   38.7970 C   0  0  0  0  0  0  0  0  0  0  0  0
   40.4980   35.6300   39.2380 N   0  0  0  0  0  0  0  0  0  0  0  0
   39.3010   36.0540   40.9090 H   0  0  0  0  0  0  0  0  0  0  0  0
   41.1430   35.6140   42.5430 H   0  0  0  0  0  0  0  0  0  0  0  0
   42.0010   35.1280   37.7650 H   0  0  0  0  0  0  0  0  0  0  0  0
   42.6810   31.4160   42.5890 N   0  0  0  0  0  0  0  0  0  0  0  0
   43.0320   31.5440   43.5560 H   0  0  0  0  0  0  0  0  0  0  0  0
   41.0150   31.0590   42.6170 S   0  0  0  0  0  0  0  0  0  0  0  0
   40.1810   32.3090   42.4560 O   0  0  0  0  0  0  0  0  0  0  0  0
   39.8840   32.7870   43.2890 H   0  0  0  0  0  0  0  0  0  0  0  0
   40.6300   30.3620   43.8790 O   0  0  0  0  0  0  0  0  0  0  0  0
   39.7980   30.4870   44.3980 H   0  0  0  0  0  0  0  0  0  0  0  0
   40.6810   30.0480   41.3160 O   0  0  0  0  0  0  0  0  0  0  0  0
   39.9740   28.9550   41.7860 C   0  0  0  0  0  0  0  0  0  0  0  0
   39.0560   28.8790   41.1990 H   0  0  0  0  0  0  0  0  0  0  0  0
   39.7190   28.9830   42.8530 H   0  0  0  0  0  0  0  0  0  0  0  0
   40.7940   27.6880   41.5990 C   0  0  0  0  0  0  0  0  0  0  0  0
   41.7050   27.7000   42.2340 H   0  0  0  0  0  0  0  0  0  0  0  0
   41.0430   27.5810   40.5190 H   0  0  0  0  0  0  0  0  0  0  0  0
   39.9590   26.4820   41.9070 C   0  0  0  0  0  0  0  0  0  0  0  0
   38.6890   26.1460   41.3560 C   0  0  0  0  0  0  0  0  0  0  0  0
   38.2610   26.8190   40.6390 H   0  0  0  0  0  0  0  0  0  0  0  0
   38.1310   24.9890   41.7950 C   0  0  0  0  0  3  0  0  0  0  0  0
   38.7840   24.1680   42.7510 C   0  0  0  0  0  3  0  0  0  0  0  0
   40.3550   25.1150   43.0730 S   0  0  0  0  0  0  0  0  0  0  0  0
  1  5  1  0  0  0  0
  1 23  1  0  0  0  0
  2  1  1  0  0  0  0
  3  1  1  0  0  0  0
  4  5  2  0  0  0  0
  4  9  1  0  0  0  0
  5  6  1  0  0  0  0
  6 10  1  0  0  0  0
  6  7  2  0  0  0  0
  7 11  1  0  0  0  0
  8  7  1  0  0  0  0
  8 12  1  0  0  0  0
  9  8  2  0  0  0  0
 13  9  1  0  0  0  0
 14 20  1  0  0  0  0
 14 15  1  0  0  0  0
 15 21  1  0  0  0  0
 16 15  2  0  0  0  0
 16  4  1  0  0  0  0
 17 16  1  0  0  0  0
 18 19  1  0  0  0  0
 18 17  2  0  0  0  0
 19 14  2  0  0  0  0
 22 18  1  0  0  0  0
 23 25  1  0  0  0  0
 23 24  1  0  0  0  0
 25 28  1  0  0  0  0
 26 25  1  0  0  0  0
 26 27  1  0  0  0  0
 28 29  1  0  0  0  0
 30 31  1  0  0  0  0
 30 25  1  0  0  0  0
 31 33  1  0  0  0  0
 32 31  1  0  0  0  0
 34 31  1  0  0  0  0
 34 37  1  0  0  0  0
 34 35  1  0  0  0  0
 36 34  1  0  0  0  0
 37 42  1  0  0  0  0
 38 40  1  0  0  0  0
 38 37  2  0  0  0  0
 39 38  1  0  0  0  0
 40 41  2  0  0  0  0
 41 42  1  0  0  0  0
M  END
>  <minimizedAffinity>
-4.95516539

>  <minimizedRMSD>
0.262636304

$$$$
