
 OpenBabel03242513583D

 31 34  0  0  0  0  0  0  0  0999 V2000
   36.9120   28.8270   41.9470 C   0  0  0  0  0  0  0  0  0  0  0  0
   37.0980   28.1840   43.1430 C   0  0  0  0  0  0  0  0  0  0  0  0
   37.1630   26.8060   43.1790 C   0  0  0  0  0  0  0  0  0  0  0  0
   37.0460   26.0300   42.0450 C   0  0  0  0  0  0  0  0  0  0  0  0
   37.1220   24.6980   42.1890 N   0  0  0  0  0  0  0  0  0  0  0  0
   37.0100   23.9110   41.0880 C   0  0  0  0  0  0  0  0  0  0  0  0
   36.8230   24.5070   39.8700 C   0  0  0  0  0  0  0  0  0  0  0  0
   36.7430   25.8980   39.7290 C   0  0  0  0  0  0  0  0  0  0  0  0
   36.8590   26.6930   40.8600 C   0  0  0  0  0  0  0  0  0  0  0  0
   36.7890   28.0720   40.7740 C   0  0  0  0  0  0  0  0  0  0  0  0
   37.1840   28.8360   44.0010 H   0  0  0  0  0  0  0  0  0  0  0  0
   37.3110   26.3870   44.1580 H   0  0  0  0  0  0  0  0  0  0  0  0
   37.0730   22.8430   41.2070 H   0  0  0  0  0  0  0  0  0  0  0  0
   36.7260   23.9220   38.9560 H   0  0  0  0  0  0  0  0  0  0  0  0
   36.5970   26.3860   38.7850 H   0  0  0  0  0  0  0  0  0  0  0  0
   36.6400   28.5020   39.7960 H   0  0  0  0  0  0  0  0  0  0  0  0
   36.8210   30.2040   41.7200 O   0  0  0  0  0  0  0  0  0  0  0  0
   37.3360   31.6670   39.8090 C   0  0  0  0  0  0  0  0  0  0  0  0
   37.6890   30.9250   40.9500 C   0  0  0  0  0  0  0  0  0  0  0  0
   39.0560   30.9350   41.3160 C   0  0  0  0  0  0  0  0  0  0  0  0
   39.9210   31.6480   40.5560 N   0  0  0  0  0  0  0  0  0  0  0  0
   39.5440   32.3460   39.4700 C   0  0  0  0  0  0  0  0  0  0  0  0
   38.2320   32.3430   39.1100 N   0  0  0  0  0  0  0  0  0  0  0  0
   36.2790   31.6010   39.6080 H   0  0  0  0  0  0  0  0  0  0  0  0
   39.3440   30.3690   42.1910 H   0  0  0  0  0  0  0  0  0  0  0  0
   40.5920   33.0270   38.8060 C   0  0  0  0  0  0  0  0  0  0  0  0
   41.3130   32.6850   37.6880 C   0  0  0  0  0  0  0  0  0  0  0  0
   41.0830   31.7520   37.1930 H   0  0  0  0  0  0  0  0  0  0  0  0
   42.2990   33.5170   37.2200 C   0  0  0  0  0  3  0  0  0  0  0  0
   42.4980   34.7240   37.9740 C   0  0  0  0  0  3  0  0  0  0  0  0
   41.2670   34.6210   39.3240 S   0  0  0  0  0  0  0  0  0  0  0  0
  1  2  1  0  0  0  0
  2  3  2  0  0  0  0
  2 11  1  0  0  0  0
  3 12  1  0  0  0  0
  4  5  1  0  0  0  0
  4  3  1  0  0  0  0
  6 13  1  0  0  0  0
  6  5  2  0  0  0  0
  7  6  1  0  0  0  0
  8  7  2  0  0  0  0
  8  9  1  0  0  0  0
  9  4  2  0  0  0  0
 10  9  1  0  0  0  0
 10  1  2  0  0  0  0
 14  7  1  0  0  0  0
 15  8  1  0  0  0  0
 16 10  1  0  0  0  0
 17  1  1  0  0  0  0
 18 19  1  0  0  0  0
 19 20  2  0  0  0  0
 19 17  1  0  0  0  0
 20 25  1  0  0  0  0
 21 20  1  0  0  0  0
 22 21  2  0  0  0  0
 23 22  1  0  0  0  0
 23 18  2  0  0  0  0
 24 18  1  0  0  0  0
 26 31  1  0  0  0  0
 26 22  1  0  0  0  0
 27 26  2  0  0  0  0
 28 27  1  0  0  0  0
 29 27  1  0  0  0  0
 29 30  2  0  0  0  0
 30 31  1  0  0  0  0
M  END
>  <minimizedAffinity>
-5.76594973

$$$$

 OpenBabel03242513583D

 31 34  0  0  0  0  0  0  0  0999 V2000
   37.9410   26.3760   42.5550 C   0  0  0  0  0  0  0  0  0  0  0  0
   39.0410   25.5920   42.7900 C   0  0  0  0  0  0  0  0  0  0  0  0
   39.1650   24.3760   42.1490 C   0  0  0  0  0  0  0  0  0  0  0  0
   38.2170   23.9030   41.2670 C   0  0  0  0  0  0  0  0  0  0  0  0
   38.4340   22.7070   40.6980 N   0  0  0  0  0  0  0  0  0  0  0  0
   37.5150   22.2190   39.8250 C   0  0  0  0  0  0  0  0  0  0  0  0
   36.3990   22.9670   39.5580 C   0  0  0  0  0  0  0  0  0  0  0  0
   36.1800   24.2130   40.1580 C   0  0  0  0  0  0  0  0  0  0  0  0
   37.1260   24.7020   41.0480 C   0  0  0  0  0  0  0  0  0  0  0  0
   36.9570   25.9290   41.6660 C   0  0  0  0  0  0  0  0  0  0  0  0
   39.7540   26.0060   43.4880 H   0  0  0  0  0  0  0  0  0  0  0  0
   40.0580   23.8280   42.3920 H   0  0  0  0  0  0  0  0  0  0  0  0
   37.6920   21.2600   39.3710 H   0  0  0  0  0  0  0  0  0  0  0  0
   35.6310   22.6210   38.8680 H   0  0  0  0  0  0  0  0  0  0  0  0
   35.3140   24.8160   39.9640 H   0  0  0  0  0  0  0  0  0  0  0  0
   36.0640   26.4860   41.4290 H   0  0  0  0  0  0  0  0  0  0  0  0
   37.6480   27.6270   43.1090 O   0  0  0  0  0  0  0  0  0  0  0  0
   37.1040   29.5970   41.7380 C   0  0  0  0  0  0  0  0  0  0  0  0
   37.9660   28.8250   42.5370 C   0  0  0  0  0  0  0  0  0  0  0  0
   39.2640   29.3450   42.7560 C   0  0  0  0  0  0  0  0  0  0  0  0
   39.5850   30.5340   42.1910 N   0  0  0  0  0  0  0  0  0  0  0  0
   38.7310   31.2430   41.4320 C   0  0  0  0  0  0  0  0  0  0  0  0
   37.4810   30.7510   41.2160 N   0  0  0  0  0  0  0  0  0  0  0  0
   36.1410   29.1240   41.6280 H   0  0  0  0  0  0  0  0  0  0  0  0
   39.9390   28.7650   43.3680 H   0  0  0  0  0  0  0  0  0  0  0  0
   39.2490   32.4600   40.9300 C   0  0  0  0  0  0  0  0  0  0  0  0
   38.6180   33.6400   40.6170 C   0  0  0  0  0  0  0  0  0  0  0  0
   37.5480   33.7030   40.7590 H   0  0  0  0  0  0  0  0  0  0  0  0
   39.3380   34.7040   40.1370 C   0  0  0  0  0  3  0  0  0  0  0  0
   40.7510   34.4810   39.9990 C   0  0  0  0  0  3  0  0  0  0  0  0
   40.9930   32.7560   40.5610 S   0  0  0  0  0  0  0  0  0  0  0  0
  1  2  1  0  0  0  0
  1 17  1  0  0  0  0
  2 11  1  0  0  0  0
  3 12  1  0  0  0  0
  3  2  2  0  0  0  0
  4  3  1  0  0  0  0
  5  4  2  0  0  0  0
  6  5  1  0  0  0  0
  7  6  2  0  0  0  0
  7  8  1  0  0  0  0
  8  9  2  0  0  0  0
  9  4  1  0  0  0  0
  9 10  1  0  0  0  0
 10  1  2  0  0  0  0
 13  6  1  0  0  0  0
 14  7  1  0  0  0  0
 15  8  1  0  0  0  0
 16 10  1  0  0  0  0
 18 19  1  0  0  0  0
 19 20  2  0  0  0  0
 19 17  1  0  0  0  0
 20 25  1  0  0  0  0
 21 20  1  0  0  0  0
 22 21  2  0  0  0  0
 23 22  1  0  0  0  0
 23 18  2  0  0  0  0
 24 18  1  0  0  0  0
 26 22  1  0  0  0  0
 27 28  1  0  0  0  0
 27 26  2  0  0  0  0
 29 27  1  0  0  0  0
 30 29  2  0  0  0  0
 30 31  1  0  0  0  0
 31 26  1  0  0  0  0
M  END
>  <minimizedAffinity>
-5.632442

$$$$

 OpenBabel03242513583D

 31 34  0  0  0  0  0  0  0  0999 V2000
   37.2030   31.3780   40.4500 C   0  0  0  0  0  0  0  0  0  0  0  0
   36.2020   30.6130   39.9110 C   0  0  0  0  0  0  0  0  0  0  0  0
   35.8990   29.3880   40.4690 C   0  0  0  0  0  0  0  0  0  0  0  0
   36.5700   28.8870   41.5640 C   0  0  0  0  0  0  0  0  0  0  0  0
   36.1990   27.6840   42.0280 N   0  0  0  0  0  0  0  0  0  0  0  0
   36.8440   27.1670   43.1060 C   0  0  0  0  0  0  0  0  0  0  0  0
   37.8530   27.8940   43.6790 C   0  0  0  0  0  0  0  0  0  0  0  0
   38.2350   29.1480   43.1870 C   0  0  0  0  0  0  0  0  0  0  0  0
   37.5690   29.6660   42.0860 C   0  0  0  0  0  0  0  0  0  0  0  0
   37.9080   30.9020   41.5620 C   0  0  0  0  0  0  0  0  0  0  0  0
   35.7060   31.0500   39.0560 H   0  0  0  0  0  0  0  0  0  0  0  0
   35.1000   28.8560   39.9830 H   0  0  0  0  0  0  0  0  0  0  0  0
   36.5430   26.2030   43.4750 H   0  0  0  0  0  0  0  0  0  0  0  0
   38.4020   27.5260   44.5440 H   0  0  0  0  0  0  0  0  0  0  0  0
   39.0220   29.7360   43.6200 H   0  0  0  0  0  0  0  0  0  0  0  0
   38.7080   31.4430   42.0430 H   0  0  0  0  0  0  0  0  0  0  0  0
   37.6460   32.6340   40.0230 O   0  0  0  0  0  0  0  0  0  0  0  0
   39.4690   34.1910   40.5810 C   0  0  0  0  0  0  0  0  0  0  0  0
   38.9530   33.0270   39.9830 C   0  0  0  0  0  0  0  0  0  0  0  0
   39.8750   32.2090   39.2870 C   0  0  0  0  0  0  0  0  0  0  0  0
   41.1730   32.5950   39.2440 N   0  0  0  0  0  0  0  0  0  0  0  0
   41.6270   33.7160   39.8300 C   0  0  0  0  0  0  0  0  0  0  0  0
   40.7490   34.5090   40.5010 N   0  0  0  0  0  0  0  0  0  0  0  0
   38.6960   34.7480   41.0870 H   0  0  0  0  0  0  0  0  0  0  0  0
   39.4960   31.3110   38.8210 H   0  0  0  0  0  0  0  0  0  0  0  0
   43.0150   33.9490   39.6750 C   0  0  0  0  0  0  0  0  0  0  0  0
   43.9890   34.1980   40.6110 C   0  0  0  0  0  0  0  0  0  0  0  0
   43.7040   34.2330   41.6530 H   0  0  0  0  0  0  0  0  0  0  0  0
   45.2890   34.3970   40.2200 C   0  0  0  0  0  3  0  0  0  0  0  0
   45.5260   34.3240   38.8050 C   0  0  0  0  0  3  0  0  0  0  0  0
   43.8790   33.9730   38.0890 S   0  0  0  0  0  0  0  0  0  0  0  0
  1 10  1  0  0  0  0
  2  1  2  0  0  0  0
  2  3  1  0  0  0  0
  3  4  2  0  0  0  0
  4  5  1  0  0  0  0
  4  9  1  0  0  0  0
  5  6  2  0  0  0  0
  6 13  1  0  0  0  0
  6  7  1  0  0  0  0
  7 14  1  0  0  0  0
  8 15  1  0  0  0  0
  8  7  2  0  0  0  0
  9  8  1  0  0  0  0
 10 16  1  0  0  0  0
 10  9  2  0  0  0  0
 11  2  1  0  0  0  0
 12  3  1  0  0  0  0
 17  1  1  0  0  0  0
 18 24  1  0  0  0  0
 19 17  1  0  0  0  0
 19 18  2  0  0  0  0
 20 19  1  0  0  0  0
 21 20  2  0  0  0  0
 21 22  1  0  0  0  0
 22 23  2  0  0  0  0
 23 18  1  0  0  0  0
 25 20  1  0  0  0  0
 26 22  1  0  0  0  0
 26 27  2  0  0  0  0
 27 28  1  0  0  0  0
 29 27  1  0  0  0  0
 30 29  2  0  0  0  0
 31 30  1  0  0  0  0
 31 26  1  0  0  0  0
M  END
>  <minimizedAffinity>
-5.57498741

$$$$

 OpenBabel03242513583D

 31 34  0  0  0  0  0  0  0  0999 V2000
   37.4690   25.3630   42.1280 C   0  0  0  0  0  0  0  0  0  0  0  0
   38.6650   24.7020   42.2370 C   0  0  0  0  0  0  0  0  0  0  0  0
   38.8830   23.5530   41.5030 C   0  0  0  0  0  0  0  0  0  0  0  0
   37.9360   23.0300   40.6500 C   0  0  0  0  0  0  0  0  0  0  0  0
   38.2480   21.9080   39.9830 N   0  0  0  0  0  0  0  0  0  0  0  0
   37.3330   21.3710   39.1350 C   0  0  0  0  0  0  0  0  0  0  0  0
   36.1220   21.9960   38.9930 C   0  0  0  0  0  0  0  0  0  0  0  0
   35.8050   23.1660   39.6940 C   0  0  0  0  0  0  0  0  0  0  0  0
   36.7480   23.7050   40.5570 C   0  0  0  0  0  0  0  0  0  0  0  0
   36.4830   24.8610   41.2710 C   0  0  0  0  0  0  0  0  0  0  0  0
   39.3730   25.1520   42.9180 H   0  0  0  0  0  0  0  0  0  0  0  0
   39.8480   23.1010   41.6500 H   0  0  0  0  0  0  0  0  0  0  0  0
   37.5870   20.4710   38.6020 H   0  0  0  0  0  0  0  0  0  0  0  0
   35.3540   21.6060   38.3270 H   0  0  0  0  0  0  0  0  0  0  0  0
   34.8640   23.6720   39.5980 H   0  0  0  0  0  0  0  0  0  0  0  0
   35.5180   25.3220   41.1310 H   0  0  0  0  0  0  0  0  0  0  0  0
   37.0730   26.5310   42.7880 O   0  0  0  0  0  0  0  0  0  0  0  0
   38.3850   28.6130   42.8350 C   0  0  0  0  0  0  0  0  0  0  0  0
   37.3430   27.7980   42.3570 C   0  0  0  0  0  0  0  0  0  0  0  0
   36.5160   28.3500   41.3510 C   0  0  0  0  0  0  0  0  0  0  0  0
   36.7790   29.6080   40.9200 N   0  0  0  0  0  0  0  0  0  0  0  0
   37.7860   30.3560   41.4020 C   0  0  0  0  0  0  0  0  0  0  0  0
   38.5870   29.8330   42.3700 N   0  0  0  0  0  0  0  0  0  0  0  0
   38.9600   28.1090   43.5960 H   0  0  0  0  0  0  0  0  0  0  0  0
   35.7100   27.7380   40.9720 H   0  0  0  0  0  0  0  0  0  0  0  0
   37.9020   31.6440   40.8260 C   0  0  0  0  0  0  0  0  0  0  0  0
   37.0310   32.3480   40.0300 C   0  0  0  0  0  0  0  0  0  0  0  0
   36.0880   31.8900   39.7700 H   0  0  0  0  0  0  0  0  0  0  0  0
   37.3640   33.6020   39.5820 C   0  0  0  0  0  3  0  0  0  0  0  0
   38.6490   34.0870   40.0040 C   0  0  0  0  0  3  0  0  0  0  0  0
   39.3310   32.7310   41.0260 S   0  0  0  0  0  0  0  0  0  0  0  0
  1  2  1  0  0  0  0
  1 17  1  0  0  0  0
  2 11  1  0  0  0  0
  3 12  1  0  0  0  0
  3  2  2  0  0  0  0
  4  3  1  0  0  0  0
  5  4  2  0  0  0  0
  6  5  1  0  0  0  0
  7  6  2  0  0  0  0
  7  8  1  0  0  0  0
  8  9  2  0  0  0  0
  9  4  1  0  0  0  0
  9 10  1  0  0  0  0
 10  1  2  0  0  0  0
 13  6  1  0  0  0  0
 14  7  1  0  0  0  0
 15  8  1  0  0  0  0
 16 10  1  0  0  0  0
 18 24  1  0  0  0  0
 19 17  1  0  0  0  0
 19 18  2  0  0  0  0
 20 19  1  0  0  0  0
 21 20  2  0  0  0  0
 21 22  1  0  0  0  0
 22 23  2  0  0  0  0
 23 18  1  0  0  0  0
 25 20  1  0  0  0  0
 26 31  1  0  0  0  0
 26 22  1  0  0  0  0
 27 26  2  0  0  0  0
 28 27  1  0  0  0  0
 29 30  2  0  0  0  0
 29 27  1  0  0  0  0
 30 31  1  0  0  0  0
M  END
>  <minimizedAffinity>
-5.50675631

$$$$

 OpenBabel03242513583D

 31 34  0  0  0  0  0  0  0  0999 V2000
   32.4220   29.3130   36.9060 C   0  0  0  0  0  0  0  0  0  0  0  0
   31.4370   29.6370   37.8020 C   0  0  0  0  0  0  0  0  0  0  0  0
   30.4460   30.5260   37.4400 C   0  0  0  0  0  0  0  0  0  0  0  0
   30.4000   31.1170   36.1960 C   0  0  0  0  0  0  0  0  0  0  0  0
   29.3940   31.9690   35.9450 N   0  0  0  0  0  0  0  0  0  0  0  0
   29.3250   32.5640   34.7260 C   0  0  0  0  0  0  0  0  0  0  0  0
   30.2870   32.2720   33.7960 C   0  0  0  0  0  0  0  0  0  0  0  0
   31.3340   31.3830   34.0670 C   0  0  0  0  0  0  0  0  0  0  0  0
   31.3950   30.7800   35.3150 C   0  0  0  0  0  0  0  0  0  0  0  0
   32.4080   29.8930   35.6320 C   0  0  0  0  0  0  0  0  0  0  0  0
   31.5180   29.1480   38.7630 H   0  0  0  0  0  0  0  0  0  0  0  0
   29.7150   30.7220   38.2040 H   0  0  0  0  0  0  0  0  0  0  0  0
   28.5170   33.2460   34.5280 H   0  0  0  0  0  0  0  0  0  0  0  0
   30.2790   32.7220   32.8050 H   0  0  0  0  0  0  0  0  0  0  0  0
   32.0990   31.1390   33.3540 H   0  0  0  0  0  0  0  0  0  0  0  0
   33.1470   29.6910   34.8720 H   0  0  0  0  0  0  0  0  0  0  0  0
   33.4980   28.4390   37.0940 O   0  0  0  0  0  0  0  0  0  0  0  0
   34.1420   29.2400   39.3310 C   0  0  0  0  0  0  0  0  0  0  0  0
   34.2960   28.4150   38.2020 C   0  0  0  0  0  0  0  0  0  0  0  0
   35.3690   27.4930   38.2310 C   0  0  0  0  0  0  0  0  0  0  0  0
   36.1640   27.4650   39.3280 N   0  0  0  0  0  0  0  0  0  0  0  0
   35.9840   28.2710   40.3880 C   0  0  0  0  0  0  0  0  0  0  0  0
   34.9550   29.1610   40.3700 N   0  0  0  0  0  0  0  0  0  0  0  0
   33.3020   29.9070   39.2180 H   0  0  0  0  0  0  0  0  0  0  0  0
   35.5020   26.8510   37.3720 H   0  0  0  0  0  0  0  0  0  0  0  0
   36.9170   28.0940   41.4380 C   0  0  0  0  0  0  0  0  0  0  0  0
   36.7590   27.5610   42.6950 C   0  0  0  0  0  0  0  0  0  0  0  0
   35.7800   27.2040   42.9810 H   0  0  0  0  0  0  0  0  0  0  0  0
   37.8250   27.4920   43.5550 C   0  0  0  0  0  3  0  0  0  0  0  0
   39.0660   28.0030   43.0440 C   0  0  0  0  0  3  0  0  0  0  0  0
   38.6590   28.5650   41.3500 S   0  0  0  0  0  0  0  0  0  0  0  0
  1 17  1  0  0  0  0
  1  2  1  0  0  0  0
  2 11  1  0  0  0  0
  3  2  2  0  0  0  0
  3 12  1  0  0  0  0
  4  3  1  0  0  0  0
  5  4  1  0  0  0  0
  6  5  2  0  0  0  0
  7  8  2  0  0  0  0
  7  6  1  0  0  0  0
  8  9  1  0  0  0  0
  9 10  1  0  0  0  0
  9  4  2  0  0  0  0
 10  1  2  0  0  0  0
 13  6  1  0  0  0  0
 14  7  1  0  0  0  0
 15  8  1  0  0  0  0
 16 10  1  0  0  0  0
 17 19  1  0  0  0  0
 18 23  1  0  0  0  0
 19 20  1  0  0  0  0
 19 18  2  0  0  0  0
 20 21  2  0  0  0  0
 21 22  1  0  0  0  0
 22 26  1  0  0  0  0
 23 22  2  0  0  0  0
 24 18  1  0  0  0  0
 25 20  1  0  0  0  0
 26 27  2  0  0  0  0
 27 28  1  0  0  0  0
 27 29  1  0  0  0  0
 30 29  2  0  0  0  0
 31 26  1  0  0  0  0
 31 30  1  0  0  0  0
M  END
>  <minimizedAffinity>
-5.4161458

$$$$

 OpenBabel03242513583D

 31 34  0  0  0  0  0  0  0  0999 V2000
   37.2030   30.0980   41.5690 C   0  0  0  0  0  0  0  0  0  0  0  0
   36.4680   30.9990   40.8430 C   0  0  0  0  0  0  0  0  0  0  0  0
   37.0840   32.1080   40.3010 C   0  0  0  0  0  0  0  0  0  0  0  0
   38.4300   32.3580   40.4580 C   0  0  0  0  0  0  0  0  0  0  0  0
   38.9300   33.4660   39.8900 N   0  0  0  0  0  0  0  0  0  0  0  0
   40.2540   33.7360   40.0300 C   0  0  0  0  0  0  0  0  0  0  0  0
   41.0310   32.8650   40.7480 C   0  0  0  0  0  0  0  0  0  0  0  0
   40.5000   31.7120   41.3380 C   0  0  0  0  0  0  0  0  0  0  0  0
   39.1460   31.4460   41.1880 C   0  0  0  0  0  0  0  0  0  0  0  0
   38.5730   30.3190   41.7500 C   0  0  0  0  0  0  0  0  0  0  0  0
   35.4180   30.7570   40.7490 H   0  0  0  0  0  0  0  0  0  0  0  0
   36.4320   32.7600   39.7470 H   0  0  0  0  0  0  0  0  0  0  0  0
   40.6520   34.6250   39.5730 H   0  0  0  0  0  0  0  0  0  0  0  0
   42.0970   33.0350   40.8900 H   0  0  0  0  0  0  0  0  0  0  0  0
   41.0890   31.0160   41.9040 H   0  0  0  0  0  0  0  0  0  0  0  0
   39.2190   29.6590   42.3080 H   0  0  0  0  0  0  0  0  0  0  0  0
   36.7540   28.9270   42.1880 O   0  0  0  0  0  0  0  0  0  0  0  0
   36.5090   27.3780   40.2910 C   0  0  0  0  0  0  0  0  0  0  0  0
   36.8090   27.6810   41.6320 C   0  0  0  0  0  0  0  0  0  0  0  0
   37.1960   26.5990   42.4560 C   0  0  0  0  0  0  0  0  0  0  0  0
   37.2520   25.3600   41.9080 N   0  0  0  0  0  0  0  0  0  0  0  0
   36.9570   25.1120   40.6200 C   0  0  0  0  0  0  0  0  0  0  0  0
   36.5840   26.1460   39.8200 N   0  0  0  0  0  0  0  0  0  0  0  0
   36.2260   28.2630   39.7420 H   0  0  0  0  0  0  0  0  0  0  0  0
   37.4300   26.8130   43.4880 H   0  0  0  0  0  0  0  0  0  0  0  0
   37.0750   23.7550   40.2340 C   0  0  0  0  0  0  0  0  0  0  0  0
   38.0110   22.8070   40.5690 C   0  0  0  0  0  0  0  0  0  0  0  0
   38.8130   23.0910   41.2360 H   0  0  0  0  0  0  0  0  0  0  0  0
   37.9200   21.5350   40.0630 C   0  0  0  0  0  3  0  0  0  0  0  0
   36.8050   21.2970   39.1890 C   0  0  0  0  0  3  0  0  0  0  0  0
   35.9300   22.9030   39.1250 S   0  0  0  0  0  0  0  0  0  0  0  0
  1 10  1  0  0  0  0
  1 17  1  0  0  0  0
  2  1  2  0  0  0  0
  3  4  2  0  0  0  0
  3  2  1  0  0  0  0
  4  9  1  0  0  0  0
  5  6  2  0  0  0  0
  5  4  1  0  0  0  0
  6  7  1  0  0  0  0
  7 14  1  0  0  0  0
  7  8  2  0  0  0  0
  8 15  1  0  0  0  0
  9  8  1  0  0  0  0
  9 10  2  0  0  0  0
 10 16  1  0  0  0  0
 11  2  1  0  0  0  0
 12  3  1  0  0  0  0
 13  6  1  0  0  0  0
 18 19  1  0  0  0  0
 19 17  1  0  0  0  0
 19 20  2  0  0  0  0
 20 25  1  0  0  0  0
 21 20  1  0  0  0  0
 22 21  2  0  0  0  0
 23 18  2  0  0  0  0
 23 22  1  0  0  0  0
 24 18  1  0  0  0  0
 26 27  2  0  0  0  0
 26 22  1  0  0  0  0
 27 28  1  0  0  0  0
 29 27  1  0  0  0  0
 30 29  2  0  0  0  0
 31 30  1  0  0  0  0
 31 26  1  0  0  0  0
M  END
>  <minimizedAffinity>
-5.37712955

$$$$

 OpenBabel03242513583D

 31 34  0  0  0  0  0  0  0  0999 V2000
   38.2940   32.6500   40.0300 C   0  0  0  0  0  0  0  0  0  0  0  0
   38.6140   33.8800   40.5430 C   0  0  0  0  0  0  0  0  0  0  0  0
   39.7430   34.5360   40.0990 C   0  0  0  0  0  0  0  0  0  0  0  0
   40.5820   34.0030   39.1440 C   0  0  0  0  0  0  0  0  0  0  0  0
   41.6550   34.7230   38.7820 N   0  0  0  0  0  0  0  0  0  0  0  0
   42.4980   34.2200   37.8430 C   0  0  0  0  0  0  0  0  0  0  0  0
   42.2210   32.9930   37.3000 C   0  0  0  0  0  0  0  0  0  0  0  0
   41.0990   32.2480   37.6860 C   0  0  0  0  0  0  0  0  0  0  0  0
   40.2450   32.7720   38.6450 C   0  0  0  0  0  0  0  0  0  0  0  0
   39.1230   32.0760   39.0590 C   0  0  0  0  0  0  0  0  0  0  0  0
   37.9250   34.2540   41.2880 H   0  0  0  0  0  0  0  0  0  0  0  0
   39.9160   35.4950   40.5550 H   0  0  0  0  0  0  0  0  0  0  0  0
   43.3570   34.8000   37.5550 H   0  0  0  0  0  0  0  0  0  0  0  0
   42.8640   32.5440   36.5450 H   0  0  0  0  0  0  0  0  0  0  0  0
   40.8630   31.2860   37.2740 H   0  0  0  0  0  0  0  0  0  0  0  0
   38.9410   31.1130   38.6070 H   0  0  0  0  0  0  0  0  0  0  0  0
   37.1990   31.8430   40.3570 O   0  0  0  0  0  0  0  0  0  0  0  0
   36.7010   29.5340   39.6650 C   0  0  0  0  0  0  0  0  0  0  0  0
   37.2550   30.4910   40.5360 C   0  0  0  0  0  0  0  0  0  0  0  0
   37.9180   29.9960   41.6840 C   0  0  0  0  0  0  0  0  0  0  0  0
   37.9750   28.6540   41.8660 N   0  0  0  0  0  0  0  0  0  0  0  0
   37.4330   27.7710   41.0090 C   0  0  0  0  0  0  0  0  0  0  0  0
   36.7930   28.2380   39.9030 N   0  0  0  0  0  0  0  0  0  0  0  0
   36.2180   30.0030   38.8230 H   0  0  0  0  0  0  0  0  0  0  0  0
   38.3490   30.7160   42.3630 H   0  0  0  0  0  0  0  0  0  0  0  0
   37.5960   26.4130   41.3710 C   0  0  0  0  0  0  0  0  0  0  0  0
   36.8230   25.3130   41.0880 C   0  0  0  0  0  0  0  0  0  0  0  0
   35.9310   25.4510   40.4950 H   0  0  0  0  0  0  0  0  0  0  0  0
   37.1860   24.0740   41.5540 C   0  0  0  0  0  3  0  0  0  0  0  0
   38.3950   24.0360   42.3290 C   0  0  0  0  0  3  0  0  0  0  0  0
   38.9650   25.7740   42.3620 S   0  0  0  0  0  0  0  0  0  0  0  0
  1 17  1  0  0  0  0
  1  2  1  0  0  0  0
  2 11  1  0  0  0  0
  3  2  2  0  0  0  0
  3 12  1  0  0  0  0
  4  3  1  0  0  0  0
  5  4  1  0  0  0  0
  6  5  2  0  0  0  0
  7  8  2  0  0  0  0
  7  6  1  0  0  0  0
  8  9  1  0  0  0  0
  9 10  1  0  0  0  0
  9  4  2  0  0  0  0
 10  1  2  0  0  0  0
 13  6  1  0  0  0  0
 14  7  1  0  0  0  0
 15  8  1  0  0  0  0
 16 10  1  0  0  0  0
 17 19  1  0  0  0  0
 18 23  2  0  0  0  0
 18 19  1  0  0  0  0
 19 20  2  0  0  0  0
 20 21  1  0  0  0  0
 20 25  1  0  0  0  0
 22 26  1  0  0  0  0
 22 21  2  0  0  0  0
 23 22  1  0  0  0  0
 24 18  1  0  0  0  0
 26 31  1  0  0  0  0
 27 26  2  0  0  0  0
 27 29  1  0  0  0  0
 28 27  1  0  0  0  0
 29 30  2  0  0  0  0
 30 31  1  0  0  0  0
M  END
>  <minimizedAffinity>
-5.24077082

$$$$

 OpenBabel03242513583D

 31 34  0  0  0  0  0  0  0  0999 V2000
   35.6940   28.5590   38.8200 C   0  0  0  0  0  0  0  0  0  0  0  0
   36.1490   29.8500   38.8790 C   0  0  0  0  0  0  0  0  0  0  0  0
   36.8500   30.2810   39.9870 C   0  0  0  0  0  0  0  0  0  0  0  0
   37.1190   29.4570   41.0590 C   0  0  0  0  0  0  0  0  0  0  0  0
   37.8070   29.9750   42.0880 N   0  0  0  0  0  0  0  0  0  0  0  0
   38.0860   29.1840   43.1570 C   0  0  0  0  0  0  0  0  0  0  0  0
   37.6520   27.8850   43.1440 C   0  0  0  0  0  0  0  0  0  0  0  0
   36.9330   27.3530   42.0670 C   0  0  0  0  0  0  0  0  0  0  0  0
   36.6540   28.1700   40.9800 C   0  0  0  0  0  0  0  0  0  0  0  0
   35.9480   27.6920   39.8900 C   0  0  0  0  0  0  0  0  0  0  0  0
   35.9130   30.4550   38.0150 H   0  0  0  0  0  0  0  0  0  0  0  0
   37.1680   31.3070   39.9480 H   0  0  0  0  0  0  0  0  0  0  0  0
   38.6380   29.6020   43.9790 H   0  0  0  0  0  0  0  0  0  0  0  0
   37.8480   27.2090   43.9760 H   0  0  0  0  0  0  0  0  0  0  0  0
   36.5830   26.3390   42.0360 H   0  0  0  0  0  0  0  0  0  0  0  0
   35.6240   26.6640   39.9200 H   0  0  0  0  0  0  0  0  0  0  0  0
   34.9720   27.9510   37.7870 O   0  0  0  0  0  0  0  0  0  0  0  0
   34.5460   28.9190   35.5650 C   0  0  0  0  0  0  0  0  0  0  0  0
   34.1860   28.6160   36.8910 C   0  0  0  0  0  0  0  0  0  0  0  0
   32.9050   29.0420   37.3140 C   0  0  0  0  0  0  0  0  0  0  0  0
   32.1210   29.7030   36.4280 N   0  0  0  0  0  0  0  0  0  0  0  0
   32.5020   29.9740   35.1680 C   0  0  0  0  0  0  0  0  0  0  0  0
   33.7320   29.5680   34.7510 N   0  0  0  0  0  0  0  0  0  0  0  0
   35.5350   28.5570   35.3340 H   0  0  0  0  0  0  0  0  0  0  0  0
   32.6120   28.8170   38.3290 H   0  0  0  0  0  0  0  0  0  0  0  0
   31.5450   30.6730   34.3930 C   0  0  0  0  0  0  0  0  0  0  0  0
   31.2810   32.0180   34.2990 C   0  0  0  0  0  0  0  0  0  0  0  0
   31.8710   32.7000   34.8930 H   0  0  0  0  0  0  0  0  0  0  0  0
   30.2880   32.4710   33.4680 C   0  0  0  0  0  3  0  0  0  0  0  0
   29.5820   31.4540   32.7380 C   0  0  0  0  0  3  0  0  0  0  0  0
   30.3670   29.8890   33.2700 S   0  0  0  0  0  0  0  0  0  0  0  0
  1  2  2  0  0  0  0
  1 10  1  0  0  0  0
  2  3  1  0  0  0  0
  3  4  2  0  0  0  0
  4  5  1  0  0  0  0
  5  6  2  0  0  0  0
  6 13  1  0  0  0  0
  7  6  1  0  0  0  0
  7 14  1  0  0  0  0
  8  7  2  0  0  0  0
  9  4  1  0  0  0  0
  9  8  1  0  0  0  0
 10 16  1  0  0  0  0
 10  9  2  0  0  0  0
 11  2  1  0  0  0  0
 12  3  1  0  0  0  0
 15  8  1  0  0  0  0
 17  1  1  0  0  0  0
 18 19  1  0  0  0  0
 19 20  2  0  0  0  0
 19 17  1  0  0  0  0
 20 25  1  0  0  0  0
 21 20  1  0  0  0  0
 22 21  2  0  0  0  0
 23 22  1  0  0  0  0
 23 18  2  0  0  0  0
 24 18  1  0  0  0  0
 26 22  1  0  0  0  0
 27 26  2  0  0  0  0
 27 28  1  0  0  0  0
 29 27  1  0  0  0  0
 30 31  1  0  0  0  0
 30 29  2  0  0  0  0
 31 26  1  0  0  0  0
M  END
>  <minimizedAffinity>
-5.16188192

$$$$

 OpenBabel03242513583D

 31 34  0  0  0  0  0  0  0  0999 V2000
   32.0960   29.5140   37.1080 C   0  0  0  0  0  0  0  0  0  0  0  0
   31.0750   29.9150   37.9310 C   0  0  0  0  0  0  0  0  0  0  0  0
   30.1240   30.7970   37.4620 C   0  0  0  0  0  0  0  0  0  0  0  0
   30.1510   31.3050   36.1810 C   0  0  0  0  0  0  0  0  0  0  0  0
   29.1780   32.1570   35.8250 N   0  0  0  0  0  0  0  0  0  0  0  0
   29.1820   32.6720   34.5680 C   0  0  0  0  0  0  0  0  0  0  0  0
   30.1820   32.3010   33.7090 C   0  0  0  0  0  0  0  0  0  0  0  0
   31.1950   31.4120   34.0900 C   0  0  0  0  0  0  0  0  0  0  0  0
   31.1800   30.8920   35.3760 C   0  0  0  0  0  0  0  0  0  0  0  0
   32.1570   30.0090   35.8000 C   0  0  0  0  0  0  0  0  0  0  0  0
   31.0980   29.4890   38.9240 H   0  0  0  0  0  0  0  0  0  0  0  0
   29.3600   31.0570   38.1740 H   0  0  0  0  0  0  0  0  0  0  0  0
   28.4000   33.3550   34.2860 H   0  0  0  0  0  0  0  0  0  0  0  0
   30.2320   32.6850   32.6920 H   0  0  0  0  0  0  0  0  0  0  0  0
   31.9870   31.1070   33.4340 H   0  0  0  0  0  0  0  0  0  0  0  0
   32.9280   29.7430   35.0930 H   0  0  0  0  0  0  0  0  0  0  0  0
   33.1420   28.6340   37.4070 O   0  0  0  0  0  0  0  0  0  0  0  0
   35.5310   29.1840   37.6200 C   0  0  0  0  0  0  0  0  0  0  0  0
   34.2450   28.9580   38.1430 C   0  0  0  0  0  0  0  0  0  0  0  0
   34.1000   29.0780   39.5450 C   0  0  0  0  0  0  0  0  0  0  0  0
   35.1920   29.3990   40.2800 N   0  0  0  0  0  0  0  0  0  0  0  0
   36.4060   29.6080   39.7420 C   0  0  0  0  0  0  0  0  0  0  0  0
   36.5560   29.4940   38.3940 N   0  0  0  0  0  0  0  0  0  0  0  0
   35.5450   29.0710   36.5470 H   0  0  0  0  0  0  0  0  0  0  0  0
   33.1190   28.9080   39.9640 H   0  0  0  0  0  0  0  0  0  0  0  0
   37.4230   29.9330   40.6720 C   0  0  0  0  0  0  0  0  0  0  0  0
   37.7440   29.3650   41.8810 C   0  0  0  0  0  0  0  0  0  0  0  0
   37.1560   28.5280   42.2280 H   0  0  0  0  0  0  0  0  0  0  0  0
   38.7880   29.8590   42.6210 C   0  0  0  0  0  3  0  0  0  0  0  0
   39.4830   30.9750   42.0410 C   0  0  0  0  0  3  0  0  0  0  0  0
   38.6150   31.2740   40.4580 S   0  0  0  0  0  0  0  0  0  0  0  0
  1 17  1  0  0  0  0
  1  2  1  0  0  0  0
  2 11  1  0  0  0  0
  3  2  2  0  0  0  0
  3 12  1  0  0  0  0
  4  3  1  0  0  0  0
  5  4  1  0  0  0  0
  6  5  2  0  0  0  0
  7  8  2  0  0  0  0
  7  6  1  0  0  0  0
  8  9  1  0  0  0  0
  9 10  1  0  0  0  0
  9  4  2  0  0  0  0
 10  1  2  0  0  0  0
 13  6  1  0  0  0  0
 14  7  1  0  0  0  0
 15  8  1  0  0  0  0
 16 10  1  0  0  0  0
 17 19  1  0  0  0  0
 18 19  2  0  0  0  0
 18 23  1  0  0  0  0
 19 20  1  0  0  0  0
 20 25  1  0  0  0  0
 20 21  2  0  0  0  0
 22 21  1  0  0  0  0
 22 26  1  0  0  0  0
 23 22  2  0  0  0  0
 24 18  1  0  0  0  0
 26 27  2  0  0  0  0
 27 28  1  0  0  0  0
 27 29  1  0  0  0  0
 30 29  2  0  0  0  0
 31 26  1  0  0  0  0
 31 30  1  0  0  0  0
M  END
>  <minimizedAffinity>
-5.15391684

$$$$
