
 OpenBabel03252501493D

 30 32  0  0  0  0  0  0  0  0999 V2000
   34.1700   29.1100   39.0690 C   0  0  0  0  0  0  0  0  0  0  0  0
   34.7480   28.8260   37.8200 C   0  0  0  0  0  0  0  0  0  0  0  0
   36.0590   28.2980   37.7770 C   0  0  0  0  0  0  0  0  0  0  0  0
   36.6950   28.0930   38.9670 N   0  0  0  0  0  0  0  0  0  0  0  0
   36.1010   28.3800   40.1420 C   0  0  0  0  0  0  0  0  0  0  0  0
   34.8700   28.8760   40.1700 N   0  0  0  0  0  0  0  0  0  0  0  0
   33.1740   29.5090   39.0560 H   0  0  0  0  0  0  0  0  0  0  0  0
   36.5230   28.0720   36.8380 H   0  0  0  0  0  0  0  0  0  0  0  0
   37.0150   30.4680   41.7130 F   0  0  0  0  0  0  0  0  0  0  0  0
   37.2830   29.2050   42.1460 C   0  0  0  0  0  0  0  0  0  0  0  0
   36.8390   28.1360   41.3810 C   0  0  0  0  0  0  0  0  0  0  0  0
   37.0740   26.8420   41.7610 C   0  0  0  0  0  0  0  0  0  0  0  0
   37.7760   26.6190   42.9420 C   0  0  0  0  0  0  0  0  0  0  0  0
   38.2340   27.6800   43.7280 C   0  0  0  0  0  0  0  0  0  0  0  0
   37.9760   28.9940   43.3110 C   0  0  0  0  0  0  0  0  0  0  0  0
   36.7390   25.9720   41.1830 H   0  0  0  0  0  0  0  0  0  0  0  0
   37.9960   25.6190   43.2980 H   0  0  0  0  0  0  0  0  0  0  0  0
   38.7810   27.5330   44.6480 H   0  0  0  0  0  0  0  0  0  0  0  0
   38.3130   29.8560   43.8920 H   0  0  0  0  0  0  0  0  0  0  0  0
   34.0420   29.0570   36.5590 C   0  0  0  0  0  3  0  0  0  0  0  0
   32.7240   29.2760   36.4890 C   0  0  0  0  0  3  0  0  0  0  0  0
   32.1020   29.5020   35.1290 C   0  0  0  0  0  0  0  0  0  0  0  0
   32.9610   29.7160   34.4340 H   0  0  0  0  0  0  0  0  0  0  0  0
   31.6360   28.5880   34.7670 H   0  0  0  0  0  0  0  0  0  0  0  0
   31.1740   30.5970   35.0790 C   0  0  0  0  0  0  0  0  0  0  0  0
   30.8020   31.4860   36.0370 C   0  0  0  0  0  0  0  0  0  0  0  0
   31.2310   31.4260   37.0260 H   0  0  0  0  0  0  0  0  0  0  0  0
   29.8830   32.4640   35.7590 C   0  0  0  0  0  3  0  0  0  0  0  0
   29.3530   32.4880   34.4300 C   0  0  0  0  0  3  0  0  0  0  0  0
   30.2170   31.0510   33.5670 S   0  0  0  0  0  0  0  0  0  0  0  0
  1  6  1  0  0  0  0
  2  1  2  0  0  0  0
  3  2  1  0  0  0  0
  3  4  2  0  0  0  0
  4  5  1  0  0  0  0
  5  6  2  0  0  0  0
  5 11  1  0  0  0  0
  7  1  1  0  0  0  0
  8  3  1  0  0  0  0
  9 10  1  0  0  0  0
 10 15  1  0  0  0  0
 11 12  1  0  0  0  0
 11 10  2  0  0  0  0
 12 13  2  0  0  0  0
 13 17  1  0  0  0  0
 13 14  1  0  0  0  0
 14 18  1  0  0  0  0
 15 14  2  0  0  0  0
 15 19  1  0  0  0  0
 16 12  1  0  0  0  0
 20  2  1  0  0  0  0
 21 20  2  0  0  0  0
 22 21  1  0  0  0  0
 23 22  1  0  0  0  0
 24 22  1  0  0  0  0
 25 22  1  0  0  0  0
 25 26  2  0  0  0  0
 26 27  1  0  0  0  0
 28 26  1  0  0  0  0
 29 28  2  0  0  0  0
 30 29  1  0  0  0  0
 30 25  1  0  0  0  0
M  END
>  <minimizedAffinity>
-5.39099836

$$$$

 OpenBabel03252501493D

 30 32  0  0  0  0  0  0  0  0999 V2000
   35.1670   29.1190   40.0630 C   0  0  0  0  0  0  0  0  0  0  0  0
   35.4000   28.7760   38.7210 C   0  0  0  0  0  0  0  0  0  0  0  0
   36.5920   28.0950   38.3870 C   0  0  0  0  0  0  0  0  0  0  0  0
   37.4590   27.8060   39.4000 N   0  0  0  0  0  0  0  0  0  0  0  0
   37.1940   28.1540   40.6750 C   0  0  0  0  0  0  0  0  0  0  0  0
   36.0700   28.7940   40.9770 N   0  0  0  0  0  0  0  0  0  0  0  0
   34.2490   29.6350   40.2730 H   0  0  0  0  0  0  0  0  0  0  0  0
   36.7950   27.8220   37.3710 H   0  0  0  0  0  0  0  0  0  0  0  0
   36.9550   25.8420   42.1770 F   0  0  0  0  0  0  0  0  0  0  0  0
   38.0170   26.6490   42.4500 C   0  0  0  0  0  0  0  0  0  0  0  0
   38.1660   27.8160   41.7140 C   0  0  0  0  0  0  0  0  0  0  0  0
   39.2120   28.6710   41.9370 C   0  0  0  0  0  0  0  0  0  0  0  0
   40.1320   28.3410   42.9270 C   0  0  0  0  0  0  0  0  0  0  0  0
   40.0030   27.1700   43.6810 C   0  0  0  0  0  0  0  0  0  0  0  0
   38.9200   26.3170   43.4270 C   0  0  0  0  0  0  0  0  0  0  0  0
   39.3620   29.6010   41.3760 H   0  0  0  0  0  0  0  0  0  0  0  0
   40.9830   28.9740   43.1550 H   0  0  0  0  0  0  0  0  0  0  0  0
   40.7030   26.8930   44.4550 H   0  0  0  0  0  0  0  0  0  0  0  0
   38.7760   25.3900   43.9890 H   0  0  0  0  0  0  0  0  0  0  0  0
   34.4520   29.0990   37.6540 C   0  0  0  0  0  3  0  0  0  0  0  0
   33.1670   28.7270   37.6800 C   0  0  0  0  0  3  0  0  0  0  0  0
   32.2800   29.1170   36.5200 C   0  0  0  0  0  0  0  0  0  0  0  0
   32.9740   29.4910   35.7170 H   0  0  0  0  0  0  0  0  0  0  0  0
   31.7810   28.2410   36.1090 H   0  0  0  0  0  0  0  0  0  0  0  0
   31.3230   30.1440   36.8270 C   0  0  0  0  0  0  0  0  0  0  0  0
   30.9480   31.2430   36.1210 C   0  0  0  0  0  0  0  0  0  0  0  0
   31.3960   31.4470   35.1600 H   0  0  0  0  0  0  0  0  0  0  0  0
   29.9990   32.0980   36.6180 C   0  0  0  0  0  3  0  0  0  0  0  0
   29.4450   31.7690   37.8950 C   0  0  0  0  0  3  0  0  0  0  0  0
   30.3260   30.1750   38.3800 S   0  0  0  0  0  0  0  0  0  0  0  0
  1  7  1  0  0  0  0
  1  6  1  0  0  0  0
  2  1  2  0  0  0  0
  3  2  1  0  0  0  0
  3  4  2  0  0  0  0
  4  5  1  0  0  0  0
  5  6  2  0  0  0  0
  5 11  1  0  0  0  0
  8  3  1  0  0  0  0
  9 10  1  0  0  0  0
 10 15  1  0  0  0  0
 11 12  1  0  0  0  0
 11 10  2  0  0  0  0
 12 13  2  0  0  0  0
 13 17  1  0  0  0  0
 13 14  1  0  0  0  0
 14 18  1  0  0  0  0
 15 14  2  0  0  0  0
 15 19  1  0  0  0  0
 16 12  1  0  0  0  0
 20 21  2  0  0  0  0
 20  2  1  0  0  0  0
 22 25  1  0  0  0  0
 22 21  1  0  0  0  0
 23 22  1  0  0  0  0
 24 22  1  0  0  0  0
 25 30  1  0  0  0  0
 26 28  1  0  0  0  0
 26 25  2  0  0  0  0
 27 26  1  0  0  0  0
 28 29  2  0  0  0  0
 29 30  1  0  0  0  0
M  END
>  <minimizedAffinity>
-5.34049559

$$$$

 OpenBabel03252501493D

 30 32  0  0  0  0  0  0  0  0999 V2000
   38.1390   28.2120   40.1370 C   0  0  0  0  0  0  0  0  0  0  0  0
   37.4200   27.7750   41.2620 C   0  0  0  0  0  0  0  0  0  0  0  0
   36.8770   28.7370   42.1430 C   0  0  0  0  0  0  0  0  0  0  0  0
   37.0850   30.0530   41.8450 N   0  0  0  0  0  0  0  0  0  0  0  0
   37.7810   30.4270   40.7540 C   0  0  0  0  0  0  0  0  0  0  0  0
   38.2870   29.5130   39.9340 N   0  0  0  0  0  0  0  0  0  0  0  0
   38.5340   27.4480   39.4950 H   0  0  0  0  0  0  0  0  0  0  0  0
   36.3240   28.4310   43.0090 H   0  0  0  0  0  0  0  0  0  0  0  0
   39.8660   31.8430   41.8990 F   0  0  0  0  0  0  0  0  0  0  0  0
   39.0240   32.5340   41.0830 C   0  0  0  0  0  0  0  0  0  0  0  0
   37.9690   31.8530   40.4930 C   0  0  0  0  0  0  0  0  0  0  0  0
   37.0860   32.4890   39.6620 C   0  0  0  0  0  0  0  0  0  0  0  0
   37.2720   33.8470   39.4180 C   0  0  0  0  0  0  0  0  0  0  0  0
   38.3280   34.5530   40.0010 C   0  0  0  0  0  0  0  0  0  0  0  0
   39.2140   33.8720   40.8480 C   0  0  0  0  0  0  0  0  0  0  0  0
   36.2410   31.9850   39.1770 H   0  0  0  0  0  0  0  0  0  0  0  0
   36.6090   34.4100   38.7700 H   0  0  0  0  0  0  0  0  0  0  0  0
   38.4920   35.6070   39.8280 H   0  0  0  0  0  0  0  0  0  0  0  0
   40.0540   34.3810   41.3260 H   0  0  0  0  0  0  0  0  0  0  0  0
   37.2120   26.3560   41.5570 C   0  0  0  0  0  3  0  0  0  0  0  0
   38.1850   25.4410   41.4670 C   0  0  0  0  0  3  0  0  0  0  0  0
   37.8530   24.0030   41.7970 C   0  0  0  0  0  0  0  0  0  0  0  0
   38.8270   23.5280   42.0990 H   0  0  0  0  0  0  0  0  0  0  0  0
   37.2040   23.9520   42.6690 H   0  0  0  0  0  0  0  0  0  0  0  0
   37.2880   23.2620   40.7040 C   0  0  0  0  0  0  0  0  0  0  0  0
   36.1120   23.4210   40.0420 C   0  0  0  0  0  0  0  0  0  0  0  0
   35.4360   24.2140   40.3230 H   0  0  0  0  0  0  0  0  0  0  0  0
   35.7750   22.5810   39.0130 C   0  0  0  0  0  3  0  0  0  0  0  0
   36.7150   21.5520   38.6890 C   0  0  0  0  0  3  0  0  0  0  0  0
   38.1230   21.8170   39.9140 S   0  0  0  0  0  0  0  0  0  0  0  0
  1  2  1  0  0  0  0
  2 20  1  0  0  0  0
  2  3  2  0  0  0  0
  3  8  1  0  0  0  0
  4  3  1  0  0  0  0
  5  4  2  0  0  0  0
  6  1  2  0  0  0  0
  6  5  1  0  0  0  0
  7  1  1  0  0  0  0
 10  9  1  0  0  0  0
 11  5  1  0  0  0  0
 11 10  2  0  0  0  0
 12 11  1  0  0  0  0
 13 12  2  0  0  0  0
 13 14  1  0  0  0  0
 14 15  2  0  0  0  0
 15 10  1  0  0  0  0
 15 19  1  0  0  0  0
 16 12  1  0  0  0  0
 17 13  1  0  0  0  0
 18 14  1  0  0  0  0
 21 20  2  0  0  0  0
 21 22  1  0  0  0  0
 22 23  1  0  0  0  0
 22 24  1  0  0  0  0
 25 22  1  0  0  0  0
 26 27  1  0  0  0  0
 26 25  2  0  0  0  0
 28 26  1  0  0  0  0
 29 28  2  0  0  0  0
 29 30  1  0  0  0  0
 30 25  1  0  0  0  0
M  END
>  <minimizedAffinity>
-5.1741066

$$$$

 OpenBabel03252501493D

 30 32  0  0  0  0  0  0  0  0999 V2000
   37.9860   28.8110   39.7230 C   0  0  0  0  0  0  0  0  0  0  0  0
   37.5910   28.3220   40.9790 C   0  0  0  0  0  0  0  0  0  0  0  0
   37.7380   29.1530   42.1130 C   0  0  0  0  0  0  0  0  0  0  0  0
   38.2610   30.3980   41.9190 N   0  0  0  0  0  0  0  0  0  0  0  0
   38.6270   30.8260   40.6940 C   0  0  0  0  0  0  0  0  0  0  0  0
   38.4840   30.0360   39.6360 N   0  0  0  0  0  0  0  0  0  0  0  0
   37.8570   28.1470   38.8890 H   0  0  0  0  0  0  0  0  0  0  0  0
   37.4450   28.8050   43.0830 H   0  0  0  0  0  0  0  0  0  0  0  0
   37.0080   33.0080   40.1660 F   0  0  0  0  0  0  0  0  0  0  0  0
   38.3430   33.2450   40.2890 C   0  0  0  0  0  0  0  0  0  0  0  0
   39.1810   32.1720   40.5550 C   0  0  0  0  0  0  0  0  0  0  0  0
   40.5330   32.3410   40.6910 C   0  0  0  0  0  0  0  0  0  0  0  0
   41.0530   33.6250   40.5570 C   0  0  0  0  0  0  0  0  0  0  0  0
   40.2270   34.7210   40.2900 C   0  0  0  0  0  0  0  0  0  0  0  0
   38.8470   34.5130   40.1560 C   0  0  0  0  0  0  0  0  0  0  0  0
   41.2270   31.5180   40.9010 H   0  0  0  0  0  0  0  0  0  0  0  0
   42.1150   33.8270   40.6530 H   0  0  0  0  0  0  0  0  0  0  0  0
   40.6070   35.7260   40.1820 H   0  0  0  0  0  0  0  0  0  0  0  0
   38.1610   35.3380   39.9480 H   0  0  0  0  0  0  0  0  0  0  0  0
   37.0330   26.9810   41.1580 C   0  0  0  0  0  3  0  0  0  0  0  0
   37.4380   26.1430   42.1200 C   0  0  0  0  0  3  0  0  0  0  0  0
   36.7880   24.7810   42.2090 C   0  0  0  0  0  0  0  0  0  0  0  0
   37.1730   24.3210   43.1610 H   0  0  0  0  0  0  0  0  0  0  0  0
   35.7110   24.8800   42.3300 H   0  0  0  0  0  0  0  0  0  0  0  0
   37.0940   23.9070   41.1100 C   0  0  0  0  0  0  0  0  0  0  0  0
   38.2270   23.2140   40.8200 C   0  0  0  0  0  0  0  0  0  0  0  0
   39.0820   23.2770   41.4760 H   0  0  0  0  0  0  0  0  0  0  0  0
   38.2940   22.4300   39.6980 C   0  0  0  0  0  3  0  0  0  0  0  0
   37.1260   22.3900   38.8730 C   0  0  0  0  0  3  0  0  0  0  0  0
   35.9030   23.5210   39.7540 S   0  0  0  0  0  0  0  0  0  0  0  0
  1  2  1  0  0  0  0
  2 20  1  0  0  0  0
  2  3  2  0  0  0  0
  3  8  1  0  0  0  0
  4  3  1  0  0  0  0
  5  4  2  0  0  0  0
  6  1  2  0  0  0  0
  6  5  1  0  0  0  0
  7  1  1  0  0  0  0
  9 10  1  0  0  0  0
 10 11  1  0  0  0  0
 11 12  2  0  0  0  0
 11  5  1  0  0  0  0
 12 16  1  0  0  0  0
 13 17  1  0  0  0  0
 13 12  1  0  0  0  0
 14 13  2  0  0  0  0
 15 10  2  0  0  0  0
 15 14  1  0  0  0  0
 18 14  1  0  0  0  0
 19 15  1  0  0  0  0
 20 21  2  0  0  0  0
 21 22  1  0  0  0  0
 22 24  1  0  0  0  0
 22 23  1  0  0  0  0
 25 22  1  0  0  0  0
 26 25  2  0  0  0  0
 26 27  1  0  0  0  0
 28 26  1  0  0  0  0
 29 28  2  0  0  0  0
 29 30  1  0  0  0  0
 30 25  1  0  0  0  0
M  END
>  <minimizedAffinity>
-5.11899614

$$$$

 OpenBabel03252501493D

 30 32  0  0  0  0  0  0  0  0999 V2000
   37.4020   28.5760   42.3470 C   0  0  0  0  0  0  0  0  0  0  0  0
   37.6990   27.6100   41.3710 C   0  0  0  0  0  0  0  0  0  0  0  0
   38.1130   28.0380   40.0890 C   0  0  0  0  0  0  0  0  0  0  0  0
   38.2020   29.3820   39.8720 N   0  0  0  0  0  0  0  0  0  0  0  0
   37.9080   30.2740   40.8380 C   0  0  0  0  0  0  0  0  0  0  0  0
   37.5190   29.8600   42.0390 N   0  0  0  0  0  0  0  0  0  0  0  0
   37.0920   28.2080   43.3060 H   0  0  0  0  0  0  0  0  0  0  0  0
   38.3450   27.3230   39.3260 H   0  0  0  0  0  0  0  0  0  0  0  0
   39.9660   31.8050   41.8790 F   0  0  0  0  0  0  0  0  0  0  0  0
   39.0670   32.4400   41.0770 C   0  0  0  0  0  0  0  0  0  0  0  0
   38.0230   31.7010   40.5400 C   0  0  0  0  0  0  0  0  0  0  0  0
   37.0860   32.2780   39.7250 C   0  0  0  0  0  0  0  0  0  0  0  0
   37.2040   33.6360   39.4450 C   0  0  0  0  0  0  0  0  0  0  0  0
   38.2470   34.4010   39.9760 C   0  0  0  0  0  0  0  0  0  0  0  0
   39.1900   33.7790   40.8060 C   0  0  0  0  0  0  0  0  0  0  0  0
   36.2480   31.7270   39.2820 H   0  0  0  0  0  0  0  0  0  0  0  0
   36.4950   34.1550   38.8090 H   0  0  0  0  0  0  0  0  0  0  0  0
   38.3590   35.4560   39.7740 H   0  0  0  0  0  0  0  0  0  0  0  0
   40.0230   34.3350   41.2440 H   0  0  0  0  0  0  0  0  0  0  0  0
   37.5940   26.1740   41.6320 C   0  0  0  0  0  3  0  0  0  0  0  0
   37.1820   25.2920   40.7140 C   0  0  0  0  0  3  0  0  0  0  0  0
   37.1130   23.8310   41.0980 C   0  0  0  0  0  0  0  0  0  0  0  0
   37.5240   23.7710   42.1440 H   0  0  0  0  0  0  0  0  0  0  0  0
   36.0770   23.5020   41.1580 H   0  0  0  0  0  0  0  0  0  0  0  0
   37.8710   22.9590   40.2450 C   0  0  0  0  0  0  0  0  0  0  0  0
   37.9250   21.6030   40.1910 C   0  0  0  0  0  0  0  0  0  0  0  0
   37.3280   21.0100   40.8680 H   0  0  0  0  0  0  0  0  0  0  0  0
   38.7330   20.9740   39.2800 C   0  0  0  0  0  3  0  0  0  0  0  0
   39.4980   21.8170   38.4120 C   0  0  0  0  0  3  0  0  0  0  0  0
   39.0250   23.5640   38.9380 S   0  0  0  0  0  0  0  0  0  0  0  0
  1  7  1  0  0  0  0
  2 20  1  0  0  0  0
  2  1  2  0  0  0  0
  3  2  1  0  0  0  0
  4  3  2  0  0  0  0
  4  5  1  0  0  0  0
  5  6  2  0  0  0  0
  6  1  1  0  0  0  0
  8  3  1  0  0  0  0
 10  9  1  0  0  0  0
 11  5  1  0  0  0  0
 11 10  2  0  0  0  0
 12 11  1  0  0  0  0
 13 12  2  0  0  0  0
 13 14  1  0  0  0  0
 14 15  2  0  0  0  0
 15 10  1  0  0  0  0
 15 19  1  0  0  0  0
 16 12  1  0  0  0  0
 17 13  1  0  0  0  0
 18 14  1  0  0  0  0
 21 22  1  0  0  0  0
 21 20  2  0  0  0  0
 22 24  1  0  0  0  0
 22 23  1  0  0  0  0
 25 22  1  0  0  0  0
 26 25  2  0  0  0  0
 26 27  1  0  0  0  0
 28 26  1  0  0  0  0
 29 30  1  0  0  0  0
 29 28  2  0  0  0  0
 30 25  1  0  0  0  0
M  END
>  <minimizedAffinity>
-5.04660845

$$$$

 OpenBabel03252501493D

 30 32  0  0  0  0  0  0  0  0999 V2000
   36.3480   29.2740   38.5060 C   0  0  0  0  0  0  0  0  0  0  0  0
   35.1430   29.0700   39.1980 C   0  0  0  0  0  0  0  0  0  0  0  0
   35.1630   29.0320   40.6110 C   0  0  0  0  0  0  0  0  0  0  0  0
   36.3690   29.2000   41.2290 N   0  0  0  0  0  0  0  0  0  0  0  0
   37.5000   29.3940   40.5240 C   0  0  0  0  0  0  0  0  0  0  0  0
   37.4690   29.4270   39.1970 N   0  0  0  0  0  0  0  0  0  0  0  0
   36.2870   29.2960   37.4350 H   0  0  0  0  0  0  0  0  0  0  0  0
   34.2590   28.8770   41.1630 H   0  0  0  0  0  0  0  0  0  0  0  0
   39.0160   27.2210   41.3240 F   0  0  0  0  0  0  0  0  0  0  0  0
   39.4960   28.4560   41.6350 C   0  0  0  0  0  0  0  0  0  0  0  0
   38.7600   29.5670   41.2470 C   0  0  0  0  0  0  0  0  0  0  0  0
   39.1860   30.8370   41.5280 C   0  0  0  0  0  0  0  0  0  0  0  0
   40.3860   30.9930   42.2160 C   0  0  0  0  0  0  0  0  0  0  0  0
   41.1440   29.8890   42.6160 C   0  0  0  0  0  0  0  0  0  0  0  0
   40.6790   28.6010   42.3130 C   0  0  0  0  0  0  0  0  0  0  0  0
   38.6320   31.7380   41.2380 H   0  0  0  0  0  0  0  0  0  0  0  0
   40.7790   31.9710   42.4700 H   0  0  0  0  0  0  0  0  0  0  0  0
   42.0770   29.9830   43.1520 H   0  0  0  0  0  0  0  0  0  0  0  0
   41.2360   27.7070   42.6050 H   0  0  0  0  0  0  0  0  0  0  0  0
   33.8640   28.8920   38.5090 C   0  0  0  0  0  3  0  0  0  0  0  0
   33.7120   29.0720   37.1920 C   0  0  0  0  0  3  0  0  0  0  0  0
   32.3420   28.8600   36.5890 C   0  0  0  0  0  0  0  0  0  0  0  0
   32.5150   28.6980   35.4890 H   0  0  0  0  0  0  0  0  0  0  0  0
   31.8980   27.9410   36.9670 H   0  0  0  0  0  0  0  0  0  0  0  0
   31.4410   29.9650   36.7650 C   0  0  0  0  0  0  0  0  0  0  0  0
   31.1700   31.0220   35.9550 C   0  0  0  0  0  0  0  0  0  0  0  0
   31.6730   31.1180   35.0050 H   0  0  0  0  0  0  0  0  0  0  0  0
   30.2580   31.9720   36.3340 C   0  0  0  0  0  3  0  0  0  0  0  0
   29.6270   31.7850   37.6040 C   0  0  0  0  0  3  0  0  0  0  0  0
   30.3810   30.1870   38.2590 S   0  0  0  0  0  0  0  0  0  0  0  0
  1  6  2  0  0  0  0
  1  2  1  0  0  0  0
  2  3  2  0  0  0  0
  3  8  1  0  0  0  0
  3  4  1  0  0  0  0
  5  4  2  0  0  0  0
  5 11  1  0  0  0  0
  6  5  1  0  0  0  0
  7  1  1  0  0  0  0
  9 10  1  0  0  0  0
 10 15  1  0  0  0  0
 11 12  1  0  0  0  0
 11 10  2  0  0  0  0
 12 13  2  0  0  0  0
 13 17  1  0  0  0  0
 13 14  1  0  0  0  0
 14 18  1  0  0  0  0
 15 19  1  0  0  0  0
 15 14  2  0  0  0  0
 16 12  1  0  0  0  0
 20  2  1  0  0  0  0
 21 20  2  0  0  0  0
 22 25  1  0  0  0  0
 22 24  1  0  0  0  0
 22 21  1  0  0  0  0
 23 22  1  0  0  0  0
 25 30  1  0  0  0  0
 26 28  1  0  0  0  0
 26 25  2  0  0  0  0
 27 26  1  0  0  0  0
 28 29  2  0  0  0  0
 29 30  1  0  0  0  0
M  END
>  <minimizedAffinity>
-4.90618181

$$$$

 OpenBabel03252501493D

 30 32  0  0  0  0  0  0  0  0999 V2000
   37.7110   30.1840   41.5420 C   0  0  0  0  0  0  0  0  0  0  0  0
   38.9420   30.4830   40.9350 C   0  0  0  0  0  0  0  0  0  0  0  0
   39.6640   29.4440   40.3050 C   0  0  0  0  0  0  0  0  0  0  0  0
   39.1150   28.1950   40.3220 N   0  0  0  0  0  0  0  0  0  0  0  0
   37.9300   27.9540   40.9160 C   0  0  0  0  0  0  0  0  0  0  0  0
   37.2610   28.9380   41.5050 N   0  0  0  0  0  0  0  0  0  0  0  0
   37.1960   31.0020   42.0080 H   0  0  0  0  0  0  0  0  0  0  0  0
   40.6060   29.6450   39.8340 H   0  0  0  0  0  0  0  0  0  0  0  0
   38.0350   26.3350   43.1590 F   0  0  0  0  0  0  0  0  0  0  0  0
   37.4660   25.8060   42.0400 C   0  0  0  0  0  0  0  0  0  0  0  0
   37.3980   26.5920   40.8990 C   0  0  0  0  0  0  0  0  0  0  0  0
   36.8390   26.1200   39.7420 C   0  0  0  0  0  0  0  0  0  0  0  0
   36.3340   24.8230   39.7340 C   0  0  0  0  0  0  0  0  0  0  0  0
   36.3920   24.0130   40.8720 C   0  0  0  0  0  0  0  0  0  0  0  0
   36.9710   24.5270   42.0410 C   0  0  0  0  0  0  0  0  0  0  0  0
   36.7670   26.7110   38.8210 H   0  0  0  0  0  0  0  0  0  0  0  0
   35.8790   24.3890   38.8510 H   0  0  0  0  0  0  0  0  0  0  0  0
   36.0080   23.0040   40.8910 H   0  0  0  0  0  0  0  0  0  0  0  0
   37.0390   23.9320   42.9560 H   0  0  0  0  0  0  0  0  0  0  0  0
   39.5070   31.8330   40.9320 C   0  0  0  0  0  3  0  0  0  0  0  0
   39.0500   32.8150   40.1460 C   0  0  0  0  0  3  0  0  0  0  0  0
   39.7130   34.1720   40.2290 C   0  0  0  0  0  0  0  0  0  0  0  0
   39.2160   34.8020   39.4410 H   0  0  0  0  0  0  0  0  0  0  0  0
   39.4910   34.6460   41.1840 H   0  0  0  0  0  0  0  0  0  0  0  0
   41.1290   34.1530   39.9920 C   0  0  0  0  0  0  0  0  0  0  0  0
   42.1720   34.3020   40.8500 C   0  0  0  0  0  0  0  0  0  0  0  0
   41.9870   34.4640   41.9020 H   0  0  0  0  0  0  0  0  0  0  0  0
   43.4620   34.2480   40.3930 C   0  0  0  0  0  3  0  0  0  0  0  0
   43.6370   34.0300   38.9900 C   0  0  0  0  0  3  0  0  0  0  0  0
   41.8790   33.9010   38.3240 S   0  0  0  0  0  0  0  0  0  0  0  0
  1  7  1  0  0  0  0
  2  1  2  0  0  0  0
  3  4  2  0  0  0  0
  3  2  1  0  0  0  0
  4  5  1  0  0  0  0
  5  6  2  0  0  0  0
  6  1  1  0  0  0  0
  8  3  1  0  0  0  0
 10 15  1  0  0  0  0
 10  9  1  0  0  0  0
 11  5  1  0  0  0  0
 11 10  2  0  0  0  0
 12 11  1  0  0  0  0
 13 12  2  0  0  0  0
 13 14  1  0  0  0  0
 14 18  1  0  0  0  0
 14 15  2  0  0  0  0
 15 19  1  0  0  0  0
 16 12  1  0  0  0  0
 17 13  1  0  0  0  0
 20  2  1  0  0  0  0
 21 22  1  0  0  0  0
 21 20  2  0  0  0  0
 22 24  1  0  0  0  0
 23 22  1  0  0  0  0
 25 22  1  0  0  0  0
 25 26  2  0  0  0  0
 26 27  1  0  0  0  0
 28 26  1  0  0  0  0
 29 28  2  0  0  0  0
 30 29  1  0  0  0  0
 30 25  1  0  0  0  0
M  END
>  <minimizedAffinity>
-4.88114882

$$$$

 OpenBabel03252501493D

 30 32  0  0  0  0  0  0  0  0999 V2000
   35.6220   27.8750   37.9110 C   0  0  0  0  0  0  0  0  0  0  0  0
   34.3460   28.4490   38.0300 C   0  0  0  0  0  0  0  0  0  0  0  0
   33.9950   29.0910   39.2400 C   0  0  0  0  0  0  0  0  0  0  0  0
   34.9300   29.1170   40.2340 N   0  0  0  0  0  0  0  0  0  0  0  0
   36.1430   28.5530   40.0750 C   0  0  0  0  0  0  0  0  0  0  0  0
   36.4620   27.9520   38.9340 N   0  0  0  0  0  0  0  0  0  0  0  0
   35.8470   27.3970   36.9760 H   0  0  0  0  0  0  0  0  0  0  0  0
   33.0280   29.5370   39.3570 H   0  0  0  0  0  0  0  0  0  0  0  0
   36.6640   26.3450   41.6610 F   0  0  0  0  0  0  0  0  0  0  0  0
   37.3370   27.4910   41.9570 C   0  0  0  0  0  0  0  0  0  0  0  0
   37.0990   28.6160   41.1800 C   0  0  0  0  0  0  0  0  0  0  0  0
   37.7430   29.7990   41.4240 C   0  0  0  0  0  0  0  0  0  0  0  0
   38.6520   29.8500   42.4770 C   0  0  0  0  0  0  0  0  0  0  0  0
   38.9070   28.7290   43.2730 C   0  0  0  0  0  0  0  0  0  0  0  0
   38.2300   27.5330   42.9960 C   0  0  0  0  0  0  0  0  0  0  0  0
   37.5820   30.7080   40.8320 H   0  0  0  0  0  0  0  0  0  0  0  0
   39.1950   30.7560   42.7230 H   0  0  0  0  0  0  0  0  0  0  0  0
   39.6070   28.7440   44.0950 H   0  0  0  0  0  0  0  0  0  0  0  0
   38.3970   26.6300   43.5900 H   0  0  0  0  0  0  0  0  0  0  0  0
   33.3630   28.4050   36.9470 C   0  0  0  0  0  3  0  0  0  0  0  0
   32.4780   29.3840   36.7240 C   0  0  0  0  0  3  0  0  0  0  0  0
   31.5090   29.2290   35.5730 C   0  0  0  0  0  0  0  0  0  0  0  0
   32.1190   28.8460   34.7100 H   0  0  0  0  0  0  0  0  0  0  0  0
   30.7740   28.4570   35.7950 H   0  0  0  0  0  0  0  0  0  0  0  0
   30.8560   30.4480   35.1820 C   0  0  0  0  0  0  0  0  0  0  0  0
   31.1560   31.3340   34.1960 C   0  0  0  0  0  0  0  0  0  0  0  0
   32.0090   31.1630   33.5570 H   0  0  0  0  0  0  0  0  0  0  0  0
   30.3800   32.4470   34.0030 C   0  0  0  0  0  3  0  0  0  0  0  0
   29.2640   32.6120   34.8830 C   0  0  0  0  0  3  0  0  0  0  0  0
   29.3490   31.1090   36.0180 S   0  0  0  0  0  0  0  0  0  0  0  0
  1  2  2  0  0  0  0
  1  6  1  0  0  0  0
  2  3  1  0  0  0  0
  3  8  1  0  0  0  0
  3  4  2  0  0  0  0
  5  4  1  0  0  0  0
  5 11  1  0  0  0  0
  6  5  2  0  0  0  0
  7  1  1  0  0  0  0
  9 10  1  0  0  0  0
 10 15  1  0  0  0  0
 11 12  1  0  0  0  0
 11 10  2  0  0  0  0
 12 13  2  0  0  0  0
 13 17  1  0  0  0  0
 13 14  1  0  0  0  0
 14 18  1  0  0  0  0
 15 14  2  0  0  0  0
 15 19  1  0  0  0  0
 16 12  1  0  0  0  0
 20  2  1  0  0  0  0
 21 20  2  0  0  0  0
 22 24  1  0  0  0  0
 22 21  1  0  0  0  0
 23 22  1  0  0  0  0
 25 22  1  0  0  0  0
 25 30  1  0  0  0  0
 26 25  2  0  0  0  0
 27 26  1  0  0  0  0
 28 26  1  0  0  0  0
 28 29  2  0  0  0  0
 29 30  1  0  0  0  0
M  END
>  <minimizedAffinity>
-4.85533953

$$$$

 OpenBabel03252501493D

 30 32  0  0  0  0  0  0  0  0999 V2000
   35.5960   28.9040   40.1780 C   0  0  0  0  0  0  0  0  0  0  0  0
   35.7140   28.3440   38.8950 C   0  0  0  0  0  0  0  0  0  0  0  0
   36.8060   27.4920   38.6170 C   0  0  0  0  0  0  0  0  0  0  0  0
   37.6950   27.2570   39.6260 N   0  0  0  0  0  0  0  0  0  0  0  0
   37.5420   27.8150   40.8430 C   0  0  0  0  0  0  0  0  0  0  0  0
   36.5120   28.6150   41.0920 N   0  0  0  0  0  0  0  0  0  0  0  0
   34.7520   29.5450   40.3450 H   0  0  0  0  0  0  0  0  0  0  0  0
   36.9200   27.0520   37.6470 H   0  0  0  0  0  0  0  0  0  0  0  0
   39.6010   29.5760   41.4120 F   0  0  0  0  0  0  0  0  0  0  0  0
   39.5510   28.4270   42.1410 C   0  0  0  0  0  0  0  0  0  0  0  0
   38.5310   27.5240   41.8810 C   0  0  0  0  0  0  0  0  0  0  0  0
   38.4230   26.3500   42.5780 C   0  0  0  0  0  0  0  0  0  0  0  0
   39.3680   26.0810   43.5640 C   0  0  0  0  0  0  0  0  0  0  0  0
   40.4040   26.9760   43.8430 C   0  0  0  0  0  0  0  0  0  0  0  0
   40.4860   28.1690   43.1110 C   0  0  0  0  0  0  0  0  0  0  0  0
   37.6310   25.6120   42.4010 H   0  0  0  0  0  0  0  0  0  0  0  0
   39.3400   25.1700   44.1520 H   0  0  0  0  0  0  0  0  0  0  0  0
   41.1490   26.7890   44.6030 H   0  0  0  0  0  0  0  0  0  0  0  0
   41.2770   28.9000   43.2940 H   0  0  0  0  0  0  0  0  0  0  0  0
   34.7450   28.6140   37.8310 C   0  0  0  0  0  3  0  0  0  0  0  0
   33.4870   29.0000   38.0690 C   0  0  0  0  0  3  0  0  0  0  0  0
   32.5740   29.2500   36.8900 C   0  0  0  0  0  0  0  0  0  0  0  0
   33.0990   30.0160   36.2550 H   0  0  0  0  0  0  0  0  0  0  0  0
   32.4890   28.3530   36.2780 H   0  0  0  0  0  0  0  0  0  0  0  0
   31.2730   29.7450   37.2430 C   0  0  0  0  0  0  0  0  0  0  0  0
   30.7390   30.0400   38.4580 C   0  0  0  0  0  0  0  0  0  0  0  0
   31.3270   29.9080   39.3530 H   0  0  0  0  0  0  0  0  0  0  0  0
   29.4550   30.5070   38.5580 C   0  0  0  0  0  3  0  0  0  0  0  0
   28.7300   30.6600   37.3330 C   0  0  0  0  0  3  0  0  0  0  0  0
   29.9510   30.1100   36.0070 S   0  0  0  0  0  0  0  0  0  0  0  0
  1  7  1  0  0  0  0
  1  6  1  0  0  0  0
  2  1  2  0  0  0  0
  3  2  1  0  0  0  0
  3  4  2  0  0  0  0
  4  5  1  0  0  0  0
  5  6  2  0  0  0  0
  5 11  1  0  0  0  0
  8  3  1  0  0  0  0
  9 10  1  0  0  0  0
 10 15  1  0  0  0  0
 11 10  2  0  0  0  0
 11 12  1  0  0  0  0
 12 13  2  0  0  0  0
 13 14  1  0  0  0  0
 13 17  1  0  0  0  0
 14 18  1  0  0  0  0
 15 19  1  0  0  0  0
 15 14  2  0  0  0  0
 16 12  1  0  0  0  0
 20 21  2  0  0  0  0
 20  2  1  0  0  0  0
 22 25  1  0  0  0  0
 22 21  1  0  0  0  0
 23 22  1  0  0  0  0
 24 22  1  0  0  0  0
 25 26  2  0  0  0  0
 26 28  1  0  0  0  0
 26 27  1  0  0  0  0
 29 28  2  0  0  0  0
 30 25  1  0  0  0  0
 30 29  1  0  0  0  0
M  END
>  <minimizedAffinity>
-4.80814457

$$$$
