REMARK  Name = 
REMARK  3 active torsions:
REMARK  status: ('A' for Active; 'I' for Inactive)
REMARK    1  A    between atoms: C_3  and  C_7
REMARK    2  A    between atoms: C_7  and  C_8
REMARK    3  A    between atoms: C_8  and  C_16
REMARK                            x       y       z     vdW  Elec       q    Type
REMARK                         _______ _______ _______ _____ _____    ______ ____
ROOT
ATOM      1  C   UNL     1      46.781  34.771  41.725  0.00  0.00    +0.000 C 
ATOM      2  H   UNL     1      46.775  33.734  41.386  0.00  0.00    +0.000 HD
ATOM      3  H   UNL     1      46.235  35.364  40.975  0.00  0.00    +0.000 HD
ENDROOT
BRANCH   1   6
ATOM      4  C   UNL     1      44.551  36.044  44.490  0.00  0.00    +0.000 A 
ATOM      5  C   UNL     1      45.223  35.938  43.243  0.00  0.00    +0.000 A 
ATOM      6  C   UNL     1      46.085  34.873  43.028  0.00  0.00    +0.000 A 
ATOM      7  N   UNL     1      46.236  33.982  44.038  0.00  0.00    +0.000 NA
ATOM      8  C   UNL     1      45.595  34.094  45.210  0.00  0.00    +0.000 A 
ATOM      9  N   UNL     1      44.762  35.116  45.430  0.00  0.00    +0.000 NA
ATOM     10  H   UNL     1      43.888  36.892  44.614  0.00  0.00    +0.000 HD
ATOM     11  H   UNL     1      45.096  36.660  42.435  0.00  0.00    +0.000 HD
ATOM     12  H   UNL     1      45.762  33.345  45.976  0.00  0.00    +0.000 HD
ENDBRANCH   1   6
BRANCH   1  13
ATOM     13  C   UNL     1      48.185  35.307  41.877  0.00  0.00    +0.000 C 
ATOM     14  H   UNL     1      48.724  34.611  42.584  0.00  0.00    +0.000 HD
ATOM     15  H   UNL     1      48.225  36.297  42.325  0.00  0.00    +0.000 HD
BRANCH  13  16
ATOM     16  C   UNL     1      48.920  35.228  40.608  0.00  0.00    +0.000 A 
ATOM     17  C   UNL     1      49.719  36.154  39.979  0.00  0.00    +0.000 A 
ATOM     18  H   UNL     1      49.854  37.106  40.468  0.00  0.00    +0.000 HD
ATOM     19  C   UNL     1      50.300  35.850  38.791  0.00  0.00    +0.000 A 
ATOM     20  C   UNL     1      50.004  34.515  38.281  0.00  0.00    +0.000 A 
ATOM     21  S   UNL     1      48.890  33.813  39.598  0.00  0.00    +0.000 S 
ENDBRANCH  13  16
ENDBRANCH   1  13
TORSDOF 3
