REMARK  Name = 
REMARK  2 active torsions:
REMARK  status: ('A' for Active; 'I' for Inactive)
REMARK    1  A    between atoms: C_1  and  C_7
REMARK    2  A    between atoms: C_7  and  C_13
REMARK                            x       y       z     vdW  Elec       q    Type
REMARK                         _______ _______ _______ _____ _____    ______ ____
ROOT
ATOM      1  C   UNL     1      45.434  35.072  43.995  0.00  0.00    +0.000 A 
ATOM      2  C   UNL     1      46.497  34.297  43.507  0.00  0.00    +0.000 A 
ATOM      3  C   UNL     1      47.021  33.288  44.331  0.00  0.00    +0.000 A 
ATOM      4  N   UNL     1      46.459  33.124  45.560  0.00  0.00    +0.000 NA
ATOM      5  C   UNL     1      45.431  33.890  46.005  0.00  0.00    +0.000 A 
ATOM      6  N   UNL     1      44.920  34.869  45.209  0.00  0.00    +0.000 NA
ATOM      7  H   UNL     1      46.892  34.483  42.522  0.00  0.00    +0.000 HD
ATOM      8  H   UNL     1      47.825  32.708  43.953  0.00  0.00    +0.000 HD
ATOM      9  H   UNL     1      45.014  33.723  46.994  0.00  0.00    +0.000 HD
ENDROOT
BRANCH   1  10
ATOM     10  C   UNL     1      44.904  36.132  43.096  0.00  0.00    +0.000 C 
ATOM     11  H   UNL     1      43.807  36.257  43.331  0.00  0.00    +0.000 HD
ATOM     12  H   UNL     1      44.982  35.792  42.036  0.00  0.00    +0.000 HD
BRANCH  10  13
ATOM     13  C   UNL     1      45.533  37.400  43.232  0.00  0.00    +0.000 A 
ATOM     14  C   UNL     1      46.911  37.758  43.047  0.00  0.00    +0.000 A 
ATOM     15  H   UNL     1      47.587  36.971  42.764  0.00  0.00    +0.000 HD
ATOM     16  C   UNL     1      47.283  39.056  43.237  0.00  0.00    +0.000 A 
ATOM     17  C   UNL     1      46.199  39.991  43.625  0.00  0.00    +0.000 A 
ATOM     18  S   UNL     1      44.686  38.858  43.680  0.00  0.00    +0.000 S 
ENDBRANCH  10  13
ENDBRANCH   1  10
TORSDOF 2
