
 OpenBabel03252508463D

 42 44  0  0  0  0  0  0  0  0999 V2000
   43.1030   32.5360   41.5720 C   0  0  0  0  0  0  0  0  0  0  0  0
   42.5180   32.9120   40.7120 H   0  0  0  0  0  0  0  0  0  0  0  0
   43.8470   31.8030   41.1440 H   0  0  0  0  0  0  0  0  0  0  0  0
   43.6880   34.9600   41.8070 C   0  0  0  0  0  0  0  0  0  0  0  0
   43.9330   33.6400   42.1360 C   0  0  0  0  0  0  0  0  0  0  0  0
   44.9700   33.3570   43.0020 C   0  0  0  0  0  0  0  0  0  0  0  0
   45.7280   34.3770   43.5150 C   0  0  0  0  0  0  0  0  0  0  0  0
   45.5020   35.6990   43.2020 C   0  0  0  0  0  0  0  0  0  0  0  0
   44.4520   35.9320   42.3300 C   0  0  0  0  0  0  0  0  0  0  0  0
   45.2090   32.3440   43.2950 H   0  0  0  0  0  0  0  0  0  0  0  0
   46.5440   34.1610   44.1960 H   0  0  0  0  0  0  0  0  0  0  0  0
   46.0470   36.5400   43.5620 H   0  0  0  0  0  0  0  0  0  0  0  0
   44.2000   36.9390   42.0280 H   0  0  0  0  0  0  0  0  0  0  0  0
   40.3250   35.8440   40.3080 C   0  0  0  0  0  0  0  0  0  0  0  0
   41.3250   35.6540   41.2770 C   0  0  0  0  0  0  0  0  0  0  0  0
   42.5760   35.1930   40.8850 C   0  0  0  0  0  0  0  0  0  0  0  0
   42.7650   34.9450   39.5600 N   0  0  0  0  0  0  0  0  0  0  0  0
   41.7920   35.1320   38.6400 C   0  0  0  0  0  0  0  0  0  0  0  0
   40.5750   35.5820   39.0240 N   0  0  0  0  0  0  0  0  0  0  0  0
   39.3710   36.2000   40.6280 H   0  0  0  0  0  0  0  0  0  0  0  0
   41.1730   35.8520   42.3270 H   0  0  0  0  0  0  0  0  0  0  0  0
   42.0800   34.8960   37.6300 H   0  0  0  0  0  0  0  0  0  0  0  0
   42.2490   31.8810   42.5070 N   0  0  0  0  0  0  0  0  0  0  0  0
   42.3080   32.2220   43.4830 H   0  0  0  0  0  0  0  0  0  0  0  0
   40.6220   31.8500   41.9990 S   0  0  0  0  0  0  0  0  0  0  0  0
   39.8230   32.9570   42.6460 O   0  0  0  0  0  0  0  0  0  0  0  0
   39.3440   32.7520   43.5060 H   0  0  0  0  0  0  0  0  0  0  0  0
   39.9850   30.5350   42.2970 O   0  0  0  0  0  0  0  0  0  0  0  0
   39.0580   30.3780   42.6040 H   0  0  0  0  0  0  0  0  0  0  0  0
   40.5950   32.1020   40.3370 O   0  0  0  0  0  0  0  0  0  0  0  0
   39.2800   32.2860   39.9470 C   0  0  0  0  0  0  0  0  0  0  0  0
   39.1360   33.3540   39.7670 H   0  0  0  0  0  0  0  0  0  0  0  0
   38.5240   31.9370   40.6630 H   0  0  0  0  0  0  0  0  0  0  0  0
   39.0050   31.5200   38.6630 C   0  0  0  0  0  0  0  0  0  0  0  0
   39.9510   31.2410   38.1510 H   0  0  0  0  0  0  0  0  0  0  0  0
   38.3490   32.1390   38.0120 H   0  0  0  0  0  0  0  0  0  0  0  0
   38.1900   30.2970   38.9550 C   0  0  0  0  0  0  0  0  0  0  0  0
   38.0340   29.1440   38.1300 C   0  0  0  0  0  0  0  0  0  0  0  0
   38.5470   29.1300   37.1890 H   0  0  0  0  0  0  0  0  0  0  0  0
   37.2410   28.1590   38.6210 C   0  0  0  0  0  3  0  0  0  0  0  0
   36.6050   28.2790   39.8870 C   0  0  0  0  0  3  0  0  0  0  0  0
   37.1800   29.9560   40.4540 S   0  0  0  0  0  0  0  0  0  0  0  0
  1  5  1  0  0  0  0
  1 23  1  0  0  0  0
  2  1  1  0  0  0  0
  3  1  1  0  0  0  0
  4  5  2  0  0  0  0
  4  9  1  0  0  0  0
  5  6  1  0  0  0  0
  6 10  1  0  0  0  0
  6  7  2  0  0  0  0
  7 11  1  0  0  0  0
  8  7  1  0  0  0  0
  8 12  1  0  0  0  0
  9  8  2  0  0  0  0
 13  9  1  0  0  0  0
 14 20  1  0  0  0  0
 14 15  1  0  0  0  0
 15 21  1  0  0  0  0
 16 15  2  0  0  0  0
 16  4  1  0  0  0  0
 17 16  1  0  0  0  0
 18 19  1  0  0  0  0
 18 17  2  0  0  0  0
 19 14  2  0  0  0  0
 22 18  1  0  0  0  0
 23 24  1  0  0  0  0
 25 28  1  0  0  0  0
 25 23  1  0  0  0  0
 25 26  1  0  0  0  0
 26 27  1  0  0  0  0
 28 29  1  0  0  0  0
 30 25  1  0  0  0  0
 31 30  1  0  0  0  0
 31 33  1  0  0  0  0
 32 31  1  0  0  0  0
 34 37  1  0  0  0  0
 34 31  1  0  0  0  0
 35 34  1  0  0  0  0
 36 34  1  0  0  0  0
 37 42  1  0  0  0  0
 38 40  1  0  0  0  0
 38 37  2  0  0  0  0
 39 38  1  0  0  0  0
 40 41  2  0  0  0  0
 41 42  1  0  0  0  0
M  END
>  <minimizedAffinity>
-5.24783373

>  <minimizedRMSD>
2.70966196

$$$$
