
 OpenBabel03252508073D

 41 44  0  0  0  0  0  0  0  0999 V2000
   45.2170   35.8710   43.0060 C   0  0  0  0  0  0  0  0  0  0  0  0
   45.4860   34.5120   43.0410 C   0  0  0  0  0  0  0  0  0  0  0  0
   45.2960   33.8010   44.2000 C   0  0  0  0  0  0  0  0  0  0  0  0
   44.8320   34.5000   45.2950 N   0  0  0  0  0  0  0  0  0  0  0  0
   44.5730   35.8060   45.2610 C   0  0  0  0  0  0  0  0  0  0  0  0
   44.7700   36.4830   44.1110 N   0  0  0  0  0  0  0  0  0  0  0  0
   45.3700   36.4410   42.0810 H   0  0  0  0  0  0  0  0  0  0  0  0
   44.2130   36.3040   46.1480 H   0  0  0  0  0  0  0  0  0  0  0  0
   45.5240   32.4190   44.3920 C   0  0  0  0  0  0  0  0  0  0  0  0
   45.0740   31.4220   43.5250 C   0  0  0  0  0  0  0  0  0  0  0  0
   45.2370   30.0790   43.7450 C   0  0  0  0  0  0  0  0  0  0  0  0
   45.8790   29.6480   44.8790 C   0  0  0  0  0  0  0  0  0  0  0  0
   46.3500   30.6510   45.7810 C   0  0  0  0  0  0  0  0  0  0  0  0
   46.9900   30.2230   46.9150 C   0  0  0  0  0  0  0  0  0  0  0  0
   47.4710   31.1410   47.8250 C   0  0  0  0  0  0  0  0  0  0  0  0
   47.3000   32.5110   47.5790 C   0  0  0  0  0  0  0  0  0  0  0  0
   46.6360   32.8960   46.4010 C   0  0  0  0  0  0  0  0  0  0  0  0
   46.1630   31.9680   45.5150 C   0  0  0  0  0  0  0  0  0  0  0  0
   44.5620   31.7120   42.6190 H   0  0  0  0  0  0  0  0  0  0  0  0
   44.8570   29.3600   43.0170 H   0  0  0  0  0  0  0  0  0  0  0  0
   46.0130   28.6080   45.0650 H   0  0  0  0  0  0  0  0  0  0  0  0
   47.1130   29.1590   47.0850 H   0  0  0  0  0  0  0  0  0  0  0  0
   47.9670   30.7400   48.7040 H   0  0  0  0  0  0  0  0  0  0  0  0
   47.7080   33.1400   48.3420 H   0  0  0  0  0  0  0  0  0  0  0  0
   46.6260   33.9650   46.3830 H   0  0  0  0  0  0  0  0  0  0  0  0
   45.9370   33.9390   41.8820 O   0  0  0  0  0  0  0  0  0  0  0  0
   47.9570   32.3080   41.5430 O   0  0  0  0  0  0  0  0  0  0  0  0
   47.5710   33.7450   41.4830 P   0  0  1  0  0  0  0  0  0  0  0  0
   47.8670   34.2690   39.9000 O   0  0  0  0  0  0  0  0  0  0  0  0
   48.4410   33.4000   38.9290 C   0  0  0  0  0  0  0  0  0  0  0  0
   49.2040   32.2110   38.6930 C   0  0  0  0  0  0  0  0  0  0  0  0
   49.4240   31.8290   39.6700 H   0  0  0  0  0  0  0  0  0  0  0  0
   49.4010   31.9490   37.3690 C   0  0  0  0  0  3  0  0  0  0  0  0
   48.9300   32.7240   36.3680 C   0  0  0  0  0  3  0  0  0  0  0  0
   48.0650   34.0550   37.1920 S   0  0  0  0  0  0  0  0  0  0  0  0
   48.4880   34.6660   42.5400 O   0  0  0  0  0  0  0  0  0  0  0  0
   49.6990   35.2820   42.2660 C   0  0  0  0  0  0  0  0  0  0  0  0
   49.3900   36.3560   41.7170 O   0  0  0  0  0  0  0  0  0  0  0  0
   50.8000   34.4670   42.7110 N   0  0  0  0  0  0  0  0  0  0  0  0
   51.5230   33.9420   42.1650 H   0  0  0  0  0  0  0  0  0  0  0  0
   50.9170   34.3690   43.7440 H   0  0  0  0  0  0  0  0  0  0  0  0
  1  2  2  0  0  0  0
  1  6  1  0  0  0  0
  2  3  1  0  0  0  0
  3  9  1  0  0  0  0
  3  4  2  0  0  0  0
  5  4  1  0  0  0  0
  5  8  1  0  0  0  0
  6  5  2  0  0  0  0
  7  1  1  0  0  0  0
  9 18  1  0  0  0  0
 10 11  1  0  0  0  0
 10  9  2  0  0  0  0
 11 12  2  0  0  0  0
 12 21  1  0  0  0  0
 12 13  1  0  0  0  0
 13 14  1  0  0  0  0
 14 22  1  0  0  0  0
 14 15  2  0  0  0  0
 15 23  1  0  0  0  0
 16 15  1  0  0  0  0
 16 24  1  0  0  0  0
 17 16  2  0  0  0  0
 18 13  2  0  0  0  0
 18 17  1  0  0  0  0
 19 10  1  0  0  0  0
 20 11  1  0  0  0  0
 25 17  1  0  0  0  0
 26  2  1  0  0  0  0
 28 27  2  1  0  0  0
 28 26  1  0  0  0  0
 28 36  1  0  0  0  0
 29 28  1  0  0  0  0
 30 29  1  0  0  0  0
 31 30  2  0  0  0  0
 31 32  1  0  0  0  0
 33 31  1  0  0  0  0
 34 35  1  0  0  0  0
 34 33  2  0  0  0  0
 35 30  1  0  0  0  0
 37 36  1  0  0  0  0
 37 39  1  0  0  0  0
 38 37  2  0  0  0  0
 39 41  1  0  0  0  0
 40 39  1  0  0  0  0
M  END
>  <minimizedAffinity>
-6.05931377

>  <minimizedRMSD>
0.736015201

$$$$
