
 OpenBabel03252508553D

 40 43  0  0  1  0  0  0  0  0999 V2000
   37.2540   28.7450   40.1510 C   0  0  0  0  0  0  0  0  0  0  0  0
   36.2260   27.9850   40.1060 O   0  0  0  0  0  0  0  0  0  0  0  0
   37.8730   28.2100   41.3480 N   0  0  0  0  0  0  0  0  0  0  0  0
   38.2390   26.8150   41.2890 C   0  0  0  0  0  0  0  0  0  0  0  0
   37.1240   26.0880   42.0520 C   0  0  0  0  0  0  0  0  0  0  0  0
   36.7210   27.0130   43.2090 C   0  0  0  0  0  0  0  0  0  0  0  0
   37.9070   27.8670   43.6680 C   0  0  0  0  0  0  0  0  0  0  0  0
   38.1700   28.9160   42.6060 C   0  0  1  0  0  0  0  0  0  0  0  0
   39.1950   26.6190   41.8170 H   0  0  0  0  0  0  0  0  0  0  0  0
   38.2200   26.4000   40.2720 H   0  0  0  0  0  0  0  0  0  0  0  0
   36.2580   25.9920   41.3490 H   0  0  0  0  0  0  0  0  0  0  0  0
   37.4660   25.1010   42.4300 H   0  0  0  0  0  0  0  0  0  0  0  0
   36.3100   26.3960   44.0040 H   0  0  0  0  0  0  0  0  0  0  0  0
   35.9230   27.7120   42.8680 H   0  0  0  0  0  0  0  0  0  0  0  0
   38.7690   27.1860   43.7400 H   0  0  0  0  0  0  0  0  0  0  0  0
   37.6160   28.2900   44.6450 H   0  0  0  0  0  0  0  0  0  0  0  0
   37.3370   29.6500   42.6970 H   0  0  0  0  0  0  0  0  0  0  0  0
   39.4190   29.5240   42.6180 C   0  0  0  0  0  0  0  0  0  0  0  0
   39.9240   30.7980   42.4820 C   0  0  0  0  0  0  0  0  0  0  0  0
   39.1780   31.5540   42.3180 H   0  0  0  0  0  0  0  0  0  0  0  0
   41.2550   31.0900   42.5460 C   0  0  0  0  0  3  0  0  0  0  0  0
   42.1520   29.8870   42.7830 C   0  0  0  0  0  3  0  0  0  0  0  0
   40.8540   28.5070   42.8720 S   0  0  0  0  0  0  0  0  0  0  0  0
   37.5980   29.7430   39.2910 O   0  0  0  0  0  0  0  0  0  0  0  0
   38.8100   29.8830   38.6430 C   0  0  0  0  0  0  0  0  0  0  0  0
   39.3470   31.1780   38.5440 C   0  0  0  0  0  0  0  0  0  0  0  0
   40.5780   31.2940   37.8810 C   0  0  0  0  0  0  0  0  0  0  0  0
   41.1700   30.1660   37.3810 N   0  0  0  0  0  0  0  0  0  0  0  0
   40.6110   28.9700   37.5060 C   0  0  0  0  0  0  0  0  0  0  0  0
   39.4290   28.8130   38.1360 N   0  0  0  0  0  0  0  0  0  0  0  0
   41.0050   32.2810   37.7960 H   0  0  0  0  0  0  0  0  0  0  0  0
   41.0990   28.0860   37.1010 H   0  0  0  0  0  0  0  0  0  0  0  0
   38.6380   32.3050   39.1090 C   0  0  0  0  0  0  0  0  0  0  0  0
   39.2690   33.2830   39.8720 C   0  0  0  0  0  0  0  0  0  0  0  0
   38.2630   34.1500   40.2070 C   0  0  0  0  0  0  0  0  0  0  0  0
   37.0840   33.7300   39.6810 N   0  0  0  0  0  0  0  0  0  0  0  0
   37.3540   32.6170   39.0280 N   0  0  0  0  0  0  0  0  0  0  0  0
   40.3090   33.3730   40.1580 H   0  0  0  0  0  0  0  0  0  0  0  0
   38.2940   35.0590   40.7950 H   0  0  0  0  0  0  0  0  0  0  0  0
   36.1080   34.1110   39.7110 H   0  0  0  0  0  0  0  0  0  0  0  0
  1  3  1  0  0  0  0
  2  1  2  0  0  0  0
  3  8  1  0  0  0  0
  4  3  1  0  0  0  0
  4  9  1  0  0  0  0
  4  5  1  0  0  0  0
  5 12  1  0  0  0  0
  5  6  1  0  0  0  0
  6  7  1  0  0  0  0
  6 13  1  0  0  0  0
  7 15  1  0  0  0  0
  7 16  1  0  0  0  0
  8 18  1  0  0  0  0
  8 17  1  1  0  0  0
  8  7  1  0  0  0  0
 10  4  1  0  0  0  0
 11  5  1  0  0  0  0
 14  6  1  0  0  0  0
 18 23  1  0  0  0  0
 19 21  1  0  0  0  0
 19 18  2  0  0  0  0
 20 19  1  0  0  0  0
 21 22  2  0  0  0  0
 22 23  1  0  0  0  0
 24  1  1  0  0  0  0
 25 24  1  0  0  0  0
 26 25  1  0  0  0  0
 26 33  1  0  0  0  0
 27 26  2  0  0  0  0
 28 29  2  0  0  0  0
 28 27  1  0  0  0  0
 29 30  1  0  0  0  0
 30 25  2  0  0  0  0
 31 27  1  0  0  0  0
 32 29  1  0  0  0  0
 33 34  1  0  0  0  0
 34 38  1  0  0  0  0
 34 35  2  0  0  0  0
 35 39  1  0  0  0  0
 36 40  1  0  0  0  0
 36 35  1  0  0  0  0
 37 33  2  0  0  0  0
 37 36  1  0  0  0  0
M  END
>  <minimizedAffinity>
-5.9200263

$$$$

 OpenBabel03252508553D

 40 43  0  0  1  0  0  0  0  0999 V2000
   37.7550   27.9710   39.9960 C   0  0  0  0  0  0  0  0  0  0  0  0
   36.6810   27.2770   39.9410 O   0  0  0  0  0  0  0  0  0  0  0  0
   38.1080   27.7250   41.3800 N   0  0  0  0  0  0  0  0  0  0  0  0
   38.3430   26.3440   41.7270 C   0  0  0  0  0  0  0  0  0  0  0  0
   37.0500   25.8910   42.4170 C   0  0  0  0  0  0  0  0  0  0  0  0
   36.5470   27.0970   43.2230 C   0  0  0  0  0  0  0  0  0  0  0  0
   37.7140   27.9780   43.6780 C   0  0  0  0  0  0  0  0  0  0  0  0
   38.2540   28.7100   42.4660 C   0  0  1  0  0  0  0  0  0  0  0  0
   39.1710   26.2390   42.4560 H   0  0  0  0  0  0  0  0  0  0  0  0
   38.4560   25.6870   40.8530 H   0  0  0  0  0  0  0  0  0  0  0  0
   36.3100   25.6640   41.6080 H   0  0  0  0  0  0  0  0  0  0  0  0
   37.2260   25.0150   43.0780 H   0  0  0  0  0  0  0  0  0  0  0  0
   35.9500   26.7230   44.0500 H   0  0  0  0  0  0  0  0  0  0  0  0
   35.8890   27.7280   42.5810 H   0  0  0  0  0  0  0  0  0  0  0  0
   38.4820   27.2940   44.0730 H   0  0  0  0  0  0  0  0  0  0  0  0
   37.3040   28.6490   44.4530 H   0  0  0  0  0  0  0  0  0  0  0  0
   37.4920   29.4840   42.2200 H   0  0  0  0  0  0  0  0  0  0  0  0
   39.5340   29.2360   42.5670 C   0  0  0  0  0  0  0  0  0  0  0  0
   40.7920   28.7800   42.8950 C   0  0  0  0  0  0  0  0  0  0  0  0
   40.8320   27.7370   43.1490 H   0  0  0  0  0  0  0  0  0  0  0  0
   41.9020   29.5740   42.9000 C   0  0  0  0  0  3  0  0  0  0  0  0
   41.6430   31.0200   42.5130 C   0  0  0  0  0  3  0  0  0  0  0  0
   39.7740   30.9580   42.2000 S   0  0  0  0  0  0  0  0  0  0  0  0
   38.3340   28.7000   39.0020 O   0  0  0  0  0  0  0  0  0  0  0  0
   37.8040   28.9440   37.7500 C   0  0  0  0  0  0  0  0  0  0  0  0
   37.1820   30.1860   37.5390 C   0  0  0  0  0  0  0  0  0  0  0  0
   36.6520   30.4090   36.2600 C   0  0  0  0  0  0  0  0  0  0  0  0
   36.7670   29.4260   35.3140 N   0  0  0  0  0  0  0  0  0  0  0  0
   37.3660   28.2720   35.5750 C   0  0  0  0  0  0  0  0  0  0  0  0
   37.8910   28.0170   36.7920 N   0  0  0  0  0  0  0  0  0  0  0  0
   36.1710   31.3580   36.0800 H   0  0  0  0  0  0  0  0  0  0  0  0
   37.4470   27.5050   34.8090 H   0  0  0  0  0  0  0  0  0  0  0  0
   37.1140   31.1570   38.6100 C   0  0  0  0  0  0  0  0  0  0  0  0
   37.8700   32.3250   38.6130 C   0  0  0  0  0  0  0  0  0  0  0  0
   37.5170   32.9520   39.7780 C   0  0  0  0  0  0  0  0  0  0  0  0
   36.5990   32.2130   40.4520 N   0  0  0  0  0  0  0  0  0  0  0  0
   36.3840   31.1420   39.7140 N   0  0  0  0  0  0  0  0  0  0  0  0
   38.5830   32.6890   37.8840 H   0  0  0  0  0  0  0  0  0  0  0  0
   37.8570   33.8920   40.1940 H   0  0  0  0  0  0  0  0  0  0  0  0
   36.0940   32.3480   41.3600 H   0  0  0  0  0  0  0  0  0  0  0  0
  1  3  1  0  0  0  0
  2  1  2  0  0  0  0
  3  4  1  0  0  0  0
  3  8  1  0  0  0  0
  4  5  1  0  0  0  0
  4  9  1  0  0  0  0
  5 12  1  0  0  0  0
  5  6  1  0  0  0  0
  6  7  1  0  0  0  0
  6 13  1  0  0  0  0
  7 15  1  0  0  0  0
  7 16  1  0  0  0  0
  8 17  1  6  0  0  0
  8 18  1  0  0  0  0
  8  7  1  0  0  0  0
 10  4  1  0  0  0  0
 11  5  1  0  0  0  0
 14  6  1  0  0  0  0
 18 19  2  0  0  0  0
 19 21  1  0  0  0  0
 19 20  1  0  0  0  0
 22 21  2  0  0  0  0
 23 22  1  0  0  0  0
 23 18  1  0  0  0  0
 24  1  1  0  0  0  0
 25 24  1  0  0  0  0
 26 25  1  0  0  0  0
 26 33  1  0  0  0  0
 27 26  2  0  0  0  0
 28 29  2  0  0  0  0
 28 27  1  0  0  0  0
 29 30  1  0  0  0  0
 30 25  2  0  0  0  0
 31 27  1  0  0  0  0
 32 29  1  0  0  0  0
 33 34  1  0  0  0  0
 33 37  2  0  0  0  0
 34 35  2  0  0  0  0
 35 39  1  0  0  0  0
 35 36  1  0  0  0  0
 36 40  1  0  0  0  0
 37 36  1  0  0  0  0
 38 34  1  0  0  0  0
M  END
>  <minimizedAffinity>
-5.91532898

$$$$

 OpenBabel03252508553D

 40 43  0  0  1  0  0  0  0  0999 V2000
   39.5260   28.7710   40.6130 C   0  0  0  0  0  0  0  0  0  0  0  0
   40.4660   28.3470   41.3700 O   0  0  0  0  0  0  0  0  0  0  0  0
   38.4000   28.1670   41.2980 N   0  0  0  0  0  0  0  0  0  0  0  0
   38.2130   28.5780   42.6690 C   0  0  0  0  0  0  0  0  0  0  0  0
   38.7940   27.4290   43.5020 C   0  0  0  0  0  0  0  0  0  0  0  0
   38.4570   26.1360   42.7460 C   0  0  0  0  0  0  0  0  0  0  0  0
   37.1570   26.2880   41.9510 C   0  0  0  0  0  0  0  0  0  0  0  0
   37.4330   27.1920   40.7660 C   0  0  1  0  0  0  0  0  0  0  0  0
   37.1380   28.6730   42.9260 H   0  0  0  0  0  0  0  0  0  0  0  0
   38.7990   29.4670   42.9440 H   0  0  0  0  0  0  0  0  0  0  0  0
   39.9060   27.5610   43.5120 H   0  0  0  0  0  0  0  0  0  0  0  0
   38.3680   27.4130   44.5290 H   0  0  0  0  0  0  0  0  0  0  0  0
   38.4200   25.3240   43.4690 H   0  0  0  0  0  0  0  0  0  0  0  0
   39.2670   25.9090   42.0150 H   0  0  0  0  0  0  0  0  0  0  0  0
   36.4360   26.7710   42.6280 H   0  0  0  0  0  0  0  0  0  0  0  0
   36.8550   25.2650   41.6660 H   0  0  0  0  0  0  0  0  0  0  0  0
   38.0400   26.5820   40.0590 H   0  0  0  0  0  0  0  0  0  0  0  0
   36.3340   27.7800   40.1540 C   0  0  0  0  0  0  0  0  0  0  0  0
   35.4650   28.8150   40.4170 C   0  0  0  0  0  0  0  0  0  0  0  0
   35.6580   29.3320   41.3390 H   0  0  0  0  0  0  0  0  0  0  0  0
   34.4420   29.1670   39.5860 C   0  0  0  0  0  3  0  0  0  0  0  0
   34.3310   28.3190   38.3300 C   0  0  0  0  0  3  0  0  0  0  0  0
   35.7820   27.1270   38.5970 S   0  0  0  0  0  0  0  0  0  0  0  0
   39.6300   29.5560   39.5050 O   0  0  0  0  0  0  0  0  0  0  0  0
   38.9090   29.4200   38.3350 C   0  0  0  0  0  0  0  0  0  0  0  0
   37.9830   30.4290   38.0210 C   0  0  0  0  0  0  0  0  0  0  0  0
   37.2640   30.2670   36.8280 C   0  0  0  0  0  0  0  0  0  0  0  0
   37.5010   29.1610   36.0560 N   0  0  0  0  0  0  0  0  0  0  0  0
   38.3900   28.2420   36.4070 C   0  0  0  0  0  0  0  0  0  0  0  0
   39.1030   28.3590   37.5470 N   0  0  0  0  0  0  0  0  0  0  0  0
   36.5480   31.0330   36.5710 H   0  0  0  0  0  0  0  0  0  0  0  0
   38.5630   27.3710   35.7790 H   0  0  0  0  0  0  0  0  0  0  0  0
   37.8100   31.5590   38.9080 C   0  0  0  0  0  0  0  0  0  0  0  0
   38.7190   32.6110   38.9690 C   0  0  0  0  0  0  0  0  0  0  0  0
   38.1950   33.4540   39.9130 C   0  0  0  0  0  0  0  0  0  0  0  0
   37.0340   32.9500   40.4030 N   0  0  0  0  0  0  0  0  0  0  0  0
   36.8390   31.8090   39.7710 N   0  0  0  0  0  0  0  0  0  0  0  0
   39.6370   32.7650   38.4170 H   0  0  0  0  0  0  0  0  0  0  0  0
   38.5680   34.4000   40.2860 H   0  0  0  0  0  0  0  0  0  0  0  0
   36.3500   33.2890   41.1210 H   0  0  0  0  0  0  0  0  0  0  0  0
  1  3  1  0  0  0  0
  1  2  2  0  0  0  0
  3  4  1  0  0  0  0
  4  9  1  0  0  0  0
  4 10  1  0  0  0  0
  4  5  1  0  0  0  0
  5 11  1  0  0  0  0
  5 12  1  0  0  0  0
  6 13  1  0  0  0  0
  6  5  1  0  0  0  0
  7 15  1  0  0  0  0
  7  6  1  0  0  0  0
  8 17  1  6  0  0  0
  8  3  1  0  0  0  0
  8  7  1  0  0  0  0
 14  6  1  0  0  0  0
 16  7  1  0  0  0  0
 18 19  2  0  0  0  0
 18  8  1  0  0  0  0
 19 20  1  0  0  0  0
 21 19  1  0  0  0  0
 22 23  1  0  0  0  0
 22 21  2  0  0  0  0
 23 18  1  0  0  0  0
 24  1  1  0  0  0  0
 25 24  1  0  0  0  0
 26 25  1  0  0  0  0
 26 33  1  0  0  0  0
 27 26  2  0  0  0  0
 28 29  2  0  0  0  0
 28 27  1  0  0  0  0
 29 30  1  0  0  0  0
 30 25  2  0  0  0  0
 31 27  1  0  0  0  0
 32 29  1  0  0  0  0
 33 34  1  0  0  0  0
 33 37  2  0  0  0  0
 34 35  2  0  0  0  0
 35 39  1  0  0  0  0
 35 36  1  0  0  0  0
 36 40  1  0  0  0  0
 37 36  1  0  0  0  0
 38 34  1  0  0  0  0
M  END
>  <minimizedAffinity>
-5.65113401

$$$$

 OpenBabel03252508553D

 40 43  0  0  1  0  0  0  0  0999 V2000
   37.5560   27.2370   41.2450 C   0  0  0  0  0  0  0  0  0  0  0  0
   37.2390   26.0200   41.4820 O   0  0  0  0  0  0  0  0  0  0  0  0
   38.8840   27.2380   41.8260 N   0  0  0  0  0  0  0  0  0  0  0  0
   39.8230   26.3130   41.2370 C   0  0  0  0  0  0  0  0  0  0  0  0
   39.8590   25.1250   42.2060 C   0  0  0  0  0  0  0  0  0  0  0  0
   39.7240   25.7160   43.6160 C   0  0  0  0  0  0  0  0  0  0  0  0
   40.3170   27.1270   43.6800 C   0  0  0  0  0  0  0  0  0  0  0  0
   39.3840   28.0630   42.9380 C   0  0  1  0  0  0  0  0  0  0  0  0
   40.8440   26.7420   41.1870 H   0  0  0  0  0  0  0  0  0  0  0  0
   39.4850   25.9000   40.2760 H   0  0  0  0  0  0  0  0  0  0  0  0
   38.9560   24.4990   41.9900 H   0  0  0  0  0  0  0  0  0  0  0  0
   40.8020   24.5460   42.1050 H   0  0  0  0  0  0  0  0  0  0  0  0
   40.1920   25.0270   44.3160 H   0  0  0  0  0  0  0  0  0  0  0  0
   38.6450   25.7990   43.8850 H   0  0  0  0  0  0  0  0  0  0  0  0
   41.2860   27.0780   43.1600 H   0  0  0  0  0  0  0  0  0  0  0  0
   40.4210   27.3640   44.7530 H   0  0  0  0  0  0  0  0  0  0  0  0
   38.4940   28.1820   43.5970 H   0  0  0  0  0  0  0  0  0  0  0  0
   39.9100   29.2820   42.5300 C   0  0  0  0  0  0  0  0  0  0  0  0
   39.4280   30.4960   42.0920 C   0  0  0  0  0  0  0  0  0  0  0  0
   38.3560   30.5520   42.0380 H   0  0  0  0  0  0  0  0  0  0  0  0
   40.2300   31.5460   41.7540 C   0  0  0  0  0  3  0  0  0  0  0  0
   41.7170   31.2730   41.8970 C   0  0  0  0  0  3  0  0  0  0  0  0
   41.6760   29.4820   42.5190 S   0  0  0  0  0  0  0  0  0  0  0  0
   36.8110   28.1910   40.6220 O   0  0  0  0  0  0  0  0  0  0  0  0
   36.2740   28.1120   39.3520 C   0  0  0  0  0  0  0  0  0  0  0  0
   36.1010   29.3130   38.6440 C   0  0  0  0  0  0  0  0  0  0  0  0
   35.5530   29.2050   37.3570 C   0  0  0  0  0  0  0  0  0  0  0  0
   35.2260   27.9650   36.8780 N   0  0  0  0  0  0  0  0  0  0  0  0
   35.4140   26.8660   37.5970 C   0  0  0  0  0  0  0  0  0  0  0  0
   35.9380   26.9250   38.8390 N   0  0  0  0  0  0  0  0  0  0  0  0
   35.4130   30.1180   36.7990 H   0  0  0  0  0  0  0  0  0  0  0  0
   35.1480   25.8910   37.1960 H   0  0  0  0  0  0  0  0  0  0  0  0
   36.4800   30.5730   39.2450 C   0  0  0  0  0  0  0  0  0  0  0  0
   37.3040   31.4930   38.6030 C   0  0  0  0  0  0  0  0  0  0  0  0
   37.4130   32.5270   39.4940 C   0  0  0  0  0  0  0  0  0  0  0  0
   36.6990   32.2580   40.6180 N   0  0  0  0  0  0  0  0  0  0  0  0
   36.1530   31.0740   40.4250 N   0  0  0  0  0  0  0  0  0  0  0  0
   37.7700   31.4400   37.6280 H   0  0  0  0  0  0  0  0  0  0  0  0
   37.9580   33.4590   39.4170 H   0  0  0  0  0  0  0  0  0  0  0  0
   36.5340   32.7870   41.5080 H   0  0  0  0  0  0  0  0  0  0  0  0
  1  2  2  0  0  0  0
  1  3  1  0  0  0  0
  3  8  1  0  0  0  0
  4  3  1  0  0  0  0
  4  5  1  0  0  0  0
  5  6  1  0  0  0  0
  6  7  1  0  0  0  0
  6 14  1  0  0  0  0
  6 13  1  0  0  0  0
  7 16  1  0  0  0  0
  8 17  1  1  0  0  0
  8  7  1  0  0  0  0
  9  4  1  0  0  0  0
 10  4  1  0  0  0  0
 11  5  1  0  0  0  0
 12  5  1  0  0  0  0
 15  7  1  0  0  0  0
 18  8  1  0  0  0  0
 19 18  2  0  0  0  0
 20 19  1  0  0  0  0
 21 22  2  0  0  0  0
 21 19  1  0  0  0  0
 22 23  1  0  0  0  0
 23 18  1  0  0  0  0
 24  1  1  0  0  0  0
 25 24  1  0  0  0  0
 26 33  1  0  0  0  0
 26 25  2  0  0  0  0
 27 26  1  0  0  0  0
 28 27  2  0  0  0  0
 28 29  1  0  0  0  0
 29 30  2  0  0  0  0
 30 25  1  0  0  0  0
 31 27  1  0  0  0  0
 32 29  1  0  0  0  0
 33 37  2  0  0  0  0
 34 33  1  0  0  0  0
 34 35  2  0  0  0  0
 35 36  1  0  0  0  0
 36 40  1  0  0  0  0
 37 36  1  0  0  0  0
 38 34  1  0  0  0  0
 39 35  1  0  0  0  0
M  END
>  <minimizedAffinity>
-5.61593151

$$$$

 OpenBabel03252508553D

 40 43  0  0  1  0  0  0  0  0999 V2000
   38.7270   27.7080   40.4690 C   0  0  0  0  0  0  0  0  0  0  0  0
   39.4030   28.4660   41.2470 O   0  0  0  0  0  0  0  0  0  0  0  0
   38.4640   26.6210   41.3910 N   0  0  0  0  0  0  0  0  0  0  0  0
   37.7190   26.9750   42.5750 C   0  0  0  0  0  0  0  0  0  0  0  0
   38.7770   27.0940   43.6790 C   0  0  0  0  0  0  0  0  0  0  0  0
   39.8220   26.0070   43.3910 C   0  0  0  0  0  0  0  0  0  0  0  0
   39.1860   24.8050   42.6880 C   0  0  0  0  0  0  0  0  0  0  0  0
   38.8640   25.2090   41.2630 C   0  0  1  0  0  0  0  0  0  0  0  0
   37.0110   26.1740   42.8690 H   0  0  0  0  0  0  0  0  0  0  0  0
   37.2450   27.9650   42.5140 H   0  0  0  0  0  0  0  0  0  0  0  0
   39.2600   28.0970   43.5630 H   0  0  0  0  0  0  0  0  0  0  0  0
   38.3310   26.9600   44.6880 H   0  0  0  0  0  0  0  0  0  0  0  0
   40.3010   25.7440   44.3310 H   0  0  0  0  0  0  0  0  0  0  0  0
   40.6050   26.4130   42.7090 H   0  0  0  0  0  0  0  0  0  0  0  0
   38.2540   24.5860   43.2320 H   0  0  0  0  0  0  0  0  0  0  0  0
   39.9230   23.9860   42.7590 H   0  0  0  0  0  0  0  0  0  0  0  0
   39.8450   25.2620   40.7380 H   0  0  0  0  0  0  0  0  0  0  0  0
   37.9370   24.4310   40.5820 C   0  0  0  0  0  0  0  0  0  0  0  0
   36.5730   24.2430   40.5930 C   0  0  0  0  0  0  0  0  0  0  0  0
   36.0490   24.8440   41.3130 H   0  0  0  0  0  0  0  0  0  0  0  0
   35.9280   23.3710   39.7660 C   0  0  0  0  0  3  0  0  0  0  0  0
   36.8400   22.6110   38.8180 C   0  0  0  0  0  3  0  0  0  0  0  0
   38.5230   23.3280   39.3190 S   0  0  0  0  0  0  0  0  0  0  0  0
   38.3930   27.9280   39.1670 O   0  0  0  0  0  0  0  0  0  0  0  0
   37.2320   27.5190   38.5400 C   0  0  0  0  0  0  0  0  0  0  0  0
   36.0670   28.2670   38.7780 C   0  0  0  0  0  0  0  0  0  0  0  0
   34.9020   27.8310   38.1290 C   0  0  0  0  0  0  0  0  0  0  0  0
   34.9670   26.7270   37.3210 N   0  0  0  0  0  0  0  0  0  0  0  0
   36.0990   26.0620   37.1380 C   0  0  0  0  0  0  0  0  0  0  0  0
   37.2420   26.4470   37.7420 N   0  0  0  0  0  0  0  0  0  0  0  0
   33.9980   28.3940   38.3000 H   0  0  0  0  0  0  0  0  0  0  0  0
   36.1280   25.1880   36.4910 H   0  0  0  0  0  0  0  0  0  0  0  0
   36.1080   29.4200   39.6510 C   0  0  0  0  0  0  0  0  0  0  0  0
   36.7760   30.5930   39.3140 C   0  0  0  0  0  0  0  0  0  0  0  0
   36.5750   31.4160   40.3890 C   0  0  0  0  0  0  0  0  0  0  0  0
   35.8270   30.7870   41.3320 N   0  0  0  0  0  0  0  0  0  0  0  0
   35.5680   29.5880   40.8470 N   0  0  0  0  0  0  0  0  0  0  0  0
   37.3370   30.8370   38.4210 H   0  0  0  0  0  0  0  0  0  0  0  0
   36.9140   32.4290   40.5640 H   0  0  0  0  0  0  0  0  0  0  0  0
   35.4680   31.0740   42.2730 H   0  0  0  0  0  0  0  0  0  0  0  0
  1  2  2  0  0  0  0
  1  3  1  0  0  0  0
  3  4  1  0  0  0  0
  4  9  1  0  0  0  0
  4  5  1  0  0  0  0
  5 12  1  0  0  0  0
  6  5  1  0  0  0  0
  6 13  1  0  0  0  0
  7 16  1  0  0  0  0
  7 15  1  0  0  0  0
  7  6  1  0  0  0  0
  8 17  1  6  0  0  0
  8  3  1  0  0  0  0
  8  7  1  0  0  0  0
 10  4  1  0  0  0  0
 11  5  1  0  0  0  0
 14  6  1  0  0  0  0
 18 19  2  0  0  0  0
 18  8  1  0  0  0  0
 19 20  1  0  0  0  0
 21 19  1  0  0  0  0
 22 23  1  0  0  0  0
 22 21  2  0  0  0  0
 23 18  1  0  0  0  0
 24  1  1  0  0  0  0
 25 26  1  0  0  0  0
 25 24  1  0  0  0  0
 26 33  1  0  0  0  0
 27 31  1  0  0  0  0
 27 26  2  0  0  0  0
 28 27  1  0  0  0  0
 29 28  2  0  0  0  0
 29 30  1  0  0  0  0
 30 25  2  0  0  0  0
 32 29  1  0  0  0  0
 33 37  2  0  0  0  0
 34 33  1  0  0  0  0
 34 35  2  0  0  0  0
 35 39  1  0  0  0  0
 35 36  1  0  0  0  0
 36 40  1  0  0  0  0
 37 36  1  0  0  0  0
 38 34  1  0  0  0  0
M  END
>  <minimizedAffinity>
-5.56384039

$$$$

 OpenBabel03252508553D

 40 43  0  0  1  0  0  0  0  0999 V2000
   39.7220   29.3780   41.2640 C   0  0  0  0  0  0  0  0  0  0  0  0
   40.1920   29.0450   42.4070 O   0  0  0  0  0  0  0  0  0  0  0  0
   38.3650   28.8970   41.4330 N   0  0  0  0  0  0  0  0  0  0  0  0
   37.6220   29.4980   42.5150 C   0  0  0  0  0  0  0  0  0  0  0  0
   37.6790   28.4640   43.6470 C   0  0  0  0  0  0  0  0  0  0  0  0
   37.6120   27.0860   42.9750 C   0  0  0  0  0  0  0  0  0  0  0  0
   36.8170   27.1510   41.6680 C   0  0  0  0  0  0  0  0  0  0  0  0
   37.6610   27.8760   40.6390 C   0  0  1  0  0  0  0  0  0  0  0  0
   36.5570   29.6480   42.2470 H   0  0  0  0  0  0  0  0  0  0  0  0
   38.0940   30.4040   42.9190 H   0  0  0  0  0  0  0  0  0  0  0  0
   38.6780   28.5760   44.1410 H   0  0  0  0  0  0  0  0  0  0  0  0
   36.8420   28.5990   44.3650 H   0  0  0  0  0  0  0  0  0  0  0  0
   37.1940   26.3830   43.6920 H   0  0  0  0  0  0  0  0  0  0  0  0
   38.6420   26.7440   42.7190 H   0  0  0  0  0  0  0  0  0  0  0  0
   35.9110   27.7360   41.8860 H   0  0  0  0  0  0  0  0  0  0  0  0
   36.5920   26.1040   41.3970 H   0  0  0  0  0  0  0  0  0  0  0  0
   38.4680   27.1620   40.3570 H   0  0  0  0  0  0  0  0  0  0  0  0
   36.9990   28.3940   39.5340 C   0  0  0  0  0  0  0  0  0  0  0  0
   35.7500   28.8990   39.2500 C   0  0  0  0  0  0  0  0  0  0  0  0
   35.0760   28.9100   40.0870 H   0  0  0  0  0  0  0  0  0  0  0  0
   35.3850   29.3520   38.0160 C   0  0  0  0  0  3  0  0  0  0  0  0
   36.4750   29.2540   36.9620 C   0  0  0  0  0  3  0  0  0  0  0  0
   37.8760   28.4990   37.9930 S   0  0  0  0  0  0  0  0  0  0  0  0
   40.3690   29.9990   40.2400 O   0  0  0  0  0  0  0  0  0  0  0  0
   41.1560   31.1300   40.3350 C   0  0  0  0  0  0  0  0  0  0  0  0
   40.5210   32.3770   40.2050 C   0  0  0  0  0  0  0  0  0  0  0  0
   41.3420   33.5090   40.3050 C   0  0  0  0  0  0  0  0  0  0  0  0
   42.6840   33.3390   40.5190 N   0  0  0  0  0  0  0  0  0  0  0  0
   43.2250   32.1330   40.6330 C   0  0  0  0  0  0  0  0  0  0  0  0
   42.4710   31.0180   40.5430 N   0  0  0  0  0  0  0  0  0  0  0  0
   40.8710   34.4750   40.2080 H   0  0  0  0  0  0  0  0  0  0  0  0
   44.2930   32.0200   40.8030 H   0  0  0  0  0  0  0  0  0  0  0  0
   39.0930   32.4460   39.9800 C   0  0  0  0  0  0  0  0  0  0  0  0
   38.5210   32.2530   38.7270 C   0  0  0  0  0  0  0  0  0  0  0  0
   37.1770   32.3990   38.9440 C   0  0  0  0  0  0  0  0  0  0  0  0
   36.9370   32.6650   40.2540 N   0  0  0  0  0  0  0  0  0  0  0  0
   38.1170   32.6840   40.8410 N   0  0  0  0  0  0  0  0  0  0  0  0
   38.9930   32.0380   37.7770 H   0  0  0  0  0  0  0  0  0  0  0  0
   36.3470   32.3330   38.2520 H   0  0  0  0  0  0  0  0  0  0  0  0
   36.0620   32.8370   40.8040 H   0  0  0  0  0  0  0  0  0  0  0  0
  1  3  1  0  0  0  0
  1  2  2  0  0  0  0
  3  4  1  0  0  0  0
  4 10  1  0  0  0  0
  4  5  1  0  0  0  0
  5 11  1  0  0  0  0
  5 12  1  0  0  0  0
  6  5  1  0  0  0  0
  6 13  1  0  0  0  0
  7 15  1  0  0  0  0
  7  6  1  0  0  0  0
  8 17  1  6  0  0  0
  8  3  1  0  0  0  0
  8  7  1  0  0  0  0
  9  4  1  0  0  0  0
 14  6  1  0  0  0  0
 16  7  1  0  0  0  0
 18  8  1  0  0  0  0
 19 18  2  0  0  0  0
 19 20  1  0  0  0  0
 21 19  1  0  0  0  0
 22 23  1  0  0  0  0
 22 21  2  0  0  0  0
 23 18  1  0  0  0  0
 24 25  1  0  0  0  0
 24  1  1  0  0  0  0
 25 30  1  0  0  0  0
 26 27  1  0  0  0  0
 26 25  2  0  0  0  0
 27 28  2  0  0  0  0
 28 29  1  0  0  0  0
 29 32  1  0  0  0  0
 30 29  2  0  0  0  0
 31 27  1  0  0  0  0
 33 26  1  0  0  0  0
 33 37  2  0  0  0  0
 34 35  2  0  0  0  0
 34 33  1  0  0  0  0
 35 36  1  0  0  0  0
 36 40  1  0  0  0  0
 36 37  1  0  0  0  0
 38 34  1  0  0  0  0
 39 35  1  0  0  0  0
M  END
>  <minimizedAffinity>
-5.54032993

$$$$

 OpenBabel03252508553D

 40 43  0  0  1  0  0  0  0  0999 V2000
   37.2760   27.5620   38.2100 C   0  0  0  0  0  0  0  0  0  0  0  0
   36.9040   26.8480   37.2160 O   0  0  0  0  0  0  0  0  0  0  0  0
   36.8200   28.8540   37.7380 N   0  0  0  0  0  0  0  0  0  0  0  0
   35.4010   28.9640   37.4990 C   0  0  0  0  0  0  0  0  0  0  0  0
   35.2520   28.8290   35.9780 C   0  0  0  0  0  0  0  0  0  0  0  0
   36.4700   29.5300   35.3620 C   0  0  0  0  0  0  0  0  0  0  0  0
   36.9600   30.6700   36.2600 C   0  0  0  0  0  0  0  0  0  0  0  0
   37.6270   30.0580   37.4760 C   0  0  1  0  0  0  0  0  0  0  0  0
   35.0120   29.9610   37.7910 H   0  0  0  0  0  0  0  0  0  0  0  0
   34.8200   28.1360   37.9270 H   0  0  0  0  0  0  0  0  0  0  0  0
   35.3060   27.7370   35.7400 H   0  0  0  0  0  0  0  0  0  0  0  0
   34.3050   29.2870   35.6190 H   0  0  0  0  0  0  0  0  0  0  0  0
   36.1970   29.8640   34.3640 H   0  0  0  0  0  0  0  0  0  0  0  0
   37.3100   28.8030   35.2640 H   0  0  0  0  0  0  0  0  0  0  0  0
   36.0630   31.2280   36.5690 H   0  0  0  0  0  0  0  0  0  0  0  0
   37.6440   31.2740   35.6380 H   0  0  0  0  0  0  0  0  0  0  0  0
   38.5970   29.6490   37.1120 H   0  0  0  0  0  0  0  0  0  0  0  0
   37.7790   30.8750   38.5880 C   0  0  0  0  0  0  0  0  0  0  0  0
   37.1260   31.9500   39.1500 C   0  0  0  0  0  0  0  0  0  0  0  0
   36.2570   32.2740   38.6060 H   0  0  0  0  0  0  0  0  0  0  0  0
   37.5340   32.5620   40.2990 C   0  0  0  0  0  3  0  0  0  0  0  0
   38.7830   31.9610   40.9220 C   0  0  0  0  0  3  0  0  0  0  0  0
   39.1450   30.5710   39.6830 S   0  0  0  0  0  0  0  0  0  0  0  0
   37.9090   27.1540   39.3450 O   0  0  0  0  0  0  0  0  0  0  0  0
   37.6500   26.0000   40.0580 C   0  0  0  0  0  0  0  0  0  0  0  0
   37.4070   26.1290   41.4360 C   0  0  0  0  0  0  0  0  0  0  0  0
   37.1460   24.9430   42.1370 C   0  0  0  0  0  0  0  0  0  0  0  0
   37.1440   23.7560   41.4540 N   0  0  0  0  0  0  0  0  0  0  0  0
   37.3810   23.7000   40.1510 C   0  0  0  0  0  0  0  0  0  0  0  0
   37.6360   24.8170   39.4380 N   0  0  0  0  0  0  0  0  0  0  0  0
   36.9570   25.0230   43.1970 H   0  0  0  0  0  0  0  0  0  0  0  0
   37.3740   22.7460   39.6280 H   0  0  0  0  0  0  0  0  0  0  0  0
   37.4330   27.4340   42.0600 C   0  0  0  0  0  0  0  0  0  0  0  0
   38.5240   27.8950   42.7900 C   0  0  0  0  0  0  0  0  0  0  0  0
   38.1500   29.1470   43.2010 C   0  0  0  0  0  0  0  0  0  0  0  0
   36.9030   29.4380   42.7500 N   0  0  0  0  0  0  0  0  0  0  0  0
   36.5080   28.3810   42.0680 N   0  0  0  0  0  0  0  0  0  0  0  0
   39.4660   27.4090   43.0070 H   0  0  0  0  0  0  0  0  0  0  0  0
   38.6870   29.8750   43.7960 H   0  0  0  0  0  0  0  0  0  0  0  0
   36.2800   30.2750   42.8490 H   0  0  0  0  0  0  0  0  0  0  0  0
  1 24  1  0  0  0  0
  2  1  2  0  0  0  0
  3  1  1  0  0  0  0
  4  3  1  0  0  0  0
  4  9  1  0  0  0  0
  4 10  1  0  0  0  0
  5  4  1  0  0  0  0
  6  5  1  0  0  0  0
  6  7  1  0  0  0  0
  7 15  1  0  0  0  0
  7  8  1  0  0  0  0
  8 17  1  6  0  0  0
  8  3  1  0  0  0  0
  8 18  1  0  0  0  0
 11  5  1  0  0  0  0
 12  5  1  0  0  0  0
 13  6  1  0  0  0  0
 14  6  1  0  0  0  0
 16  7  1  0  0  0  0
 18 19  2  0  0  0  0
 18 23  1  0  0  0  0
 19 21  1  0  0  0  0
 20 19  1  0  0  0  0
 21 22  2  0  0  0  0
 23 22  1  0  0  0  0
 24 25  1  0  0  0  0
 25 26  1  0  0  0  0
 26 33  1  0  0  0  0
 26 27  2  0  0  0  0
 27 31  1  0  0  0  0
 28 27  1  0  0  0  0
 29 28  2  0  0  0  0
 30 25  2  0  0  0  0
 30 29  1  0  0  0  0
 32 29  1  0  0  0  0
 33 37  2  0  0  0  0
 33 34  1  0  0  0  0
 34 38  1  0  0  0  0
 34 35  2  0  0  0  0
 35 39  1  0  0  0  0
 36 40  1  0  0  0  0
 36 35  1  0  0  0  0
 37 36  1  0  0  0  0
M  END
>  <minimizedAffinity>
-5.5327177

$$$$

 OpenBabel03252508553D

 40 43  0  0  1  0  0  0  0  0999 V2000
   38.2950   29.8740   38.1360 C   0  0  0  0  0  0  0  0  0  0  0  0
   37.8830   30.5800   37.1520 O   0  0  0  0  0  0  0  0  0  0  0  0
   37.2010   28.9270   38.2040 N   0  0  0  0  0  0  0  0  0  0  0  0
   36.9940   28.1280   37.0200 C   0  0  0  0  0  0  0  0  0  0  0  0
   35.8140   28.7950   36.3030 C   0  0  0  0  0  0  0  0  0  0  0  0
   34.8660   29.2920   37.4030 C   0  0  0  0  0  0  0  0  0  0  0  0
   34.9570   28.4060   38.6480 C   0  0  0  0  0  0  0  0  0  0  0  0
   36.2820   28.6850   39.3300 C   0  0  1  0  0  0  0  0  0  0  0  0
   36.6940   27.0900   37.2730 H   0  0  0  0  0  0  0  0  0  0  0  0
   37.8320   28.1710   36.3120 H   0  0  0  0  0  0  0  0  0  0  0  0
   36.2240   29.6800   35.7530 H   0  0  0  0  0  0  0  0  0  0  0  0
   35.2960   28.0850   35.6220 H   0  0  0  0  0  0  0  0  0  0  0  0
   33.8630   29.3380   36.9870 H   0  0  0  0  0  0  0  0  0  0  0  0
   35.1590   30.3240   37.7100 H   0  0  0  0  0  0  0  0  0  0  0  0
   34.9360   27.3650   38.2890 H   0  0  0  0  0  0  0  0  0  0  0  0
   34.0790   28.6600   39.2670 H   0  0  0  0  0  0  0  0  0  0  0  0
   36.1720   29.6900   39.7980 H   0  0  0  0  0  0  0  0  0  0  0  0
   36.7430   27.7290   40.2250 C   0  0  0  0  0  0  0  0  0  0  0  0
   37.3950   26.5180   40.1640 C   0  0  0  0  0  0  0  0  0  0  0  0
   37.6250   26.1900   39.1660 H   0  0  0  0  0  0  0  0  0  0  0  0
   37.7280   25.7860   41.2650 C   0  0  0  0  0  3  0  0  0  0  0  0
   37.3180   26.4150   42.5860 C   0  0  0  0  0  3  0  0  0  0  0  0
   36.4990   28.0090   41.9630 S   0  0  0  0  0  0  0  0  0  0  0  0
   39.4400   30.0300   38.8580 O   0  0  0  0  0  0  0  0  0  0  0  0
   39.6140   29.7220   40.1930 C   0  0  0  0  0  0  0  0  0  0  0  0
   39.1320   30.6430   41.1390 C   0  0  0  0  0  0  0  0  0  0  0  0
   39.3210   30.3070   42.4880 C   0  0  0  0  0  0  0  0  0  0  0  0
   39.9500   29.1300   42.7970 N   0  0  0  0  0  0  0  0  0  0  0  0
   40.3830   28.3020   41.8560 C   0  0  0  0  0  0  0  0  0  0  0  0
   40.2210   28.5860   40.5460 N   0  0  0  0  0  0  0  0  0  0  0  0
   38.9580   31.0020   43.2290 H   0  0  0  0  0  0  0  0  0  0  0  0
   40.8790   27.3720   42.1230 H   0  0  0  0  0  0  0  0  0  0  0  0
   38.4810   31.8590   40.7050 C   0  0  0  0  0  0  0  0  0  0  0  0
   39.1810   33.0360   40.4560 C   0  0  0  0  0  0  0  0  0  0  0  0
   38.2140   33.9280   40.0740 C   0  0  0  0  0  0  0  0  0  0  0  0
   36.9930   33.3350   40.0890 N   0  0  0  0  0  0  0  0  0  0  0  0
   37.1990   32.0910   40.4730 N   0  0  0  0  0  0  0  0  0  0  0  0
   40.2400   33.2400   40.5340 H   0  0  0  0  0  0  0  0  0  0  0  0
   38.3000   34.9680   39.7860 H   0  0  0  0  0  0  0  0  0  0  0  0
   36.0270   33.6740   39.8660 H   0  0  0  0  0  0  0  0  0  0  0  0
  1  3  1  0  0  0  0
  1 24  1  0  0  0  0
  2  1  2  0  0  0  0
  3  8  1  0  0  0  0
  4  9  1  0  0  0  0
  4  3  1  0  0  0  0
  5  4  1  0  0  0  0
  5  6  1  0  0  0  0
  6 14  1  0  0  0  0
  6  7  1  0  0  0  0
  7 16  1  0  0  0  0
  7  8  1  0  0  0  0
  8 17  1  1  0  0  0
  8 18  1  0  0  0  0
 10  4  1  0  0  0  0
 11  5  1  0  0  0  0
 12  5  1  0  0  0  0
 13  6  1  0  0  0  0
 15  7  1  0  0  0  0
 18 23  1  0  0  0  0
 19 18  2  0  0  0  0
 19 21  1  0  0  0  0
 20 19  1  0  0  0  0
 21 22  2  0  0  0  0
 23 22  1  0  0  0  0
 24 25  1  0  0  0  0
 25 30  2  0  0  0  0
 25 26  1  0  0  0  0
 26 27  2  0  0  0  0
 27 28  1  0  0  0  0
 27 31  1  0  0  0  0
 29 32  1  0  0  0  0
 29 28  2  0  0  0  0
 30 29  1  0  0  0  0
 33 26  1  0  0  0  0
 34 38  1  0  0  0  0
 34 33  1  0  0  0  0
 35 36  1  0  0  0  0
 35 34  2  0  0  0  0
 36 37  1  0  0  0  0
 37 33  2  0  0  0  0
 39 35  1  0  0  0  0
 40 36  1  0  0  0  0
M  END
>  <minimizedAffinity>
-5.49436331

$$$$

 OpenBabel03252508553D

 40 43  0  0  1  0  0  0  0  0999 V2000
   39.1370   29.3190   41.8120 C   0  0  0  0  0  0  0  0  0  0  0  0
   39.4290   28.7860   42.9380 O   0  0  0  0  0  0  0  0  0  0  0  0
   37.9620   28.5320   41.4930 N   0  0  0  0  0  0  0  0  0  0  0  0
   36.8720   28.6330   42.4330 C   0  0  0  0  0  0  0  0  0  0  0  0
   36.9720   27.3600   43.2830 C   0  0  0  0  0  0  0  0  0  0  0  0
   37.4310   26.2440   42.3340 C   0  0  0  0  0  0  0  0  0  0  0  0
   36.9430   26.5030   40.9050 C   0  0  0  0  0  0  0  0  0  0  0  0
   37.7510   27.6510   40.3330 C   0  0  1  0  0  0  0  0  0  0  0  0
   35.8870   28.6230   41.9220 H   0  0  0  0  0  0  0  0  0  0  0  0
   36.9790   29.4680   43.1390 H   0  0  0  0  0  0  0  0  0  0  0  0
   37.7740   27.5380   44.0440 H   0  0  0  0  0  0  0  0  0  0  0  0
   35.9990   27.1070   43.7550 H   0  0  0  0  0  0  0  0  0  0  0  0
   37.0820   25.2960   42.7360 H   0  0  0  0  0  0  0  0  0  0  0  0
   38.5450   26.2150   42.3020 H   0  0  0  0  0  0  0  0  0  0  0  0
   35.8850   26.7980   40.9890 H   0  0  0  0  0  0  0  0  0  0  0  0
   37.0780   25.5520   40.3610 H   0  0  0  0  0  0  0  0  0  0  0  0
   38.7640   27.2330   40.1340 H   0  0  0  0  0  0  0  0  0  0  0  0
   37.2190   28.3050   39.2290 C   0  0  0  0  0  0  0  0  0  0  0  0
   36.1440   29.1240   38.9600 C   0  0  0  0  0  0  0  0  0  0  0  0
   35.5240   29.3330   39.8130 H   0  0  0  0  0  0  0  0  0  0  0  0
   35.8770   29.6320   37.7230 C   0  0  0  0  0  3  0  0  0  0  0  0
   36.8690   29.2220   36.6470 C   0  0  0  0  0  3  0  0  0  0  0  0
   38.0460   28.1380   37.6650 S   0  0  0  0  0  0  0  0  0  0  0  0
   39.7880   30.3260   41.1670 O   0  0  0  0  0  0  0  0  0  0  0  0
   40.2940   30.2830   39.8820 C   0  0  0  0  0  0  0  0  0  0  0  0
   39.8660   31.2740   38.9830 C   0  0  0  0  0  0  0  0  0  0  0  0
   40.3930   31.2080   37.6850 C   0  0  0  0  0  0  0  0  0  0  0  0
   41.2730   30.2050   37.3770 N   0  0  0  0  0  0  0  0  0  0  0  0
   41.6390   29.2970   38.2720 C   0  0  0  0  0  0  0  0  0  0  0  0
   41.1560   29.3240   39.5320 N   0  0  0  0  0  0  0  0  0  0  0  0
   40.0760   31.9610   36.9800 H   0  0  0  0  0  0  0  0  0  0  0  0
   42.3400   28.5090   38.0060 H   0  0  0  0  0  0  0  0  0  0  0  0
   38.9310   32.2910   39.4110 C   0  0  0  0  0  0  0  0  0  0  0  0
   39.3390   33.4970   39.9720 C   0  0  0  0  0  0  0  0  0  0  0  0
   38.1690   34.1600   40.2320 C   0  0  0  0  0  0  0  0  0  0  0  0
   37.1050   33.4060   39.8550 N   0  0  0  0  0  0  0  0  0  0  0  0
   37.6080   32.2900   39.3660 N   0  0  0  0  0  0  0  0  0  0  0  0
   40.3370   33.8640   40.1720 H   0  0  0  0  0  0  0  0  0  0  0  0
   38.0040   35.1370   40.6690 H   0  0  0  0  0  0  0  0  0  0  0  0
   36.0690   33.5580   39.8880 H   0  0  0  0  0  0  0  0  0  0  0  0
  1  2  2  0  0  0  0
  3  1  1  0  0  0  0
  3  4  1  0  0  0  0
  4 10  1  0  0  0  0
  4  5  1  0  0  0  0
  5 12  1  0  0  0  0
  5 11  1  0  0  0  0
  6 13  1  0  0  0  0
  6  5  1  0  0  0  0
  7 15  1  0  0  0  0
  7  6  1  0  0  0  0
  8 17  1  6  0  0  0
  8  7  1  0  0  0  0
  8  3  1  0  0  0  0
  9  4  1  0  0  0  0
 14  6  1  0  0  0  0
 16  7  1  0  0  0  0
 18  8  1  0  0  0  0
 19 18  2  0  0  0  0
 19 20  1  0  0  0  0
 21 19  1  0  0  0  0
 22 23  1  0  0  0  0
 22 21  2  0  0  0  0
 23 18  1  0  0  0  0
 24  1  1  0  0  0  0
 25 24  1  0  0  0  0
 26 33  1  0  0  0  0
 26 25  2  0  0  0  0
 27 26  1  0  0  0  0
 28 27  2  0  0  0  0
 28 29  1  0  0  0  0
 29 30  2  0  0  0  0
 30 25  1  0  0  0  0
 31 27  1  0  0  0  0
 32 29  1  0  0  0  0
 33 34  1  0  0  0  0
 34 38  1  0  0  0  0
 34 35  2  0  0  0  0
 35 39  1  0  0  0  0
 36 40  1  0  0  0  0
 36 35  1  0  0  0  0
 37 33  2  0  0  0  0
 37 36  1  0  0  0  0
M  END
>  <minimizedAffinity>
-5.4880538

$$$$
