
 OpenBabel03252508463D

 42 44  0  0  0  0  0  0  0  0999 V2000
   42.9960   32.4520   41.6790 C   0  0  0  0  0  0  0  0  0  0  0  0
   42.0710   32.9050   41.2760 H   0  0  0  0  0  0  0  0  0  0  0  0
   43.5510   32.0370   40.7880 H   0  0  0  0  0  0  0  0  0  0  0  0
   43.6750   34.8510   41.9110 C   0  0  0  0  0  0  0  0  0  0  0  0
   43.8840   33.5210   42.2220 C   0  0  0  0  0  0  0  0  0  0  0  0
   44.9390   33.1930   43.0490 C   0  0  0  0  0  0  0  0  0  0  0  0
   45.7500   34.1810   43.5440 C   0  0  0  0  0  0  0  0  0  0  0  0
   45.5620   35.5130   43.2480 C   0  0  0  0  0  0  0  0  0  0  0  0
   44.4910   35.7900   42.4150 C   0  0  0  0  0  0  0  0  0  0  0  0
   45.1520   32.1700   43.3270 H   0  0  0  0  0  0  0  0  0  0  0  0
   46.5810   33.9300   44.1950 H   0  0  0  0  0  0  0  0  0  0  0  0
   46.1480   36.3310   43.5950 H   0  0  0  0  0  0  0  0  0  0  0  0
   44.2660   36.8090   42.1280 H   0  0  0  0  0  0  0  0  0  0  0  0
   40.2610   35.7560   40.5460 C   0  0  0  0  0  0  0  0  0  0  0  0
   41.2830   35.5100   41.4800 C   0  0  0  0  0  0  0  0  0  0  0  0
   42.5410   35.1310   41.0300 C   0  0  0  0  0  0  0  0  0  0  0  0
   42.7170   35.0160   39.6850 N   0  0  0  0  0  0  0  0  0  0  0  0
   41.7240   35.2560   38.8000 C   0  0  0  0  0  0  0  0  0  0  0  0
   40.4980   35.6250   39.2400 N   0  0  0  0  0  0  0  0  0  0  0  0
   39.3010   36.0470   40.9110 H   0  0  0  0  0  0  0  0  0  0  0  0
   41.1410   35.6020   42.5460 H   0  0  0  0  0  0  0  0  0  0  0  0
   42.0030   35.1260   37.7680 H   0  0  0  0  0  0  0  0  0  0  0  0
   42.6790   31.4040   42.5920 N   0  0  0  0  0  0  0  0  0  0  0  0
   43.0320   31.5300   43.5580 H   0  0  0  0  0  0  0  0  0  0  0  0
   41.0140   31.0420   42.6230 S   0  0  0  0  0  0  0  0  0  0  0  0
   40.1770   32.2890   42.4590 O   0  0  0  0  0  0  0  0  0  0  0  0
   39.8790   32.7690   43.2910 H   0  0  0  0  0  0  0  0  0  0  0  0
   40.6320   30.3480   43.8870 O   0  0  0  0  0  0  0  0  0  0  0  0
   39.8010   30.4720   44.4080 H   0  0  0  0  0  0  0  0  0  0  0  0
   40.6810   30.0270   41.3250 O   0  0  0  0  0  0  0  0  0  0  0  0
   40.0840   28.8780   41.8140 C   0  0  0  0  0  0  0  0  0  0  0  0
   39.1640   28.7180   41.2490 H   0  0  0  0  0  0  0  0  0  0  0  0
   39.8500   28.8900   42.8870 H   0  0  0  0  0  0  0  0  0  0  0  0
   41.0080   27.6870   41.6150 C   0  0  0  0  0  0  0  0  0  0  0  0
   41.9960   27.8590   42.0920 H   0  0  0  0  0  0  0  0  0  0  0  0
   41.1050   27.4900   40.5240 H   0  0  0  0  0  0  0  0  0  0  0  0
   40.3740   26.4430   42.1610 C   0  0  0  0  0  0  0  0  0  0  0  0
   39.2150   25.7760   41.6690 C   0  0  0  0  0  0  0  0  0  0  0  0
   38.7220   26.1960   40.8140 H   0  0  0  0  0  0  0  0  0  0  0  0
   38.8370   24.6580   42.3380 C   0  0  0  0  0  3  0  0  0  0  0  0
   39.5630   24.1860   43.4630 C   0  0  0  0  0  3  0  0  0  0  0  0
   40.9260   25.4470   43.6050 S   0  0  0  0  0  0  0  0  0  0  0  0
  1  5  1  0  0  0  0
  1 23  1  0  0  0  0
  2  1  1  0  0  0  0
  3  1  1  0  0  0  0
  4  5  2  0  0  0  0
  4  9  1  0  0  0  0
  5  6  1  0  0  0  0
  6 10  1  0  0  0  0
  6  7  2  0  0  0  0
  7 11  1  0  0  0  0
  8  7  1  0  0  0  0
  8 12  1  0  0  0  0
  9  8  2  0  0  0  0
 13  9  1  0  0  0  0
 14 20  1  0  0  0  0
 14 15  1  0  0  0  0
 15 21  1  0  0  0  0
 16 15  2  0  0  0  0
 16  4  1  0  0  0  0
 17 16  1  0  0  0  0
 18 19  1  0  0  0  0
 18 17  2  0  0  0  0
 19 14  2  0  0  0  0
 22 18  1  0  0  0  0
 23 25  1  0  0  0  0
 23 24  1  0  0  0  0
 25 28  1  0  0  0  0
 26 25  1  0  0  0  0
 26 27  1  0  0  0  0
 28 29  1  0  0  0  0
 30 31  1  0  0  0  0
 30 25  1  0  0  0  0
 31 33  1  0  0  0  0
 32 31  1  0  0  0  0
 34 31  1  0  0  0  0
 34 35  1  0  0  0  0
 34 37  1  0  0  0  0
 36 34  1  0  0  0  0
 37 42  1  0  0  0  0
 38 37  2  0  0  0  0
 38 40  1  0  0  0  0
 39 38  1  0  0  0  0
 40 41  2  0  0  0  0
 41 42  1  0  0  0  0
M  END
>  <minimizedAffinity>
-4.8963294

>  <minimizedRMSD>
0.346330702

$$$$
