
 OpenBabel03242512173D

 30 32  0  0  0  0  0  0  0  0999 V2000
   48.5670   33.0910   41.3150 C   0  0  0  0  0  0  0  0  0  0  0  0
   48.0650   34.2850   41.8200 C   0  0  0  0  0  0  0  0  0  0  0  0
   48.9170   35.1140   42.5060 C   0  0  0  0  0  0  0  0  0  0  0  0
   50.2430   34.7480   42.6770 C   0  0  0  0  0  0  0  0  0  0  0  0
   50.6970   33.5530   42.1580 C   0  0  0  0  0  0  0  0  0  0  0  0
   49.8620   32.6770   41.4520 C   0  0  0  0  0  0  0  0  0  0  0  0
   48.5040   36.0440   42.8930 H   0  0  0  0  0  0  0  0  0  0  0  0
   50.9070   35.4120   43.2210 H   0  0  0  0  0  0  0  0  0  0  0  0
   51.7400   33.3210   42.3230 H   0  0  0  0  0  0  0  0  0  0  0  0
   46.6330   34.5410   41.5610 C   0  0  0  0  0  0  0  0  0  0  0  0
   46.6150   35.4970   40.9630 H   0  0  0  0  0  0  0  0  0  0  0  0
   46.1590   33.7700   40.9810 H   0  0  0  0  0  0  0  0  0  0  0  0
   45.9320   34.8370   42.8750 C   0  0  0  0  0  0  0  0  0  0  0  0
   45.9730   33.8640   43.8550 C   0  0  0  0  0  0  0  0  0  0  0  0
   45.3400   34.1380   45.0630 C   0  0  0  0  0  0  0  0  0  0  0  0
   44.7270   35.3340   45.2030 N   0  0  0  0  0  0  0  0  0  0  0  0
   44.7040   36.2660   44.2220 C   0  0  0  0  0  0  0  0  0  0  0  0
   45.3100   36.0160   43.0550 N   0  0  0  0  0  0  0  0  0  0  0  0
   46.4730   32.9110   43.7170 H   0  0  0  0  0  0  0  0  0  0  0  0
   45.3600   33.3860   45.8470 H   0  0  0  0  0  0  0  0  0  0  0  0
   44.1790   37.1850   44.4600 H   0  0  0  0  0  0  0  0  0  0  0  0
   47.7720   32.1690   40.5950 O   0  0  0  0  0  0  0  0  0  0  0  0
   47.6680   31.2090   40.8460 H   0  0  0  0  0  0  0  0  0  0  0  0
   50.4030   31.5090   40.9700 O   0  0  0  0  0  0  0  0  0  0  0  0
   51.3210   31.4290   39.9730 C   0  0  0  0  0  0  0  0  0  0  0  0
   52.7300   31.2770   40.1040 C   0  0  0  0  0  0  0  0  0  0  0  0
   53.1480   31.2160   41.0940 H   0  0  0  0  0  0  0  0  0  0  0  0
   53.4360   31.2230   38.9640 C   0  0  0  0  0  0  0  0  0  0  0  0
   52.7410   31.3190   37.7170 C   0  0  0  0  0  0  0  0  0  0  0  0
   50.9190   31.5030   38.2200 S   0  0  0  0  0  0  0  0  0  0  0  0
  1  6  2  0  0  0  0
  1  2  1  0  0  0  0
  2  3  2  0  0  0  0
  3  4  1  0  0  0  0
  3  7  1  0  0  0  0
  4  8  1  0  0  0  0
  5  9  1  0  0  0  0
  5  4  2  0  0  0  0
  6  5  1  0  0  0  0
 10  2  1  0  0  0  0
 10 13  1  0  0  0  0
 11 10  1  0  0  0  0
 12 10  1  0  0  0  0
 13 18  2  0  0  0  0
 13 14  1  0  0  0  0
 14 15  2  0  0  0  0
 15 16  1  0  0  0  0
 15 20  1  0  0  0  0
 17 21  1  0  0  0  0
 17 16  2  0  0  0  0
 18 17  1  0  0  0  0
 19 14  1  0  0  0  0
 22 23  1  0  0  0  0
 22  1  1  0  0  0  0
 24  6  1  0  0  0  0
 25 26  2  0  0  0  0
 25 24  1  0  0  0  0
 26 27  1  0  0  0  0
 28 26  1  0  0  0  0
 29 30  1  0  0  0  0
 29 28  2  0  0  0  0
 30 25  1  0  0  0  0
M  END
>  <minimizedAffinity>
-5.27428818

>  <minimizedRMSD>
1.4934504

$$$$
