
 OpenBabel03242516393D

 17 18  0  0  0  0  0  0  0  0999 V2000
   37.1470   32.4210   39.4200 C   0  0  0  0  0  0  0  0  0  0  0  0
   37.1330   31.6120   40.5870 C   0  0  0  0  0  0  0  0  0  0  0  0
   37.3030   30.2260   40.4270 C   0  0  0  0  0  0  0  0  0  0  0  0
   37.4690   29.7490   39.1720 N   0  0  0  0  0  0  0  0  0  0  0  0
   37.4770   30.5340   38.0910 C   0  0  0  0  0  0  0  0  0  0  0  0
   37.3160   31.8650   38.2140 N   0  0  0  0  0  0  0  0  0  0  0  0
   36.9750   33.8180   39.5820 N   0  0  0  0  0  0  0  0  0  0  0  0
   37.0020   31.9920   41.5740 H   0  0  0  0  0  0  0  0  0  0  0  0
   37.6120   30.1290   37.0920 H   0  0  0  0  0  0  0  0  0  0  0  0
   36.4140   34.1970   40.3840 H   0  0  0  0  0  0  0  0  0  0  0  0
   37.3630   34.5480   38.9610 H   0  0  0  0  0  0  0  0  0  0  0  0
   37.3110   29.2860   41.5220 C   0  0  0  0  0  0  0  0  0  0  0  0
   36.4230   28.2220   41.6880 C   0  0  0  0  0  0  0  0  0  0  0  0
   35.6370   28.0280   40.9710 H   0  0  0  0  0  0  0  0  0  0  0  0
   36.5980   27.4390   42.8010 C   0  0  0  0  0  3  0  0  0  0  0  0
   37.6470   27.7650   43.6800 C   0  0  0  0  0  3  0  0  0  0  0  0
   38.4050   29.2660   42.8530 S   0  0  0  0  0  0  0  0  0  0  0  0
  1  7  1  0  0  0  0
  1  2  1  0  0  0  0
  2  8  1  0  0  0  0
  3  2  2  0  0  0  0
  3 12  1  0  0  0  0
  4  3  1  0  0  0  0
  5  6  1  0  0  0  0
  5  4  2  0  0  0  0
  6  1  2  0  0  0  0
  7 10  1  0  0  0  0
  9  5  1  0  0  0  0
 11  7  1  0  0  0  0
 12 13  2  0  0  0  0
 12 17  1  0  0  0  0
 13 15  1  0  0  0  0
 14 13  1  0  0  0  0
 15 16  2  0  0  0  0
 17 16  1  0  0  0  0
M  END
>  <minimizedAffinity>
-4.34790325

$$$$

 OpenBabel03242516393D

 17 18  0  0  0  0  0  0  0  0999 V2000
   37.8160   32.9040   40.0570 C   0  0  0  0  0  0  0  0  0  0  0  0
   37.2440   31.7450   40.6440 C   0  0  0  0  0  0  0  0  0  0  0  0
   38.0940   30.8830   41.3580 C   0  0  0  0  0  0  0  0  0  0  0  0
   39.4040   31.2110   41.4410 N   0  0  0  0  0  0  0  0  0  0  0  0
   39.9150   32.3090   40.8780 C   0  0  0  0  0  0  0  0  0  0  0  0
   39.1250   33.1520   40.1880 N   0  0  0  0  0  0  0  0  0  0  0  0
   36.9580   33.7720   39.3370 N   0  0  0  0  0  0  0  0  0  0  0  0
   36.2110   31.4900   40.5760 H   0  0  0  0  0  0  0  0  0  0  0  0
   40.9700   32.5540   40.9570 H   0  0  0  0  0  0  0  0  0  0  0  0
   36.1040   33.3990   38.8540 H   0  0  0  0  0  0  0  0  0  0  0  0
   37.0870   34.7920   39.2300 H   0  0  0  0  0  0  0  0  0  0  0  0
   37.6510   29.6720   42.0050 C   0  0  0  0  0  0  0  0  0  0  0  0
   38.1120   29.1880   43.2320 C   0  0  0  0  0  0  0  0  0  0  0  0
   38.8650   29.7190   43.7980 H   0  0  0  0  0  0  0  0  0  0  0  0
   37.5620   28.0140   43.6790 C   0  0  0  0  0  3  0  0  0  0  0  0
   36.5870   27.3930   42.8760 C   0  0  0  0  0  3  0  0  0  0  0  0
   36.4680   28.5640   41.4190 S   0  0  0  0  0  0  0  0  0  0  0  0
  1  6  2  0  0  0  0
  1  2  1  0  0  0  0
  2  3  2  0  0  0  0
  3  4  1  0  0  0  0
  3 12  1  0  0  0  0
  5  9  1  0  0  0  0
  5  4  2  0  0  0  0
  6  5  1  0  0  0  0
  7  1  1  0  0  0  0
  8  2  1  0  0  0  0
 10  7  1  0  0  0  0
 11  7  1  0  0  0  0
 12 13  2  0  0  0  0
 13 15  1  0  0  0  0
 13 14  1  0  0  0  0
 16 15  2  0  0  0  0
 17 12  1  0  0  0  0
 17 16  1  0  0  0  0
M  END
>  <minimizedAffinity>
-4.34416771

$$$$

 OpenBabel03242516393D

 17 18  0  0  0  0  0  0  0  0999 V2000
   36.8260   30.1260   41.4210 C   0  0  0  0  0  0  0  0  0  0  0  0
   36.6830   28.7140   41.3820 C   0  0  0  0  0  0  0  0  0  0  0  0
   37.8450   27.9330   41.5030 C   0  0  0  0  0  0  0  0  0  0  0  0
   39.0260   28.5740   41.6500 N   0  0  0  0  0  0  0  0  0  0  0  0
   39.1320   29.9050   41.6840 C   0  0  0  0  0  0  0  0  0  0  0  0
   38.0360   30.6780   41.5690 N   0  0  0  0  0  0  0  0  0  0  0  0
   35.6540   30.9130   41.2980 N   0  0  0  0  0  0  0  0  0  0  0  0
   35.7490   28.2120   41.2650 H   0  0  0  0  0  0  0  0  0  0  0  0
   40.0920   30.3990   41.8030 H   0  0  0  0  0  0  0  0  0  0  0  0
   34.8300   30.5600   40.7530 H   0  0  0  0  0  0  0  0  0  0  0  0
   35.5130   31.8500   41.7110 H   0  0  0  0  0  0  0  0  0  0  0  0
   37.8490   26.4900   41.4810 C   0  0  0  0  0  0  0  0  0  0  0  0
   37.0190   25.6610   42.2390 C   0  0  0  0  0  0  0  0  0  0  0  0
   36.2870   26.0710   42.9220 H   0  0  0  0  0  0  0  0  0  0  0  0
   37.1780   24.3090   42.0730 C   0  0  0  0  0  3  0  0  0  0  0  0
   38.1540   23.8650   41.1630 C   0  0  0  0  0  3  0  0  0  0  0  0
   38.8650   25.4770   40.5250 S   0  0  0  0  0  0  0  0  0  0  0  0
  1  6  1  0  0  0  0
  2  1  2  0  0  0  0
  2  3  1  0  0  0  0
  3  4  2  0  0  0  0
  4  5  1  0  0  0  0
  5  9  1  0  0  0  0
  6  5  2  0  0  0  0
  7  1  1  0  0  0  0
  7 11  1  0  0  0  0
  8  2  1  0  0  0  0
 10  7  1  0  0  0  0
 12  3  1  0  0  0  0
 12 13  2  0  0  0  0
 13 14  1  0  0  0  0
 15 13  1  0  0  0  0
 16 15  2  0  0  0  0
 17 16  1  0  0  0  0
 17 12  1  0  0  0  0
M  END
>  <minimizedAffinity>
-4.14069414

$$$$

 OpenBabel03242516393D

 17 18  0  0  0  0  0  0  0  0999 V2000
   36.1820   29.7000   40.9930 C   0  0  0  0  0  0  0  0  0  0  0  0
   37.0390   28.9340   41.8270 C   0  0  0  0  0  0  0  0  0  0  0  0
   37.3950   27.6450   41.3940 C   0  0  0  0  0  0  0  0  0  0  0  0
   36.9010   27.2160   40.2100 N   0  0  0  0  0  0  0  0  0  0  0  0
   36.0970   27.9590   39.4460 C   0  0  0  0  0  0  0  0  0  0  0  0
   35.7380   29.1960   39.8350 N   0  0  0  0  0  0  0  0  0  0  0  0
   35.8230   30.9990   41.4310 N   0  0  0  0  0  0  0  0  0  0  0  0
   37.4260   29.2760   42.7600 H   0  0  0  0  0  0  0  0  0  0  0  0
   35.7120   27.5940   38.4980 H   0  0  0  0  0  0  0  0  0  0  0  0
   35.7680   31.2200   42.4550 H   0  0  0  0  0  0  0  0  0  0  0  0
   35.5960   31.7990   40.8170 H   0  0  0  0  0  0  0  0  0  0  0  0
   38.2560   26.7570   42.1370 C   0  0  0  0  0  0  0  0  0  0  0  0
   39.2110   27.1480   43.0790 C   0  0  0  0  0  0  0  0  0  0  0  0
   39.3700   28.1900   43.3190 H   0  0  0  0  0  0  0  0  0  0  0  0
   39.9310   26.1470   43.6800 C   0  0  0  0  0  3  0  0  0  0  0  0
   39.6570   24.8190   43.3050 C   0  0  0  0  0  3  0  0  0  0  0  0
   38.2990   25.0370   42.0320 S   0  0  0  0  0  0  0  0  0  0  0  0
  1  7  1  0  0  0  0
  1  2  1  0  0  0  0
  2  8  1  0  0  0  0
  3  2  2  0  0  0  0
  3 12  1  0  0  0  0
  4  3  1  0  0  0  0
  5  6  1  0  0  0  0
  5  4  2  0  0  0  0
  6  1  2  0  0  0  0
  7 10  1  0  0  0  0
  9  5  1  0  0  0  0
 11  7  1  0  0  0  0
 12 13  2  0  0  0  0
 13 14  1  0  0  0  0
 13 15  1  0  0  0  0
 16 15  2  0  0  0  0
 17 12  1  0  0  0  0
 17 16  1  0  0  0  0
M  END
>  <minimizedAffinity>
-4.0994873

$$$$

 OpenBabel03242516393D

 17 18  0  0  0  0  0  0  0  0999 V2000
   35.5420   29.5080   40.5710 C   0  0  0  0  0  0  0  0  0  0  0  0
   36.2190   28.4070   41.1580 C   0  0  0  0  0  0  0  0  0  0  0  0
   37.4960   28.6330   41.6980 C   0  0  0  0  0  0  0  0  0  0  0  0
   38.0020   29.8850   41.6250 N   0  0  0  0  0  0  0  0  0  0  0  0
   37.3420   30.9040   41.0660 C   0  0  0  0  0  0  0  0  0  0  0  0
   36.1180   30.7160   40.5400 N   0  0  0  0  0  0  0  0  0  0  0  0
   34.2540   29.2780   40.0270 N   0  0  0  0  0  0  0  0  0  0  0  0
   35.8170   27.4200   41.2140 H   0  0  0  0  0  0  0  0  0  0  0  0
   37.7670   31.9020   41.0190 H   0  0  0  0  0  0  0  0  0  0  0  0
   33.9990   28.3370   39.6410 H   0  0  0  0  0  0  0  0  0  0  0  0
   33.4940   29.9770   39.9650 H   0  0  0  0  0  0  0  0  0  0  0  0
   38.2970   27.6090   42.3250 C   0  0  0  0  0  0  0  0  0  0  0  0
   39.3750   27.8300   43.1850 C   0  0  0  0  0  0  0  0  0  0  0  0
   39.6890   28.8310   43.4470 H   0  0  0  0  0  0  0  0  0  0  0  0
   40.0090   26.7180   43.6790 C   0  0  0  0  0  3  0  0  0  0  0  0
   39.5310   25.4550   43.2850 C   0  0  0  0  0  3  0  0  0  0  0  0
   38.1060   25.9050   42.1550 S   0  0  0  0  0  0  0  0  0  0  0  0
  1  2  1  0  0  0  0
  2  8  1  0  0  0  0
  2  3  2  0  0  0  0
  3 12  1  0  0  0  0
  4  3  1  0  0  0  0
  5  4  2  0  0  0  0
  6  1  2  0  0  0  0
  6  5  1  0  0  0  0
  7  1  1  0  0  0  0
  9  5  1  0  0  0  0
 10  7  1  0  0  0  0
 11  7  1  0  0  0  0
 12 13  2  0  0  0  0
 13 14  1  0  0  0  0
 13 15  1  0  0  0  0
 16 15  2  0  0  0  0
 17 12  1  0  0  0  0
 17 16  1  0  0  0  0
M  END
>  <minimizedAffinity>
-4.02857065

$$$$

 OpenBabel03242516393D

 17 18  0  0  0  0  0  0  0  0999 V2000
   39.1880   32.5100   40.8750 C   0  0  0  0  0  0  0  0  0  0  0  0
   39.0530   31.2580   41.5300 C   0  0  0  0  0  0  0  0  0  0  0  0
   37.8510   30.5510   41.3530 C   0  0  0  0  0  0  0  0  0  0  0  0
   36.8990   31.1080   40.5710 N   0  0  0  0  0  0  0  0  0  0  0  0
   37.0530   32.2890   39.9670 C   0  0  0  0  0  0  0  0  0  0  0  0
   38.1930   32.9880   40.1190 N   0  0  0  0  0  0  0  0  0  0  0  0
   40.4000   33.2220   41.0550 N   0  0  0  0  0  0  0  0  0  0  0  0
   39.8060   30.8220   42.1460 H   0  0  0  0  0  0  0  0  0  0  0  0
   36.2740   32.7170   39.3420 H   0  0  0  0  0  0  0  0  0  0  0  0
   40.9560   33.1150   41.9380 H   0  0  0  0  0  0  0  0  0  0  0  0
   40.8220   33.8730   40.3710 H   0  0  0  0  0  0  0  0  0  0  0  0
   37.5770   29.2690   41.9560 C   0  0  0  0  0  0  0  0  0  0  0  0
   37.7680   28.9440   43.3010 C   0  0  0  0  0  0  0  0  0  0  0  0
   38.1520   29.6690   44.0050 H   0  0  0  0  0  0  0  0  0  0  0  0
   37.4450   27.6660   43.6800 C   0  0  0  0  0  3  0  0  0  0  0  0
   36.9520   26.7900   42.6950 C   0  0  0  0  0  3  0  0  0  0  0  0
   36.9580   27.8690   41.1640 S   0  0  0  0  0  0  0  0  0  0  0  0
  1  7  1  0  0  0  0
  1  2  1  0  0  0  0
  2  8  1  0  0  0  0
  3  2  2  0  0  0  0
  3 12  1  0  0  0  0
  4  3  1  0  0  0  0
  5  6  1  0  0  0  0
  5  4  2  0  0  0  0
  6  1  2  0  0  0  0
  7 10  1  0  0  0  0
  9  5  1  0  0  0  0
 11  7  1  0  0  0  0
 12 13  2  0  0  0  0
 13 15  1  0  0  0  0
 13 14  1  0  0  0  0
 16 15  2  0  0  0  0
 17 12  1  0  0  0  0
 17 16  1  0  0  0  0
M  END
>  <minimizedAffinity>
-3.99260807

$$$$

 OpenBabel03242516393D

 17 18  0  0  0  0  0  0  0  0999 V2000
   38.7640   25.0250   42.5830 C   0  0  0  0  0  0  0  0  0  0  0  0
   37.9150   25.9870   41.9770 C   0  0  0  0  0  0  0  0  0  0  0  0
   38.1390   27.3420   42.2770 C   0  0  0  0  0  0  0  0  0  0  0  0
   39.1490   27.6440   43.1230 N   0  0  0  0  0  0  0  0  0  0  0  0
   39.9340   26.7170   43.6790 C   0  0  0  0  0  0  0  0  0  0  0  0
   39.7420   25.4120   43.4110 N   0  0  0  0  0  0  0  0  0  0  0  0
   38.5370   23.6590   42.2810 N   0  0  0  0  0  0  0  0  0  0  0  0
   37.1190   25.7450   41.3100 H   0  0  0  0  0  0  0  0  0  0  0  0
   40.7400   26.9830   44.3570 H   0  0  0  0  0  0  0  0  0  0  0  0
   37.5740   23.3190   42.0390 H   0  0  0  0  0  0  0  0  0  0  0  0
   39.2580   22.9180   42.2700 H   0  0  0  0  0  0  0  0  0  0  0  0
   37.3550   28.4250   41.7340 C   0  0  0  0  0  0  0  0  0  0  0  0
   36.1370   28.2930   41.0630 C   0  0  0  0  0  0  0  0  0  0  0  0
   35.6860   27.3230   40.9030 H   0  0  0  0  0  0  0  0  0  0  0  0
   35.5460   29.4500   40.6220 C   0  0  0  0  0  3  0  0  0  0  0  0
   36.2050   30.6670   40.8750 C   0  0  0  0  0  3  0  0  0  0  0  0
   37.7400   30.1040   41.7900 S   0  0  0  0  0  0  0  0  0  0  0  0
  1  6  1  0  0  0  0
  2  3  1  0  0  0  0
  2  1  2  0  0  0  0
  3  4  2  0  0  0  0
  4  5  1  0  0  0  0
  5  9  1  0  0  0  0
  6  5  2  0  0  0  0
  7  1  1  0  0  0  0
  8  2  1  0  0  0  0
 10  7  1  0  0  0  0
 11  7  1  0  0  0  0
 12 17  1  0  0  0  0
 12  3  1  0  0  0  0
 13 12  2  0  0  0  0
 14 13  1  0  0  0  0
 15 16  2  0  0  0  0
 15 13  1  0  0  0  0
 16 17  1  0  0  0  0
M  END
>  <minimizedAffinity>
-3.98215294

$$$$

 OpenBabel03242516393D

 17 18  0  0  0  0  0  0  0  0999 V2000
   37.3790   28.0810   43.1800 C   0  0  0  0  0  0  0  0  0  0  0  0
   37.2130   29.2890   42.4540 C   0  0  0  0  0  0  0  0  0  0  0  0
   38.3680   29.9260   41.9670 C   0  0  0  0  0  0  0  0  0  0  0  0
   39.5640   29.3480   42.2190 N   0  0  0  0  0  0  0  0  0  0  0  0
   39.6900   28.2090   42.9060 C   0  0  0  0  0  0  0  0  0  0  0  0
   38.6020   27.5780   43.3850 N   0  0  0  0  0  0  0  0  0  0  0  0
   36.2140   27.4400   43.6710 N   0  0  0  0  0  0  0  0  0  0  0  0
   36.2680   29.7420   42.2570 H   0  0  0  0  0  0  0  0  0  0  0  0
   40.6620   27.7610   43.0970 H   0  0  0  0  0  0  0  0  0  0  0  0
   35.3620   28.0000   43.9200 H   0  0  0  0  0  0  0  0  0  0  0  0
   36.1050   26.4230   43.8200 H   0  0  0  0  0  0  0  0  0  0  0  0
   38.3500   31.1570   41.2140 C   0  0  0  0  0  0  0  0  0  0  0  0
   37.2400   31.6940   40.5570 C   0  0  0  0  0  0  0  0  0  0  0  0
   36.2810   31.1940   40.5740 H   0  0  0  0  0  0  0  0  0  0  0  0
   37.4290   32.8800   39.8940 C   0  0  0  0  0  3  0  0  0  0  0  0
   38.7110   33.4580   39.9260 C   0  0  0  0  0  3  0  0  0  0  0  0
   39.6760   32.2280   40.9600 S   0  0  0  0  0  0  0  0  0  0  0  0
  1  6  1  0  0  0  0
  1  7  1  0  0  0  0
  2  1  2  0  0  0  0
  3  4  2  0  0  0  0
  3  2  1  0  0  0  0
  4  5  1  0  0  0  0
  5  9  1  0  0  0  0
  5  6  2  0  0  0  0
  7 11  1  0  0  0  0
  7 10  1  0  0  0  0
  8  2  1  0  0  0  0
 12  3  1  0  0  0  0
 13 14  1  0  0  0  0
 13 12  2  0  0  0  0
 15 16  2  0  0  0  0
 15 13  1  0  0  0  0
 16 17  1  0  0  0  0
 17 12  1  0  0  0  0
M  END
>  <minimizedAffinity>
-3.97320771

$$$$

 OpenBabel03242516393D

 17 18  0  0  0  0  0  0  0  0999 V2000
   39.8910   32.3180   38.3560 C   0  0  0  0  0  0  0  0  0  0  0  0
   39.2140   31.2900   39.0630 C   0  0  0  0  0  0  0  0  0  0  0  0
   39.2410   31.3340   40.4680 C   0  0  0  0  0  0  0  0  0  0  0  0
   39.9090   32.3510   41.0580 N   0  0  0  0  0  0  0  0  0  0  0  0
   40.5380   33.3050   40.3660 C   0  0  0  0  0  0  0  0  0  0  0  0
   40.5300   33.2890   39.0200 N   0  0  0  0  0  0  0  0  0  0  0  0
   39.8640   32.2740   36.9400 N   0  0  0  0  0  0  0  0  0  0  0  0
   38.6890   30.4900   38.5950 H   0  0  0  0  0  0  0  0  0  0  0  0
   41.0680   34.1140   40.8610 H   0  0  0  0  0  0  0  0  0  0  0  0
   39.7900   31.3560   36.4360 H   0  0  0  0  0  0  0  0  0  0  0  0
   39.9120   33.0930   36.3110 H   0  0  0  0  0  0  0  0  0  0  0  0
   38.5970   30.3570   41.3140 C   0  0  0  0  0  0  0  0  0  0  0  0
   38.9880   30.0210   42.6120 C   0  0  0  0  0  0  0  0  0  0  0  0
   39.8370   30.4950   43.0840 H   0  0  0  0  0  0  0  0  0  0  0  0
   38.2410   29.0650   43.2530 C   0  0  0  0  0  3  0  0  0  0  0  0
   37.1530   28.5020   42.5610 C   0  0  0  0  0  3  0  0  0  0  0  0
   37.2200   29.4000   40.9180 S   0  0  0  0  0  0  0  0  0  0  0  0
  1  6  2  0  0  0  0
  1  2  1  0  0  0  0
  2  3  2  0  0  0  0
  3  4  1  0  0  0  0
  3 12  1  0  0  0  0
  5  9  1  0  0  0  0
  5  4  2  0  0  0  0
  6  5  1  0  0  0  0
  7  1  1  0  0  0  0
  8  2  1  0  0  0  0
 10  7  1  0  0  0  0
 11  7  1  0  0  0  0
 12 13  2  0  0  0  0
 13 14  1  0  0  0  0
 13 15  1  0  0  0  0
 16 15  2  0  0  0  0
 17 12  1  0  0  0  0
 17 16  1  0  0  0  0
M  END
>  <minimizedAffinity>
-3.92640162

$$$$
