
 OpenBabel03252505113D

 41 44  0  0  1  0  0  0  0  0999 V2000
   44.5860   35.5920   44.6280 C   0  0  0  0  0  0  0  0  0  0  0  0
   45.2220   35.6060   43.3780 C   0  0  0  0  0  0  0  0  0  0  0  0
   46.3050   34.6870   43.1840 C   0  0  0  0  0  0  0  0  0  0  0  0
   46.6520   33.8640   44.2080 N   0  0  0  0  0  0  0  0  0  0  0  0
   46.0120   33.8870   45.3920 C   0  0  0  0  0  0  0  0  0  0  0  0
   44.9670   34.7610   45.6050 N   0  0  0  0  0  0  0  0  0  0  0  0
   43.7790   36.3100   44.6950 H   0  0  0  0  0  0  0  0  0  0  0  0
   44.9520   36.2470   42.5770 H   0  0  0  0  0  0  0  0  0  0  0  0
   46.4270   32.9710   46.4760 C   0  0  2  0  0  0  0  0  0  0  0  0
   46.9700   31.7470   45.7680 C   0  0  0  0  0  0  0  0  0  0  0  0
   46.1000   30.5590   45.7970 C   0  0  0  0  0  0  0  0  0  0  0  0
   45.8210   30.2900   47.2750 C   0  0  0  0  0  0  0  0  0  0  0  0
   45.0190   31.3600   47.8860 C   0  0  0  0  0  0  0  0  0  0  0  0
   45.3820   32.7240   47.4300 C   0  0  0  0  0  0  0  0  0  0  0  0
   47.2790   33.4920   46.9900 H   0  0  0  0  0  0  0  0  0  0  0  0
   47.9290   31.4740   46.2660 H   0  0  0  0  0  0  0  0  0  0  0  0
   47.2530   31.9410   44.7120 H   0  0  0  0  0  0  0  0  0  0  0  0
   46.6790   29.7020   45.4130 H   0  0  0  0  0  0  0  0  0  0  0  0
   45.1440   30.7130   45.2950 H   0  0  0  0  0  0  0  0  0  0  0  0
   45.1830   29.3950   47.2890 H   0  0  0  0  0  0  0  0  0  0  0  0
   46.7810   30.0990   47.7730 H   0  0  0  0  0  0  0  0  0  0  0  0
   44.2260   31.4030   48.5870 H   0  0  0  0  0  0  0  0  0  0  0  0
   44.6820   33.8700   47.9400 N   0  0  0  0  0  0  0  0  0  0  0  0
   43.6820   33.8080   47.6070 H   0  0  0  0  0  0  0  0  0  0  0  0
   45.1050   34.6120   48.5320 H   0  0  0  0  0  0  0  0  0  0  0  0
   46.9830   34.6650   41.9000 C   0  0  0  0  0  0  0  0  0  0  0  0
   48.1530   35.3520   41.7800 C   0  0  0  0  0  0  0  0  0  0  0  0
   48.7710   35.2980   40.5170 C   0  0  0  0  0  0  0  0  0  0  0  0
   48.1240   34.5530   39.5410 C   0  0  0  0  0  0  0  0  0  0  0  0
   46.9600   33.8700   39.6630 C   0  0  0  0  0  0  0  0  0  0  0  0
   46.3930   33.9490   40.9040 N   0  0  0  0  0  0  0  0  0  0  0  0
   48.5900   35.9070   42.5950 H   0  0  0  0  0  0  0  0  0  0  0  0
   49.6900   35.8310   40.4040 H   0  0  0  0  0  0  0  0  0  0  0  0
   48.6940   34.5890   38.6280 H   0  0  0  0  0  0  0  0  0  0  0  0
   46.3760   33.1510   38.6530 O   0  0  0  0  0  0  0  0  0  0  0  0
   47.1380   32.5950   37.6610 C   0  0  0  0  0  0  0  0  0  0  0  0
   47.9110   32.0600   36.7510 C   0  0  0  0  0  0  0  0  0  0  0  0
   48.8050   31.9410   37.3600 H   0  0  0  0  0  0  0  0  0  0  0  0
   47.5780   31.7960   35.4930 C   0  0  0  0  0  3  0  0  0  0  0  0
   46.2940   32.1180   35.1160 C   0  0  0  0  0  3  0  0  0  0  0  0
   45.6040   32.8440   36.7560 S   0  0  0  0  0  0  0  0  0  0  0  0
  1  7  1  0  0  0  0
  1  6  1  0  0  0  0
  2  1  2  0  0  0  0
  3  2  1  0  0  0  0
  3  4  2  0  0  0  0
  4  5  1  0  0  0  0
  5  6  2  0  0  0  0
  5  9  1  0  0  0  0
  8  2  1  0  0  0  0
  9 15  1  1  0  0  0
  9 14  1  0  0  0  0
 10 11  1  0  0  0  0
 10 16  1  0  0  0  0
 10  9  1  0  0  0  0
 11 12  1  0  0  0  0
 12 20  1  0  0  0  0
 12 21  1  0  0  0  0
 12 13  1  0  0  0  0
 13 22  1  0  0  0  0
 14 13  2  0  0  0  0
 14 23  1  0  0  0  0
 17 10  1  0  0  0  0
 18 11  1  0  0  0  0
 19 11  1  0  0  0  0
 23 25  1  0  0  0  0
 24 23  1  0  0  0  0
 26  3  1  0  0  0  0
 27 26  1  0  0  0  0
 27 32  1  0  0  0  0
 28 27  2  0  0  0  0
 29 30  2  0  0  0  0
 29 28  1  0  0  0  0
 30 31  1  0  0  0  0
 31 26  2  0  0  0  0
 33 28  1  0  0  0  0
 34 29  1  0  0  0  0
 35 30  1  0  0  0  0
 36 35  1  0  0  0  0
 37 38  1  0  0  0  0
 37 36  2  0  0  0  0
 39 37  1  0  0  0  0
 40 39  2  0  0  0  0
 40 41  1  0  0  0  0
 41 36  1  0  0  0  0
M  END
>  <minimizedAffinity>
-7.10829926

>  <minimizedRMSD>
0.944070339

$$$$
