
     RDKit          3D

 43 46  0  0  0  0  0  0  0  0999 V2000
   44.5858   35.5867   44.6123 C   0  0  0  0  0  0  0  0  0  0  0  0
   45.2297   35.6052   43.3656 C   0  0  0  0  0  0  0  0  0  0  0  0
   46.3178   34.6906   43.1778 C   0  0  0  0  0  0  0  0  0  0  0  0
   46.6619   33.8685   44.2028 N   0  0  0  0  0  0  0  0  0  0  0  0
   46.0140   33.8870   45.3825 C   0  0  0  0  0  0  0  0  0  0  0  0
   44.9636   34.7559   45.5905 N   0  0  0  0  0  0  0  0  0  0  0  0
   46.4266   32.9714   46.4677 C   0  0  2  0  0  0  0  0  0  0  0  0
   46.9727   31.7475   45.7619 C   0  0  0  0  0  0  0  0  0  0  0  0
   46.1042   30.5595   45.7878 C   0  0  0  0  0  0  0  0  0  0  0  0
   45.8199   30.2888   47.2646 C   0  0  0  0  0  0  0  0  0  0  0  0
   45.0153   31.3593   47.8731 C   0  0  0  0  0  0  0  0  0  0  0  0
   45.3791   32.7233   47.4179 C   0  0  0  0  0  0  0  0  0  0  0  0
   44.6763   33.8685   47.9264 N   0  0  0  0  0  0  0  0  0  0  0  0
   47.0038   34.6733   41.8978 C   0  0  0  0  0  0  0  0  0  0  0  0
   48.1514   35.3974   41.7749 C   0  0  0  0  0  0  0  0  0  0  0  0
   48.7784   35.3460   40.5163 C   0  0  0  0  0  0  0  0  0  0  0  0
   48.1624   34.5670   39.5465 C   0  0  0  0  0  0  0  0  0  0  0  0
   47.0203   33.8469   39.6715 C   0  0  0  0  0  0  0  0  0  0  0  0
   46.4433   33.9248   40.9092 N   0  0  0  0  0  0  0  0  0  0  0  0
   46.4656   33.0965   38.6688 O   0  0  0  0  0  0  0  0  0  0  0  0
   43.7756   36.3013   44.6746 H   0  0  0  0  0  0  0  0  0  0  0  0
   44.9619   36.2460   42.5636 H   0  0  0  0  0  0  0  0  0  0  0  0
   47.2764   33.4928   46.9853 H   0  0  0  0  0  0  0  0  0  0  0  0
   47.9302   31.4750   46.2628 H   0  0  0  0  0  0  0  0  0  0  0  0
   47.2592   31.9418   44.7068 H   0  0  0  0  0  0  0  0  0  0  0  0
   46.6847   29.7021   45.4061 H   0  0  0  0  0  0  0  0  0  0  0  0
   45.1488   30.7120   45.2832 H   0  0  0  0  0  0  0  0  0  0  0  0
   45.1832   29.3940   47.2773 H   0  0  0  0  0  0  0  0  0  0  0  0
   46.7793   30.0985   47.7659 H   0  0  0  0  0  0  0  0  0  0  0  0
   44.2204   31.4008   48.5718 H   0  0  0  0  0  0  0  0  0  0  0  0
   43.6774   33.8056   47.5903 H   0  0  0  0  0  0  0  0  0  0  0  0
   45.0956   34.6113   48.5196 H   0  0  0  0  0  0  0  0  0  0  0  0
   48.5649   35.9772   42.5836 H   0  0  0  0  0  0  0  0  0  0  0  0
   49.6803   35.9072   40.4005 H   0  0  0  0  0  0  0  0  0  0  0  0
   48.7361   34.6095   38.6374 H   0  0  0  0  0  0  0  0  0  0  0  0
   47.0656   33.0211   37.4411 C   0  0  0  0  0  0  0  0  0  0  0  0
   47.6801   32.9150   36.2906 C   0  0  0  0  0  0  0  0  0  0  0  0
   48.4941   32.2675   36.6106 H   0  0  0  0  0  0  0  0  0  0  0  0
   47.3116   33.4822   35.1467 C   0  0  0  0  0  0  0  0  0  0  0  0
   46.1729   34.2542   35.1820 C   0  0  0  0  0  0  0  0  0  0  0  0
   45.6772   34.0874   37.0313 S   0  0  0  0  0  0  0  0  0  0  0  0
   47.9791   33.2527   34.3105 H   0  0  0  0  0  0  0  0  0  0  0  0
   45.9139   34.7319   34.0883 H   0  0  0  0  0  0  0  0  0  0  0  0
  1  6  2  0
  2  1  1  0
  3  2  2  0
  3  4  1  0
  4  5  2  0
  5  6  1  0
  5  7  1  0
  7 12  1  0
  8  9  1  0
  8  7  1  0
  9 10  1  0
 10 11  1  0
 12 11  2  0
 12 13  1  0
 14  3  1  0
 15 14  2  0
 16 15  1  0
 17 18  1  0
 17 16  2  0
 18 19  2  0
 19 14  1  0
 20 18  1  0
  1 21  1  0
  2 22  1  0
  7 23  1  1
  8 24  1  0
  8 25  1  0
  9 26  1  0
  9 27  1  0
 10 28  1  0
 10 29  1  0
 11 30  1  0
 13 31  1  0
 13 32  1  0
 15 33  1  0
 16 34  1  0
 17 35  1  0
 36 37  2  0
 37 38  1  0
 37 39  1  0
 39 40  2  0
 40 41  1  0
 41 36  1  0
 39 42  1  0
 40 43  1  0
 20 36  1  0
M  ISO  8  21  14  22  14  23  13  24  13  25  13  26  13  27  13  28  13
M  ISO  6  29  13  30  13  33  14  34  14  35  14  38  15
M  END
>  <DihAtoms>  (1) 
17,19,35,36

>  <DihDeg>  (1) 
-1.7899631857168745

$$$$
