
     RDKit          3D

 43 46  0  0  0  0  0  0  0  0999 V2000
   47.0579   34.8069   41.9565 C   0  0  2  0  0  0  0  0  0  0  0  0
   46.2992   34.1893   40.7805 C   0  0  0  0  0  0  0  0  0  0  0  0
   47.4973   33.9925   39.8301 C   0  0  0  0  0  0  0  0  0  0  0  0
   48.6400   33.6240   40.7235 C   0  0  1  0  0  0  0  0  0  0  0  0
   48.1307   33.7662   42.1281 C   0  0  0  0  0  0  0  0  0  0  0  0
   44.5583   35.9995   44.5084 C   0  0  0  0  0  0  0  0  0  0  0  0
   45.2957   35.9832   43.3151 C   0  0  0  0  0  0  0  0  0  0  0  0
   46.1940   34.9317   43.1602 C   0  0  0  0  0  0  0  0  0  0  0  0
   46.3371   33.9540   44.1558 N   0  0  0  0  0  0  0  0  0  0  0  0
   45.5912   34.0317   45.2868 C   0  0  0  0  0  0  0  0  0  0  0  0
   44.7071   35.0522   45.4569 N   0  0  0  0  0  0  0  0  0  0  0  0
   49.1236   32.1999   40.5655 C   0  0  2  0  0  0  0  0  0  0  0  0
   49.7687   31.6153   41.7373 C   0  0  0  0  0  0  0  0  0  0  0  0
   50.5507   31.8788   40.4954 C   0  0  1  0  0  0  0  0  0  0  0  0
   50.9294   30.7650   39.7095 O   0  0  0  0  0  0  0  0  0  0  0  0
   52.0396   30.2084   37.4201 O   0  0  0  0  0  0  0  0  0  0  0  0
   51.8818   31.3096   38.4408 P   0  0  1  0  0  0  0  0  0  0  0  0
   51.1072   32.6249   37.6538 O   0  0  0  0  0  0  0  0  0  0  0  0
   53.3916   31.8470   38.8745 O   0  0  0  0  0  0  0  0  0  0  0  0
   47.4586   35.7674   41.6199 H   0  0  0  0  0  0  0  0  0  0  0  0
   45.9237   33.1974   41.0516 H   0  0  0  0  0  0  0  0  0  0  0  0
   45.5663   34.8739   40.3477 H   0  0  0  0  0  0  0  0  0  0  0  0
   47.7261   34.9862   39.3779 H   0  0  0  0  0  0  0  0  0  0  0  0
   47.2656   33.2168   39.0790 H   0  0  0  0  0  0  0  0  0  0  0  0
   49.5200   34.2939   40.6024 H   0  0  0  0  0  0  0  0  0  0  0  0
   48.8981   34.1926   42.8087 H   0  0  0  0  0  0  0  0  0  0  0  0
   47.6789   32.8369   42.5214 H   0  0  0  0  0  0  0  0  0  0  0  0
   43.8499   36.8066   44.6574 H   0  0  0  0  0  0  0  0  0  0  0  0
   45.2092   36.7145   42.5367 H   0  0  0  0  0  0  0  0  0  0  0  0
   45.7923   33.2239   45.9739 H   0  0  0  0  0  0  0  0  0  0  0  0
   48.4364   31.5621   39.9851 H   0  0  0  0  0  0  0  0  0  0  0  0
   49.9009   32.2186   42.6358 H   0  0  0  0  0  0  0  0  0  0  0  0
   49.4932   30.5526   41.9977 H   0  0  0  0  0  0  0  0  0  0  0  0
   51.2580   32.7206   40.4796 H   0  0  0  0  0  0  0  0  0  0  0  0
   51.0576   33.3705   38.3282 H   0  0  0  0  0  0  0  0  0  0  0  0
   54.1264   32.6033   37.9641 C   0  0  0  0  0  0  0  0  0  0  0  0
   55.4255   32.8116   37.6742 C   0  0  0  0  0  0  0  0  0  0  0  0
   56.0771   32.2390   38.3206 H   0  0  0  0  0  0  0  0  0  0  0  0
   55.8051   33.6478   36.6830 C   0  0  0  0  0  0  0  0  0  0  0  0
   54.7487   34.2737   35.9890 C   0  0  0  0  0  0  0  0  0  0  0  0
   53.2185   33.5822   36.8521 S   0  0  0  0  0  0  0  0  0  0  0  0
   56.8514   33.8073   36.4592 H   0  0  0  0  0  0  0  0  0  0  0  0
   55.0796   35.0295   35.0934 H   0  0  0  0  0  0  0  0  0  0  0  0
  1  5  1  0
  1  8  1  0
  2  1  1  0
  3  4  1  0
  3  2  1  0
  4  5  1  0
  6 11  2  0
  7  6  1  0
  8  7  2  0
  8  9  1  0
  9 10  2  0
 10 11  1  0
 12  4  1  0
 12 13  1  0
 14 12  1  0
 14 13  1  0
 15 14  1  0
 16 17  2  0
 17 19  1  1
 17 15  1  0
 18 17  1  0
  1 20  1  6
  2 21  1  0
  2 22  1  0
  3 23  1  0
  3 24  1  0
  4 25  1  1
  5 26  1  0
  5 27  1  0
  6 28  1  0
  7 29  1  0
 10 30  1  0
 12 31  1  6
 13 32  1  0
 13 33  1  0
 14 34  1  1
 18 35  1  0
 36 37  2  0
 37 38  1  0
 37 39  1  0
 39 40  2  0
 40 41  1  0
 41 36  1  0
 39 42  1  0
 40 43  1  0
 19 36  1  0
M  ISO  8  20  13  21  13  22  13  23  13  24  13  25  13  26  13  27  13
M  ISO  8  28  14  29  14  30  14  31  13  32  13  33  13  34  13  35   3
M  ISO  1  38  15
M  END
>  <DihAtoms>  (1) 
16,18,35,36

>  <DihDeg>  (1) 
-0.04425968003856862

$$$$
