
 OpenBabel03252506053D

 40 44  0  0  0  0  0  0  0  0999 V2000
   44.7840   35.9620   43.3490 Cl  0  0  0  0  0  0  0  0  0  0  0  0
   45.5380   34.7180   44.2820 C   0  0  0  0  0  0  0  0  0  0  0  0
   46.6320   34.0340   43.7930 C   0  0  0  0  0  0  0  0  0  0  0  0
   47.1570   33.0650   44.6120 C   0  0  0  0  0  0  0  0  0  0  0  0
   46.6740   32.7370   45.8620 C   0  0  0  0  0  0  0  0  0  0  0  0
   45.5810   33.4410   46.3200 C   0  0  0  0  0  0  0  0  0  0  0  0
   44.9930   33.0000   47.9120 Cl  0  0  0  0  0  0  0  0  0  0  0  0
   45.0190   34.4170   45.5440 C   0  0  0  0  0  0  0  0  0  0  0  0
   48.0210   32.5330   44.2100 H   0  0  0  0  0  0  0  0  0  0  0  0
   44.1590   34.9410   45.9500 H   0  0  0  0  0  0  0  0  0  0  0  0
   47.3700   31.6720   46.5850 C   0  0  0  0  0  0  0  0  0  0  0  0
   47.4820   30.3920   46.1000 C   0  0  0  0  0  0  0  0  0  0  0  0
   48.1320   29.3710   46.7620 C   0  0  0  0  0  0  0  0  0  0  0  0
   48.7100   29.6250   47.9820 C   0  0  0  0  0  0  0  0  0  0  0  0
   49.3360   28.6300   48.6140 N   0  0  0  0  0  0  0  0  0  0  0  0
   49.9310   28.7940   49.8150 C   0  0  0  0  0  0  0  0  0  0  0  0
   49.8610   30.0730   50.3770 C   0  0  0  0  0  0  0  0  0  0  0  0
   49.2220   31.0950   49.7380 C   0  0  0  0  0  0  0  0  0  0  0  0
   48.6230   30.8940   48.5080 C   0  0  0  0  0  0  0  0  0  0  0  0
   47.9630   31.9110   47.8250 C   0  0  0  0  0  0  0  0  0  0  0  0
   47.0320   30.1720   45.1390 H   0  0  0  0  0  0  0  0  0  0  0  0
   48.1790   28.3850   46.3160 H   0  0  0  0  0  0  0  0  0  0  0  0
   50.4020   27.9200   50.2230 H   0  0  0  0  0  0  0  0  0  0  0  0
   50.3530   30.1570   51.3430 H   0  0  0  0  0  0  0  0  0  0  0  0
   49.1890   32.0700   50.2040 H   0  0  0  0  0  0  0  0  0  0  0  0
   47.9200   32.8890   48.2750 H   0  0  0  0  0  0  0  0  0  0  0  0
   48.7940   35.4380   41.2280 C   0  0  0  0  0  0  0  0  0  0  0  0
   48.3010   34.9040   40.0280 C   0  0  0  0  0  0  0  0  0  0  0  0
   47.1960   34.0390   40.1300 C   0  0  0  0  0  0  0  0  0  0  0  0
   46.6870   33.7820   41.3480 N   0  0  0  0  0  0  0  0  0  0  0  0
   47.1950   34.3220   42.4870 C   0  0  0  0  0  0  0  0  0  0  0  0
   48.2440   35.1450   42.4090 N   0  0  0  0  0  0  0  0  0  0  0  0
   49.6390   36.1020   41.1800 H   0  0  0  0  0  0  0  0  0  0  0  0
   48.7760   35.1700   39.1170 H   0  0  0  0  0  0  0  0  0  0  0  0
   46.6500   33.4610   38.9250 C   0  0  0  0  0  0  0  0  0  0  0  0
   45.5110   32.8320   38.6590 C   0  0  0  0  0  0  0  0  0  0  0  0
   44.8210   32.7030   39.4810 H   0  0  0  0  0  0  0  0  0  0  0  0
   45.2120   32.3660   37.4090 C   0  0  0  0  0  0  0  0  0  0  0  0
   46.2560   32.6240   36.4150 C   0  0  0  0  0  0  0  0  0  0  0  0
   47.5480   33.5170   37.4190 S   0  0  0  0  0  0  0  0  0  0  0  0
  1  2  1  0  0  0  0
  2  8  1  0  0  0  0
  3  2  2  0  0  0  0
  3  4  1  0  0  0  0
  4  5  2  0  0  0  0
  5  6  1  0  0  0  0
  5 11  1  0  0  0  0
  6  7  1  0  0  0  0
  8 10  1  0  0  0  0
  8  6  2  0  0  0  0
  9  4  1  0  0  0  0
 11 20  1  0  0  0  0
 12 11  2  0  0  0  0
 12 13  1  0  0  0  0
 13 14  2  0  0  0  0
 14 19  1  0  0  0  0
 14 15  1  0  0  0  0
 15 16  2  0  0  0  0
 16 23  1  0  0  0  0
 16 17  1  0  0  0  0
 17 24  1  0  0  0  0
 18 25  1  0  0  0  0
 18 17  2  0  0  0  0
 19 18  1  0  0  0  0
 20 26  1  0  0  0  0
 20 19  2  0  0  0  0
 21 12  1  0  0  0  0
 22 13  1  0  0  0  0
 27 32  1  0  0  0  0
 28 29  1  0  0  0  0
 28 27  2  0  0  0  0
 29 30  2  0  0  0  0
 30 31  1  0  0  0  0
 31  3  1  0  0  0  0
 32 31  2  0  0  0  0
 33 27  1  0  0  0  0
 34 28  1  0  0  0  0
 35 29  1  0  0  0  0
 36 35  2  0  0  0  0
 36 37  1  0  0  0  0
 38 36  1  0  0  0  0
 39 38  2  0  0  0  0
 39 40  1  0  0  0  0
 40 35  1  0  0  0  0
M  END
>  <minimizedAffinity>
-7.08926058

>  <minimizedRMSD>
0.475056291

$$$$
