REMARK  Name = 
REMARK  8 active torsions:
REMARK  status: ('A' for Active; 'I' for Inactive)
REMARK    1  A    between atoms: P_2  and  O_3
REMARK    2  A    between atoms: P_2  and  O_4
REMARK    3  A    between atoms: P_2  and  O_12
REMARK    4  A    between atoms: O_4  and  C_9
REMARK    5  A    between atoms: C_5  and  O_11
REMARK    6  A    between atoms: O_12  and  C_14
REMARK    7  A    between atoms: C_13  and  O_18
REMARK    8  A    between atoms: O_18  and  C_29
REMARK                            x       y       z     vdW  Elec       q    Type
REMARK                         _______ _______ _______ _____ _____    ______ ____
ROOT
ATOM      1  C   UNL     1      46.788  29.987  48.053  0.00  0.00    +0.000 C 
ATOM      2  C   UNL     1      45.340  30.289  48.150  0.00  0.00    +0.000 C 
ATOM      3  C   UNL     1      44.745  29.467  47.069  0.00  0.00    +0.000 C 
ATOM      4  O   UNL     1      45.539  28.340  46.918  0.00  0.00    +0.000 OA
ATOM      5  C   UNL     1      46.681  28.508  47.631  0.00  0.00    +0.000 C 
ATOM      6  H   UNL     1      47.456  30.378  47.350  0.00  0.00    +0.000 HD
ATOM      7  H   UNL     1      45.052  29.998  49.189  0.00  0.00    +0.000 HD
ATOM      8  H   UNL     1      44.404  29.958  46.179  0.00  0.00    +0.000 HD
ATOM      9  H   UNL     1      43.795  29.045  47.523  0.00  0.00    +0.000 HD
ATOM     10  H   UNL     1      46.627  27.975  48.626  0.00  0.00    +0.000 HD
ATOM     11  H   UNL     1      47.590  28.136  47.155  0.00  0.00    +0.000 HD
ENDROOT
BRANCH   2  12
ATOM     12  O   UNL     1      45.039  31.631  48.031  0.00  0.00    +0.000 OA
BRANCH  12  14
ATOM     13  O   UNL     1      47.328  32.685  47.506  0.00  0.00    +0.000 OA
ATOM     14  P   UNL     1      46.009  32.331  46.871  0.00  0.00    +0.000 P 
BRANCH  14  15
ATOM     15  O   UNL     1      46.294  31.211  45.631  0.00  0.00    +0.000 OA
ATOM     16  H   UNL     1      47.084  31.517  45.120  0.00  0.00    +0.000 HD
ENDBRANCH  14  15
BRANCH  14  17
ATOM     17  O   UNL     1      45.330  33.768  46.239  0.00  0.00    +0.000 OA
BRANCH  17  22
ATOM     18  C   UNL     1      45.217  35.821  43.331  0.00  0.00    +0.000 A 
ATOM     19  C   UNL     1      46.273  35.331  42.517  0.00  0.00    +0.000 A 
ATOM     20  C   UNL     1      47.019  34.262  43.025  0.00  0.00    +0.000 A 
ATOM     21  N   UNL     1      46.694  33.769  44.239  0.00  0.00    +0.000 NA
ATOM     22  C   UNL     1      45.677  34.269  44.981  0.00  0.00    +0.000 A 
ATOM     23  N   UNL     1      44.947  35.295  44.514  0.00  0.00    +0.000 NA
ATOM     24  H   UNL     1      46.502  35.749  41.554  0.00  0.00    +0.000 HD
ATOM     25  H   UNL     1      47.833  33.852  42.445  0.00  0.00    +0.000 HD
BRANCH  18  26
ATOM     26  O   UNL     1      44.486  36.879  42.824  0.00  0.00    +0.000 OA
ATOM     27  H   UNL     1      44.644  37.783  43.281  0.00  0.00    +0.000 HD
ENDBRANCH  18  26
ENDBRANCH  17  22
ENDBRANCH  14  17
ENDBRANCH  12  14
ENDBRANCH   2  12
BRANCH   1  28
ATOM     28  O   UNL     1      47.441  30.145  49.266  0.00  0.00    +0.000 OA
BRANCH  28  29
ATOM     29  C   UNL     1      48.533  30.594  49.669  0.00  0.00    +0.000 A 
ATOM     30  C   UNL     1      49.112  31.626  50.556  0.00  0.00    +0.000 A 
ATOM     31  H   UNL     1      48.286  32.155  50.986  0.00  0.00    +0.000 HD
ATOM     32  C   UNL     1      50.469  31.725  50.668  0.00  0.00    +0.000 A 
ATOM     33  C   UNL     1      51.315  30.834  49.931  0.00  0.00    +0.000 A 
ATOM     34  S   UNL     1      50.113  29.777  49.010  0.00  0.00    +0.000 S 
ENDBRANCH  28  29
ENDBRANCH   1  28
TORSDOF 8
