
 OpenBabel03252501453D

 20 21  0  0  0  0  0  0  0  0999 V2000
   44.6900   35.1900   44.1420 C   0  0  0  0  0  0  0  0  0  0  0  0
   44.5590   34.4920   42.9450 C   0  0  0  0  0  0  0  0  0  0  0  0
   44.9290   33.1600   42.9160 C   0  0  0  0  0  0  0  0  0  0  0  0
   45.4110   32.5760   44.0670 N   0  0  0  0  0  0  0  0  0  0  0  0
   45.5200   33.2850   45.2000 C   0  0  0  0  0  0  0  0  0  0  0  0
   45.1660   34.5660   45.2290 N   0  0  0  0  0  0  0  0  0  0  0  0
   44.4020   36.2340   44.1710 H   0  0  0  0  0  0  0  0  0  0  0  0
   44.8550   32.5450   42.0110 H   0  0  0  0  0  0  0  0  0  0  0  0
   46.0320   32.7030   46.4570 C   0  0  0  0  0  0  0  0  0  0  0  0
   47.3290   32.1440   46.6200 C   0  0  0  0  0  0  0  0  0  0  0  0
   48.0210   32.1240   45.7940 H   0  0  0  0  0  0  0  0  0  0  0  0
   47.6310   31.6490   47.8550 C   0  0  0  0  0  0  0  0  0  0  0  0
   46.7490   31.6690   48.9250 C   0  0  0  0  0  0  0  0  0  0  0  0
   45.2420   32.5160   48.0870 S   0  0  0  0  0  0  0  0  0  0  0  0
   44.0510   35.1200   41.7320 C   0  0  0  0  0  0  0  0  0  0  0  0
   43.1370   34.6470   40.9220 C   0  0  0  0  0  0  0  0  0  0  0  0
   42.6930   35.3860   39.7010 C   0  0  0  0  0  0  0  0  0  0  0  0
   43.4690   36.1240   39.3610 H   0  0  0  0  0  0  0  0  0  0  0  0
   41.7810   35.9600   39.9950 H   0  0  0  0  0  0  0  0  0  0  0  0
   42.3830   34.7020   38.8860 H   0  0  0  0  0  0  0  0  0  0  0  0
  1  7  1  0  0  0  0
  1  6  1  0  0  0  0
  2  1  2  0  0  0  0
  3  2  1  0  0  0  0
  3  4  2  0  0  0  0
  4  5  1  0  0  0  0
  5  6  2  0  0  0  0
  5  9  1  0  0  0  0
  8  3  1  0  0  0  0
  9 10  2  0  0  0  0
  9 14  1  0  0  0  0
 10 12  1  0  0  0  0
 11 10  1  0  0  0  0
 12 13  2  0  0  0  0
 14 13  1  0  0  0  0
 15  2  1  0  0  0  0
 16 15  2  0  0  0  0
 17 19  1  0  0  0  0
 17 16  1  0  0  0  0
 18 17  1  0  0  0  0
 20 17  1  0  0  0  0
M  END
>  <minimizedAffinity>
-3.81881189

>  <minimizedRMSD>
1.1763761

$$$$
