
 OpenBabel03242523533D

 42 45  0  0  1  0  0  0  0  0999 V2000
   42.6720   34.4110   38.8770 C   0  0  1  0  0  0  0  0  0  0  0  0
   43.0050   35.1690   40.1530 C   0  0  1  0  0  0  0  0  0  0  0  0
   41.8010   35.5900   40.7460 O   0  0  0  0  0  0  0  0  0  0  0  0
   40.8340   35.9490   39.8040 C   0  0  0  0  0  0  0  0  0  0  0  0
   40.3180   34.7440   39.0390 C   0  0  2  0  0  0  0  0  0  0  0  0
   41.4270   33.6400   39.1660 C   0  0  1  0  0  0  0  0  0  0  0  0
   43.5260   33.7520   38.5780 H   0  0  0  0  0  0  0  0  0  0  0  0
   43.6930   36.0120   39.9900 H   0  0  0  0  0  0  0  0  0  0  0  0
   39.9930   36.3610   40.3720 H   0  0  0  0  0  0  0  0  0  0  0  0
   41.1910   36.7500   39.1270 H   0  0  0  0  0  0  0  0  0  0  0  0
   39.3680   34.3690   39.4460 H   0  0  0  0  0  0  0  0  0  0  0  0
   41.2810   33.4810   40.2860 H   0  0  0  0  0  0  0  0  0  0  0  0
   42.4720   35.2940   37.8060 O   0  0  0  0  0  0  0  0  0  0  0  0
   43.3100   35.6630   37.4850 H   0  0  0  0  0  0  0  0  0  0  0  0
   40.2610   35.0430   37.6850 O   0  0  0  0  0  0  0  0  0  0  0  0
   39.3430   35.3300   37.4100 H   0  0  0  0  0  0  0  0  0  0  0  0
   43.5030   34.2020   41.0410 O   0  0  0  0  0  0  0  0  0  0  0  0
   44.6240   34.3240   41.7610 C   0  0  0  0  0  0  0  0  0  0  0  0
   45.8740   34.4490   41.1360 C   0  0  0  0  0  0  0  0  0  0  0  0
   47.0020   34.5740   41.9310 C   0  0  0  0  0  0  0  0  0  0  0  0
   46.8620   34.5730   43.3080 N   0  0  0  0  0  0  0  0  0  0  0  0
   45.6400   34.4520   43.8740 C   0  0  0  0  0  0  0  0  0  0  0  0
   44.5270   34.3280   43.1040 N   0  0  0  0  0  0  0  0  0  0  0  0
   45.9900   34.4500   40.0670 H   0  0  0  0  0  0  0  0  0  0  0  0
   45.6070   34.4590   44.9560 H   0  0  0  0  0  0  0  0  0  0  0  0
   48.3690   34.6950   41.3410 C   0  0  0  0  0  0  0  0  0  0  0  0
   49.0770   36.0390   41.5210 C   0  0  0  0  0  0  0  0  0  0  0  0
   49.5340   34.7170   42.1680 C   0  0  0  0  0  0  0  0  0  0  0  0
   48.4220   34.3150   40.2820 H   0  0  0  0  0  0  0  0  0  0  0  0
   48.6310   36.7580   42.2080 H   0  0  0  0  0  0  0  0  0  0  0  0
   49.7440   36.3790   40.7070 H   0  0  0  0  0  0  0  0  0  0  0  0
   50.4900   34.2710   41.8240 H   0  0  0  0  0  0  0  0  0  0  0  0
   49.4050   34.6420   43.2760 H   0  0  0  0  0  0  0  0  0  0  0  0
   41.1030   32.6430   38.3200 O   0  0  0  0  0  0  0  0  0  0  0  0
   40.1470   31.7190   38.3930 C   0  0  0  0  0  0  0  0  0  0  0  0
   39.3980   31.3710   37.3600 O   0  0  0  0  0  0  0  0  0  0  0  0
   39.6120   30.7990   39.5700 C   0  0  0  0  0  0  0  0  0  0  0  0
   39.8080   29.5650   39.8740 C   0  0  0  0  0  0  0  0  0  0  0  0
   40.4750   29.0330   39.2050 H   0  0  0  0  0  0  0  0  0  0  0  0
   39.1970   29.0270   40.9620 C   0  0  0  0  0  3  0  0  0  0  0  0
   38.3720   29.8870   41.6940 C   0  0  0  0  0  3  0  0  0  0  0  0
   38.5480   31.5220   40.6950 S   0  0  0  0  0  0  0  0  0  0  0  0
  1  7  1  6  0  0  0
  1  6  1  0  0  0  0
  1  2  1  0  0  0  0
  2  8  1  6  0  0  0
  2  3  1  0  0  0  0
  2 17  1  0  0  0  0
  4  9  1  0  0  0  0
  4  3  1  0  0  0  0
  5  6  1  0  0  0  0
  5 11  1  1  0  0  0
  5  4  1  0  0  0  0
  6 12  1  1  0  0  0
 10  4  1  0  0  0  0
 13  1  1  0  0  0  0
 14 13  1  0  0  0  0
 15  5  1  0  0  0  0
 16 15  1  0  0  0  0
 17 18  1  0  0  0  0
 18 23  1  0  0  0  0
 19 18  2  0  0  0  0
 19 20  1  0  0  0  0
 20 21  2  0  0  0  0
 21 22  1  0  0  0  0
 22 25  1  0  0  0  0
 23 22  2  0  0  0  0
 24 19  1  0  0  0  0
 26 27  1  0  0  0  0
 26 20  1  0  0  0  0
 26 28  1  0  0  0  0
 27 28  1  0  0  0  0
 27 30  1  0  0  0  0
 28 33  1  0  0  0  0
 29 26  1  0  0  0  0
 31 27  1  0  0  0  0
 32 28  1  0  0  0  0
 34 35  1  0  0  0  0
 34  6  1  0  0  0  0
 35 37  1  0  0  0  0
 36 35  2  0  0  0  0
 37 38  2  0  0  0  0
 37 42  1  0  0  0  0
 38 40  1  0  0  0  0
 39 38  1  0  0  0  0
 40 41  2  0  0  0  0
 42 41  1  0  0  0  0
M  END
>  <minimizedAffinity>
-5.96004009

>  <minimizedRMSD>
1.57790089

$$$$
