
 OpenBabel03242516583D

 25 27  0  0  0  0  0  0  0  0999 V2000
   37.5400   29.5280   41.4990 C   0  0  0  0  0  0  0  0  0  0  0  0
   38.2820   29.6070   42.6490 C   0  0  0  0  0  0  0  0  0  0  0  0
   38.0790   28.7160   43.6800 C   0  0  0  0  0  0  0  0  0  0  0  0
   37.1160   27.7480   43.5260 C   0  0  0  0  0  0  0  0  0  0  0  0
   36.3450   27.6210   42.4000 C   0  0  0  0  0  0  0  0  0  0  0  0
   36.5990   28.5590   41.3850 C   0  0  0  0  0  0  0  0  0  0  0  0
   39.0520   30.3510   42.8190 H   0  0  0  0  0  0  0  0  0  0  0  0
   38.6530   28.7670   44.5830 H   0  0  0  0  0  0  0  0  0  0  0  0
   36.9300   27.0270   44.3250 H   0  0  0  0  0  0  0  0  0  0  0  0
   35.5840   26.8710   42.2560 H   0  0  0  0  0  0  0  0  0  0  0  0
   37.5400   32.6190   39.3220 C   0  0  0  0  0  0  0  0  0  0  0  0
   37.1800   31.7490   40.3780 C   0  0  0  0  0  0  0  0  0  0  0  0
   37.8210   30.5080   40.4650 C   0  0  0  0  0  0  0  0  0  0  0  0
   38.7470   30.2280   39.5230 N   0  0  0  0  0  0  0  0  0  0  0  0
   39.0880   31.0590   38.5180 C   0  0  0  0  0  0  0  0  0  0  0  0
   38.4770   32.2670   38.4160 N   0  0  0  0  0  0  0  0  0  0  0  0
   37.0290   33.5530   39.2930 H   0  0  0  0  0  0  0  0  0  0  0  0
   36.4420   31.9960   41.1120 H   0  0  0  0  0  0  0  0  0  0  0  0
   39.8420   30.7590   37.8010 H   0  0  0  0  0  0  0  0  0  0  0  0
   35.8250   28.4780   40.1770 C   0  0  0  0  0  0  0  0  0  0  0  0
   34.6450   29.1150   39.8450 C   0  0  0  0  0  0  0  0  0  0  0  0
   34.2090   29.7820   40.5770 H   0  0  0  0  0  0  0  0  0  0  0  0
   34.0750   28.8840   38.6190 C   0  0  0  0  0  3  0  0  0  0  0  0
   34.7710   27.9850   37.7780 C   0  0  0  0  0  3  0  0  0  0  0  0
   36.2250   27.4970   38.7780 S   0  0  0  0  0  0  0  0  0  0  0  0
  1  2  1  0  0  0  0
  2  7  1  0  0  0  0
  2  3  2  0  0  0  0
  3  8  1  0  0  0  0
  4  3  1  0  0  0  0
  4  9  1  0  0  0  0
  5  4  2  0  0  0  0
  6  1  2  0  0  0  0
  6  5  1  0  0  0  0
 10  5  1  0  0  0  0
 11 12  1  0  0  0  0
 12 13  2  0  0  0  0
 12 18  1  0  0  0  0
 13  1  1  0  0  0  0
 14 13  1  0  0  0  0
 15 14  2  0  0  0  0
 16 15  1  0  0  0  0
 16 11  2  0  0  0  0
 17 11  1  0  0  0  0
 19 15  1  0  0  0  0
 20  6  1  0  0  0  0
 21 20  2  0  0  0  0
 21 22  1  0  0  0  0
 23 21  1  0  0  0  0
 24 23  2  0  0  0  0
 24 25  1  0  0  0  0
 25 20  1  0  0  0  0
M  END
>  <minimizedAffinity>
-4.97530222

$$$$

 OpenBabel03242516583D

 25 27  0  0  0  0  0  0  0  0999 V2000
   36.6930   28.4820   41.3200 C   0  0  0  0  0  0  0  0  0  0  0  0
   36.5330   27.4470   42.2050 C   0  0  0  0  0  0  0  0  0  0  0  0
   37.2200   27.4300   43.3990 C   0  0  0  0  0  0  0  0  0  0  0  0
   38.0690   28.4720   43.6800 C   0  0  0  0  0  0  0  0  0  0  0  0
   38.2690   29.5330   42.8330 C   0  0  0  0  0  0  0  0  0  0  0  0
   37.5400   29.4930   41.6330 C   0  0  0  0  0  0  0  0  0  0  0  0
   35.8770   26.6020   42.0300 H   0  0  0  0  0  0  0  0  0  0  0  0
   37.1030   26.6260   44.0980 H   0  0  0  0  0  0  0  0  0  0  0  0
   38.6280   28.4880   44.6170 H   0  0  0  0  0  0  0  0  0  0  0  0
   38.9280   30.3620   43.0310 H   0  0  0  0  0  0  0  0  0  0  0  0
   34.0440   28.9110   38.6570 C   0  0  0  0  0  0  0  0  0  0  0  0
   34.6920   29.0460   39.9080 C   0  0  0  0  0  0  0  0  0  0  0  0
   35.9300   28.4200   40.0860 C   0  0  0  0  0  0  0  0  0  0  0  0
   36.4220   27.7230   39.0390 N   0  0  0  0  0  0  0  0  0  0  0  0
   35.8030   27.5960   37.8490 C   0  0  0  0  0  0  0  0  0  0  0  0
   34.6000   28.1960   37.6560 N   0  0  0  0  0  0  0  0  0  0  0  0
   33.1040   29.4040   38.5640 H   0  0  0  0  0  0  0  0  0  0  0  0
   34.2790   29.6060   40.7220 H   0  0  0  0  0  0  0  0  0  0  0  0
   36.2650   27.0180   37.0590 H   0  0  0  0  0  0  0  0  0  0  0  0
   37.7040   30.5780   40.7050 C   0  0  0  0  0  0  0  0  0  0  0  0
   37.0110   31.7700   40.6150 C   0  0  0  0  0  0  0  0  0  0  0  0
   36.2210   31.9490   41.3310 H   0  0  0  0  0  0  0  0  0  0  0  0
   37.3430   32.6710   39.6340 C   0  0  0  0  0  3  0  0  0  0  0  0
   38.3990   32.2850   38.7770 C   0  0  0  0  0  3  0  0  0  0  0  0
   38.8840   30.6350   39.4070 S   0  0  0  0  0  0  0  0  0  0  0  0
  1  6  2  0  0  0  0
  1  2  1  0  0  0  0
  2  3  2  0  0  0  0
  3  4  1  0  0  0  0
  3  8  1  0  0  0  0
  4  9  1  0  0  0  0
  5 10  1  0  0  0  0
  5  4  2  0  0  0  0
  6  5  1  0  0  0  0
  7  2  1  0  0  0  0
 11 12  1  0  0  0  0
 12 13  2  0  0  0  0
 12 18  1  0  0  0  0
 13  1  1  0  0  0  0
 14 13  1  0  0  0  0
 15 14  2  0  0  0  0
 16 15  1  0  0  0  0
 16 11  2  0  0  0  0
 17 11  1  0  0  0  0
 19 15  1  0  0  0  0
 20  6  1  0  0  0  0
 21 20  2  0  0  0  0
 21 22  1  0  0  0  0
 23 21  1  0  0  0  0
 24 25  1  0  0  0  0
 24 23  2  0  0  0  0
 25 20  1  0  0  0  0
M  END
>  <minimizedAffinity>
-4.912992

$$$$

 OpenBabel03242516583D

 25 27  0  0  0  0  0  0  0  0999 V2000
   38.5370   31.5130   40.8280 C   0  0  0  0  0  0  0  0  0  0  0  0
   39.3840   32.5410   41.1490 C   0  0  0  0  0  0  0  0  0  0  0  0
   39.1390   33.8210   40.7010 C   0  0  0  0  0  0  0  0  0  0  0  0
   38.0260   34.0400   39.9270 C   0  0  0  0  0  0  0  0  0  0  0  0
   37.1440   33.0500   39.5740 C   0  0  0  0  0  0  0  0  0  0  0  0
   37.4490   31.7680   40.0610 C   0  0  0  0  0  0  0  0  0  0  0  0
   40.2750   32.4210   41.7560 H   0  0  0  0  0  0  0  0  0  0  0  0
   39.7940   34.6330   40.9460 H   0  0  0  0  0  0  0  0  0  0  0  0
   37.8030   35.0420   39.5560 H   0  0  0  0  0  0  0  0  0  0  0  0
   36.2650   33.1970   38.9680 H   0  0  0  0  0  0  0  0  0  0  0  0
   38.9560   28.4670   43.0280 C   0  0  0  0  0  0  0  0  0  0  0  0
   38.5770   29.7740   42.6430 C   0  0  0  0  0  0  0  0  0  0  0  0
   38.8730   30.1970   41.3420 C   0  0  0  0  0  0  0  0  0  0  0  0
   39.5060   29.3150   40.5400 N   0  0  0  0  0  0  0  0  0  0  0  0
   39.8660   28.0700   40.9090 C   0  0  0  0  0  0  0  0  0  0  0  0
   39.5890   27.6410   42.1670 N   0  0  0  0  0  0  0  0  0  0  0  0
   38.7130   28.1850   44.0250 H   0  0  0  0  0  0  0  0  0  0  0  0
   38.0750   30.4540   43.3000 H   0  0  0  0  0  0  0  0  0  0  0  0
   40.3730   27.4230   40.2040 H   0  0  0  0  0  0  0  0  0  0  0  0
   36.5620   30.6880   39.7280 C   0  0  0  0  0  0  0  0  0  0  0  0
   35.5670   30.1030   40.4870 C   0  0  0  0  0  0  0  0  0  0  0  0
   35.4010   30.4870   41.4850 H   0  0  0  0  0  0  0  0  0  0  0  0
   34.8340   29.0700   39.9590 C   0  0  0  0  0  3  0  0  0  0  0  0
   35.1750   28.6870   38.6410 C   0  0  0  0  0  3  0  0  0  0  0  0
   36.5410   29.8230   38.2020 S   0  0  0  0  0  0  0  0  0  0  0  0
  1  2  1  0  0  0  0
  1 13  1  0  0  0  0
  2  7  1  0  0  0  0
  3  8  1  0  0  0  0
  3  2  2  0  0  0  0
  4  3  1  0  0  0  0
  5  4  2  0  0  0  0
  5  6  1  0  0  0  0
  6  1  2  0  0  0  0
  9  4  1  0  0  0  0
 10  5  1  0  0  0  0
 11 17  1  0  0  0  0
 12 11  1  0  0  0  0
 12 18  1  0  0  0  0
 13 12  2  0  0  0  0
 14 15  2  0  0  0  0
 14 13  1  0  0  0  0
 15 16  1  0  0  0  0
 16 11  2  0  0  0  0
 19 15  1  0  0  0  0
 20  6  1  0  0  0  0
 20 21  2  0  0  0  0
 21 22  1  0  0  0  0
 23 21  1  0  0  0  0
 24 23  2  0  0  0  0
 25 24  1  0  0  0  0
 25 20  1  0  0  0  0
M  END
>  <minimizedAffinity>
-4.73805285

$$$$

 OpenBabel03242516583D

 25 27  0  0  0  0  0  0  0  0999 V2000
   36.5900   26.1710   39.6610 C   0  0  0  0  0  0  0  0  0  0  0  0
   36.1260   25.1750   38.8430 C   0  0  0  0  0  0  0  0  0  0  0  0
   36.0480   23.8750   39.2920 C   0  0  0  0  0  0  0  0  0  0  0  0
   36.4460   23.6030   40.5780 C   0  0  0  0  0  0  0  0  0  0  0  0
   36.9180   24.5580   41.4410 C   0  0  0  0  0  0  0  0  0  0  0  0
   36.9740   25.8630   40.9240 C   0  0  0  0  0  0  0  0  0  0  0  0
   35.8000   25.3380   37.8210 H   0  0  0  0  0  0  0  0  0  0  0  0
   35.6860   23.0870   38.6610 H   0  0  0  0  0  0  0  0  0  0  0  0
   36.3970   22.5830   40.9640 H   0  0  0  0  0  0  0  0  0  0  0  0
   37.2370   24.3700   42.4530 H   0  0  0  0  0  0  0  0  0  0  0  0
   35.7830   29.7320   38.6770 C   0  0  0  0  0  0  0  0  0  0  0  0
   35.6200   28.4570   39.2680 C   0  0  0  0  0  0  0  0  0  0  0  0
   36.6390   27.5120   39.1060 C   0  0  0  0  0  0  0  0  0  0  0  0
   37.7180   27.8920   38.3880 N   0  0  0  0  0  0  0  0  0  0  0  0
   37.8720   29.1070   37.8270 C   0  0  0  0  0  0  0  0  0  0  0  0
   36.8930   30.0370   37.9720 N   0  0  0  0  0  0  0  0  0  0  0  0
   34.9840   30.4200   38.8250 H   0  0  0  0  0  0  0  0  0  0  0  0
   34.7530   28.1820   39.8330 H   0  0  0  0  0  0  0  0  0  0  0  0
   38.7690   29.3330   37.2640 H   0  0  0  0  0  0  0  0  0  0  0  0
   37.4580   26.9110   41.7810 C   0  0  0  0  0  0  0  0  0  0  0  0
   36.7880   27.6360   42.7460 C   0  0  0  0  0  0  0  0  0  0  0  0
   35.7420   27.4120   42.9110 H   0  0  0  0  0  0  0  0  0  0  0  0
   37.4590   28.6030   43.4520 C   0  0  0  0  0  3  0  0  0  0  0  0
   38.8220   28.7730   43.1160 C   0  0  0  0  0  3  0  0  0  0  0  0
   39.0970   27.5370   41.7930 S   0  0  0  0  0  0  0  0  0  0  0  0
  1  6  1  0  0  0  0
  2  3  1  0  0  0  0
  2  1  2  0  0  0  0
  3  4  2  0  0  0  0
  4  9  1  0  0  0  0
  4  5  1  0  0  0  0
  5 10  1  0  0  0  0
  6  5  2  0  0  0  0
  6 20  1  0  0  0  0
  7  2  1  0  0  0  0
  8  3  1  0  0  0  0
 11 17  1  0  0  0  0
 11 12  1  0  0  0  0
 12 18  1  0  0  0  0
 13 12  2  0  0  0  0
 13  1  1  0  0  0  0
 14 13  1  0  0  0  0
 15 16  1  0  0  0  0
 15 14  2  0  0  0  0
 16 11  2  0  0  0  0
 19 15  1  0  0  0  0
 20 25  1  0  0  0  0
 20 21  2  0  0  0  0
 21 22  1  0  0  0  0
 21 23  1  0  0  0  0
 24 23  2  0  0  0  0
 25 24  1  0  0  0  0
M  END
>  <minimizedAffinity>
-4.61089087

$$$$

 OpenBabel03242516583D

 25 27  0  0  0  0  0  0  0  0999 V2000
   36.3260   26.7570   39.4150 C   0  0  0  0  0  0  0  0  0  0  0  0
   35.6500   26.5910   38.2340 C   0  0  0  0  0  0  0  0  0  0  0  0
   34.8610   27.6010   37.7290 C   0  0  0  0  0  0  0  0  0  0  0  0
   34.7680   28.7740   38.4360 C   0  0  0  0  0  0  0  0  0  0  0  0
   35.4200   28.9950   39.6220 C   0  0  0  0  0  0  0  0  0  0  0  0
   36.2090   27.9290   40.0850 C   0  0  0  0  0  0  0  0  0  0  0  0
   35.6900   25.6860   37.6390 H   0  0  0  0  0  0  0  0  0  0  0  0
   34.3280   27.4830   36.8060 H   0  0  0  0  0  0  0  0  0  0  0  0
   34.1500   29.5930   38.0630 H   0  0  0  0  0  0  0  0  0  0  0  0
   35.3630   29.9060   40.1950 H   0  0  0  0  0  0  0  0  0  0  0  0
   37.5270   23.5640   41.0480 C   0  0  0  0  0  0  0  0  0  0  0  0
   36.6390   24.5960   40.6620 C   0  0  0  0  0  0  0  0  0  0  0  0
   37.1350   25.6410   39.8740 C   0  0  0  0  0  0  0  0  0  0  0  0
   38.4400   25.5870   39.5340 N   0  0  0  0  0  0  0  0  0  0  0  0
   39.2840   24.6030   39.9020 C   0  0  0  0  0  0  0  0  0  0  0  0
   38.8230   23.5810   40.6680 N   0  0  0  0  0  0  0  0  0  0  0  0
   37.1090   22.7900   41.6470 H   0  0  0  0  0  0  0  0  0  0  0  0
   35.6070   24.6140   40.9460 H   0  0  0  0  0  0  0  0  0  0  0  0
   40.3200   24.6330   39.5880 H   0  0  0  0  0  0  0  0  0  0  0  0
   36.9210   28.1000   41.3220 C   0  0  0  0  0  0  0  0  0  0  0  0
   36.5340   27.7810   42.6090 C   0  0  0  0  0  0  0  0  0  0  0  0
   35.5580   27.3350   42.7470 H   0  0  0  0  0  0  0  0  0  0  0  0
   37.3870   28.0370   43.6530 C   0  0  0  0  0  3  0  0  0  0  0  0
   38.6260   28.6230   43.3040 C   0  0  0  0  0  3  0  0  0  0  0  0
   38.5260   28.7890   41.4840 S   0  0  0  0  0  0  0  0  0  0  0  0
  1 13  1  0  0  0  0
  1  6  1  0  0  0  0
  2  1  2  0  0  0  0
  3  2  1  0  0  0  0
  3  4  2  0  0  0  0
  4  5  1  0  0  0  0
  5  6  2  0  0  0  0
  5 10  1  0  0  0  0
  6 20  1  0  0  0  0
  7  2  1  0  0  0  0
  8  3  1  0  0  0  0
  9  4  1  0  0  0  0
 11 17  1  0  0  0  0
 12 18  1  0  0  0  0
 12 11  2  0  0  0  0
 13 12  1  0  0  0  0
 14 13  2  0  0  0  0
 14 15  1  0  0  0  0
 15 16  2  0  0  0  0
 16 11  1  0  0  0  0
 19 15  1  0  0  0  0
 20 25  1  0  0  0  0
 20 21  2  0  0  0  0
 21 22  1  0  0  0  0
 21 23  1  0  0  0  0
 24 23  2  0  0  0  0
 25 24  1  0  0  0  0
M  END
>  <minimizedAffinity>
-4.5978775

$$$$

 OpenBabel03242516583D

 25 27  0  0  0  0  0  0  0  0999 V2000
   37.0280   25.9840   40.8490 C   0  0  0  0  0  0  0  0  0  0  0  0
   37.0150   24.7240   41.3890 C   0  0  0  0  0  0  0  0  0  0  0  0
   36.5140   23.6580   40.6750 C   0  0  0  0  0  0  0  0  0  0  0  0
   36.0300   23.8880   39.4110 C   0  0  0  0  0  0  0  0  0  0  0  0
   36.0170   25.1260   38.8200 C   0  0  0  0  0  0  0  0  0  0  0  0
   36.5400   26.1710   39.5980 C   0  0  0  0  0  0  0  0  0  0  0  0
   37.3850   24.4900   42.3810 H   0  0  0  0  0  0  0  0  0  0  0  0
   36.4990   22.6680   41.0870 H   0  0  0  0  0  0  0  0  0  0  0  0
   35.6260   23.0640   38.8190 H   0  0  0  0  0  0  0  0  0  0  0  0
   35.6420   25.3310   37.8310 H   0  0  0  0  0  0  0  0  0  0  0  0
   37.4680   28.7820   43.3530 C   0  0  0  0  0  0  0  0  0  0  0  0
   36.8230   27.7650   42.6110 C   0  0  0  0  0  0  0  0  0  0  0  0
   37.5730   27.0490   41.6720 C   0  0  0  0  0  0  0  0  0  0  0  0
   38.8740   27.3850   41.5420 N   0  0  0  0  0  0  0  0  0  0  0  0
   39.4860   28.3540   42.2500 C   0  0  0  0  0  0  0  0  0  0  0  0
   38.7750   29.0610   43.1650 N   0  0  0  0  0  0  0  0  0  0  0  0
   36.8610   29.3020   44.0570 H   0  0  0  0  0  0  0  0  0  0  0  0
   35.7880   27.5180   42.7350 H   0  0  0  0  0  0  0  0  0  0  0  0
   40.5360   28.5630   42.0850 H   0  0  0  0  0  0  0  0  0  0  0  0
   36.5570   27.4930   39.0340 C   0  0  0  0  0  0  0  0  0  0  0  0
   35.6100   28.4950   39.1160 C   0  0  0  0  0  0  0  0  0  0  0  0
   34.7090   28.2930   39.6780 H   0  0  0  0  0  0  0  0  0  0  0  0
   35.8410   29.6940   38.4890 C   0  0  0  0  0  3  0  0  0  0  0  0
   37.0680   29.7980   37.7950 C   0  0  0  0  0  3  0  0  0  0  0  0
   37.8540   28.1660   38.0630 S   0  0  0  0  0  0  0  0  0  0  0  0
  1  2  1  0  0  0  0
  1 13  1  0  0  0  0
  2  7  1  0  0  0  0
  3  8  1  0  0  0  0
  3  2  2  0  0  0  0
  4  3  1  0  0  0  0
  5  4  2  0  0  0  0
  5  6  1  0  0  0  0
  6  1  2  0  0  0  0
  9  4  1  0  0  0  0
 10  5  1  0  0  0  0
 11 17  1  0  0  0  0
 12 18  1  0  0  0  0
 12 11  2  0  0  0  0
 13 12  1  0  0  0  0
 14 13  2  0  0  0  0
 14 15  1  0  0  0  0
 15 16  2  0  0  0  0
 16 11  1  0  0  0  0
 19 15  1  0  0  0  0
 20 21  2  0  0  0  0
 20  6  1  0  0  0  0
 21 22  1  0  0  0  0
 23 21  1  0  0  0  0
 24 25  1  0  0  0  0
 24 23  2  0  0  0  0
 25 20  1  0  0  0  0
M  END
>  <minimizedAffinity>
-4.56211233

$$$$

 OpenBabel03242516583D

 25 27  0  0  0  0  0  0  0  0999 V2000
   37.6360   29.2260   41.5250 C   0  0  0  0  0  0  0  0  0  0  0  0
   36.5170   28.4880   41.8090 C   0  0  0  0  0  0  0  0  0  0  0  0
   36.5250   27.5610   42.8280 C   0  0  0  0  0  0  0  0  0  0  0  0
   37.6810   27.3950   43.5510 C   0  0  0  0  0  0  0  0  0  0  0  0
   38.8300   28.1050   43.3120 C   0  0  0  0  0  0  0  0  0  0  0  0
   38.7580   29.0330   42.2600 C   0  0  0  0  0  0  0  0  0  0  0  0
   35.5810   28.5810   41.2690 H   0  0  0  0  0  0  0  0  0  0  0  0
   35.6560   26.9790   43.0600 H   0  0  0  0  0  0  0  0  0  0  0  0
   37.7200   26.6690   44.3650 H   0  0  0  0  0  0  0  0  0  0  0  0
   39.7490   27.9920   43.8640 H   0  0  0  0  0  0  0  0  0  0  0  0
   37.1030   32.3490   39.4610 C   0  0  0  0  0  0  0  0  0  0  0  0
   37.1620   31.5160   40.6040 C   0  0  0  0  0  0  0  0  0  0  0  0
   37.5380   30.1790   40.4340 C   0  0  0  0  0  0  0  0  0  0  0  0
   37.8200   29.7760   39.1760 N   0  0  0  0  0  0  0  0  0  0  0  0
   37.7630   30.5710   38.0900 C   0  0  0  0  0  0  0  0  0  0  0  0
   37.3990   31.8710   38.2340 N   0  0  0  0  0  0  0  0  0  0  0  0
   36.8120   33.3580   39.6350 H   0  0  0  0  0  0  0  0  0  0  0  0
   36.9340   31.8620   41.5910 H   0  0  0  0  0  0  0  0  0  0  0  0
   38.0040   30.1700   37.1130 H   0  0  0  0  0  0  0  0  0  0  0  0
   39.9300   29.8100   41.9610 C   0  0  0  0  0  0  0  0  0  0  0  0
   40.3600   31.0000   42.5160 C   0  0  0  0  0  0  0  0  0  0  0  0
   39.7520   31.4440   43.2930 H   0  0  0  0  0  0  0  0  0  0  0  0
   41.5250   31.5710   42.0690 C   0  0  0  0  0  3  0  0  0  0  0  0
   42.2020   30.8650   41.0480 C   0  0  0  0  0  3  0  0  0  0  0  0
   41.1410   29.4010   40.7600 S   0  0  0  0  0  0  0  0  0  0  0  0
  1  2  2  0  0  0  0
  1  6  1  0  0  0  0
  2  3  1  0  0  0  0
  3  8  1  0  0  0  0
  3  4  2  0  0  0  0
  4  9  1  0  0  0  0
  5  4  1  0  0  0  0
  5 10  1  0  0  0  0
  6  5  2  0  0  0  0
  7  2  1  0  0  0  0
 11 17  1  0  0  0  0
 11 12  1  0  0  0  0
 12 18  1  0  0  0  0
 13 12  2  0  0  0  0
 13  1  1  0  0  0  0
 14 13  1  0  0  0  0
 15 16  1  0  0  0  0
 15 14  2  0  0  0  0
 16 11  2  0  0  0  0
 19 15  1  0  0  0  0
 20  6  1  0  0  0  0
 20 21  2  0  0  0  0
 21 22  1  0  0  0  0
 23 21  1  0  0  0  0
 24 23  2  0  0  0  0
 25 24  1  0  0  0  0
 25 20  1  0  0  0  0
M  END
>  <minimizedAffinity>
-4.53139067

$$$$

 OpenBabel03242516583D

 25 27  0  0  0  0  0  0  0  0999 V2000
   37.0930   27.9600   40.9690 C   0  0  0  0  0  0  0  0  0  0  0  0
   36.8750   26.7920   41.6520 C   0  0  0  0  0  0  0  0  0  0  0  0
   37.0460   26.7330   43.0180 C   0  0  0  0  0  0  0  0  0  0  0  0
   37.4390   27.8720   43.6760 C   0  0  0  0  0  0  0  0  0  0  0  0
   37.6710   29.0680   43.0460 C   0  0  0  0  0  0  0  0  0  0  0  0
   37.4800   29.0630   41.6540 C   0  0  0  0  0  0  0  0  0  0  0  0
   36.5640   25.8660   41.1790 H   0  0  0  0  0  0  0  0  0  0  0  0
   36.8780   25.8250   43.5620 H   0  0  0  0  0  0  0  0  0  0  0  0
   37.5830   27.8590   44.7590 H   0  0  0  0  0  0  0  0  0  0  0  0
   37.9810   29.9740   43.5400 H   0  0  0  0  0  0  0  0  0  0  0  0
   37.5860   27.6730   37.2310 C   0  0  0  0  0  0  0  0  0  0  0  0
   37.9090   27.6730   38.6090 C   0  0  0  0  0  0  0  0  0  0  0  0
   36.8890   27.9310   39.5310 C   0  0  0  0  0  0  0  0  0  0  0  0
   35.6560   28.1650   39.0330 N   0  0  0  0  0  0  0  0  0  0  0  0
   35.3510   28.1640   37.7210 C   0  0  0  0  0  0  0  0  0  0  0  0
   36.3260   27.9160   36.8100 N   0  0  0  0  0  0  0  0  0  0  0  0
   38.3900   27.4710   36.5640 H   0  0  0  0  0  0  0  0  0  0  0  0
   38.8960   27.4840   38.9770 H   0  0  0  0  0  0  0  0  0  0  0  0
   34.3350   28.3620   37.4020 H   0  0  0  0  0  0  0  0  0  0  0  0
   37.7060   30.2870   40.9350 C   0  0  0  0  0  0  0  0  0  0  0  0
   36.8120   31.2840   40.5960 C   0  0  0  0  0  0  0  0  0  0  0  0
   35.7800   31.1610   40.8990 H   0  0  0  0  0  0  0  0  0  0  0  0
   37.2540   32.3790   39.8980 C   0  0  0  0  0  3  0  0  0  0  0  0
   38.6320   32.3870   39.5780 C   0  0  0  0  0  3  0  0  0  0  0  0
   39.2490   30.8180   40.2920 S   0  0  0  0  0  0  0  0  0  0  0  0
  1  2  2  0  0  0  0
  1  6  1  0  0  0  0
  2  3  1  0  0  0  0
  3  8  1  0  0  0  0
  3  4  2  0  0  0  0
  4  9  1  0  0  0  0
  5 10  1  0  0  0  0
  5  4  1  0  0  0  0
  6  5  2  0  0  0  0
  7  2  1  0  0  0  0
 11 12  1  0  0  0  0
 12 18  1  0  0  0  0
 12 13  2  0  0  0  0
 13  1  1  0  0  0  0
 14 13  1  0  0  0  0
 15 14  2  0  0  0  0
 16 11  2  0  0  0  0
 16 15  1  0  0  0  0
 17 11  1  0  0  0  0
 19 15  1  0  0  0  0
 20  6  1  0  0  0  0
 21 22  1  0  0  0  0
 21 20  2  0  0  0  0
 23 21  1  0  0  0  0
 24 23  2  0  0  0  0
 24 25  1  0  0  0  0
 25 20  1  0  0  0  0
M  END
>  <minimizedAffinity>
-4.4812789

$$$$

 OpenBabel03242516583D

 25 27  0  0  0  0  0  0  0  0999 V2000
   38.2080   29.3990   41.7400 C   0  0  0  0  0  0  0  0  0  0  0  0
   38.2840   29.1610   43.0880 C   0  0  0  0  0  0  0  0  0  0  0  0
   37.5380   28.1600   43.6680 C   0  0  0  0  0  0  0  0  0  0  0  0
   36.7170   27.4070   42.8650 C   0  0  0  0  0  0  0  0  0  0  0  0
   36.6000   27.6000   41.5120 C   0  0  0  0  0  0  0  0  0  0  0  0
   37.3860   28.6350   40.9800 C   0  0  0  0  0  0  0  0  0  0  0  0
   38.9160   29.7260   43.7640 H   0  0  0  0  0  0  0  0  0  0  0  0
   37.5890   27.9640   44.7210 H   0  0  0  0  0  0  0  0  0  0  0  0
   36.1110   26.6060   43.2940 H   0  0  0  0  0  0  0  0  0  0  0  0
   35.9630   27.0240   40.8610 H   0  0  0  0  0  0  0  0  0  0  0  0
   41.0400   31.4240   40.2640 C   0  0  0  0  0  0  0  0  0  0  0  0
   40.3400   30.2960   40.7550 C   0  0  0  0  0  0  0  0  0  0  0  0
   39.0300   30.4740   41.2130 C   0  0  0  0  0  0  0  0  0  0  0  0
   38.5230   31.7250   41.1520 N   0  0  0  0  0  0  0  0  0  0  0  0
   39.1920   32.7960   40.6830 C   0  0  0  0  0  0  0  0  0  0  0  0
   40.4640   32.6450   40.2350 N   0  0  0  0  0  0  0  0  0  0  0  0
   42.0330   31.2440   39.9260 H   0  0  0  0  0  0  0  0  0  0  0  0
   40.7660   29.3150   40.7920 H   0  0  0  0  0  0  0  0  0  0  0  0
   38.7130   33.7680   40.6680 H   0  0  0  0  0  0  0  0  0  0  0  0
   37.3100   28.8860   39.5670 C   0  0  0  0  0  0  0  0  0  0  0  0
   36.4880   29.7510   38.8710 C   0  0  0  0  0  0  0  0  0  0  0  0
   35.7840   30.3440   39.4390 H   0  0  0  0  0  0  0  0  0  0  0  0
   36.5900   29.8270   37.5050 C   0  0  0  0  0  3  0  0  0  0  0  0
   37.5610   28.9850   36.9140 C   0  0  0  0  0  3  0  0  0  0  0  0
   38.2970   28.1080   38.3420 S   0  0  0  0  0  0  0  0  0  0  0  0
  1  2  1  0  0  0  0
  2  3  2  0  0  0  0
  2  7  1  0  0  0  0
  3  8  1  0  0  0  0
  4  9  1  0  0  0  0
  4  3  1  0  0  0  0
  5  4  2  0  0  0  0
  6  5  1  0  0  0  0
  6  1  2  0  0  0  0
 10  5  1  0  0  0  0
 11 12  1  0  0  0  0
 12 18  1  0  0  0  0
 12 13  2  0  0  0  0
 13  1  1  0  0  0  0
 14 13  1  0  0  0  0
 15 14  2  0  0  0  0
 16 11  2  0  0  0  0
 16 15  1  0  0  0  0
 17 11  1  0  0  0  0
 19 15  1  0  0  0  0
 20  6  1  0  0  0  0
 21 22  1  0  0  0  0
 21 20  2  0  0  0  0
 23 21  1  0  0  0  0
 24 23  2  0  0  0  0
 24 25  1  0  0  0  0
 25 20  1  0  0  0  0
M  END
>  <minimizedAffinity>
-4.47744322

$$$$
