
 OpenBabel03242518193D

 27 29  0  0  0  0  0  0  0  0999 V2000
   45.2210   32.5080   41.7920 C   0  0  0  0  0  0  0  0  0  0  0  0
   44.7460   31.5200   41.6000 H   0  0  0  0  0  0  0  0  0  0  0  0
   46.0320   32.6190   41.0360 H   0  0  0  0  0  0  0  0  0  0  0  0
   41.8890   33.9700   41.3600 C   0  0  0  0  0  0  0  0  0  0  0  0
   42.1290   35.3540   41.3190 C   0  0  0  0  0  0  0  0  0  0  0  0
   43.4310   35.7810   41.4400 C   0  0  0  0  0  0  0  0  0  0  0  0
   44.4170   34.8580   41.5910 N   0  0  0  0  0  0  0  0  0  0  0  0
   44.1550   33.5290   41.6280 C   0  0  0  0  0  0  0  0  0  0  0  0
   42.8750   33.0850   41.5100 N   0  0  0  0  0  0  0  0  0  0  0  0
   40.8760   33.5910   41.2680 H   0  0  0  0  0  0  0  0  0  0  0  0
   43.6100   36.8260   41.4090 H   0  0  0  0  0  0  0  0  0  0  0  0
   40.9940   36.1770   41.1560 N   0  0  0  0  0  0  0  0  0  0  0  0
   41.0790   37.0820   40.6350 H   0  0  0  0  0  0  0  0  0  0  0  0
   40.0690   35.9360   41.5270 H   0  0  0  0  0  0  0  0  0  0  0  0
   45.8080   32.5720   43.1820 C   0  0  0  0  0  0  0  0  0  0  0  0
   46.9450   33.2620   43.5170 C   0  0  0  0  0  0  0  0  0  0  0  0
   47.1640   33.0850   44.8670 C   0  0  0  0  0  0  0  0  0  0  0  0
   46.1100   32.2690   45.2880 C   0  0  0  0  0  0  0  0  0  0  0  0
   45.3720   32.0150   44.2620 O   0  0  0  0  0  0  0  0  0  0  0  0
   47.6110   33.8590   42.9160 H   0  0  0  0  0  0  0  0  0  0  0  0
   47.8880   33.4060   45.5740 H   0  0  0  0  0  0  0  0  0  0  0  0
   45.7980   31.7370   46.6170 C   0  0  0  0  0  0  0  0  0  0  0  0
   45.6960   32.3900   47.7740 C   0  0  0  0  0  0  0  0  0  0  0  0
   45.8560   33.4800   47.8020 H   0  0  0  0  0  0  0  0  0  0  0  0
   45.3930   31.7360   48.9380 C   0  0  0  0  0  0  0  0  0  0  0  0
   45.2080   30.3240   48.7740 C   0  0  0  0  0  0  0  0  0  0  0  0
   45.4650   30.0150   47.0340 S   0  0  0  0  0  0  0  0  0  0  0  0
  1 15  1  0  0  0  0
  2  1  1  0  0  0  0
  3  1  1  0  0  0  0
  4  9  1  0  0  0  0
  5  4  2  0  0  0  0
  5  6  1  0  0  0  0
  6  7  2  0  0  0  0
  7  8  1  0  0  0  0
  8  1  1  0  0  0  0
  9  8  2  0  0  0  0
 10  4  1  0  0  0  0
 11  6  1  0  0  0  0
 12  5  1  0  0  0  0
 12 14  1  0  0  0  0
 13 12  1  0  0  0  0
 15 16  2  0  0  0  0
 15 19  1  0  0  0  0
 16 17  1  0  0  0  0
 17 18  2  0  0  0  0
 17 21  1  0  0  0  0
 18 22  1  0  0  0  0
 19 18  1  0  0  0  0
 20 16  1  0  0  0  0
 22 27  1  0  0  0  0
 22 23  2  0  0  0  0
 23 24  1  0  0  0  0
 23 25  1  0  0  0  0
 26 25  2  0  0  0  0
 27 26  1  0  0  0  0
M  END
>  <minimizedAffinity>
-4.32046032

>  <minimizedRMSD>
3.78833222

$$$$
