
 OpenBabel03252508543D

 40 43  0  0  1  0  0  0  0  0999 V2000
   43.3710   34.4990   40.7660 C   0  0  0  0  0  0  0  0  0  0  0  0
   43.3180   35.7420   40.4670 O   0  0  0  0  0  0  0  0  0  0  0  0
   42.0080   34.1330   40.4340 N   0  0  0  0  0  0  0  0  0  0  0  0
   41.6260   34.3390   39.0570 C   0  0  0  0  0  0  0  0  0  0  0  0
   40.8240   35.6460   39.0680 C   0  0  0  0  0  0  0  0  0  0  0  0
   40.0310   35.6540   40.3820 C   0  0  0  0  0  0  0  0  0  0  0  0
   39.6990   34.2290   40.8310 C   0  0  0  0  0  0  0  0  0  0  0  0
   40.9760   33.5810   41.3280 C   0  0  1  0  0  0  0  0  0  0  0  0
   40.9570   33.5330   38.6930 H   0  0  0  0  0  0  0  0  0  0  0  0
   42.4790   34.5220   38.3890 H   0  0  0  0  0  0  0  0  0  0  0  0
   41.5660   36.4850   39.0900 H   0  0  0  0  0  0  0  0  0  0  0  0
   40.1440   35.7150   38.1910 H   0  0  0  0  0  0  0  0  0  0  0  0
   39.1470   36.2710   40.2380 H   0  0  0  0  0  0  0  0  0  0  0  0
   40.6470   36.1190   41.1870 H   0  0  0  0  0  0  0  0  0  0  0  0
   39.3360   33.6990   39.9370 H   0  0  0  0  0  0  0  0  0  0  0  0
   38.9220   34.3290   41.6100 H   0  0  0  0  0  0  0  0  0  0  0  0
   41.1940   34.0630   42.3080 H   0  0  0  0  0  0  0  0  0  0  0  0
   40.9910   32.1950   41.4010 C   0  0  0  0  0  0  0  0  0  0  0  0
   41.9370   31.1970   41.4970 C   0  0  0  0  0  0  0  0  0  0  0  0
   42.9510   31.5520   41.5260 H   0  0  0  0  0  0  0  0  0  0  0  0
   41.6280   29.8710   41.5550 C   0  0  0  0  0  3  0  0  0  0  0  0
   40.1390   29.5690   41.5010 C   0  0  0  0  0  3  0  0  0  0  0  0
   39.4410   31.3270   41.3750 S   0  0  0  0  0  0  0  0  0  0  0  0
   44.4330   33.7970   41.2490 O   0  0  0  0  0  0  0  0  0  0  0  0
   45.7670   34.1250   41.1000 C   0  0  0  0  0  0  0  0  0  0  0  0
   46.4070   34.7490   42.1840 C   0  0  0  0  0  0  0  0  0  0  0  0
   47.7610   35.0710   42.0080 C   0  0  0  0  0  0  0  0  0  0  0  0
   48.3650   34.7660   40.8170 N   0  0  0  0  0  0  0  0  0  0  0  0
   47.7050   34.1760   39.8300 C   0  0  0  0  0  0  0  0  0  0  0  0
   46.4020   33.8480   39.9580 N   0  0  0  0  0  0  0  0  0  0  0  0
   48.2680   35.5500   42.8300 H   0  0  0  0  0  0  0  0  0  0  0  0
   48.2050   33.9430   38.8930 H   0  0  0  0  0  0  0  0  0  0  0  0
   45.6740   35.0260   43.4000 C   0  0  0  0  0  0  0  0  0  0  0  0
   45.0310   36.2390   43.6290 C   0  0  0  0  0  0  0  0  0  0  0  0
   44.4700   36.0940   44.8690 C   0  0  0  0  0  0  0  0  0  0  0  0
   44.7510   34.8650   45.3740 N   0  0  0  0  0  0  0  0  0  0  0  0
   45.4770   34.2550   44.4580 N   0  0  0  0  0  0  0  0  0  0  0  0
   44.9670   37.1170   42.9990 H   0  0  0  0  0  0  0  0  0  0  0  0
   43.8760   36.7880   45.4510 H   0  0  0  0  0  0  0  0  0  0  0  0
   44.5070   34.3850   46.2720 H   0  0  0  0  0  0  0  0  0  0  0  0
  1 24  1  0  0  0  0
  2  1  2  0  0  0  0
  3  1  1  0  0  0  0
  3  8  1  0  0  0  0
  4  5  1  0  0  0  0
  4  3  1  0  0  0  0
  5 11  1  0  0  0  0
  5  6  1  0  0  0  0
  6  7  1  0  0  0  0
  6 14  1  0  0  0  0
  7  8  1  0  0  0  0
  7 16  1  0  0  0  0
  8 18  1  0  0  0  0
  8 17  1  1  0  0  0
  9  4  1  0  0  0  0
 10  4  1  0  0  0  0
 12  5  1  0  0  0  0
 13  6  1  0  0  0  0
 15  7  1  0  0  0  0
 18 19  2  0  0  0  0
 19 20  1  0  0  0  0
 19 21  1  0  0  0  0
 22 21  2  0  0  0  0
 23 18  1  0  0  0  0
 23 22  1  0  0  0  0
 25 24  1  0  0  0  0
 25 26  1  0  0  0  0
 26 33  1  0  0  0  0
 27 26  2  0  0  0  0
 27 31  1  0  0  0  0
 28 27  1  0  0  0  0
 29 30  1  0  0  0  0
 29 28  2  0  0  0  0
 30 25  2  0  0  0  0
 32 29  1  0  0  0  0
 33 34  1  0  0  0  0
 33 37  2  0  0  0  0
 34 35  2  0  0  0  0
 35 36  1  0  0  0  0
 35 39  1  0  0  0  0
 36 40  1  0  0  0  0
 37 36  1  0  0  0  0
 38 34  1  0  0  0  0
M  END
>  <minimizedAffinity>
-6.53092146

>  <minimizedRMSD>
0.184508935

$$$$
