
 OpenBabel03252507553D

 41 44  0  0  1  0  0  0  0  0999 V2000
   45.4540   31.1410   43.2100 C   0  0  2  0  0  0  0  0  0  0  0  0
   44.8290   30.3700   42.0470 C   0  0  0  0  0  0  0  0  0  0  0  0
   43.4810   31.1180   41.9920 C   0  0  0  0  0  0  0  0  0  0  0  0
   43.8170   32.5390   42.3220 C   0  0  1  0  0  0  0  0  0  0  0  0
   45.2690   32.5450   42.6990 C   0  0  0  0  0  0  0  0  0  0  0  0
   44.8530   30.9390   44.1000 H   0  0  0  0  0  0  0  0  0  0  0  0
   45.3650   30.5840   41.1170 H   0  0  0  0  0  0  0  0  0  0  0  0
   44.6790   29.3120   42.2780 H   0  0  0  0  0  0  0  0  0  0  0  0
   42.8480   30.7180   42.8190 H   0  0  0  0  0  0  0  0  0  0  0  0
   43.0190   31.0000   40.9970 H   0  0  0  0  0  0  0  0  0  0  0  0
   43.2320   32.9350   43.1810 H   0  0  0  0  0  0  0  0  0  0  0  0
   45.4780   33.2330   43.5450 H   0  0  0  0  0  0  0  0  0  0  0  0
   45.9400   32.7110   41.8360 H   0  0  0  0  0  0  0  0  0  0  0  0
   48.7020   29.7440   44.5060 C   0  0  0  0  0  0  0  0  0  0  0  0
   47.3210   29.9780   44.4330 C   0  0  0  0  0  0  0  0  0  0  0  0
   46.8880   30.7900   43.3900 C   0  0  0  0  0  0  0  0  0  0  0  0
   47.8020   31.3350   42.4750 N   0  0  0  0  0  0  0  0  0  0  0  0
   49.1260   31.0670   42.6060 C   0  0  0  0  0  0  0  0  0  0  0  0
   49.5680   30.2750   43.6190 N   0  0  0  0  0  0  0  0  0  0  0  0
   49.0690   29.1140   45.3100 H   0  0  0  0  0  0  0  0  0  0  0  0
   46.5990   29.5770   45.1170 H   0  0  0  0  0  0  0  0  0  0  0  0
   49.7230   31.5430   41.8430 H   0  0  0  0  0  0  0  0  0  0  0  0
   43.6500   33.5040   41.1700 C   0  0  2  0  0  0  0  0  0  0  0  0
   44.5600   34.6450   41.1610 C   0  0  0  0  0  0  0  0  0  0  0  0
   43.0970   34.8450   41.3690 C   0  0  1  0  0  0  0  0  0  0  0  0
   43.4350   33.0100   40.2070 H   0  0  0  0  0  0  0  0  0  0  0  0
   45.2760   34.7680   41.9750 H   0  0  0  0  0  0  0  0  0  0  0  0
   45.0190   34.9280   40.1710 H   0  0  0  0  0  0  0  0  0  0  0  0
   42.7320   35.0970   42.3750 H   0  0  0  0  0  0  0  0  0  0  0  0
   42.3540   35.4070   40.3040 O   0  0  0  0  0  0  0  0  0  0  0  0
   40.5600   34.7490   42.0730 O   0  0  0  0  0  0  0  0  0  0  0  0
   40.7220   35.2670   40.6630 P   0  0  1  0  0  0  0  0  0  0  0  0
   39.9770   36.8120   40.6000 O   0  0  0  0  0  0  0  0  0  0  0  0
   40.0430   37.1210   39.6450 H   0  0  0  0  0  0  0  0  0  0  0  0
   39.8570   34.2870   39.6400 O   0  0  0  0  0  0  0  0  0  0  0  0
   40.1850   32.9360   39.5600 C   0  0  0  0  0  0  0  0  0  0  0  0
   39.8930   31.8070   40.2340 C   0  0  0  0  0  0  0  0  0  0  0  0
   39.2230   31.9960   41.0610 H   0  0  0  0  0  0  0  0  0  0  0  0
   40.4080   30.6120   39.8710 C   0  0  0  0  0  3  0  0  0  0  0  0
   41.2610   30.6420   38.7480 C   0  0  0  0  0  3  0  0  0  0  0  0
   41.2600   32.4700   38.2760 S   0  0  0  0  0  0  0  0  0  0  0  0
  1 16  1  0  0  0  0
  1  6  1  1  0  0  0
  2  8  1  0  0  0  0
  2  1  1  0  0  0  0
  3  2  1  0  0  0  0
  3  4  1  0  0  0  0
  3  9  1  0  0  0  0
  4  5  1  0  0  0  0
  4 11  1  1  0  0  0
  5  1  1  0  0  0  0
  5 12  1  0  0  0  0
  7  2  1  0  0  0  0
 10  3  1  0  0  0  0
 13  5  1  0  0  0  0
 14 20  1  0  0  0  0
 15 14  1  0  0  0  0
 15 21  1  0  0  0  0
 16 15  2  0  0  0  0
 17 18  2  0  0  0  0
 17 16  1  0  0  0  0
 18 19  1  0  0  0  0
 19 14  2  0  0  0  0
 22 18  1  0  0  0  0
 23 26  1  6  0  0  0
 23 25  1  0  0  0  0
 23  4  1  0  0  0  0
 24 23  1  0  0  0  0
 24 25  1  0  0  0  0
 24 27  1  0  0  0  0
 25 29  1  1  0  0  0
 28 24  1  0  0  0  0
 30 32  1  0  0  0  0
 30 25  1  0  0  0  0
 32 31  2  1  0  0  0
 33 32  1  0  0  0  0
 34 33  1  0  0  0  0
 35 32  1  0  0  0  0
 36 35  1  0  0  0  0
 36 37  2  0  0  0  0
 37 38  1  0  0  0  0
 39 37  1  0  0  0  0
 40 39  2  0  0  0  0
 41 40  1  0  0  0  0
 41 36  1  0  0  0  0
M  END
>  <minimizedAffinity>
-3.52079129

>  <minimizedRMSD>
9.74199963

$$$$
