
 OpenBabel03252505573D

 33 35  0  0  0  0  0  0  0  0999 V2000
   44.7130   35.0090   45.1200 C   0  0  0  0  0  0  0  0  0  0  0  0
   45.5280   34.8830   44.0020 C   0  0  0  0  0  0  0  0  0  0  0  0
   46.5980   33.9790   44.0890 C   0  0  0  0  0  0  0  0  0  0  0  0
   46.7500   33.2950   45.2540 N   0  0  0  0  0  0  0  0  0  0  0  0
   45.9410   33.4490   46.2990 C   0  0  0  0  0  0  0  0  0  0  0  0
   44.9290   34.2980   46.2390 N   0  0  0  0  0  0  0  0  0  0  0  0
   43.9010   35.7110   45.0230 H   0  0  0  0  0  0  0  0  0  0  0  0
   47.7380   33.7110   43.2120 C   0  0  0  0  0  0  0  0  0  0  0  0
   48.8480   34.4030   42.8560 C   0  0  0  0  0  0  0  0  0  0  0  0
   49.2400   35.3790   43.0770 H   0  0  0  0  0  0  0  0  0  0  0  0
   49.8310   33.9050   42.0990 C   0  0  0  0  0  0  0  0  0  0  0  0
   49.6630   32.5730   41.6640 C   0  0  0  0  0  0  0  0  0  0  0  0
   47.9960   32.1770   42.4560 S   0  0  0  0  0  0  0  0  0  0  0  0
   45.2160   35.6450   42.7640 C   0  0  0  0  0  0  0  0  0  0  0  0
   45.6730   36.9240   43.0460 F   0  0  0  0  0  0  0  0  0  0  0  0
   43.8170   35.6930   42.6470 F   0  0  0  0  0  0  0  0  0  0  0  0
   45.7940   35.0850   41.7130 F   0  0  0  0  0  0  0  0  0  0  0  0
   46.1120   32.7460   47.4830 O   0  0  0  0  0  0  0  0  0  0  0  0
   45.7350   31.4110   47.6060 C   0  0  0  0  0  0  0  0  0  0  0  0
   44.9770   31.2870   48.3970 H   0  0  0  0  0  0  0  0  0  0  0  0
   45.3010   31.0650   46.6440 H   0  0  0  0  0  0  0  0  0  0  0  0
   46.9560   30.6130   47.8260 C   0  0  0  0  0  0  0  0  0  0  0  0
   47.2550   29.3330   47.4130 C   0  0  0  0  0  0  0  0  0  0  0  0
   48.4590   28.8260   47.7500 C   0  0  0  0  0  0  0  0  0  0  0  0
   49.3550   29.5070   48.4550 N   0  0  0  0  0  0  0  0  0  0  0  0
   49.0610   30.7550   48.8560 C   0  0  0  0  0  0  0  0  0  0  0  0
   47.8620   31.3190   48.5470 N   0  0  0  0  0  0  0  0  0  0  0  0
   46.4700   28.8750   46.8530 H   0  0  0  0  0  0  0  0  0  0  0  0
   48.6780   27.8030   47.4110 H   0  0  0  0  0  0  0  0  0  0  0  0
   50.1200   31.4360   49.6360 C   0  0  0  0  0  0  0  0  0  0  0  0
   50.0520   32.7980   49.4810 F   0  0  0  0  0  0  0  0  0  0  0  0
   51.3820   30.9880   49.2370 F   0  0  0  0  0  0  0  0  0  0  0  0
   50.0130   31.1660   50.9840 F   0  0  0  0  0  0  0  0  0  0  0  0
  1  6  1  0  0  0  0
  2  3  1  0  0  0  0
  2  1  2  0  0  0  0
  3  4  2  0  0  0  0
  4  5  1  0  0  0  0
  5 18  1  0  0  0  0
  6  5  2  0  0  0  0
  7  1  1  0  0  0  0
  8  3  1  0  0  0  0
  9 10  1  0  0  0  0
  9  8  2  0  0  0  0
 11  9  1  0  0  0  0
 12 11  2  0  0  0  0
 12 13  1  0  0  0  0
 13  8  1  0  0  0  0
 14 15  1  0  0  0  0
 14  2  1  0  0  0  0
 16 14  1  0  0  0  0
 17 14  1  0  0  0  0
 18 19  1  0  0  0  0
 19 22  1  0  0  0  0
 19 20  1  0  0  0  0
 21 19  1  0  0  0  0
 22 27  1  0  0  0  0
 23 24  1  0  0  0  0
 23 22  2  0  0  0  0
 24 25  2  0  0  0  0
 25 26  1  0  0  0  0
 26 30  1  0  0  0  0
 27 26  2  0  0  0  0
 28 23  1  0  0  0  0
 29 24  1  0  0  0  0
 30 33  1  0  0  0  0
 31 30  1  0  0  0  0
 32 30  1  0  0  0  0
M  END
>  <minimizedAffinity>
-6.07284498

>  <minimizedRMSD>
0.609722018

$$$$
