
 OpenBabel03252501393D

 32 34  0  0  0  0  0  0  0  0999 V2000
   37.4860   29.8120   42.0010 O   0  0  0  0  0  0  0  0  0  0  0  0
   36.4750   27.7970   40.1140 Cl  0  0  0  0  0  0  0  0  0  0  0  0
   37.5730   27.5180   41.4490 C   0  0  0  0  0  0  0  0  0  0  0  0
   37.9790   28.5440   42.2790 C   0  0  0  0  0  0  0  0  0  0  0  0
   38.8280   28.2930   43.3190 C   0  0  0  0  0  0  0  0  0  0  0  0
   39.3220   27.0240   43.5990 C   0  0  0  0  0  0  0  0  0  0  0  0
   38.9150   25.9730   42.7600 C   0  0  0  0  0  0  0  0  0  0  0  0
   39.5000   24.3610   43.0950 Cl  0  0  0  0  0  0  0  0  0  0  0  0
   38.0660   26.2620   41.7290 C   0  0  0  0  0  0  0  0  0  0  0  0
   39.1580   29.0700   43.9770 H   0  0  0  0  0  0  0  0  0  0  0  0
   39.9870   26.8370   44.4160 H   0  0  0  0  0  0  0  0  0  0  0  0
   37.5820   25.2120   40.7890 C   0  0  0  0  0  0  0  0  0  0  0  0
   36.5710   24.4270   40.9150 C   0  0  0  0  0  0  0  0  0  0  0  0
   35.8080   24.2660   41.6460 H   0  0  0  0  0  0  0  0  0  0  0  0
   36.1790   23.4850   40.0320 C   0  0  0  0  0  3  0  0  0  0  0  0
   37.0610   23.4430   38.8590 C   0  0  0  0  0  3  0  0  0  0  0  0
   38.3040   24.7960   39.2720 S   0  0  0  0  0  0  0  0  0  0  0  0
   38.2760   30.7030   41.2490 C   0  0  0  0  0  0  0  0  0  0  0  0
   38.0800   31.0110   40.0210 O   0  0  0  0  0  0  0  0  0  0  0  0
   39.4060   31.3620   41.8220 N   0  0  0  0  0  0  0  0  0  0  0  0
   39.6360   31.2030   42.8020 H   0  0  0  0  0  0  0  0  0  0  0  0
   40.0310   32.1830   40.7930 C   0  0  0  0  0  0  0  0  0  0  0  0
   39.7030   33.4850   40.5360 C   0  0  0  0  0  0  0  0  0  0  0  0
   40.4080   34.0990   39.5240 C   0  0  0  0  0  0  0  0  0  0  0  0
   41.3490   33.3910   38.8720 N   0  0  0  0  0  0  0  0  0  0  0  0
   41.6380   32.1130   39.1580 C   0  0  0  0  0  0  0  0  0  0  0  0
   40.9650   31.4770   40.1480 N   0  0  0  0  0  0  0  0  0  0  0  0
   40.1550   35.1370   39.3110 H   0  0  0  0  0  0  0  0  0  0  0  0
   42.4090   31.6470   38.5720 H   0  0  0  0  0  0  0  0  0  0  0  0
   38.6880   34.0700   41.3230 N   0  0  0  0  0  0  0  0  0  0  0  0
   37.8030   34.1210   40.7440 H   0  0  0  0  0  0  0  0  0  0  0  0
   38.7400   34.4110   42.3070 H   0  0  0  0  0  0  0  0  0  0  0  0
  1  4  1  0  0  0  0
  2  3  1  0  0  0  0
  3  9  2  0  0  0  0
  3  4  1  0  0  0  0
  4  5  2  0  0  0  0
  5  6  1  0  0  0  0
  5 10  1  0  0  0  0
  6 11  1  0  0  0  0
  7  8  1  0  0  0  0
  7  6  2  0  0  0  0
  9  7  1  0  0  0  0
 12 13  2  0  0  0  0
 12  9  1  0  0  0  0
 13 14  1  0  0  0  0
 15 13  1  0  0  0  0
 16 17  1  0  0  0  0
 16 15  2  0  0  0  0
 17 12  1  0  0  0  0
 18 20  1  0  0  0  0
 18  1  1  0  0  0  0
 19 18  2  0  0  0  0
 20 21  1  0  0  0  0
 22 20  1  0  0  0  0
 23 22  1  0  0  0  0
 23 30  1  0  0  0  0
 24 23  2  0  0  0  0
 25 26  2  0  0  0  0
 25 24  1  0  0  0  0
 26 27  1  0  0  0  0
 27 22  2  0  0  0  0
 28 24  1  0  0  0  0
 29 26  1  0  0  0  0
 30 32  1  0  0  0  0
 31 30  1  0  0  0  0
M  END
>  <minimizedAffinity>
-5.87568331

$$$$

 OpenBabel03252501393D

 32 34  0  0  0  0  0  0  0  0999 V2000
   38.5250   32.3360   38.9750 O   0  0  0  0  0  0  0  0  0  0  0  0
   38.7130   30.6650   41.3850 Cl  0  0  0  0  0  0  0  0  0  0  0  0
   37.8680   30.2680   39.9050 C   0  0  0  0  0  0  0  0  0  0  0  0
   37.8510   31.1320   38.8270 C   0  0  0  0  0  0  0  0  0  0  0  0
   37.1900   30.7900   37.6810 C   0  0  0  0  0  0  0  0  0  0  0  0
   36.5140   29.5840   37.5330 C   0  0  0  0  0  0  0  0  0  0  0  0
   36.5260   28.6980   38.6230 C   0  0  0  0  0  0  0  0  0  0  0  0
   35.7040   27.1650   38.4620 Cl  0  0  0  0  0  0  0  0  0  0  0  0
   37.1960   29.0740   39.7530 C   0  0  0  0  0  0  0  0  0  0  0  0
   37.1610   31.4410   36.8320 H   0  0  0  0  0  0  0  0  0  0  0  0
   36.0000   29.3250   36.6300 H   0  0  0  0  0  0  0  0  0  0  0  0
   37.2610   28.2010   40.9570 C   0  0  0  0  0  0  0  0  0  0  0  0
   36.4630   28.1640   41.9660 C   0  0  0  0  0  0  0  0  0  0  0  0
   35.5760   28.6800   42.2640 H   0  0  0  0  0  0  0  0  0  0  0  0
   36.5720   27.3540   43.0400 C   0  0  0  0  0  3  0  0  0  0  0  0
   37.7460   26.4780   42.9390 C   0  0  0  0  0  3  0  0  0  0  0  0
   38.4720   27.0080   41.2840 S   0  0  0  0  0  0  0  0  0  0  0  0
   39.8910   32.4020   38.6400 C   0  0  0  0  0  0  0  0  0  0  0  0
   40.8630   32.2410   39.4590 O   0  0  0  0  0  0  0  0  0  0  0  0
   40.3180   32.6630   37.3030 N   0  0  0  0  0  0  0  0  0  0  0  0
   39.6230   32.7840   36.5680 H   0  0  0  0  0  0  0  0  0  0  0  0
   41.7750   32.7020   37.2840 C   0  0  0  0  0  0  0  0  0  0  0  0
   42.5740   31.6510   36.9290 C   0  0  0  0  0  0  0  0  0  0  0  0
   43.9310   31.8810   36.9700 C   0  0  0  0  0  0  0  0  0  0  0  0
   44.3690   33.0960   37.3490 N   0  0  0  0  0  0  0  0  0  0  0  0
   43.5480   34.1000   37.6900 C   0  0  0  0  0  0  0  0  0  0  0  0
   42.2050   33.9110   37.6600 N   0  0  0  0  0  0  0  0  0  0  0  0
   44.5770   31.0500   36.6890 H   0  0  0  0  0  0  0  0  0  0  0  0
   44.0080   35.0280   37.9760 H   0  0  0  0  0  0  0  0  0  0  0  0
   41.9400   30.4460   36.5560 N   0  0  0  0  0  0  0  0  0  0  0  0
   42.0260   29.7610   37.3590 H   0  0  0  0  0  0  0  0  0  0  0  0
   41.4540   30.2130   35.6640 H   0  0  0  0  0  0  0  0  0  0  0  0
  3  2  1  0  0  0  0
  4  1  1  0  0  0  0
  4  3  2  0  0  0  0
  5  4  1  0  0  0  0
  6  5  2  0  0  0  0
  6  7  1  0  0  0  0
  7  9  2  0  0  0  0
  8  7  1  0  0  0  0
  9  3  1  0  0  0  0
  9 12  1  0  0  0  0
 10  5  1  0  0  0  0
 11  6  1  0  0  0  0
 12 17  1  0  0  0  0
 12 13  2  0  0  0  0
 13 14  1  0  0  0  0
 13 15  1  0  0  0  0
 16 15  2  0  0  0  0
 17 16  1  0  0  0  0
 18  1  1  0  0  0  0
 18 19  2  0  0  0  0
 20 18  1  0  0  0  0
 21 20  1  0  0  0  0
 22 20  1  0  0  0  0
 22 27  1  0  0  0  0
 23 24  1  0  0  0  0
 23 22  2  0  0  0  0
 24 25  2  0  0  0  0
 25 26  1  0  0  0  0
 26 29  1  0  0  0  0
 27 26  2  0  0  0  0
 28 24  1  0  0  0  0
 30 23  1  0  0  0  0
 30 31  1  0  0  0  0
 32 30  1  0  0  0  0
M  END
>  <minimizedAffinity>
-5.85446835

$$$$

 OpenBabel03252501393D

 32 34  0  0  0  0  0  0  0  0999 V2000
   36.2420   28.4890   41.3000 O   0  0  0  0  0  0  0  0  0  0  0  0
   36.4630   26.1090   39.5890 Cl  0  0  0  0  0  0  0  0  0  0  0  0
   37.3320   26.4060   41.0780 C   0  0  0  0  0  0  0  0  0  0  0  0
   37.1440   27.5630   41.8080 C   0  0  0  0  0  0  0  0  0  0  0  0
   37.8300   27.7620   42.9720 C   0  0  0  0  0  0  0  0  0  0  0  0
   38.7340   26.8370   43.4820 C   0  0  0  0  0  0  0  0  0  0  0  0
   38.9320   25.6560   42.7470 C   0  0  0  0  0  0  0  0  0  0  0  0
   40.0460   24.4620   43.3690 Cl  0  0  0  0  0  0  0  0  0  0  0  0
   38.2300   25.4920   41.5870 C   0  0  0  0  0  0  0  0  0  0  0  0
   37.7030   28.6500   43.5560 H   0  0  0  0  0  0  0  0  0  0  0  0
   39.2660   27.0020   44.3960 H   0  0  0  0  0  0  0  0  0  0  0  0
   38.3760   24.2740   40.7430 C   0  0  0  0  0  0  0  0  0  0  0  0
   37.7520   23.1530   40.8360 C   0  0  0  0  0  0  0  0  0  0  0  0
   36.9960   22.7450   41.4720 H   0  0  0  0  0  0  0  0  0  0  0  0
   37.9280   22.0730   40.0460 C   0  0  0  0  0  3  0  0  0  0  0  0
   38.9510   22.3150   39.0210 C   0  0  0  0  0  3  0  0  0  0  0  0
   39.4640   24.0850   39.4090 S   0  0  0  0  0  0  0  0  0  0  0  0
   36.6660   29.8150   41.0910 C   0  0  0  0  0  0  0  0  0  0  0  0
   36.0840   30.8600   41.5490 O   0  0  0  0  0  0  0  0  0  0  0  0
   37.8310   30.1110   40.3200 N   0  0  0  0  0  0  0  0  0  0  0  0
   38.3820   29.3490   39.9290 H   0  0  0  0  0  0  0  0  0  0  0  0
   37.9860   31.5590   40.2580 C   0  0  0  0  0  0  0  0  0  0  0  0
   38.8350   32.2820   41.0510 C   0  0  0  0  0  0  0  0  0  0  0  0
   38.8450   33.6430   40.8430 C   0  0  0  0  0  0  0  0  0  0  0  0
   38.0370   34.1580   39.8970 N   0  0  0  0  0  0  0  0  0  0  0  0
   37.2190   33.4110   39.1410 C   0  0  0  0  0  0  0  0  0  0  0  0
   37.1830   32.0660   39.3180 N   0  0  0  0  0  0  0  0  0  0  0  0
   39.5180   34.2290   41.4680 H   0  0  0  0  0  0  0  0  0  0  0  0
   36.6190   33.9290   38.4160 H   0  0  0  0  0  0  0  0  0  0  0  0
   39.6110   31.5730   41.9920 N   0  0  0  0  0  0  0  0  0  0  0  0
   39.1870   31.7170   42.9510 H   0  0  0  0  0  0  0  0  0  0  0  0
   40.4610   30.9920   41.8310 H   0  0  0  0  0  0  0  0  0  0  0  0
  1  4  1  0  0  0  0
  2  3  1  0  0  0  0
  3  9  2  0  0  0  0
  3  4  1  0  0  0  0
  4  5  2  0  0  0  0
  5  6  1  0  0  0  0
  5 10  1  0  0  0  0
  6 11  1  0  0  0  0
  7  8  1  0  0  0  0
  7  6  2  0  0  0  0
  9  7  1  0  0  0  0
 12 13  2  0  0  0  0
 12  9  1  0  0  0  0
 13 14  1  0  0  0  0
 15 13  1  0  0  0  0
 16 17  1  0  0  0  0
 16 15  2  0  0  0  0
 17 12  1  0  0  0  0
 18  1  1  0  0  0  0
 18 19  2  0  0  0  0
 20 18  1  0  0  0  0
 21 20  1  0  0  0  0
 22 20  1  0  0  0  0
 22 23  1  0  0  0  0
 23 30  1  0  0  0  0
 24 23  2  0  0  0  0
 24 28  1  0  0  0  0
 25 24  1  0  0  0  0
 26 27  1  0  0  0  0
 26 25  2  0  0  0  0
 27 22  2  0  0  0  0
 29 26  1  0  0  0  0
 30 31  1  0  0  0  0
 32 30  1  0  0  0  0
M  END
>  <minimizedAffinity>
-5.79711628

$$$$

 OpenBabel03252501393D

 32 34  0  0  0  0  0  0  0  0999 V2000
   35.4530   29.9460   39.7090 O   0  0  0  0  0  0  0  0  0  0  0  0
   37.0270   28.2850   41.5530 Cl  0  0  0  0  0  0  0  0  0  0  0  0
   36.3420   27.7810   40.0240 C   0  0  0  0  0  0  0  0  0  0  0  0
   35.6210   28.6530   39.2320 C   0  0  0  0  0  0  0  0  0  0  0  0
   35.1060   28.2330   38.0380 C   0  0  0  0  0  0  0  0  0  0  0  0
   35.2730   26.9390   37.5590 C   0  0  0  0  0  0  0  0  0  0  0  0
   36.0060   26.0440   38.3570 C   0  0  0  0  0  0  0  0  0  0  0  0
   36.2520   24.4160   37.7750 Cl  0  0  0  0  0  0  0  0  0  0  0  0
   36.5040   26.4990   39.5450 C   0  0  0  0  0  0  0  0  0  0  0  0
   34.5440   28.8890   37.4060 H   0  0  0  0  0  0  0  0  0  0  0  0
   34.8660   26.6200   36.6220 H   0  0  0  0  0  0  0  0  0  0  0  0
   37.2910   25.6220   40.4560 C   0  0  0  0  0  0  0  0  0  0  0  0
   36.8650   24.8470   41.3900 C   0  0  0  0  0  0  0  0  0  0  0  0
   35.9110   24.5850   41.7970 H   0  0  0  0  0  0  0  0  0  0  0  0
   37.6240   24.0750   42.1950 C   0  0  0  0  0  3  0  0  0  0  0  0
   39.0530   24.2130   41.8850 C   0  0  0  0  0  3  0  0  0  0  0  0
   39.0140   25.4530   40.4680 S   0  0  0  0  0  0  0  0  0  0  0  0
   36.5680   30.8040   39.7680 C   0  0  0  0  0  0  0  0  0  0  0  0
   37.5040   30.8630   38.8950 O   0  0  0  0  0  0  0  0  0  0  0  0
   36.7490   31.7170   40.8510 N   0  0  0  0  0  0  0  0  0  0  0  0
   36.0480   31.7670   41.5880 H   0  0  0  0  0  0  0  0  0  0  0  0
   38.0000   32.4350   40.6440 C   0  0  0  0  0  0  0  0  0  0  0  0
   38.1150   33.6090   39.9530 C   0  0  0  0  0  0  0  0  0  0  0  0
   39.3830   34.1390   39.8670 C   0  0  0  0  0  0  0  0  0  0  0  0
   40.4000   33.4800   40.4530 N   0  0  0  0  0  0  0  0  0  0  0  0
   40.2420   32.3280   41.1220 C   0  0  0  0  0  0  0  0  0  0  0  0
   39.0070   31.7770   41.2280 N   0  0  0  0  0  0  0  0  0  0  0  0
   39.4860   35.0760   39.3190 H   0  0  0  0  0  0  0  0  0  0  0  0
   41.1240   31.8900   41.5500 H   0  0  0  0  0  0  0  0  0  0  0  0
   36.9380   34.1610   39.4040 N   0  0  0  0  0  0  0  0  0  0  0  0
   36.9380   33.9780   38.3610 H   0  0  0  0  0  0  0  0  0  0  0  0
   36.1670   34.6690   39.8890 H   0  0  0  0  0  0  0  0  0  0  0  0
  1 18  1  0  0  0  0
  3  2  1  0  0  0  0
  4  1  1  0  0  0  0
  4  3  2  0  0  0  0
  5  4  1  0  0  0  0
  6  5  2  0  0  0  0
  6  7  1  0  0  0  0
  7  9  2  0  0  0  0
  8  7  1  0  0  0  0
  9  3  1  0  0  0  0
  9 12  1  0  0  0  0
 10  5  1  0  0  0  0
 11  6  1  0  0  0  0
 12 17  1  0  0  0  0
 12 13  2  0  0  0  0
 13 14  1  0  0  0  0
 13 15  1  0  0  0  0
 16 15  2  0  0  0  0
 17 16  1  0  0  0  0
 18 20  1  0  0  0  0
 19 18  2  0  0  0  0
 20 21  1  0  0  0  0
 22 20  1  0  0  0  0
 22 27  1  0  0  0  0
 23 22  2  0  0  0  0
 24 23  1  0  0  0  0
 24 25  2  0  0  0  0
 25 26  1  0  0  0  0
 26 27  2  0  0  0  0
 26 29  1  0  0  0  0
 28 24  1  0  0  0  0
 30 32  1  0  0  0  0
 30 23  1  0  0  0  0
 31 30  1  0  0  0  0
M  END
>  <minimizedAffinity>
-5.78251076

$$$$

 OpenBabel03252501393D

 32 34  0  0  0  0  0  0  0  0999 V2000
   38.8010   32.2450   41.4010 O   0  0  0  0  0  0  0  0  0  0  0  0
   36.8550   31.8540   39.2330 Cl  0  0  0  0  0  0  0  0  0  0  0  0
   37.5100   30.6150   40.2820 C   0  0  0  0  0  0  0  0  0  0  0  0
   38.4190   30.9150   41.2770 C   0  0  0  0  0  0  0  0  0  0  0  0
   38.9050   29.9280   42.0860 C   0  0  0  0  0  0  0  0  0  0  0  0
   38.5240   28.5970   41.9630 C   0  0  0  0  0  0  0  0  0  0  0  0
   37.5990   28.2810   40.9530 C   0  0  0  0  0  0  0  0  0  0  0  0
   37.0830   26.6210   40.7840 Cl  0  0  0  0  0  0  0  0  0  0  0  0
   37.1360   29.2940   40.1630 C   0  0  0  0  0  0  0  0  0  0  0  0
   39.6110   30.1340   42.8640 H   0  0  0  0  0  0  0  0  0  0  0  0
   38.9110   27.8310   42.6020 H   0  0  0  0  0  0  0  0  0  0  0  0
   36.1550   29.0530   39.0680 C   0  0  0  0  0  0  0  0  0  0  0  0
   34.8730   28.9740   39.1430 C   0  0  0  0  0  0  0  0  0  0  0  0
   34.1420   29.0450   39.9190 H   0  0  0  0  0  0  0  0  0  0  0  0
   34.0270   28.7460   38.1160 C   0  0  0  0  0  3  0  0  0  0  0  0
   34.7480   28.5910   36.8470 C   0  0  0  0  0  3  0  0  0  0  0  0
   36.5350   28.8080   37.3970 S   0  0  0  0  0  0  0  0  0  0  0  0
   39.8210   32.7450   40.5680 C   0  0  0  0  0  0  0  0  0  0  0  0
   40.0780   33.9850   40.3750 O   0  0  0  0  0  0  0  0  0  0  0  0
   40.6850   31.8700   39.8430 N   0  0  0  0  0  0  0  0  0  0  0  0
   40.5800   30.8620   39.9440 H   0  0  0  0  0  0  0  0  0  0  0  0
   41.6040   32.6810   39.0540 C   0  0  0  0  0  0  0  0  0  0  0  0
   41.4050   33.0240   37.7450 C   0  0  0  0  0  0  0  0  0  0  0  0
   42.3860   33.8000   37.1670 C   0  0  0  0  0  0  0  0  0  0  0  0
   43.4480   34.1580   37.9120 N   0  0  0  0  0  0  0  0  0  0  0  0
   43.6030   33.7980   39.1950 C   0  0  0  0  0  0  0  0  0  0  0  0
   42.6570   33.0350   39.7970 N   0  0  0  0  0  0  0  0  0  0  0  0
   42.2380   34.0800   36.1250 H   0  0  0  0  0  0  0  0  0  0  0  0
   44.4910   34.1420   39.6930 H   0  0  0  0  0  0  0  0  0  0  0  0
   40.2290   32.5590   37.1190 N   0  0  0  0  0  0  0  0  0  0  0  0
   40.4850   31.7530   36.4830 H   0  0  0  0  0  0  0  0  0  0  0  0
   39.2520   32.9070   37.2260 H   0  0  0  0  0  0  0  0  0  0  0  0
  2  3  1  0  0  0  0
  3  4  1  0  0  0  0
  4  1  1  0  0  0  0
  4  5  2  0  0  0  0
  5 10  1  0  0  0  0
  6  5  1  0  0  0  0
  6 11  1  0  0  0  0
  7  6  2  0  0  0  0
  8  7  1  0  0  0  0
  9  3  2  0  0  0  0
  9  7  1  0  0  0  0
 12 13  2  0  0  0  0
 12  9  1  0  0  0  0
 13 14  1  0  0  0  0
 15 13  1  0  0  0  0
 16 17  1  0  0  0  0
 16 15  2  0  0  0  0
 17 12  1  0  0  0  0
 18  1  1  0  0  0  0
 19 18  2  0  0  0  0
 20 21  1  0  0  0  0
 20 18  1  0  0  0  0
 22 27  1  0  0  0  0
 22 20  1  0  0  0  0
 23 22  2  0  0  0  0
 24 23  1  0  0  0  0
 24 25  2  0  0  0  0
 25 26  1  0  0  0  0
 26 29  1  0  0  0  0
 26 27  2  0  0  0  0
 28 24  1  0  0  0  0
 30 32  1  0  0  0  0
 30 23  1  0  0  0  0
 31 30  1  0  0  0  0
M  END
>  <minimizedAffinity>
-5.56287241

$$$$

 OpenBabel03252501393D

 32 34  0  0  0  0  0  0  0  0999 V2000
   38.9620   31.8820   37.5650 O   0  0  0  0  0  0  0  0  0  0  0  0
   36.9690   30.2760   36.1210 Cl  0  0  0  0  0  0  0  0  0  0  0  0
   37.2000   30.3380   37.8540 C   0  0  0  0  0  0  0  0  0  0  0  0
   38.1690   31.1370   38.4280 C   0  0  0  0  0  0  0  0  0  0  0  0
   38.3180   31.1730   39.7850 C   0  0  0  0  0  0  0  0  0  0  0  0
   37.5250   30.4280   40.6500 C   0  0  0  0  0  0  0  0  0  0  0  0
   36.5350   29.6110   40.0760 C   0  0  0  0  0  0  0  0  0  0  0  0
   35.5070   28.6770   41.1360 Cl  0  0  0  0  0  0  0  0  0  0  0  0
   36.4160   29.6000   38.7160 C   0  0  0  0  0  0  0  0  0  0  0  0
   39.0620   31.7830   40.2540 H   0  0  0  0  0  0  0  0  0  0  0  0
   37.6500   30.4630   41.7120 H   0  0  0  0  0  0  0  0  0  0  0  0
   35.3970   28.7660   38.0210 C   0  0  0  0  0  0  0  0  0  0  0  0
   34.2140   29.0960   37.6390 C   0  0  0  0  0  0  0  0  0  0  0  0
   33.6120   29.9790   37.6760 H   0  0  0  0  0  0  0  0  0  0  0  0
   33.3240   28.2960   37.0160 C   0  0  0  0  0  3  0  0  0  0  0  0
   33.8640   26.9470   36.8080 C   0  0  0  0  0  3  0  0  0  0  0  0
   35.5800   27.1050   37.5670 S   0  0  0  0  0  0  0  0  0  0  0  0
   40.2560   32.2570   37.9760 C   0  0  0  0  0  0  0  0  0  0  0  0
   41.2890   31.4990   37.9580 O   0  0  0  0  0  0  0  0  0  0  0  0
   40.5290   33.5700   38.4670 N   0  0  0  0  0  0  0  0  0  0  0  0
   39.7810   34.2600   38.5010 H   0  0  0  0  0  0  0  0  0  0  0  0
   41.9360   33.6380   38.8400 C   0  0  0  0  0  0  0  0  0  0  0  0
   42.9560   33.9200   37.9740 C   0  0  0  0  0  0  0  0  0  0  0  0
   44.2220   33.9430   38.5150 C   0  0  0  0  0  0  0  0  0  0  0  0
   44.3670   33.6900   39.8290 N   0  0  0  0  0  0  0  0  0  0  0  0
   43.3370   33.4170   40.6440 C   0  0  0  0  0  0  0  0  0  0  0  0
   42.0760   33.3870   40.1460 N   0  0  0  0  0  0  0  0  0  0  0  0
   45.0420   34.1670   37.8340 H   0  0  0  0  0  0  0  0  0  0  0  0
   43.5700   33.2320   41.6770 H   0  0  0  0  0  0  0  0  0  0  0  0
   42.6180   34.1610   36.6250 N   0  0  0  0  0  0  0  0  0  0  0  0
   42.8690   33.3020   36.0590 H   0  0  0  0  0  0  0  0  0  0  0  0
   42.1920   35.0120   36.2010 H   0  0  0  0  0  0  0  0  0  0  0  0
  1 18  1  0  0  0  0
  1  4  1  0  0  0  0
  2  3  1  0  0  0  0
  3  4  2  0  0  0  0
  3  9  1  0  0  0  0
  4  5  1  0  0  0  0
  5 10  1  0  0  0  0
  5  6  2  0  0  0  0
  6 11  1  0  0  0  0
  7  6  1  0  0  0  0
  7  8  1  0  0  0  0
  9  7  2  0  0  0  0
 12  9  1  0  0  0  0
 13 14  1  0  0  0  0
 13 12  2  0  0  0  0
 15 13  1  0  0  0  0
 16 15  2  0  0  0  0
 16 17  1  0  0  0  0
 17 12  1  0  0  0  0
 18 20  1  0  0  0  0
 19 18  2  0  0  0  0
 20 21  1  0  0  0  0
 20 22  1  0  0  0  0
 22 27  1  0  0  0  0
 23 24  1  0  0  0  0
 23 22  2  0  0  0  0
 24 25  2  0  0  0  0
 25 26  1  0  0  0  0
 26 29  1  0  0  0  0
 27 26  2  0  0  0  0
 28 24  1  0  0  0  0
 30 23  1  0  0  0  0
 31 30  1  0  0  0  0
 32 30  1  0  0  0  0
M  END
>  <minimizedAffinity>
-5.46965027

$$$$

 OpenBabel03252501393D

 32 34  0  0  0  0  0  0  0  0999 V2000
   38.2840   31.2770   40.8390 O   0  0  0  0  0  0  0  0  0  0  0  0
   38.9780   28.6820   42.0300 Cl  0  0  0  0  0  0  0  0  0  0  0  0
   37.9000   28.9540   40.6790 C   0  0  0  0  0  0  0  0  0  0  0  0
   37.6500   30.2230   40.1960 C   0  0  0  0  0  0  0  0  0  0  0  0
   36.8110   30.4020   39.1330 C   0  0  0  0  0  0  0  0  0  0  0  0
   36.1750   29.3470   38.4890 C   0  0  0  0  0  0  0  0  0  0  0  0
   36.4230   28.0510   38.9730 C   0  0  0  0  0  0  0  0  0  0  0  0
   35.6560   26.7000   38.1730 Cl  0  0  0  0  0  0  0  0  0  0  0  0
   37.2660   27.9110   40.0380 C   0  0  0  0  0  0  0  0  0  0  0  0
   36.6000   31.3750   38.7400 H   0  0  0  0  0  0  0  0  0  0  0  0
   35.5190   29.4980   37.6570 H   0  0  0  0  0  0  0  0  0  0  0  0
   37.5870   26.5770   40.6180 C   0  0  0  0  0  0  0  0  0  0  0  0
   36.9870   25.9500   41.5680 C   0  0  0  0  0  0  0  0  0  0  0  0
   36.1470   26.1370   42.2020 H   0  0  0  0  0  0  0  0  0  0  0  0
   37.3240   24.7410   42.0630 C   0  0  0  0  0  3  0  0  0  0  0  0
   38.4970   24.1840   41.3780 C   0  0  0  0  0  3  0  0  0  0  0  0
   38.8880   25.5430   40.1330 S   0  0  0  0  0  0  0  0  0  0  0  0
   39.3470   31.9340   40.1900 C   0  0  0  0  0  0  0  0  0  0  0  0
   39.5060   33.2050   40.1270 O   0  0  0  0  0  0  0  0  0  0  0  0
   40.3780   31.2050   39.5230 N   0  0  0  0  0  0  0  0  0  0  0  0
   40.3590   30.1860   39.5330 H   0  0  0  0  0  0  0  0  0  0  0  0
   41.3050   32.1570   38.9270 C   0  0  0  0  0  0  0  0  0  0  0  0
   41.1510   32.7200   37.6900 C   0  0  0  0  0  0  0  0  0  0  0  0
   42.1330   33.6030   37.2990 C   0  0  0  0  0  0  0  0  0  0  0  0
   43.1550   33.8450   38.1410 N   0  0  0  0  0  0  0  0  0  0  0  0
   43.2670   33.2700   39.3470 C   0  0  0  0  0  0  0  0  0  0  0  0
   42.3180   32.3960   39.7660 N   0  0  0  0  0  0  0  0  0  0  0  0
   42.0190   34.0570   36.3160 H   0  0  0  0  0  0  0  0  0  0  0  0
   44.1260   33.5390   39.9360 H   0  0  0  0  0  0  0  0  0  0  0  0
   40.0130   32.3490   36.9430 N   0  0  0  0  0  0  0  0  0  0  0  0
   40.3150   31.6700   36.1880 H   0  0  0  0  0  0  0  0  0  0  0  0
   39.0240   32.6540   37.0650 H   0  0  0  0  0  0  0  0  0  0  0  0
  3  2  1  0  0  0  0
  4  3  1  0  0  0  0
  4  1  1  0  0  0  0
  5  4  2  0  0  0  0
  6  7  2  0  0  0  0
  6  5  1  0  0  0  0
  7  9  1  0  0  0  0
  8  7  1  0  0  0  0
  9 12  1  0  0  0  0
  9  3  2  0  0  0  0
 10  5  1  0  0  0  0
 11  6  1  0  0  0  0
 12 13  2  0  0  0  0
 13 15  1  0  0  0  0
 13 14  1  0  0  0  0
 16 15  2  0  0  0  0
 17 12  1  0  0  0  0
 17 16  1  0  0  0  0
 18  1  1  0  0  0  0
 19 18  2  0  0  0  0
 20 21  1  0  0  0  0
 20 18  1  0  0  0  0
 22 20  1  0  0  0  0
 22 27  1  0  0  0  0
 23 22  2  0  0  0  0
 24 23  1  0  0  0  0
 24 25  2  0  0  0  0
 25 26  1  0  0  0  0
 26 27  2  0  0  0  0
 26 29  1  0  0  0  0
 28 24  1  0  0  0  0
 30 32  1  0  0  0  0
 30 23  1  0  0  0  0
 31 30  1  0  0  0  0
M  END
>  <minimizedAffinity>
-5.4209857

$$$$

 OpenBabel03252501393D

 32 34  0  0  0  0  0  0  0  0999 V2000
   36.0900   29.4110   40.2460 O   0  0  0  0  0  0  0  0  0  0  0  0
   36.2220   27.3660   38.1400 Cl  0  0  0  0  0  0  0  0  0  0  0  0
   36.5360   27.1280   39.8450 C   0  0  0  0  0  0  0  0  0  0  0  0
   36.4380   28.1650   40.7510 C   0  0  0  0  0  0  0  0  0  0  0  0
   36.6790   27.9460   42.0770 C   0  0  0  0  0  0  0  0  0  0  0  0
   37.0280   26.7000   42.5840 C   0  0  0  0  0  0  0  0  0  0  0  0
   37.1300   25.6370   41.6700 C   0  0  0  0  0  0  0  0  0  0  0  0
   37.5470   24.0520   42.2750 Cl  0  0  0  0  0  0  0  0  0  0  0  0
   36.8830   25.8940   40.3510 C   0  0  0  0  0  0  0  0  0  0  0  0
   36.6100   28.7330   42.8000 H   0  0  0  0  0  0  0  0  0  0  0  0
   37.2150   26.5380   43.6250 H   0  0  0  0  0  0  0  0  0  0  0  0
   36.9690   24.8300   39.3120 C   0  0  0  0  0  0  0  0  0  0  0  0
   37.9940   24.4530   38.6330 C   0  0  0  0  0  0  0  0  0  0  0  0
   39.0250   24.7300   38.5780 H   0  0  0  0  0  0  0  0  0  0  0  0
   38.0160   23.4840   37.6940 C   0  0  0  0  0  3  0  0  0  0  0  0
   36.6920   22.8750   37.5160 C   0  0  0  0  0  3  0  0  0  0  0  0
   35.6610   23.8400   38.7610 S   0  0  0  0  0  0  0  0  0  0  0  0
   37.0790   30.4080   40.1400 C   0  0  0  0  0  0  0  0  0  0  0  0
   37.8220   30.6080   39.1160 O   0  0  0  0  0  0  0  0  0  0  0  0
   37.3420   31.3130   41.2130 N   0  0  0  0  0  0  0  0  0  0  0  0
   36.7900   31.2540   42.0670 H   0  0  0  0  0  0  0  0  0  0  0  0
   38.4330   32.1930   40.8160 C   0  0  0  0  0  0  0  0  0  0  0  0
   38.2730   33.3590   40.1190 C   0  0  0  0  0  0  0  0  0  0  0  0
   39.4260   34.0590   39.8370 C   0  0  0  0  0  0  0  0  0  0  0  0
   40.6030   33.5590   40.2550 N   0  0  0  0  0  0  0  0  0  0  0  0
   40.7140   32.4090   40.9370 C   0  0  0  0  0  0  0  0  0  0  0  0
   39.6000   31.6940   41.2330 N   0  0  0  0  0  0  0  0  0  0  0  0
   39.3100   34.9900   39.2830 H   0  0  0  0  0  0  0  0  0  0  0  0
   41.7050   32.1060   41.2210 H   0  0  0  0  0  0  0  0  0  0  0  0
   36.9600   33.7310   39.7620 N   0  0  0  0  0  0  0  0  0  0  0  0
   36.8240   33.5300   38.7310 H   0  0  0  0  0  0  0  0  0  0  0  0
   36.2100   34.1360   40.3620 H   0  0  0  0  0  0  0  0  0  0  0  0
  1  4  1  0  0  0  0
  2  3  1  0  0  0  0
  3  9  2  0  0  0  0
  3  4  1  0  0  0  0
  4  5  2  0  0  0  0
  5  6  1  0  0  0  0
  5 10  1  0  0  0  0
  6 11  1  0  0  0  0
  7  8  1  0  0  0  0
  7  6  2  0  0  0  0
  9  7  1  0  0  0  0
 12  9  1  0  0  0  0
 13 12  2  0  0  0  0
 14 13  1  0  0  0  0
 15 13  1  0  0  0  0
 16 15  2  0  0  0  0
 16 17  1  0  0  0  0
 17 12  1  0  0  0  0
 18  1  1  0  0  0  0
 18 20  1  0  0  0  0
 19 18  2  0  0  0  0
 20 21  1  0  0  0  0
 22 20  1  0  0  0  0
 22 27  1  0  0  0  0
 23 22  2  0  0  0  0
 24 23  1  0  0  0  0
 24 25  2  0  0  0  0
 25 26  1  0  0  0  0
 26 29  1  0  0  0  0
 26 27  2  0  0  0  0
 28 24  1  0  0  0  0
 30 23  1  0  0  0  0
 30 32  1  0  0  0  0
 31 30  1  0  0  0  0
M  END
>  <minimizedAffinity>
-5.36002779

$$$$

 OpenBabel03252501393D

 32 34  0  0  0  0  0  0  0  0999 V2000
   38.3580   28.4520   42.4080 O   0  0  0  0  0  0  0  0  0  0  0  0
   40.7540   29.8910   41.4990 Cl  0  0  0  0  0  0  0  0  0  0  0  0
   39.0900   30.3570   41.2220 C   0  0  0  0  0  0  0  0  0  0  0  0
   38.0370   29.6040   41.7030 C   0  0  0  0  0  0  0  0  0  0  0  0
   36.7490   29.9990   41.4790 C   0  0  0  0  0  0  0  0  0  0  0  0
   36.4260   31.1520   40.7730 C   0  0  0  0  0  0  0  0  0  0  0  0
   37.4900   31.9260   40.2790 C   0  0  0  0  0  0  0  0  0  0  0  0
   37.1210   33.3920   39.4050 Cl  0  0  0  0  0  0  0  0  0  0  0  0
   38.7650   31.4990   40.5210 C   0  0  0  0  0  0  0  0  0  0  0  0
   35.9150   29.4320   41.8410 H   0  0  0  0  0  0  0  0  0  0  0  0
   35.4130   31.4520   40.6030 H   0  0  0  0  0  0  0  0  0  0  0  0
   39.9540   32.2540   40.0360 C   0  0  0  0  0  0  0  0  0  0  0  0
   40.5950   33.2030   40.6220 C   0  0  0  0  0  0  0  0  0  0  0  0
   40.5180   33.7240   41.5520 H   0  0  0  0  0  0  0  0  0  0  0  0
   41.6680   33.8610   40.1330 C   0  0  0  0  0  3  0  0  0  0  0  0
   42.0470   33.3640   38.8050 C   0  0  0  0  0  3  0  0  0  0  0  0
   40.7570   32.0210   38.5210 S   0  0  0  0  0  0  0  0  0  0  0  0
   38.2240   27.2010   41.7740 C   0  0  0  0  0  0  0  0  0  0  0  0
   38.9390   26.7860   40.7950 O   0  0  0  0  0  0  0  0  0  0  0  0
   37.2380   26.2570   42.1920 N   0  0  0  0  0  0  0  0  0  0  0  0
   36.6300   26.4800   42.9790 H   0  0  0  0  0  0  0  0  0  0  0  0
   37.3260   25.0870   41.3280 C   0  0  0  0  0  0  0  0  0  0  0  0
   38.1180   23.9990   41.5740 C   0  0  0  0  0  0  0  0  0  0  0  0
   38.0640   22.9870   40.6410 C   0  0  0  0  0  0  0  0  0  0  0  0
   37.2560   23.1350   39.5750 N   0  0  0  0  0  0  0  0  0  0  0  0
   36.4960   24.2200   39.3720 C   0  0  0  0  0  0  0  0  0  0  0  0
   36.5220   25.2370   40.2700 N   0  0  0  0  0  0  0  0  0  0  0  0
   38.6910   22.1150   40.8280 H   0  0  0  0  0  0  0  0  0  0  0  0
   35.8880   24.2300   38.4850 H   0  0  0  0  0  0  0  0  0  0  0  0
   38.9020   24.0160   42.7470 N   0  0  0  0  0  0  0  0  0  0  0  0
   39.9050   24.2200   42.4760 H   0  0  0  0  0  0  0  0  0  0  0  0
   38.6040   23.8630   43.7340 H   0  0  0  0  0  0  0  0  0  0  0  0
  3  2  1  0  0  0  0
  3  4  1  0  0  0  0
  4  1  1  0  0  0  0
  5  4  2  0  0  0  0
  5 10  1  0  0  0  0
  6  5  1  0  0  0  0
  7  9  1  0  0  0  0
  7  6  2  0  0  0  0
  8  7  1  0  0  0  0
  9  3  2  0  0  0  0
 11  6  1  0  0  0  0
 12  9  1  0  0  0  0
 12 13  2  0  0  0  0
 13 14  1  0  0  0  0
 15 13  1  0  0  0  0
 16 15  2  0  0  0  0
 17 16  1  0  0  0  0
 17 12  1  0  0  0  0
 18 20  1  0  0  0  0
 18  1  1  0  0  0  0
 19 18  2  0  0  0  0
 20 21  1  0  0  0  0
 22 23  1  0  0  0  0
 22 20  1  0  0  0  0
 23 30  1  0  0  0  0
 24 28  1  0  0  0  0
 24 23  2  0  0  0  0
 25 24  1  0  0  0  0
 26 25  2  0  0  0  0
 26 27  1  0  0  0  0
 27 22  2  0  0  0  0
 29 26  1  0  0  0  0
 30 32  1  0  0  0  0
 31 30  1  0  0  0  0
M  END
>  <minimizedAffinity>
-5.27707386

$$$$
