
     RDKit          3D

 44 46  0  0  0  0  0  0  0  0999 V2000
   43.6598   34.9568   41.8822 C   0  0  0  0  0  0  0  0  0  0  0  0
   43.9063   33.6316   42.1868 C   0  0  0  0  0  0  0  0  0  0  0  0
   44.9710   33.3309   43.0123 C   0  0  0  0  0  0  0  0  0  0  0  0
   45.7551   34.3394   43.5092 C   0  0  0  0  0  0  0  0  0  0  0  0
   45.5287   35.6663   43.2195 C   0  0  0  0  0  0  0  0  0  0  0  0
   44.4495   35.9172   42.3877 C   0  0  0  0  0  0  0  0  0  0  0  0
   40.2269   35.7992   40.5228 C   0  0  0  0  0  0  0  0  0  0  0  0
   41.2568   35.5815   41.4539 C   0  0  0  0  0  0  0  0  0  0  0  0
   42.5172   35.2085   41.0027 C   0  0  0  0  0  0  0  0  0  0  0  0
   42.6858   35.0727   39.6592 N   0  0  0  0  0  0  0  0  0  0  0  0
   41.6852   35.2856   38.7765 C   0  0  0  0  0  0  0  0  0  0  0  0
   40.4579   35.6490   39.2185 N   0  0  0  0  0  0  0  0  0  0  0  0
   43.0467   32.5407   41.6408 C   0  0  0  0  0  0  0  0  0  0  0  0
   42.7060   31.5150   42.5696 N   0  0  0  0  0  0  0  0  0  0  0  0
   41.0427   31.1416   42.5544 S   0  0  0  0  0  0  0  0  0  0  0  0
   40.1997   32.3916   42.4477 O   0  0  0  0  0  0  0  0  0  0  0  0
   40.6458   30.3749   43.7702 O   0  0  0  0  0  0  0  0  0  0  0  0
   40.7374   30.2008   41.1948 O   0  0  0  0  0  0  0  0  0  0  0  0
   40.0946   29.0449   41.6029 C   0  0  0  0  0  0  0  0  0  0  0  0
   40.9221   27.8278   41.2193 C   0  0  0  0  0  0  0  0  0  0  0  0
   45.2124   32.3134   43.2853 H   0  0  0  0  0  0  0  0  0  0  0  0
   46.5929   34.1092   44.1582 H   0  0  0  0  0  0  0  0  0  0  0  0
   46.0930   36.4989   43.5675 H   0  0  0  0  0  0  0  0  0  0  0  0
   44.1959   36.9301   42.1060 H   0  0  0  0  0  0  0  0  0  0  0  0
   39.2656   36.0851   40.8888 H   0  0  0  0  0  0  0  0  0  0  0  0
   41.1207   35.6899   42.5203 H   0  0  0  0  0  0  0  0  0  0  0  0
   41.9589   35.1422   37.7454 H   0  0  0  0  0  0  0  0  0  0  0  0
   42.1339   32.9748   41.1932 H   0  0  0  0  0  0  0  0  0  0  0  0
   43.6376   32.1075   40.7817 H   0  0  0  0  0  0  0  0  0  0  0  0
   43.0252   31.6683   43.5439 H   0  0  0  0  0  0  0  0  0  0  0  0
   39.8860   32.8225   43.3013 H   0  0  0  0  0  0  0  0  0  0  0  0
   39.8063   30.4643   44.2828 H   0  0  0  0  0  0  0  0  0  0  0  0
   39.1330   29.0032   41.0882 H   0  0  0  0  0  0  0  0  0  0  0  0
   39.9286   28.9563   42.6851 H   0  0  0  0  0  0  0  0  0  0  0  0
   41.9416   27.8808   41.6550 H   0  0  0  0  0  0  0  0  0  0  0  0
   40.9505   27.7524   40.1092 H   0  0  0  0  0  0  0  0  0  0  0  0
   40.2307   26.5730   41.6592 C   0  0  0  0  0  0  0  0  0  0  0  0
   39.0949   25.9558   41.0593 C   0  0  0  0  0  0  0  0  0  0  0  0
   38.6676   26.4273   40.1951 H   0  0  0  0  0  0  0  0  0  0  0  0
   38.6538   24.8143   41.6442 C   0  0  0  0  0  0  0  0  0  0  0  0
   39.2945   24.2725   42.7900 C   0  0  0  0  0  0  0  0  0  0  0  0
   40.6677   25.4949   43.0835 S   0  0  0  0  0  0  0  0  0  0  0  0
   37.7997   24.2699   41.2658 H   0  0  0  0  0  0  0  0  0  0  0  0
   39.0864   23.4393   43.3332 H   0  0  0  0  0  0  0  0  0  0  0  0
  1  2  1  0
  1  6  2  0
  2  3  2  0
  3  4  1  0
  5  4  2  0
  6  5  1  0
  7  8  2  0
  9  8  1  0
  9  1  1  0
 10  9  2  0
 11 12  2  0
 11 10  1  0
 12  7  1  0
 13  2  1  0
 13 14  1  0
 15 14  1  0
 15 17  1  0
 16 15  1  0
 18 19  1  0
 18 15  1  0
 20 19  1  0
  3 21  1  0
  4 22  1  0
  5 23  1  0
  6 24  1  0
  7 25  1  0
  8 26  1  0
 11 27  1  0
 13 28  1  0
 13 29  1  0
 14 30  1  0
 16 31  1  0
 17 32  1  0
 19 33  1  0
 19 34  1  0
 20 35  1  0
 20 36  1  0
 37 38  2  0
 38 39  1  0
 38 40  1  0
 40 41  2  0
 41 42  1  0
 42 37  1  0
 40 43  1  0
 41 44  1  0
 20 37  1  0
M  ISO  8  21  14  22  14  23  14  24  14  25  14  26  14  27  14  28   8
M  ISO  8  29   8  30   5  31   3  32   3  33   8  34   8  35   8  36   8
M  ISO  1  39  15
M  END
>  <DihAtoms>  (1) 
18,19,36,37

>  <DihDeg>  (1) 
90.23257718860833

$$$$
