
     RDKit          3D

 39 42  0  0  0  0  0  0  0  0999 V2000
   46.2290   35.2185   42.7374 C   0  0  0  0  0  0  0  0  0  0  0  0
   46.8290   34.0385   43.1758 C   0  0  0  0  0  0  0  0  0  0  0  0
   46.4183   33.4732   44.3690 C   0  0  0  0  0  0  0  0  0  0  0  0
   45.4194   34.1039   45.0699 N   0  0  0  0  0  0  0  0  0  0  0  0
   44.8562   35.2360   44.6273 C   0  0  0  0  0  0  0  0  0  0  0  0
   45.2682   35.7807   43.4685 N   0  0  0  0  0  0  0  0  0  0  0  0
   46.9474   32.2731   44.9248 C   0  0  0  0  0  0  0  0  0  0  0  0
   47.6574   31.3107   44.2251 C   0  0  0  0  0  0  0  0  0  0  0  0
   48.0700   30.1170   44.7677 C   0  0  0  0  0  0  0  0  0  0  0  0
   47.7790   29.8195   46.0836 C   0  0  0  0  0  0  0  0  0  0  0  0
   47.0537   30.7973   46.8128 C   0  0  0  0  0  0  0  0  0  0  0  0
   46.7594   30.5104   48.1193 C   0  0  0  0  0  0  0  0  0  0  0  0
   46.0614   31.4162   48.8972 C   0  0  0  0  0  0  0  0  0  0  0  0
   45.6611   32.6316   48.3372 C   0  0  0  0  0  0  0  0  0  0  0  0
   45.9776   32.8962   46.9919 C   0  0  0  0  0  0  0  0  0  0  0  0
   46.6681   31.9677   46.2400 C   0  0  0  0  0  0  0  0  0  0  0  0
   47.7955   33.5005   42.3758 O   0  0  0  0  0  0  0  0  0  0  0  0
   50.3094   33.2927   41.6189 O   0  0  0  0  0  0  0  0  0  0  0  0
   49.2728   34.2799   42.0398 P   0  0  1  0  0  0  0  0  0  0  0  0
   49.0910   35.3853   40.7678 O   0  0  0  0  0  0  0  0  0  0  0  0
   49.7668   35.1178   43.4022 O   0  0  0  0  0  0  0  0  0  0  0  0
   46.5207   35.7024   41.8084 H   0  0  0  0  0  0  0  0  0  0  0  0
   44.0671   35.6519   45.2710 H   0  0  0  0  0  0  0  0  0  0  0  0
   47.9171   31.4468   43.2191 H   0  0  0  0  0  0  0  0  0  0  0  0
   48.6225   29.3705   44.2245 H   0  0  0  0  0  0  0  0  0  0  0  0
   48.0957   28.8830   46.5212 H   0  0  0  0  0  0  0  0  0  0  0  0
   47.0916   29.5441   48.5323 H   0  0  0  0  0  0  0  0  0  0  0  0
   45.8824   31.0775   49.9211 H   0  0  0  0  0  0  0  0  0  0  0  0
   45.1389   33.2086   49.0779 H   0  0  0  0  0  0  0  0  0  0  0  0
   45.6067   33.8596   46.8557 H   0  0  0  0  0  0  0  0  0  0  0  0
   49.9914   35.5781   40.4261 H   0  0  0  0  0  0  0  0  0  0  0  0
   49.5402   36.4012   43.7283 C   0  0  0  0  0  0  0  0  0  0  0  0
   48.6405   37.3394   43.2260 C   0  0  0  0  0  0  0  0  0  0  0  0
   47.9912   37.0106   42.4286 H   0  0  0  0  0  0  0  0  0  0  0  0
   48.6355   38.6011   43.7664 C   0  0  0  0  0  0  0  0  0  0  0  0
   49.4887   38.9303   44.7698 C   0  0  0  0  0  0  0  0  0  0  0  0
   50.4615   37.3252   45.0575 S   0  0  0  0  0  0  0  0  0  0  0  0
   47.9645   39.3742   43.4235 H   0  0  0  0  0  0  0  0  0  0  0  0
   49.6659   39.7868   45.3188 H   0  0  0  0  0  0  0  0  0  0  0  0
  1  2  2  0
  1  6  1  0
  2  3  1  0
  3  7  1  0
  3  4  2  0
  5  4  1  0
  6  5  2  0
  7 16  2  0
  8  9  2  0
  8  7  1  0
  9 10  1  0
 10 11  2  0
 11 12  1  0
 12 13  2  0
 14 13  1  0
 15 14  2  0
 16 11  1  0
 16 15  1  0
 17  2  1  0
 18 19  2  0
 19 17  1  1
 19 21  1  0
 20 19  1  0
  1 22  1  0
  5 23  1  0
  8 24  1  0
  9 25  1  0
 10 26  1  0
 12 27  1  0
 13 28  1  0
 14 29  1  0
 15 30  1  0
 20 31  1  0
 32 33  2  0
 33 34  1  0
 33 35  1  0
 35 36  2  0
 36 37  1  0
 37 32  1  0
 35 38  1  0
 36 39  1  0
 21 32  1  0
M  ISO  8  22  14  23  14  24  14  25  14  26  14  27  14  28  14  29  14
M  ISO  3  30  14  31   3  34  15
M  END
>  <DihAtoms>  (1) 
18,20,31,32

>  <DihDeg>  (1) 
-0.0007121698690239474

$$$$
