
 OpenBabel03242523533D

 42 45  0  0  1  0  0  0  0  0999 V2000
   42.8160   34.3690   38.9040 C   0  0  1  0  0  0  0  0  0  0  0  0
   42.9940   35.1610   40.1900 C   0  0  1  0  0  0  0  0  0  0  0  0
   41.7210   35.5230   40.6680 O   0  0  0  0  0  0  0  0  0  0  0  0
   40.8230   35.8150   39.6380 C   0  0  0  0  0  0  0  0  0  0  0  0
   40.4430   34.5730   38.8530 C   0  0  2  0  0  0  0  0  0  0  0  0
   41.5930   33.5340   39.0960 C   0  0  1  0  0  0  0  0  0  0  0  0
   43.7270   33.7540   38.6920 H   0  0  0  0  0  0  0  0  0  0  0  0
   43.6470   36.0380   40.0730 H   0  0  0  0  0  0  0  0  0  0  0  0
   39.9150   36.1880   40.1230 H   0  0  0  0  0  0  0  0  0  0  0  0
   41.1940   36.6250   38.9810 H   0  0  0  0  0  0  0  0  0  0  0  0
   39.4810   34.1510   39.1820 H   0  0  0  0  0  0  0  0  0  0  0  0
   41.3580   33.3820   40.2020 H   0  0  0  0  0  0  0  0  0  0  0  0
   42.6640   35.2250   37.8030 O   0  0  0  0  0  0  0  0  0  0  0  0
   43.5060   35.6360   37.5510 H   0  0  0  0  0  0  0  0  0  0  0  0
   40.4890   34.8510   37.4940 O   0  0  0  0  0  0  0  0  0  0  0  0
   39.5850   35.0840   37.1340 H   0  0  0  0  0  0  0  0  0  0  0  0
   43.4630   34.2340   41.1350 O   0  0  0  0  0  0  0  0  0  0  0  0
   44.6010   34.3530   41.8290 C   0  0  0  0  0  0  0  0  0  0  0  0
   45.8360   34.4720   41.1750 C   0  0  0  0  0  0  0  0  0  0  0  0
   46.9830   34.5940   41.9440 C   0  0  0  0  0  0  0  0  0  0  0  0
   46.8750   34.5950   43.3240 N   0  0  0  0  0  0  0  0  0  0  0  0
   45.6660   34.4790   43.9180 C   0  0  0  0  0  0  0  0  0  0  0  0
   44.5350   34.3580   43.1740 N   0  0  0  0  0  0  0  0  0  0  0  0
   45.9270   34.4720   40.1030 H   0  0  0  0  0  0  0  0  0  0  0  0
   45.6580   34.4870   45.0000 H   0  0  0  0  0  0  0  0  0  0  0  0
   48.3360   34.7090   41.3220 C   0  0  0  0  0  0  0  0  0  0  0  0
   49.0710   36.0350   41.5210 C   0  0  0  0  0  0  0  0  0  0  0  0
   49.5210   34.6890   42.1180 C   0  0  0  0  0  0  0  0  0  0  0  0
   48.3550   34.3590   40.2510 H   0  0  0  0  0  0  0  0  0  0  0  0
   48.6560   36.7420   42.2390 H   0  0  0  0  0  0  0  0  0  0  0  0
   49.7230   36.3880   40.6990 H   0  0  0  0  0  0  0  0  0  0  0  0
   50.4610   34.2370   41.7380 H   0  0  0  0  0  0  0  0  0  0  0  0
   49.4200   34.5840   43.2260 H   0  0  0  0  0  0  0  0  0  0  0  0
   41.3990   32.5100   38.2420 O   0  0  0  0  0  0  0  0  0  0  0  0
   40.5510   31.4860   38.2950 C   0  0  0  0  0  0  0  0  0  0  0  0
   39.7880   31.1270   37.2760 O   0  0  0  0  0  0  0  0  0  0  0  0
   40.1780   30.4390   39.4270 C   0  0  0  0  0  0  0  0  0  0  0  0
   40.5610   30.2950   40.6470 C   0  0  0  0  0  0  0  0  0  0  0  0
   41.2790   31.0340   40.9870 H   0  0  0  0  0  0  0  0  0  0  0  0
   40.0680   29.2760   41.3990 C   0  0  0  0  0  3  0  0  0  0  0  0
   39.1490   28.4310   40.7670 C   0  0  0  0  0  3  0  0  0  0  0  0
   39.0530   29.2190   39.0140 S   0  0  0  0  0  0  0  0  0  0  0  0
  1  7  1  6  0  0  0
  1  6  1  0  0  0  0
  1  2  1  0  0  0  0
  2  8  1  6  0  0  0
  2  3  1  0  0  0  0
  2 17  1  0  0  0  0
  4  9  1  0  0  0  0
  4  3  1  0  0  0  0
  5  6  1  0  0  0  0
  5 11  1  1  0  0  0
  5  4  1  0  0  0  0
  6 12  1  1  0  0  0
 10  4  1  0  0  0  0
 13  1  1  0  0  0  0
 14 13  1  0  0  0  0
 15  5  1  0  0  0  0
 16 15  1  0  0  0  0
 17 18  1  0  0  0  0
 18 23  1  0  0  0  0
 19 18  2  0  0  0  0
 19 20  1  0  0  0  0
 20 21  2  0  0  0  0
 21 22  1  0  0  0  0
 22 25  1  0  0  0  0
 23 22  2  0  0  0  0
 24 19  1  0  0  0  0
 26 27  1  0  0  0  0
 26 20  1  0  0  0  0
 26 28  1  0  0  0  0
 27 28  1  0  0  0  0
 27 30  1  0  0  0  0
 28 33  1  0  0  0  0
 29 26  1  0  0  0  0
 31 27  1  0  0  0  0
 32 28  1  0  0  0  0
 34 35  1  0  0  0  0
 34  6  1  0  0  0  0
 35 37  1  0  0  0  0
 36 35  2  0  0  0  0
 37 38  2  0  0  0  0
 38 39  1  0  0  0  0
 38 40  1  0  0  0  0
 41 40  2  0  0  0  0
 42 37  1  0  0  0  0
 42 41  1  0  0  0  0
M  END
>  <minimizedAffinity>
-5.82914209

>  <minimizedRMSD>
1.1730895

$$$$
