
 OpenBabel03242520343D

 25 27  0  0  1  0  0  0  0  0999 V2000
   36.9250   27.5850   42.8070 C   0  0  0  0  0  0  0  0  0  0  0  0
   37.0790   26.6110   41.7670 C   0  0  0  0  0  0  0  0  0  0  0  0
   37.4320   27.0430   40.5020 C   0  0  0  0  0  0  0  0  0  0  0  0
   37.6160   28.3830   40.3020 N   0  0  0  0  0  0  0  0  0  0  0  0
   37.4650   29.2680   41.2890 C   0  0  0  0  0  0  0  0  0  0  0  0
   37.1250   28.8760   42.5190 N   0  0  0  0  0  0  0  0  0  0  0  0
   36.6520   27.2430   43.7870 H   0  0  0  0  0  0  0  0  0  0  0  0
   37.5360   26.2670   39.7560 H   0  0  0  0  0  0  0  0  0  0  0  0
   36.8430   25.1530   42.0310 C   0  0  1  0  0  0  0  0  0  0  0  0
   37.4160   24.1510   41.1600 C   0  0  0  0  0  0  0  0  0  0  0  0
   38.0280   24.3200   42.5020 C   0  0  1  0  0  0  0  0  0  0  0  0
   35.9170   24.9240   42.6020 H   0  0  0  0  0  0  0  0  0  0  0  0
   36.8930   23.1890   40.9280 H   0  0  0  0  0  0  0  0  0  0  0  0
   38.0340   24.4660   40.2720 H   0  0  0  0  0  0  0  0  0  0  0  0
   37.8120   23.5020   43.2430 H   0  0  0  0  0  0  0  0  0  0  0  0
   39.3680   24.9360   42.6740 C   0  0  0  0  0  0  0  0  0  0  0  0
   39.3600   25.9480   43.6210 F   0  0  0  0  0  0  0  0  0  0  0  0
   39.8630   25.4490   41.4760 F   0  0  0  0  0  0  0  0  0  0  0  0
   40.2280   23.9670   43.1350 F   0  0  0  0  0  0  0  0  0  0  0  0
   37.7030   30.6810   40.9080 C   0  0  0  0  0  0  0  0  0  0  0  0
   36.9860   31.5730   40.2640 C   0  0  0  0  0  0  0  0  0  0  0  0
   36.0130   31.2460   39.9250 H   0  0  0  0  0  0  0  0  0  0  0  0
   37.4620   32.8310   40.0490 C   0  0  0  0  0  3  0  0  0  0  0  0
   38.7740   33.0880   40.5700 C   0  0  0  0  0  3  0  0  0  0  0  0
   39.2010   31.4180   41.3500 S   0  0  0  0  0  0  0  0  0  0  0  0
  1  7  1  0  0  0  0
  2  9  1  0  0  0  0
  2  1  2  0  0  0  0
  3  2  1  0  0  0  0
  4  3  2  0  0  0  0
  4  5  1  0  0  0  0
  5  6  2  0  0  0  0
  6  1  1  0  0  0  0
  8  3  1  0  0  0  0
  9 11  1  0  0  0  0
  9 12  1  1  0  0  0
 10  9  1  0  0  0  0
 10 11  1  0  0  0  0
 11 16  1  0  0  0  0
 11 15  1  1  0  0  0
 13 10  1  0  0  0  0
 14 10  1  0  0  0  0
 16 19  1  0  0  0  0
 16 17  1  0  0  0  0
 18 16  1  0  0  0  0
 20  5  1  0  0  0  0
 20 25  1  0  0  0  0
 21 20  2  0  0  0  0
 22 21  1  0  0  0  0
 23 21  1  0  0  0  0
 23 24  2  0  0  0  0
 24 25  1  0  0  0  0
M  END
>  <minimizedAffinity>
-5.02393484

$$$$

 OpenBabel03242520343D

 25 27  0  0  1  0  0  0  0  0999 V2000
   39.3700   27.9710   40.3890 C   0  0  0  0  0  0  0  0  0  0  0  0
   39.4080   27.7100   41.7980 C   0  0  0  0  0  0  0  0  0  0  0  0
   39.0850   28.7330   42.6700 C   0  0  0  0  0  0  0  0  0  0  0  0
   38.7460   29.9490   42.1450 N   0  0  0  0  0  0  0  0  0  0  0  0
   38.7190   30.1640   40.8290 C   0  0  0  0  0  0  0  0  0  0  0  0
   39.0260   29.1920   39.9660 N   0  0  0  0  0  0  0  0  0  0  0  0
   39.6210   27.1710   39.7180 H   0  0  0  0  0  0  0  0  0  0  0  0
   39.1300   28.4820   43.7210 H   0  0  0  0  0  0  0  0  0  0  0  0
   39.8100   26.3640   42.3260 C   0  0  1  0  0  0  0  0  0  0  0  0
   39.4650   25.9760   43.6750 C   0  0  0  0  0  0  0  0  0  0  0  0
   38.7070   25.3420   42.5670 C   0  0  1  0  0  0  0  0  0  0  0  0
   40.6980   25.9130   41.8310 H   0  0  0  0  0  0  0  0  0  0  0  0
   40.1320   25.3330   44.3030 H   0  0  0  0  0  0  0  0  0  0  0  0
   38.9010   26.6910   44.3380 H   0  0  0  0  0  0  0  0  0  0  0  0
   38.9570   24.2660   42.3580 H   0  0  0  0  0  0  0  0  0  0  0  0
   37.2860   25.6830   42.3020 C   0  0  0  0  0  0  0  0  0  0  0  0
   37.0680   26.0190   40.9750 F   0  0  0  0  0  0  0  0  0  0  0  0
   36.8430   26.7310   43.1060 F   0  0  0  0  0  0  0  0  0  0  0  0
   36.5240   24.5670   42.5590 F   0  0  0  0  0  0  0  0  0  0  0  0
   38.3290   31.5360   40.4230 C   0  0  0  0  0  0  0  0  0  0  0  0
   37.2860   32.0270   39.7960 C   0  0  0  0  0  0  0  0  0  0  0  0
   36.5320   31.3130   39.4960 H   0  0  0  0  0  0  0  0  0  0  0  0
   37.1830   33.3630   39.5480 C   0  0  0  0  0  3  0  0  0  0  0  0
   38.2800   34.1610   40.0180 C   0  0  0  0  0  3  0  0  0  0  0  0
   39.3910   32.8450   40.8010 S   0  0  0  0  0  0  0  0  0  0  0  0
  1  2  1  0  0  0  0
  2  9  1  0  0  0  0
  2  3  2  0  0  0  0
  3  8  1  0  0  0  0
  4  3  1  0  0  0  0
  5  4  2  0  0  0  0
  6  1  2  0  0  0  0
  6  5  1  0  0  0  0
  7  1  1  0  0  0  0
  9 12  1  6  0  0  0
  9 11  1  0  0  0  0
  9 10  1  0  0  0  0
 10 13  1  0  0  0  0
 10 14  1  0  0  0  0
 11 15  1  6  0  0  0
 11 10  1  0  0  0  0
 16 19  1  0  0  0  0
 16 11  1  0  0  0  0
 16 18  1  0  0  0  0
 17 16  1  0  0  0  0
 20 25  1  0  0  0  0
 20  5  1  0  0  0  0
 21 20  2  0  0  0  0
 22 21  1  0  0  0  0
 23 21  1  0  0  0  0
 23 24  2  0  0  0  0
 24 25  1  0  0  0  0
M  END
>  <minimizedAffinity>
-4.85907459

$$$$

 OpenBabel03242520343D

 25 27  0  0  1  0  0  0  0  0999 V2000
   38.5980   30.2900   41.1460 C   0  0  0  0  0  0  0  0  0  0  0  0
   37.2810   30.7320   40.7940 C   0  0  0  0  0  0  0  0  0  0  0  0
   36.2520   29.8090   40.7920 C   0  0  0  0  0  0  0  0  0  0  0  0
   36.5400   28.5150   41.1250 N   0  0  0  0  0  0  0  0  0  0  0  0
   37.7760   28.1310   41.4480 C   0  0  0  0  0  0  0  0  0  0  0  0
   38.7870   29.0040   41.4580 N   0  0  0  0  0  0  0  0  0  0  0  0
   39.3930   31.0120   41.1460 H   0  0  0  0  0  0  0  0  0  0  0  0
   35.2790   30.1960   40.5190 H   0  0  0  0  0  0  0  0  0  0  0  0
   37.0190   32.1600   40.4120 C   0  0  1  0  0  0  0  0  0  0  0  0
   38.1050   33.0080   39.9740 C   0  0  0  0  0  0  0  0  0  0  0  0
   37.1490   32.5320   38.9410 C   0  0  1  0  0  0  0  0  0  0  0  0
   36.1190   32.6130   40.8820 H   0  0  0  0  0  0  0  0  0  0  0  0
   38.1410   34.1020   40.2050 H   0  0  0  0  0  0  0  0  0  0  0  0
   39.1530   32.5990   39.9270 H   0  0  0  0  0  0  0  0  0  0  0  0
   36.4330   33.3040   38.5470 H   0  0  0  0  0  0  0  0  0  0  0  0
   37.5370   31.5150   37.9320 C   0  0  0  0  0  0  0  0  0  0  0  0
   36.6170   30.4810   37.8510 F   0  0  0  0  0  0  0  0  0  0  0  0
   38.7940   30.9730   38.1950 F   0  0  0  0  0  0  0  0  0  0  0  0
   37.5600   32.1230   36.6990 F   0  0  0  0  0  0  0  0  0  0  0  0
   37.9210   26.6950   41.7860 C   0  0  0  0  0  0  0  0  0  0  0  0
   37.0780   25.6900   41.8260 C   0  0  0  0  0  0  0  0  0  0  0  0
   36.0530   25.9170   41.5650 H   0  0  0  0  0  0  0  0  0  0  0  0
   37.4920   24.4410   42.1790 C   0  0  0  0  0  3  0  0  0  0  0  0
   38.8880   24.3250   42.4940 C   0  0  0  0  0  3  0  0  0  0  0  0
   39.4790   26.1030   42.2360 S   0  0  0  0  0  0  0  0  0  0  0  0
  1  6  1  0  0  0  0
  2  1  2  0  0  0  0
  3  2  1  0  0  0  0
  3  4  2  0  0  0  0
  4  5  1  0  0  0  0
  5  6  2  0  0  0  0
  5 20  1  0  0  0  0
  7  1  1  0  0  0  0
  8  3  1  0  0  0  0
  9  2  1  0  0  0  0
  9 12  1  1  0  0  0
 10 13  1  0  0  0  0
 10  9  1  0  0  0  0
 11 15  1  6  0  0  0
 11 10  1  0  0  0  0
 11  9  1  0  0  0  0
 14 10  1  0  0  0  0
 16 18  1  0  0  0  0
 16 11  1  0  0  0  0
 17 16  1  0  0  0  0
 19 16  1  0  0  0  0
 20 21  2  0  0  0  0
 20 25  1  0  0  0  0
 21 23  1  0  0  0  0
 22 21  1  0  0  0  0
 23 24  2  0  0  0  0
 25 24  1  0  0  0  0
M  END
>  <minimizedAffinity>
-4.73809719

$$$$

 OpenBabel03242520343D

 25 27  0  0  1  0  0  0  0  0999 V2000
   40.0400   28.6050   42.5830 C   0  0  0  0  0  0  0  0  0  0  0  0
   38.6240   28.6220   42.8070 C   0  0  0  0  0  0  0  0  0  0  0  0
   37.9020   29.7250   42.3930 C   0  0  0  0  0  0  0  0  0  0  0  0
   38.5740   30.7510   41.7900 N   0  0  0  0  0  0  0  0  0  0  0  0
   39.8920   30.7090   41.5950 C   0  0  0  0  0  0  0  0  0  0  0  0
   40.6130   29.6550   41.9850 N   0  0  0  0  0  0  0  0  0  0  0  0
   40.5950   27.7440   42.9060 H   0  0  0  0  0  0  0  0  0  0  0  0
   36.8380   29.6860   42.5860 H   0  0  0  0  0  0  0  0  0  0  0  0
   37.9360   27.4800   43.4960 C   0  0  1  0  0  0  0  0  0  0  0  0
   36.4920   27.3970   43.5060 C   0  0  0  0  0  0  0  0  0  0  0  0
   37.2240   26.4550   42.6220 C   0  0  1  0  0  0  0  0  0  0  0  0
   38.5220   27.0010   44.3100 H   0  0  0  0  0  0  0  0  0  0  0  0
   35.9220   26.9820   44.3750 H   0  0  0  0  0  0  0  0  0  0  0  0
   35.8810   28.1990   43.0050 H   0  0  0  0  0  0  0  0  0  0  0  0
   37.2530   25.3850   42.9680 H   0  0  0  0  0  0  0  0  0  0  0  0
   37.2040   26.6000   41.1450 C   0  0  0  0  0  0  0  0  0  0  0  0
   38.4780   26.7280   40.6150 F   0  0  0  0  0  0  0  0  0  0  0  0
   36.4410   27.6930   40.7390 F   0  0  0  0  0  0  0  0  0  0  0  0
   36.6650   25.4540   40.6100 F   0  0  0  0  0  0  0  0  0  0  0  0
   40.4680   31.9010   40.9250 C   0  0  0  0  0  0  0  0  0  0  0  0
   41.6910   32.3630   40.8050 C   0  0  0  0  0  0  0  0  0  0  0  0
   42.4680   31.7810   41.2790 H   0  0  0  0  0  0  0  0  0  0  0  0
   41.9410   33.5120   40.1170 C   0  0  0  0  0  3  0  0  0  0  0  0
   40.7860   34.1540   39.5540 C   0  0  0  0  0  3  0  0  0  0  0  0
   39.4050   32.9810   40.0990 S   0  0  0  0  0  0  0  0  0  0  0  0
  1  2  1  0  0  0  0
  1  7  1  0  0  0  0
  2  9  1  0  0  0  0
  3  8  1  0  0  0  0
  3  2  2  0  0  0  0
  4  3  1  0  0  0  0
  5  4  2  0  0  0  0
  5  6  1  0  0  0  0
  6  1  2  0  0  0  0
  9 10  1  0  0  0  0
  9 12  1  1  0  0  0
 10 13  1  0  0  0  0
 11 15  1  1  0  0  0
 11  9  1  0  0  0  0
 11 10  1  0  0  0  0
 14 10  1  0  0  0  0
 16 11  1  0  0  0  0
 17 16  1  0  0  0  0
 18 16  1  0  0  0  0
 19 16  1  0  0  0  0
 20  5  1  0  0  0  0
 21 20  2  0  0  0  0
 21 22  1  0  0  0  0
 23 21  1  0  0  0  0
 24 25  1  0  0  0  0
 24 23  2  0  0  0  0
 25 20  1  0  0  0  0
M  END
>  <minimizedAffinity>
-4.67565727

$$$$

 OpenBabel03242520343D

 25 27  0  0  1  0  0  0  0  0999 V2000
   39.3990   29.6240   40.2410 C   0  0  0  0  0  0  0  0  0  0  0  0
   39.0800   30.4460   41.3720 C   0  0  0  0  0  0  0  0  0  0  0  0
   38.2770   29.9200   42.3660 C   0  0  0  0  0  0  0  0  0  0  0  0
   37.8230   28.6390   42.2240 N   0  0  0  0  0  0  0  0  0  0  0  0
   38.1340   27.8970   41.1600 C   0  0  0  0  0  0  0  0  0  0  0  0
   38.9080   28.3810   40.1860 N   0  0  0  0  0  0  0  0  0  0  0  0
   40.0240   30.0380   39.4720 H   0  0  0  0  0  0  0  0  0  0  0  0
   38.0690   30.5820   43.1960 H   0  0  0  0  0  0  0  0  0  0  0  0
   39.5850   31.8560   41.4700 C   0  0  1  0  0  0  0  0  0  0  0  0
   40.1060   32.5280   40.3010 C   0  0  0  0  0  0  0  0  0  0  0  0
   38.7690   32.9470   40.7910 C   0  0  1  0  0  0  0  0  0  0  0  0
   39.9310   32.1590   42.4820 H   0  0  0  0  0  0  0  0  0  0  0  0
   40.9500   33.2600   40.3580 H   0  0  0  0  0  0  0  0  0  0  0  0
   40.1430   31.9880   39.3130 H   0  0  0  0  0  0  0  0  0  0  0  0
   38.7290   33.9460   41.3040 H   0  0  0  0  0  0  0  0  0  0  0  0
   37.5280   32.6140   40.0460 C   0  0  0  0  0  0  0  0  0  0  0  0
   36.6030   31.9550   40.8400 F   0  0  0  0  0  0  0  0  0  0  0  0
   37.7890   31.8320   38.9220 F   0  0  0  0  0  0  0  0  0  0  0  0
   36.9410   33.7910   39.6460 F   0  0  0  0  0  0  0  0  0  0  0  0
   37.5630   26.5280   41.1580 C   0  0  0  0  0  0  0  0  0  0  0  0
   37.3860   25.6250   42.0940 C   0  0  0  0  0  0  0  0  0  0  0  0
   37.7140   25.8980   43.0880 H   0  0  0  0  0  0  0  0  0  0  0  0
   36.8210   24.4190   41.8060 C   0  0  0  0  0  3  0  0  0  0  0  0
   36.4480   24.2290   40.4330 C   0  0  0  0  0  3  0  0  0  0  0  0
   36.9730   25.8790   39.6710 S   0  0  0  0  0  0  0  0  0  0  0  0
  1  2  1  0  0  0  0
  2  9  1  0  0  0  0
  2  3  2  0  0  0  0
  3  8  1  0  0  0  0
  4  3  1  0  0  0  0
  5  4  2  0  0  0  0
  6  1  2  0  0  0  0
  6  5  1  0  0  0  0
  7  1  1  0  0  0  0
  9 12  1  1  0  0  0
 10 13  1  0  0  0  0
 10 11  1  0  0  0  0
 10  9  1  0  0  0  0
 11 15  1  1  0  0  0
 11  9  1  0  0  0  0
 14 10  1  0  0  0  0
 16 11  1  0  0  0  0
 16 17  1  0  0  0  0
 18 16  1  0  0  0  0
 19 16  1  0  0  0  0
 20  5  1  0  0  0  0
 20 21  2  0  0  0  0
 21 22  1  0  0  0  0
 23 21  1  0  0  0  0
 24 23  2  0  0  0  0
 25 24  1  0  0  0  0
 25 20  1  0  0  0  0
M  END
>  <minimizedAffinity>
-4.62645149

$$$$

 OpenBabel03242520343D

 25 27  0  0  1  0  0  0  0  0999 V2000
   37.8840   29.7000   38.0920 C   0  0  0  0  0  0  0  0  0  0  0  0
   36.7980   30.3600   38.7550 C   0  0  0  0  0  0  0  0  0  0  0  0
   36.9730   31.6650   39.1750 C   0  0  0  0  0  0  0  0  0  0  0  0
   38.1790   32.2660   38.9400 N   0  0  0  0  0  0  0  0  0  0  0  0
   39.1730   31.6270   38.3220 C   0  0  0  0  0  0  0  0  0  0  0  0
   39.0290   30.3670   37.9050 N   0  0  0  0  0  0  0  0  0  0  0  0
   37.7410   28.6870   37.7680 H   0  0  0  0  0  0  0  0  0  0  0  0
   36.1220   32.1150   39.6680 H   0  0  0  0  0  0  0  0  0  0  0  0
   35.5010   29.6490   39.0100 C   0  0  1  0  0  0  0  0  0  0  0  0
   35.4550   28.2050   39.0460 C   0  0  0  0  0  0  0  0  0  0  0  0
   35.3440   28.9240   40.3400 C   0  0  1  0  0  0  0  0  0  0  0  0
   34.5890   30.2240   38.7360 H   0  0  0  0  0  0  0  0  0  0  0  0
   34.5720   27.6240   38.6790 H   0  0  0  0  0  0  0  0  0  0  0  0
   36.3950   27.6090   38.8710 H   0  0  0  0  0  0  0  0  0  0  0  0
   34.3210   28.9330   40.8060 H   0  0  0  0  0  0  0  0  0  0  0  0
   36.4480   28.9130   41.3330 C   0  0  0  0  0  0  0  0  0  0  0  0
   37.6570   28.5430   40.7670 F   0  0  0  0  0  0  0  0  0  0  0  0
   36.1770   28.0620   42.4030 F   0  0  0  0  0  0  0  0  0  0  0  0
   36.6070   30.1940   41.8090 F   0  0  0  0  0  0  0  0  0  0  0  0
   40.4140   32.4190   38.1430 C   0  0  0  0  0  0  0  0  0  0  0  0
   41.3680   32.4070   37.2410 C   0  0  0  0  0  0  0  0  0  0  0  0
   41.2620   31.6810   36.4460 H   0  0  0  0  0  0  0  0  0  0  0  0
   42.4210   33.2680   37.3220 C   0  0  0  0  0  3  0  0  0  0  0  0
   42.3960   34.1610   38.4460 C   0  0  0  0  0  3  0  0  0  0  0  0
   40.7900   33.6430   39.3010 S   0  0  0  0  0  0  0  0  0  0  0  0
  1  2  1  0  0  0  0
  2  9  1  0  0  0  0
  2  3  2  0  0  0  0
  3  8  1  0  0  0  0
  4  3  1  0  0  0  0
  5  4  2  0  0  0  0
  6  1  2  0  0  0  0
  6  5  1  0  0  0  0
  7  1  1  0  0  0  0
  9 12  1  6  0  0  0
  9 10  1  0  0  0  0
  9 11  1  0  0  0  0
 10 11  1  0  0  0  0
 11 15  1  1  0  0  0
 11 16  1  0  0  0  0
 13 10  1  0  0  0  0
 14 10  1  0  0  0  0
 16 19  1  0  0  0  0
 16 18  1  0  0  0  0
 17 16  1  0  0  0  0
 20  5  1  0  0  0  0
 20 25  1  0  0  0  0
 21 23  1  0  0  0  0
 21 20  2  0  0  0  0
 22 21  1  0  0  0  0
 23 24  2  0  0  0  0
 24 25  1  0  0  0  0
M  END
>  <minimizedAffinity>
-4.53605318

$$$$

 OpenBabel03242520343D

 25 27  0  0  1  0  0  0  0  0999 V2000
   37.0160   27.2590   40.1420 C   0  0  0  0  0  0  0  0  0  0  0  0
   36.3150   28.0200   41.1350 C   0  0  0  0  0  0  0  0  0  0  0  0
   35.3920   28.9600   40.7180 C   0  0  0  0  0  0  0  0  0  0  0  0
   35.1920   29.1220   39.3760 N   0  0  0  0  0  0  0  0  0  0  0  0
   35.8580   28.4000   38.4740 C   0  0  0  0  0  0  0  0  0  0  0  0
   36.7550   27.4850   38.8500 N   0  0  0  0  0  0  0  0  0  0  0  0
   37.7310   26.5290   40.4730 H   0  0  0  0  0  0  0  0  0  0  0  0
   34.8930   29.5050   41.5070 H   0  0  0  0  0  0  0  0  0  0  0  0
   36.5880   27.8220   42.5970 C   0  0  1  0  0  0  0  0  0  0  0  0
   37.8320   27.2280   43.0330 C   0  0  0  0  0  0  0  0  0  0  0  0
   37.6640   28.6890   43.2380 C   0  0  1  0  0  0  0  0  0  0  0  0
   35.6820   27.7370   43.2360 H   0  0  0  0  0  0  0  0  0  0  0  0
   37.8970   26.5650   43.9330 H   0  0  0  0  0  0  0  0  0  0  0  0
   38.5960   26.9020   42.2720 H   0  0  0  0  0  0  0  0  0  0  0  0
   37.4880   29.0150   44.3000 H   0  0  0  0  0  0  0  0  0  0  0  0
   38.4200   29.6790   42.4310 C   0  0  0  0  0  0  0  0  0  0  0  0
   37.5860   30.5990   41.8160 F   0  0  0  0  0  0  0  0  0  0  0  0
   39.2050   29.0670   41.4560 F   0  0  0  0  0  0  0  0  0  0  0  0
   39.2350   30.3900   43.2810 F   0  0  0  0  0  0  0  0  0  0  0  0
   35.5240   28.6950   37.0590 C   0  0  0  0  0  0  0  0  0  0  0  0
   34.3930   28.9030   36.4260 C   0  0  0  0  0  0  0  0  0  0  0  0
   33.4950   28.8570   37.0270 H   0  0  0  0  0  0  0  0  0  0  0  0
   34.3760   29.1590   35.0880 C   0  0  0  0  0  3  0  0  0  0  0  0
   35.6630   29.1810   34.4520 C   0  0  0  0  0  3  0  0  0  0  0  0
   36.8090   28.8150   35.9120 S   0  0  0  0  0  0  0  0  0  0  0  0
  1  7  1  0  0  0  0
  1  2  1  0  0  0  0
  2  9  1  0  0  0  0
  3  2  2  0  0  0  0
  3  8  1  0  0  0  0
  4  3  1  0  0  0  0
  5  6  1  0  0  0  0
  5  4  2  0  0  0  0
  6  1  2  0  0  0  0
  9 10  1  0  0  0  0
  9 12  1  1  0  0  0
  9 11  1  0  0  0  0
 10 11  1  0  0  0  0
 10 13  1  0  0  0  0
 11 15  1  1  0  0  0
 14 10  1  0  0  0  0
 16 11  1  0  0  0  0
 16 19  1  0  0  0  0
 17 16  1  0  0  0  0
 18 16  1  0  0  0  0
 20  5  1  0  0  0  0
 21 22  1  0  0  0  0
 21 20  2  0  0  0  0
 23 21  1  0  0  0  0
 24 23  2  0  0  0  0
 24 25  1  0  0  0  0
 25 20  1  0  0  0  0
M  END
>  <minimizedAffinity>
-4.46796513

$$$$

 OpenBabel03242520343D

 25 27  0  0  1  0  0  0  0  0999 V2000
   39.1800   27.5970   41.3190 C   0  0  0  0  0  0  0  0  0  0  0  0
   37.9670   26.9750   41.7620 C   0  0  0  0  0  0  0  0  0  0  0  0
   36.8070   27.7250   41.7780 C   0  0  0  0  0  0  0  0  0  0  0  0
   36.8710   29.0290   41.3710 N   0  0  0  0  0  0  0  0  0  0  0  0
   38.0150   29.5820   40.9640 C   0  0  0  0  0  0  0  0  0  0  0  0
   39.1490   28.8790   40.9390 N   0  0  0  0  0  0  0  0  0  0  0  0
   40.0780   27.0080   41.3080 H   0  0  0  0  0  0  0  0  0  0  0  0
   35.9210   27.2080   42.1200 H   0  0  0  0  0  0  0  0  0  0  0  0
   37.9530   25.5460   42.2210 C   0  0  1  0  0  0  0  0  0  0  0  0
   36.7160   24.7970   42.2370 C   0  0  0  0  0  0  0  0  0  0  0  0
   37.6980   24.4710   41.1730 C   0  0  1  0  0  0  0  0  0  0  0  0
   38.7750   25.2690   42.9160 H   0  0  0  0  0  0  0  0  0  0  0  0
   36.4930   24.0250   43.0150 H   0  0  0  0  0  0  0  0  0  0  0  0
   35.7570   25.2910   41.9130 H   0  0  0  0  0  0  0  0  0  0  0  0
   38.2480   23.4980   41.2990 H   0  0  0  0  0  0  0  0  0  0  0  0
   37.4590   24.8360   39.7540 C   0  0  0  0  0  0  0  0  0  0  0  0
   38.5330   25.5140   39.2000 F   0  0  0  0  0  0  0  0  0  0  0  0
   36.3130   25.6150   39.6030 F   0  0  0  0  0  0  0  0  0  0  0  0
   37.3090   23.6740   39.0330 F   0  0  0  0  0  0  0  0  0  0  0  0
   37.9150   31.0040   40.5540 C   0  0  0  0  0  0  0  0  0  0  0  0
   37.0260   31.6830   39.8680 C   0  0  0  0  0  0  0  0  0  0  0  0
   36.1730   31.1240   39.5090 H   0  0  0  0  0  0  0  0  0  0  0  0
   37.1900   33.0150   39.6340 C   0  0  0  0  0  3  0  0  0  0  0  0
   38.3830   33.5920   40.1860 C   0  0  0  0  0  3  0  0  0  0  0  0
   39.1740   32.0900   41.0190 S   0  0  0  0  0  0  0  0  0  0  0  0
  1  2  1  0  0  0  0
  2  3  2  0  0  0  0
  2  9  1  0  0  0  0
  3  8  1  0  0  0  0
  4  3  1  0  0  0  0
  5  4  2  0  0  0  0
  6  5  1  0  0  0  0
  6  1  2  0  0  0  0
  7  1  1  0  0  0  0
  9 10  1  0  0  0  0
  9 12  1  1  0  0  0
 10 13  1  0  0  0  0
 11 15  1  1  0  0  0
 11  9  1  0  0  0  0
 11 10  1  0  0  0  0
 14 10  1  0  0  0  0
 16 11  1  0  0  0  0
 17 16  1  0  0  0  0
 18 16  1  0  0  0  0
 19 16  1  0  0  0  0
 20  5  1  0  0  0  0
 20 25  1  0  0  0  0
 21 20  2  0  0  0  0
 22 21  1  0  0  0  0
 23 21  1  0  0  0  0
 23 24  2  0  0  0  0
 24 25  1  0  0  0  0
M  END
>  <minimizedAffinity>
-4.41978788

$$$$

 OpenBabel03242520343D

 25 27  0  0  1  0  0  0  0  0999 V2000
   38.1280   29.5910   38.6750 C   0  0  0  0  0  0  0  0  0  0  0  0
   37.4400   30.6490   39.3540 C   0  0  0  0  0  0  0  0  0  0  0  0
   36.6690   30.3360   40.4580 C   0  0  0  0  0  0  0  0  0  0  0  0
   36.5980   29.0280   40.8490 N   0  0  0  0  0  0  0  0  0  0  0  0
   37.2480   28.0630   40.1970 C   0  0  0  0  0  0  0  0  0  0  0  0
   38.0000   28.3390   39.1290 N   0  0  0  0  0  0  0  0  0  0  0  0
   38.7260   29.8410   37.8190 H   0  0  0  0  0  0  0  0  0  0  0  0
   36.1730   31.1710   40.9330 H   0  0  0  0  0  0  0  0  0  0  0  0
   37.5320   32.0670   38.8710 C   0  0  1  0  0  0  0  0  0  0  0  0
   37.2390   33.1640   39.7670 C   0  0  0  0  0  0  0  0  0  0  0  0
   38.6630   32.9270   39.4190 C   0  0  1  0  0  0  0  0  0  0  0  0
   37.3980   32.1990   37.7750 H   0  0  0  0  0  0  0  0  0  0  0  0
   36.7530   34.1090   39.4180 H   0  0  0  0  0  0  0  0  0  0  0  0
   36.9300   32.9530   40.8300 H   0  0  0  0  0  0  0  0  0  0  0  0
   39.1220   33.6730   38.7130 H   0  0  0  0  0  0  0  0  0  0  0  0
   39.6240   32.3770   40.4080 C   0  0  0  0  0  0  0  0  0  0  0  0
   40.3330   31.2980   39.9030 F   0  0  0  0  0  0  0  0  0  0  0  0
   38.9920   31.9840   41.5860 F   0  0  0  0  0  0  0  0  0  0  0  0
   40.5460   33.3560   40.6980 F   0  0  0  0  0  0  0  0  0  0  0  0
   37.0680   26.6980   40.7490 C   0  0  0  0  0  0  0  0  0  0  0  0
   37.1380   26.2020   41.9620 C   0  0  0  0  0  0  0  0  0  0  0  0
   37.3740   26.9020   42.7510 H   0  0  0  0  0  0  0  0  0  0  0  0
   36.9210   24.8760   42.1900 C   0  0  0  0  0  3  0  0  0  0  0  0
   36.6200   24.0950   41.0240 C   0  0  0  0  0  3  0  0  0  0  0  0
   36.6830   25.4100   39.6660 S   0  0  0  0  0  0  0  0  0  0  0  0
  1  6  2  0  0  0  0
  1  2  1  0  0  0  0
  2  3  2  0  0  0  0
  3  4  1  0  0  0  0
  3  8  1  0  0  0  0
  5 20  1  0  0  0  0
  5  4  2  0  0  0  0
  6  5  1  0  0  0  0
  7  1  1  0  0  0  0
  9 12  1  6  0  0  0
  9  2  1  0  0  0  0
  9 11  1  0  0  0  0
  9 10  1  0  0  0  0
 10 14  1  0  0  0  0
 11 15  1  6  0  0  0
 11 10  1  0  0  0  0
 11 16  1  0  0  0  0
 13 10  1  0  0  0  0
 16 19  1  0  0  0  0
 16 18  1  0  0  0  0
 17 16  1  0  0  0  0
 20 21  2  0  0  0  0
 21 23  1  0  0  0  0
 21 22  1  0  0  0  0
 24 23  2  0  0  0  0
 25 20  1  0  0  0  0
 25 24  1  0  0  0  0
M  END
>  <minimizedAffinity>
-4.39030504

$$$$
