
 OpenBabel03242513043D

 32 35  0  0  0  0  0  0  0  0999 V2000
   45.9750   33.1880   41.6780 C   0  0  0  0  0  0  0  0  0  0  0  0
   47.1260   33.8860   41.3350 C   0  0  0  0  0  0  0  0  0  0  0  0
   48.1180   33.9630   42.3230 C   0  0  0  0  0  0  0  0  0  0  0  0
   47.8760   33.3590   43.5170 N   0  0  0  0  0  0  0  0  0  0  0  0
   46.7550   32.6950   43.8110 C   0  0  0  0  0  0  0  0  0  0  0  0
   45.7900   32.6070   42.8820 N   0  0  0  0  0  0  0  0  0  0  0  0
   45.1220   33.0330   41.0430 H   0  0  0  0  0  0  0  0  0  0  0  0
   46.9340   30.7780   45.3280 C   0  0  0  0  0  0  0  0  0  0  0  0
   46.6000   32.0910   45.1140 C   0  0  0  0  0  0  0  0  0  0  0  0
   46.0930   32.9160   46.1310 C   0  0  0  0  0  0  0  0  0  0  0  0
   45.9180   32.3940   47.4150 C   0  0  0  0  0  0  0  0  0  0  0  0
   45.4680   32.8730   48.6090 N   0  0  0  0  0  0  0  0  0  0  0  0
   45.5470   31.8250   49.5160 C   0  0  0  0  0  0  0  0  0  0  0  0
   46.0340   30.7520   48.8610 N   0  0  0  0  0  0  0  0  0  0  0  0
   46.2640   31.0800   47.5830 C   0  0  0  0  0  0  0  0  0  0  0  0
   46.7670   30.2410   46.6010 C   0  0  0  0  0  0  0  0  0  0  0  0
   47.3190   30.1880   44.5170 H   0  0  0  0  0  0  0  0  0  0  0  0
   45.8330   33.9370   45.9610 H   0  0  0  0  0  0  0  0  0  0  0  0
   45.1490   33.8630   48.7110 H   0  0  0  0  0  0  0  0  0  0  0  0
   45.2230   32.0410   50.5270 H   0  0  0  0  0  0  0  0  0  0  0  0
   47.0230   29.2080   46.7940 H   0  0  0  0  0  0  0  0  0  0  0  0
   49.3760   34.6950   42.0360 C   0  0  0  0  0  0  0  0  0  0  0  0
   49.1040   35.8280   41.2470 F   0  0  0  0  0  0  0  0  0  0  0  0
   49.9190   35.1830   43.2030 F   0  0  0  0  0  0  0  0  0  0  0  0
   50.2250   33.8540   41.3810 F   0  0  0  0  0  0  0  0  0  0  0  0
   47.2680   34.4520   40.1190 O   0  0  0  0  0  0  0  0  0  0  0  0
   47.5010   33.8400   38.9750 C   0  0  0  0  0  0  0  0  0  0  0  0
   48.3840   34.4150   38.1370 C   0  0  0  0  0  0  0  0  0  0  0  0
   48.9890   35.3380   38.2030 H   0  0  0  0  0  0  0  0  0  0  0  0
   48.6620   33.8200   36.9390 C   0  0  0  0  0  0  0  0  0  0  0  0
   48.0250   32.6400   36.6190 C   0  0  0  0  0  0  0  0  0  0  0  0
   46.9670   32.3060   38.0510 S   0  0  0  0  0  0  0  0  0  0  0  0
  1  6  1  0  0  0  0
  2  1  2  0  0  0  0
  2  3  1  0  0  0  0
  3  4  2  0  0  0  0
  4  5  1  0  0  0  0
  5  9  1  0  0  0  0
  6  5  2  0  0  0  0
  7  1  1  0  0  0  0
  8 16  1  0  0  0  0
  9  8  2  0  0  0  0
  9 10  1  0  0  0  0
 10 11  2  0  0  0  0
 11 15  1  0  0  0  0
 11 12  1  0  0  0  0
 12 19  1  0  0  0  0
 12 13  1  0  0  0  0
 13 20  1  0  0  0  0
 14 13  2  0  0  0  0
 15 14  1  0  0  0  0
 16 21  1  0  0  0  0
 16 15  2  0  0  0  0
 17  8  1  0  0  0  0
 18 10  1  0  0  0  0
 22  3  1  0  0  0  0
 22 24  1  0  0  0  0
 23 22  1  0  0  0  0
 25 22  1  0  0  0  0
 26  2  1  0  0  0  0
 27 26  1  0  0  0  0
 28 29  1  0  0  0  0
 28 27  2  0  0  0  0
 30 28  1  0  0  0  0
 31 30  2  0  0  0  0
 31 32  1  0  0  0  0
 32 27  1  0  0  0  0
M  END
>  <minimizedAffinity>
-6.16326094

>  <minimizedRMSD>
1.29417276

$$$$
