
 OpenBabel03242511063D

 24 26  0  0  1  0  0  0  0  0999 V2000
   46.1240   32.6450   45.6450 C   0  0  1  0  0  0  0  0  0  0  0  0
   46.9720   32.7440   46.8790 C   0  0  0  0  0  0  0  0  0  0  0  0
   45.4960   32.3400   46.9390 C   0  0  2  0  0  0  0  0  0  0  0  0
   46.3360   31.8090   44.9500 H   0  0  0  0  0  0  0  0  0  0  0  0
   47.7650   32.0010   46.9550 H   0  0  0  0  0  0  0  0  0  0  0  0
   47.2240   33.8190   47.1260 H   0  0  0  0  0  0  0  0  0  0  0  0
   44.8720   33.1700   47.4090 H   0  0  0  0  0  0  0  0  0  0  0  0
   44.5450   35.8940   44.7970 C   0  0  0  0  0  0  0  0  0  0  0  0
   45.0870   36.1440   43.4870 C   0  0  0  0  0  0  0  0  0  0  0  0
   45.9920   35.1790   42.9430 C   0  0  0  0  0  0  0  0  0  0  0  0
   46.2910   34.0960   43.6650 N   0  0  0  0  0  0  0  0  0  0  0  0
   45.7600   33.8880   44.9010 C   0  0  0  0  0  0  0  0  0  0  0  0
   44.8940   34.7830   45.4590 N   0  0  0  0  0  0  0  0  0  0  0  0
   43.8650   36.6410   45.1790 H   0  0  0  0  0  0  0  0  0  0  0  0
   44.8570   37.0000   42.9030 H   0  0  0  0  0  0  0  0  0  0  0  0
   46.3840   35.3920   41.9580 H   0  0  0  0  0  0  0  0  0  0  0  0
   45.2050   31.0150   47.3610 N   0  0  0  0  0  0  0  0  0  0  0  0
   45.1640   31.0940   48.4300 H   0  0  0  0  0  0  0  0  0  0  0  0
   44.9370   29.6880   47.1070 C   0  0  0  0  0  0  0  0  0  0  0  0
   45.0920   28.7080   48.0960 C   0  0  0  0  0  0  0  0  0  0  0  0
   45.3950   28.6320   49.1370 H   0  0  0  0  0  0  0  0  0  0  0  0
   44.8710   27.3740   48.0120 C   0  0  0  0  0  0  0  0  0  0  0  0
   44.4070   27.1000   46.5970 C   0  0  0  0  0  0  0  0  0  0  0  0
   44.3960   28.8170   45.7260 S   0  0  0  0  0  0  0  0  0  0  0  0
  1  4  1  6  0  0  0
  1  2  1  0  0  0  0
  1  3  1  0  0  0  0
  2  3  1  0  0  0  0
  2  5  1  0  0  0  0
  2  6  1  0  0  0  0
  3 17  1  0  0  0  0
  3  7  1  1  0  0  0
  8 14  1  0  0  0  0
  8 13  1  0  0  0  0
  9  8  2  0  0  0  0
 10  9  1  0  0  0  0
 10 11  2  0  0  0  0
 11 12  1  0  0  0  0
 12 13  2  0  0  0  0
 12  1  1  0  0  0  0
 15  9  1  0  0  0  0
 16 10  1  0  0  0  0
 17 18  1  0  0  0  0
 19 17  1  0  0  0  0
 19 20  2  0  0  0  0
 20 21  1  0  0  0  0
 22 20  1  0  0  0  0
 23 22  2  0  0  0  0
 24 23  1  0  0  0  0
 24 19  1  0  0  0  0
M  END
>  <minimizedAffinity>
-4.3498497

>  <minimizedRMSD>
1.45172918

$$$$
