
 OpenBabel03252500333D

 40 43  0  0  1  0  0  0  0  0999 V2000
   37.3920   29.6300   41.8190 N   0  0  0  0  0  0  0  0  0  0  0  0
   38.1860   29.5120   42.9850 C   0  0  0  0  0  0  0  0  0  0  0  0
   38.9880   28.2110   43.0140 C   0  0  0  0  0  0  0  0  0  0  0  0
   37.9530   27.0990   43.1200 C   0  0  0  0  0  0  0  0  0  0  0  0
   37.1620   27.1670   41.8340 C   0  0  0  0  0  0  0  0  0  0  0  0
   36.5690   28.5210   41.6020 C   0  0  2  0  0  0  0  0  0  0  0  0
   37.4130   29.3500   43.8050 H   0  0  0  0  0  0  0  0  0  0  0  0
   38.7070   30.3830   43.3360 H   0  0  0  0  0  0  0  0  0  0  0  0
   39.5320   28.1150   42.0600 H   0  0  0  0  0  0  0  0  0  0  0  0
   39.6270   28.1600   43.8920 H   0  0  0  0  0  0  0  0  0  0  0  0
   38.4180   26.1000   43.1700 H   0  0  0  0  0  0  0  0  0  0  0  0
   37.3080   27.2650   44.0060 H   0  0  0  0  0  0  0  0  0  0  0  0
   37.9000   26.9710   41.0040 H   0  0  0  0  0  0  0  0  0  0  0  0
   36.3810   26.4100   41.7460 H   0  0  0  0  0  0  0  0  0  0  0  0
   35.7910   28.5860   42.4320 H   0  0  0  0  0  0  0  0  0  0  0  0
   35.7760   28.5210   40.3800 C   0  0  0  0  0  0  0  0  0  0  0  0
   34.7270   29.1670   39.8820 C   0  0  0  0  0  0  0  0  0  0  0  0
   34.3300   29.9070   40.5630 H   0  0  0  0  0  0  0  0  0  0  0  0
   34.2340   28.9050   38.6560 C   0  0  0  0  0  3  0  0  0  0  0  0
   34.8940   27.8990   37.9180 C   0  0  0  0  0  3  0  0  0  0  0  0
   36.2780   27.3300   39.0690 S   0  0  0  0  0  0  0  0  0  0  0  0
   37.9830   30.3090   40.7180 C   0  0  0  0  0  0  0  0  0  0  0  0
   37.8390   29.8000   39.7490 H   0  0  0  0  0  0  0  0  0  0  0  0
   39.0930   30.3960   40.8870 H   0  0  0  0  0  0  0  0  0  0  0  0
   38.1300   32.8070   39.9630 C   0  0  1  0  0  0  0  0  0  0  0  0
   37.0240   32.2190   39.3060 C   0  0  0  0  0  0  0  0  0  0  0  0
   37.3570   31.6580   40.6460 C   0  0  1  0  0  0  0  0  0  0  0  0
   38.0200   33.8210   40.4290 H   0  0  0  0  0  0  0  0  0  0  0  0
   36.0610   32.7460   39.1970 H   0  0  0  0  0  0  0  0  0  0  0  0
   37.1860   31.5140   38.4470 H   0  0  0  0  0  0  0  0  0  0  0  0
   36.9180   32.0280   41.5790 H   0  0  0  0  0  0  0  0  0  0  0  0
   40.5200   32.8270   40.6660 C   0  0  0  0  0  0  0  0  0  0  0  0
   39.5610   32.5560   39.6470 C   0  0  0  0  0  0  0  0  0  0  0  0
   39.9920   32.0860   38.4330 C   0  0  0  0  0  0  0  0  0  0  0  0
   41.3360   31.9010   38.2640 N   0  0  0  0  0  0  0  0  0  0  0  0
   42.2350   32.1670   39.2530 C   0  0  0  0  0  0  0  0  0  0  0  0
   41.8450   32.6360   40.4770 N   0  0  0  0  0  0  0  0  0  0  0  0
   40.1610   33.1950   41.6130 H   0  0  0  0  0  0  0  0  0  0  0  0
   39.2790   31.8800   37.6600 H   0  0  0  0  0  0  0  0  0  0  0  0
   43.2860   31.9750   38.9890 H   0  0  0  0  0  0  0  0  0  0  0  0
  1  2  1  0  0  0  0
  2  3  1  0  0  0  0
  2  8  1  0  0  0  0
  2  7  1  0  0  0  0
  3  4  1  0  0  0  0
  3 10  1  0  0  0  0
  4 11  1  0  0  0  0
  4 12  1  0  0  0  0
  5  4  1  0  0  0  0
  6  1  1  0  0  0  0
  6  5  1  0  0  0  0
  6 15  1  1  0  0  0
  9  3  1  0  0  0  0
 13  5  1  0  0  0  0
 14  5  1  0  0  0  0
 16  6  1  0  0  0  0
 17 16  2  0  0  0  0
 17 18  1  0  0  0  0
 19 17  1  0  0  0  0
 20 19  2  0  0  0  0
 20 21  1  0  0  0  0
 21 16  1  0  0  0  0
 22 24  1  0  0  0  0
 22  1  1  0  0  0  0
 23 22  1  0  0  0  0
 25 28  1  1  0  0  0
 25 27  1  0  0  0  0
 26 25  1  0  0  0  0
 26 27  1  0  0  0  0
 27 22  1  0  0  0  0
 27 31  1  1  0  0  0
 29 26  1  0  0  0  0
 30 26  1  0  0  0  0
 32 38  1  0  0  0  0
 33 25  1  0  0  0  0
 33 32  2  0  0  0  0
 34 33  1  0  0  0  0
 35 34  2  0  0  0  0
 35 36  1  0  0  0  0
 36 37  2  0  0  0  0
 37 32  1  0  0  0  0
 39 34  1  0  0  0  0
 40 36  1  0  0  0  0
M  END
>  <minimizedAffinity>
-5.24089336

$$$$

 OpenBabel03252500333D

 40 43  0  0  1  0  0  0  0  0999 V2000
   38.0900   28.2150   42.3180 N   0  0  0  0  0  0  0  0  0  0  0  0
   38.7560   29.3410   42.8620 C   0  0  0  0  0  0  0  0  0  0  0  0
   40.2350   29.3830   42.4810 C   0  0  0  0  0  0  0  0  0  0  0  0
   40.8640   28.1770   43.1660 C   0  0  0  0  0  0  0  0  0  0  0  0
   40.2190   26.9710   42.5220 C   0  0  0  0  0  0  0  0  0  0  0  0
   38.7260   27.0070   42.6170 C   0  0  2  0  0  0  0  0  0  0  0  0
   38.7890   29.1050   43.9750 H   0  0  0  0  0  0  0  0  0  0  0  0
   38.2490   30.2870   42.8470 H   0  0  0  0  0  0  0  0  0  0  0  0
   40.3180   29.2660   41.3880 H   0  0  0  0  0  0  0  0  0  0  0  0
   40.7180   30.2770   42.8670 H   0  0  0  0  0  0  0  0  0  0  0  0
   41.9500   28.1090   42.9800 H   0  0  0  0  0  0  0  0  0  0  0  0
   40.6650   28.2130   44.2560 H   0  0  0  0  0  0  0  0  0  0  0  0
   40.4930   27.0190   41.4300 H   0  0  0  0  0  0  0  0  0  0  0  0
   40.5830   26.0120   42.8970 H   0  0  0  0  0  0  0  0  0  0  0  0
   38.5550   26.8720   43.7360 H   0  0  0  0  0  0  0  0  0  0  0  0
   38.1550   25.8010   42.0300 C   0  0  0  0  0  0  0  0  0  0  0  0
   37.0250   25.1070   42.1010 C   0  0  0  0  0  0  0  0  0  0  0  0
   36.3100   25.5400   42.7870 H   0  0  0  0  0  0  0  0  0  0  0  0
   36.8210   23.9870   41.3810 C   0  0  0  0  0  3  0  0  0  0  0  0
   37.8780   23.5820   40.5390 C   0  0  0  0  0  3  0  0  0  0  0  0
   39.2060   24.8940   40.8210 S   0  0  0  0  0  0  0  0  0  0  0  0
   37.4620   28.4010   41.0570 C   0  0  0  0  0  0  0  0  0  0  0  0
   37.2530   27.4590   40.5190 H   0  0  0  0  0  0  0  0  0  0  0  0
   38.1310   29.0200   40.3950 H   0  0  0  0  0  0  0  0  0  0  0  0
   35.8190   30.3400   40.4510 C   0  0  1  0  0  0  0  0  0  0  0  0
   35.1480   29.1150   40.2250 C   0  0  0  0  0  0  0  0  0  0  0  0
   36.1750   29.1050   41.3050 C   0  0  1  0  0  0  0  0  0  0  0  0
   35.2860   31.1710   40.9830 H   0  0  0  0  0  0  0  0  0  0  0  0
   34.0950   28.9620   40.5190 H   0  0  0  0  0  0  0  0  0  0  0  0
   35.4010   28.4880   39.3290 H   0  0  0  0  0  0  0  0  0  0  0  0
   35.9450   29.3180   42.3550 H   0  0  0  0  0  0  0  0  0  0  0  0
   36.9300   30.5290   38.2290 C   0  0  0  0  0  0  0  0  0  0  0  0
   36.9030   30.9030   39.6040 C   0  0  0  0  0  0  0  0  0  0  0  0
   37.8670   31.7520   40.0840 C   0  0  0  0  0  0  0  0  0  0  0  0
   38.8150   32.1990   39.2050 N   0  0  0  0  0  0  0  0  0  0  0  0
   38.8210   31.8280   37.8940 C   0  0  0  0  0  0  0  0  0  0  0  0
   37.8770   30.9830   37.3780 N   0  0  0  0  0  0  0  0  0  0  0  0
   36.1640   29.8610   37.8720 H   0  0  0  0  0  0  0  0  0  0  0  0
   37.8560   32.0380   41.1160 H   0  0  0  0  0  0  0  0  0  0  0  0
   39.6370   32.2580   37.2940 H   0  0  0  0  0  0  0  0  0  0  0  0
  1  6  1  0  0  0  0
  1  2  1  0  0  0  0
  2  7  1  0  0  0  0
  3  2  1  0  0  0  0
  3 10  1  0  0  0  0
  3  4  1  0  0  0  0
  4 12  1  0  0  0  0
  5  6  1  0  0  0  0
  5 14  1  0  0  0  0
  5  4  1  0  0  0  0
  6 15  1  1  0  0  0
  8  2  1  0  0  0  0
  9  3  1  0  0  0  0
 11  4  1  0  0  0  0
 13  5  1  0  0  0  0
 16 17  2  0  0  0  0
 16  6  1  0  0  0  0
 17 18  1  0  0  0  0
 19 17  1  0  0  0  0
 20 21  1  0  0  0  0
 20 19  2  0  0  0  0
 21 16  1  0  0  0  0
 22 27  1  0  0  0  0
 22  1  1  0  0  0  0
 23 22  1  0  0  0  0
 24 22  1  0  0  0  0
 25 28  1  1  0  0  0
 25 27  1  0  0  0  0
 26 25  1  0  0  0  0
 26 29  1  0  0  0  0
 26 27  1  0  0  0  0
 27 31  1  1  0  0  0
 30 26  1  0  0  0  0
 32 33  1  0  0  0  0
 33 34  2  0  0  0  0
 33 25  1  0  0  0  0
 34 39  1  0  0  0  0
 35 34  1  0  0  0  0
 36 35  2  0  0  0  0
 37 36  1  0  0  0  0
 37 32  2  0  0  0  0
 38 32  1  0  0  0  0
 40 36  1  0  0  0  0
M  END
>  <minimizedAffinity>
-5.17918634

$$$$

 OpenBabel03252500333D

 40 43  0  0  1  0  0  0  0  0999 V2000
   38.9910   31.2990   39.4570 N   0  0  0  0  0  0  0  0  0  0  0  0
   39.9100   32.3780   39.4490 C   0  0  0  0  0  0  0  0  0  0  0  0
   39.5260   33.4780   40.4380 C   0  0  0  0  0  0  0  0  0  0  0  0
   38.2220   34.0600   39.9100 C   0  0  0  0  0  0  0  0  0  0  0  0
   37.2170   32.9340   40.0030 C   0  0  0  0  0  0  0  0  0  0  0  0
   37.6670   31.7070   39.2740 C   0  0  2  0  0  0  0  0  0  0  0  0
   39.7190   32.8680   38.4400 H   0  0  0  0  0  0  0  0  0  0  0  0
   40.9580   32.1520   39.3940 H   0  0  0  0  0  0  0  0  0  0  0  0
   39.3480   33.0150   41.4220 H   0  0  0  0  0  0  0  0  0  0  0  0
   40.2670   34.2730   40.4510 H   0  0  0  0  0  0  0  0  0  0  0  0
   37.8490   34.8870   40.5370 H   0  0  0  0  0  0  0  0  0  0  0  0
   38.3540   34.4020   38.8640 H   0  0  0  0  0  0  0  0  0  0  0  0
   37.1430   32.6730   41.0980 H   0  0  0  0  0  0  0  0  0  0  0  0
   36.2100   33.2010   39.6750 H   0  0  0  0  0  0  0  0  0  0  0  0
   37.6300   32.0490   38.1870 H   0  0  0  0  0  0  0  0  0  0  0  0
   36.6450   30.6720   39.3490 C   0  0  0  0  0  0  0  0  0  0  0  0
   35.7680   30.2100   40.2340 C   0  0  0  0  0  0  0  0  0  0  0  0
   35.8080   30.7370   41.1770 H   0  0  0  0  0  0  0  0  0  0  0  0
   34.9300   29.1930   39.9550 C   0  0  0  0  0  3  0  0  0  0  0  0
   35.0310   28.6350   38.6630 C   0  0  0  0  0  3  0  0  0  0  0  0
   36.4000   29.6430   37.8420 S   0  0  0  0  0  0  0  0  0  0  0  0
   39.2930   30.2190   40.3300 C   0  0  0  0  0  0  0  0  0  0  0  0
   40.0980   29.5580   39.9610 H   0  0  0  0  0  0  0  0  0  0  0  0
   38.3750   29.5820   40.4670 H   0  0  0  0  0  0  0  0  0  0  0  0
   39.5260   29.9900   42.9230 C   0  0  1  0  0  0  0  0  0  0  0  0
   40.8230   30.1510   42.3830 C   0  0  0  0  0  0  0  0  0  0  0  0
   39.7190   30.8090   41.6290 C   0  0  1  0  0  0  0  0  0  0  0  0
   39.2310   30.5710   43.8360 H   0  0  0  0  0  0  0  0  0  0  0  0
   41.5770   30.8030   42.8580 H   0  0  0  0  0  0  0  0  0  0  0  0
   41.3210   29.3020   41.8440 H   0  0  0  0  0  0  0  0  0  0  0  0
   39.3990   31.8420   41.8090 H   0  0  0  0  0  0  0  0  0  0  0  0
   39.3440   27.5450   42.4800 C   0  0  0  0  0  0  0  0  0  0  0  0
   38.6900   28.7640   42.8210 C   0  0  0  0  0  0  0  0  0  0  0  0
   37.3360   28.7590   43.0330 C   0  0  0  0  0  0  0  0  0  0  0  0
   36.6770   27.5660   42.9050 N   0  0  0  0  0  0  0  0  0  0  0  0
   37.3240   26.4120   42.5780 C   0  0  0  0  0  0  0  0  0  0  0  0
   38.6730   26.3780   42.3590 N   0  0  0  0  0  0  0  0  0  0  0  0
   40.4090   27.5710   42.3170 H   0  0  0  0  0  0  0  0  0  0  0  0
   36.8340   29.6700   43.2890 H   0  0  0  0  0  0  0  0  0  0  0  0
   36.6790   25.5230   42.5070 H   0  0  0  0  0  0  0  0  0  0  0  0
  1 22  1  0  0  0  0
  2  1  1  0  0  0  0
  2  3  1  0  0  0  0
  3 10  1  0  0  0  0
  3  9  1  0  0  0  0
  4  5  1  0  0  0  0
  4  3  1  0  0  0  0
  4 11  1  0  0  0  0
  5 13  1  0  0  0  0
  6 15  1  6  0  0  0
  6 16  1  0  0  0  0
  6  1  1  0  0  0  0
  6  5  1  0  0  0  0
  7  2  1  0  0  0  0
  8  2  1  0  0  0  0
 12  4  1  0  0  0  0
 14  5  1  0  0  0  0
 16 17  2  0  0  0  0
 17 18  1  0  0  0  0
 19 17  1  0  0  0  0
 20 19  2  0  0  0  0
 21 20  1  0  0  0  0
 21 16  1  0  0  0  0
 22 24  1  0  0  0  0
 22 27  1  0  0  0  0
 23 22  1  0  0  0  0
 25 28  1  1  0  0  0
 26 29  1  0  0  0  0
 26 25  1  0  0  0  0
 27 31  1  1  0  0  0
 27 26  1  0  0  0  0
 27 25  1  0  0  0  0
 30 26  1  0  0  0  0
 32 33  1  0  0  0  0
 33 25  1  0  0  0  0
 33 34  2  0  0  0  0
 34 39  1  0  0  0  0
 35 34  1  0  0  0  0
 36 35  2  0  0  0  0
 37 32  2  0  0  0  0
 37 36  1  0  0  0  0
 38 32  1  0  0  0  0
 40 36  1  0  0  0  0
M  END
>  <minimizedAffinity>
-5.17365789

$$$$

 OpenBabel03252500333D

 40 43  0  0  1  0  0  0  0  0999 V2000
   36.4400   29.5580   40.1440 N   0  0  0  0  0  0  0  0  0  0  0  0
   35.5010   28.5680   39.7650 C   0  0  0  0  0  0  0  0  0  0  0  0
   35.7660   28.0210   38.3630 C   0  0  0  0  0  0  0  0  0  0  0  0
   35.5170   29.1900   37.4190 C   0  0  0  0  0  0  0  0  0  0  0  0
   36.5770   30.2120   37.7620 C   0  0  0  0  0  0  0  0  0  0  0  0
   36.5530   30.5910   39.2100 C   0  0  2  0  0  0  0  0  0  0  0  0
   34.5430   29.1650   39.6260 H   0  0  0  0  0  0  0  0  0  0  0  0
   35.2080   27.8390   40.4970 H   0  0  0  0  0  0  0  0  0  0  0  0
   36.8240   27.7190   38.2990 H   0  0  0  0  0  0  0  0  0  0  0  0
   35.0660   27.2300   38.1080 H   0  0  0  0  0  0  0  0  0  0  0  0
   35.6590   28.9100   36.3610 H   0  0  0  0  0  0  0  0  0  0  0  0
   34.4970   29.5930   37.5740 H   0  0  0  0  0  0  0  0  0  0  0  0
   37.5670   29.7140   37.5570 H   0  0  0  0  0  0  0  0  0  0  0  0
   36.5460   31.1160   37.1510 H   0  0  0  0  0  0  0  0  0  0  0  0
   35.5640   31.1510   39.2930 H   0  0  0  0  0  0  0  0  0  0  0  0
   37.5560   31.6140   39.4800 C   0  0  0  0  0  0  0  0  0  0  0  0
   37.7200   32.6450   40.3010 C   0  0  0  0  0  0  0  0  0  0  0  0
   36.8810   32.7860   40.9680 H   0  0  0  0  0  0  0  0  0  0  0  0
   38.8270   33.4120   40.2810 C   0  0  0  0  0  3  0  0  0  0  0  0
   39.8140   33.0640   39.3350 C   0  0  0  0  0  3  0  0  0  0  0  0
   39.0840   31.5630   38.4540 S   0  0  0  0  0  0  0  0  0  0  0  0
   37.5860   29.1040   40.8520 C   0  0  0  0  0  0  0  0  0  0  0  0
   38.5330   29.5570   40.5070 H   0  0  0  0  0  0  0  0  0  0  0  0
   37.6850   27.9890   40.7250 H   0  0  0  0  0  0  0  0  0  0  0  0
   37.6950   28.3920   43.3640 C   0  0  1  0  0  0  0  0  0  0  0  0
   38.5740   29.4860   43.1840 C   0  0  0  0  0  0  0  0  0  0  0  0
   37.3850   29.4520   42.2850 C   0  0  1  0  0  0  0  0  0  0  0  0
   37.0090   28.3750   44.2510 H   0  0  0  0  0  0  0  0  0  0  0  0
   38.6380   30.3110   43.9150 H   0  0  0  0  0  0  0  0  0  0  0  0
   39.5590   29.3410   42.6670 H   0  0  0  0  0  0  0  0  0  0  0  0
   36.4340   29.9390   42.5260 H   0  0  0  0  0  0  0  0  0  0  0  0
   39.2810   26.5510   42.8150 C   0  0  0  0  0  0  0  0  0  0  0  0
   37.9320   27.0030   42.8890 C   0  0  0  0  0  0  0  0  0  0  0  0
   36.9210   26.1530   42.5200 C   0  0  0  0  0  0  0  0  0  0  0  0
   37.2690   24.8990   42.0960 N   0  0  0  0  0  0  0  0  0  0  0  0
   38.5670   24.4880   42.0340 C   0  0  0  0  0  0  0  0  0  0  0  0
   39.6010   25.3070   42.3930 N   0  0  0  0  0  0  0  0  0  0  0  0
   40.0600   27.2350   43.1090 H   0  0  0  0  0  0  0  0  0  0  0  0
   35.9040   26.4830   42.5720 H   0  0  0  0  0  0  0  0  0  0  0  0
   38.7110   23.4580   41.6760 H   0  0  0  0  0  0  0  0  0  0  0  0
  1 22  1  0  0  0  0
  2  1  1  0  0  0  0
  2  8  1  0  0  0  0
  3  2  1  0  0  0  0
  4 12  1  0  0  0  0
  4  5  1  0  0  0  0
  4  3  1  0  0  0  0
  5  6  1  0  0  0  0
  6 15  1  1  0  0  0
  6 16  1  0  0  0  0
  6  1  1  0  0  0  0
  7  2  1  0  0  0  0
  9  3  1  0  0  0  0
 10  3  1  0  0  0  0
 11  4  1  0  0  0  0
 13  5  1  0  0  0  0
 14  5  1  0  0  0  0
 16 17  2  0  0  0  0
 17 18  1  0  0  0  0
 19 17  1  0  0  0  0
 20 19  2  0  0  0  0
 21 20  1  0  0  0  0
 21 16  1  0  0  0  0
 22 27  1  0  0  0  0
 23 22  1  0  0  0  0
 24 22  1  0  0  0  0
 25 28  1  1  0  0  0
 26 25  1  0  0  0  0
 26 29  1  0  0  0  0
 27 31  1  1  0  0  0
 27 26  1  0  0  0  0
 27 25  1  0  0  0  0
 30 26  1  0  0  0  0
 32 33  1  0  0  0  0
 32 38  1  0  0  0  0
 33 25  1  0  0  0  0
 34 39  1  0  0  0  0
 34 33  2  0  0  0  0
 35 34  1  0  0  0  0
 36 35  2  0  0  0  0
 36 37  1  0  0  0  0
 37 32  2  0  0  0  0
 40 36  1  0  0  0  0
M  END
>  <minimizedAffinity>
-5.15901661

$$$$

 OpenBabel03252500333D

 40 43  0  0  1  0  0  0  0  0999 V2000
   37.1460   25.7290   41.3560 N   0  0  0  0  0  0  0  0  0  0  0  0
   37.3120   24.4620   41.9670 C   0  0  0  0  0  0  0  0  0  0  0  0
   38.1860   23.5240   41.1350 C   0  0  0  0  0  0  0  0  0  0  0  0
   37.3940   23.2540   39.8630 C   0  0  0  0  0  0  0  0  0  0  0  0
   37.2940   24.5910   39.1640 C   0  0  0  0  0  0  0  0  0  0  0  0
   36.6900   25.6450   40.0370 C   0  0  2  0  0  0  0  0  0  0  0  0
   36.2780   23.9960   41.8710 H   0  0  0  0  0  0  0  0  0  0  0  0
   37.4760   24.4270   43.0270 H   0  0  0  0  0  0  0  0  0  0  0  0
   39.1190   24.0520   40.8790 H   0  0  0  0  0  0  0  0  0  0  0  0
   38.3400   22.5750   41.6420 H   0  0  0  0  0  0  0  0  0  0  0  0
   37.9200   22.5640   39.1820 H   0  0  0  0  0  0  0  0  0  0  0  0
   36.3930   22.8510   40.1170 H   0  0  0  0  0  0  0  0  0  0  0  0
   38.3530   24.9030   38.9370 H   0  0  0  0  0  0  0  0  0  0  0  0
   36.7620   24.5620   38.2110 H   0  0  0  0  0  0  0  0  0  0  0  0
   35.6130   25.2830   40.1390 H   0  0  0  0  0  0  0  0  0  0  0  0
   36.5670   26.8990   39.3040 C   0  0  0  0  0  0  0  0  0  0  0  0
   35.7240   27.9220   39.2280 C   0  0  0  0  0  0  0  0  0  0  0  0
   34.8760   27.8140   39.8900 H   0  0  0  0  0  0  0  0  0  0  0  0
   35.9320   28.9680   38.4060 C   0  0  0  0  0  3  0  0  0  0  0  0
   37.1020   28.9230   37.6190 C   0  0  0  0  0  3  0  0  0  0  0  0
   37.9140   27.2910   38.1110 S   0  0  0  0  0  0  0  0  0  0  0  0
   38.0770   26.7370   41.7280 C   0  0  0  0  0  0  0  0  0  0  0  0
   37.9460   27.6900   41.1850 H   0  0  0  0  0  0  0  0  0  0  0  0
   39.1230   26.3750   41.5170 H   0  0  0  0  0  0  0  0  0  0  0  0
   37.7160   28.4390   43.6770 C   0  0  1  0  0  0  0  0  0  0  0  0
   36.6030   27.5660   43.6510 C   0  0  0  0  0  0  0  0  0  0  0  0
   37.8950   26.9880   43.1840 C   0  0  1  0  0  0  0  0  0  0  0  0
   38.1980   28.6900   44.6590 H   0  0  0  0  0  0  0  0  0  0  0  0
   36.1620   27.1540   44.5750 H   0  0  0  0  0  0  0  0  0  0  0  0
   35.8190   27.6730   42.8550 H   0  0  0  0  0  0  0  0  0  0  0  0
   38.5960   26.4690   43.8470 H   0  0  0  0  0  0  0  0  0  0  0  0
   39.3110   30.0640   42.6670 C   0  0  0  0  0  0  0  0  0  0  0  0
   37.9940   29.5190   42.6940 C   0  0  0  0  0  0  0  0  0  0  0  0
   37.0510   30.0100   41.8300 C   0  0  0  0  0  0  0  0  0  0  0  0
   37.4300   31.0090   40.9750 N   0  0  0  0  0  0  0  0  0  0  0  0
   38.6950   31.5150   40.9660 C   0  0  0  0  0  0  0  0  0  0  0  0
   39.6640   31.0510   41.8130 N   0  0  0  0  0  0  0  0  0  0  0  0
   40.0380   29.6650   43.3540 H   0  0  0  0  0  0  0  0  0  0  0  0
   36.0580   29.6080   41.8430 H   0  0  0  0  0  0  0  0  0  0  0  0
   38.8700   32.3150   40.2310 H   0  0  0  0  0  0  0  0  0  0  0  0
  1 22  1  0  0  0  0
  1  2  1  0  0  0  0
  2  8  1  0  0  0  0
  3 10  1  0  0  0  0
  3  2  1  0  0  0  0
  4 12  1  0  0  0  0
  4  3  1  0  0  0  0
  5  4  1  0  0  0  0
  5  6  1  0  0  0  0
  6 15  1  1  0  0  0
  6  1  1  0  0  0  0
  7  2  1  0  0  0  0
  9  3  1  0  0  0  0
 11  4  1  0  0  0  0
 13  5  1  0  0  0  0
 14  5  1  0  0  0  0
 16  6  1  0  0  0  0
 17 16  2  0  0  0  0
 17 18  1  0  0  0  0
 19 17  1  0  0  0  0
 20 21  1  0  0  0  0
 20 19  2  0  0  0  0
 21 16  1  0  0  0  0
 22 27  1  0  0  0  0
 23 22  1  0  0  0  0
 24 22  1  0  0  0  0
 25 28  1  1  0  0  0
 26 25  1  0  0  0  0
 26 29  1  0  0  0  0
 27 26  1  0  0  0  0
 27 25  1  0  0  0  0
 27 31  1  1  0  0  0
 30 26  1  0  0  0  0
 32 33  1  0  0  0  0
 32 38  1  0  0  0  0
 33 25  1  0  0  0  0
 34 39  1  0  0  0  0
 34 33  2  0  0  0  0
 35 34  1  0  0  0  0
 36 35  2  0  0  0  0
 36 37  1  0  0  0  0
 37 32  2  0  0  0  0
 40 36  1  0  0  0  0
M  END
>  <minimizedAffinity>
-5.12069893

$$$$

 OpenBabel03252500333D

 40 43  0  0  1  0  0  0  0  0999 V2000
   36.9350   28.7720   41.0230 N   0  0  0  0  0  0  0  0  0  0  0  0
   36.9570   29.6280   42.1510 C   0  0  0  0  0  0  0  0  0  0  0  0
   38.0740   29.2730   43.1310 C   0  0  0  0  0  0  0  0  0  0  0  0
   37.7110   27.8990   43.6790 C   0  0  0  0  0  0  0  0  0  0  0  0
   37.7760   26.9660   42.4910 C   0  0  0  0  0  0  0  0  0  0  0  0
   36.8990   27.4170   41.3650 C   0  0  2  0  0  0  0  0  0  0  0  0
   36.0180   29.3260   42.7190 H   0  0  0  0  0  0  0  0  0  0  0  0
   36.7970   30.6780   41.9950 H   0  0  0  0  0  0  0  0  0  0  0  0
   39.0210   29.2030   42.5710 H   0  0  0  0  0  0  0  0  0  0  0  0
   38.1050   29.9690   43.9650 H   0  0  0  0  0  0  0  0  0  0  0  0
   38.4420   27.5380   44.4210 H   0  0  0  0  0  0  0  0  0  0  0  0
   36.6960   27.9240   44.1230 H   0  0  0  0  0  0  0  0  0  0  0  0
   38.8420   27.0010   42.1260 H   0  0  0  0  0  0  0  0  0  0  0  0
   37.5560   25.9230   42.7250 H   0  0  0  0  0  0  0  0  0  0  0  0
   35.8560   27.2690   41.8010 H   0  0  0  0  0  0  0  0  0  0  0  0
   36.9560   26.4610   40.2670 C   0  0  0  0  0  0  0  0  0  0  0  0
   36.2060   26.0970   39.2320 C   0  0  0  0  0  0  0  0  0  0  0  0
   35.2820   26.6560   39.1680 H   0  0  0  0  0  0  0  0  0  0  0  0
   36.5840   25.1330   38.3720 C   0  0  0  0  0  3  0  0  0  0  0  0
   37.8300   24.5200   38.6260 C   0  0  0  0  0  3  0  0  0  0  0  0
   38.4540   25.3950   40.1770 S   0  0  0  0  0  0  0  0  0  0  0  0
   37.6740   29.2040   39.8880 C   0  0  0  0  0  0  0  0  0  0  0  0
   38.2110   28.3900   39.3680 H   0  0  0  0  0  0  0  0  0  0  0  0
   38.4450   29.9590   40.2100 H   0  0  0  0  0  0  0  0  0  0  0  0
   36.9490   31.2600   38.4470 C   0  0  1  0  0  0  0  0  0  0  0  0
   37.1740   30.1730   37.5700 C   0  0  0  0  0  0  0  0  0  0  0  0
   36.7040   29.8180   38.9400 C   0  0  1  0  0  0  0  0  0  0  0  0
   36.0360   31.8980   38.3130 H   0  0  0  0  0  0  0  0  0  0  0  0
   36.4990   29.9540   36.7250 H   0  0  0  0  0  0  0  0  0  0  0  0
   38.2210   29.8450   37.3320 H   0  0  0  0  0  0  0  0  0  0  0  0
   35.6470   29.7050   39.2020 H   0  0  0  0  0  0  0  0  0  0  0  0
   39.3130   32.0340   38.5910 C   0  0  0  0  0  0  0  0  0  0  0  0
   38.0020   32.0380   39.1510 C   0  0  0  0  0  0  0  0  0  0  0  0
   37.7710   32.7450   40.3030 C   0  0  0  0  0  0  0  0  0  0  0  0
   38.8240   33.4180   40.8590 N   0  0  0  0  0  0  0  0  0  0  0  0
   40.0700   33.4000   40.3050 C   0  0  0  0  0  0  0  0  0  0  0  0
   40.3390   32.7070   39.1570 N   0  0  0  0  0  0  0  0  0  0  0  0
   39.4740   31.4730   37.6860 H   0  0  0  0  0  0  0  0  0  0  0  0
   36.7900   32.7540   40.7330 H   0  0  0  0  0  0  0  0  0  0  0  0
   40.8280   33.9820   40.8500 H   0  0  0  0  0  0  0  0  0  0  0  0
  1  6  1  0  0  0  0
  1  2  1  0  0  0  0
  2  7  1  0  0  0  0
  2  3  1  0  0  0  0
  3  4  1  0  0  0  0
  3 10  1  0  0  0  0
  4 12  1  0  0  0  0
  4 11  1  0  0  0  0
  5 14  1  0  0  0  0
  5  4  1  0  0  0  0
  6 15  1  1  0  0  0
  6  5  1  0  0  0  0
  8  2  1  0  0  0  0
  9  3  1  0  0  0  0
 13  5  1  0  0  0  0
 16  6  1  0  0  0  0
 17 16  2  0  0  0  0
 18 17  1  0  0  0  0
 19 20  2  0  0  0  0
 19 17  1  0  0  0  0
 20 21  1  0  0  0  0
 21 16  1  0  0  0  0
 22 24  1  0  0  0  0
 22  1  1  0  0  0  0
 23 22  1  0  0  0  0
 25 28  1  6  0  0  0
 25 27  1  0  0  0  0
 25 33  1  0  0  0  0
 26 25  1  0  0  0  0
 26 27  1  0  0  0  0
 27 31  1  1  0  0  0
 27 22  1  0  0  0  0
 29 26  1  0  0  0  0
 30 26  1  0  0  0  0
 32 33  2  0  0  0  0
 32 37  1  0  0  0  0
 33 34  1  0  0  0  0
 34 39  1  0  0  0  0
 34 35  2  0  0  0  0
 36 40  1  0  0  0  0
 36 35  1  0  0  0  0
 37 36  2  0  0  0  0
 38 32  1  0  0  0  0
M  END
>  <minimizedAffinity>
-5.02220583

$$$$

 OpenBabel03252500333D

 40 43  0  0  1  0  0  0  0  0999 V2000
   38.0230   26.2850   39.7610 N   0  0  0  0  0  0  0  0  0  0  0  0
   37.6140   25.0380   39.2300 C   0  0  0  0  0  0  0  0  0  0  0  0
   36.3620   24.4930   39.9180 C   0  0  0  0  0  0  0  0  0  0  0  0
   36.7850   24.1980   41.3510 C   0  0  0  0  0  0  0  0  0  0  0  0
   37.1360   25.5420   41.9480 C   0  0  0  0  0  0  0  0  0  0  0  0
   38.1760   26.2640   41.1500 C   0  0  2  0  0  0  0  0  0  0  0  0
   38.4280   24.3280   39.5880 H   0  0  0  0  0  0  0  0  0  0  0  0
   37.6500   24.9030   38.1650 H   0  0  0  0  0  0  0  0  0  0  0  0
   35.5930   25.2830   39.9200 H   0  0  0  0  0  0  0  0  0  0  0  0
   36.0360   23.5600   39.4660 H   0  0  0  0  0  0  0  0  0  0  0  0
   35.9610   23.7760   41.9520 H   0  0  0  0  0  0  0  0  0  0  0  0
   37.6530   23.5100   41.3570 H   0  0  0  0  0  0  0  0  0  0  0  0
   36.1910   26.1560   41.9100 H   0  0  0  0  0  0  0  0  0  0  0  0
   37.4450   25.5030   42.9950 H   0  0  0  0  0  0  0  0  0  0  0  0
   39.0980   25.6160   41.3180 H   0  0  0  0  0  0  0  0  0  0  0  0
   38.5170   27.5270   41.7920 C   0  0  0  0  0  0  0  0  0  0  0  0
   37.9610   28.3900   42.6360 C   0  0  0  0  0  0  0  0  0  0  0  0
   36.9700   28.0910   42.9470 H   0  0  0  0  0  0  0  0  0  0  0  0
   38.5920   29.5080   43.0430 C   0  0  0  0  0  3  0  0  0  0  0  0
   39.8870   29.7220   42.5230 C   0  0  0  0  0  3  0  0  0  0  0  0
   40.1750   28.2290   41.4050 S   0  0  0  0  0  0  0  0  0  0  0  0
   37.5150   27.4450   39.1150 C   0  0  0  0  0  0  0  0  0  0  0  0
   37.7670   27.5040   38.0410 H   0  0  0  0  0  0  0  0  0  0  0  0
   37.9400   28.3640   39.6070 H   0  0  0  0  0  0  0  0  0  0  0  0
   35.2460   28.7390   39.1800 C   0  0  1  0  0  0  0  0  0  0  0  0
   35.1970   27.8330   38.0950 C   0  0  0  0  0  0  0  0  0  0  0  0
   36.0330   27.4140   39.2560 C   0  0  1  0  0  0  0  0  0  0  0  0
   34.3620   28.8280   39.8660 H   0  0  0  0  0  0  0  0  0  0  0  0
   34.2960   27.2360   37.8720 H   0  0  0  0  0  0  0  0  0  0  0  0
   35.7710   28.0460   37.1540 H   0  0  0  0  0  0  0  0  0  0  0  0
   35.6480   26.8160   40.0900 H   0  0  0  0  0  0  0  0  0  0  0  0
   36.1700   30.6480   40.4880 C   0  0  0  0  0  0  0  0  0  0  0  0
   36.0410   29.9940   39.2270 C   0  0  0  0  0  0  0  0  0  0  0  0
   36.6420   30.5450   38.1250 C   0  0  0  0  0  0  0  0  0  0  0  0
   37.3440   31.7060   38.2980 N   0  0  0  0  0  0  0  0  0  0  0  0
   37.4550   32.3140   39.5130 C   0  0  0  0  0  0  0  0  0  0  0  0
   36.8690   31.7950   40.6350 N   0  0  0  0  0  0  0  0  0  0  0  0
   35.6910   30.1990   41.3410 H   0  0  0  0  0  0  0  0  0  0  0  0
   36.5500   30.0620   37.1730 H   0  0  0  0  0  0  0  0  0  0  0  0
   38.0460   33.2420   39.5160 H   0  0  0  0  0  0  0  0  0  0  0  0
  1  6  1  0  0  0  0
  2  7  1  0  0  0  0
  2  1  1  0  0  0  0
  2  3  1  0  0  0  0
  3  9  1  0  0  0  0
  3  4  1  0  0  0  0
  4 12  1  0  0  0  0
  4  5  1  0  0  0  0
  4 11  1  0  0  0  0
  5 14  1  0  0  0  0
  6 15  1  1  0  0  0
  6 16  1  0  0  0  0
  6  5  1  0  0  0  0
  8  2  1  0  0  0  0
 10  3  1  0  0  0  0
 13  5  1  0  0  0  0
 16 17  2  0  0  0  0
 17 18  1  0  0  0  0
 17 19  1  0  0  0  0
 20 19  2  0  0  0  0
 21 16  1  0  0  0  0
 21 20  1  0  0  0  0
 22 27  1  0  0  0  0
 22 24  1  0  0  0  0
 22  1  1  0  0  0  0
 23 22  1  0  0  0  0
 25 33  1  0  0  0  0
 25 27  1  0  0  0  0
 25 28  1  1  0  0  0
 26 25  1  0  0  0  0
 26 27  1  0  0  0  0
 27 31  1  1  0  0  0
 29 26  1  0  0  0  0
 30 26  1  0  0  0  0
 32 37  1  0  0  0  0
 32 38  1  0  0  0  0
 33 32  2  0  0  0  0
 34 35  2  0  0  0  0
 34 33  1  0  0  0  0
 35 36  1  0  0  0  0
 36 40  1  0  0  0  0
 36 37  2  0  0  0  0
 39 34  1  0  0  0  0
M  END
>  <minimizedAffinity>
-4.96382475

$$$$

 OpenBabel03252500333D

 40 43  0  0  1  0  0  0  0  0999 V2000
   37.3690   30.2310   41.3330 N   0  0  0  0  0  0  0  0  0  0  0  0
   36.1300   30.2970   40.6500 C   0  0  0  0  0  0  0  0  0  0  0  0
   36.2980   30.2340   39.1320 C   0  0  0  0  0  0  0  0  0  0  0  0
   37.0320   31.5130   38.7520 C   0  0  0  0  0  0  0  0  0  0  0  0
   38.3900   31.4010   39.4080 C   0  0  0  0  0  0  0  0  0  0  0  0
   38.2930   31.1790   40.8840 C   0  0  2  0  0  0  0  0  0  0  0  0
   35.8010   31.3720   40.8230 H   0  0  0  0  0  0  0  0  0  0  0  0
   35.3010   29.7410   41.0450 H   0  0  0  0  0  0  0  0  0  0  0  0
   36.9280   29.3640   38.8860 H   0  0  0  0  0  0  0  0  0  0  0  0
   35.3350   30.2380   38.6270 H   0  0  0  0  0  0  0  0  0  0  0  0
   37.1970   31.5930   37.6640 H   0  0  0  0  0  0  0  0  0  0  0  0
   36.4730   32.3950   39.1200 H   0  0  0  0  0  0  0  0  0  0  0  0
   38.8790   30.4910   38.9570 H   0  0  0  0  0  0  0  0  0  0  0  0
   39.0550   32.2450   39.2120 H   0  0  0  0  0  0  0  0  0  0  0  0
   37.8690   32.1730   41.2480 H   0  0  0  0  0  0  0  0  0  0  0  0
   39.6230   31.1300   41.4760 C   0  0  0  0  0  0  0  0  0  0  0  0
   40.1690   31.1730   42.6860 C   0  0  0  0  0  0  0  0  0  0  0  0
   39.4350   31.2760   43.4730 H   0  0  0  0  0  0  0  0  0  0  0  0
   41.5000   31.0940   42.8790 C   0  0  0  0  0  3  0  0  0  0  0  0
   42.2950   30.9620   41.7210 C   0  0  0  0  0  3  0  0  0  0  0  0
   41.0390   30.9550   40.3120 S   0  0  0  0  0  0  0  0  0  0  0  0
   37.8060   28.9360   41.7250 C   0  0  0  0  0  0  0  0  0  0  0  0
   38.6690   28.9450   42.4140 H   0  0  0  0  0  0  0  0  0  0  0  0
   38.1150   28.3540   40.8110 H   0  0  0  0  0  0  0  0  0  0  0  0
   36.6590   26.7350   42.5430 C   0  0  1  0  0  0  0  0  0  0  0  0
   36.9130   27.5400   43.6780 C   0  0  0  0  0  0  0  0  0  0  0  0
   36.6600   28.2720   42.4050 C   0  0  1  0  0  0  0  0  0  0  0  0
   35.6620   26.2300   42.4360 H   0  0  0  0  0  0  0  0  0  0  0  0
   36.1750   27.6550   44.4900 H   0  0  0  0  0  0  0  0  0  0  0  0
   37.9570   27.6390   44.0780 H   0  0  0  0  0  0  0  0  0  0  0  0
   35.6640   28.6040   42.0890 H   0  0  0  0  0  0  0  0  0  0  0  0
   38.8600   25.5740   42.4410 C   0  0  0  0  0  0  0  0  0  0  0  0
   37.6810   25.9920   41.7600 C   0  0  0  0  0  0  0  0  0  0  0  0
   37.5410   25.7000   40.4270 C   0  0  0  0  0  0  0  0  0  0  0  0
   38.5550   25.0130   39.8170 N   0  0  0  0  0  0  0  0  0  0  0  0
   39.6740   24.6230   40.4900 C   0  0  0  0  0  0  0  0  0  0  0  0
   39.8500   24.8960   41.8180 N   0  0  0  0  0  0  0  0  0  0  0  0
   38.9510   25.8130   43.4880 H   0  0  0  0  0  0  0  0  0  0  0  0
   36.6580   26.0100   39.9050 H   0  0  0  0  0  0  0  0  0  0  0  0
   40.4140   24.0790   39.8830 H   0  0  0  0  0  0  0  0  0  0  0  0
  1 22  1  0  0  0  0
  2  7  1  0  0  0  0
  2  8  1  0  0  0  0
  2  1  1  0  0  0  0
  3  2  1  0  0  0  0
  4 12  1  0  0  0  0
  4  3  1  0  0  0  0
  4  5  1  0  0  0  0
  5  6  1  0  0  0  0
  6 15  1  1  0  0  0
  6  1  1  0  0  0  0
  6 16  1  0  0  0  0
  9  3  1  0  0  0  0
 10  3  1  0  0  0  0
 11  4  1  0  0  0  0
 13  5  1  0  0  0  0
 14  5  1  0  0  0  0
 16 17  2  0  0  0  0
 17 19  1  0  0  0  0
 17 18  1  0  0  0  0
 20 19  2  0  0  0  0
 21 16  1  0  0  0  0
 21 20  1  0  0  0  0
 22 27  1  0  0  0  0
 22 23  1  0  0  0  0
 24 22  1  0  0  0  0
 25 28  1  6  0  0  0
 25 26  1  0  0  0  0
 26 30  1  0  0  0  0
 26 29  1  0  0  0  0
 27 31  1  6  0  0  0
 27 25  1  0  0  0  0
 27 26  1  0  0  0  0
 32 38  1  0  0  0  0
 33 32  2  0  0  0  0
 33 25  1  0  0  0  0
 34 33  1  0  0  0  0
 35 34  2  0  0  0  0
 35 36  1  0  0  0  0
 36 37  2  0  0  0  0
 37 32  1  0  0  0  0
 39 34  1  0  0  0  0
 40 36  1  0  0  0  0
M  END
>  <minimizedAffinity>
-4.9285512

$$$$

 OpenBabel03252500333D

 40 43  0  0  1  0  0  0  0  0999 V2000
   36.6290   26.4750   40.2320 N   0  0  0  0  0  0  0  0  0  0  0  0
   36.4920   25.1470   39.7590 C   0  0  0  0  0  0  0  0  0  0  0  0
   37.1110   24.9560   38.3750 C   0  0  0  0  0  0  0  0  0  0  0  0
   36.2680   25.8050   37.4330 C   0  0  0  0  0  0  0  0  0  0  0  0
   36.4850   27.2320   37.8810 C   0  0  0  0  0  0  0  0  0  0  0  0
   36.1560   27.4300   39.3280 C   0  0  2  0  0  0  0  0  0  0  0  0
   35.3770   25.0650   39.5500 H   0  0  0  0  0  0  0  0  0  0  0  0
   36.6520   24.3420   40.4510 H   0  0  0  0  0  0  0  0  0  0  0  0
   38.1410   25.3470   38.3950 H   0  0  0  0  0  0  0  0  0  0  0  0
   37.0390   23.9210   38.0490 H   0  0  0  0  0  0  0  0  0  0  0  0
   36.6090   25.7330   36.3860 H   0  0  0  0  0  0  0  0  0  0  0  0
   35.2020   25.5110   37.5090 H   0  0  0  0  0  0  0  0  0  0  0  0
   37.5860   27.4350   37.7510 H   0  0  0  0  0  0  0  0  0  0  0  0
   35.9540   27.9770   37.2840 H   0  0  0  0  0  0  0  0  0  0  0  0
   35.0250   27.2850   39.3370 H   0  0  0  0  0  0  0  0  0  0  0  0
   36.3310   28.8290   39.6980 C   0  0  0  0  0  0  0  0  0  0  0  0
   35.7710   29.7120   40.5160 C   0  0  0  0  0  0  0  0  0  0  0  0
   34.9440   29.2980   41.0760 H   0  0  0  0  0  0  0  0  0  0  0  0
   36.2100   30.9820   40.6150 C   0  0  0  0  0  3  0  0  0  0  0  0
   37.3060   31.3310   39.7980 C   0  0  0  0  0  3  0  0  0  0  0  0
   37.6950   29.7400   38.8610 S   0  0  0  0  0  0  0  0  0  0  0  0
   37.7770   26.7480   41.0260 C   0  0  0  0  0  0  0  0  0  0  0  0
   38.1120   27.8000   40.9810 H   0  0  0  0  0  0  0  0  0  0  0  0
   38.6350   26.1100   40.6720 H   0  0  0  0  0  0  0  0  0  0  0  0
   37.9390   27.3320   43.5670 C   0  0  1  0  0  0  0  0  0  0  0  0
   36.5740   27.3720   43.1990 C   0  0  0  0  0  0  0  0  0  0  0  0
   37.4260   26.4180   42.4340 C   0  0  1  0  0  0  0  0  0  0  0  0
   38.2390   26.8180   44.5180 H   0  0  0  0  0  0  0  0  0  0  0  0
   35.7820   26.9490   43.8410 H   0  0  0  0  0  0  0  0  0  0  0  0
   36.1750   28.2330   42.5980 H   0  0  0  0  0  0  0  0  0  0  0  0
   37.5690   25.3720   42.7260 H   0  0  0  0  0  0  0  0  0  0  0  0
   40.3260   27.9150   43.1590 C   0  0  0  0  0  0  0  0  0  0  0  0
   38.9670   28.3410   43.2000 C   0  0  0  0  0  0  0  0  0  0  0  0
   38.6670   29.6470   42.9090 C   0  0  0  0  0  0  0  0  0  0  0  0
   39.7040   30.4810   42.5900 N   0  0  0  0  0  0  0  0  0  0  0  0
   40.9970   30.0510   42.5560 C   0  0  0  0  0  0  0  0  0  0  0  0
   41.3350   28.7570   42.8410 N   0  0  0  0  0  0  0  0  0  0  0  0
   40.5400   26.8850   43.3910 H   0  0  0  0  0  0  0  0  0  0  0  0
   37.6490   29.9780   42.9380 H   0  0  0  0  0  0  0  0  0  0  0  0
   41.7350   30.8210   42.2850 H   0  0  0  0  0  0  0  0  0  0  0  0
  1 22  1  0  0  0  0
  2  1  1  0  0  0  0
  2  8  1  0  0  0  0
  3  9  1  0  0  0  0
  3  2  1  0  0  0  0
  4 12  1  0  0  0  0
  4  5  1  0  0  0  0
  4  3  1  0  0  0  0
  5  6  1  0  0  0  0
  6 15  1  1  0  0  0
  6 16  1  0  0  0  0
  6  1  1  0  0  0  0
  7  2  1  0  0  0  0
 10  3  1  0  0  0  0
 11  4  1  0  0  0  0
 13  5  1  0  0  0  0
 14  5  1  0  0  0  0
 16 17  2  0  0  0  0
 17 19  1  0  0  0  0
 17 18  1  0  0  0  0
 20 19  2  0  0  0  0
 21 16  1  0  0  0  0
 21 20  1  0  0  0  0
 22 27  1  0  0  0  0
 23 22  1  0  0  0  0
 24 22  1  0  0  0  0
 25 28  1  1  0  0  0
 26 25  1  0  0  0  0
 26 29  1  0  0  0  0
 27 31  1  1  0  0  0
 27 26  1  0  0  0  0
 27 25  1  0  0  0  0
 30 26  1  0  0  0  0
 32 33  1  0  0  0  0
 32 38  1  0  0  0  0
 33 25  1  0  0  0  0
 34 39  1  0  0  0  0
 34 33  2  0  0  0  0
 35 34  1  0  0  0  0
 36 35  2  0  0  0  0
 36 37  1  0  0  0  0
 37 32  2  0  0  0  0
 40 36  1  0  0  0  0
M  END
>  <minimizedAffinity>
-4.90831327

$$$$
