
 OpenBabel03252503073D

 17 18  0  0  0  0  0  0  0  0999 V2000
   37.0550   32.2090   40.0900 C   0  0  0  0  0  0  0  0  0  0  0  0
   36.9790   30.9460   40.6830 C   0  0  0  0  0  0  0  0  0  0  0  0
   38.0730   30.5490   41.4270 C   0  0  0  0  0  0  0  0  0  0  0  0
   39.1460   31.3490   41.5660 N   0  0  0  0  0  0  0  0  0  0  0  0
   39.1830   32.5830   40.9690 C   0  0  0  0  0  0  0  0  0  0  0  0
   38.1310   32.9940   40.2370 N   0  0  0  0  0  0  0  0  0  0  0  0
   36.2220   32.5820   39.4870 H   0  0  0  0  0  0  0  0  0  0  0  0
   40.0830   33.1590   41.1330 H   0  0  0  0  0  0  0  0  0  0  0  0
   38.0770   29.2930   42.0560 C   0  0  0  0  0  0  0  0  0  0  0  0
   37.6950   28.9030   43.3510 C   0  0  0  0  0  0  0  0  0  0  0  0
   37.3300   29.6780   44.0060 H   0  0  0  0  0  0  0  0  0  0  0  0
   37.8140   27.5900   43.6800 C   0  0  0  0  0  3  0  0  0  0  0  0
   38.3050   26.7020   42.7240 C   0  0  0  0  0  3  0  0  0  0  0  0
   38.6330   27.7860   41.2290 S   0  0  0  0  0  0  0  0  0  0  0  0
   35.8250   30.1320   40.5100 C   0  0  0  0  0  0  0  0  0  0  0  0
   35.6420   29.5710   39.4070 O   0  0  0  0  0  0  0  0  0  0  0  0
   35.3950   30.2550   41.4980 H   0  0  0  0  0  0  0  0  0  0  0  0
  1  6  2  0  0  0  0
  1  2  1  0  0  0  0
  2  3  2  0  0  0  0
  3  4  1  0  0  0  0
  3  9  1  0  0  0  0
  5  8  1  0  0  0  0
  5  4  2  0  0  0  0
  6  5  1  0  0  0  0
  7  1  1  0  0  0  0
  9 10  2  0  0  0  0
 10 12  1  0  0  0  0
 10 11  1  0  0  0  0
 13 12  2  0  0  0  0
 14  9  1  0  0  0  0
 14 13  1  0  0  0  0
 15  2  1  0  0  0  0
 15 17  1  0  0  0  0
 16 15  2  0  0  0  0
M  END
>  <minimizedAffinity>
-3.7877214

$$$$

 OpenBabel03252503073D

 17 18  0  0  0  0  0  0  0  0999 V2000
   38.7290   28.3200   43.2830 C   0  0  0  0  0  0  0  0  0  0  0  0
   38.7250   29.3050   42.2920 C   0  0  0  0  0  0  0  0  0  0  0  0
   37.5760   29.4100   41.5330 C   0  0  0  0  0  0  0  0  0  0  0  0
   36.5240   28.5990   41.7510 N   0  0  0  0  0  0  0  0  0  0  0  0
   36.5650   27.6450   42.7330 C   0  0  0  0  0  0  0  0  0  0  0  0
   37.6740   27.5210   43.4870 N   0  0  0  0  0  0  0  0  0  0  0  0
   39.6100   28.1850   43.9190 H   0  0  0  0  0  0  0  0  0  0  0  0
   35.6760   27.0380   42.8390 H   0  0  0  0  0  0  0  0  0  0  0  0
   37.4910   30.3750   40.5150 C   0  0  0  0  0  0  0  0  0  0  0  0
   37.0720   31.7160   40.5430 C   0  0  0  0  0  0  0  0  0  0  0  0
   36.7530   32.1080   41.4940 H   0  0  0  0  0  0  0  0  0  0  0  0
   37.1010   32.4130   39.3770 C   0  0  0  0  0  3  0  0  0  0  0  0
   37.5390   31.7680   38.2210 C   0  0  0  0  0  3  0  0  0  0  0  0
   37.9530   30.0340   38.8020 S   0  0  0  0  0  0  0  0  0  0  0  0
   39.8610   30.1400   42.0960 C   0  0  0  0  0  0  0  0  0  0  0  0
   40.0290   31.1180   42.8590 O   0  0  0  0  0  0  0  0  0  0  0  0
   40.2930   29.6240   41.2460 H   0  0  0  0  0  0  0  0  0  0  0  0
  1  6  1  0  0  0  0
  1  7  1  0  0  0  0
  2  1  2  0  0  0  0
  3  4  2  0  0  0  0
  3  2  1  0  0  0  0
  4  5  1  0  0  0  0
  5  8  1  0  0  0  0
  5  6  2  0  0  0  0
  9 10  2  0  0  0  0
  9  3  1  0  0  0  0
 10 11  1  0  0  0  0
 12 10  1  0  0  0  0
 13 14  1  0  0  0  0
 13 12  2  0  0  0  0
 14  9  1  0  0  0  0
 15  2  1  0  0  0  0
 15 16  2  0  0  0  0
 17 15  1  0  0  0  0
M  END
>  <minimizedAffinity>
-3.67597032

$$$$

 OpenBabel03252503073D

 17 18  0  0  0  0  0  0  0  0999 V2000
   39.6270   32.4010   40.9410 C   0  0  0  0  0  0  0  0  0  0  0  0
   39.5320   31.1480   41.5520 C   0  0  0  0  0  0  0  0  0  0  0  0
   38.2980   30.5320   41.5020 C   0  0  0  0  0  0  0  0  0  0  0  0
   37.2520   31.1200   40.8920 N   0  0  0  0  0  0  0  0  0  0  0  0
   37.3840   32.3500   40.3040 C   0  0  0  0  0  0  0  0  0  0  0  0
   38.5770   32.9740   40.3380 N   0  0  0  0  0  0  0  0  0  0  0  0
   40.5790   32.9430   40.9460 H   0  0  0  0  0  0  0  0  0  0  0  0
   36.4940   32.7480   39.8370 H   0  0  0  0  0  0  0  0  0  0  0  0
   38.1170   29.2690   42.0920 C   0  0  0  0  0  0  0  0  0  0  0  0
   37.7550   28.9000   43.3990 C   0  0  0  0  0  0  0  0  0  0  0  0
   37.5750   29.6990   44.1000 H   0  0  0  0  0  0  0  0  0  0  0  0
   37.6580   27.5740   43.6800 C   0  0  0  0  0  3  0  0  0  0  0  0
   37.9230   26.6540   42.6670 C   0  0  0  0  0  3  0  0  0  0  0  0
   38.3430   27.7230   41.1850 S   0  0  0  0  0  0  0  0  0  0  0  0
   40.6640   30.5630   42.1850 C   0  0  0  0  0  0  0  0  0  0  0  0
   41.2980   31.2360   43.0290 O   0  0  0  0  0  0  0  0  0  0  0  0
   40.6400   29.5970   41.6920 H   0  0  0  0  0  0  0  0  0  0  0  0
  1  7  1  0  0  0  0
  1  2  1  0  0  0  0
  2 15  1  0  0  0  0
  3  2  2  0  0  0  0
  3  9  1  0  0  0  0
  4  3  1  0  0  0  0
  5  6  1  0  0  0  0
  5  4  2  0  0  0  0
  6  1  2  0  0  0  0
  8  5  1  0  0  0  0
  9 10  2  0  0  0  0
 10 12  1  0  0  0  0
 10 11  1  0  0  0  0
 13 12  2  0  0  0  0
 14  9  1  0  0  0  0
 14 13  1  0  0  0  0
 15 16  2  0  0  0  0
 17 15  1  0  0  0  0
M  END
>  <minimizedAffinity>
-3.62731075

$$$$

 OpenBabel03252503073D

 17 18  0  0  0  0  0  0  0  0999 V2000
   35.8980   29.0290   38.2780 C   0  0  0  0  0  0  0  0  0  0  0  0
   36.6920   30.1660   38.4530 C   0  0  0  0  0  0  0  0  0  0  0  0
   36.6420   30.7660   39.6960 C   0  0  0  0  0  0  0  0  0  0  0  0
   35.8650   30.2680   40.6760 N   0  0  0  0  0  0  0  0  0  0  0  0
   35.1000   29.1500   40.4660 C   0  0  0  0  0  0  0  0  0  0  0  0
   35.1300   28.5470   39.2630 N   0  0  0  0  0  0  0  0  0  0  0  0
   35.8930   28.5080   37.3160 H   0  0  0  0  0  0  0  0  0  0  0  0
   34.5070   28.8200   41.3070 H   0  0  0  0  0  0  0  0  0  0  0  0
   37.4100   31.9130   39.9550 C   0  0  0  0  0  0  0  0  0  0  0  0
   37.2230   33.2560   39.5870 C   0  0  0  0  0  0  0  0  0  0  0  0
   36.3460   33.4850   39.0020 H   0  0  0  0  0  0  0  0  0  0  0  0
   38.1530   34.1610   39.9910 C   0  0  0  0  0  3  0  0  0  0  0  0
   39.2380   33.7140   40.7440 C   0  0  0  0  0  3  0  0  0  0  0  0
   38.9430   31.8700   40.9090 S   0  0  0  0  0  0  0  0  0  0  0  0
   37.4980   30.6580   37.3890 C   0  0  0  0  0  0  0  0  0  0  0  0
   38.7230   30.3970   37.3890 O   0  0  0  0  0  0  0  0  0  0  0  0
   36.7250   31.1720   36.8290 H   0  0  0  0  0  0  0  0  0  0  0  0
  1  2  2  0  0  0  0
  1  6  1  0  0  0  0
  2  3  1  0  0  0  0
  3  9  1  0  0  0  0
  3  4  2  0  0  0  0
  5  4  1  0  0  0  0
  5  8  1  0  0  0  0
  6  5  2  0  0  0  0
  7  1  1  0  0  0  0
  9 14  1  0  0  0  0
 10  9  2  0  0  0  0
 10 12  1  0  0  0  0
 11 10  1  0  0  0  0
 12 13  2  0  0  0  0
 13 14  1  0  0  0  0
 15  2  1  0  0  0  0
 16 15  2  0  0  0  0
 17 15  1  0  0  0  0
M  END
>  <minimizedAffinity>
-3.6204195

$$$$

 OpenBabel03252503073D

 17 18  0  0  0  0  0  0  0  0999 V2000
   36.9840   27.0390   41.7930 C   0  0  0  0  0  0  0  0  0  0  0  0
   37.1240   28.1420   40.9450 C   0  0  0  0  0  0  0  0  0  0  0  0
   37.5180   29.3260   41.5360 C   0  0  0  0  0  0  0  0  0  0  0  0
   37.7520   29.3980   42.8590 N   0  0  0  0  0  0  0  0  0  0  0  0
   37.6040   28.2940   43.6580 C   0  0  0  0  0  0  0  0  0  0  0  0
   37.2210   27.1270   43.1080 N   0  0  0  0  0  0  0  0  0  0  0  0
   36.6740   26.0720   41.3870 H   0  0  0  0  0  0  0  0  0  0  0  0
   37.8130   28.4410   44.7090 H   0  0  0  0  0  0  0  0  0  0  0  0
   37.6810   30.4820   40.7530 C   0  0  0  0  0  0  0  0  0  0  0  0
   36.7770   31.4970   40.4000 C   0  0  0  0  0  0  0  0  0  0  0  0
   35.7710   31.4080   40.7760 H   0  0  0  0  0  0  0  0  0  0  0  0
   37.2340   32.5090   39.6160 C   0  0  0  0  0  3  0  0  0  0  0  0
   38.5650   32.4880   39.2040 C   0  0  0  0  0  3  0  0  0  0  0  0
   39.2510   30.9220   39.9750 S   0  0  0  0  0  0  0  0  0  0  0  0
   36.8650   28.0210   39.5510 C   0  0  0  0  0  0  0  0  0  0  0  0
   35.6780   27.9570   39.1610 O   0  0  0  0  0  0  0  0  0  0  0  0
   37.8910   28.0180   39.1990 H   0  0  0  0  0  0  0  0  0  0  0  0
  1  6  1  0  0  0  0
  2  3  1  0  0  0  0
  2  1  2  0  0  0  0
  3  4  2  0  0  0  0
  4  5  1  0  0  0  0
  5  8  1  0  0  0  0
  6  5  2  0  0  0  0
  7  1  1  0  0  0  0
  9  3  1  0  0  0  0
 10  9  2  0  0  0  0
 10 11  1  0  0  0  0
 12 10  1  0  0  0  0
 13 12  2  0  0  0  0
 13 14  1  0  0  0  0
 14  9  1  0  0  0  0
 15  2  1  0  0  0  0
 16 15  2  0  0  0  0
 17 15  1  0  0  0  0
M  END
>  <minimizedAffinity>
-3.58864737

$$$$

 OpenBabel03252503073D

 17 18  0  0  0  0  0  0  0  0999 V2000
   37.5950   29.3980   42.5500 C   0  0  0  0  0  0  0  0  0  0  0  0
   37.9460   28.0520   42.4130 C   0  0  0  0  0  0  0  0  0  0  0  0
   37.3010   27.3470   41.4160 C   0  0  0  0  0  0  0  0  0  0  0  0
   36.3870   27.9400   40.6260 N   0  0  0  0  0  0  0  0  0  0  0  0
   36.0710   29.2640   40.7910 C   0  0  0  0  0  0  0  0  0  0  0  0
   36.6840   29.9740   41.7560 N   0  0  0  0  0  0  0  0  0  0  0  0
   38.0700   30.0120   43.3220 H   0  0  0  0  0  0  0  0  0  0  0  0
   35.3270   29.6590   40.1130 H   0  0  0  0  0  0  0  0  0  0  0  0
   37.5950   25.9880   41.2120 C   0  0  0  0  0  0  0  0  0  0  0  0
   37.0440   24.8260   41.7770 C   0  0  0  0  0  0  0  0  0  0  0  0
   36.2540   24.9600   42.4980 H   0  0  0  0  0  0  0  0  0  0  0  0
   37.5440   23.6270   41.3760 C   0  0  0  0  0  3  0  0  0  0  0  0
   38.5710   23.6120   40.4330 C   0  0  0  0  0  3  0  0  0  0  0  0
   38.8720   25.4250   40.0650 S   0  0  0  0  0  0  0  0  0  0  0  0
   38.9170   27.4650   43.2710 C   0  0  0  0  0  0  0  0  0  0  0  0
   40.0650   27.9630   43.3120 O   0  0  0  0  0  0  0  0  0  0  0  0
   38.3060   26.6690   43.6820 H   0  0  0  0  0  0  0  0  0  0  0  0
  1  7  1  0  0  0  0
  2  1  1  0  0  0  0
  2 15  1  0  0  0  0
  3  2  2  0  0  0  0
  4  5  2  0  0  0  0
  4  3  1  0  0  0  0
  5  6  1  0  0  0  0
  6  1  2  0  0  0  0
  8  5  1  0  0  0  0
  9  3  1  0  0  0  0
  9 10  2  0  0  0  0
 10 11  1  0  0  0  0
 12 10  1  0  0  0  0
 13 12  2  0  0  0  0
 14 13  1  0  0  0  0
 14  9  1  0  0  0  0
 15 16  2  0  0  0  0
 15 17  1  0  0  0  0
M  END
>  <minimizedAffinity>
-3.58698034

$$$$

 OpenBabel03252503073D

 17 18  0  0  0  0  0  0  0  0999 V2000
   38.9460   31.2430   38.7920 C   0  0  0  0  0  0  0  0  0  0  0  0
   38.7400   30.2230   39.7260 C   0  0  0  0  0  0  0  0  0  0  0  0
   37.7820   30.4590   40.6910 C   0  0  0  0  0  0  0  0  0  0  0  0
   37.0890   31.6130   40.7170 N   0  0  0  0  0  0  0  0  0  0  0  0
   37.3200   32.5890   39.7820 C   0  0  0  0  0  0  0  0  0  0  0  0
   38.2500   32.3860   38.8300 N   0  0  0  0  0  0  0  0  0  0  0  0
   39.6920   31.1190   38.0010 H   0  0  0  0  0  0  0  0  0  0  0  0
   36.7200   33.4830   39.8770 H   0  0  0  0  0  0  0  0  0  0  0  0
   37.5130   29.4850   41.6680 C   0  0  0  0  0  0  0  0  0  0  0  0
   38.0490   29.2880   42.9520 C   0  0  0  0  0  0  0  0  0  0  0  0
   38.8010   29.9870   43.2800 H   0  0  0  0  0  0  0  0  0  0  0  0
   37.5830   28.2390   43.6800 C   0  0  0  0  0  3  0  0  0  0  0  0
   36.6070   27.4160   43.1200 C   0  0  0  0  0  3  0  0  0  0  0  0
   36.3020   28.1660   41.4280 S   0  0  0  0  0  0  0  0  0  0  0  0
   39.4950   29.0190   39.6620 C   0  0  0  0  0  0  0  0  0  0  0  0
   39.0840   28.0880   38.9340 O   0  0  0  0  0  0  0  0  0  0  0  0
   40.2930   29.2960   40.3410 H   0  0  0  0  0  0  0  0  0  0  0  0
  1  6  2  0  0  0  0
  1  2  1  0  0  0  0
  2  3  2  0  0  0  0
  3  4  1  0  0  0  0
  3  9  1  0  0  0  0
  5  8  1  0  0  0  0
  5  4  2  0  0  0  0
  6  5  1  0  0  0  0
  7  1  1  0  0  0  0
  9 10  2  0  0  0  0
 10 11  1  0  0  0  0
 10 12  1  0  0  0  0
 13 12  2  0  0  0  0
 14  9  1  0  0  0  0
 14 13  1  0  0  0  0
 15  2  1  0  0  0  0
 15 17  1  0  0  0  0
 16 15  2  0  0  0  0
M  END
>  <minimizedAffinity>
-3.53021121

$$$$

 OpenBabel03252503073D

 17 18  0  0  0  0  0  0  0  0999 V2000
   36.6910   30.5760   38.2620 C   0  0  0  0  0  0  0  0  0  0  0  0
   36.8170   30.2040   39.6040 C   0  0  0  0  0  0  0  0  0  0  0  0
   37.1490   28.8870   39.8480 C   0  0  0  0  0  0  0  0  0  0  0  0
   37.3390   28.0190   38.8360 N   0  0  0  0  0  0  0  0  0  0  0  0
   37.2070   28.4220   37.5330 C   0  0  0  0  0  0  0  0  0  0  0  0
   36.8830   29.7010   37.2670 N   0  0  0  0  0  0  0  0  0  0  0  0
   36.4290   31.6060   38.0010 H   0  0  0  0  0  0  0  0  0  0  0  0
   37.3780   27.6600   36.7850 H   0  0  0  0  0  0  0  0  0  0  0  0
   37.2950   28.4320   41.1690 C   0  0  0  0  0  0  0  0  0  0  0  0
   36.3650   27.8860   42.0700 C   0  0  0  0  0  0  0  0  0  0  0  0
   35.3500   27.7820   41.7210 H   0  0  0  0  0  0  0  0  0  0  0  0
   36.8090   27.5310   43.3040 C   0  0  0  0  0  3  0  0  0  0  0  0
   38.1550   27.7270   43.6130 C   0  0  0  0  0  3  0  0  0  0  0  0
   38.8730   28.4690   42.0480 S   0  0  0  0  0  0  0  0  0  0  0  0
   36.6060   31.1550   40.6410 C   0  0  0  0  0  0  0  0  0  0  0  0
   37.3180   32.1840   40.6700 O   0  0  0  0  0  0  0  0  0  0  0  0
   35.8000   30.6480   41.1600 H   0  0  0  0  0  0  0  0  0  0  0  0
  1  2  1  0  0  0  0
  2  3  2  0  0  0  0
  2 15  1  0  0  0  0
  3  9  1  0  0  0  0
  4  3  1  0  0  0  0
  5  4  2  0  0  0  0
  6  5  1  0  0  0  0
  6  1  2  0  0  0  0
  7  1  1  0  0  0  0
  8  5  1  0  0  0  0
  9 14  1  0  0  0  0
  9 10  2  0  0  0  0
 10 12  1  0  0  0  0
 11 10  1  0  0  0  0
 12 13  2  0  0  0  0
 14 13  1  0  0  0  0
 15 16  2  0  0  0  0
 15 17  1  0  0  0  0
M  END
>  <minimizedAffinity>
-3.51602244

$$$$

 OpenBabel03252503073D

 17 18  0  0  0  0  0  0  0  0999 V2000
   36.5500   23.9950   39.8820 C   0  0  0  0  0  0  0  0  0  0  0  0
   37.0130   24.8470   40.8890 C   0  0  0  0  0  0  0  0  0  0  0  0
   36.9120   26.2010   40.6430 C   0  0  0  0  0  0  0  0  0  0  0  0
   36.3910   26.6610   39.4900 N   0  0  0  0  0  0  0  0  0  0  0  0
   35.9470   25.7940   38.5260 C   0  0  0  0  0  0  0  0  0  0  0  0
   36.0350   24.4680   38.7390 N   0  0  0  0  0  0  0  0  0  0  0  0
   36.6030   22.9100   40.0150 H   0  0  0  0  0  0  0  0  0  0  0  0
   35.5440   26.2490   37.6320 H   0  0  0  0  0  0  0  0  0  0  0  0
   37.3550   27.1260   41.6040 C   0  0  0  0  0  0  0  0  0  0  0  0
   36.7150   27.6700   42.7300 C   0  0  0  0  0  0  0  0  0  0  0  0
   35.7050   27.3460   42.9220 H   0  0  0  0  0  0  0  0  0  0  0  0
   37.4100   28.5590   43.4870 C   0  0  0  0  0  3  0  0  0  0  0  0
   38.7120   28.8840   43.1110 C   0  0  0  0  0  3  0  0  0  0  0  0
   39.0030   27.8630   41.5660 S   0  0  0  0  0  0  0  0  0  0  0  0
   37.5560   24.3170   42.0920 C   0  0  0  0  0  0  0  0  0  0  0  0
   38.7700   24.0130   42.1240 O   0  0  0  0  0  0  0  0  0  0  0  0
   36.6550   24.3350   42.6940 H   0  0  0  0  0  0  0  0  0  0  0  0
  1  7  1  0  0  0  0
  1  2  1  0  0  0  0
  2 15  1  0  0  0  0
  3  2  2  0  0  0  0
  3  9  1  0  0  0  0
  4  3  1  0  0  0  0
  5  6  1  0  0  0  0
  5  4  2  0  0  0  0
  6  1  2  0  0  0  0
  8  5  1  0  0  0  0
  9 10  2  0  0  0  0
 10 11  1  0  0  0  0
 10 12  1  0  0  0  0
 13 12  2  0  0  0  0
 14  9  1  0  0  0  0
 14 13  1  0  0  0  0
 15 16  2  0  0  0  0
 15 17  1  0  0  0  0
M  END
>  <minimizedAffinity>
-3.48180962

$$$$
