
 OpenBabel03242514373D

 30 32  0  0  0  0  0  0  0  0999 V2000
   48.0500   34.7980   40.3600 O   0  0  0  0  0  0  0  0  0  0  0  0
   49.3820   35.4730   42.4550 O   0  0  0  0  0  0  0  0  0  0  0  0
   48.8070   34.2910   41.7570 P   0  0  2  0  0  0  0  0  0  0  0  0
   50.0800   33.2690   41.3480 O   0  0  0  0  0  0  0  0  0  0  0  0
   49.7630   32.3600   41.1210 H   0  0  0  0  0  0  0  0  0  0  0  0
   47.6830   33.4750   42.7800 O   0  0  0  0  0  0  0  0  0  0  0  0
   46.1370   35.3010   42.7700 C   0  0  0  0  0  0  0  0  0  0  0  0
   46.6700   34.1870   43.4180 C   0  0  0  0  0  0  0  0  0  0  0  0
   46.1660   33.8330   44.6810 C   0  0  0  0  0  0  0  0  0  0  0  0
   45.1690   34.6140   45.2020 N   0  0  0  0  0  0  0  0  0  0  0  0
   44.6800   35.6810   44.5480 C   0  0  0  0  0  0  0  0  0  0  0  0
   45.1560   36.0240   43.3450 N   0  0  0  0  0  0  0  0  0  0  0  0
   46.4430   35.6590   41.8150 H   0  0  0  0  0  0  0  0  0  0  0  0
   46.5720   32.9820   45.1760 H   0  0  0  0  0  0  0  0  0  0  0  0
   43.8910   36.2740   44.9940 H   0  0  0  0  0  0  0  0  0  0  0  0
   47.4710   34.0210   39.4260 C   0  0  0  0  0  0  0  0  0  0  0  0
   46.3180   33.5610   39.8180 O   0  0  0  0  0  0  0  0  0  0  0  0
   47.6640   33.4750   38.0710 C   0  0  0  0  0  0  0  0  0  0  0  0
   48.7150   33.7910   37.1640 C   0  0  0  0  0  0  0  0  0  0  0  0
   48.6640   33.1430   35.9690 C   0  0  0  0  0  0  0  0  0  0  0  0
   47.6940   32.2700   35.6730 C   0  0  0  0  0  0  0  0  0  0  0  0
   46.6450   32.3030   37.2640 S   0  0  0  0  0  0  0  0  0  0  0  0
   49.4500   34.4920   37.4700 H   0  0  0  0  0  0  0  0  0  0  0  0
   49.3990   33.2910   35.1890 H   0  0  0  0  0  0  0  0  0  0  0  0
   47.2770   31.4360   34.6450 C   0  0  0  0  0  0  0  0  0  0  0  0
   47.9650   31.1310   33.5220 C   0  0  0  0  0  0  0  0  0  0  0  0
   48.9500   31.5260   33.3090 H   0  0  0  0  0  0  0  0  0  0  0  0
   47.4190   30.2910   32.5950 C   0  0  0  0  0  0  0  0  0  0  0  0
   46.0690   29.7610   32.9080 C   0  0  0  0  0  0  0  0  0  0  0  0
   45.7050   30.5330   34.5270 S   0  0  0  0  0  0  0  0  0  0  0  0
  1  3  1  0  0  0  0
  3  2  2  1  0  0  0
  3  6  1  0  0  0  0
  4  3  1  0  0  0  0
  5  4  1  0  0  0  0
  6  8  1  0  0  0  0
  7 12  2  0  0  0  0
  7  8  1  0  0  0  0
  8  9  2  0  0  0  0
  9 14  1  0  0  0  0
  9 10  1  0  0  0  0
 11 15  1  0  0  0  0
 11 10  2  0  0  0  0
 12 11  1  0  0  0  0
 13  7  1  0  0  0  0
 16 17  2  0  0  0  0
 16  1  1  0  0  0  0
 18 16  1  0  0  0  0
 19 23  1  0  0  0  0
 19 18  2  0  0  0  0
 20 19  1  0  0  0  0
 21 20  2  0  0  0  0
 21 22  1  0  0  0  0
 22 18  1  0  0  0  0
 24 20  1  0  0  0  0
 25 21  1  0  0  0  0
 26 25  2  0  0  0  0
 27 26  1  0  0  0  0
 28 29  2  0  0  0  0
 28 26  1  0  0  0  0
 29 30  1  0  0  0  0
 30 25  1  0  0  0  0
M  END
>  <minimizedAffinity>
-5.06636047

>  <minimizedRMSD>
0.233893082

$$$$
