
 OpenBabel03242515053D

 36 38  0  0  0  0  0  0  0  0999 V2000
   43.8300   35.0420   40.9790 S   0  0  0  0  0  0  0  0  0  0  0  0
   44.9820   34.5690   42.2690 C   0  0  0  0  0  0  0  0  0  0  0  0
   46.2580   34.1570   41.8550 C   0  0  0  0  0  0  0  0  0  0  0  0
   47.1700   33.7850   42.8310 C   0  0  0  0  0  0  0  0  0  0  0  0
   46.8050   33.8330   44.1210 N   0  0  0  0  0  0  0  0  0  0  0  0
   45.5650   34.2340   44.5160 C   0  0  0  0  0  0  0  0  0  0  0  0
   44.6880   34.5920   43.5710 N   0  0  0  0  0  0  0  0  0  0  0  0
   46.4950   34.1390   40.8130 H   0  0  0  0  0  0  0  0  0  0  0  0
   48.4430   33.3760   42.3930 C   0  0  0  0  0  0  0  0  0  0  0  0
   49.6530   33.8530   42.6970 C   0  0  0  0  0  0  0  0  0  0  0  0
   49.9500   34.6630   43.3460 H   0  0  0  0  0  0  0  0  0  0  0  0
   50.8350   33.4280   42.2520 C   0  0  0  0  0  0  0  0  0  0  0  0
   50.6850   32.2980   41.3260 C   0  0  0  0  0  0  0  0  0  0  0  0
   48.7790   32.0490   41.2660 S   0  0  0  0  0  0  0  0  0  0  0  0
   45.2890   34.2440   45.9280 C   0  0  0  0  0  0  0  0  0  0  0  0
   44.3970   35.0250   46.3420 O   0  0  0  0  0  0  0  0  0  0  0  0
   46.0470   33.3630   46.7600 N   0  0  0  0  0  0  0  0  0  0  0  0
   46.1240   32.4010   47.1560 H   0  0  0  0  0  0  0  0  0  0  0  0
   46.9150   33.7710   47.2070 H   0  0  0  0  0  0  0  0  0  0  0  0
   42.1200   34.9190   41.4860 C   0  0  0  0  0  0  0  0  0  0  0  0
   41.7670   33.8790   41.2750 H   0  0  0  0  0  0  0  0  0  0  0  0
   42.0200   35.0650   42.5860 H   0  0  0  0  0  0  0  0  0  0  0  0
   41.2170   35.8930   40.8040 C   0  0  0  0  0  0  0  0  0  0  0  0
   40.6390   36.5450   41.4910 H   0  0  0  0  0  0  0  0  0  0  0  0
   41.8780   36.5890   40.2260 H   0  0  0  0  0  0  0  0  0  0  0  0
   42.0300   36.0990   37.8870 Cl  0  0  0  0  0  0  0  0  0  0  0  0
   40.6330   35.2350   38.4490 C   0  0  0  0  0  0  0  0  0  0  0  0
   40.3500   35.2040   39.8160 C   0  0  0  0  0  0  0  0  0  0  0  0
   39.2280   34.5010   40.1820 C   0  0  0  0  0  0  0  0  0  0  0  0
   38.3530   33.8240   39.3340 C   0  0  0  0  0  0  0  0  0  0  0  0
   38.6720   33.8810   37.9890 C   0  0  0  0  0  0  0  0  0  0  0  0
   37.6210   33.0520   36.8420 Cl  0  0  0  0  0  0  0  0  0  0  0  0
   39.7840   34.5720   37.5700 C   0  0  0  0  0  0  0  0  0  0  0  0
   38.9820   34.4590   41.2420 H   0  0  0  0  0  0  0  0  0  0  0  0
   37.4970   33.3020   39.7420 H   0  0  0  0  0  0  0  0  0  0  0  0
   39.9820   34.5800   36.4980 H   0  0  0  0  0  0  0  0  0  0  0  0
  1 20  1  0  0  0  0
  1  2  1  0  0  0  0
  2  7  1  0  0  0  0
  3  2  2  0  0  0  0
  3  4  1  0  0  0  0
  4  5  2  0  0  0  0
  5  6  1  0  0  0  0
  6 15  1  0  0  0  0
  7  6  2  0  0  0  0
  8  3  1  0  0  0  0
  9 10  2  0  0  0  0
  9  4  1  0  0  0  0
 10 11  1  0  0  0  0
 12 10  1  0  0  0  0
 13 12  2  0  0  0  0
 14 13  1  0  0  0  0
 14  9  1  0  0  0  0
 15 16  2  0  0  0  0
 15 17  1  0  0  0  0
 17 18  1  0  0  0  0
 17 19  1  0  0  0  0
 20 22  1  0  0  0  0
 21 20  1  0  0  0  0
 23 20  1  0  0  0  0
 23 24  1  0  0  0  0
 25 23  1  0  0  0  0
 26 27  1  0  0  0  0
 27 28  1  0  0  0  0
 28 29  2  0  0  0  0
 28 23  1  0  0  0  0
 29 34  1  0  0  0  0
 30 35  1  0  0  0  0
 30 29  1  0  0  0  0
 31 30  2  0  0  0  0
 32 31  1  0  0  0  0
 33 31  1  0  0  0  0
 33 27  2  0  0  0  0
 36 33  1  0  0  0  0
M  END
>  <minimizedAffinity>
-6.9049592

>  <minimizedRMSD>
0.662044644

$$$$
