REMARK  Name = 
REMARK  4 active torsions:
REMARK  status: ('A' for Active; 'I' for Inactive)
REMARK    1  A    between atoms: C_1  and  C_2
REMARK    2  A    between atoms: C_1  and  C_14
REMARK    3  A    between atoms: C_13  and  C_15
REMARK    4  A    between atoms: C_19  and  C_39
REMARK                            x       y       z     vdW  Elec       q    Type
REMARK                         _______ _______ _______ _____ _____    ______ ____
ROOT
ATOM      1  C   UNL     1      46.404  32.166  47.791  0.00  0.00    +0.000 A 
ATOM      2  C   UNL     1      45.930  31.815  49.019  0.00  0.00    +0.000 A 
ATOM      3  N   UNL     1      46.894  31.111  49.611  0.00  0.00    +0.000 N 
ATOM      4  C   UNL     1      47.956  30.999  48.820  0.00  0.00    +0.000 A 
ATOM      5  N   UNL     1      47.649  31.666  47.665  0.00  0.00    +0.000 NA
ATOM      6  N   UNL     1      49.221  30.355  49.001  0.00  0.00    +0.000 N 
ATOM      7  C   UNL     1      50.300  31.157  49.622  0.00  0.00    +0.000 C 
ATOM      8  C   UNL     1      50.395  30.644  51.054  0.00  0.00    +0.000 C 
ATOM      9  C   UNL     1      50.424  29.131  51.057  0.00  0.00    +0.000 C 
ATOM     10  C   UNL     1      50.776  28.629  49.665  0.00  0.00    +0.000 C 
ATOM     11  C   UNL     1      49.684  29.041  48.696  0.00  0.00    +0.000 C 
ATOM     12  H   UNL     1      44.949  32.071  49.418  0.00  0.00    +0.000 HD
ATOM     13  H   UNL     1      46.842  30.694  50.572  0.00  0.00    +0.000 HD
ATOM     14  H   UNL     1      51.264  31.001  49.114  0.00  0.00    +0.000 HD
ATOM     15  H   UNL     1      50.005  32.219  49.682  0.00  0.00    +0.000 HD
ATOM     16  H   UNL     1      51.309  31.005  51.575  0.00  0.00    +0.000 HD
ATOM     17  H   UNL     1      49.510  31.004  51.640  0.00  0.00    +0.000 HD
ATOM     18  H   UNL     1      49.414  28.747  51.289  0.00  0.00    +0.000 HD
ATOM     19  H   UNL     1      51.110  28.741  51.811  0.00  0.00    +0.000 HD
ATOM     20  H   UNL     1      50.745  27.506  49.737  0.00  0.00    +0.000 HD
ATOM     21  H   UNL     1      51.778  28.980  49.338  0.00  0.00    +0.000 HD
ATOM     22  H   UNL     1      50.137  29.062  47.684  0.00  0.00    +0.000 HD
ATOM     23  H   UNL     1      48.877  28.279  48.672  0.00  0.00    +0.000 HD
ENDROOT
BRANCH   1  24
ATOM     24  C   UNL     1      45.688  32.966  46.764  0.00  0.00    +0.000 C 
ATOM     25  H   UNL     1      45.503  33.971  47.229  0.00  0.00    +0.000 HD
ATOM     26  H   UNL     1      44.709  32.514  46.535  0.00  0.00    +0.000 HD
BRANCH  24  28
ATOM     27  C   UNL     1      46.151  33.872  44.510  0.00  0.00    +0.000 C 
ATOM     28  C   UNL     1      46.538  33.206  45.576  0.00  0.00    +0.000 C 
BRANCH  27  29
ATOM     29  C   UNL     1      47.095  34.033  43.409  0.00  0.00    +0.000 A 
ATOM     30  C   UNL     1      46.896  34.997  42.398  0.00  0.00    +0.000 A 
ATOM     31  C   UNL     1      47.854  35.070  41.394  0.00  0.00    +0.000 A 
ATOM     32  N   UNL     1      48.923  34.234  41.415  0.00  0.00    +0.000 NA
ATOM     33  C   UNL     1      49.087  33.322  42.394  0.00  0.00    +0.000 A 
ATOM     34  N   UNL     1      48.194  33.223  43.369  0.00  0.00    +0.000 NA
ATOM     35  H   UNL     1      46.029  35.608  42.465  0.00  0.00    +0.000 HD
ATOM     36  H   UNL     1      47.669  35.820  40.636  0.00  0.00    +0.000 HD
BRANCH  33  37
ATOM     37  C   UNL     1      50.284  32.536  42.229  0.00  0.00    +0.000 A 
ATOM     38  C   UNL     1      50.468  31.322  41.672  0.00  0.00    +0.000 A 
ATOM     39  H   UNL     1      49.613  30.801  41.263  0.00  0.00    +0.000 HD
ATOM     40  C   UNL     1      51.728  30.775  41.634  0.00  0.00    +0.000 A 
ATOM     41  C   UNL     1      52.755  31.545  42.195  0.00  0.00    +0.000 A 
ATOM     42  S   UNL     1      51.909  33.057  42.776  0.00  0.00    +0.000 S 
ENDBRANCH  33  37
ENDBRANCH  27  29
ENDBRANCH  24  28
ENDBRANCH   1  24
TORSDOF 4
