REMARK  Name = 
REMARK  3 active torsions:
REMARK  status: ('A' for Active; 'I' for Inactive)
REMARK    1  A    between atoms: C_2  and  C_7
REMARK    2  A    between atoms: C_5  and  C_16
REMARK    3  A    between atoms: C_7  and  C_8
REMARK                            x       y       z     vdW  Elec       q    Type
REMARK                         _______ _______ _______ _____ _____    ______ ____
ROOT
ATOM      1  C   UNL     1      45.188  35.211  44.057  0.00  0.00    +0.000 A 
ATOM      2  C   UNL     1      46.230  34.580  43.377  0.00  0.00    +0.000 A 
ATOM      3  C   UNL     1      46.910  33.567  44.061  0.00  0.00    +0.000 A 
ATOM      4  N   UNL     1      46.524  33.261  45.327  0.00  0.00    +0.000 NA
ATOM      5  C   UNL     1      45.505  33.906  45.938  0.00  0.00    +0.000 A 
ATOM      6  N   UNL     1      44.831  34.887  45.304  0.00  0.00    +0.000 NA
ATOM      7  H   UNL     1      44.610  36.002  43.608  0.00  0.00    +0.000 HD
ATOM      8  H   UNL     1      47.721  33.074  43.538  0.00  0.00    +0.000 HD
ENDROOT
BRANCH   5   9
ATOM      9  C   UNL     1      45.259  33.407  47.314  0.00  0.00    +0.000 A 
ATOM     10  C   UNL     1      46.063  32.572  48.048  0.00  0.00    +0.000 A 
ATOM     11  H   UNL     1      46.989  32.210  47.620  0.00  0.00    +0.000 HD
ATOM     12  C   UNL     1      45.668  32.226  49.291  0.00  0.00    +0.000 A 
ATOM     13  C   UNL     1      44.449  32.744  49.765  0.00  0.00    +0.000 A 
ATOM     14  S   UNL     1      43.853  33.750  48.401  0.00  0.00    +0.000 S 
ENDBRANCH   5   9
BRANCH   2  15
ATOM     15  C   UNL     1      46.554  34.995  42.020  0.00  0.00    +0.000 C 
ATOM     16  H   UNL     1      46.097  35.954  41.793  0.00  0.00    +0.000 HD
ATOM     17  H   UNL     1      46.242  34.260  41.252  0.00  0.00    +0.000 HD
BRANCH  15  18
ATOM     18  C   UNL     1      48.053  35.177  41.921  0.00  0.00    +0.000 C 
ATOM     19  H   UNL     1      48.489  34.229  41.500  0.00  0.00    +0.000 HD
ATOM     20  H   UNL     1      48.523  35.420  42.876  0.00  0.00    +0.000 HD
ATOM     21  H   UNL     1      48.272  35.966  41.160  0.00  0.00    +0.000 HD
ENDBRANCH  15  18
ENDBRANCH   2  15
TORSDOF 3
