
 OpenBabel03252506253D

 42 46  0  0  0  0  0  0  0  0999 V2000
   46.2600   30.2920   48.4510 C   0  0  0  0  0  0  0  0  0  0  0  0
   46.5040   29.9020   49.4840 H   0  0  0  0  0  0  0  0  0  0  0  0
   45.5910   31.1580   48.6340 H   0  0  0  0  0  0  0  0  0  0  0  0
   45.8050   27.8560   47.7480 C   0  0  0  0  0  0  0  0  0  0  0  0
   45.5670   29.2230   47.7490 C   0  0  0  0  0  0  0  0  0  0  0  0
   44.5170   29.6460   46.9660 C   0  0  0  0  0  0  0  0  0  0  0  0
   43.7410   28.7850   46.2200 C   0  0  0  0  0  0  0  0  0  0  0  0
   42.6880   28.9080   45.3970 N   0  0  0  0  0  0  0  0  0  0  0  0
   42.2970   27.7270   44.9200 C   0  0  0  0  0  0  0  0  0  0  0  0
   43.1170   26.7540   45.4370 C   0  0  0  0  0  0  0  0  0  0  0  0
   43.9960   27.4260   46.2330 C   0  0  0  0  0  0  0  0  0  0  0  0
   45.0350   26.9860   47.0060 C   0  0  0  0  0  0  0  0  0  0  0  0
   46.6410   27.6550   48.3920 H   0  0  0  0  0  0  0  0  0  0  0  0
   44.2060   30.6750   46.8610 H   0  0  0  0  0  0  0  0  0  0  0  0
   42.2300   29.8380   45.1610 H   0  0  0  0  0  0  0  0  0  0  0  0
   41.4670   27.6060   44.2400 H   0  0  0  0  0  0  0  0  0  0  0  0
   42.9700   25.7370   45.1810 H   0  0  0  0  0  0  0  0  0  0  0  0
   45.4650   25.6140   47.1520 C   0  0  0  0  0  0  0  0  0  0  0  0
   45.9240   24.7160   46.3050 C   0  0  0  0  0  0  0  0  0  0  0  0
   46.1010   24.7680   45.2600 H   0  0  0  0  0  0  0  0  0  0  0  0
   46.2860   23.4670   46.6630 C   0  0  0  0  0  3  0  0  0  0  0  0
   46.1540   23.1330   48.0250 C   0  0  0  0  0  3  0  0  0  0  0  0
   45.4810   24.7540   48.6790 S   0  0  0  0  0  0  0  0  0  0  0  0
   47.5390   30.7620   47.8660 C   0  0  0  0  0  0  0  0  0  0  0  0
   47.9590   31.5330   48.5610 H   0  0  0  0  0  0  0  0  0  0  0  0
   48.2480   29.9470   47.7510 H   0  0  0  0  0  0  0  0  0  0  0  0
   46.6150   32.9040   45.1530 C   0  0  0  0  0  0  0  0  0  0  0  0
   47.2510   31.8480   44.4810 C   0  0  0  0  0  0  0  0  0  0  0  0
   47.6670   30.9350   45.3940 C   0  0  0  0  0  0  0  0  0  0  0  0
   47.3000   31.4110   46.5870 N   0  0  0  0  0  0  0  0  0  0  0  0
   46.6680   32.5930   46.4570 N   0  0  0  0  0  0  0  0  0  0  0  0
   47.4120   31.7300   43.4120 H   0  0  0  0  0  0  0  0  0  0  0  0
   48.1930   29.9970   45.2330 H   0  0  0  0  0  0  0  0  0  0  0  0
   44.5350   35.8360   44.5400 C   0  0  0  0  0  0  0  0  0  0  0  0
   44.9340   36.2730   43.2880 C   0  0  0  0  0  0  0  0  0  0  0  0
   45.9300   35.5460   42.6530 C   0  0  0  0  0  0  0  0  0  0  0  0
   46.4460   34.4630   43.2940 N   0  0  0  0  0  0  0  0  0  0  0  0
   46.0390   34.0700   44.5010 C   0  0  0  0  0  0  0  0  0  0  0  0
   45.0830   34.7610   45.1190 N   0  0  0  0  0  0  0  0  0  0  0  0
   43.7580   36.4160   45.0190 H   0  0  0  0  0  0  0  0  0  0  0  0
   44.5370   37.1190   42.7780 H   0  0  0  0  0  0  0  0  0  0  0  0
   46.3510   35.7460   41.6920 H   0  0  0  0  0  0  0  0  0  0  0  0
  1  3  1  0  0  0  0
  1  2  1  0  0  0  0
  4  5  1  0  0  0  0
  4 13  1  0  0  0  0
  5  1  1  0  0  0  0
  6  5  2  0  0  0  0
  7 11  2  0  0  0  0
  7  6  1  0  0  0  0
  8  7  1  0  0  0  0
  9  8  1  0  0  0  0
  9 10  2  0  0  0  0
 10 11  1  0  0  0  0
 11 12  1  0  0  0  0
 12 18  1  0  0  0  0
 12  4  2  0  0  0  0
 14  6  1  0  0  0  0
 15  8  1  0  0  0  0
 16  9  1  0  0  0  0
 17 10  1  0  0  0  0
 18 23  1  0  0  0  0
 19 21  1  0  0  0  0
 19 18  2  0  0  0  0
 20 19  1  0  0  0  0
 21 22  2  0  0  0  0
 22 23  1  0  0  0  0
 24  1  1  0  0  0  0
 24 25  1  0  0  0  0
 26 24  1  0  0  0  0
 27 31  2  0  0  0  0
 28 27  1  0  0  0  0
 28 29  2  0  0  0  0
 29 30  1  0  0  0  0
 30 24  1  0  0  0  0
 31 30  1  0  0  0  0
 32 28  1  0  0  0  0
 33 29  1  0  0  0  0
 34 40  1  0  0  0  0
 34 39  1  0  0  0  0
 35 34  2  0  0  0  0
 36 35  1  0  0  0  0
 36 37  2  0  0  0  0
 37 38  1  0  0  0  0
 38 39  2  0  0  0  0
 38 27  1  0  0  0  0
 41 35  1  0  0  0  0
 42 36  1  0  0  0  0
M  END
>  <minimizedAffinity>
-5.23261261

>  <minimizedRMSD>
0.821079195

$$$$
