REMARK  Name = 
REMARK  2 active torsions:
REMARK  status: ('A' for Active; 'I' for Inactive)
REMARK    1  A    between atoms: C_1  and  C_7
REMARK    2  A    between atoms: C_12  and  C_26
REMARK                            x       y       z     vdW  Elec       q    Type
REMARK                         _______ _______ _______ _____ _____    ______ ____
ROOT
ATOM      1  C   UNL     1      47.040  32.602  42.695  0.00  0.00    +0.000 C 
ATOM      2  C   UNL     1      46.374  33.040  41.452  0.00  0.00    +0.000 C 
ATOM      3  C   UNL     1      46.182  34.523  41.355  0.00  0.00    +0.000 C 
ATOM      4  C   UNL     1      45.460  35.102  42.550  0.00  0.00    +0.000 C 
ATOM      5  C   UNL     1      45.859  34.463  43.866  0.00  0.00    +0.000 C 
ATOM      6  C   UNL     1      47.171  33.722  43.711  0.00  0.00    +0.000 C 
ATOM      7  H   UNL     1      46.469  31.755  43.181  0.00  0.00    +0.000 HD
ATOM      8  H   UNL     1      45.344  32.577  41.411  0.00  0.00    +0.000 HD
ATOM      9  H   UNL     1      46.858  32.711  40.511  0.00  0.00    +0.000 HD
ATOM     10  H   UNL     1      47.051  35.114  41.080  0.00  0.00    +0.000 HD
ATOM     11  H   UNL     1      45.463  34.673  40.493  0.00  0.00    +0.000 HD
ATOM     12  H   UNL     1      45.732  36.177  42.600  0.00  0.00    +0.000 HD
ATOM     13  H   UNL     1      44.346  35.070  42.404  0.00  0.00    +0.000 HD
ATOM     14  H   UNL     1      45.938  35.186  44.674  0.00  0.00    +0.000 HD
ATOM     15  H   UNL     1      45.088  33.722  44.157  0.00  0.00    +0.000 HD
ATOM     16  H   UNL     1      47.871  34.469  43.256  0.00  0.00    +0.000 HD
ENDROOT
BRANCH   1  17
ATOM     17  C   UNL     1      48.391  32.065  42.450  0.00  0.00    +0.000 A 
ATOM     18  C   UNL     1      49.175  32.776  41.523  0.00  0.00    +0.000 A 
ATOM     19  C   UNL     1      50.472  32.345  41.215  0.00  0.00    +0.000 A 
ATOM     20  N   UNL     1      50.898  31.207  41.874  0.00  0.00    +0.000 NA
ATOM     21  C   UNL     1      50.127  30.557  42.747  0.00  0.00    +0.000 A 
ATOM     22  N   UNL     1      48.874  30.977  43.042  0.00  0.00    +0.000 NA
ATOM     23  H   UNL     1      48.926  33.666  40.964  0.00  0.00    +0.000 HD
ATOM     24  H   UNL     1      51.166  32.781  40.545  0.00  0.00    +0.000 HD
ATOM     25  H   UNL     1      50.463  29.660  43.268  0.00  0.00    +0.000 HD
ENDBRANCH   1  17
BRANCH   6  26
ATOM     26  C   UNL     1      47.751  33.314  44.969  0.00  0.00    +0.000 A 
ATOM     27  C   UNL     1      48.650  32.394  45.334  0.00  0.00    +0.000 A 
ATOM     28  H   UNL     1      49.086  31.785  44.527  0.00  0.00    +0.000 HD
ATOM     29  C   UNL     1      49.025  32.200  46.610  0.00  0.00    +0.000 A 
ATOM     30  C   UNL     1      48.397  33.044  47.557  0.00  0.00    +0.000 A 
ATOM     31  S   UNL     1      47.244  34.131  46.539  0.00  0.00    +0.000 S 
ENDBRANCH   6  26
TORSDOF 2
