REMARK  Name = 
REMARK  4 active torsions:
REMARK  status: ('A' for Active; 'I' for Inactive)
REMARK    1  A    between atoms: C_3  and  C_18
REMARK    2  A    between atoms: C_7  and  N_8
REMARK    3  A    between atoms: C_12  and  C_13
REMARK    4  A    between atoms: C_16  and  C_35
REMARK                            x       y       z     vdW  Elec       q    Type
REMARK                         _______ _______ _______ _____ _____    ______ ____
ROOT
ATOM      1  F   UNL     1      46.721  33.480  44.904  0.00  0.00    +0.000 F 
ATOM      2  C   UNL     1      47.298  32.267  44.642  0.00  0.00    +0.000 A 
ATOM      3  C   UNL     1      48.090  32.163  43.536  0.00  0.00    +0.000 A 
ATOM      4  C   UNL     1      48.669  30.950  43.269  0.00  0.00    +0.000 A 
ATOM      5  C   UNL     1      48.438  29.882  44.115  0.00  0.00    +0.000 A 
ATOM      6  C   UNL     1      47.649  29.980  45.220  0.00  0.00    +0.000 A 
ATOM      7  C   UNL     1      47.059  31.230  45.485  0.00  0.00    +0.000 A 
ATOM      8  H   UNL     1      49.309  30.803  42.407  0.00  0.00    +0.000 HD
ATOM      9  H   UNL     1      48.902  28.925  43.896  0.00  0.00    +0.000 HD
ATOM     10  H   UNL     1      47.473  29.143  45.876  0.00  0.00    +0.000 HD
ENDROOT
BRANCH   7  11
ATOM     11  N   UNL     1      46.242  31.287  46.649  0.00  0.00    +0.000 N 
ATOM     12  C   UNL     1      45.166  30.442  47.090  0.00  0.00    +0.000 C 
ATOM     13  C   UNL     1      45.557  30.140  48.551  0.00  0.00    +0.000 C 
ATOM     14  C   UNL     1      46.456  31.297  48.924  0.00  0.00    +0.000 C 
ATOM     15  C   UNL     1      46.260  32.239  47.756  0.00  0.00    +0.000 C 
ATOM     16  H   UNL     1      44.188  30.919  47.011  0.00  0.00    +0.000 HD
ATOM     17  H   UNL     1      45.206  29.512  46.490  0.00  0.00    +0.000 HD
ATOM     18  H   UNL     1      44.608  30.165  49.123  0.00  0.00    +0.000 HD
ATOM     19  H   UNL     1      46.069  29.169  48.644  0.00  0.00    +0.000 HD
ATOM     20  H   UNL     1      47.494  30.968  48.985  0.00  0.00    +0.000 HD
ATOM     21  H   UNL     1      46.181  31.762  49.887  0.00  0.00    +0.000 HD
ATOM     22  H   UNL     1      47.183  32.828  47.657  0.00  0.00    +0.000 HD
BRANCH  15  23
ATOM     23  C   UNL     1      45.036  33.082  47.842  0.00  0.00    +0.000 C 
ATOM     24  H   UNL     1      44.190  32.534  48.297  0.00  0.00    +0.000 HD
ATOM     25  H   UNL     1      44.836  33.512  46.855  0.00  0.00    +0.000 HD
ATOM     26  H   UNL     1      45.269  33.929  48.520  0.00  0.00    +0.000 HD
ENDBRANCH  15  23
ENDBRANCH   7  11
BRANCH   3  31
ATOM     27  C   UNL     1      49.472  35.253  42.144  0.00  0.00    +0.000 A 
ATOM     28  C   UNL     1      48.698  35.493  41.008  0.00  0.00    +0.000 A 
ATOM     29  C   UNL     1      47.704  34.554  40.762  0.00  0.00    +0.000 A 
ATOM     30  N   UNL     1      47.544  33.508  41.591  0.00  0.00    +0.000 NA
ATOM     31  C   UNL     1      48.305  33.310  42.671  0.00  0.00    +0.000 A 
ATOM     32  N   UNL     1      49.263  34.191  42.931  0.00  0.00    +0.000 NA
ATOM     33  H   UNL     1      50.235  36.003  42.304  0.00  0.00    +0.000 HD
ATOM     34  H   UNL     1      48.738  36.279  40.292  0.00  0.00    +0.000 HD
BRANCH  29  35
ATOM     35  C   UNL     1      46.777  34.565  39.672  0.00  0.00    +0.000 A 
ATOM     36  C   UNL     1      45.454  34.617  39.879  0.00  0.00    +0.000 A 
ATOM     37  H   UNL     1      44.784  34.659  40.752  0.00  0.00    +0.000 HD
ATOM     38  C   UNL     1      44.467  34.633  38.948  0.00  0.00    +0.000 A 
ATOM     39  C   UNL     1      45.056  34.584  37.569  0.00  0.00    +0.000 A 
ATOM     40  S   UNL     1      46.943  34.523  37.901  0.00  0.00    +0.000 S 
ENDBRANCH  29  35
ENDBRANCH   3  31
TORSDOF 4
