
 OpenBabel03252506253D

 42 46  0  0  0  0  0  0  0  0999 V2000
   46.2240   30.2550   48.4410 C   0  0  0  0  0  0  0  0  0  0  0  0
   46.4590   29.8700   49.4780 H   0  0  0  0  0  0  0  0  0  0  0  0
   45.5650   31.1300   48.6150 H   0  0  0  0  0  0  0  0  0  0  0  0
   45.7300   27.8170   47.7720 C   0  0  0  0  0  0  0  0  0  0  0  0
   45.5220   29.1890   47.7450 C   0  0  0  0  0  0  0  0  0  0  0  0
   44.4980   29.6200   46.9320 C   0  0  0  0  0  0  0  0  0  0  0  0
   43.7180   28.7630   46.1860 C   0  0  0  0  0  0  0  0  0  0  0  0
   42.6850   28.8940   45.3390 N   0  0  0  0  0  0  0  0  0  0  0  0
   42.2780   27.7130   44.8750 C   0  0  0  0  0  0  0  0  0  0  0  0
   43.0650   26.7320   45.4270 C   0  0  0  0  0  0  0  0  0  0  0  0
   43.9430   27.3990   46.2280 C   0  0  0  0  0  0  0  0  0  0  0  0
   44.9560   26.9510   47.0300 C   0  0  0  0  0  0  0  0  0  0  0  0
   46.5490   27.6100   48.4370 H   0  0  0  0  0  0  0  0  0  0  0  0
   44.2120   30.6530   46.8030 H   0  0  0  0  0  0  0  0  0  0  0  0
   42.2520   29.8290   45.0780 H   0  0  0  0  0  0  0  0  0  0  0  0
   41.4600   27.5980   44.1800 H   0  0  0  0  0  0  0  0  0  0  0  0
   42.9020   25.7140   45.1860 H   0  0  0  0  0  0  0  0  0  0  0  0
   45.3530   25.5720   47.2090 C   0  0  0  0  0  0  0  0  0  0  0  0
   45.1630   24.6980   48.1760 C   0  0  0  0  0  0  0  0  0  0  0  0
   44.6580   24.7810   49.1050 H   0  0  0  0  0  0  0  0  0  0  0  0
   45.6200   23.4300   48.1340 C   0  0  0  0  0  3  0  0  0  0  0  0
   46.3360   23.0480   46.9830 C   0  0  0  0  0  3  0  0  0  0  0  0
   46.2670   24.6580   46.0260 S   0  0  0  0  0  0  0  0  0  0  0  0
   47.5110   30.7060   47.8590 C   0  0  0  0  0  0  0  0  0  0  0  0
   47.9450   31.4660   48.5580 H   0  0  0  0  0  0  0  0  0  0  0  0
   48.2060   29.8790   47.7390 H   0  0  0  0  0  0  0  0  0  0  0  0
   46.6120   32.8720   45.1570 C   0  0  0  0  0  0  0  0  0  0  0  0
   47.2520   31.8220   44.4810 C   0  0  0  0  0  0  0  0  0  0  0  0
   47.6600   30.9000   45.3900 C   0  0  0  0  0  0  0  0  0  0  0  0
   47.2840   31.3660   46.5840 N   0  0  0  0  0  0  0  0  0  0  0  0
   46.6530   32.5500   46.4590 N   0  0  0  0  0  0  0  0  0  0  0  0
   47.4230   31.7120   43.4130 H   0  0  0  0  0  0  0  0  0  0  0  0
   48.1870   29.9630   45.2250 H   0  0  0  0  0  0  0  0  0  0  0  0
   44.5460   35.8160   44.5560 C   0  0  0  0  0  0  0  0  0  0  0  0
   44.9500   36.2580   43.3070 C   0  0  0  0  0  0  0  0  0  0  0  0
   45.9450   35.5310   42.6700 C   0  0  0  0  0  0  0  0  0  0  0  0
   46.4540   34.4430   43.3060 N   0  0  0  0  0  0  0  0  0  0  0  0
   46.0420   34.0440   44.5100 C   0  0  0  0  0  0  0  0  0  0  0  0
   45.0880   34.7350   45.1290 N   0  0  0  0  0  0  0  0  0  0  0  0
   43.7700   36.3960   45.0360 H   0  0  0  0  0  0  0  0  0  0  0  0
   44.5570   37.1090   42.8010 H   0  0  0  0  0  0  0  0  0  0  0  0
   46.3680   35.7350   41.7110 H   0  0  0  0  0  0  0  0  0  0  0  0
  1  3  1  0  0  0  0
  1  2  1  0  0  0  0
  4 13  1  0  0  0  0
  5  4  1  0  0  0  0
  5  1  1  0  0  0  0
  6  5  2  0  0  0  0
  7 11  2  0  0  0  0
  7  6  1  0  0  0  0
  8  7  1  0  0  0  0
  9  8  1  0  0  0  0
  9 10  2  0  0  0  0
 10 11  1  0  0  0  0
 11 12  1  0  0  0  0
 12 18  1  0  0  0  0
 12  4  2  0  0  0  0
 14  6  1  0  0  0  0
 15  8  1  0  0  0  0
 16  9  1  0  0  0  0
 17 10  1  0  0  0  0
 18 19  2  0  0  0  0
 19 20  1  0  0  0  0
 21 19  1  0  0  0  0
 22 21  2  0  0  0  0
 23 22  1  0  0  0  0
 23 18  1  0  0  0  0
 24  1  1  0  0  0  0
 24 25  1  0  0  0  0
 26 24  1  0  0  0  0
 27 31  2  0  0  0  0
 28 27  1  0  0  0  0
 28 29  2  0  0  0  0
 29 30  1  0  0  0  0
 30 24  1  0  0  0  0
 31 30  1  0  0  0  0
 32 28  1  0  0  0  0
 33 29  1  0  0  0  0
 34 40  1  0  0  0  0
 34 39  1  0  0  0  0
 35 34  2  0  0  0  0
 36 37  2  0  0  0  0
 36 35  1  0  0  0  0
 37 38  1  0  0  0  0
 38 39  2  0  0  0  0
 38 27  1  0  0  0  0
 41 35  1  0  0  0  0
 42 36  1  0  0  0  0
M  END
>  <minimizedAffinity>
-5.31582928

>  <minimizedRMSD>
0.797671676

$$$$
