
 OpenBabel03252505373D

 30 32  0  0  0  0  0  0  0  0999 V2000
   45.1000   33.8210   46.0100 C   0  0  0  0  0  0  0  0  0  0  0  0
   45.8010   33.7860   44.7840 C   0  0  0  0  0  0  0  0  0  0  0  0
   46.9820   33.0850   44.7240 C   0  0  0  0  0  0  0  0  0  0  0  0
   47.4130   32.4650   45.8520 N   0  0  0  0  0  0  0  0  0  0  0  0
   46.7130   32.5230   47.0140 C   0  0  0  0  0  0  0  0  0  0  0  0
   45.5560   33.2010   47.0920 N   0  0  0  0  0  0  0  0  0  0  0  0
   47.2110   31.8780   48.1860 N   0  0  0  0  0  0  0  0  0  0  0  0
   44.1660   34.3630   46.0870 H   0  0  0  0  0  0  0  0  0  0  0  0
   46.6540   31.8160   49.0370 H   0  0  0  0  0  0  0  0  0  0  0  0
   48.1700   31.4530   48.1840 H   0  0  0  0  0  0  0  0  0  0  0  0
   47.7810   32.9680   43.5430 C   0  0  0  0  0  0  0  0  0  0  0  0
   48.5020   34.0920   43.1380 C   0  0  0  0  0  0  0  0  0  0  0  0
   49.3160   34.0770   42.0000 C   0  0  0  0  0  0  0  0  0  0  0  0
   49.4200   32.9330   41.2520 C   0  0  0  0  0  0  0  0  0  0  0  0
   48.7150   31.8440   41.6540 C   0  0  0  0  0  0  0  0  0  0  0  0
   47.9010   31.8400   42.7810 C   0  0  0  0  0  0  0  0  0  0  0  0
   48.4460   35.0290   43.7100 H   0  0  0  0  0  0  0  0  0  0  0  0
   49.8550   34.9830   41.7330 H   0  0  0  0  0  0  0  0  0  0  0  0
   50.0550   32.9490   40.3790 H   0  0  0  0  0  0  0  0  0  0  0  0
   48.8030   30.9430   41.0560 H   0  0  0  0  0  0  0  0  0  0  0  0
   47.1520   30.6370   43.1960 C   0  0  0  0  0  0  0  0  0  0  0  0
   47.2550   29.6900   42.1820 F   0  0  0  0  0  0  0  0  0  0  0  0
   45.8260   30.9690   43.4050 F   0  0  0  0  0  0  0  0  0  0  0  0
   47.5910   30.0720   44.3700 F   0  0  0  0  0  0  0  0  0  0  0  0
   45.2180   34.5380   43.7060 C   0  0  0  0  0  0  0  0  0  0  0  0
   45.1590   35.8870   43.3660 C   0  0  0  0  0  0  0  0  0  0  0  0
   45.6670   36.5160   44.0740 H   0  0  0  0  0  0  0  0  0  0  0  0
   44.4950   36.2310   42.2330 C   0  0  0  0  0  3  0  0  0  0  0  0
   43.9140   35.1990   41.4810 C   0  0  0  0  0  3  0  0  0  0  0  0
   44.3560   33.7010   42.4650 S   0  0  0  0  0  0  0  0  0  0  0  0
  1  8  1  0  0  0  0
  1  6  1  0  0  0  0
  2  1  2  0  0  0  0
  3  2  1  0  0  0  0
  3  4  2  0  0  0  0
  4  5  1  0  0  0  0
  5  6  2  0  0  0  0
  5  7  1  0  0  0  0
  7  9  1  0  0  0  0
 10  7  1  0  0  0  0
 11  3  1  0  0  0  0
 12 11  1  0  0  0  0
 12 17  1  0  0  0  0
 13 12  2  0  0  0  0
 14 15  2  0  0  0  0
 14 13  1  0  0  0  0
 15 16  1  0  0  0  0
 16 21  1  0  0  0  0
 16 11  2  0  0  0  0
 18 13  1  0  0  0  0
 19 14  1  0  0  0  0
 20 15  1  0  0  0  0
 21 23  1  0  0  0  0
 21 24  1  0  0  0  0
 22 21  1  0  0  0  0
 25  2  1  0  0  0  0
 26 25  2  0  0  0  0
 26 27  1  0  0  0  0
 28 26  1  0  0  0  0
 29 28  2  0  0  0  0
 29 30  1  0  0  0  0
 30 25  1  0  0  0  0
M  END
>  <minimizedAffinity>
-4.37788105

>  <minimizedRMSD>
3.29158592

$$$$
