
 OpenBabel03242511543D

 31 33  0  0  1  0  0  0  0  0999 V2000
   42.5500   29.0440   42.3320 C   0  0  2  0  0  0  0  0  0  0  0  0
   42.6100   30.2230   41.4440 C   0  0  0  0  0  0  0  0  0  0  0  0
   41.8970   31.4260   41.9810 C   0  0  0  0  0  0  0  0  0  0  0  0
   40.4590   31.1410   42.3500 C   0  0  0  0  0  0  0  0  0  0  0  0
   40.2560   29.7800   42.9860 C   0  0  0  0  0  0  0  0  0  0  0  0
   41.5780   29.2320   43.4830 C   0  0  1  0  0  0  0  0  0  0  0  0
   42.2350   28.1220   41.7570 H   0  0  0  0  0  0  0  0  0  0  0  0
   42.1130   29.9620   40.4630 H   0  0  0  0  0  0  0  0  0  0  0  0
   43.6290   30.5490   41.1550 H   0  0  0  0  0  0  0  0  0  0  0  0
   42.4080   31.9980   42.7500 H   0  0  0  0  0  0  0  0  0  0  0  0
   41.8250   32.1420   41.1070 H   0  0  0  0  0  0  0  0  0  0  0  0
   40.1590   31.9090   43.0930 H   0  0  0  0  0  0  0  0  0  0  0  0
   39.7790   31.2820   41.4660 H   0  0  0  0  0  0  0  0  0  0  0  0
   39.5380   29.8030   43.8020 H   0  0  0  0  0  0  0  0  0  0  0  0
   39.8680   29.0770   42.2220 H   0  0  0  0  0  0  0  0  0  0  0  0
   42.0080   30.0500   44.1170 H   0  0  0  0  0  0  0  0  0  0  0  0
   43.8630   28.7080   42.9110 C   0  0  0  0  0  0  0  0  0  0  0  0
   44.4730   29.7180   43.6770 C   0  0  0  0  0  0  0  0  0  0  0  0
   45.7260   29.5020   44.2660 C   0  0  0  0  0  0  0  0  0  0  0  0
   46.2880   28.2590   44.0390 N   0  0  0  0  0  0  0  0  0  0  0  0
   45.6810   27.3250   43.3060 C   0  0  0  0  0  0  0  0  0  0  0  0
   44.4710   27.5380   42.7390 N   0  0  0  0  0  0  0  0  0  0  0  0
   44.1120   30.7110   43.9040 H   0  0  0  0  0  0  0  0  0  0  0  0
   46.2930   30.1660   44.8630 H   0  0  0  0  0  0  0  0  0  0  0  0
   46.1240   26.3440   43.1280 H   0  0  0  0  0  0  0  0  0  0  0  0
   41.4360   28.0730   44.3320 C   0  0  0  0  0  0  0  0  0  0  0  0
   41.5770   27.8450   45.6420 C   0  0  0  0  0  0  0  0  0  0  0  0
   41.8590   28.7080   46.2640 H   0  0  0  0  0  0  0  0  0  0  0  0
   41.3910   26.6370   46.2010 C   0  0  0  0  0  3  0  0  0  0  0  0
   41.0280   25.6060   45.3010 C   0  0  0  0  0  3  0  0  0  0  0  0
   40.9660   26.4430   43.6150 S   0  0  0  0  0  0  0  0  0  0  0  0
  1  7  1  6  0  0  0
  1 17  1  0  0  0  0
  1  6  1  0  0  0  0
  2  3  1  0  0  0  0
  2  1  1  0  0  0  0
  3  4  1  0  0  0  0
  3 10  1  0  0  0  0
  4  5  1  0  0  0  0
  4 12  1  0  0  0  0
  5  6  1  0  0  0  0
  5 14  1  0  0  0  0
  6 16  1  1  0  0  0
  6 26  1  0  0  0  0
  8  2  1  0  0  0  0
  9  2  1  0  0  0  0
 11  3  1  0  0  0  0
 13  4  1  0  0  0  0
 15  5  1  0  0  0  0
 17 18  1  0  0  0  0
 18 23  1  0  0  0  0
 18 19  2  0  0  0  0
 19 24  1  0  0  0  0
 20 19  1  0  0  0  0
 21 20  2  0  0  0  0
 22 17  2  0  0  0  0
 22 21  1  0  0  0  0
 25 21  1  0  0  0  0
 26 27  2  0  0  0  0
 27 29  1  0  0  0  0
 27 28  1  0  0  0  0
 30 29  2  0  0  0  0
 31 26  1  0  0  0  0
 31 30  1  0  0  0  0
M  END
>  <minimizedAffinity>
-2.19553804

>  <minimizedRMSD>
7.14924622

$$$$
