
 OpenBabel03242511553D

 31 33  0  0  1  0  0  0  0  0999 V2000
   46.2890   33.3550   41.3560 C   0  0  2  0  0  0  0  0  0  0  0  0
   46.8190   34.1710   42.4660 C   0  0  0  0  0  0  0  0  0  0  0  0
   47.4870   35.4380   42.0250 C   0  0  0  0  0  0  0  0  0  0  0  0
   48.5740   35.2050   41.0010 C   0  0  0  0  0  0  0  0  0  0  0  0
   48.2330   34.1230   39.9930 C   0  0  0  0  0  0  0  0  0  0  0  0
   46.7420   33.8560   39.9970 C   0  0  1  0  0  0  0  0  0  0  0  0
   46.6150   32.2770   41.4580 H   0  0  0  0  0  0  0  0  0  0  0  0
   47.6010   33.5690   43.0170 H   0  0  0  0  0  0  0  0  0  0  0  0
   46.0850   34.4450   43.2500 H   0  0  0  0  0  0  0  0  0  0  0  0
   46.8380   36.2640   41.7470 H   0  0  0  0  0  0  0  0  0  0  0  0
   48.0390   35.8170   42.9380 H   0  0  0  0  0  0  0  0  0  0  0  0
   48.7010   36.1570   40.4450 H   0  0  0  0  0  0  0  0  0  0  0  0
   49.5610   35.0000   41.4980 H   0  0  0  0  0  0  0  0  0  0  0  0
   48.5600   34.3730   38.9870 H   0  0  0  0  0  0  0  0  0  0  0  0
   48.7430   33.1840   40.2850 H   0  0  0  0  0  0  0  0  0  0  0  0
   46.2690   34.8630   39.8670 H   0  0  0  0  0  0  0  0  0  0  0  0
   44.8150   33.3130   41.3440 C   0  0  0  0  0  0  0  0  0  0  0  0
   44.1670   34.5450   41.1390 C   0  0  0  0  0  0  0  0  0  0  0  0
   42.7680   34.6140   41.1160 C   0  0  0  0  0  0  0  0  0  0  0  0
   42.1060   33.4150   41.3040 N   0  0  0  0  0  0  0  0  0  0  0  0
   42.7520   32.2650   41.4960 C   0  0  0  0  0  0  0  0  0  0  0  0
   44.1050   32.2020   41.5180 N   0  0  0  0  0  0  0  0  0  0  0  0
   44.6000   35.5220   40.9860 H   0  0  0  0  0  0  0  0  0  0  0  0
   42.1560   35.4650   40.9700 H   0  0  0  0  0  0  0  0  0  0  0  0
   42.2300   31.3190   41.6440 H   0  0  0  0  0  0  0  0  0  0  0  0
   46.3040   33.0390   38.8900 C   0  0  0  0  0  0  0  0  0  0  0  0
   45.5180   33.2410   37.8270 C   0  0  0  0  0  0  0  0  0  0  0  0
   45.0880   34.2470   37.7190 H   0  0  0  0  0  0  0  0  0  0  0  0
   45.2520   32.2870   36.9200 C   0  0  0  0  0  3  0  0  0  0  0  0
   45.8660   31.0340   37.1640 C   0  0  0  0  0  3  0  0  0  0  0  0
   46.8430   31.2830   38.7540 S   0  0  0  0  0  0  0  0  0  0  0  0
  1  7  1  1  0  0  0
  1  2  1  0  0  0  0
  2  8  1  0  0  0  0
  2  9  1  0  0  0  0
  3  2  1  0  0  0  0
  3 11  1  0  0  0  0
  4 13  1  0  0  0  0
  4  3  1  0  0  0  0
  5  6  1  0  0  0  0
  5 15  1  0  0  0  0
  5  4  1  0  0  0  0
  6 16  1  6  0  0  0
  6  1  1  0  0  0  0
 10  3  1  0  0  0  0
 12  4  1  0  0  0  0
 14  5  1  0  0  0  0
 17  1  1  0  0  0  0
 17 22  1  0  0  0  0
 18 17  2  0  0  0  0
 19 18  1  0  0  0  0
 19 20  2  0  0  0  0
 20 21  1  0  0  0  0
 21 22  2  0  0  0  0
 21 25  1  0  0  0  0
 23 18  1  0  0  0  0
 24 19  1  0  0  0  0
 26  6  1  0  0  0  0
 27 26  2  0  0  0  0
 28 27  1  0  0  0  0
 29 30  2  0  0  0  0
 29 27  1  0  0  0  0
 30 31  1  0  0  0  0
 31 26  1  0  0  0  0
M  END
>  <minimizedAffinity>
-3.80050135

>  <minimizedRMSD>
6.56178999

$$$$
