
 OpenBabel03252505183D

 31 34  0  0  0  0  0  0  0  0999 V2000
   44.5570   35.8810   44.6090 C   0  0  0  0  0  0  0  0  0  0  0  0
   45.2030   35.8170   43.3790 C   0  0  0  0  0  0  0  0  0  0  0  0
   46.1030   34.7880   43.2230 C   0  0  0  0  0  0  0  0  0  0  0  0
   46.3350   33.8880   44.2380 N   0  0  0  0  0  0  0  0  0  0  0  0
   45.6630   34.0030   45.4310 C   0  0  0  0  0  0  0  0  0  0  0  0
   44.7770   35.0020   45.6090 N   0  0  0  0  0  0  0  0  0  0  0  0
   43.8430   36.7040   44.7200 H   0  0  0  0  0  0  0  0  0  0  0  0
   45.0300   36.5150   42.5790 H   0  0  0  0  0  0  0  0  0  0  0  0
   45.9180   33.0220   46.4770 C   0  0  0  0  0  0  0  0  0  0  0  0
   45.1740   33.0380   47.6220 C   0  0  0  0  0  0  0  0  0  0  0  0
   45.3950   32.1080   48.6260 C   0  0  0  0  0  0  0  0  0  0  0  0
   46.3830   31.1720   48.4320 C   0  0  0  0  0  0  0  0  0  0  0  0
   47.1000   31.2020   47.2610 C   0  0  0  0  0  0  0  0  0  0  0  0
   46.8960   32.1030   46.2750 N   0  0  0  0  0  0  0  0  0  0  0  0
   44.4110   33.7760   47.7510 H   0  0  0  0  0  0  0  0  0  0  0  0
   44.8300   32.0980   49.5280 H   0  0  0  0  0  0  0  0  0  0  0  0
   46.5480   30.4560   49.2130 H   0  0  0  0  0  0  0  0  0  0  0  0
   48.1500   30.2420   47.0040 C   0  0  0  0  0  0  0  0  0  0  0  0
   49.1540   29.5580   47.7200 C   0  0  0  0  0  0  0  0  0  0  0  0
   49.0910   29.8610   48.7430 H   0  0  0  0  0  0  0  0  0  0  0  0
   49.9600   28.7040   47.0420 C   0  0  0  0  0  3  0  0  0  0  0  0
   49.8250   28.4800   45.6460 C   0  0  0  0  0  3  0  0  0  0  0  0
   48.3670   29.6300   45.2480 S   0  0  0  0  0  0  0  0  0  0  0  0
   46.8450   34.5960   41.9240 C   0  0  0  0  0  0  0  0  0  0  0  0
   48.1910   35.3240   41.9340 C   0  0  0  0  0  0  0  0  0  0  0  0
   48.0290   33.7780   41.9180 C   0  0  0  0  0  0  0  0  0  0  0  0
   46.2570   34.7240   40.9900 H   0  0  0  0  0  0  0  0  0  0  0  0
   48.5580   35.7740   42.8530 H   0  0  0  0  0  0  0  0  0  0  0  0
   48.4610   35.8010   40.9950 H   0  0  0  0  0  0  0  0  0  0  0  0
   48.3140   33.3000   42.9000 H   0  0  0  0  0  0  0  0  0  0  0  0
   48.4630   33.2590   41.0720 H   0  0  0  0  0  0  0  0  0  0  0  0
  1  7  1  0  0  0  0
  1  6  1  0  0  0  0
  2  1  2  0  0  0  0
  3  2  1  0  0  0  0
  3  4  2  0  0  0  0
  4  5  1  0  0  0  0
  5  6  2  0  0  0  0
  5  9  1  0  0  0  0
  8  2  1  0  0  0  0
  9 10  1  0  0  0  0
 10 15  1  0  0  0  0
 10 11  2  0  0  0  0
 11 16  1  0  0  0  0
 12 11  1  0  0  0  0
 12 17  1  0  0  0  0
 13 12  2  0  0  0  0
 14  9  2  0  0  0  0
 14 13  1  0  0  0  0
 18 13  1  0  0  0  0
 18 19  2  0  0  0  0
 19 20  1  0  0  0  0
 21 19  1  0  0  0  0
 22 21  2  0  0  0  0
 23 22  1  0  0  0  0
 23 18  1  0  0  0  0
 24 25  1  0  0  0  0
 24  3  1  0  0  0  0
 25 28  1  0  0  0  0
 26 24  1  0  0  0  0
 26 25  1  0  0  0  0
 26 30  1  0  0  0  0
 27 24  1  0  0  0  0
 29 25  1  0  0  0  0
 31 26  1  0  0  0  0
M  END
>  <minimizedAffinity>
-5.60247421

>  <minimizedRMSD>
0.281800389

$$$$
