
 OpenBabel03252505253D

 40 43  0  0  1  0  0  0  0  0999 V2000
   46.6730   33.3570   44.7220 F   0  0  0  0  0  0  0  0  0  0  0  0
   47.3520   32.1790   44.5700 C   0  0  0  0  0  0  0  0  0  0  0  0
   48.1790   32.0540   43.4920 C   0  0  0  0  0  0  0  0  0  0  0  0
   48.8610   30.8760   43.3360 C   0  0  0  0  0  0  0  0  0  0  0  0
   48.6950   29.8630   44.2600 C   0  0  0  0  0  0  0  0  0  0  0  0
   47.8720   29.9820   45.3380 C   0  0  0  0  0  0  0  0  0  0  0  0
   47.1760   31.1960   45.4890 C   0  0  0  0  0  0  0  0  0  0  0  0
   49.5340   30.7150   42.5010 H   0  0  0  0  0  0  0  0  0  0  0  0
   49.2410   28.9330   44.1280 H   0  0  0  0  0  0  0  0  0  0  0  0
   47.7460   29.1870   46.0550 H   0  0  0  0  0  0  0  0  0  0  0  0
   46.3260   31.2760   46.6280 N   0  0  0  0  0  0  0  0  0  0  0  0
   45.2400   30.4380   47.0570 C   0  0  0  0  0  0  0  0  0  0  0  0
   45.5900   30.1700   48.5350 C   0  0  0  0  0  0  0  0  0  0  0  0
   46.4760   31.3380   48.9070 C   0  0  0  0  0  0  0  0  0  0  0  0
   46.3110   32.2530   47.7130 C   0  0  2  0  0  0  0  0  0  0  0  0
   44.2630   30.9110   46.9400 H   0  0  0  0  0  0  0  0  0  0  0  0
   45.2990   29.4950   46.4800 H   0  0  0  0  0  0  0  0  0  0  0  0
   44.6250   30.2050   49.0790 H   0  0  0  0  0  0  0  0  0  0  0  0
   46.1010   29.2030   48.6640 H   0  0  0  0  0  0  0  0  0  0  0  0
   47.5120   31.0130   49.0050 H   0  0  0  0  0  0  0  0  0  0  0  0
   46.1730   31.8230   49.8520 H   0  0  0  0  0  0  0  0  0  0  0  0
   47.2350   32.8420   47.6270 H   0  0  0  0  0  0  0  0  0  0  0  0
   45.0830   33.0940   47.7460 C   0  0  0  0  0  0  0  0  0  0  0  0
   44.2260   32.5540   48.1890 H   0  0  0  0  0  0  0  0  0  0  0  0
   44.9100   33.5010   46.7440 H   0  0  0  0  0  0  0  0  0  0  0  0
   45.2950   33.9570   48.4110 H   0  0  0  0  0  0  0  0  0  0  0  0
   49.1000   35.2720   42.0110 C   0  0  0  0  0  0  0  0  0  0  0  0
   48.5880   35.2110   40.7140 C   0  0  0  0  0  0  0  0  0  0  0  0
   47.9280   34.0310   40.3950 C   0  0  0  0  0  0  0  0  0  0  0  0
   47.8210   33.0500   41.3080 N   0  0  0  0  0  0  0  0  0  0  0  0
   48.3240   33.1430   42.5420 C   0  0  0  0  0  0  0  0  0  0  0  0
   48.9600   34.2600   42.8750 N   0  0  0  0  0  0  0  0  0  0  0  0
   49.6060   36.2040   42.2240 H   0  0  0  0  0  0  0  0  0  0  0  0
   48.6150   35.9200   39.9210 H   0  0  0  0  0  0  0  0  0  0  0  0
   47.3140   33.7130   39.1420 C   0  0  0  0  0  0  0  0  0  0  0  0
   46.0890   33.1740   39.0800 C   0  0  0  0  0  0  0  0  0  0  0  0
   45.3160   32.8640   39.8010 H   0  0  0  0  0  0  0  0  0  0  0  0
   45.3900   32.8250   37.9710 C   0  0  0  0  0  3  0  0  0  0  0  0
   46.1900   33.1280   36.7380 C   0  0  0  0  0  3  0  0  0  0  0  0
   47.8130   33.8670   37.4410 S   0  0  0  0  0  0  0  0  0  0  0  0
  2  1  1  0  0  0  0
  2  7  1  0  0  0  0
  3  2  2  0  0  0  0
  4  3  1  0  0  0  0
  4  5  2  0  0  0  0
  5  6  1  0  0  0  0
  6  7  2  0  0  0  0
  6 10  1  0  0  0  0
  7 11  1  0  0  0  0
  8  4  1  0  0  0  0
  9  5  1  0  0  0  0
 11 12  1  0  0  0  0
 11 15  1  0  0  0  0
 12 13  1  0  0  0  0
 13 19  1  0  0  0  0
 13 14  1  0  0  0  0
 13 18  1  0  0  0  0
 14 20  1  0  0  0  0
 14 21  1  0  0  0  0
 15 22  1  6  0  0  0
 15 23  1  0  0  0  0
 15 14  1  0  0  0  0
 16 12  1  0  0  0  0
 17 12  1  0  0  0  0
 23 24  1  0  0  0  0
 23 26  1  0  0  0  0
 25 23  1  0  0  0  0
 27 33  1  0  0  0  0
 27 32  1  0  0  0  0
 28 27  2  0  0  0  0
 29 28  1  0  0  0  0
 29 30  2  0  0  0  0
 30 31  1  0  0  0  0
 31 32  2  0  0  0  0
 31  3  1  0  0  0  0
 34 28  1  0  0  0  0
 35 29  1  0  0  0  0
 36 35  2  0  0  0  0
 36 37  1  0  0  0  0
 38 36  1  0  0  0  0
 39 40  1  0  0  0  0
 39 38  2  0  0  0  0
 40 35  1  0  0  0  0
M  END
>  <minimizedAffinity>
-5.4837141

>  <minimizedRMSD>
0.832291842

$$$$
