
 OpenBabel03242517423D

 37 40  0  0  0  0  0  0  0  0999 V2000
   36.8210   25.6340   42.3270 C   0  0  0  0  0  0  0  0  0  0  0  0
   37.3710   25.4710   43.2620 H   0  0  0  0  0  0  0  0  0  0  0  0
   35.7210   25.6000   42.5190 H   0  0  0  0  0  0  0  0  0  0  0  0
   37.1410   24.5620   41.3610 C   0  0  0  0  0  0  0  0  0  0  0  0
   36.1350   23.8620   40.7430 C   0  0  0  0  0  0  0  0  0  0  0  0
   36.3700   22.8840   39.7860 C   0  0  0  0  0  0  0  0  0  0  0  0
   37.6710   22.5910   39.4300 C   0  0  0  0  0  0  0  0  0  0  0  0
   38.7010   23.2990   40.0550 C   0  0  0  0  0  0  0  0  0  0  0  0
   38.4210   24.2770   41.0170 C   0  0  0  0  0  0  0  0  0  0  0  0
   35.1180   24.1110   41.0400 H   0  0  0  0  0  0  0  0  0  0  0  0
   35.4880   22.4150   39.3860 H   0  0  0  0  0  0  0  0  0  0  0  0
   37.8000   21.8360   38.6920 H   0  0  0  0  0  0  0  0  0  0  0  0
   39.6710   22.9840   39.6930 H   0  0  0  0  0  0  0  0  0  0  0  0
   39.6680   24.7600   41.6120 C   0  0  0  0  0  0  0  0  0  0  0  0
   40.1590   24.6700   42.9990 C   0  0  0  0  0  0  0  0  0  0  0  0
   39.6510   24.2530   43.8410 H   0  0  0  0  0  0  0  0  0  0  0  0
   41.4130   25.1600   43.1500 C   0  0  0  0  0  3  0  0  0  0  0  0
   42.2120   25.6960   42.1850 C   0  0  0  0  0  3  0  0  0  0  0  0
   41.0060   25.4990   40.7410 S   0  0  0  0  0  0  0  0  0  0  0  0
   37.7720   27.9080   42.5630 C   0  0  0  0  0  3  0  0  0  0  0  0
   37.1930   26.9920   41.8050 C   0  0  0  0  0  3  0  0  0  0  0  0
   39.4190   29.7770   42.4190 C   0  0  0  0  0  0  0  0  0  0  0  0
   38.1600   29.2170   42.1040 C   0  0  0  0  0  0  0  0  0  0  0  0
   37.3040   29.9740   41.3340 C   0  0  0  0  0  0  0  0  0  0  0  0
   37.6920   31.2200   40.9060 N   0  0  0  0  0  0  0  0  0  0  0  0
   38.9170   31.7110   41.2380 C   0  0  0  0  0  0  0  0  0  0  0  0
   39.7690   31.0040   41.9820 N   0  0  0  0  0  0  0  0  0  0  0  0
   40.1040   29.1940   43.0230 H   0  0  0  0  0  0  0  0  0  0  0  0
   36.3240   29.6380   41.0400 H   0  0  0  0  0  0  0  0  0  0  0  0
   39.3410   33.0220   40.7900 C   0  0  0  0  0  0  0  0  0  0  0  0
   38.6450   34.1390   40.5760 C   0  0  0  0  0  0  0  0  0  0  0  0
   39.2540   35.2860   40.1550 C   0  0  0  0  0  0  0  0  0  0  0  0
   40.6660   35.1780   39.9710 C   0  0  0  0  0  0  0  0  0  0  0  0
   41.0360   33.4190   40.4160 S   0  0  0  0  0  0  0  0  0  0  0  0
   37.5710   34.1320   40.7420 H   0  0  0  0  0  0  0  0  0  0  0  0
   38.8160   36.2330   39.9510 H   0  0  0  0  0  0  0  0  0  0  0  0
   41.3560   35.9220   39.6540 H   0  0  0  0  0  0  0  0  0  0  0  0
  1  3  1  0  0  0  0
  1  2  1  0  0  0  0
  4  1  1  0  0  0  0
  5 10  1  0  0  0  0
  5  4  2  0  0  0  0
  6  5  1  0  0  0  0
  7  6  2  0  0  0  0
  7  8  1  0  0  0  0
  8  9  2  0  0  0  0
  9  4  1  0  0  0  0
  9 14  1  0  0  0  0
 11  6  1  0  0  0  0
 12  7  1  0  0  0  0
 13  8  1  0  0  0  0
 14 15  2  0  0  0  0
 15 17  1  0  0  0  0
 15 16  1  0  0  0  0
 18 17  2  0  0  0  0
 19 14  1  0  0  0  0
 19 18  1  0  0  0  0
 21  1  1  0  0  0  0
 21 20  2  0  0  0  0
 22 28  1  0  0  0  0
 23 22  1  0  0  0  0
 23 20  1  0  0  0  0
 24 23  2  0  0  0  0
 25 26  2  0  0  0  0
 25 24  1  0  0  0  0
 26 27  1  0  0  0  0
 27 22  2  0  0  0  0
 29 24  1  0  0  0  0
 30 26  1  0  0  0  0
 31 35  1  0  0  0  0
 31 30  2  0  0  0  0
 32 31  1  0  0  0  0
 33 32  2  0  0  0  0
 33 34  1  0  0  0  0
 34 30  1  0  0  0  0
 36 32  1  0  0  0  0
 37 33  1  0  0  0  0
M  END
>  <minimizedAffinity>
-5.955832

$$$$

 OpenBabel03242517423D

 37 40  0  0  0  0  0  0  0  0999 V2000
   35.8940   30.2580   39.9620 C   0  0  0  0  0  0  0  0  0  0  0  0
   35.5870   30.2410   41.0140 H   0  0  0  0  0  0  0  0  0  0  0  0
   35.1880   30.8890   39.3680 H   0  0  0  0  0  0  0  0  0  0  0  0
   35.8510   28.8900   39.4020 C   0  0  0  0  0  0  0  0  0  0  0  0
   35.1920   28.6430   38.2240 C   0  0  0  0  0  0  0  0  0  0  0  0
   35.1640   27.3930   37.6190 C   0  0  0  0  0  0  0  0  0  0  0  0
   35.8260   26.3410   38.2200 C   0  0  0  0  0  0  0  0  0  0  0  0
   36.4990   26.5860   39.4200 C   0  0  0  0  0  0  0  0  0  0  0  0
   36.5010   27.8600   39.9980 C   0  0  0  0  0  0  0  0  0  0  0  0
   34.6780   29.4880   37.7690 H   0  0  0  0  0  0  0  0  0  0  0  0
   34.6080   27.3420   36.7000 H   0  0  0  0  0  0  0  0  0  0  0  0
   35.7770   25.4040   37.7190 H   0  0  0  0  0  0  0  0  0  0  0  0
   36.9780   25.6880   39.7920 H   0  0  0  0  0  0  0  0  0  0  0  0
   37.1500   27.8110   41.3090 C   0  0  0  0  0  0  0  0  0  0  0  0
   36.5640   27.7600   42.6610 C   0  0  0  0  0  0  0  0  0  0  0  0
   35.5280   27.7870   42.9200 H   0  0  0  0  0  0  0  0  0  0  0  0
   37.4950   27.6330   43.6370 C   0  0  0  0  0  3  0  0  0  0  0  0
   38.8470   27.5520   43.4840 C   0  0  0  0  0  3  0  0  0  0  0  0
   38.8800   27.6740   41.5970 S   0  0  0  0  0  0  0  0  0  0  0  0
   37.8120   31.5040   40.9080 C   0  0  0  0  0  3  0  0  0  0  0  0
   37.2700   30.8520   39.8920 C   0  0  0  0  0  3  0  0  0  0  0  0
   40.2550   31.3860   41.4040 C   0  0  0  0  0  0  0  0  0  0  0  0
   39.1330   32.0780   40.8940 C   0  0  0  0  0  0  0  0  0  0  0  0
   39.3470   33.3370   40.3750 C   0  0  0  0  0  0  0  0  0  0  0  0
   40.6140   33.8660   40.3710 N   0  0  0  0  0  0  0  0  0  0  0  0
   41.6590   33.1560   40.8760 C   0  0  0  0  0  0  0  0  0  0  0  0
   41.4870   31.9350   41.3850 N   0  0  0  0  0  0  0  0  0  0  0  0
   40.1040   30.3940   41.8160 H   0  0  0  0  0  0  0  0  0  0  0  0
   38.5600   33.9440   39.9620 H   0  0  0  0  0  0  0  0  0  0  0  0
   43.0020   33.7010   40.8730 C   0  0  0  0  0  0  0  0  0  0  0  0
   43.9780   33.6140   39.9670 C   0  0  0  0  0  0  0  0  0  0  0  0
   45.1850   34.2210   40.1640 C   0  0  0  0  0  0  0  0  0  0  0  0
   45.3000   34.9350   41.3950 C   0  0  0  0  0  0  0  0  0  0  0  0
   43.6520   34.6890   42.2040 S   0  0  0  0  0  0  0  0  0  0  0  0
   43.8030   33.0490   39.0560 H   0  0  0  0  0  0  0  0  0  0  0  0
   46.0350   34.2280   39.5270 H   0  0  0  0  0  0  0  0  0  0  0  0
   46.1280   35.4850   41.7730 H   0  0  0  0  0  0  0  0  0  0  0  0
  1  2  1  0  0  0  0
  3  1  1  0  0  0  0
  4  1  1  0  0  0  0
  4  9  1  0  0  0  0
  5  4  2  0  0  0  0
  6  7  2  0  0  0  0
  6  5  1  0  0  0  0
  7  8  1  0  0  0  0
  8 13  1  0  0  0  0
  8  9  2  0  0  0  0
  9 14  1  0  0  0  0
 10  5  1  0  0  0  0
 11  6  1  0  0  0  0
 12  7  1  0  0  0  0
 14 19  1  0  0  0  0
 14 15  2  0  0  0  0
 15 16  1  0  0  0  0
 15 17  1  0  0  0  0
 18 17  2  0  0  0  0
 19 18  1  0  0  0  0
 21  1  1  0  0  0  0
 21 20  2  0  0  0  0
 22 28  1  0  0  0  0
 23 20  1  0  0  0  0
 23 22  2  0  0  0  0
 24 23  1  0  0  0  0
 25 24  2  0  0  0  0
 25 26  1  0  0  0  0
 26 27  2  0  0  0  0
 27 22  1  0  0  0  0
 29 24  1  0  0  0  0
 30 26  1  0  0  0  0
 30 34  1  0  0  0  0
 31 32  1  0  0  0  0
 31 30  2  0  0  0  0
 32 33  2  0  0  0  0
 33 37  1  0  0  0  0
 33 34  1  0  0  0  0
 35 31  1  0  0  0  0
 36 32  1  0  0  0  0
M  END
>  <minimizedAffinity>
-5.63955069

$$$$

 OpenBabel03242517423D

 37 40  0  0  0  0  0  0  0  0999 V2000
   37.6780   27.8810   43.1170 C   0  0  0  0  0  0  0  0  0  0  0  0
   37.8770   27.4420   44.1010 H   0  0  0  0  0  0  0  0  0  0  0  0
   36.7800   28.5440   43.1670 H   0  0  0  0  0  0  0  0  0  0  0  0
   37.3910   26.8110   42.1370 C   0  0  0  0  0  0  0  0  0  0  0  0
   37.5670   25.4940   42.4770 C   0  0  0  0  0  0  0  0  0  0  0  0
   37.2620   24.4430   41.6220 C   0  0  0  0  0  0  0  0  0  0  0  0
   36.7560   24.7230   40.3680 C   0  0  0  0  0  0  0  0  0  0  0  0
   36.5740   26.0630   40.0150 C   0  0  0  0  0  0  0  0  0  0  0  0
   36.8970   27.0920   40.9060 C   0  0  0  0  0  0  0  0  0  0  0  0
   37.9660   25.2980   43.4710 H   0  0  0  0  0  0  0  0  0  0  0  0
   37.4510   23.4610   42.0180 H   0  0  0  0  0  0  0  0  0  0  0  0
   36.5360   23.8850   39.7500 H   0  0  0  0  0  0  0  0  0  0  0  0
   36.1720   26.1540   39.0130 H   0  0  0  0  0  0  0  0  0  0  0  0
   36.7480   28.3890   40.2430 C   0  0  0  0  0  0  0  0  0  0  0  0
   35.7800   29.4750   40.4810 C   0  0  0  0  0  0  0  0  0  0  0  0
   34.9730   29.4820   41.1810 H   0  0  0  0  0  0  0  0  0  0  0  0
   36.0150   30.5710   39.7200 C   0  0  0  0  0  3  0  0  0  0  0  0
   37.0120   30.7430   38.8060 C   0  0  0  0  0  3  0  0  0  0  0  0
   37.8230   29.0470   39.0160 S   0  0  0  0  0  0  0  0  0  0  0  0
   38.8270   30.0120   42.6000 C   0  0  0  0  0  3  0  0  0  0  0  0
   38.8760   28.6960   42.7250 C   0  0  0  0  0  3  0  0  0  0  0  0
   41.2030   30.7200   42.8880 C   0  0  0  0  0  0  0  0  0  0  0  0
   39.9510   30.8380   42.2410 C   0  0  0  0  0  0  0  0  0  0  0  0
   39.8410   31.7800   41.2410 C   0  0  0  0  0  0  0  0  0  0  0  0
   40.9250   32.5570   40.9140 N   0  0  0  0  0  0  0  0  0  0  0  0
   42.1070   32.4020   41.5700 C   0  0  0  0  0  0  0  0  0  0  0  0
   42.2470   31.4990   42.5420 N   0  0  0  0  0  0  0  0  0  0  0  0
   41.3060   29.9840   43.6760 H   0  0  0  0  0  0  0  0  0  0  0  0
   38.9320   31.9470   40.6880 H   0  0  0  0  0  0  0  0  0  0  0  0
   43.2600   33.2120   41.2310 C   0  0  0  0  0  0  0  0  0  0  0  0
   43.9660   33.2960   40.1030 C   0  0  0  0  0  0  0  0  0  0  0  0
   45.0300   34.1450   39.9930 C   0  0  0  0  0  0  0  0  0  0  0  0
   45.3030   34.9130   41.1650 C   0  0  0  0  0  0  0  0  0  0  0  0
   44.0060   34.3620   42.3670 S   0  0  0  0  0  0  0  0  0  0  0  0
   43.6870   32.6740   39.2570 H   0  0  0  0  0  0  0  0  0  0  0  0
   45.6670   34.3040   39.1580 H   0  0  0  0  0  0  0  0  0  0  0  0
   46.0670   35.6350   41.3260 H   0  0  0  0  0  0  0  0  0  0  0  0
  1  3  1  0  0  0  0
  1  2  1  0  0  0  0
  4  5  1  0  0  0  0
  4  1  1  0  0  0  0
  5 10  1  0  0  0  0
  6 11  1  0  0  0  0
  6  5  2  0  0  0  0
  7  6  1  0  0  0  0
  8  7  2  0  0  0  0
  8  9  1  0  0  0  0
  9  4  2  0  0  0  0
 12  7  1  0  0  0  0
 13  8  1  0  0  0  0
 14 15  2  0  0  0  0
 14  9  1  0  0  0  0
 15 16  1  0  0  0  0
 17 15  1  0  0  0  0
 18 19  1  0  0  0  0
 18 17  2  0  0  0  0
 19 14  1  0  0  0  0
 20 21  2  0  0  0  0
 21  1  1  0  0  0  0
 22 28  1  0  0  0  0
 23 20  1  0  0  0  0
 23 22  2  0  0  0  0
 24 23  1  0  0  0  0
 25 24  2  0  0  0  0
 25 26  1  0  0  0  0
 26 27  2  0  0  0  0
 27 22  1  0  0  0  0
 29 24  1  0  0  0  0
 30 26  1  0  0  0  0
 30 34  1  0  0  0  0
 31 30  2  0  0  0  0
 32 31  1  0  0  0  0
 32 33  2  0  0  0  0
 33 37  1  0  0  0  0
 33 34  1  0  0  0  0
 35 31  1  0  0  0  0
 36 32  1  0  0  0  0
M  END
>  <minimizedAffinity>
-5.61964178

$$$$

 OpenBabel03242517423D

 37 40  0  0  0  0  0  0  0  0999 V2000
   38.8170   27.3030   43.6500 C   0  0  0  0  0  0  0  0  0  0  0  0
   38.8850   28.2310   44.2290 H   0  0  0  0  0  0  0  0  0  0  0  0
   38.1600   26.5690   44.1770 H   0  0  0  0  0  0  0  0  0  0  0  0
   40.1580   26.6910   43.5210 C   0  0  0  0  0  0  0  0  0  0  0  0
   41.2420   27.2600   44.1400 C   0  0  0  0  0  0  0  0  0  0  0  0
   42.5140   26.7040   44.1040 C   0  0  0  0  0  0  0  0  0  0  0  0
   42.7110   25.5230   43.4170 C   0  0  0  0  0  0  0  0  0  0  0  0
   41.6110   24.9380   42.7840 C   0  0  0  0  0  0  0  0  0  0  0  0
   40.3460   25.5330   42.8430 C   0  0  0  0  0  0  0  0  0  0  0  0
   41.0620   28.1910   44.6760 H   0  0  0  0  0  0  0  0  0  0  0  0
   43.2710   27.2580   44.6310 H   0  0  0  0  0  0  0  0  0  0  0  0
   43.7010   25.1350   43.4190 H   0  0  0  0  0  0  0  0  0  0  0  0
   41.8890   24.0190   42.2820 H   0  0  0  0  0  0  0  0  0  0  0  0
   39.4110   24.8010   41.9860 C   0  0  0  0  0  0  0  0  0  0  0  0
   38.1590   24.1000   42.3240 C   0  0  0  0  0  0  0  0  0  0  0  0
   37.7280   23.9740   43.2930 H   0  0  0  0  0  0  0  0  0  0  0  0
   37.5160   23.6110   41.2360 C   0  0  0  0  0  3  0  0  0  0  0  0
   37.9050   23.7080   39.9330 C   0  0  0  0  0  3  0  0  0  0  0  0
   39.5010   24.6780   40.2340 S   0  0  0  0  0  0  0  0  0  0  0  0
   36.9220   27.5440   42.0760 C   0  0  0  0  0  3  0  0  0  0  0  0
   38.2200   27.6350   42.3140 C   0  0  0  0  0  3  0  0  0  0  0  0
   35.3950   28.9420   40.6830 C   0  0  0  0  0  0  0  0  0  0  0  0
   36.3010   27.8650   40.8170 C   0  0  0  0  0  0  0  0  0  0  0  0
   36.5750   27.1230   39.6880 C   0  0  0  0  0  0  0  0  0  0  0  0
   35.9720   27.4450   38.4970 N   0  0  0  0  0  0  0  0  0  0  0  0
   35.1070   28.4930   38.4240 C   0  0  0  0  0  0  0  0  0  0  0  0
   34.8200   29.2320   39.4980 N   0  0  0  0  0  0  0  0  0  0  0  0
   35.1690   29.5360   41.5610 H   0  0  0  0  0  0  0  0  0  0  0  0
   37.2500   26.2840   39.6850 H   0  0  0  0  0  0  0  0  0  0  0  0
   34.4680   28.8470   37.1730 C   0  0  0  0  0  0  0  0  0  0  0  0
   34.9790   29.0470   35.9580 C   0  0  0  0  0  0  0  0  0  0  0  0
   34.1830   29.3710   34.8970 C   0  0  0  0  0  0  0  0  0  0  0  0
   32.7930   29.4720   35.2030 C   0  0  0  0  0  0  0  0  0  0  0  0
   32.7120   29.0940   37.0150 S   0  0  0  0  0  0  0  0  0  0  0  0
   36.0520   28.9480   35.8130 H   0  0  0  0  0  0  0  0  0  0  0  0
   34.4650   29.5530   33.8880 H   0  0  0  0  0  0  0  0  0  0  0  0
   31.9820   29.7060   34.5570 H   0  0  0  0  0  0  0  0  0  0  0  0
  1  3  1  0  0  0  0
  1  2  1  0  0  0  0
  4  1  1  0  0  0  0
  4  5  1  0  0  0  0
  5 10  1  0  0  0  0
  6  5  2  0  0  0  0
  6 11  1  0  0  0  0
  7 12  1  0  0  0  0
  7  6  1  0  0  0  0
  8  9  1  0  0  0  0
  8  7  2  0  0  0  0
  9  4  2  0  0  0  0
 13  8  1  0  0  0  0
 14 15  2  0  0  0  0
 14  9  1  0  0  0  0
 15 16  1  0  0  0  0
 17 15  1  0  0  0  0
 18 19  1  0  0  0  0
 18 17  2  0  0  0  0
 19 14  1  0  0  0  0
 20 21  2  0  0  0  0
 21  1  1  0  0  0  0
 22 23  1  0  0  0  0
 22 28  1  0  0  0  0
 23 20  1  0  0  0  0
 24 23  2  0  0  0  0
 25 24  1  0  0  0  0
 26 25  2  0  0  0  0
 26 27  1  0  0  0  0
 27 22  2  0  0  0  0
 29 24  1  0  0  0  0
 30 26  1  0  0  0  0
 31 30  2  0  0  0  0
 32 33  2  0  0  0  0
 32 31  1  0  0  0  0
 33 34  1  0  0  0  0
 34 30  1  0  0  0  0
 35 31  1  0  0  0  0
 36 32  1  0  0  0  0
 37 33  1  0  0  0  0
M  END
>  <minimizedAffinity>
-5.58325148

$$$$

 OpenBabel03242517423D

 37 40  0  0  0  0  0  0  0  0999 V2000
   37.2540   27.2030   39.6770 C   0  0  0  0  0  0  0  0  0  0  0  0
   37.3230   26.1100   39.6390 H   0  0  0  0  0  0  0  0  0  0  0  0
   38.1460   27.6610   39.1830 H   0  0  0  0  0  0  0  0  0  0  0  0
   37.2380   27.6590   41.0840 C   0  0  0  0  0  0  0  0  0  0  0  0
   37.0170   26.7640   42.1000 C   0  0  0  0  0  0  0  0  0  0  0  0
   37.0450   27.1180   43.4420 C   0  0  0  0  0  0  0  0  0  0  0  0
   37.3070   28.4300   43.7840 C   0  0  0  0  0  0  0  0  0  0  0  0
   37.5340   29.3470   42.7550 C   0  0  0  0  0  0  0  0  0  0  0  0
   37.4940   28.9480   41.4140 C   0  0  0  0  0  0  0  0  0  0  0  0
   36.8120   25.7350   41.8050 H   0  0  0  0  0  0  0  0  0  0  0  0
   36.8520   26.3160   44.1320 H   0  0  0  0  0  0  0  0  0  0  0  0
   37.3200   28.6530   44.8250 H   0  0  0  0  0  0  0  0  0  0  0  0
   37.7290   30.3370   43.1470 H   0  0  0  0  0  0  0  0  0  0  0  0
   37.6210   30.1180   40.5430 C   0  0  0  0  0  0  0  0  0  0  0  0
   36.6430   31.1720   40.2150 C   0  0  0  0  0  0  0  0  0  0  0  0
   35.6290   31.2400   40.5430 H   0  0  0  0  0  0  0  0  0  0  0  0
   37.1610   32.1500   39.4330 C   0  0  0  0  0  3  0  0  0  0  0  0
   38.4340   32.2360   38.9530 C   0  0  0  0  0  3  0  0  0  0  0  0
   39.0890   30.6410   39.7280 S   0  0  0  0  0  0  0  0  0  0  0  0
   36.0540   28.3200   37.8220 C   0  0  0  0  0  3  0  0  0  0  0  0
   36.0130   27.6130   38.9380 C   0  0  0  0  0  3  0  0  0  0  0  0
   34.9510   28.9740   35.6810 C   0  0  0  0  0  0  0  0  0  0  0  0
   34.8930   28.7240   37.0710 C   0  0  0  0  0  0  0  0  0  0  0  0
   33.6730   28.8820   37.6930 C   0  0  0  0  0  0  0  0  0  0  0  0
   32.5790   29.2670   36.9590 N   0  0  0  0  0  0  0  0  0  0  0  0
   32.6910   29.4950   35.6220 C   0  0  0  0  0  0  0  0  0  0  0  0
   33.8570   29.3510   34.9900 N   0  0  0  0  0  0  0  0  0  0  0  0
   35.9030   28.8540   35.1770 H   0  0  0  0  0  0  0  0  0  0  0  0
   33.5250   28.7160   38.7460 H   0  0  0  0  0  0  0  0  0  0  0  0
   31.5420   29.8970   34.8350 C   0  0  0  0  0  0  0  0  0  0  0  0
   31.3120   31.0060   34.1310 C   0  0  0  0  0  0  0  0  0  0  0  0
   30.1450   31.1820   33.4450 C   0  0  0  0  0  0  0  0  0  0  0  0
   29.2230   30.0970   33.5490 C   0  0  0  0  0  0  0  0  0  0  0  0
   30.0950   28.8790   34.6400 S   0  0  0  0  0  0  0  0  0  0  0  0
   32.0710   31.7830   34.1060 H   0  0  0  0  0  0  0  0  0  0  0  0
   29.8430   32.0110   32.8530 H   0  0  0  0  0  0  0  0  0  0  0  0
   28.2590   29.9960   33.1110 H   0  0  0  0  0  0  0  0  0  0  0  0
  1  4  1  0  0  0  0
  2  1  1  0  0  0  0
  3  1  1  0  0  0  0
  4  9  2  0  0  0  0
  4  5  1  0  0  0  0
  5  6  2  0  0  0  0
  6  7  1  0  0  0  0
  6 11  1  0  0  0  0
  7 12  1  0  0  0  0
  8 13  1  0  0  0  0
  8  7  2  0  0  0  0
  9  8  1  0  0  0  0
 10  5  1  0  0  0  0
 14  9  1  0  0  0  0
 15 16  1  0  0  0  0
 15 14  2  0  0  0  0
 17 15  1  0  0  0  0
 18 17  2  0  0  0  0
 18 19  1  0  0  0  0
 19 14  1  0  0  0  0
 20 21  2  0  0  0  0
 21  1  1  0  0  0  0
 22 23  1  0  0  0  0
 23 24  2  0  0  0  0
 23 20  1  0  0  0  0
 24 29  1  0  0  0  0
 25 24  1  0  0  0  0
 26 25  2  0  0  0  0
 27 26  1  0  0  0  0
 27 22  2  0  0  0  0
 28 22  1  0  0  0  0
 30 26  1  0  0  0  0
 31 30  2  0  0  0  0
 32 33  2  0  0  0  0
 32 31  1  0  0  0  0
 33 34  1  0  0  0  0
 34 30  1  0  0  0  0
 35 31  1  0  0  0  0
 36 32  1  0  0  0  0
 37 33  1  0  0  0  0
M  END
>  <minimizedAffinity>
-5.50715351

$$$$

 OpenBabel03242517423D

 37 40  0  0  0  0  0  0  0  0999 V2000
   32.0620   29.5030   36.5120 C   0  0  0  0  0  0  0  0  0  0  0  0
   32.6280   30.2510   35.9440 H   0  0  0  0  0  0  0  0  0  0  0  0
   31.7030   28.6960   35.8290 H   0  0  0  0  0  0  0  0  0  0  0  0
   30.8730   30.1320   37.1270 C   0  0  0  0  0  0  0  0  0  0  0  0
   30.6230   29.9780   38.4670 C   0  0  0  0  0  0  0  0  0  0  0  0
   29.5560   30.5880   39.1140 C   0  0  0  0  0  0  0  0  0  0  0  0
   28.7000   31.3900   38.3860 C   0  0  0  0  0  0  0  0  0  0  0  0
   28.9480   31.5510   37.0200 C   0  0  0  0  0  0  0  0  0  0  0  0
   30.0340   30.9160   36.4070 C   0  0  0  0  0  0  0  0  0  0  0  0
   31.3120   29.3410   39.0200 H   0  0  0  0  0  0  0  0  0  0  0  0
   29.4780   30.3780   40.1660 H   0  0  0  0  0  0  0  0  0  0  0  0
   27.8980   31.8370   38.9250 H   0  0  0  0  0  0  0  0  0  0  0  0
   28.2140   32.2000   36.5610 H   0  0  0  0  0  0  0  0  0  0  0  0
   29.9850   31.1330   34.9600 C   0  0  0  0  0  0  0  0  0  0  0  0
   30.4260   32.2860   34.1540 C   0  0  0  0  0  0  0  0  0  0  0  0
   30.8380   33.2050   34.5090 H   0  0  0  0  0  0  0  0  0  0  0  0
   30.2970   32.0810   32.8210 C   0  0  0  0  0  3  0  0  0  0  0  0
   29.8230   30.9640   32.1990 C   0  0  0  0  0  3  0  0  0  0  0  0
   29.4680   29.9560   33.7590 S   0  0  0  0  0  0  0  0  0  0  0  0
   34.2450   29.2850   37.6590 C   0  0  0  0  0  3  0  0  0  0  0  0
   32.9820   28.9120   37.5400 C   0  0  0  0  0  3  0  0  0  0  0  0
   35.0310   29.0470   40.0150 C   0  0  0  0  0  0  0  0  0  0  0  0
   35.1610   28.7580   38.6380 C   0  0  0  0  0  0  0  0  0  0  0  0
   36.2060   27.9440   38.2560 C   0  0  0  0  0  0  0  0  0  0  0  0
   37.0680   27.4510   39.2050 N   0  0  0  0  0  0  0  0  0  0  0  0
   36.8970   27.7620   40.5190 C   0  0  0  0  0  0  0  0  0  0  0  0
   35.8950   28.5470   40.9210 N   0  0  0  0  0  0  0  0  0  0  0  0
   34.2140   29.6850   40.3320 H   0  0  0  0  0  0  0  0  0  0  0  0
   36.3900   27.6640   37.2330 H   0  0  0  0  0  0  0  0  0  0  0  0
   37.7960   27.2450   41.5310 C   0  0  0  0  0  0  0  0  0  0  0  0
   38.5150   27.8720   42.4630 C   0  0  0  0  0  0  0  0  0  0  0  0
   39.3040   27.1800   43.3360 C   0  0  0  0  0  0  0  0  0  0  0  0
   39.2860   25.7630   43.1620 C   0  0  0  0  0  0  0  0  0  0  0  0
   38.1280   25.5080   41.7390 S   0  0  0  0  0  0  0  0  0  0  0  0
   38.4680   28.9560   42.5240 H   0  0  0  0  0  0  0  0  0  0  0  0
   39.9190   27.5580   44.1160 H   0  0  0  0  0  0  0  0  0  0  0  0
   39.8080   25.0170   43.7110 H   0  0  0  0  0  0  0  0  0  0  0  0
  1  4  1  0  0  0  0
  1 21  1  0  0  0  0
  2  1  1  0  0  0  0
  3  1  1  0  0  0  0
  4  5  1  0  0  0  0
  5 10  1  0  0  0  0
  5  6  2  0  0  0  0
  6 11  1  0  0  0  0
  7 12  1  0  0  0  0
  7  6  1  0  0  0  0
  8  7  2  0  0  0  0
  9  8  1  0  0  0  0
  9  4  2  0  0  0  0
 13  8  1  0  0  0  0
 14  9  1  0  0  0  0
 15 16  1  0  0  0  0
 15 14  2  0  0  0  0
 17 15  1  0  0  0  0
 18 17  2  0  0  0  0
 18 19  1  0  0  0  0
 19 14  1  0  0  0  0
 20 23  1  0  0  0  0
 21 20  2  0  0  0  0
 22 28  1  0  0  0  0
 22 27  1  0  0  0  0
 23 22  2  0  0  0  0
 24 23  1  0  0  0  0
 24 25  2  0  0  0  0
 25 26  1  0  0  0  0
 26 27  2  0  0  0  0
 26 30  1  0  0  0  0
 29 24  1  0  0  0  0
 30 34  1  0  0  0  0
 30 31  2  0  0  0  0
 31 35  1  0  0  0  0
 31 32  1  0  0  0  0
 32 36  1  0  0  0  0
 33 32  2  0  0  0  0
 33 37  1  0  0  0  0
 34 33  1  0  0  0  0
M  END
>  <minimizedAffinity>
-5.4645009

$$$$

 OpenBabel03242517423D

 37 40  0  0  0  0  0  0  0  0999 V2000
   36.8540   28.2930   42.6710 C   0  0  0  0  0  0  0  0  0  0  0  0
   37.0130   27.2820   43.0640 H   0  0  0  0  0  0  0  0  0  0  0  0
   36.1030   28.8340   43.2970 H   0  0  0  0  0  0  0  0  0  0  0  0
   36.3210   28.2200   41.2940 C   0  0  0  0  0  0  0  0  0  0  0  0
   35.5180   29.2200   40.8060 C   0  0  0  0  0  0  0  0  0  0  0  0
   35.0330   29.2370   39.5060 C   0  0  0  0  0  0  0  0  0  0  0  0
   35.3650   28.2050   38.6520 C   0  0  0  0  0  0  0  0  0  0  0  0
   36.1820   27.1820   39.1410 C   0  0  0  0  0  0  0  0  0  0  0  0
   36.6490   27.2020   40.4600 C   0  0  0  0  0  0  0  0  0  0  0  0
   35.2700   30.0230   41.4980 H   0  0  0  0  0  0  0  0  0  0  0  0
   34.4130   30.0810   39.2590 H   0  0  0  0  0  0  0  0  0  0  0  0
   34.9710   28.2620   37.6650 H   0  0  0  0  0  0  0  0  0  0  0  0
   36.3740   26.4350   38.3810 H   0  0  0  0  0  0  0  0  0  0  0  0
   37.3570   25.9560   40.7560 C   0  0  0  0  0  0  0  0  0  0  0  0
   36.8400   24.6470   41.1950 C   0  0  0  0  0  0  0  0  0  0  0  0
   35.8260   24.3900   41.4120 H   0  0  0  0  0  0  0  0  0  0  0  0
   37.8030   23.6980   41.2820 C   0  0  0  0  0  3  0  0  0  0  0  0
   39.1320   23.8440   41.0130 C   0  0  0  0  0  3  0  0  0  0  0  0
   39.0790   25.6720   40.5330 S   0  0  0  0  0  0  0  0  0  0  0  0
   38.4630   30.0090   41.9020 C   0  0  0  0  0  3  0  0  0  0  0  0
   38.1660   29.0210   42.7290 C   0  0  0  0  0  3  0  0  0  0  0  0
   39.9290   31.8540   41.0780 C   0  0  0  0  0  0  0  0  0  0  0  0
   39.7000   30.7470   41.9270 C   0  0  0  0  0  0  0  0  0  0  0  0
   40.7130   30.3910   42.7910 C   0  0  0  0  0  0  0  0  0  0  0  0
   41.8850   31.1070   42.8000 N   0  0  0  0  0  0  0  0  0  0  0  0
   42.0520   32.1650   41.9610 C   0  0  0  0  0  0  0  0  0  0  0  0
   41.0920   32.5360   41.1120 N   0  0  0  0  0  0  0  0  0  0  0  0
   39.1420   32.1470   40.3930 H   0  0  0  0  0  0  0  0  0  0  0  0
   40.6380   29.5650   43.4770 H   0  0  0  0  0  0  0  0  0  0  0  0
   43.2820   32.9320   41.9630 C   0  0  0  0  0  0  0  0  0  0  0  0
   44.4430   32.7170   42.5830 C   0  0  0  0  0  0  0  0  0  0  0  0
   45.4940   33.5780   42.4390 C   0  0  0  0  0  0  0  0  0  0  0  0
   45.2380   34.6950   41.5880 C   0  0  0  0  0  0  0  0  0  0  0  0
   43.4860   34.4420   41.0410 S   0  0  0  0  0  0  0  0  0  0  0  0
   44.5510   31.8390   43.2130 H   0  0  0  0  0  0  0  0  0  0  0  0
   46.4620   33.5200   42.8740 H   0  0  0  0  0  0  0  0  0  0  0  0
   45.8880   35.4920   41.3200 H   0  0  0  0  0  0  0  0  0  0  0  0
  1 21  1  0  0  0  0
  1  2  1  0  0  0  0
  1  3  1  0  0  0  0
  4  1  1  0  0  0  0
  5  4  1  0  0  0  0
  5 10  1  0  0  0  0
  6  5  2  0  0  0  0
  7  8  2  0  0  0  0
  7  6  1  0  0  0  0
  8  9  1  0  0  0  0
  9 14  1  0  0  0  0
  9  4  2  0  0  0  0
 11  6  1  0  0  0  0
 12  7  1  0  0  0  0
 13  8  1  0  0  0  0
 14 15  2  0  0  0  0
 15 17  1  0  0  0  0
 15 16  1  0  0  0  0
 18 17  2  0  0  0  0
 19 14  1  0  0  0  0
 19 18  1  0  0  0  0
 20 23  1  0  0  0  0
 20 21  2  0  0  0  0
 22 27  2  0  0  0  0
 22 23  1  0  0  0  0
 23 24  2  0  0  0  0
 24 25  1  0  0  0  0
 24 29  1  0  0  0  0
 26 30  1  0  0  0  0
 26 25  2  0  0  0  0
 27 26  1  0  0  0  0
 28 22  1  0  0  0  0
 30 31  2  0  0  0  0
 31 35  1  0  0  0  0
 32 31  1  0  0  0  0
 32 36  1  0  0  0  0
 33 32  2  0  0  0  0
 34 33  1  0  0  0  0
 34 30  1  0  0  0  0
 37 33  1  0  0  0  0
M  END
>  <minimizedAffinity>
-5.33969307

$$$$

 OpenBabel03242517423D

 37 40  0  0  0  0  0  0  0  0999 V2000
   36.0170   30.4530   40.3240 C   0  0  0  0  0  0  0  0  0  0  0  0
   35.8270   30.3670   41.4000 H   0  0  0  0  0  0  0  0  0  0  0  0
   35.2730   31.1440   39.8580 H   0  0  0  0  0  0  0  0  0  0  0  0
   35.8650   29.1310   39.6780 C   0  0  0  0  0  0  0  0  0  0  0  0
   35.1320   29.0020   38.5250 C   0  0  0  0  0  0  0  0  0  0  0  0
   34.9990   27.8010   37.8420 C   0  0  0  0  0  0  0  0  0  0  0  0
   35.6280   26.6750   38.3350 C   0  0  0  0  0  0  0  0  0  0  0  0
   36.3760   26.7980   39.5090 C   0  0  0  0  0  0  0  0  0  0  0  0
   36.4830   28.0280   40.1680 C   0  0  0  0  0  0  0  0  0  0  0  0
   34.6460   29.9030   38.1560 H   0  0  0  0  0  0  0  0  0  0  0  0
   34.3940   27.8440   36.9530 H   0  0  0  0  0  0  0  0  0  0  0  0
   35.4980   25.7790   37.7760 H   0  0  0  0  0  0  0  0  0  0  0  0
   36.8200   25.8520   39.7930 H   0  0  0  0  0  0  0  0  0  0  0  0
   37.1950   27.8530   41.4350 C   0  0  0  0  0  0  0  0  0  0  0  0
   36.6770   27.7180   42.8080 C   0  0  0  0  0  0  0  0  0  0  0  0
   35.6580   27.7630   43.1240 H   0  0  0  0  0  0  0  0  0  0  0  0
   37.6500   27.4810   43.7210 C   0  0  0  0  0  3  0  0  0  0  0  0
   38.9890   27.3620   43.4890 C   0  0  0  0  0  3  0  0  0  0  0  0
   38.9300   27.6290   41.6180 S   0  0  0  0  0  0  0  0  0  0  0  0
   38.1340   30.7490   39.0760 C   0  0  0  0  0  3  0  0  0  0  0  0
   37.3980   31.0120   40.1430 C   0  0  0  0  0  3  0  0  0  0  0  0
   40.5090   31.0690   39.7720 C   0  0  0  0  0  0  0  0  0  0  0  0
   39.4560   31.2730   38.8500 C   0  0  0  0  0  0  0  0  0  0  0  0
   39.7410   31.9990   37.7140 C   0  0  0  0  0  0  0  0  0  0  0  0
   41.0090   32.4890   37.5180 N   0  0  0  0  0  0  0  0  0  0  0  0
   41.9850   32.2630   38.4380 C   0  0  0  0  0  0  0  0  0  0  0  0
   41.7430   31.5640   39.5490 N   0  0  0  0  0  0  0  0  0  0  0  0
   40.3010   30.5000   40.6710 H   0  0  0  0  0  0  0  0  0  0  0  0
   39.0110   32.2090   36.9520 H   0  0  0  0  0  0  0  0  0  0  0  0
   43.3280   32.7710   38.2420 C   0  0  0  0  0  0  0  0  0  0  0  0
   43.9240   33.8670   38.7110 C   0  0  0  0  0  0  0  0  0  0  0  0
   45.2220   34.1570   38.4030 C   0  0  0  0  0  0  0  0  0  0  0  0
   45.8620   33.2020   37.5560 C   0  0  0  0  0  0  0  0  0  0  0  0
   44.5460   31.9340   37.2480 S   0  0  0  0  0  0  0  0  0  0  0  0
   43.3620   34.5410   39.3520 H   0  0  0  0  0  0  0  0  0  0  0  0
   45.8070   34.9900   38.7100 H   0  0  0  0  0  0  0  0  0  0  0  0
   46.8570   33.2030   37.1820 H   0  0  0  0  0  0  0  0  0  0  0  0
  1  2  1  0  0  0  0
  3  1  1  0  0  0  0
  4  9  1  0  0  0  0
  4  1  1  0  0  0  0
  5  4  2  0  0  0  0
  6  7  2  0  0  0  0
  6  5  1  0  0  0  0
  7  8  1  0  0  0  0
  8 13  1  0  0  0  0
  8  9  2  0  0  0  0
  9 14  1  0  0  0  0
 10  5  1  0  0  0  0
 11  6  1  0  0  0  0
 12  7  1  0  0  0  0
 14 19  1  0  0  0  0
 14 15  2  0  0  0  0
 15 16  1  0  0  0  0
 15 17  1  0  0  0  0
 18 17  2  0  0  0  0
 19 18  1  0  0  0  0
 20 21  2  0  0  0  0
 21  1  1  0  0  0  0
 22 28  1  0  0  0  0
 23 20  1  0  0  0  0
 23 22  2  0  0  0  0
 24 23  1  0  0  0  0
 25 24  2  0  0  0  0
 25 26  1  0  0  0  0
 26 27  2  0  0  0  0
 27 22  1  0  0  0  0
 29 24  1  0  0  0  0
 30 26  1  0  0  0  0
 30 31  2  0  0  0  0
 31 35  1  0  0  0  0
 32 36  1  0  0  0  0
 32 31  1  0  0  0  0
 33 32  2  0  0  0  0
 34 33  1  0  0  0  0
 34 30  1  0  0  0  0
 37 33  1  0  0  0  0
M  END
>  <minimizedAffinity>
-5.32834244

$$$$

 OpenBabel03242517423D

 37 40  0  0  0  0  0  0  0  0999 V2000
   37.4500   27.5810   39.3160 C   0  0  0  0  0  0  0  0  0  0  0  0
   37.4530   26.5480   38.9510 H   0  0  0  0  0  0  0  0  0  0  0  0
   38.4190   28.0790   39.0640 H   0  0  0  0  0  0  0  0  0  0  0  0
   37.3100   27.5940   40.7880 C   0  0  0  0  0  0  0  0  0  0  0  0
   37.3110   28.7820   41.4750 C   0  0  0  0  0  0  0  0  0  0  0  0
   37.1280   28.8640   42.8480 C   0  0  0  0  0  0  0  0  0  0  0  0
   36.9320   27.7030   43.5700 C   0  0  0  0  0  0  0  0  0  0  0  0
   36.9300   26.4890   42.8780 C   0  0  0  0  0  0  0  0  0  0  0  0
   37.1210   26.4510   41.4920 C   0  0  0  0  0  0  0  0  0  0  0  0
   37.4670   29.6840   40.8840 H   0  0  0  0  0  0  0  0  0  0  0  0
   37.1540   29.8600   43.2550 H   0  0  0  0  0  0  0  0  0  0  0  0
   36.7940   27.8170   44.6190 H   0  0  0  0  0  0  0  0  0  0  0  0
   36.7660   25.6550   43.5480 H   0  0  0  0  0  0  0  0  0  0  0  0
   37.2160   25.0610   41.0420 C   0  0  0  0  0  0  0  0  0  0  0  0
   36.2860   24.2590   40.2260 C   0  0  0  0  0  0  0  0  0  0  0  0
   35.3350   24.5590   39.8430 H   0  0  0  0  0  0  0  0  0  0  0  0
   36.7640   23.0250   39.9380 C   0  0  0  0  0  3  0  0  0  0  0  0
   37.9620   22.4940   40.3150 C   0  0  0  0  0  3  0  0  0  0  0  0
   38.5940   23.9930   41.2780 S   0  0  0  0  0  0  0  0  0  0  0  0
   35.7110   27.8220   37.5720 C   0  0  0  0  0  3  0  0  0  0  0  0
   36.3260   28.3080   38.6370 C   0  0  0  0  0  3  0  0  0  0  0  0
   33.4210   28.8140   37.5630 C   0  0  0  0  0  0  0  0  0  0  0  0
   34.6200   28.4750   36.8950 C   0  0  0  0  0  0  0  0  0  0  0  0
   34.7120   28.7940   35.5570 C   0  0  0  0  0  0  0  0  0  0  0  0
   33.6600   29.4150   34.9300 N   0  0  0  0  0  0  0  0  0  0  0  0
   32.5290   29.7190   35.6210 C   0  0  0  0  0  0  0  0  0  0  0  0
   32.4070   29.4250   36.9170 N   0  0  0  0  0  0  0  0  0  0  0  0
   33.3330   28.5700   38.6150 H   0  0  0  0  0  0  0  0  0  0  0  0
   35.5820   28.5780   34.9600 H   0  0  0  0  0  0  0  0  0  0  0  0
   31.4130   30.3800   34.9730 C   0  0  0  0  0  0  0  0  0  0  0  0
   31.3410   31.5510   34.3390 C   0  0  0  0  0  0  0  0  0  0  0  0
   30.1730   31.9870   33.7850 C   0  0  0  0  0  0  0  0  0  0  0  0
   29.0680   31.0960   33.9430 C   0  0  0  0  0  0  0  0  0  0  0  0
   29.7810   29.6730   34.8900 S   0  0  0  0  0  0  0  0  0  0  0  0
   32.2330   32.1670   34.2650 H   0  0  0  0  0  0  0  0  0  0  0  0
   29.9850   32.8910   33.2580 H   0  0  0  0  0  0  0  0  0  0  0  0
   28.0670   31.2080   33.6030 H   0  0  0  0  0  0  0  0  0  0  0  0
  1  4  1  0  0  0  0
  2  1  1  0  0  0  0
  3  1  1  0  0  0  0
  4  5  2  0  0  0  0
  4  9  1  0  0  0  0
  5  6  1  0  0  0  0
  6 11  1  0  0  0  0
  6  7  2  0  0  0  0
  7 12  1  0  0  0  0
  8 13  1  0  0  0  0
  8  7  1  0  0  0  0
  9  8  2  0  0  0  0
 10  5  1  0  0  0  0
 14 19  1  0  0  0  0
 14  9  1  0  0  0  0
 15 14  2  0  0  0  0
 16 15  1  0  0  0  0
 17 15  1  0  0  0  0
 17 18  2  0  0  0  0
 18 19  1  0  0  0  0
 20 21  2  0  0  0  0
 21  1  1  0  0  0  0
 22 28  1  0  0  0  0
 23 22  2  0  0  0  0
 23 20  1  0  0  0  0
 24 23  1  0  0  0  0
 25 24  2  0  0  0  0
 25 26  1  0  0  0  0
 26 27  2  0  0  0  0
 27 22  1  0  0  0  0
 29 24  1  0  0  0  0
 30 26  1  0  0  0  0
 31 30  2  0  0  0  0
 32 33  2  0  0  0  0
 32 31  1  0  0  0  0
 33 34  1  0  0  0  0
 34 30  1  0  0  0  0
 35 31  1  0  0  0  0
 36 32  1  0  0  0  0
 37 33  1  0  0  0  0
M  END
>  <minimizedAffinity>
-5.25111341

$$$$
