
 OpenBabel03252504423D

 42 45  0  0  0  0  0  0  0  0999 V2000
   46.3970   32.1640   47.8060 C   0  0  0  0  0  0  0  0  0  0  0  0
   45.9340   31.8290   49.0420 C   0  0  0  0  0  0  0  0  0  0  0  0
   46.9010   31.1280   49.6330 N   0  0  0  0  0  0  0  0  0  0  0  0
   47.9550   31.0030   48.8330 C   0  0  0  0  0  0  0  0  0  0  0  0
   47.6380   31.6580   47.6730 N   0  0  0  0  0  0  0  0  0  0  0  0
   49.2190   30.3560   49.0090 N   0  0  0  0  0  0  0  0  0  0  0  0
   50.3070   31.1620   49.6090 C   0  0  0  0  0  0  0  0  0  0  0  0
   50.4150   30.6650   51.0460 C   0  0  0  0  0  0  0  0  0  0  0  0
   50.4380   29.1520   51.0670 C   0  0  0  0  0  0  0  0  0  0  0  0
   50.7740   28.6320   49.6770 C   0  0  0  0  0  0  0  0  0  0  0  0
   49.6740   29.0370   48.7140 C   0  0  0  0  0  0  0  0  0  0  0  0
   44.9580   32.0930   49.4480 H   0  0  0  0  0  0  0  0  0  0  0  0
   46.8570   30.7230   50.5990 H   0  0  0  0  0  0  0  0  0  0  0  0
   51.2650   30.9960   49.0940 H   0  0  0  0  0  0  0  0  0  0  0  0
   50.0170   32.2250   49.6600 H   0  0  0  0  0  0  0  0  0  0  0  0
   51.3350   31.0290   51.5540 H   0  0  0  0  0  0  0  0  0  0  0  0
   49.5370   31.0350   51.6370 H   0  0  0  0  0  0  0  0  0  0  0  0
   49.4290   28.7750   51.3130 H   0  0  0  0  0  0  0  0  0  0  0  0
   51.1300   28.7680   51.8180 H   0  0  0  0  0  0  0  0  0  0  0  0
   50.7400   27.5110   49.7630 H   0  0  0  0  0  0  0  0  0  0  0  0
   51.7740   28.9760   49.3360 H   0  0  0  0  0  0  0  0  0  0  0  0
   50.1170   29.0450   47.6980 H   0  0  0  0  0  0  0  0  0  0  0  0
   48.8640   28.2780   48.7070 H   0  0  0  0  0  0  0  0  0  0  0  0
   45.6730   32.9540   46.7770 C   0  0  0  0  0  0  0  0  0  0  0  0
   45.5450   33.9820   47.2110 H   0  0  0  0  0  0  0  0  0  0  0  0
   44.6700   32.5340   46.6010 H   0  0  0  0  0  0  0  0  0  0  0  0
   46.1770   33.9250   44.5590 C   0  0  0  0  0  3  0  0  0  0  0  0
   46.4860   33.1180   45.5500 C   0  0  0  0  0  3  0  0  0  0  0  0
   47.0720   33.9870   43.4070 C   0  0  0  0  0  0  0  0  0  0  0  0
   46.9460   34.9920   42.4250 C   0  0  0  0  0  0  0  0  0  0  0  0
   47.8480   34.9630   41.3690 C   0  0  0  0  0  0  0  0  0  0  0  0
   48.7960   33.9930   41.3140 N   0  0  0  0  0  0  0  0  0  0  0  0
   48.8920   33.0450   42.2670 C   0  0  0  0  0  0  0  0  0  0  0  0
   48.0500   33.0410   43.2900 N   0  0  0  0  0  0  0  0  0  0  0  0
   46.1730   35.7100   42.5530 H   0  0  0  0  0  0  0  0  0  0  0  0
   47.7220   35.7480   40.6350 H   0  0  0  0  0  0  0  0  0  0  0  0
   49.9640   32.1130   42.0190 C   0  0  0  0  0  0  0  0  0  0  0  0
   51.0260   32.1960   41.1930 C   0  0  0  0  0  0  0  0  0  0  0  0
   51.1500   33.0860   40.5900 H   0  0  0  0  0  0  0  0  0  0  0  0
   51.9250   31.1570   41.1340 C   0  0  0  0  0  3  0  0  0  0  0  0
   51.6590   30.0600   41.9630 C   0  0  0  0  0  3  0  0  0  0  0  0
   50.1150   30.5210   42.8270 S   0  0  0  0  0  0  0  0  0  0  0  0
  1  2  2  0  0  0  0
  2 12  1  0  0  0  0
  2  3  1  0  0  0  0
  3 13  1  0  0  0  0
  4  6  1  0  0  0  0
  4  3  1  0  0  0  0
  5  1  1  0  0  0  0
  5  4  2  0  0  0  0
  6  7  1  0  0  0  0
  7 15  1  0  0  0  0
  7  8  1  0  0  0  0
  8  9  1  0  0  0  0
  8 16  1  0  0  0  0
  8 17  1  0  0  0  0
  9 18  1  0  0  0  0
  9 19  1  0  0  0  0
 10 20  1  0  0  0  0
 10  9  1  0  0  0  0
 11  6  1  0  0  0  0
 11 10  1  0  0  0  0
 14  7  1  0  0  0  0
 21 10  1  0  0  0  0
 22 11  1  0  0  0  0
 23 11  1  0  0  0  0
 24 25  1  0  0  0  0
 24  1  1  0  0  0  0
 26 24  1  0  0  0  0
 27 28  2  0  0  0  0
 28 24  1  0  0  0  0
 29 27  1  0  0  0  0
 30 35  1  0  0  0  0
 30 29  2  0  0  0  0
 31 30  1  0  0  0  0
 32 31  2  0  0  0  0
 32 33  1  0  0  0  0
 33 34  2  0  0  0  0
 34 29  1  0  0  0  0
 36 31  1  0  0  0  0
 37 33  1  0  0  0  0
 37 42  1  0  0  0  0
 38 37  2  0  0  0  0
 39 38  1  0  0  0  0
 40 38  1  0  0  0  0
 40 41  2  0  0  0  0
 41 42  1  0  0  0  0
M  END
>  <minimizedAffinity>
-5.91285467

>  <minimizedRMSD>
0.372668982

$$$$
