
 OpenBabel03252504393D

 27 29  0  0  0  0  0  0  0  0999 V2000
   36.5910   27.5630   42.7170 C   0  0  0  0  0  0  0  0  0  0  0  0
   36.3380   27.9130   43.7470 H   0  0  0  0  0  0  0  0  0  0  0  0
   35.9120   26.7900   42.3560 H   0  0  0  0  0  0  0  0  0  0  0  0
   36.5360   28.7450   41.8000 C   0  0  0  0  0  0  0  0  0  0  0  0
   35.6300   28.9540   40.7690 C   0  0  0  0  0  0  0  0  0  0  0  0
   35.9770   30.1410   40.2370 N   0  0  0  0  0  0  0  0  0  0  0  0
   37.0280   30.6690   40.8690 C   0  0  0  0  0  0  0  0  0  0  0  0
   37.3620   29.7960   41.8290 N   0  0  0  0  0  0  0  0  0  0  0  0
   34.8250   28.3080   40.4630 H   0  0  0  0  0  0  0  0  0  0  0  0
   35.4630   30.5800   39.4180 H   0  0  0  0  0  0  0  0  0  0  0  0
   37.6520   31.9200   40.5580 C   0  0  0  0  0  0  0  0  0  0  0  0
   37.2290   33.0140   39.9070 C   0  0  0  0  0  0  0  0  0  0  0  0
   36.2190   32.9990   39.5190 H   0  0  0  0  0  0  0  0  0  0  0  0
   38.0790   34.0820   39.7650 C   0  0  0  0  0  3  0  0  0  0  0  0
   39.3480   33.9610   40.3130 C   0  0  0  0  0  3  0  0  0  0  0  0
   39.3310   32.3060   41.0420 S   0  0  0  0  0  0  0  0  0  0  0  0
   38.8110   27.1540   43.6950 C   0  0  0  0  0  3  0  0  0  0  0  0
   37.9600   26.9740   42.6880 C   0  0  0  0  0  3  0  0  0  0  0  0
   40.1330   26.5190   43.5380 C   0  0  0  0  0  0  0  0  0  0  0  0
   41.2280   26.9290   44.3500 C   0  0  0  0  0  0  0  0  0  0  0  0
   42.4430   26.2920   44.1510 C   0  0  0  0  0  0  0  0  0  0  0  0
   42.5380   25.3230   43.2100 N   0  0  0  0  0  0  0  0  0  0  0  0
   41.4830   24.9460   42.4450 C   0  0  0  0  0  0  0  0  0  0  0  0
   40.3110   25.5500   42.6270 N   0  0  0  0  0  0  0  0  0  0  0  0
   41.0480   27.7070   45.0680 H   0  0  0  0  0  0  0  0  0  0  0  0
   43.2780   26.6020   44.7670 H   0  0  0  0  0  0  0  0  0  0  0  0
   41.5590   24.1720   41.6930 H   0  0  0  0  0  0  0  0  0  0  0  0
  1  2  1  0  0  0  0
  3  1  1  0  0  0  0
  4  8  1  0  0  0  0
  4  1  1  0  0  0  0
  5  4  2  0  0  0  0
  6  5  1  0  0  0  0
  6  7  1  0  0  0  0
  7  8  2  0  0  0  0
  9  5  1  0  0  0  0
 10  6  1  0  0  0  0
 11  7  1  0  0  0  0
 11 16  1  0  0  0  0
 12 11  2  0  0  0  0
 13 12  1  0  0  0  0
 14 12  1  0  0  0  0
 14 15  2  0  0  0  0
 15 16  1  0  0  0  0
 18  1  1  0  0  0  0
 18 17  2  0  0  0  0
 19 17  1  0  0  0  0
 19 20  1  0  0  0  0
 20 25  1  0  0  0  0
 21 20  2  0  0  0  0
 21 26  1  0  0  0  0
 22 21  1  0  0  0  0
 23 24  1  0  0  0  0
 23 22  2  0  0  0  0
 24 19  2  0  0  0  0
 27 23  1  0  0  0  0
M  END
>  <minimizedAffinity>
-5.19794226

$$$$

 OpenBabel03252504393D

 27 29  0  0  0  0  0  0  0  0999 V2000
   39.1060   26.2050   43.4260 C   0  0  0  0  0  0  0  0  0  0  0  0
   40.2020   26.4150   43.4160 H   0  0  0  0  0  0  0  0  0  0  0  0
   38.7680   25.7680   44.3660 H   0  0  0  0  0  0  0  0  0  0  0  0
   38.3860   27.4970   43.1880 C   0  0  0  0  0  0  0  0  0  0  0  0
   37.3580   28.0270   43.9550 C   0  0  0  0  0  0  0  0  0  0  0  0
   37.0390   29.1880   43.3530 N   0  0  0  0  0  0  0  0  0  0  0  0
   37.7980   29.4020   42.2760 C   0  0  0  0  0  0  0  0  0  0  0  0
   38.6220   28.3500   42.1860 N   0  0  0  0  0  0  0  0  0  0  0  0
   36.9140   27.6030   44.8390 H   0  0  0  0  0  0  0  0  0  0  0  0
   36.2750   29.8340   43.7110 H   0  0  0  0  0  0  0  0  0  0  0  0
   37.7200   30.5390   41.4070 C   0  0  0  0  0  0  0  0  0  0  0  0
   36.7290   31.0520   40.6630 C   0  0  0  0  0  0  0  0  0  0  0  0
   35.7750   30.5420   40.6890 H   0  0  0  0  0  0  0  0  0  0  0  0
   36.9640   32.1790   39.9170 C   0  0  0  0  0  3  0  0  0  0  0  0
   38.2370   32.7280   39.9790 C   0  0  0  0  0  3  0  0  0  0  0  0
   39.1110   31.6260   41.1160 S   0  0  0  0  0  0  0  0  0  0  0  0
   37.5040   24.7970   42.2010 C   0  0  0  0  0  3  0  0  0  0  0  0
   38.7510   25.2340   42.3530 C   0  0  0  0  0  3  0  0  0  0  0  0
   37.2900   23.8360   41.1010 C   0  0  0  0  0  0  0  0  0  0  0  0
   36.0830   23.8640   40.3480 C   0  0  0  0  0  0  0  0  0  0  0  0
   35.9460   22.9340   39.3290 C   0  0  0  0  0  0  0  0  0  0  0  0
   36.9470   22.0540   39.0960 N   0  0  0  0  0  0  0  0  0  0  0  0
   38.0900   22.0420   39.8250 C   0  0  0  0  0  0  0  0  0  0  0  0
   38.2350   22.9300   40.8060 N   0  0  0  0  0  0  0  0  0  0  0  0
   35.3500   24.6030   40.6140 H   0  0  0  0  0  0  0  0  0  0  0  0
   35.0280   22.9530   38.7540 H   0  0  0  0  0  0  0  0  0  0  0  0
   38.8900   21.3380   39.6380 H   0  0  0  0  0  0  0  0  0  0  0  0
  1  3  1  0  0  0  0
  2  1  1  0  0  0  0
  4  1  1  0  0  0  0
  4  5  2  0  0  0  0
  5  9  1  0  0  0  0
  6 10  1  0  0  0  0
  6  5  1  0  0  0  0
  7  6  1  0  0  0  0
  8  7  2  0  0  0  0
  8  4  1  0  0  0  0
 11  7  1  0  0  0  0
 12 13  1  0  0  0  0
 12 11  2  0  0  0  0
 14 15  2  0  0  0  0
 14 12  1  0  0  0  0
 15 16  1  0  0  0  0
 16 11  1  0  0  0  0
 17 18  2  0  0  0  0
 18  1  1  0  0  0  0
 19 17  1  0  0  0  0
 20 25  1  0  0  0  0
 20 19  2  0  0  0  0
 21 20  1  0  0  0  0
 22 21  2  0  0  0  0
 22 23  1  0  0  0  0
 23 24  2  0  0  0  0
 24 19  1  0  0  0  0
 26 21  1  0  0  0  0
 27 23  1  0  0  0  0
M  END
>  <minimizedAffinity>
-5.15714169

$$$$

 OpenBabel03252504393D

 27 29  0  0  0  0  0  0  0  0999 V2000
   36.6170   28.4880   39.5820 C   0  0  0  0  0  0  0  0  0  0  0  0
   35.5510   28.2400   39.8020 H   0  0  0  0  0  0  0  0  0  0  0  0
   36.8810   28.3270   38.5360 H   0  0  0  0  0  0  0  0  0  0  0  0
   36.8410   29.9250   39.9380 C   0  0  0  0  0  0  0  0  0  0  0  0
   35.9780   30.7470   40.6510 C   0  0  0  0  0  0  0  0  0  0  0  0
   36.6070   31.9350   40.7180 N   0  0  0  0  0  0  0  0  0  0  0  0
   37.7890   31.8960   40.0990 C   0  0  0  0  0  0  0  0  0  0  0  0
   37.9180   30.6510   39.6220 N   0  0  0  0  0  0  0  0  0  0  0  0
   35.0170   30.4890   41.0610 H   0  0  0  0  0  0  0  0  0  0  0  0
   36.1940   32.7820   41.2090 H   0  0  0  0  0  0  0  0  0  0  0  0
   38.7120   32.9860   39.9820 C   0  0  0  0  0  0  0  0  0  0  0  0
   38.6520   34.2750   40.3500 C   0  0  0  0  0  0  0  0  0  0  0  0
   37.7460   34.6090   40.8360 H   0  0  0  0  0  0  0  0  0  0  0  0
   39.7230   35.0950   40.0970 C   0  0  0  0  0  3  0  0  0  0  0  0
   40.8210   34.5300   39.4630 C   0  0  0  0  0  3  0  0  0  0  0  0
   40.3240   32.8070   39.2260 S   0  0  0  0  0  0  0  0  0  0  0  0
   37.2720   27.3560   41.6650 C   0  0  0  0  0  3  0  0  0  0  0  0
   37.5290   27.6290   40.3880 C   0  0  0  0  0  3  0  0  0  0  0  0
   38.2570   26.4940   42.3470 C   0  0  0  0  0  0  0  0  0  0  0  0
   38.3450   25.1100   42.0260 C   0  0  0  0  0  0  0  0  0  0  0  0
   39.2900   24.3570   42.7040 C   0  0  0  0  0  0  0  0  0  0  0  0
   40.0780   24.9560   43.6270 N   0  0  0  0  0  0  0  0  0  0  0  0
   39.9790   26.2770   43.9200 C   0  0  0  0  0  0  0  0  0  0  0  0
   39.0760   27.0120   43.2760 N   0  0  0  0  0  0  0  0  0  0  0  0
   37.6730   24.7320   41.2770 H   0  0  0  0  0  0  0  0  0  0  0  0
   39.3590   23.3040   42.4610 H   0  0  0  0  0  0  0  0  0  0  0  0
   40.6090   26.7560   44.6580 H   0  0  0  0  0  0  0  0  0  0  0  0
  1  2  1  0  0  0  0
  1  4  1  0  0  0  0
  1 18  1  0  0  0  0
  3  1  1  0  0  0  0
  4  5  2  0  0  0  0
  5  6  1  0  0  0  0
  5  9  1  0  0  0  0
  6 10  1  0  0  0  0
  7  6  1  0  0  0  0
  8  4  1  0  0  0  0
  8  7  2  0  0  0  0
 11  7  1  0  0  0  0
 11 12  2  0  0  0  0
 12 13  1  0  0  0  0
 14 12  1  0  0  0  0
 15 14  2  0  0  0  0
 16 15  1  0  0  0  0
 16 11  1  0  0  0  0
 17 19  1  0  0  0  0
 18 17  2  0  0  0  0
 19 24  1  0  0  0  0
 20 19  2  0  0  0  0
 20 21  1  0  0  0  0
 21 22  2  0  0  0  0
 22 23  1  0  0  0  0
 23 27  1  0  0  0  0
 24 23  2  0  0  0  0
 25 20  1  0  0  0  0
 26 21  1  0  0  0  0
M  END
>  <minimizedAffinity>
-5.09728956

$$$$

 OpenBabel03252504393D

 27 29  0  0  0  0  0  0  0  0999 V2000
   37.1880   28.6660   42.6210 C   0  0  0  0  0  0  0  0  0  0  0  0
   38.1020   28.6470   43.2620 H   0  0  0  0  0  0  0  0  0  0  0  0
   36.2660   28.6180   43.1990 H   0  0  0  0  0  0  0  0  0  0  0  0
   37.2110   29.9300   41.8190 C   0  0  0  0  0  0  0  0  0  0  0  0
   36.1690   30.4510   41.0620 C   0  0  0  0  0  0  0  0  0  0  0  0
   36.6600   31.5870   40.5320 N   0  0  0  0  0  0  0  0  0  0  0  0
   37.9230   31.7950   40.9110 C   0  0  0  0  0  0  0  0  0  0  0  0
   38.2490   30.7640   41.7030 N   0  0  0  0  0  0  0  0  0  0  0  0
   35.1850   30.0370   40.9290 H   0  0  0  0  0  0  0  0  0  0  0  0
   36.0930   32.2200   39.8960 H   0  0  0  0  0  0  0  0  0  0  0  0
   38.7420   32.9070   40.5290 C   0  0  0  0  0  0  0  0  0  0  0  0
   38.4830   34.2110   40.3510 C   0  0  0  0  0  0  0  0  0  0  0  0
   37.4670   34.5410   40.5180 H   0  0  0  0  0  0  0  0  0  0  0  0
   39.5000   35.0520   39.9740 C   0  0  0  0  0  3  0  0  0  0  0  0
   40.7560   34.4890   39.7950 C   0  0  0  0  0  3  0  0  0  0  0  0
   40.4870   32.7410   40.1710 S   0  0  0  0  0  0  0  0  0  0  0  0
   37.0840   26.2500   42.1650 C   0  0  0  0  0  3  0  0  0  0  0  0
   37.1750   27.4940   41.7000 C   0  0  0  0  0  3  0  0  0  0  0  0
   37.0820   25.1830   41.1460 C   0  0  0  0  0  0  0  0  0  0  0  0
   37.6070   23.8960   41.4530 C   0  0  0  0  0  0  0  0  0  0  0  0
   37.5760   22.9390   40.4510 C   0  0  0  0  0  0  0  0  0  0  0  0
   37.0580   23.2610   39.2420 N   0  0  0  0  0  0  0  0  0  0  0  0
   36.5640   24.4940   38.9670 C   0  0  0  0  0  0  0  0  0  0  0  0
   36.5870   25.4210   39.9220 N   0  0  0  0  0  0  0  0  0  0  0  0
   37.9950   23.7430   42.4430 H   0  0  0  0  0  0  0  0  0  0  0  0
   37.9740   21.9590   40.6820 H   0  0  0  0  0  0  0  0  0  0  0  0
   36.1500   24.7510   38.0020 H   0  0  0  0  0  0  0  0  0  0  0  0
  1  3  1  0  0  0  0
  1  2  1  0  0  0  0
  4  1  1  0  0  0  0
  5  4  2  0  0  0  0
  6  7  1  0  0  0  0
  6  5  1  0  0  0  0
  7  8  2  0  0  0  0
  8  4  1  0  0  0  0
  9  5  1  0  0  0  0
 10  6  1  0  0  0  0
 11  7  1  0  0  0  0
 12 13  1  0  0  0  0
 12 11  2  0  0  0  0
 14 12  1  0  0  0  0
 15 14  2  0  0  0  0
 15 16  1  0  0  0  0
 16 11  1  0  0  0  0
 18 17  2  0  0  0  0
 18  1  1  0  0  0  0
 19 20  1  0  0  0  0
 19 17  1  0  0  0  0
 20 25  1  0  0  0  0
 21 26  1  0  0  0  0
 21 20  2  0  0  0  0
 22 21  1  0  0  0  0
 23 22  2  0  0  0  0
 23 24  1  0  0  0  0
 24 19  2  0  0  0  0
 27 23  1  0  0  0  0
M  END
>  <minimizedAffinity>
-5.03839207

$$$$

 OpenBabel03252504393D

 27 29  0  0  0  0  0  0  0  0999 V2000
   37.4080   33.0060   39.6190 C   0  0  0  0  0  0  0  0  0  0  0  0
   36.6050   33.7720   39.7400 H   0  0  0  0  0  0  0  0  0  0  0  0
   37.4420   32.5850   38.6140 H   0  0  0  0  0  0  0  0  0  0  0  0
   38.7200   33.6570   39.9320 C   0  0  0  0  0  0  0  0  0  0  0  0
   38.9350   34.7080   40.8140 C   0  0  0  0  0  0  0  0  0  0  0  0
   40.2590   34.9420   40.7580 N   0  0  0  0  0  0  0  0  0  0  0  0
   40.8650   34.1100   39.9080 C   0  0  0  0  0  0  0  0  0  0  0  0
   39.9030   33.3250   39.4060 N   0  0  0  0  0  0  0  0  0  0  0  0
   38.2020   35.2230   41.4110 H   0  0  0  0  0  0  0  0  0  0  0  0
   40.7370   35.6990   41.3300 H   0  0  0  0  0  0  0  0  0  0  0  0
   42.2670   34.0880   39.6120 C   0  0  0  0  0  0  0  0  0  0  0  0
   43.3600   33.9690   40.3810 C   0  0  0  0  0  0  0  0  0  0  0  0
   43.2060   33.8660   41.4470 H   0  0  0  0  0  0  0  0  0  0  0  0
   44.5990   33.9830   39.7920 C   0  0  0  0  0  3  0  0  0  0  0  0
   44.6460   34.1230   38.4120 C   0  0  0  0  0  3  0  0  0  0  0  0
   42.9020   34.2340   37.9460 S   0  0  0  0  0  0  0  0  0  0  0  0
   37.7600   30.6830   40.3470 C   0  0  0  0  0  3  0  0  0  0  0  0
   37.1850   31.8650   40.5510 C   0  0  0  0  0  3  0  0  0  0  0  0
   37.4540   29.6400   41.3450 C   0  0  0  0  0  0  0  0  0  0  0  0
   36.5770   28.5670   41.0170 C   0  0  0  0  0  0  0  0  0  0  0  0
   36.3310   27.6220   42.0000 C   0  0  0  0  0  0  0  0  0  0  0  0
   36.9230   27.7530   43.2100 N   0  0  0  0  0  0  0  0  0  0  0  0
   37.7550   28.7830   43.5050 C   0  0  0  0  0  0  0  0  0  0  0  0
   38.0000   29.6980   42.5690 N   0  0  0  0  0  0  0  0  0  0  0  0
   36.1590   28.5540   40.0270 H   0  0  0  0  0  0  0  0  0  0  0  0
   35.6650   26.8040   41.7530 H   0  0  0  0  0  0  0  0  0  0  0  0
   38.2270   28.8880   44.4720 H   0  0  0  0  0  0  0  0  0  0  0  0
  1  2  1  0  0  0  0
  1  4  1  0  0  0  0
  1 18  1  0  0  0  0
  3  1  1  0  0  0  0
  4  5  2  0  0  0  0
  5  9  1  0  0  0  0
  6  5  1  0  0  0  0
  6 10  1  0  0  0  0
  7  6  1  0  0  0  0
  8  7  2  0  0  0  0
  8  4  1  0  0  0  0
 11  7  1  0  0  0  0
 11 12  2  0  0  0  0
 12 13  1  0  0  0  0
 14 12  1  0  0  0  0
 15 14  2  0  0  0  0
 16 15  1  0  0  0  0
 16 11  1  0  0  0  0
 17 18  2  0  0  0  0
 17 19  1  0  0  0  0
 19 24  1  0  0  0  0
 20 19  2  0  0  0  0
 20 21  1  0  0  0  0
 21 22  2  0  0  0  0
 22 23  1  0  0  0  0
 23 27  1  0  0  0  0
 24 23  2  0  0  0  0
 25 20  1  0  0  0  0
 26 21  1  0  0  0  0
M  END
>  <minimizedAffinity>
-4.99677801

$$$$

 OpenBabel03252504393D

 27 29  0  0  0  0  0  0  0  0999 V2000
   37.2360   31.2880   38.8650 C   0  0  0  0  0  0  0  0  0  0  0  0
   37.2630   30.5490   38.0290 H   0  0  0  0  0  0  0  0  0  0  0  0
   36.3510   31.9230   38.8390 H   0  0  0  0  0  0  0  0  0  0  0  0
   37.2670   30.5270   40.1550 C   0  0  0  0  0  0  0  0  0  0  0  0
   36.2720   30.4960   41.1230 C   0  0  0  0  0  0  0  0  0  0  0  0
   36.7510   29.6870   42.0860 N   0  0  0  0  0  0  0  0  0  0  0  0
   37.9640   29.2240   41.7750 C   0  0  0  0  0  0  0  0  0  0  0  0
   38.2690   29.7520   40.5820 N   0  0  0  0  0  0  0  0  0  0  0  0
   35.3250   31.0060   41.1060 H   0  0  0  0  0  0  0  0  0  0  0  0
   36.2110   29.4600   42.9730 H   0  0  0  0  0  0  0  0  0  0  0  0
   38.7570   28.3420   42.5780 C   0  0  0  0  0  0  0  0  0  0  0  0
   38.4430   27.3590   43.4350 C   0  0  0  0  0  0  0  0  0  0  0  0
   37.3920   27.1510   43.5870 H   0  0  0  0  0  0  0  0  0  0  0  0
   39.4490   26.6750   44.0700 C   0  0  0  0  0  3  0  0  0  0  0  0
   40.7540   27.0500   43.7800 C   0  0  0  0  0  3  0  0  0  0  0  0
   40.5460   28.3930   42.5870 S   0  0  0  0  0  0  0  0  0  0  0  0
   39.5390   31.8250   38.1890 C   0  0  0  0  0  3  0  0  0  0  0  0
   38.4150   32.1970   38.7970 C   0  0  0  0  0  3  0  0  0  0  0  0
   40.6300   32.8200   38.1940 C   0  0  0  0  0  0  0  0  0  0  0  0
   40.6710   33.8340   39.1920 C   0  0  0  0  0  0  0  0  0  0  0  0
   41.7210   34.7370   39.1400 C   0  0  0  0  0  0  0  0  0  0  0  0
   42.6490   34.6200   38.1610 N   0  0  0  0  0  0  0  0  0  0  0  0
   42.5920   33.6470   37.2170 C   0  0  0  0  0  0  0  0  0  0  0  0
   41.5880   32.7730   37.2570 N   0  0  0  0  0  0  0  0  0  0  0  0
   39.8860   33.8400   39.9260 H   0  0  0  0  0  0  0  0  0  0  0  0
   41.7560   35.5100   39.8980 H   0  0  0  0  0  0  0  0  0  0  0  0
   43.3320   33.5530   36.4350 H   0  0  0  0  0  0  0  0  0  0  0  0
  1  4  1  0  0  0  0
  2  1  1  0  0  0  0
  3  1  1  0  0  0  0
  4  8  1  0  0  0  0
  4  5  2  0  0  0  0
  5  6  1  0  0  0  0
  6 10  1  0  0  0  0
  7  6  1  0  0  0  0
  7 11  1  0  0  0  0
  8  7  2  0  0  0  0
  9  5  1  0  0  0  0
 11 16  1  0  0  0  0
 11 12  2  0  0  0  0
 12 13  1  0  0  0  0
 12 14  1  0  0  0  0
 15 14  2  0  0  0  0
 16 15  1  0  0  0  0
 17 19  1  0  0  0  0
 17 18  2  0  0  0  0
 18  1  1  0  0  0  0
 19 20  1  0  0  0  0
 20 25  1  0  0  0  0
 21 20  2  0  0  0  0
 21 26  1  0  0  0  0
 22 21  1  0  0  0  0
 23 24  1  0  0  0  0
 23 22  2  0  0  0  0
 24 19  2  0  0  0  0
 27 23  1  0  0  0  0
M  END
>  <minimizedAffinity>
-4.97888756

$$$$

 OpenBabel03252504393D

 27 29  0  0  0  0  0  0  0  0999 V2000
   36.4150   30.2640   38.3980 C   0  0  0  0  0  0  0  0  0  0  0  0
   36.9010   29.7450   37.5370 H   0  0  0  0  0  0  0  0  0  0  0  0
   35.3950   30.5780   38.1790 H   0  0  0  0  0  0  0  0  0  0  0  0
   36.4110   29.3240   39.5630 C   0  0  0  0  0  0  0  0  0  0  0  0
   35.7590   29.5090   40.7760 C   0  0  0  0  0  0  0  0  0  0  0  0
   36.0460   28.4090   41.4950 N   0  0  0  0  0  0  0  0  0  0  0  0
   36.8240   27.5680   40.8090 C   0  0  0  0  0  0  0  0  0  0  0  0
   37.0420   28.1470   39.6210 N   0  0  0  0  0  0  0  0  0  0  0  0
   35.1560   30.3500   41.0730 H   0  0  0  0  0  0  0  0  0  0  0  0
   35.6860   28.2530   42.4820 H   0  0  0  0  0  0  0  0  0  0  0  0
   37.3150   26.3070   41.2790 C   0  0  0  0  0  0  0  0  0  0  0  0
   36.9710   25.0380   41.0120 C   0  0  0  0  0  0  0  0  0  0  0  0
   36.1660   24.8810   40.3070 H   0  0  0  0  0  0  0  0  0  0  0  0
   37.6420   24.0150   41.6350 C   0  0  0  0  0  3  0  0  0  0  0  0
   38.6540   24.3640   42.5190 C   0  0  0  0  0  3  0  0  0  0  0  0
   38.6510   26.1720   42.4620 S   0  0  0  0  0  0  0  0  0  0  0  0
   38.4390   31.4360   39.1620 C   0  0  0  0  0  3  0  0  0  0  0  0
   37.1730   31.4970   38.7560 C   0  0  0  0  0  3  0  0  0  0  0  0
   39.0700   32.7300   39.4870 C   0  0  0  0  0  0  0  0  0  0  0  0
   38.3120   33.7630   40.1070 C   0  0  0  0  0  0  0  0  0  0  0  0
   38.9650   34.9540   40.3850 C   0  0  0  0  0  0  0  0  0  0  0  0
   40.2730   35.0840   40.0620 N   0  0  0  0  0  0  0  0  0  0  0  0
   40.9790   34.0880   39.4700 C   0  0  0  0  0  0  0  0  0  0  0  0
   40.3640   32.9390   39.1980 N   0  0  0  0  0  0  0  0  0  0  0  0
   37.2800   33.5590   40.3230 H   0  0  0  0  0  0  0  0  0  0  0  0
   38.3920   35.7410   40.8570 H   0  0  0  0  0  0  0  0  0  0  0  0
   42.0240   34.1920   39.2110 H   0  0  0  0  0  0  0  0  0  0  0  0
  1 18  1  0  0  0  0
  1  4  1  0  0  0  0
  2  1  1  0  0  0  0
  3  1  1  0  0  0  0
  4  8  1  0  0  0  0
  4  5  2  0  0  0  0
  5  9  1  0  0  0  0
  5  6  1  0  0  0  0
  6 10  1  0  0  0  0
  7 11  1  0  0  0  0
  7  6  1  0  0  0  0
  8  7  2  0  0  0  0
 11 16  1  0  0  0  0
 12 11  2  0  0  0  0
 12 14  1  0  0  0  0
 13 12  1  0  0  0  0
 14 15  2  0  0  0  0
 16 15  1  0  0  0  0
 17 19  1  0  0  0  0
 18 17  2  0  0  0  0
 19 20  1  0  0  0  0
 20 25  1  0  0  0  0
 20 21  2  0  0  0  0
 21 26  1  0  0  0  0
 22 21  1  0  0  0  0
 23 22  2  0  0  0  0
 24 23  1  0  0  0  0
 24 19  2  0  0  0  0
 27 23  1  0  0  0  0
M  END
>  <minimizedAffinity>
-4.94796419

$$$$

 OpenBabel03252504393D

 27 29  0  0  0  0  0  0  0  0999 V2000
   34.7120   28.2080   38.1030 C   0  0  0  0  0  0  0  0  0  0  0  0
   35.4330   28.5520   37.3230 H   0  0  0  0  0  0  0  0  0  0  0  0
   34.3900   27.1770   37.9540 H   0  0  0  0  0  0  0  0  0  0  0  0
   35.3790   28.3350   39.4370 C   0  0  0  0  0  0  0  0  0  0  0  0
   35.1360   29.3110   40.3960 C   0  0  0  0  0  0  0  0  0  0  0  0
   35.9670   29.0120   41.4120 N   0  0  0  0  0  0  0  0  0  0  0  0
   36.6970   27.9280   41.1420 C   0  0  0  0  0  0  0  0  0  0  0  0
   36.3240   27.5230   39.9210 N   0  0  0  0  0  0  0  0  0  0  0  0
   34.4360   30.1260   40.3380 H   0  0  0  0  0  0  0  0  0  0  0  0
   36.0160   29.5850   42.3060 H   0  0  0  0  0  0  0  0  0  0  0  0
   37.6770   27.3400   42.0060 C   0  0  0  0  0  0  0  0  0  0  0  0
   38.1480   27.6790   43.2150 C   0  0  0  0  0  0  0  0  0  0  0  0
   37.7370   28.5690   43.6740 H   0  0  0  0  0  0  0  0  0  0  0  0
   39.1110   26.8990   43.8040 C   0  0  0  0  0  3  0  0  0  0  0  0
   39.5460   25.7860   43.0980 C   0  0  0  0  0  3  0  0  0  0  0  0
   38.5710   25.8510   41.5760 S   0  0  0  0  0  0  0  0  0  0  0  0
   32.6950   29.0910   37.0080 C   0  0  0  0  0  3  0  0  0  0  0  0
   33.4800   29.0460   38.0810 C   0  0  0  0  0  3  0  0  0  0  0  0
   31.5080   29.9620   37.1190 C   0  0  0  0  0  0  0  0  0  0  0  0
   31.1460   30.8230   36.0440 C   0  0  0  0  0  0  0  0  0  0  0  0
   30.0210   31.6150   36.2130 C   0  0  0  0  0  0  0  0  0  0  0  0
   29.3250   31.5390   37.3710 N   0  0  0  0  0  0  0  0  0  0  0  0
   29.6860   30.7130   38.3850 C   0  0  0  0  0  0  0  0  0  0  0  0
   30.7640   29.9460   38.2350 N   0  0  0  0  0  0  0  0  0  0  0  0
   31.7660   30.8070   35.1670 H   0  0  0  0  0  0  0  0  0  0  0  0
   29.7430   32.2700   35.3980 H   0  0  0  0  0  0  0  0  0  0  0  0
   29.1290   30.6530   39.3110 H   0  0  0  0  0  0  0  0  0  0  0  0
  1  4  1  0  0  0  0
  2  1  1  0  0  0  0
  3  1  1  0  0  0  0
  4  8  1  0  0  0  0
  4  5  2  0  0  0  0
  5  6  1  0  0  0  0
  6 10  1  0  0  0  0
  7  6  1  0  0  0  0
  7 11  1  0  0  0  0
  8  7  2  0  0  0  0
  9  5  1  0  0  0  0
 11 12  2  0  0  0  0
 12 13  1  0  0  0  0
 12 14  1  0  0  0  0
 15 14  2  0  0  0  0
 16 11  1  0  0  0  0
 16 15  1  0  0  0  0
 17 19  1  0  0  0  0
 17 18  2  0  0  0  0
 18  1  1  0  0  0  0
 19 24  1  0  0  0  0
 20 21  1  0  0  0  0
 20 19  2  0  0  0  0
 21 22  2  0  0  0  0
 22 23  1  0  0  0  0
 23 27  1  0  0  0  0
 24 23  2  0  0  0  0
 25 20  1  0  0  0  0
 26 21  1  0  0  0  0
M  END
>  <minimizedAffinity>
-4.83694267

$$$$

 OpenBabel03252504393D

 27 29  0  0  0  0  0  0  0  0999 V2000
   35.3020   28.6080   38.4370 C   0  0  0  0  0  0  0  0  0  0  0  0
   36.0800   28.4480   37.6520 H   0  0  0  0  0  0  0  0  0  0  0  0
   35.1090   27.7120   39.0270 H   0  0  0  0  0  0  0  0  0  0  0  0
   35.7720   29.7080   39.3370 C   0  0  0  0  0  0  0  0  0  0  0  0
   35.3620   29.9450   40.6420 C   0  0  0  0  0  0  0  0  0  0  0  0
   36.0550   31.0310   41.0320 N   0  0  0  0  0  0  0  0  0  0  0  0
   36.8560   31.4720   40.0600 C   0  0  0  0  0  0  0  0  0  0  0  0
   36.6700   30.6470   39.0210 N   0  0  0  0  0  0  0  0  0  0  0  0
   34.6460   29.3820   41.2160 H   0  0  0  0  0  0  0  0  0  0  0  0
   35.9570   31.4630   41.9980 H   0  0  0  0  0  0  0  0  0  0  0  0
   37.7280   32.6060   40.1410 C   0  0  0  0  0  0  0  0  0  0  0  0
   37.5660   33.9040   39.8450 C   0  0  0  0  0  0  0  0  0  0  0  0
   36.6010   34.2080   39.4650 H   0  0  0  0  0  0  0  0  0  0  0  0
   38.6130   34.7710   40.0350 C   0  0  0  0  0  3  0  0  0  0  0  0
   39.7960   34.2410   40.5300 C   0  0  0  0  0  3  0  0  0  0  0  0
   39.4140   32.4850   40.7290 S   0  0  0  0  0  0  0  0  0  0  0  0
   33.8270   28.9410   36.4970 C   0  0  0  0  0  3  0  0  0  0  0  0
   34.0050   28.9960   37.8140 C   0  0  0  0  0  3  0  0  0  0  0  0
   32.4960   29.3540   36.0110 C   0  0  0  0  0  0  0  0  0  0  0  0
   31.4190   29.5240   36.9270 C   0  0  0  0  0  0  0  0  0  0  0  0
   30.1950   29.9130   36.4060 C   0  0  0  0  0  0  0  0  0  0  0  0
   30.0750   30.1110   35.0720 N   0  0  0  0  0  0  0  0  0  0  0  0
   31.1120   29.9430   34.2150 C   0  0  0  0  0  0  0  0  0  0  0  0
   32.2940   29.5710   34.7030 N   0  0  0  0  0  0  0  0  0  0  0  0
   31.6190   29.3420   37.9670 H   0  0  0  0  0  0  0  0  0  0  0  0
   29.3740   30.0430   37.1000 H   0  0  0  0  0  0  0  0  0  0  0  0
   31.0160   30.1020   33.1500 H   0  0  0  0  0  0  0  0  0  0  0  0
  1  3  1  0  0  0  0
  1  4  1  0  0  0  0
  2  1  1  0  0  0  0
  4  5  2  0  0  0  0
  5  6  1  0  0  0  0
  5  9  1  0  0  0  0
  6 10  1  0  0  0  0
  7 11  1  0  0  0  0
  7  6  1  0  0  0  0
  8  4  1  0  0  0  0
  8  7  2  0  0  0  0
 11 16  1  0  0  0  0
 12 14  1  0  0  0  0
 12 11  2  0  0  0  0
 13 12  1  0  0  0  0
 14 15  2  0  0  0  0
 15 16  1  0  0  0  0
 17 18  2  0  0  0  0
 18  1  1  0  0  0  0
 19 17  1  0  0  0  0
 19 20  1  0  0  0  0
 20 25  1  0  0  0  0
 21 20  2  0  0  0  0
 21 26  1  0  0  0  0
 22 21  1  0  0  0  0
 23 24  1  0  0  0  0
 23 22  2  0  0  0  0
 24 19  2  0  0  0  0
 27 23  1  0  0  0  0
M  END
>  <minimizedAffinity>
-4.66387987

$$$$
