
 OpenBabel03252503383D

 38 41  0  0  1  0  0  0  0  0999 V2000
   46.7510   34.4960   40.9740 C   0  0  1  0  0  0  0  0  0  0  0  0
   48.2300   34.2420   40.4030 C   0  0  0  0  0  0  0  0  0  0  0  0
   48.1970   34.3010   38.9100 C   0  0  0  0  0  0  0  0  0  0  0  0
   47.4470   33.1530   38.3060 C   0  0  0  0  0  0  0  0  0  0  0  0
   46.4090   32.6610   39.3000 C   0  0  0  0  0  0  0  0  0  0  0  0
   45.8200   33.8770   40.0430 C   0  0  1  0  0  0  0  0  0  0  0  0
   46.7670   35.5850   41.0420 H   0  0  0  0  0  0  0  0  0  0  0  0
   48.9030   34.9770   40.8270 H   0  0  0  0  0  0  0  0  0  0  0  0
   48.4640   33.2040   40.7160 H   0  0  0  0  0  0  0  0  0  0  0  0
   47.6900   35.2680   38.6360 H   0  0  0  0  0  0  0  0  0  0  0  0
   49.2200   34.3890   38.5530 H   0  0  0  0  0  0  0  0  0  0  0  0
   46.8650   33.5290   37.4370 H   0  0  0  0  0  0  0  0  0  0  0  0
   48.1040   32.3280   37.9890 H   0  0  0  0  0  0  0  0  0  0  0  0
   46.9510   32.0210   40.0280 H   0  0  0  0  0  0  0  0  0  0  0  0
   45.6120   32.0720   38.8450 H   0  0  0  0  0  0  0  0  0  0  0  0
   45.7340   34.6190   39.1650 H   0  0  0  0  0  0  0  0  0  0  0  0
   46.7890   33.9430   42.3610 C   0  0  0  0  0  0  0  0  0  0  0  0
   46.2200   34.4480   43.5270 C   0  0  0  0  0  0  0  0  0  0  0  0
   46.4410   33.7320   44.6790 C   0  0  0  0  0  0  0  0  0  0  0  0
   47.1920   32.5760   44.6360 N   0  0  0  0  0  0  0  0  0  0  0  0
   47.7250   32.1220   43.4730 C   0  0  0  0  0  0  0  0  0  0  0  0
   47.5120   32.8270   42.3280 N   0  0  0  0  0  0  0  0  0  0  0  0
   46.0110   34.1050   45.5990 H   0  0  0  0  0  0  0  0  0  0  0  0
   48.2890   31.2030   43.5890 H   0  0  0  0  0  0  0  0  0  0  0  0
   45.3390   35.6540   43.5630 C   0  0  0  0  0  0  0  0  0  0  0  0
   43.9440   35.5880   43.6620 C   0  0  0  0  0  0  0  0  0  0  0  0
   44.5580   35.8490   44.9660 C   0  0  0  0  0  0  0  0  0  0  0  0
   46.0240   36.5720   43.5920 H   0  0  0  0  0  0  0  0  0  0  0  0
   43.4420   34.5850   43.5100 H   0  0  0  0  0  0  0  0  0  0  0  0
   43.2860   36.3760   43.1830 H   0  0  0  0  0  0  0  0  0  0  0  0
   44.4790   36.8800   45.3210 H   0  0  0  0  0  0  0  0  0  0  0  0
   44.7750   35.0240   45.6620 H   0  0  0  0  0  0  0  0  0  0  0  0
   44.4590   33.6180   40.4450 C   0  0  0  0  0  0  0  0  0  0  0  0
   43.2890   34.2520   40.5700 C   0  0  0  0  0  0  0  0  0  0  0  0
   43.2060   35.2920   40.2870 H   0  0  0  0  0  0  0  0  0  0  0  0
   42.1670   33.6250   41.0370 C   0  0  0  0  0  0  0  0  0  0  0  0
   42.3240   32.2430   41.3840 C   0  0  0  0  0  0  0  0  0  0  0  0
   44.1450   31.9690   40.9890 S   0  0  0  0  0  0  0  0  0  0  0  0
  1  7  1  1  0  0  0
  1 17  1  0  0  0  0
  2  9  1  0  0  0  0
  2  8  1  0  0  0  0
  2  1  1  0  0  0  0
  3  2  1  0  0  0  0
  4  3  1  0  0  0  0
  4  5  1  0  0  0  0
  5 14  1  0  0  0  0
  5  6  1  0  0  0  0
  6 16  1  6  0  0  0
  6 33  1  0  0  0  0
  6  1  1  0  0  0  0
 10  3  1  0  0  0  0
 11  3  1  0  0  0  0
 12  4  1  0  0  0  0
 13  4  1  0  0  0  0
 15  5  1  0  0  0  0
 17 18  1  0  0  0  0
 18 25  1  0  0  0  0
 18 19  2  0  0  0  0
 19 23  1  0  0  0  0
 20 19  1  0  0  0  0
 21 24  1  0  0  0  0
 21 20  2  0  0  0  0
 22 17  2  0  0  0  0
 22 21  1  0  0  0  0
 25 28  1  0  0  0  0
 25 26  1  0  0  0  0
 25 27  1  0  0  0  0
 26 27  1  0  0  0  0
 27 31  1  0  0  0  0
 27 32  1  0  0  0  0
 29 26  1  0  0  0  0
 30 26  1  0  0  0  0
 33 34  2  0  0  0  0
 33 38  1  0  0  0  0
 34 36  1  0  0  0  0
 35 34  1  0  0  0  0
 36 37  2  0  0  0  0
 38 37  1  0  0  0  0
M  END
>  <minimizedAffinity>
-4.66396284

>  <minimizedRMSD>
4.31489897

$$$$
