REMARK  Name = 
REMARK  3 active torsions:
REMARK  status: ('A' for Active; 'I' for Inactive)
REMARK    1  A    between atoms: C_3  and  C_7
REMARK    2  A    between atoms: C_5  and  C_10
REMARK    3  A    between atoms: C_14  and  C_26
REMARK                            x       y       z     vdW  Elec       q    Type
REMARK                         _______ _______ _______ _____ _____    ______ ____
ROOT
ATOM      1  C   UNL     1      44.539  35.829  44.645  0.00  0.00    +0.000 A 
ATOM      2  C   UNL     1      45.167  35.787  43.404  0.00  0.00    +0.000 A 
ATOM      3  C   UNL     1      46.096  34.787  43.232  0.00  0.00    +0.000 A 
ATOM      4  N   UNL     1      46.372  33.893  44.241  0.00  0.00    +0.000 NA
ATOM      5  C   UNL     1      45.716  33.986  45.445  0.00  0.00    +0.000 A 
ATOM      6  N   UNL     1      44.803  34.956  45.639  0.00  0.00    +0.000 NA
ATOM      7  H   UNL     1      43.802  36.630  44.769  0.00  0.00    +0.000 HD
ATOM      8  H   UNL     1      44.959  36.480  42.608  0.00  0.00    +0.000 HD
ENDROOT
BRANCH   5   9
ATOM      9  C   UNL     1      46.019  33.012  46.485  0.00  0.00    +0.000 A 
ATOM     10  C   UNL     1      45.239  32.946  47.605  0.00  0.00    +0.000 A 
ATOM     11  C   UNL     1      45.505  32.021  48.602  0.00  0.00    +0.000 A 
ATOM     12  C   UNL     1      46.574  31.174  48.428  0.00  0.00    +0.000 A 
ATOM     13  C   UNL     1      47.323  31.284  47.283  0.00  0.00    +0.000 A 
ATOM     14  N   UNL     1      47.076  32.181  46.303  0.00  0.00    +0.000 NA
ATOM     15  H   UNL     1      44.413  33.616  47.718  0.00  0.00    +0.000 HD
ATOM     16  H   UNL     1      44.914  31.949  49.484  0.00  0.00    +0.000 HD
ATOM     17  H   UNL     1      46.773  30.461  49.204  0.00  0.00    +0.000 HD
BRANCH  13  18
ATOM     18  C   UNL     1      48.458  30.419  47.048  0.00  0.00    +0.000 A 
ATOM     19  C   UNL     1      48.995  29.218  47.557  0.00  0.00    +0.000 A 
ATOM     20  H   UNL     1      48.350  28.879  48.340  0.00  0.00    +0.000 HD
ATOM     21  C   UNL     1      50.140  28.743  47.010  0.00  0.00    +0.000 A 
ATOM     22  C   UNL     1      50.809  29.410  45.950  0.00  0.00    +0.000 A 
ATOM     23  S   UNL     1      49.665  30.905  45.700  0.00  0.00    +0.000 S 
ENDBRANCH  13  18
ENDBRANCH   5   9
BRANCH   3  24
ATOM     24  C   UNL     1      46.822  34.620  41.921  0.00  0.00    +0.000 C 
ATOM     25  C   UNL     1      48.162  35.360  41.923  0.00  0.00    +0.000 C 
ATOM     26  C   UNL     1      48.014  33.813  41.888  0.00  0.00    +0.000 C 
ATOM     27  H   UNL     1      46.221  34.755  40.996  0.00  0.00    +0.000 HD
ATOM     28  H   UNL     1      48.537  35.801  42.844  0.00  0.00    +0.000 HD
ATOM     29  H   UNL     1      48.415  35.852  40.988  0.00  0.00    +0.000 HD
ATOM     30  H   UNL     1      48.316  33.324  42.859  0.00  0.00    +0.000 HD
ATOM     31  H   UNL     1      48.441  33.310  41.029  0.00  0.00    +0.000 HD
ENDBRANCH   3  24
TORSDOF 3
