
 OpenBabel03252503063D

 17 18  0  0  0  0  0  0  0  0999 V2000
   45.4140   36.0960   43.2150 C   0  0  0  0  0  0  0  0  0  0  0  0
   46.1590   34.9180   43.1060 C   0  0  0  0  0  0  0  0  0  0  0  0
   46.0610   34.0300   44.1580 C   0  0  0  0  0  0  0  0  0  0  0  0
   45.2850   34.2980   45.2250 N   0  0  0  0  0  0  0  0  0  0  0  0
   44.5700   35.4640   45.2950 C   0  0  0  0  0  0  0  0  0  0  0  0
   44.6470   36.3490   44.2840 N   0  0  0  0  0  0  0  0  0  0  0  0
   45.4480   36.8420   42.4150 H   0  0  0  0  0  0  0  0  0  0  0  0
   43.9730   35.5980   46.1870 H   0  0  0  0  0  0  0  0  0  0  0  0
   46.7780   32.8210   44.1260 C   0  0  0  0  0  0  0  0  0  0  0  0
   47.4870   32.1910   43.0900 C   0  0  0  0  0  0  0  0  0  0  0  0
   47.5060   32.6930   42.1360 H   0  0  0  0  0  0  0  0  0  0  0  0
   48.0910   31.0050   43.3640 C   0  0  0  0  0  0  0  0  0  0  0  0
   47.9770   30.4760   44.6490 C   0  0  0  0  0  0  0  0  0  0  0  0
   46.9380   31.7400   45.5650 S   0  0  0  0  0  0  0  0  0  0  0  0
   46.9660   34.6760   41.9600 C   0  0  0  0  0  0  0  0  0  0  0  0
   47.9560   35.4120   41.7530 O   0  0  0  0  0  0  0  0  0  0  0  0
   46.4220   33.8280   41.5590 H   0  0  0  0  0  0  0  0  0  0  0  0
  1  6  1  0  0  0  0
  2  1  2  0  0  0  0
  2  3  1  0  0  0  0
  3  4  2  0  0  0  0
  4  5  1  0  0  0  0
  5  8  1  0  0  0  0
  6  5  2  0  0  0  0
  7  1  1  0  0  0  0
  9  3  1  0  0  0  0
  9 14  1  0  0  0  0
 10 12  1  0  0  0  0
 10  9  2  0  0  0  0
 11 10  1  0  0  0  0
 12 13  2  0  0  0  0
 13 14  1  0  0  0  0
 15  2  1  0  0  0  0
 16 15  2  0  0  0  0
 17 15  1  0  0  0  0
M  END
>  <minimizedAffinity>
-3.74299121

>  <minimizedRMSD>
0.442411095

$$$$
