
 OpenBabel03252505193D

 31 34  0  0  0  0  0  0  0  0999 V2000
   44.5680   35.8970   44.5990 C   0  0  0  0  0  0  0  0  0  0  0  0
   45.2160   35.8630   43.3690 C   0  0  0  0  0  0  0  0  0  0  0  0
   46.1200   34.8410   43.1920 C   0  0  0  0  0  0  0  0  0  0  0  0
   46.3530   33.9190   44.1860 N   0  0  0  0  0  0  0  0  0  0  0  0
   45.6780   34.0050   45.3800 C   0  0  0  0  0  0  0  0  0  0  0  0
   44.7890   34.9970   45.5790 N   0  0  0  0  0  0  0  0  0  0  0  0
   43.8510   36.7160   44.7280 H   0  0  0  0  0  0  0  0  0  0  0  0
   45.0410   36.5780   42.5840 H   0  0  0  0  0  0  0  0  0  0  0  0
   45.9360   33.0020   46.4040 C   0  0  0  0  0  0  0  0  0  0  0  0
   45.2220   33.0190   47.5700 C   0  0  0  0  0  0  0  0  0  0  0  0
   45.4460   32.0680   48.5530 C   0  0  0  0  0  0  0  0  0  0  0  0
   46.4030   31.1100   48.3180 C   0  0  0  0  0  0  0  0  0  0  0  0
   47.0890   31.1400   47.1300 C   0  0  0  0  0  0  0  0  0  0  0  0
   46.8830   32.0610   46.1630 N   0  0  0  0  0  0  0  0  0  0  0  0
   44.4830   33.7750   47.7290 H   0  0  0  0  0  0  0  0  0  0  0  0
   44.9050   32.0590   49.4690 H   0  0  0  0  0  0  0  0  0  0  0  0
   46.5700   30.3780   49.0840 H   0  0  0  0  0  0  0  0  0  0  0  0
   48.1070   30.1570   46.8310 C   0  0  0  0  0  0  0  0  0  0  0  0
   49.0520   29.3720   47.5210 C   0  0  0  0  0  0  0  0  0  0  0  0
   48.9630   29.5940   48.5640 H   0  0  0  0  0  0  0  0  0  0  0  0
   49.8470   28.5410   46.8030 C   0  0  0  0  0  3  0  0  0  0  0  0
   49.7560   28.4370   45.3910 C   0  0  0  0  0  3  0  0  0  0  0  0
   48.3650   29.6810   45.0370 S   0  0  0  0  0  0  0  0  0  0  0  0
   46.8640   34.6810   41.8900 C   0  0  0  0  0  0  0  0  0  0  0  0
   48.2260   35.3770   41.9330 C   0  0  0  0  0  0  0  0  0  0  0  0
   48.0300   33.8370   41.8590 C   0  0  0  0  0  0  0  0  0  0  0  0
   46.2840   34.8560   40.9580 H   0  0  0  0  0  0  0  0  0  0  0  0
   48.5980   35.7840   42.8700 H   0  0  0  0  0  0  0  0  0  0  0  0
   48.5120   35.8820   41.0140 H   0  0  0  0  0  0  0  0  0  0  0  0
   48.2980   33.3160   42.8230 H   0  0  0  0  0  0  0  0  0  0  0  0
   48.4560   33.3400   40.9960 H   0  0  0  0  0  0  0  0  0  0  0  0
  1  7  1  0  0  0  0
  1  6  1  0  0  0  0
  2  1  2  0  0  0  0
  3  2  1  0  0  0  0
  3  4  2  0  0  0  0
  4  5  1  0  0  0  0
  5  6  2  0  0  0  0
  5  9  1  0  0  0  0
  8  2  1  0  0  0  0
  9 10  1  0  0  0  0
 10 15  1  0  0  0  0
 10 11  2  0  0  0  0
 11 16  1  0  0  0  0
 12 11  1  0  0  0  0
 12 17  1  0  0  0  0
 13 12  2  0  0  0  0
 14  9  2  0  0  0  0
 14 13  1  0  0  0  0
 18 13  1  0  0  0  0
 18 19  2  0  0  0  0
 19 20  1  0  0  0  0
 21 19  1  0  0  0  0
 22 21  2  0  0  0  0
 23 22  1  0  0  0  0
 23 18  1  0  0  0  0
 24 25  1  0  0  0  0
 24  3  1  0  0  0  0
 25 28  1  0  0  0  0
 26 24  1  0  0  0  0
 26 25  1  0  0  0  0
 26 30  1  0  0  0  0
 27 24  1  0  0  0  0
 29 25  1  0  0  0  0
 31 26  1  0  0  0  0
M  END
>  <minimizedAffinity>
-5.5795598

>  <minimizedRMSD>
0.410354048

$$$$
