
 OpenBabel03252504423D

 42 45  0  0  0  0  0  0  0  0999 V2000
   46.3320   32.2270   47.8150 C   0  0  0  0  0  0  0  0  0  0  0  0
   45.8800   31.8360   49.0390 C   0  0  0  0  0  0  0  0  0  0  0  0
   46.8710   31.1510   49.6080 N   0  0  0  0  0  0  0  0  0  0  0  0
   47.9290   31.0880   48.8060 C   0  0  0  0  0  0  0  0  0  0  0  0
   47.5910   31.7690   47.6680 N   0  0  0  0  0  0  0  0  0  0  0  0
   49.2150   30.4810   48.9630 N   0  0  0  0  0  0  0  0  0  0  0  0
   50.2740   31.3030   49.5920 C   0  0  0  0  0  0  0  0  0  0  0  0
   50.3980   30.7640   51.0120 C   0  0  0  0  0  0  0  0  0  0  0  0
   50.4740   29.2530   50.9830 C   0  0  0  0  0  0  0  0  0  0  0  0
   50.8290   28.7910   49.5780 C   0  0  0  0  0  0  0  0  0  0  0  0
   49.7160   29.1880   48.6270 C   0  0  0  0  0  0  0  0  0  0  0  0
   44.8960   32.0530   49.4520 H   0  0  0  0  0  0  0  0  0  0  0  0
   46.8410   30.7130   50.5610 H   0  0  0  0  0  0  0  0  0  0  0  0
   51.2380   31.1880   49.0720 H   0  0  0  0  0  0  0  0  0  0  0  0
   49.9470   32.3540   49.6760 H   0  0  0  0  0  0  0  0  0  0  0  0
   51.3050   31.1430   51.5320 H   0  0  0  0  0  0  0  0  0  0  0  0
   49.5070   31.0840   51.6120 H   0  0  0  0  0  0  0  0  0  0  0  0
   49.4780   28.8330   51.2150 H   0  0  0  0  0  0  0  0  0  0  0  0
   51.1790   28.8690   51.7230 H   0  0  0  0  0  0  0  0  0  0  0  0
   50.8330   27.6660   49.6270 H   0  0  0  0  0  0  0  0  0  0  0  0
   51.8160   29.1800   49.2500 H   0  0  0  0  0  0  0  0  0  0  0  0
   50.1590   29.2440   47.6120 H   0  0  0  0  0  0  0  0  0  0  0  0
   48.9330   28.4020   48.5940 H   0  0  0  0  0  0  0  0  0  0  0  0
   45.5820   33.0250   46.8110 C   0  0  0  0  0  0  0  0  0  0  0  0
   45.4550   34.0460   47.2600 H   0  0  0  0  0  0  0  0  0  0  0  0
   44.5790   32.5990   46.6490 H   0  0  0  0  0  0  0  0  0  0  0  0
   45.9630   33.9080   44.5320 C   0  0  0  0  0  3  0  0  0  0  0  0
   46.3690   33.2110   45.5710 C   0  0  0  0  0  3  0  0  0  0  0  0
   46.8430   34.0080   43.3730 C   0  0  0  0  0  0  0  0  0  0  0  0
   46.7570   35.0880   42.4680 C   0  0  0  0  0  0  0  0  0  0  0  0
   47.6410   35.0890   41.3970 C   0  0  0  0  0  0  0  0  0  0  0  0
   48.5370   34.0800   41.2550 N   0  0  0  0  0  0  0  0  0  0  0  0
   48.5970   33.0600   42.1360 C   0  0  0  0  0  0  0  0  0  0  0  0
   47.7690   33.0250   43.1710 N   0  0  0  0  0  0  0  0  0  0  0  0
   46.0230   35.8330   42.6600 H   0  0  0  0  0  0  0  0  0  0  0  0
   47.5460   35.9320   40.7240 H   0  0  0  0  0  0  0  0  0  0  0  0
   49.6140   32.0950   41.8030 C   0  0  0  0  0  0  0  0  0  0  0  0
   50.8320   31.8830   42.3440 C   0  0  0  0  0  0  0  0  0  0  0  0
   51.1540   32.5070   43.1660 H   0  0  0  0  0  0  0  0  0  0  0  0
   51.6320   30.8840   41.8420 C   0  0  0  0  0  3  0  0  0  0  0  0
   51.1060   30.1430   40.7770 C   0  0  0  0  0  3  0  0  0  0  0  0
   49.4590   30.8820   40.4940 S   0  0  0  0  0  0  0  0  0  0  0  0
  1  2  2  0  0  0  0
  2 12  1  0  0  0  0
  2  3  1  0  0  0  0
  3 13  1  0  0  0  0
  4  6  1  0  0  0  0
  4  3  1  0  0  0  0
  5  1  1  0  0  0  0
  5  4  2  0  0  0  0
  6  7  1  0  0  0  0
  7 15  1  0  0  0  0
  7  8  1  0  0  0  0
  8 16  1  0  0  0  0
  8 17  1  0  0  0  0
  9  8  1  0  0  0  0
  9 18  1  0  0  0  0
  9 19  1  0  0  0  0
 10 20  1  0  0  0  0
 10  9  1  0  0  0  0
 11  6  1  0  0  0  0
 11 10  1  0  0  0  0
 14  7  1  0  0  0  0
 21 10  1  0  0  0  0
 22 11  1  0  0  0  0
 23 11  1  0  0  0  0
 24 25  1  0  0  0  0
 24  1  1  0  0  0  0
 26 24  1  0  0  0  0
 27 28  2  0  0  0  0
 28 24  1  0  0  0  0
 29 27  1  0  0  0  0
 30 35  1  0  0  0  0
 30 29  2  0  0  0  0
 31 30  1  0  0  0  0
 32 31  2  0  0  0  0
 32 33  1  0  0  0  0
 33 34  2  0  0  0  0
 34 29  1  0  0  0  0
 36 31  1  0  0  0  0
 37 33  1  0  0  0  0
 37 38  2  0  0  0  0
 38 39  1  0  0  0  0
 40 38  1  0  0  0  0
 41 40  2  0  0  0  0
 42 41  1  0  0  0  0
 42 37  1  0  0  0  0
M  END
>  <minimizedAffinity>
-5.7467947

>  <minimizedRMSD>
0.590974808

$$$$
