
 OpenBabel03252505193D

 31 34  0  0  0  0  0  0  0  0999 V2000
   44.5690   35.8970   44.5970 C   0  0  0  0  0  0  0  0  0  0  0  0
   45.2170   35.8630   43.3670 C   0  0  0  0  0  0  0  0  0  0  0  0
   46.1210   34.8410   43.1900 C   0  0  0  0  0  0  0  0  0  0  0  0
   46.3540   33.9190   44.1850 N   0  0  0  0  0  0  0  0  0  0  0  0
   45.6790   34.0050   45.3790 C   0  0  0  0  0  0  0  0  0  0  0  0
   44.7900   34.9960   45.5770 N   0  0  0  0  0  0  0  0  0  0  0  0
   43.8520   36.7160   44.7250 H   0  0  0  0  0  0  0  0  0  0  0  0
   45.0430   36.5780   42.5820 H   0  0  0  0  0  0  0  0  0  0  0  0
   45.9360   33.0020   46.4030 C   0  0  0  0  0  0  0  0  0  0  0  0
   45.2230   33.0200   47.5680 C   0  0  0  0  0  0  0  0  0  0  0  0
   45.4460   32.0690   48.5520 C   0  0  0  0  0  0  0  0  0  0  0  0
   46.4030   31.1100   48.3180 C   0  0  0  0  0  0  0  0  0  0  0  0
   47.0890   31.1400   47.1290 C   0  0  0  0  0  0  0  0  0  0  0  0
   46.8830   32.0600   46.1610 N   0  0  0  0  0  0  0  0  0  0  0  0
   44.4840   33.7760   47.7280 H   0  0  0  0  0  0  0  0  0  0  0  0
   44.9050   32.0610   49.4680 H   0  0  0  0  0  0  0  0  0  0  0  0
   46.5700   30.3780   49.0830 H   0  0  0  0  0  0  0  0  0  0  0  0
   48.1060   30.1560   46.8300 C   0  0  0  0  0  0  0  0  0  0  0  0
   49.0510   29.3690   47.5200 C   0  0  0  0  0  0  0  0  0  0  0  0
   48.9600   29.5910   48.5630 H   0  0  0  0  0  0  0  0  0  0  0  0
   49.8450   28.5390   46.8020 C   0  0  0  0  0  3  0  0  0  0  0  0
   49.7560   28.4370   45.3900 C   0  0  0  0  0  3  0  0  0  0  0  0
   48.3650   29.6810   45.0360 S   0  0  0  0  0  0  0  0  0  0  0  0
   46.8660   34.6800   41.8890 C   0  0  0  0  0  0  0  0  0  0  0  0
   48.2270   35.3780   41.9310 C   0  0  0  0  0  0  0  0  0  0  0  0
   48.0330   33.8380   41.8590 C   0  0  0  0  0  0  0  0  0  0  0  0
   46.2860   34.8540   40.9560 H   0  0  0  0  0  0  0  0  0  0  0  0
   48.5990   35.7870   42.8690 H   0  0  0  0  0  0  0  0  0  0  0  0
   48.5130   35.8830   41.0120 H   0  0  0  0  0  0  0  0  0  0  0  0
   48.3020   33.3180   42.8230 H   0  0  0  0  0  0  0  0  0  0  0  0
   48.4600   33.3410   40.9960 H   0  0  0  0  0  0  0  0  0  0  0  0
  1  7  1  0  0  0  0
  1  6  1  0  0  0  0
  2  1  2  0  0  0  0
  3  2  1  0  0  0  0
  3  4  2  0  0  0  0
  4  5  1  0  0  0  0
  5  6  2  0  0  0  0
  5  9  1  0  0  0  0
  8  2  1  0  0  0  0
  9 10  1  0  0  0  0
 10 15  1  0  0  0  0
 10 11  2  0  0  0  0
 11 16  1  0  0  0  0
 12 11  1  0  0  0  0
 12 17  1  0  0  0  0
 13 12  2  0  0  0  0
 14  9  2  0  0  0  0
 14 13  1  0  0  0  0
 18 13  1  0  0  0  0
 18 19  2  0  0  0  0
 19 20  1  0  0  0  0
 21 19  1  0  0  0  0
 22 21  2  0  0  0  0
 23 22  1  0  0  0  0
 23 18  1  0  0  0  0
 24 25  1  0  0  0  0
 24  3  1  0  0  0  0
 25 28  1  0  0  0  0
 26 24  1  0  0  0  0
 26 25  1  0  0  0  0
 26 30  1  0  0  0  0
 27 24  1  0  0  0  0
 29 25  1  0  0  0  0
 31 26  1  0  0  0  0
M  END
>  <minimizedAffinity>
-5.57976294

>  <minimizedRMSD>
0.489217073

$$$$
