
     RDKit          3D

 23 24  0  0  0  0  0  0  0  0999 V2000
   45.1882   35.2114   44.0574 C   0  0  0  0  0  0  0  0  0  0  0  0
   46.2305   34.5804   43.3770 C   0  0  0  0  0  0  0  0  0  0  0  0
   46.9105   33.5673   44.0611 C   0  0  0  0  0  0  0  0  0  0  0  0
   46.5237   33.2611   45.3272 N   0  0  0  0  0  0  0  0  0  0  0  0
   45.5051   33.9064   45.9381 C   0  0  0  0  0  0  0  0  0  0  0  0
   44.8315   34.8870   45.3036 N   0  0  0  0  0  0  0  0  0  0  0  0
   46.5539   34.9953   42.0204 C   0  0  0  0  0  0  0  0  0  0  0  0
   48.0526   35.1771   41.9213 C   0  0  0  0  0  0  0  0  0  0  0  0
   44.6099   36.0024   43.6079 H   0  0  0  0  0  0  0  0  0  0  0  0
   47.7206   33.0739   43.5380 H   0  0  0  0  0  0  0  0  0  0  0  0
   46.0967   35.9540   41.7931 H   0  0  0  0  0  0  0  0  0  0  0  0
   46.2419   34.2604   41.2522 H   0  0  0  0  0  0  0  0  0  0  0  0
   48.4894   34.2287   41.5004 H   0  0  0  0  0  0  0  0  0  0  0  0
   48.5234   35.4198   42.8757 H   0  0  0  0  0  0  0  0  0  0  0  0
   48.2720   35.9662   41.1597 H   0  0  0  0  0  0  0  0  0  0  0  0
   45.2592   33.4072   47.3137 C   0  0  0  0  0  0  0  0  0  0  0  0
   46.0633   32.5716   48.0480 C   0  0  0  0  0  0  0  0  0  0  0  0
   46.9888   32.2100   47.6205 H   0  0  0  0  0  0  0  0  0  0  0  0
   45.6680   32.2260   49.2906 C   0  0  0  0  0  0  0  0  0  0  0  0
   44.4493   32.7441   49.7647 C   0  0  0  0  0  0  0  0  0  0  0  0
   43.8528   33.7504   48.4009 S   0  0  0  0  0  0  0  0  0  0  0  0
   46.1997   31.5793   49.9759 H   0  0  0  0  0  0  0  0  0  0  0  0
   43.9531   32.6106   50.6881 H   0  0  0  0  0  0  0  0  0  0  0  0
  1  6  2  0
  2  1  1  0
  2  3  2  0
  3  4  1  0
  4  5  2  0
  6  5  1  0
  7  2  1  0
  8  7  1  0
  1  9  1  0
  3 10  1  0
  7 11  1  0
  7 12  1  0
  8 13  1  0
  8 14  1  0
  8 15  1  0
 16 17  2  0
 17 18  1  0
 17 19  1  0
 19 20  2  0
 20 21  1  0
 21 16  1  0
 19 22  1  0
 20 23  1  0
  5 16  1  0
M  ISO  8   9  14  10  14  11   8  12   8  13   8  14   8  15   8  18  15
M  END
>  <DihAtoms>  (1) 
3,4,15,16

>  <DihDeg>  (1) 
-108.51891096647684

$$$$
