
 OpenBabel03242511543D

 31 33  0  0  1  0  0  0  0  0999 V2000
   45.8600   33.8800   42.6820 C   0  0  2  0  0  0  0  0  0  0  0  0
   46.0050   35.3430   42.8200 C   0  0  0  0  0  0  0  0  0  0  0  0
   44.7030   36.0850   42.8360 C   0  0  0  0  0  0  0  0  0  0  0  0
   43.8330   35.7710   41.6410 C   0  0  0  0  0  0  0  0  0  0  0  0
   43.8830   34.3140   41.2220 C   0  0  0  0  0  0  0  0  0  0  0  0
   44.4390   33.4660   42.3470 C   0  0  1  0  0  0  0  0  0  0  0  0
   46.5400   33.4820   41.8710 H   0  0  0  0  0  0  0  0  0  0  0  0
   46.5900   35.7330   41.9350 H   0  0  0  0  0  0  0  0  0  0  0  0
   46.5860   35.6830   43.7010 H   0  0  0  0  0  0  0  0  0  0  0  0
   44.1400   36.0690   43.7650 H   0  0  0  0  0  0  0  0  0  0  0  0
   44.9820   37.1750   42.7020 H   0  0  0  0  0  0  0  0  0  0  0  0
   42.7880   36.0030   41.9350 H   0  0  0  0  0  0  0  0  0  0  0  0
   44.0710   36.4500   40.7780 H   0  0  0  0  0  0  0  0  0  0  0  0
   42.9100   33.9340   40.9200 H   0  0  0  0  0  0  0  0  0  0  0  0
   44.5650   34.2100   40.3550 H   0  0  0  0  0  0  0  0  0  0  0  0
   43.8210   33.7340   43.2420 H   0  0  0  0  0  0  0  0  0  0  0  0
   46.2560   33.1580   43.9050 C   0  0  0  0  0  0  0  0  0  0  0  0
   45.7040   33.6380   45.1070 C   0  0  0  0  0  0  0  0  0  0  0  0
   46.0220   33.0250   46.3260 C   0  0  0  0  0  0  0  0  0  0  0  0
   46.8890   31.9510   46.2500 N   0  0  0  0  0  0  0  0  0  0  0  0
   47.3930   31.5230   45.0920 C   0  0  0  0  0  0  0  0  0  0  0  0
   47.0840   32.1180   43.9150 N   0  0  0  0  0  0  0  0  0  0  0  0
   45.0260   34.4650   45.2610 H   0  0  0  0  0  0  0  0  0  0  0  0
   45.6810   33.2790   47.2960 H   0  0  0  0  0  0  0  0  0  0  0  0
   48.0760   30.6750   45.0300 H   0  0  0  0  0  0  0  0  0  0  0  0
   44.2720   32.0470   42.1310 C   0  0  0  0  0  0  0  0  0  0  0  0
   43.5480   31.0880   42.7170 C   0  0  0  0  0  0  0  0  0  0  0  0
   42.9080   31.3970   43.5560 H   0  0  0  0  0  0  0  0  0  0  0  0
   43.5770   29.8030   42.3220 C   0  0  0  0  0  3  0  0  0  0  0  0
   44.4360   29.5270   41.2300 C   0  0  0  0  0  3  0  0  0  0  0  0
   45.2020   31.1910   40.7920 S   0  0  0  0  0  0  0  0  0  0  0  0
  1  7  1  6  0  0  0
  1  2  1  0  0  0  0
  1 17  1  0  0  0  0
  2  3  1  0  0  0  0
  2  9  1  0  0  0  0
  3 10  1  0  0  0  0
  4 12  1  0  0  0  0
  4  3  1  0  0  0  0
  5  4  1  0  0  0  0
  5  6  1  0  0  0  0
  6  1  1  0  0  0  0
  6 16  1  1  0  0  0
  8  2  1  0  0  0  0
 11  3  1  0  0  0  0
 13  4  1  0  0  0  0
 14  5  1  0  0  0  0
 15  5  1  0  0  0  0
 17 22  2  0  0  0  0
 17 18  1  0  0  0  0
 18 23  1  0  0  0  0
 18 19  2  0  0  0  0
 19 24  1  0  0  0  0
 20 19  1  0  0  0  0
 21 20  2  0  0  0  0
 22 21  1  0  0  0  0
 25 21  1  0  0  0  0
 26  6  1  0  0  0  0
 26 27  2  0  0  0  0
 27 28  1  0  0  0  0
 29 27  1  0  0  0  0
 30 29  2  0  0  0  0
 31 30  1  0  0  0  0
 31 26  1  0  0  0  0
M  END
>  <minimizedAffinity>
-3.61620855

>  <minimizedRMSD>
4.85147858

$$$$
