
 OpenBabel03252504423D

 42 45  0  0  0  0  0  0  0  0999 V2000
   46.3090   32.1760   47.9740 C   0  0  0  0  0  0  0  0  0  0  0  0
   45.8650   31.6630   49.1550 C   0  0  0  0  0  0  0  0  0  0  0  0
   46.8840   30.9870   49.6820 N   0  0  0  0  0  0  0  0  0  0  0  0
   47.9540   31.0470   48.8950 C   0  0  0  0  0  0  0  0  0  0  0  0
   47.5930   31.7990   47.8110 N   0  0  0  0  0  0  0  0  0  0  0  0
   49.2690   30.4980   49.0240 N   0  0  0  0  0  0  0  0  0  0  0  0
   50.2740   31.3210   49.7340 C   0  0  0  0  0  0  0  0  0  0  0  0
   50.4100   30.6750   51.1080 C   0  0  0  0  0  0  0  0  0  0  0  0
   50.5680   29.1770   50.9580 C   0  0  0  0  0  0  0  0  0  0  0  0
   50.9650   28.8510   49.5260 C   0  0  0  0  0  0  0  0  0  0  0  0
   49.8430   29.2660   48.5920 C   0  0  0  0  0  0  0  0  0  0  0  0
   44.8650   31.7920   49.5670 H   0  0  0  0  0  0  0  0  0  0  0  0
   46.8660   30.4710   50.5960 H   0  0  0  0  0  0  0  0  0  0  0  0
   51.2490   31.3000   49.2230 H   0  0  0  0  0  0  0  0  0  0  0  0
   49.8890   32.3420   49.8980 H   0  0  0  0  0  0  0  0  0  0  0  0
   51.2880   31.0570   51.6720 H   0  0  0  0  0  0  0  0  0  0  0  0
   49.4960   30.8960   51.7180 H   0  0  0  0  0  0  0  0  0  0  0  0
   49.5940   28.6870   51.1390 H   0  0  0  0  0  0  0  0  0  0  0  0
   51.2840   28.7720   51.6760 H   0  0  0  0  0  0  0  0  0  0  0  0
   51.0300   27.7280   49.4830 H   0  0  0  0  0  0  0  0  0  0  0  0
   51.9330   29.3180   49.2470 H   0  0  0  0  0  0  0  0  0  0  0  0
   50.2950   29.4280   47.5920 H   0  0  0  0  0  0  0  0  0  0  0  0
   49.1050   28.4440   48.4820 H   0  0  0  0  0  0  0  0  0  0  0  0
   45.5290   33.0130   47.0250 C   0  0  0  0  0  0  0  0  0  0  0  0
   45.4300   34.0200   47.5120 H   0  0  0  0  0  0  0  0  0  0  0  0
   44.5160   32.6010   46.8900 H   0  0  0  0  0  0  0  0  0  0  0  0
   45.8240   33.9540   44.7580 C   0  0  0  0  0  3  0  0  0  0  0  0
   46.2690   33.2310   45.7620 C   0  0  0  0  0  3  0  0  0  0  0  0
   46.6610   34.0850   43.5690 C   0  0  0  0  0  0  0  0  0  0  0  0
   46.4710   35.1320   42.6420 C   0  0  0  0  0  0  0  0  0  0  0  0
   47.3220   35.1670   41.5430 C   0  0  0  0  0  0  0  0  0  0  0  0
   48.2820   34.2190   41.3990 N   0  0  0  0  0  0  0  0  0  0  0  0
   48.4390   33.2300   42.3010 C   0  0  0  0  0  0  0  0  0  0  0  0
   47.6470   33.1630   43.3620 N   0  0  0  0  0  0  0  0  0  0  0  0
   45.6940   35.8290   42.8390 H   0  0  0  0  0  0  0  0  0  0  0  0
   47.1480   35.9830   40.8540 H   0  0  0  0  0  0  0  0  0  0  0  0
   49.5120   32.3300   41.9600 C   0  0  0  0  0  0  0  0  0  0  0  0
   50.8150   32.5730   41.7100 C   0  0  0  0  0  0  0  0  0  0  0  0
   51.1740   33.5920   41.7580 H   0  0  0  0  0  0  0  0  0  0  0  0
   51.6540   31.5290   41.4020 C   0  0  0  0  0  3  0  0  0  0  0  0
   51.0730   30.2550   41.3700 C   0  0  0  0  0  3  0  0  0  0  0  0
   49.3190   30.5580   41.7840 S   0  0  0  0  0  0  0  0  0  0  0  0
  1  2  2  0  0  0  0
  2 12  1  0  0  0  0
  2  3  1  0  0  0  0
  3 13  1  0  0  0  0
  4  6  1  0  0  0  0
  4  3  1  0  0  0  0
  5  1  1  0  0  0  0
  5  4  2  0  0  0  0
  6  7  1  0  0  0  0
  7 15  1  0  0  0  0
  7  8  1  0  0  0  0
  8 16  1  0  0  0  0
  8 17  1  0  0  0  0
  9  8  1  0  0  0  0
  9 18  1  0  0  0  0
  9 19  1  0  0  0  0
 10  9  1  0  0  0  0
 11  6  1  0  0  0  0
 11 10  1  0  0  0  0
 14  7  1  0  0  0  0
 20 10  1  0  0  0  0
 21 10  1  0  0  0  0
 22 11  1  0  0  0  0
 23 11  1  0  0  0  0
 24 25  1  0  0  0  0
 24  1  1  0  0  0  0
 26 24  1  0  0  0  0
 27 28  2  0  0  0  0
 28 24  1  0  0  0  0
 29 27  1  0  0  0  0
 30 35  1  0  0  0  0
 30 29  2  0  0  0  0
 31 30  1  0  0  0  0
 32 31  2  0  0  0  0
 32 33  1  0  0  0  0
 33 34  2  0  0  0  0
 34 29  1  0  0  0  0
 36 31  1  0  0  0  0
 37 33  1  0  0  0  0
 38 39  1  0  0  0  0
 38 37  2  0  0  0  0
 40 38  1  0  0  0  0
 41 40  2  0  0  0  0
 41 42  1  0  0  0  0
 42 37  1  0  0  0  0
M  END
>  <minimizedAffinity>
-5.8568511

>  <minimizedRMSD>
0.607917368

$$$$
