
 OpenBabel03252505203D

 31 34  0  0  0  0  0  0  0  0999 V2000
   39.8260   26.6450   43.5260 C   0  0  0  0  0  0  0  0  0  0  0  0
   39.5530   25.3190   43.2040 C   0  0  0  0  0  0  0  0  0  0  0  0
   38.5410   25.1160   42.2960 C   0  0  0  0  0  0  0  0  0  0  0  0
   37.8520   26.1750   41.7500 N   0  0  0  0  0  0  0  0  0  0  0  0
   38.1710   27.4630   42.1070 C   0  0  0  0  0  0  0  0  0  0  0  0
   39.1570   27.6890   42.9950 N   0  0  0  0  0  0  0  0  0  0  0  0
   40.6340   26.7940   44.2510 H   0  0  0  0  0  0  0  0  0  0  0  0
   40.0850   24.4840   43.6240 H   0  0  0  0  0  0  0  0  0  0  0  0
   37.4340   28.5620   41.4970 C   0  0  0  0  0  0  0  0  0  0  0  0
   36.1210   28.3970   41.1590 C   0  0  0  0  0  0  0  0  0  0  0  0
   35.4000   29.4320   40.5850 C   0  0  0  0  0  0  0  0  0  0  0  0
   36.0460   30.6270   40.3690 C   0  0  0  0  0  0  0  0  0  0  0  0
   37.3660   30.7360   40.7290 C   0  0  0  0  0  0  0  0  0  0  0  0
   38.0820   29.7360   41.2890 N   0  0  0  0  0  0  0  0  0  0  0  0
   35.6400   27.4580   41.3360 H   0  0  0  0  0  0  0  0  0  0  0  0
   34.3760   29.3300   40.3120 H   0  0  0  0  0  0  0  0  0  0  0  0
   35.4810   31.4230   39.9250 H   0  0  0  0  0  0  0  0  0  0  0  0
   38.0950   31.9690   40.5250 C   0  0  0  0  0  0  0  0  0  0  0  0
   37.8430   33.2850   40.0850 C   0  0  0  0  0  0  0  0  0  0  0  0
   36.8050   33.3540   39.8420 H   0  0  0  0  0  0  0  0  0  0  0  0
   38.8780   34.1600   40.0510 C   0  0  0  0  0  3  0  0  0  0  0  0
   40.1930   33.7970   40.4410 C   0  0  0  0  0  3  0  0  0  0  0  0
   39.9260   31.9780   40.9170 S   0  0  0  0  0  0  0  0  0  0  0  0
   38.1710   23.7250   41.8450 C   0  0  0  0  0  0  0  0  0  0  0  0
   36.9780   23.7440   40.8860 C   0  0  0  0  0  0  0  0  0  0  0  0
   38.4250   23.3500   40.4780 C   0  0  0  0  0  0  0  0  0  0  0  0
   38.1190   22.9420   42.6320 H   0  0  0  0  0  0  0  0  0  0  0  0
   36.5980   24.6920   40.5110 H   0  0  0  0  0  0  0  0  0  0  0  0
   36.2670   22.9340   41.0240 H   0  0  0  0  0  0  0  0  0  0  0  0
   38.9220   24.1270   39.8290 H   0  0  0  0  0  0  0  0  0  0  0  0
   38.5570   22.3480   40.0880 H   0  0  0  0  0  0  0  0  0  0  0  0
  1  7  1  0  0  0  0
  2  1  1  0  0  0  0
  2  8  1  0  0  0  0
  3  2  2  0  0  0  0
  4  5  2  0  0  0  0
  4  3  1  0  0  0  0
  5  6  1  0  0  0  0
  6  1  2  0  0  0  0
  9  5  1  0  0  0  0
 10 15  1  0  0  0  0
 10  9  2  0  0  0  0
 11 10  1  0  0  0  0
 12 11  2  0  0  0  0
 12 13  1  0  0  0  0
 13 14  2  0  0  0  0
 14  9  1  0  0  0  0
 16 11  1  0  0  0  0
 17 12  1  0  0  0  0
 18 13  1  0  0  0  0
 18 23  1  0  0  0  0
 19 18  2  0  0  0  0
 20 19  1  0  0  0  0
 21 19  1  0  0  0  0
 21 22  2  0  0  0  0
 22 23  1  0  0  0  0
 24  3  1  0  0  0  0
 24 27  1  0  0  0  0
 25 29  1  0  0  0  0
 25 24  1  0  0  0  0
 26 25  1  0  0  0  0
 26 24  1  0  0  0  0
 28 25  1  0  0  0  0
 30 26  1  0  0  0  0
 31 26  1  0  0  0  0
M  END
>  <minimizedAffinity>
-5.45971107

$$$$

 OpenBabel03252505203D

 31 34  0  0  0  0  0  0  0  0999 V2000
   36.5950   27.8640   38.8680 C   0  0  0  0  0  0  0  0  0  0  0  0
   36.5900   27.0850   40.0210 C   0  0  0  0  0  0  0  0  0  0  0  0
   37.0450   27.6990   41.1650 C   0  0  0  0  0  0  0  0  0  0  0  0
   37.4750   29.0060   41.1470 N   0  0  0  0  0  0  0  0  0  0  0  0
   37.4530   29.7240   39.9750 C   0  0  0  0  0  0  0  0  0  0  0  0
   37.0130   29.1460   38.8420 N   0  0  0  0  0  0  0  0  0  0  0  0
   36.2300   27.3640   37.9650 H   0  0  0  0  0  0  0  0  0  0  0  0
   36.2560   26.0630   40.0480 H   0  0  0  0  0  0  0  0  0  0  0  0
   37.8980   31.1110   39.9960 C   0  0  0  0  0  0  0  0  0  0  0  0
   37.0410   32.1070   39.6200 C   0  0  0  0  0  0  0  0  0  0  0  0
   37.4420   33.4330   39.6400 C   0  0  0  0  0  0  0  0  0  0  0  0
   38.7240   33.7140   40.0500 C   0  0  0  0  0  0  0  0  0  0  0  0
   39.5420   32.6750   40.4170 C   0  0  0  0  0  0  0  0  0  0  0  0
   39.1650   31.3770   40.4020 N   0  0  0  0  0  0  0  0  0  0  0  0
   36.0490   31.8640   39.3040 H   0  0  0  0  0  0  0  0  0  0  0  0
   36.7950   34.2280   39.3510 H   0  0  0  0  0  0  0  0  0  0  0  0
   39.0260   34.7430   40.0630 H   0  0  0  0  0  0  0  0  0  0  0  0
   40.8990   32.9120   40.8570 C   0  0  0  0  0  0  0  0  0  0  0  0
   41.8810   33.9180   40.7560 C   0  0  0  0  0  0  0  0  0  0  0  0
   41.4680   34.7210   40.1830 H   0  0  0  0  0  0  0  0  0  0  0  0
   43.0800   33.7100   41.3550 C   0  0  0  0  0  3  0  0  0  0  0  0
   43.3730   32.5220   42.0730 C   0  0  0  0  0  3  0  0  0  0  0  0
   41.7350   31.5790   41.8720 S   0  0  0  0  0  0  0  0  0  0  0  0
   37.0610   26.9680   42.4840 C   0  0  0  0  0  0  0  0  0  0  0  0
   38.2140   27.4400   43.3740 C   0  0  0  0  0  0  0  0  0  0  0  0
   36.7100   27.6890   43.6800 C   0  0  0  0  0  0  0  0  0  0  0  0
   36.9290   25.8650   42.4460 H   0  0  0  0  0  0  0  0  0  0  0  0
   38.8090   28.3020   43.0800 H   0  0  0  0  0  0  0  0  0  0  0  0
   38.7080   26.6540   43.9390 H   0  0  0  0  0  0  0  0  0  0  0  0
   36.4110   28.7690   43.5450 H   0  0  0  0  0  0  0  0  0  0  0  0
   36.3350   27.2760   44.6080 H   0  0  0  0  0  0  0  0  0  0  0  0
  1  2  1  0  0  0  0
  2  8  1  0  0  0  0
  2  3  2  0  0  0  0
  3 24  1  0  0  0  0
  4  3  1  0  0  0  0
  5  9  1  0  0  0  0
  5  4  2  0  0  0  0
  6  1  2  0  0  0  0
  6  5  1  0  0  0  0
  7  1  1  0  0  0  0
  9 14  1  0  0  0  0
 10 11  1  0  0  0  0
 10  9  2  0  0  0  0
 11 12  2  0  0  0  0
 12 17  1  0  0  0  0
 12 13  1  0  0  0  0
 13 18  1  0  0  0  0
 14 13  2  0  0  0  0
 15 10  1  0  0  0  0
 16 11  1  0  0  0  0
 18 23  1  0  0  0  0
 19 18  2  0  0  0  0
 19 21  1  0  0  0  0
 20 19  1  0  0  0  0
 21 22  2  0  0  0  0
 23 22  1  0  0  0  0
 24 25  1  0  0  0  0
 24 26  1  0  0  0  0
 25 26  1  0  0  0  0
 25 29  1  0  0  0  0
 26 31  1  0  0  0  0
 27 24  1  0  0  0  0
 28 25  1  0  0  0  0
 30 26  1  0  0  0  0
M  END
>  <minimizedAffinity>
-5.24720049

$$$$

 OpenBabel03252505203D

 31 34  0  0  0  0  0  0  0  0999 V2000
   36.9470   31.4850   38.7190 C   0  0  0  0  0  0  0  0  0  0  0  0
   37.7580   32.5720   39.0290 C   0  0  0  0  0  0  0  0  0  0  0  0
   38.4810   32.4720   40.1950 C   0  0  0  0  0  0  0  0  0  0  0  0
   38.3910   31.3540   40.9920 N   0  0  0  0  0  0  0  0  0  0  0  0
   37.5730   30.3110   40.6310 C   0  0  0  0  0  0  0  0  0  0  0  0
   36.8540   30.3850   39.4950 N   0  0  0  0  0  0  0  0  0  0  0  0
   36.3760   31.5770   37.7890 H   0  0  0  0  0  0  0  0  0  0  0  0
   37.8360   33.4510   38.4130 H   0  0  0  0  0  0  0  0  0  0  0  0
   37.5160   29.1350   41.4880 C   0  0  0  0  0  0  0  0  0  0  0  0
   37.5750   29.2780   42.8460 C   0  0  0  0  0  0  0  0  0  0  0  0
   37.5140   28.1730   43.6800 C   0  0  0  0  0  0  0  0  0  0  0  0
   37.3910   26.9320   43.0990 C   0  0  0  0  0  0  0  0  0  0  0  0
   37.3350   26.8480   41.7300 C   0  0  0  0  0  0  0  0  0  0  0  0
   37.3940   27.9160   40.9050 N   0  0  0  0  0  0  0  0  0  0  0  0
   37.6720   30.2530   43.2740 H   0  0  0  0  0  0  0  0  0  0  0  0
   37.5590   28.2560   44.7390 H   0  0  0  0  0  0  0  0  0  0  0  0
   37.3440   26.0820   43.7510 H   0  0  0  0  0  0  0  0  0  0  0  0
   37.2050   25.5690   41.0670 C   0  0  0  0  0  0  0  0  0  0  0  0
   36.5040   25.0100   39.9790 C   0  0  0  0  0  0  0  0  0  0  0  0
   35.9070   25.7820   39.5440 H   0  0  0  0  0  0  0  0  0  0  0  0
   36.6940   23.6970   39.6980 C   0  0  0  0  0  3  0  0  0  0  0  0
   37.5680   22.8770   40.4570 C   0  0  0  0  0  3  0  0  0  0  0  0
   38.2020   24.1310   41.7350 S   0  0  0  0  0  0  0  0  0  0  0  0
   39.4180   33.5730   40.6240 C   0  0  0  0  0  0  0  0  0  0  0  0
   40.8680   33.0860   40.6810 C   0  0  0  0  0  0  0  0  0  0  0  0
   40.3300   34.1210   39.6540 C   0  0  0  0  0  0  0  0  0  0  0  0
   39.1020   34.1880   41.4940 H   0  0  0  0  0  0  0  0  0  0  0  0
   41.1240   32.0990   40.3010 H   0  0  0  0  0  0  0  0  0  0  0  0
   41.4490   33.4730   41.5130 H   0  0  0  0  0  0  0  0  0  0  0  0
   40.2620   33.7030   38.6080 H   0  0  0  0  0  0  0  0  0  0  0  0
   40.7950   35.0990   39.6720 H   0  0  0  0  0  0  0  0  0  0  0  0
  1  2  2  0  0  0  0
  1  6  1  0  0  0  0
  2  3  1  0  0  0  0
  3 24  1  0  0  0  0
  3  4  2  0  0  0  0
  5  4  1  0  0  0  0
  5  9  1  0  0  0  0
  6  5  2  0  0  0  0
  7  1  1  0  0  0  0
  8  2  1  0  0  0  0
  9 10  1  0  0  0  0
 10 15  1  0  0  0  0
 10 11  2  0  0  0  0
 11 16  1  0  0  0  0
 12 11  1  0  0  0  0
 12 17  1  0  0  0  0
 13 12  2  0  0  0  0
 14  9  2  0  0  0  0
 14 13  1  0  0  0  0
 18 13  1  0  0  0  0
 18 23  1  0  0  0  0
 19 18  2  0  0  0  0
 20 19  1  0  0  0  0
 21 19  1  0  0  0  0
 21 22  2  0  0  0  0
 22 23  1  0  0  0  0
 24 25  1  0  0  0  0
 24 27  1  0  0  0  0
 25 29  1  0  0  0  0
 26 31  1  0  0  0  0
 26 24  1  0  0  0  0
 26 25  1  0  0  0  0
 28 25  1  0  0  0  0
 30 26  1  0  0  0  0
M  END
>  <minimizedAffinity>
-5.22354937

$$$$

 OpenBabel03252505203D

 31 34  0  0  0  0  0  0  0  0999 V2000
   37.1650   27.9430   43.4620 C   0  0  0  0  0  0  0  0  0  0  0  0
   37.2010   26.6600   42.9240 C   0  0  0  0  0  0  0  0  0  0  0  0
   37.4200   26.5800   41.5680 C   0  0  0  0  0  0  0  0  0  0  0  0
   37.5890   27.7150   40.8090 N   0  0  0  0  0  0  0  0  0  0  0  0
   37.5440   28.9550   41.3990 C   0  0  0  0  0  0  0  0  0  0  0  0
   37.3310   29.0600   42.7240 N   0  0  0  0  0  0  0  0  0  0  0  0
   36.9900   27.9920   44.5420 H   0  0  0  0  0  0  0  0  0  0  0  0
   37.0710   25.7660   43.5080 H   0  0  0  0  0  0  0  0  0  0  0  0
   37.7450   30.1350   40.5690 C   0  0  0  0  0  0  0  0  0  0  0  0
   36.8430   31.1600   40.6110 C   0  0  0  0  0  0  0  0  0  0  0  0
   37.0210   32.2950   39.8360 C   0  0  0  0  0  0  0  0  0  0  0  0
   38.1310   32.3560   39.0260 C   0  0  0  0  0  0  0  0  0  0  0  0
   39.0050   31.2970   39.0240 C   0  0  0  0  0  0  0  0  0  0  0  0
   38.8440   30.1850   39.7740 N   0  0  0  0  0  0  0  0  0  0  0  0
   35.9870   31.0890   41.2480 H   0  0  0  0  0  0  0  0  0  0  0  0
   36.3340   33.1070   39.8490 H   0  0  0  0  0  0  0  0  0  0  0  0
   38.2610   33.2370   38.4290 H   0  0  0  0  0  0  0  0  0  0  0  0
   40.1880   31.3080   38.1930 C   0  0  0  0  0  0  0  0  0  0  0  0
   41.0420   32.2500   37.5830 C   0  0  0  0  0  0  0  0  0  0  0  0
   40.6800   33.2250   37.8280 H   0  0  0  0  0  0  0  0  0  0  0  0
   42.0880   31.7910   36.8530 C   0  0  0  0  0  3  0  0  0  0  0  0
   42.3480   30.4060   36.6850 C   0  0  0  0  0  3  0  0  0  0  0  0
   40.9220   29.6590   37.6940 S   0  0  0  0  0  0  0  0  0  0  0  0
   37.5090   25.2450   40.8740 C   0  0  0  0  0  0  0  0  0  0  0  0
   37.8640   24.1250   41.8550 C   0  0  0  0  0  0  0  0  0  0  0  0
   36.4930   24.2590   41.1350 C   0  0  0  0  0  0  0  0  0  0  0  0
   38.0730   25.2160   39.9170 H   0  0  0  0  0  0  0  0  0  0  0  0
   37.8840   24.3260   42.9240 H   0  0  0  0  0  0  0  0  0  0  0  0
   38.5520   23.3780   41.4690 H   0  0  0  0  0  0  0  0  0  0  0  0
   35.6620   24.5680   41.8340 H   0  0  0  0  0  0  0  0  0  0  0  0
   36.2030   23.4330   40.4980 H   0  0  0  0  0  0  0  0  0  0  0  0
  1  7  1  0  0  0  0
  2  1  1  0  0  0  0
  2  8  1  0  0  0  0
  3  2  2  0  0  0  0
  4  5  2  0  0  0  0
  4  3  1  0  0  0  0
  5  6  1  0  0  0  0
  6  1  2  0  0  0  0
  9 10  1  0  0  0  0
  9  5  1  0  0  0  0
 10 15  1  0  0  0  0
 11 16  1  0  0  0  0
 11 10  2  0  0  0  0
 12 11  1  0  0  0  0
 13 12  2  0  0  0  0
 13 14  1  0  0  0  0
 14  9  2  0  0  0  0
 17 12  1  0  0  0  0
 18 13  1  0  0  0  0
 19 20  1  0  0  0  0
 19 18  2  0  0  0  0
 21 19  1  0  0  0  0
 22 21  2  0  0  0  0
 22 23  1  0  0  0  0
 23 18  1  0  0  0  0
 24 26  1  0  0  0  0
 24  3  1  0  0  0  0
 24 25  1  0  0  0  0
 25 28  1  0  0  0  0
 26 30  1  0  0  0  0
 26 25  1  0  0  0  0
 27 24  1  0  0  0  0
 29 25  1  0  0  0  0
 31 26  1  0  0  0  0
M  END
>  <minimizedAffinity>
-5.20387268

$$$$

 OpenBabel03252505203D

 31 34  0  0  0  0  0  0  0  0999 V2000
   37.4720   32.3660   39.7960 C   0  0  0  0  0  0  0  0  0  0  0  0
   37.3150   32.1010   38.4390 C   0  0  0  0  0  0  0  0  0  0  0  0
   37.2160   30.7730   38.0910 C   0  0  0  0  0  0  0  0  0  0  0  0
   37.2710   29.7840   39.0460 N   0  0  0  0  0  0  0  0  0  0  0  0
   37.4250   30.1100   40.3720 C   0  0  0  0  0  0  0  0  0  0  0  0
   37.5250   31.4020   40.7380 N   0  0  0  0  0  0  0  0  0  0  0  0
   37.5500   33.4260   40.0590 H   0  0  0  0  0  0  0  0  0  0  0  0
   37.2710   32.8660   37.6840 H   0  0  0  0  0  0  0  0  0  0  0  0
   37.4610   29.0380   41.3580 C   0  0  0  0  0  0  0  0  0  0  0  0
   37.4950   29.3390   42.6900 C   0  0  0  0  0  0  0  0  0  0  0  0
   37.5200   28.3340   43.6440 C   0  0  0  0  0  0  0  0  0  0  0  0
   37.5090   27.0300   43.2090 C   0  0  0  0  0  0  0  0  0  0  0  0
   37.4730   26.7860   41.8580 C   0  0  0  0  0  0  0  0  0  0  0  0
   37.4490   27.7550   40.9170 N   0  0  0  0  0  0  0  0  0  0  0  0
   37.5040   30.3610   43.0050 H   0  0  0  0  0  0  0  0  0  0  0  0
   37.5480   28.5410   44.6880 H   0  0  0  0  0  0  0  0  0  0  0  0
   37.5280   26.2590   43.9530 H   0  0  0  0  0  0  0  0  0  0  0  0
   37.4600   25.4340   41.3450 C   0  0  0  0  0  0  0  0  0  0  0  0
   37.9510   24.1630   41.7040 C   0  0  0  0  0  0  0  0  0  0  0  0
   38.4800   24.2660   42.6260 H   0  0  0  0  0  0  0  0  0  0  0  0
   37.6870   23.1160   40.8830 C   0  0  0  0  0  3  0  0  0  0  0  0
   36.9390   23.2590   39.6860 C   0  0  0  0  0  3  0  0  0  0  0  0
   36.5610   25.1200   39.7320 S   0  0  0  0  0  0  0  0  0  0  0  0
   37.0150   30.3610   36.6550 C   0  0  0  0  0  0  0  0  0  0  0  0
   37.4680   28.9180   36.4170 C   0  0  0  0  0  0  0  0  0  0  0  0
   35.9900   29.3960   36.3500 C   0  0  0  0  0  0  0  0  0  0  0  0
   37.3430   31.0830   35.8770 H   0  0  0  0  0  0  0  0  0  0  0  0
   37.7480   28.2910   37.2600 H   0  0  0  0  0  0  0  0  0  0  0  0
   37.9740   28.7470   35.4710 H   0  0  0  0  0  0  0  0  0  0  0  0
   35.3730   29.0270   37.2190 H   0  0  0  0  0  0  0  0  0  0  0  0
   35.4840   29.2560   35.4020 H   0  0  0  0  0  0  0  0  0  0  0  0
  1  7  1  0  0  0  0
  1  6  1  0  0  0  0
  2  1  2  0  0  0  0
  3  2  1  0  0  0  0
  3  4  2  0  0  0  0
  4  5  1  0  0  0  0
  5  6  2  0  0  0  0
  5  9  1  0  0  0  0
  8  2  1  0  0  0  0
  9 10  1  0  0  0  0
 10 15  1  0  0  0  0
 10 11  2  0  0  0  0
 11 16  1  0  0  0  0
 12 11  1  0  0  0  0
 12 17  1  0  0  0  0
 13 12  2  0  0  0  0
 14  9  2  0  0  0  0
 14 13  1  0  0  0  0
 18 19  2  0  0  0  0
 18 13  1  0  0  0  0
 19 20  1  0  0  0  0
 21 19  1  0  0  0  0
 22 23  1  0  0  0  0
 22 21  2  0  0  0  0
 23 18  1  0  0  0  0
 24  3  1  0  0  0  0
 25 24  1  0  0  0  0
 25 28  1  0  0  0  0
 26 25  1  0  0  0  0
 26 24  1  0  0  0  0
 26 30  1  0  0  0  0
 27 24  1  0  0  0  0
 29 25  1  0  0  0  0
 31 26  1  0  0  0  0
M  END
>  <minimizedAffinity>
-5.19943523

$$$$

 OpenBabel03252505203D

 31 34  0  0  0  0  0  0  0  0999 V2000
   38.7880   34.1190   40.1290 C   0  0  0  0  0  0  0  0  0  0  0  0
   40.1790   34.1190   40.1740 C   0  0  0  0  0  0  0  0  0  0  0  0
   40.7720   32.9250   40.5150 C   0  0  0  0  0  0  0  0  0  0  0  0
   40.0140   31.8100   40.7910 N   0  0  0  0  0  0  0  0  0  0  0  0
   38.6430   31.8740   40.7280 C   0  0  0  0  0  0  0  0  0  0  0  0
   38.0390   33.0300   40.3980 N   0  0  0  0  0  0  0  0  0  0  0  0
   38.3290   35.0760   39.8570 H   0  0  0  0  0  0  0  0  0  0  0  0
   40.7810   34.9840   39.9590 H   0  0  0  0  0  0  0  0  0  0  0  0
   37.8720   30.6700   41.0090 C   0  0  0  0  0  0  0  0  0  0  0  0
   36.5420   30.6250   40.7020 C   0  0  0  0  0  0  0  0  0  0  0  0
   35.7930   29.4860   40.9530 C   0  0  0  0  0  0  0  0  0  0  0  0
   36.4300   28.4070   41.5180 C   0  0  0  0  0  0  0  0  0  0  0  0
   37.7680   28.5070   41.8060 C   0  0  0  0  0  0  0  0  0  0  0  0
   38.5110   29.6100   41.5670 N   0  0  0  0  0  0  0  0  0  0  0  0
   36.0680   31.4780   40.2630 H   0  0  0  0  0  0  0  0  0  0  0  0
   34.7560   29.4250   40.7240 H   0  0  0  0  0  0  0  0  0  0  0  0
   35.8430   27.5300   41.7090 H   0  0  0  0  0  0  0  0  0  0  0  0
   38.4880   27.4030   42.4010 C   0  0  0  0  0  0  0  0  0  0  0  0
   39.3720   27.1740   43.4750 C   0  0  0  0  0  0  0  0  0  0  0  0
   39.5330   28.1080   43.9690 H   0  0  0  0  0  0  0  0  0  0  0  0
   39.8250   25.9120   43.6770 C   0  0  0  0  0  3  0  0  0  0  0  0
   39.4420   24.8250   42.8490 C   0  0  0  0  0  3  0  0  0  0  0  0
   38.2880   25.7090   41.6260 S   0  0  0  0  0  0  0  0  0  0  0  0
   42.2730   32.7920   40.5680 C   0  0  0  0  0  0  0  0  0  0  0  0
   42.8600   33.5390   41.7690 C   0  0  0  0  0  0  0  0  0  0  0  0
   42.8590   31.9920   41.6120 C   0  0  0  0  0  0  0  0  0  0  0  0
   42.8230   32.9450   39.6150 H   0  0  0  0  0  0  0  0  0  0  0  0
   42.1990   33.9600   42.5220 H   0  0  0  0  0  0  0  0  0  0  0  0
   43.7970   34.0530   41.5740 H   0  0  0  0  0  0  0  0  0  0  0  0
   42.1410   31.4830   42.3180 H   0  0  0  0  0  0  0  0  0  0  0  0
   43.8300   31.5110   41.6010 H   0  0  0  0  0  0  0  0  0  0  0  0
  1  2  2  0  0  0  0
  1  6  1  0  0  0  0
  2  3  1  0  0  0  0
  3 24  1  0  0  0  0
  3  4  2  0  0  0  0
  5  4  1  0  0  0  0
  5  9  1  0  0  0  0
  6  5  2  0  0  0  0
  7  1  1  0  0  0  0
  8  2  1  0  0  0  0
  9 14  1  0  0  0  0
 10 11  1  0  0  0  0
 10  9  2  0  0  0  0
 11 12  2  0  0  0  0
 12 17  1  0  0  0  0
 12 13  1  0  0  0  0
 13 18  1  0  0  0  0
 14 13  2  0  0  0  0
 15 10  1  0  0  0  0
 16 11  1  0  0  0  0
 18 19  2  0  0  0  0
 19 21  1  0  0  0  0
 19 20  1  0  0  0  0
 22 21  2  0  0  0  0
 23 18  1  0  0  0  0
 23 22  1  0  0  0  0
 24 26  1  0  0  0  0
 24 25  1  0  0  0  0
 25 28  1  0  0  0  0
 26 25  1  0  0  0  0
 26 30  1  0  0  0  0
 27 24  1  0  0  0  0
 29 25  1  0  0  0  0
 31 26  1  0  0  0  0
M  END
>  <minimizedAffinity>
-5.13492966

$$$$

 OpenBabel03252505203D

 31 34  0  0  0  0  0  0  0  0999 V2000
   37.2920   24.2420   41.3080 C   0  0  0  0  0  0  0  0  0  0  0  0
   38.2000   24.4490   42.3420 C   0  0  0  0  0  0  0  0  0  0  0  0
   38.6240   25.7460   42.5210 C   0  0  0  0  0  0  0  0  0  0  0  0
   38.1650   26.7610   41.7130 N   0  0  0  0  0  0  0  0  0  0  0  0
   37.2660   26.4920   40.7090 C   0  0  0  0  0  0  0  0  0  0  0  0
   36.8360   25.2310   40.5130 N   0  0  0  0  0  0  0  0  0  0  0  0
   36.9630   23.2050   41.1760 H   0  0  0  0  0  0  0  0  0  0  0  0
   38.5660   23.6640   42.9790 H   0  0  0  0  0  0  0  0  0  0  0  0
   36.7860   27.5930   39.8850 C   0  0  0  0  0  0  0  0  0  0  0  0
   35.8810   27.3550   38.8900 C   0  0  0  0  0  0  0  0  0  0  0  0
   35.4050   28.3900   38.1000 C   0  0  0  0  0  0  0  0  0  0  0  0
   35.8710   29.6590   38.3500 C   0  0  0  0  0  0  0  0  0  0  0  0
   36.7790   29.8400   39.3630 C   0  0  0  0  0  0  0  0  0  0  0  0
   37.2520   28.8410   40.1400 N   0  0  0  0  0  0  0  0  0  0  0  0
   35.5340   26.3590   38.7140 H   0  0  0  0  0  0  0  0  0  0  0  0
   34.7010   28.2310   37.3180 H   0  0  0  0  0  0  0  0  0  0  0  0
   35.4980   30.4540   37.7350 H   0  0  0  0  0  0  0  0  0  0  0  0
   37.3020   31.1530   39.6700 C   0  0  0  0  0  0  0  0  0  0  0  0
   37.1060   32.4900   39.2660 C   0  0  0  0  0  0  0  0  0  0  0  0
   36.3430   32.4950   38.5170 H   0  0  0  0  0  0  0  0  0  0  0  0
   37.8560   33.4560   39.8510 C   0  0  0  0  0  3  0  0  0  0  0  0
   38.8240   33.1660   40.8480 C   0  0  0  0  0  3  0  0  0  0  0  0
   38.6450   31.2790   40.9700 S   0  0  0  0  0  0  0  0  0  0  0  0
   39.5850   26.1020   43.6270 C   0  0  0  0  0  0  0  0  0  0  0  0
   41.0380   26.0410   43.1500 C   0  0  0  0  0  0  0  0  0  0  0  0
   40.3000   27.3490   43.5480 C   0  0  0  0  0  0  0  0  0  0  0  0
   39.4040   25.6310   44.6170 H   0  0  0  0  0  0  0  0  0  0  0  0
   41.2570   25.8970   42.0940 H   0  0  0  0  0  0  0  0  0  0  0  0
   41.7400   25.6320   43.8710 H   0  0  0  0  0  0  0  0  0  0  0  0
   40.0670   28.0060   42.6600 H   0  0  0  0  0  0  0  0  0  0  0  0
   40.7290   27.9110   44.3680 H   0  0  0  0  0  0  0  0  0  0  0  0
  1  2  1  0  0  0  0
  2  3  2  0  0  0  0
  2  8  1  0  0  0  0
  3 24  1  0  0  0  0
  4  3  1  0  0  0  0
  5  4  2  0  0  0  0
  6  5  1  0  0  0  0
  6  1  2  0  0  0  0
  7  1  1  0  0  0  0
  9 14  1  0  0  0  0
  9  5  1  0  0  0  0
 10  9  2  0  0  0  0
 11 12  2  0  0  0  0
 11 10  1  0  0  0  0
 12 13  1  0  0  0  0
 13 18  1  0  0  0  0
 13 14  2  0  0  0  0
 15 10  1  0  0  0  0
 16 11  1  0  0  0  0
 17 12  1  0  0  0  0
 18 23  1  0  0  0  0
 19 18  2  0  0  0  0
 19 21  1  0  0  0  0
 20 19  1  0  0  0  0
 21 22  2  0  0  0  0
 22 23  1  0  0  0  0
 24 27  1  0  0  0  0
 25 26  1  0  0  0  0
 25 24  1  0  0  0  0
 25 29  1  0  0  0  0
 26 24  1  0  0  0  0
 26 31  1  0  0  0  0
 28 25  1  0  0  0  0
 30 26  1  0  0  0  0
M  END
>  <minimizedAffinity>
-5.09880495

$$$$

 OpenBabel03252505203D

 31 34  0  0  0  0  0  0  0  0999 V2000
   37.6630   28.7110   43.6430 C   0  0  0  0  0  0  0  0  0  0  0  0
   37.4240   27.3420   43.5760 C   0  0  0  0  0  0  0  0  0  0  0  0
   37.1140   26.8440   42.3310 C   0  0  0  0  0  0  0  0  0  0  0  0
   37.0500   27.6700   41.2320 N   0  0  0  0  0  0  0  0  0  0  0  0
   37.2990   29.0150   41.3630 C   0  0  0  0  0  0  0  0  0  0  0  0
   37.6030   29.5270   42.5710 N   0  0  0  0  0  0  0  0  0  0  0  0
   37.9080   29.0940   44.6400 H   0  0  0  0  0  0  0  0  0  0  0  0
   37.4710   26.6870   44.4280 H   0  0  0  0  0  0  0  0  0  0  0  0
   37.2410   29.8570   40.1760 C   0  0  0  0  0  0  0  0  0  0  0  0
   37.4940   31.1960   40.2780 C   0  0  0  0  0  0  0  0  0  0  0  0
   37.4520   32.0130   39.1590 C   0  0  0  0  0  0  0  0  0  0  0  0
   37.1510   31.4350   37.9480 C   0  0  0  0  0  0  0  0  0  0  0  0
   36.9070   30.0850   37.9050 C   0  0  0  0  0  0  0  0  0  0  0  0
   36.9440   29.2770   38.9860 N   0  0  0  0  0  0  0  0  0  0  0  0
   37.7250   31.6230   41.2310 H   0  0  0  0  0  0  0  0  0  0  0  0
   37.6440   33.0590   39.2110 H   0  0  0  0  0  0  0  0  0  0  0  0
   37.1210   32.0750   37.0880 H   0  0  0  0  0  0  0  0  0  0  0  0
   36.5870   29.4250   36.6580 C   0  0  0  0  0  0  0  0  0  0  0  0
   36.4510   29.7530   35.2940 C   0  0  0  0  0  0  0  0  0  0  0  0
   36.6500   30.7970   35.1880 H   0  0  0  0  0  0  0  0  0  0  0  0
   36.1190   28.7660   34.4250 C   0  0  0  0  0  3  0  0  0  0  0  0
   35.9070   27.4260   34.8430 C   0  0  0  0  0  3  0  0  0  0  0  0
   36.2180   27.5900   36.7100 S   0  0  0  0  0  0  0  0  0  0  0  0
   36.8630   25.3720   42.1250 C   0  0  0  0  0  0  0  0  0  0  0  0
   37.4170   24.8900   40.7820 C   0  0  0  0  0  0  0  0  0  0  0  0
   37.9820   24.4660   42.1660 C   0  0  0  0  0  0  0  0  0  0  0  0
   35.8430   25.0000   42.3640 H   0  0  0  0  0  0  0  0  0  0  0  0
   38.0320   25.5550   40.1780 H   0  0  0  0  0  0  0  0  0  0  0  0
   36.7950   24.1680   40.2610 H   0  0  0  0  0  0  0  0  0  0  0  0
   38.9900   24.9240   42.3850 H   0  0  0  0  0  0  0  0  0  0  0  0
   37.9590   23.4070   42.3890 H   0  0  0  0  0  0  0  0  0  0  0  0
  1  7  1  0  0  0  0
  2  1  1  0  0  0  0
  2  8  1  0  0  0  0
  3  2  2  0  0  0  0
  4  5  2  0  0  0  0
  4  3  1  0  0  0  0
  5  6  1  0  0  0  0
  6  1  2  0  0  0  0
  9 10  1  0  0  0  0
  9  5  1  0  0  0  0
 10 15  1  0  0  0  0
 11 16  1  0  0  0  0
 11 10  2  0  0  0  0
 12 11  1  0  0  0  0
 13 12  2  0  0  0  0
 13 14  1  0  0  0  0
 14  9  2  0  0  0  0
 17 12  1  0  0  0  0
 18 23  1  0  0  0  0
 18 13  1  0  0  0  0
 19 18  2  0  0  0  0
 20 19  1  0  0  0  0
 21 22  2  0  0  0  0
 21 19  1  0  0  0  0
 22 23  1  0  0  0  0
 24 26  1  0  0  0  0
 24  3  1  0  0  0  0
 24 27  1  0  0  0  0
 25 24  1  0  0  0  0
 25 26  1  0  0  0  0
 26 30  1  0  0  0  0
 26 31  1  0  0  0  0
 28 25  1  0  0  0  0
 29 25  1  0  0  0  0
M  END
>  <minimizedAffinity>
-4.99234915

$$$$

 OpenBabel03252505203D

 31 34  0  0  0  0  0  0  0  0999 V2000
   37.6240   25.1580   39.1230 C   0  0  0  0  0  0  0  0  0  0  0  0
   37.5000   25.0850   40.5070 C   0  0  0  0  0  0  0  0  0  0  0  0
   37.3590   26.2860   41.1630 C   0  0  0  0  0  0  0  0  0  0  0  0
   37.3460   27.4760   40.4710 N   0  0  0  0  0  0  0  0  0  0  0  0
   37.4720   27.4810   39.1030 C   0  0  0  0  0  0  0  0  0  0  0  0
   37.6110   26.3190   38.4370 N   0  0  0  0  0  0  0  0  0  0  0  0
   37.7360   24.1950   38.6130 H   0  0  0  0  0  0  0  0  0  0  0  0
   37.5080   24.1610   41.0580 H   0  0  0  0  0  0  0  0  0  0  0  0
   37.4350   28.7570   38.4010 C   0  0  0  0  0  0  0  0  0  0  0  0
   36.9780   28.8140   37.1140 C   0  0  0  0  0  0  0  0  0  0  0  0
   36.9270   30.0190   36.4320 C   0  0  0  0  0  0  0  0  0  0  0  0
   37.3480   31.1510   37.0880 C   0  0  0  0  0  0  0  0  0  0  0  0
   37.7960   31.0350   38.3800 C   0  0  0  0  0  0  0  0  0  0  0  0
   37.8520   29.8680   39.0580 N   0  0  0  0  0  0  0  0  0  0  0  0
   36.6570   27.9190   36.6240 H   0  0  0  0  0  0  0  0  0  0  0  0
   36.5760   30.0900   35.4290 H   0  0  0  0  0  0  0  0  0  0  0  0
   37.3050   32.0790   36.5530 H   0  0  0  0  0  0  0  0  0  0  0  0
   38.2500   32.1930   39.1190 C   0  0  0  0  0  0  0  0  0  0  0  0
   37.6990   33.2450   39.8780 C   0  0  0  0  0  0  0  0  0  0  0  0
   36.6380   33.1160   39.8910 H   0  0  0  0  0  0  0  0  0  0  0  0
   38.5420   34.1600   40.4170 C   0  0  0  0  0  3  0  0  0  0  0  0
   39.9480   34.0930   40.2420 C   0  0  0  0  0  3  0  0  0  0  0  0
   40.0920   32.5280   39.1740 S   0  0  0  0  0  0  0  0  0  0  0  0
   37.1860   26.3360   42.6600 C   0  0  0  0  0  0  0  0  0  0  0  0
   38.1480   27.3380   43.3030 C   0  0  0  0  0  0  0  0  0  0  0  0
   36.6050   27.5140   43.2500 C   0  0  0  0  0  0  0  0  0  0  0  0
   37.1130   25.3610   43.1880 H   0  0  0  0  0  0  0  0  0  0  0  0
   38.7440   27.9970   42.6760 H   0  0  0  0  0  0  0  0  0  0  0  0
   38.5750   27.0190   44.2500 H   0  0  0  0  0  0  0  0  0  0  0  0
   36.2830   28.3270   42.5360 H   0  0  0  0  0  0  0  0  0  0  0  0
   36.0980   27.5870   44.2040 H   0  0  0  0  0  0  0  0  0  0  0  0
  1  2  1  0  0  0  0
  2  8  1  0  0  0  0
  2  3  2  0  0  0  0
  3 24  1  0  0  0  0
  4  3  1  0  0  0  0
  5  4  2  0  0  0  0
  6  5  1  0  0  0  0
  6  1  2  0  0  0  0
  7  1  1  0  0  0  0
  9 14  1  0  0  0  0
  9  5  1  0  0  0  0
 10  9  2  0  0  0  0
 11 12  2  0  0  0  0
 11 10  1  0  0  0  0
 12 13  1  0  0  0  0
 13 14  2  0  0  0  0
 13 18  1  0  0  0  0
 15 10  1  0  0  0  0
 16 11  1  0  0  0  0
 17 12  1  0  0  0  0
 18 23  1  0  0  0  0
 18 19  2  0  0  0  0
 19 20  1  0  0  0  0
 19 21  1  0  0  0  0
 22 21  2  0  0  0  0
 23 22  1  0  0  0  0
 24 27  1  0  0  0  0
 24 26  1  0  0  0  0
 24 25  1  0  0  0  0
 25 29  1  0  0  0  0
 26 25  1  0  0  0  0
 26 31  1  0  0  0  0
 28 25  1  0  0  0  0
 30 26  1  0  0  0  0
M  END
>  <minimizedAffinity>
-4.96805143

$$$$
