
     RDKit          3D

 42 45  0  0  0  0  0  0  0  0999 V2000
   46.7208   33.4798   44.9044 F   0  0  0  0  0  0  0  0  0  0  0  0
   47.2976   32.2669   44.6418 C   0  0  0  0  0  0  0  0  0  0  0  0
   48.0901   32.1625   43.5356 C   0  0  0  0  0  0  0  0  0  0  0  0
   48.6692   30.9501   43.2693 C   0  0  0  0  0  0  0  0  0  0  0  0
   48.4383   29.8824   44.1155 C   0  0  0  0  0  0  0  0  0  0  0  0
   47.6488   29.9804   45.2203 C   0  0  0  0  0  0  0  0  0  0  0  0
   47.0585   31.2297   45.4853 C   0  0  0  0  0  0  0  0  0  0  0  0
   46.2422   31.2868   46.6488 N   0  0  0  0  0  0  0  0  0  0  0  0
   45.1660   30.4425   47.0904 C   0  0  0  0  0  0  0  0  0  0  0  0
   45.5573   30.1397   48.5508 C   0  0  0  0  0  0  0  0  0  0  0  0
   46.4565   31.2966   48.9241 C   0  0  0  0  0  0  0  0  0  0  0  0
   46.2601   32.2391   47.7559 C   0  0  2  0  0  0  0  0  0  0  0  0
   45.0365   33.0824   47.8415 C   0  0  0  0  0  0  0  0  0  0  0  0
   49.4721   35.2526   42.1439 C   0  0  0  0  0  0  0  0  0  0  0  0
   48.6979   35.4932   41.0080 C   0  0  0  0  0  0  0  0  0  0  0  0
   47.7041   34.5542   40.7622 C   0  0  0  0  0  0  0  0  0  0  0  0
   47.5435   33.5080   41.5914 N   0  0  0  0  0  0  0  0  0  0  0  0
   48.3048   33.3104   42.6706 C   0  0  0  0  0  0  0  0  0  0  0  0
   49.2627   34.1909   42.9314 N   0  0  0  0  0  0  0  0  0  0  0  0
   49.3090   30.8030   42.4065 H   0  0  0  0  0  0  0  0  0  0  0  0
   48.9019   28.9247   43.8963 H   0  0  0  0  0  0  0  0  0  0  0  0
   47.4731   29.1433   45.8759 H   0  0  0  0  0  0  0  0  0  0  0  0
   44.1884   30.9195   47.0110 H   0  0  0  0  0  0  0  0  0  0  0  0
   45.2062   29.5118   46.4902 H   0  0  0  0  0  0  0  0  0  0  0  0
   44.6079   30.1651   49.1233 H   0  0  0  0  0  0  0  0  0  0  0  0
   46.0688   29.1693   48.6441 H   0  0  0  0  0  0  0  0  0  0  0  0
   47.4941   30.9683   48.9851 H   0  0  0  0  0  0  0  0  0  0  0  0
   46.1814   31.7625   49.8868 H   0  0  0  0  0  0  0  0  0  0  0  0
   47.1831   32.8276   47.6570 H   0  0  0  0  0  0  0  0  0  0  0  0
   44.1903   32.5339   48.2965 H   0  0  0  0  0  0  0  0  0  0  0  0
   44.8355   33.5117   46.8554 H   0  0  0  0  0  0  0  0  0  0  0  0
   45.2689   33.9291   48.5199 H   0  0  0  0  0  0  0  0  0  0  0  0
   50.2346   36.0028   42.3037 H   0  0  0  0  0  0  0  0  0  0  0  0
   48.7384   36.2786   40.2922 H   0  0  0  0  0  0  0  0  0  0  0  0
   46.7773   34.5652   39.6715 C   0  0  0  0  0  0  0  0  0  0  0  0
   47.0986   35.1017   38.4859 C   0  0  0  0  0  0  0  0  0  0  0  0
   47.9779   35.6003   38.0472 H   0  0  0  0  0  0  0  0  0  0  0  0
   46.3274   35.1817   37.3730 C   0  0  0  0  0  0  0  0  0  0  0  0
   44.9841   34.5628   37.6296 C   0  0  0  0  0  0  0  0  0  0  0  0
   45.1106   33.9831   39.4520 S   0  0  0  0  0  0  0  0  0  0  0  0
   45.9713   35.3812   36.3892 H   0  0  0  0  0  0  0  0  0  0  0  0
   43.8663   34.1857   37.4442 H   0  0  0  0  0  0  0  0  0  0  0  0
  2  1  1  0
  2  7  2  0
  3  2  1  0
  4  3  2  0
  4  5  1  0
  5  6  2  0
  6  7  1  0
  7  8  1  0
  8  9  1  0
  8 12  1  0
  9 10  1  0
 10 11  1  0
 12 13  1  0
 12 11  1  0
 14 19  2  0
 15 14  1  0
 16 15  2  0
 16 17  1  0
 17 18  2  0
 18 19  1  0
 18  3  1  0
  4 20  1  0
  5 21  1  0
  6 22  1  0
  9 23  1  0
  9 24  1  0
 10 25  1  0
 10 26  1  0
 11 27  1  0
 11 28  1  0
 12 29  1  6
 13 30  1  0
 13 31  1  0
 13 32  1  0
 14 33  1  0
 15 34  1  0
 35 36  2  0
 36 37  1  0
 36 38  1  0
 38 39  2  0
 39 40  1  0
 40 35  1  0
 38 41  1  0
 39 42  1  0
 16 35  1  0
M  ISO  8  20  14  21  14  22  14  23  13  24  13  25  13  26  13  27  13
M  ISO  8  28  13  29  13  30   8  31   8  32   8  33  14  34  14  37  15
M  END
>  <DihAtoms>  (1) 
14,15,34,35

>  <DihDeg>  (1) 
-0.001242127638299915

$$$$
