
 OpenBabel03242511543D

 31 33  0  0  1  0  0  0  0  0999 V2000
   44.7140   32.0230   39.9520 C   0  0  2  0  0  0  0  0  0  0  0  0
   44.0090   31.3630   38.8350 C   0  0  0  0  0  0  0  0  0  0  0  0
   42.9120   32.1900   38.2350 C   0  0  0  0  0  0  0  0  0  0  0  0
   41.9080   32.6680   39.2590 C   0  0  0  0  0  0  0  0  0  0  0  0
   42.5350   33.0650   40.5810 C   0  0  0  0  0  0  0  0  0  0  0  0
   44.0220   33.2950   40.4070 C   0  0  1  0  0  0  0  0  0  0  0  0
   44.7930   31.3300   40.8430 H   0  0  0  0  0  0  0  0  0  0  0  0
   43.5260   30.4170   39.2200 H   0  0  0  0  0  0  0  0  0  0  0  0
   44.6530   31.0210   38.0010 H   0  0  0  0  0  0  0  0  0  0  0  0
   43.2110   32.9850   37.5580 H   0  0  0  0  0  0  0  0  0  0  0  0
   42.3270   31.4760   37.5800 H   0  0  0  0  0  0  0  0  0  0  0  0
   41.4180   33.5680   38.8330 H   0  0  0  0  0  0  0  0  0  0  0  0
   41.0910   31.9110   39.4080 H   0  0  0  0  0  0  0  0  0  0  0  0
   42.0740   33.9500   41.0130 H   0  0  0  0  0  0  0  0  0  0  0  0
   42.4070   32.2360   41.3060 H   0  0  0  0  0  0  0  0  0  0  0  0
   44.1040   34.0120   39.5510 H   0  0  0  0  0  0  0  0  0  0  0  0
   46.1050   32.3720   39.6110 C   0  0  0  0  0  0  0  0  0  0  0  0
   46.2730   33.1870   38.4770 C   0  0  0  0  0  0  0  0  0  0  0  0
   47.5550   33.5720   38.0650 C   0  0  0  0  0  0  0  0  0  0  0  0
   48.6000   33.0990   38.8370 N   0  0  0  0  0  0  0  0  0  0  0  0
   48.4040   32.3260   39.9070 C   0  0  0  0  0  0  0  0  0  0  0  0
   47.1630   31.9570   40.3020 N   0  0  0  0  0  0  0  0  0  0  0  0
   45.5210   33.5980   37.8190 H   0  0  0  0  0  0  0  0  0  0  0  0
   47.8250   34.1780   37.2400 H   0  0  0  0  0  0  0  0  0  0  0  0
   49.2280   31.9550   40.5170 H   0  0  0  0  0  0  0  0  0  0  0  0
   44.6410   33.9290   41.5470 C   0  0  0  0  0  0  0  0  0  0  0  0
   45.1280   35.1490   41.7940 C   0  0  0  0  0  0  0  0  0  0  0  0
   45.0580   35.8800   40.9750 H   0  0  0  0  0  0  0  0  0  0  0  0
   45.6770   35.4960   42.9700 C   0  0  0  0  0  3  0  0  0  0  0  0
   45.7090   34.4710   43.9470 C   0  0  0  0  0  3  0  0  0  0  0  0
   44.9150   32.9850   43.1060 S   0  0  0  0  0  0  0  0  0  0  0  0
  1  6  1  0  0  0  0
  1  7  1  1  0  0  0
  2  8  1  0  0  0  0
  2  1  1  0  0  0  0
  3  2  1  0  0  0  0
  3  4  1  0  0  0  0
  4 13  1  0  0  0  0
  4  5  1  0  0  0  0
  5 14  1  0  0  0  0
  5 15  1  0  0  0  0
  6 16  1  6  0  0  0
  6  5  1  0  0  0  0
  6 26  1  0  0  0  0
  9  2  1  0  0  0  0
 10  3  1  0  0  0  0
 11  3  1  0  0  0  0
 12  4  1  0  0  0  0
 17  1  1  0  0  0  0
 17 22  1  0  0  0  0
 18 17  2  0  0  0  0
 19 18  1  0  0  0  0
 19 20  2  0  0  0  0
 20 21  1  0  0  0  0
 21 22  2  0  0  0  0
 21 25  1  0  0  0  0
 23 18  1  0  0  0  0
 24 19  1  0  0  0  0
 26 27  2  0  0  0  0
 26 31  1  0  0  0  0
 27 29  1  0  0  0  0
 28 27  1  0  0  0  0
 29 30  2  0  0  0  0
 31 30  1  0  0  0  0
M  END
>  <minimizedAffinity>
-3.2099638

>  <minimizedRMSD>
4.50979662

$$$$
