
 OpenBabel03252505253D

 40 43  0  0  1  0  0  0  0  0999 V2000
   46.6910   33.2950   44.8720 F   0  0  0  0  0  0  0  0  0  0  0  0
   47.3280   32.0990   44.6810 C   0  0  0  0  0  0  0  0  0  0  0  0
   48.1630   31.9850   43.6090 C   0  0  0  0  0  0  0  0  0  0  0  0
   48.8030   30.7890   43.4130 C   0  0  0  0  0  0  0  0  0  0  0  0
   48.5870   29.7470   44.2950 C   0  0  0  0  0  0  0  0  0  0  0  0
   47.7550   29.8550   45.3670 C   0  0  0  0  0  0  0  0  0  0  0  0
   47.1030   31.0880   45.5590 C   0  0  0  0  0  0  0  0  0  0  0  0
   49.4790   30.6350   42.5800 H   0  0  0  0  0  0  0  0  0  0  0  0
   49.0980   28.8030   44.1320 H   0  0  0  0  0  0  0  0  0  0  0  0
   47.5910   29.0390   46.0510 H   0  0  0  0  0  0  0  0  0  0  0  0
   46.2430   31.1560   46.6910 N   0  0  0  0  0  0  0  0  0  0  0  0
   45.1120   30.3530   47.0670 C   0  0  0  0  0  0  0  0  0  0  0  0
   45.4280   29.9990   48.5340 C   0  0  0  0  0  0  0  0  0  0  0  0
   46.3640   31.1020   48.9720 C   0  0  0  0  0  0  0  0  0  0  0  0
   46.2600   32.0800   47.8210 C   0  0  2  0  0  0  0  0  0  0  0  0
   44.1610   30.8780   46.9610 H   0  0  0  0  0  0  0  0  0  0  0  0
   45.1330   29.4370   46.4460 H   0  0  0  0  0  0  0  0  0  0  0  0
   44.4590   30.0550   49.0690 H   0  0  0  0  0  0  0  0  0  0  0  0
   45.8900   29.0020   48.6230 H   0  0  0  0  0  0  0  0  0  0  0  0
   47.3830   30.7230   49.0650 H   0  0  0  0  0  0  0  0  0  0  0  0
   46.0720   31.5570   49.9350 H   0  0  0  0  0  0  0  0  0  0  0  0
   47.2130   32.6260   47.7740 H   0  0  0  0  0  0  0  0  0  0  0  0
   45.0740   32.9780   47.8800 C   0  0  0  0  0  0  0  0  0  0  0  0
   44.1860   32.4600   48.2870 H   0  0  0  0  0  0  0  0  0  0  0  0
   44.9350   33.4400   46.8970 H   0  0  0  0  0  0  0  0  0  0  0  0
   45.3190   33.7970   48.5880 H   0  0  0  0  0  0  0  0  0  0  0  0
   49.1680   35.2470   42.2860 C   0  0  0  0  0  0  0  0  0  0  0  0
   48.7260   35.2300   40.9620 C   0  0  0  0  0  0  0  0  0  0  0  0
   48.0820   34.0630   40.5690 C   0  0  0  0  0  0  0  0  0  0  0  0
   47.9240   33.0530   41.4420 N   0  0  0  0  0  0  0  0  0  0  0  0
   48.3610   33.1050   42.7040 C   0  0  0  0  0  0  0  0  0  0  0  0
   48.9800   34.2070   43.1070 N   0  0  0  0  0  0  0  0  0  0  0  0
   49.6640   36.1690   42.5560 H   0  0  0  0  0  0  0  0  0  0  0  0
   48.7970   35.9640   40.1950 H   0  0  0  0  0  0  0  0  0  0  0  0
   47.5360   33.7890   39.2750 C   0  0  0  0  0  0  0  0  0  0  0  0
   48.1570   34.1880   38.1560 C   0  0  0  0  0  0  0  0  0  0  0  0
   49.0820   34.7340   37.9060 H   0  0  0  0  0  0  0  0  0  0  0  0
   47.7590   34.0000   36.8730 C   0  0  0  0  0  3  0  0  0  0  0  0
   46.4620   33.2460   36.8390 C   0  0  0  0  0  3  0  0  0  0  0  0
   46.0750   32.9590   38.6940 S   0  0  0  0  0  0  0  0  0  0  0  0
  2  1  1  0  0  0  0
  2  7  1  0  0  0  0
  3  2  2  0  0  0  0
  4  3  1  0  0  0  0
  4  5  2  0  0  0  0
  5  6  1  0  0  0  0
  6  7  2  0  0  0  0
  6 10  1  0  0  0  0
  7 11  1  0  0  0  0
  8  4  1  0  0  0  0
  9  5  1  0  0  0  0
 11 12  1  0  0  0  0
 11 15  1  0  0  0  0
 12 13  1  0  0  0  0
 13 19  1  0  0  0  0
 13 14  1  0  0  0  0
 13 18  1  0  0  0  0
 14 20  1  0  0  0  0
 14 21  1  0  0  0  0
 15 22  1  6  0  0  0
 15 23  1  0  0  0  0
 15 14  1  0  0  0  0
 16 12  1  0  0  0  0
 17 12  1  0  0  0  0
 23 24  1  0  0  0  0
 23 26  1  0  0  0  0
 25 23  1  0  0  0  0
 27 33  1  0  0  0  0
 27 32  1  0  0  0  0
 28 27  2  0  0  0  0
 29 28  1  0  0  0  0
 29 30  2  0  0  0  0
 30 31  1  0  0  0  0
 31 32  2  0  0  0  0
 31  3  1  0  0  0  0
 34 28  1  0  0  0  0
 35 29  1  0  0  0  0
 36 35  2  0  0  0  0
 37 36  1  0  0  0  0
 38 36  1  0  0  0  0
 39 38  2  0  0  0  0
 39 40  1  0  0  0  0
 40 35  1  0  0  0  0
M  END
>  <minimizedAffinity>
-5.52991056

>  <minimizedRMSD>
0.798264146

$$$$
