
 OpenBabel03242522503D

 23 24  0  0  0  0  0  0  0  0999 V2000
   45.5500   30.7640   47.5780 O   0  0  0  0  0  0  0  0  0  0  0  0
   45.9010   32.0540   48.3690 P   0  0  2  0  0  0  0  0  0  0  0  0
   45.3400   31.7770   49.9280 O   0  0  0  0  0  0  0  0  0  0  0  0
   45.4260   32.5480   50.5340 H   0  0  0  0  0  0  0  0  0  0  0  0
   45.0610   33.3320   47.6580 O   0  0  0  0  0  0  0  0  0  0  0  0
   46.7030   33.4940   44.4200 C   0  0  0  0  0  0  0  0  0  0  0  0
   46.3600   33.0830   45.7230 C   0  0  0  0  0  0  0  0  0  0  0  0
   45.3680   33.7650   46.3860 C   0  0  0  0  0  0  0  0  0  0  0  0
   44.7730   34.7950   45.7450 N   0  0  0  0  0  0  0  0  0  0  0  0
   45.0920   35.1900   44.5110 C   0  0  0  0  0  0  0  0  0  0  0  0
   46.0590   34.5410   43.8410 N   0  0  0  0  0  0  0  0  0  0  0  0
   47.4680   33.0270   43.8160 H   0  0  0  0  0  0  0  0  0  0  0  0
   46.9500   32.2540   46.0270 H   0  0  0  0  0  0  0  0  0  0  0  0
   44.5190   36.0360   44.1380 H   0  0  0  0  0  0  0  0  0  0  0  0
   47.5370   32.2750   48.3110 O   0  0  0  0  0  0  0  0  0  0  0  0
   48.5710   31.6130   48.8340 C   0  0  0  0  0  0  0  0  0  0  0  0
   49.5120   32.3760   49.3280 O   0  0  0  0  0  0  0  0  0  0  0  0
   49.1860   30.1780   49.1260 C   0  0  0  0  0  0  0  0  0  0  0  0
   49.1420   29.1030   48.3770 C   0  0  0  0  0  0  0  0  0  0  0  0
   48.6010   29.1680   47.4160 H   0  0  0  0  0  0  0  0  0  0  0  0
   49.7220   27.9630   48.7450 C   0  0  0  0  0  3  0  0  0  0  0  0
   50.3860   28.0640   50.0390 C   0  0  0  0  0  3  0  0  0  0  0  0
   50.0240   29.8950   50.5020 S   0  0  0  0  0  0  0  0  0  0  0  0
  2  1  2  6  0  0  0
  2  3  1  0  0  0  0
  3  4  1  0  0  0  0
  5  2  1  0  0  0  0
  6  7  1  0  0  0  0
  7 13  1  0  0  0  0
  7  8  2  0  0  0  0
  8  5  1  0  0  0  0
  9  8  1  0  0  0  0
 10  9  2  0  0  0  0
 11  6  2  0  0  0  0
 11 10  1  0  0  0  0
 12  6  1  0  0  0  0
 14 10  1  0  0  0  0
 15  2  1  0  0  0  0
 15 16  1  0  0  0  0
 16 18  1  0  0  0  0
 16 17  2  0  0  0  0
 18 23  1  0  0  0  0
 19 21  1  0  0  0  0
 19 18  2  0  0  0  0
 20 19  1  0  0  0  0
 21 22  2  0  0  0  0
 22 23  1  0  0  0  0
M  END
>  <minimizedAffinity>
-4.73818064

>  <minimizedRMSD>
0.640801132

$$$$
