
 OpenBabel03242522503D

 23 24  0  0  0  0  0  0  0  0999 V2000
   45.2590   30.8160   47.5570 O   0  0  0  0  0  0  0  0  0  0  0  0
   45.7680   32.0780   48.3050 P   0  0  2  0  0  0  0  0  0  0  0  0
   45.2780   31.8700   49.8980 O   0  0  0  0  0  0  0  0  0  0  0  0
   45.4660   32.6370   50.4850 H   0  0  0  0  0  0  0  0  0  0  0  0
   45.0030   33.4170   47.6220 O   0  0  0  0  0  0  0  0  0  0  0  0
   46.6540   33.5550   44.3880 C   0  0  0  0  0  0  0  0  0  0  0  0
   46.3040   33.1510   45.6910 C   0  0  0  0  0  0  0  0  0  0  0  0
   45.3160   33.8440   46.3490 C   0  0  0  0  0  0  0  0  0  0  0  0
   44.7330   34.8780   45.7050 N   0  0  0  0  0  0  0  0  0  0  0  0
   45.0580   35.2670   44.4700 C   0  0  0  0  0  0  0  0  0  0  0  0
   46.0210   34.6070   43.8040 N   0  0  0  0  0  0  0  0  0  0  0  0
   47.4150   33.0790   43.7870 H   0  0  0  0  0  0  0  0  0  0  0  0
   46.8850   32.3170   45.9990 H   0  0  0  0  0  0  0  0  0  0  0  0
   44.4950   36.1170   44.0940 H   0  0  0  0  0  0  0  0  0  0  0  0
   47.4110   32.1530   48.1490 O   0  0  0  0  0  0  0  0  0  0  0  0
   48.4020   31.3200   48.4740 C   0  0  0  0  0  0  0  0  0  0  0  0
   49.1690   31.7390   49.4460 O   0  0  0  0  0  0  0  0  0  0  0  0
   49.0940   29.9280   48.1440 C   0  0  0  0  0  0  0  0  0  0  0  0
   50.3330   29.5600   48.3640 C   0  0  0  0  0  0  0  0  0  0  0  0
   51.0140   30.2980   48.8260 H   0  0  0  0  0  0  0  0  0  0  0  0
   50.7740   28.3460   48.0480 C   0  0  0  0  0  3  0  0  0  0  0  0
   49.7390   27.5110   47.4500 C   0  0  0  0  0  3  0  0  0  0  0  0
   48.2380   28.7140   47.4600 S   0  0  0  0  0  0  0  0  0  0  0  0
  2  1  2  6  0  0  0
  2  3  1  0  0  0  0
  3  4  1  0  0  0  0
  5  2  1  0  0  0  0
  6  7  1  0  0  0  0
  7 13  1  0  0  0  0
  7  8  2  0  0  0  0
  8  5  1  0  0  0  0
  9  8  1  0  0  0  0
 10  9  2  0  0  0  0
 11  6  2  0  0  0  0
 11 10  1  0  0  0  0
 12  6  1  0  0  0  0
 14 10  1  0  0  0  0
 15  2  1  0  0  0  0
 15 16  1  0  0  0  0
 16 17  2  0  0  0  0
 18 19  2  0  0  0  0
 18 16  1  0  0  0  0
 19 20  1  0  0  0  0
 21 19  1  0  0  0  0
 22 23  1  0  0  0  0
 22 21  2  0  0  0  0
 23 18  1  0  0  0  0
M  END
>  <minimizedAffinity>
-4.43818903

>  <minimizedRMSD>
0.588887572

$$$$
