
 OpenBabel03242522503D

 23 24  0  0  0  0  0  0  0  0999 V2000
   45.6650   30.6580   47.6850 O   0  0  0  0  0  0  0  0  0  0  0  0
   45.9640   32.0100   48.3880 P   0  0  2  0  0  0  0  0  0  0  0  0
   45.3520   31.8400   49.9430 O   0  0  0  0  0  0  0  0  0  0  0  0
   45.4020   32.6560   50.4910 H   0  0  0  0  0  0  0  0  0  0  0  0
   45.1290   33.2140   47.5530 O   0  0  0  0  0  0  0  0  0  0  0  0
   46.9710   33.2610   44.4200 C   0  0  0  0  0  0  0  0  0  0  0  0
   46.5460   32.8970   45.7130 C   0  0  0  0  0  0  0  0  0  0  0  0
   45.5160   33.6020   46.2880 C   0  0  0  0  0  0  0  0  0  0  0  0
   44.9660   34.6100   45.5760 N   0  0  0  0  0  0  0  0  0  0  0  0
   45.3620   34.9610   44.3510 C   0  0  0  0  0  0  0  0  0  0  0  0
   46.3670   34.2890   43.7660 N   0  0  0  0  0  0  0  0  0  0  0  0
   47.7700   32.7730   43.8820 H   0  0  0  0  0  0  0  0  0  0  0  0
   47.1130   32.0780   46.0820 H   0  0  0  0  0  0  0  0  0  0  0  0
   44.8160   35.7930   43.9140 H   0  0  0  0  0  0  0  0  0  0  0  0
   47.5980   32.2590   48.3710 O   0  0  0  0  0  0  0  0  0  0  0  0
   48.6330   31.5890   48.8820 C   0  0  0  0  0  0  0  0  0  0  0  0
   49.5890   32.3440   49.3580 O   0  0  0  0  0  0  0  0  0  0  0  0
   49.2370   30.1490   49.1720 C   0  0  0  0  0  0  0  0  0  0  0  0
   49.1870   29.0750   48.4210 C   0  0  0  0  0  0  0  0  0  0  0  0
   48.6500   29.1460   47.4590 H   0  0  0  0  0  0  0  0  0  0  0  0
   49.7580   27.9320   48.7880 C   0  0  0  0  0  3  0  0  0  0  0  0
   50.4190   28.0240   50.0850 C   0  0  0  0  0  3  0  0  0  0  0  0
   50.0680   29.8570   50.5510 S   0  0  0  0  0  0  0  0  0  0  0  0
  2  1  2  6  0  0  0
  2  3  1  0  0  0  0
  3  4  1  0  0  0  0
  5  2  1  0  0  0  0
  6  7  1  0  0  0  0
  7 13  1  0  0  0  0
  7  8  2  0  0  0  0
  8  5  1  0  0  0  0
  9  8  1  0  0  0  0
 10  9  2  0  0  0  0
 11 10  1  0  0  0  0
 11  6  2  0  0  0  0
 12  6  1  0  0  0  0
 14 10  1  0  0  0  0
 15  2  1  0  0  0  0
 15 16  1  0  0  0  0
 16 18  1  0  0  0  0
 16 17  2  0  0  0  0
 18 23  1  0  0  0  0
 19 21  1  0  0  0  0
 19 18  2  0  0  0  0
 20 19  1  0  0  0  0
 21 22  2  0  0  0  0
 22 23  1  0  0  0  0
M  END
>  <minimizedAffinity>
-4.75243759

>  <minimizedRMSD>
0.998112917

$$$$
