
 OpenBabel03242522503D

 23 24  0  0  0  0  0  0  0  0999 V2000
   45.2640   30.8140   47.5570 O   0  0  0  0  0  0  0  0  0  0  0  0
   45.7690   32.0770   48.3070 P   0  0  2  0  0  0  0  0  0  0  0  0
   45.2780   31.8670   49.8990 O   0  0  0  0  0  0  0  0  0  0  0  0
   45.4640   32.6340   50.4860 H   0  0  0  0  0  0  0  0  0  0  0  0
   45.0030   33.4150   47.6230 O   0  0  0  0  0  0  0  0  0  0  0  0
   46.6550   33.5540   44.3890 C   0  0  0  0  0  0  0  0  0  0  0  0
   46.3050   33.1500   45.6920 C   0  0  0  0  0  0  0  0  0  0  0  0
   45.3170   33.8420   46.3500 C   0  0  0  0  0  0  0  0  0  0  0  0
   44.7340   34.8760   45.7060 N   0  0  0  0  0  0  0  0  0  0  0  0
   45.0590   35.2650   44.4720 C   0  0  0  0  0  0  0  0  0  0  0  0
   46.0220   34.6060   43.8060 N   0  0  0  0  0  0  0  0  0  0  0  0
   47.4160   33.0780   43.7880 H   0  0  0  0  0  0  0  0  0  0  0  0
   46.8860   32.3160   46.0000 H   0  0  0  0  0  0  0  0  0  0  0  0
   44.4950   36.1150   44.0950 H   0  0  0  0  0  0  0  0  0  0  0  0
   47.4130   32.1550   48.1530 O   0  0  0  0  0  0  0  0  0  0  0  0
   48.4040   31.3220   48.4760 C   0  0  0  0  0  0  0  0  0  0  0  0
   49.1740   31.7420   49.4470 O   0  0  0  0  0  0  0  0  0  0  0  0
   49.0960   29.9300   48.1470 C   0  0  0  0  0  0  0  0  0  0  0  0
   50.3360   29.5610   48.3670 C   0  0  0  0  0  0  0  0  0  0  0  0
   51.0160   30.2980   48.8290 H   0  0  0  0  0  0  0  0  0  0  0  0
   50.7750   28.3470   48.0510 C   0  0  0  0  0  3  0  0  0  0  0  0
   49.7410   27.5130   47.4520 C   0  0  0  0  0  3  0  0  0  0  0  0
   48.2400   28.7160   47.4610 S   0  0  0  0  0  0  0  0  0  0  0  0
  2  1  2  6  0  0  0
  2  3  1  0  0  0  0
  3  4  1  0  0  0  0
  5  2  1  0  0  0  0
  6  7  1  0  0  0  0
  7 13  1  0  0  0  0
  7  8  2  0  0  0  0
  8  5  1  0  0  0  0
  9  8  1  0  0  0  0
 10  9  2  0  0  0  0
 11  6  2  0  0  0  0
 11 10  1  0  0  0  0
 12  6  1  0  0  0  0
 14 10  1  0  0  0  0
 15  2  1  0  0  0  0
 15 16  1  0  0  0  0
 16 17  2  0  0  0  0
 18 19  2  0  0  0  0
 18 16  1  0  0  0  0
 19 20  1  0  0  0  0
 21 19  1  0  0  0  0
 22 23  1  0  0  0  0
 22 21  2  0  0  0  0
 23 18  1  0  0  0  0
M  END
>  <minimizedAffinity>
-4.44090176

>  <minimizedRMSD>
0.250619799

$$$$
