
 OpenBabel03242519403D

 26 27  0  0  0  0  0  0  0  0999 V2000
   48.0240   32.8940   41.8010 O   0  0  0  0  0  0  0  0  0  0  0  0
   47.1660   34.0900   41.3120 P   0  0  2  0  0  0  0  0  0  0  0  0
   45.5710   33.8860   41.9040 O   0  0  0  0  0  0  0  0  0  0  0  0
   44.3860   35.9310   44.6820 C   0  0  0  0  0  0  0  0  0  0  0  0
   44.6670   35.5080   43.3610 C   0  0  0  0  0  0  0  0  0  0  0  0
   45.3070   34.2690   43.2050 C   0  0  0  0  0  0  0  0  0  0  0  0
   45.6140   33.5560   44.3070 N   0  0  0  0  0  0  0  0  0  0  0  0
   45.3310   33.9900   45.5550 C   0  0  0  0  0  0  0  0  0  0  0  0
   44.7210   35.1690   45.7510 N   0  0  0  0  0  0  0  0  0  0  0  0
   43.8930   36.8910   44.7560 H   0  0  0  0  0  0  0  0  0  0  0  0
   44.3900   36.1340   42.5290 H   0  0  0  0  0  0  0  0  0  0  0  0
   45.5940   33.3880   46.4170 H   0  0  0  0  0  0  0  0  0  0  0  0
   47.1300   34.0940   39.6550 O   0  0  0  0  0  0  0  0  0  0  0  0
   46.5210   33.2450   38.8010 C   0  0  0  0  0  0  0  0  0  0  0  0
   46.6730   33.3300   37.4720 O   0  0  0  0  0  0  0  0  0  0  0  0
   45.5490   31.9600   38.6500 C   0  0  0  0  0  0  0  0  0  0  0  0
   45.8470   30.7930   37.9160 C   0  0  0  0  0  0  0  0  0  0  0  0
   46.8380   30.7360   37.4190 H   0  0  0  0  0  0  0  0  0  0  0  0
   44.9680   29.8270   37.8380 C   0  0  0  0  0  3  0  0  0  0  0  0
   43.7790   30.1070   38.5420 C   0  0  0  0  0  3  0  0  0  0  0  0
   44.1730   31.8630   39.2490 S   0  0  0  0  0  0  0  0  0  0  0  0
   47.8230   35.4540   41.9790 O   0  0  0  0  0  0  0  0  0  0  0  0
   49.0600   35.7820   41.4430 C   0  0  0  0  0  0  0  0  0  0  0  0
   49.4750   37.0570   41.7870 F   0  0  0  0  0  0  0  0  0  0  0  0
   49.9720   34.8270   41.7570 F   0  0  0  0  0  0  0  0  0  0  0  0
   48.8870   35.7850   40.0570 F   0  0  0  0  0  0  0  0  0  0  0  0
  2  1  2  1  0  0  0
  2  3  1  0  0  0  0
  2 22  1  0  0  0  0
  3  6  1  0  0  0  0
  4 10  1  0  0  0  0
  4  9  1  0  0  0  0
  5  4  2  0  0  0  0
  6  5  1  0  0  0  0
  6  7  2  0  0  0  0
  7  8  1  0  0  0  0
  8  9  2  0  0  0  0
  8 12  1  0  0  0  0
 11  5  1  0  0  0  0
 13  2  1  0  0  0  0
 14 13  1  0  0  0  0
 15 14  2  0  0  0  0
 16 14  1  0  0  0  0
 16 21  1  0  0  0  0
 17 16  2  0  0  0  0
 18 17  1  0  0  0  0
 19 17  1  0  0  0  0
 19 20  2  0  0  0  0
 20 21  1  0  0  0  0
 23 25  1  0  0  0  0
 23 24  1  0  0  0  0
 23 22  1  0  0  0  0
 26 23  1  0  0  0  0
M  END
>  <minimizedAffinity>
-4.80922985

>  <minimizedRMSD>
0.778047979

$$$$
