
 OpenBabel03242519403D

 26 27  0  0  0  0  0  0  0  0999 V2000
   48.0240   32.9100   41.7540 O   0  0  0  0  0  0  0  0  0  0  0  0
   47.1610   34.1130   41.2920 P   0  0  2  0  0  0  0  0  0  0  0  0
   45.5700   33.8960   41.8930 O   0  0  0  0  0  0  0  0  0  0  0  0
   44.3940   35.9240   44.6860 C   0  0  0  0  0  0  0  0  0  0  0  0
   44.6710   35.5090   43.3610 C   0  0  0  0  0  0  0  0  0  0  0  0
   45.3120   34.2720   43.1960 C   0  0  0  0  0  0  0  0  0  0  0  0
   45.6240   33.5530   44.2940 N   0  0  0  0  0  0  0  0  0  0  0  0
   45.3450   33.9800   45.5450 C   0  0  0  0  0  0  0  0  0  0  0  0
   44.7340   35.1570   45.7500 N   0  0  0  0  0  0  0  0  0  0  0  0
   43.9000   36.8840   44.7670 H   0  0  0  0  0  0  0  0  0  0  0  0
   44.3900   36.1390   42.5340 H   0  0  0  0  0  0  0  0  0  0  0  0
   45.6120   33.3740   46.4030 H   0  0  0  0  0  0  0  0  0  0  0  0
   47.1130   34.1460   39.6360 O   0  0  0  0  0  0  0  0  0  0  0  0
   46.7830   33.1740   38.7610 C   0  0  0  0  0  0  0  0  0  0  0  0
   46.6910   33.3940   37.4410 O   0  0  0  0  0  0  0  0  0  0  0  0
   46.4040   31.6130   38.5690 C   0  0  0  0  0  0  0  0  0  0  0  0
   46.9300   30.5450   39.3260 C   0  0  0  0  0  0  0  0  0  0  0  0
   47.6450   30.7930   40.1400 H   0  0  0  0  0  0  0  0  0  0  0  0
   46.5730   29.3160   39.0600 C   0  0  0  0  0  3  0  0  0  0  0  0
   45.6580   29.2280   37.9900 C   0  0  0  0  0  3  0  0  0  0  0  0
   45.4610   31.0910   37.5190 S   0  0  0  0  0  0  0  0  0  0  0  0
   47.8200   35.4660   41.9780 O   0  0  0  0  0  0  0  0  0  0  0  0
   49.0610   35.7950   41.4510 C   0  0  0  0  0  0  0  0  0  0  0  0
   49.4700   37.0720   41.7940 F   0  0  0  0  0  0  0  0  0  0  0  0
   49.9730   34.8430   41.7770 F   0  0  0  0  0  0  0  0  0  0  0  0
   48.9000   35.7930   40.0640 F   0  0  0  0  0  0  0  0  0  0  0  0
  2  1  2  1  0  0  0
  2  3  1  0  0  0  0
  2 22  1  0  0  0  0
  3  6  1  0  0  0  0
  4 10  1  0  0  0  0
  4  9  1  0  0  0  0
  5  4  2  0  0  0  0
  6  5  1  0  0  0  0
  6  7  2  0  0  0  0
  7  8  1  0  0  0  0
  8  9  2  0  0  0  0
  8 12  1  0  0  0  0
 11  5  1  0  0  0  0
 13  2  1  0  0  0  0
 14 13  1  0  0  0  0
 15 14  2  0  0  0  0
 16 14  1  0  0  0  0
 16 17  2  0  0  0  0
 17 18  1  0  0  0  0
 19 17  1  0  0  0  0
 20 19  2  0  0  0  0
 21 20  1  0  0  0  0
 21 16  1  0  0  0  0
 23 25  1  0  0  0  0
 23 24  1  0  0  0  0
 23 22  1  0  0  0  0
 26 23  1  0  0  0  0
M  END
>  <minimizedAffinity>
-4.74384356

>  <minimizedRMSD>
0.388898253

$$$$
