
 OpenBabel03242519403D

 26 27  0  0  0  0  0  0  0  0999 V2000
   48.0130   32.9070   41.7820 O   0  0  0  0  0  0  0  0  0  0  0  0
   47.1580   34.1090   41.3030 P   0  0  2  0  0  0  0  0  0  0  0  0
   45.5630   33.9050   41.8990 O   0  0  0  0  0  0  0  0  0  0  0  0
   44.3930   35.9300   44.6980 C   0  0  0  0  0  0  0  0  0  0  0  0
   44.6690   35.5180   43.3720 C   0  0  0  0  0  0  0  0  0  0  0  0
   45.3050   34.2790   43.2040 C   0  0  0  0  0  0  0  0  0  0  0  0
   45.6150   33.5550   44.2990 N   0  0  0  0  0  0  0  0  0  0  0  0
   45.3370   33.9800   45.5510 C   0  0  0  0  0  0  0  0  0  0  0  0
   44.7300   35.1580   45.7590 N   0  0  0  0  0  0  0  0  0  0  0  0
   43.9020   36.8910   44.7810 H   0  0  0  0  0  0  0  0  0  0  0  0
   44.3900   36.1510   42.5460 H   0  0  0  0  0  0  0  0  0  0  0  0
   45.6010   33.3700   46.4080 H   0  0  0  0  0  0  0  0  0  0  0  0
   47.1170   34.1250   39.6470 O   0  0  0  0  0  0  0  0  0  0  0  0
   46.7190   33.1680   38.7830 C   0  0  0  0  0  0  0  0  0  0  0  0
   46.6820   33.3670   37.4570 O   0  0  0  0  0  0  0  0  0  0  0  0
   46.2000   31.6450   38.6110 C   0  0  0  0  0  0  0  0  0  0  0  0
   46.4810   30.8060   37.5120 C   0  0  0  0  0  0  0  0  0  0  0  0
   47.1320   31.2100   36.7080 H   0  0  0  0  0  0  0  0  0  0  0  0
   45.9810   29.5990   37.4670 C   0  0  0  0  0  3  0  0  0  0  0  0
   45.1840   29.2900   38.5900 C   0  0  0  0  0  3  0  0  0  0  0  0
   45.3100   30.9360   39.5940 S   0  0  0  0  0  0  0  0  0  0  0  0
   47.8200   35.4660   41.9780 O   0  0  0  0  0  0  0  0  0  0  0  0
   49.0600   35.7900   41.4460 C   0  0  0  0  0  0  0  0  0  0  0  0
   49.4780   37.0640   41.7900 F   0  0  0  0  0  0  0  0  0  0  0  0
   49.9680   34.8330   41.7640 F   0  0  0  0  0  0  0  0  0  0  0  0
   48.8920   35.7920   40.0600 F   0  0  0  0  0  0  0  0  0  0  0  0
  2  1  2  1  0  0  0
  2  3  1  0  0  0  0
  2 22  1  0  0  0  0
  3  6  1  0  0  0  0
  4 10  1  0  0  0  0
  4  9  1  0  0  0  0
  5  4  2  0  0  0  0
  6  5  1  0  0  0  0
  6  7  2  0  0  0  0
  7  8  1  0  0  0  0
  8  9  2  0  0  0  0
  8 12  1  0  0  0  0
 11  5  1  0  0  0  0
 13  2  1  0  0  0  0
 14 13  1  0  0  0  0
 15 14  2  0  0  0  0
 16 14  1  0  0  0  0
 16 21  1  0  0  0  0
 17 16  2  0  0  0  0
 18 17  1  0  0  0  0
 19 17  1  0  0  0  0
 19 20  2  0  0  0  0
 20 21  1  0  0  0  0
 23 25  1  0  0  0  0
 23 24  1  0  0  0  0
 23 22  1  0  0  0  0
 26 23  1  0  0  0  0
M  END
>  <minimizedAffinity>
-4.7762289

>  <minimizedRMSD>
0.368110418

$$$$
