
 OpenBabel03242519403D

 26 27  0  0  0  0  0  0  0  0999 V2000
   48.0080   32.8480   41.9280 O   0  0  0  0  0  0  0  0  0  0  0  0
   47.1170   33.9840   41.3610 P   0  0  2  0  0  0  0  0  0  0  0  0
   45.5300   33.7810   41.9760 O   0  0  0  0  0  0  0  0  0  0  0  0
   44.3720   35.9520   44.6690 C   0  0  0  0  0  0  0  0  0  0  0  0
   44.6490   35.4730   43.3650 C   0  0  0  0  0  0  0  0  0  0  0  0
   45.2700   34.2200   43.2600 C   0  0  0  0  0  0  0  0  0  0  0  0
   45.5640   33.5450   44.3910 N   0  0  0  0  0  0  0  0  0  0  0  0
   45.2860   34.0330   45.6200 C   0  0  0  0  0  0  0  0  0  0  0  0
   44.6930   35.2270   45.7680 N   0  0  0  0  0  0  0  0  0  0  0  0
   43.8930   36.9220   44.7040 H   0  0  0  0  0  0  0  0  0  0  0  0
   44.3830   36.0700   42.5090 H   0  0  0  0  0  0  0  0  0  0  0  0
   45.5380   33.4610   46.5060 H   0  0  0  0  0  0  0  0  0  0  0  0
   47.0740   33.8710   39.7090 O   0  0  0  0  0  0  0  0  0  0  0  0
   46.1200   33.3610   38.9020 C   0  0  0  0  0  0  0  0  0  0  0  0
   46.3460   33.0780   37.6110 O   0  0  0  0  0  0  0  0  0  0  0  0
   44.5900   32.8480   38.7890 C   0  0  0  0  0  0  0  0  0  0  0  0
   43.4650   33.6720   38.5770 C   0  0  0  0  0  0  0  0  0  0  0  0
   43.6400   34.7620   38.4520 H   0  0  0  0  0  0  0  0  0  0  0  0
   42.2680   33.1470   38.5330 C   0  0  0  0  0  3  0  0  0  0  0  0
   42.2740   31.7480   38.7140 C   0  0  0  0  0  3  0  0  0  0  0  0
   44.1640   31.4120   38.9340 S   0  0  0  0  0  0  0  0  0  0  0  0
   47.7400   35.4080   41.9270 O   0  0  0  0  0  0  0  0  0  0  0  0
   48.9880   35.7050   41.3970 C   0  0  0  0  0  0  0  0  0  0  0  0
   49.4360   36.9670   41.7510 F   0  0  0  0  0  0  0  0  0  0  0  0
   49.8720   34.7250   41.7090 F   0  0  0  0  0  0  0  0  0  0  0  0
   48.8200   35.7230   40.0110 F   0  0  0  0  0  0  0  0  0  0  0  0
  2 22  1  0  0  0  0
  2  1  2  1  0  0  0
  2  3  1  0  0  0  0
  3  6  1  0  0  0  0
  4 10  1  0  0  0  0
  4  9  1  0  0  0  0
  5  4  2  0  0  0  0
  6  5  1  0  0  0  0
  6  7  2  0  0  0  0
  7  8  1  0  0  0  0
  8  9  2  0  0  0  0
  8 12  1  0  0  0  0
 11  5  1  0  0  0  0
 13  2  1  0  0  0  0
 14 13  1  0  0  0  0
 15 14  2  0  0  0  0
 16 14  1  0  0  0  0
 16 21  1  0  0  0  0
 17 16  2  0  0  0  0
 18 17  1  0  0  0  0
 19 17  1  0  0  0  0
 19 20  2  0  0  0  0
 20 21  1  0  0  0  0
 23 25  1  0  0  0  0
 23 24  1  0  0  0  0
 23 22  1  0  0  0  0
 26 23  1  0  0  0  0
M  END
>  <minimizedAffinity>
-5.03255033

>  <minimizedRMSD>
1.7655232

$$$$
