
 OpenBabel03242519413D

 26 27  0  0  0  0  0  0  0  0999 V2000
   48.0100   32.8960   41.7430 O   0  0  0  0  0  0  0  0  0  0  0  0
   47.1520   34.1050   41.2870 P   0  0  2  0  0  0  0  0  0  0  0  0
   45.5610   33.8940   41.8890 O   0  0  0  0  0  0  0  0  0  0  0  0
   44.3930   35.9260   44.6840 C   0  0  0  0  0  0  0  0  0  0  0  0
   44.6670   35.5100   43.3590 C   0  0  0  0  0  0  0  0  0  0  0  0
   45.3050   34.2710   43.1930 C   0  0  0  0  0  0  0  0  0  0  0  0
   45.6180   33.5520   44.2900 N   0  0  0  0  0  0  0  0  0  0  0  0
   45.3420   33.9800   45.5420 C   0  0  0  0  0  0  0  0  0  0  0  0
   44.7330   35.1580   45.7480 N   0  0  0  0  0  0  0  0  0  0  0  0
   43.9010   36.8860   44.7660 H   0  0  0  0  0  0  0  0  0  0  0  0
   44.3860   36.1400   42.5320 H   0  0  0  0  0  0  0  0  0  0  0  0
   45.6090   33.3730   46.4000 H   0  0  0  0  0  0  0  0  0  0  0  0
   47.1020   34.1460   39.6320 O   0  0  0  0  0  0  0  0  0  0  0  0
   46.7440   33.1860   38.7540 C   0  0  0  0  0  0  0  0  0  0  0  0
   46.7180   33.3950   37.4300 O   0  0  0  0  0  0  0  0  0  0  0  0
   46.2740   31.6500   38.5620 C   0  0  0  0  0  0  0  0  0  0  0  0
   45.3620   30.9660   39.3910 C   0  0  0  0  0  0  0  0  0  0  0  0
   44.9050   31.5290   40.2330 H   0  0  0  0  0  0  0  0  0  0  0  0
   45.0780   29.7100   39.1560 C   0  0  0  0  0  3  0  0  0  0  0  0
   45.7670   29.1900   38.0390 C   0  0  0  0  0  3  0  0  0  0  0  0
   46.7850   30.7340   37.4830 S   0  0  0  0  0  0  0  0  0  0  0  0
   47.8200   35.4520   41.9780 O   0  0  0  0  0  0  0  0  0  0  0  0
   49.0590   35.7800   41.4460 C   0  0  0  0  0  0  0  0  0  0  0  0
   49.4720   37.0560   41.7920 F   0  0  0  0  0  0  0  0  0  0  0  0
   49.9700   34.8260   41.7620 F   0  0  0  0  0  0  0  0  0  0  0  0
   48.8890   35.7850   40.0600 F   0  0  0  0  0  0  0  0  0  0  0  0
  2  1  2  1  0  0  0
  2  3  1  0  0  0  0
  2 22  1  0  0  0  0
  3  6  1  0  0  0  0
  4 10  1  0  0  0  0
  4  9  1  0  0  0  0
  5  4  2  0  0  0  0
  6  5  1  0  0  0  0
  6  7  2  0  0  0  0
  7  8  1  0  0  0  0
  8  9  2  0  0  0  0
  8 12  1  0  0  0  0
 11  5  1  0  0  0  0
 13  2  1  0  0  0  0
 14 13  1  0  0  0  0
 15 14  2  0  0  0  0
 16 14  1  0  0  0  0
 16 17  2  0  0  0  0
 17 18  1  0  0  0  0
 19 17  1  0  0  0  0
 20 19  2  0  0  0  0
 21 20  1  0  0  0  0
 21 16  1  0  0  0  0
 23 25  1  0  0  0  0
 23 24  1  0  0  0  0
 23 22  1  0  0  0  0
 26 23  1  0  0  0  0
M  END
>  <minimizedAffinity>
-4.7665801

>  <minimizedRMSD>
0.350538462

$$$$
