REMARK  Name = 
REMARK  1 active torsions:
REMARK  status: ('A' for Active; 'I' for Inactive)
REMARK    1  A    between atoms: C_7  and  C_14
REMARK                            x       y       z     vdW  Elec       q    Type
REMARK                         _______ _______ _______ _____ _____    ______ ____
ROOT
ATOM      1  C   UNL     1      44.663  36.076  44.285  0.00  0.00    +0.000 A 
ATOM      2  C   UNL     1      45.473  35.587  43.240  0.00  0.00    +0.000 A 
ATOM      3  C   UNL     1      46.175  34.392  43.472  0.00  0.00    +0.000 A 
ATOM      4  N   UNL     1      46.047  33.765  44.674  0.00  0.00    +0.000 NA
ATOM      5  C   UNL     1      45.261  34.267  45.650  0.00  0.00    +0.000 A 
ATOM      6  N   UNL     1      44.576  35.423  45.439  0.00  0.00    +0.000 NA
ATOM      7  C   UNL     1      46.165  32.588  47.117  0.00  0.00    +0.000 C 
ATOM      8  O   UNL     1      47.100  32.280  46.369  0.00  0.00    +0.000 OA
ATOM      9  N   UNL     1      45.166  33.563  46.892  0.00  0.00    +0.000 N 
ATOM     10  H   UNL     1      44.078  36.976  44.235  0.00  0.00    +0.000 HD
ATOM     11  H   UNL     1      45.504  36.159  42.329  0.00  0.00    +0.000 HD
ATOM     12  H   UNL     1      46.792  34.020  42.675  0.00  0.00    +0.000 HD
ATOM     13  H   UNL     1      44.409  33.769  47.568  0.00  0.00    +0.000 HD
ENDROOT
BRANCH   7  14
ATOM     14  C   UNL     1      46.098  31.832  48.405  0.00  0.00    +0.000 A 
ATOM     15  C   UNL     1      46.166  32.406  49.754  0.00  0.00    +0.000 A 
ATOM     16  H   UNL     1      46.276  33.471  49.866  0.00  0.00    +0.000 HD
ATOM     17  C   UNL     1      46.075  31.440  50.721  0.00  0.00    +0.000 A 
ATOM     18  C   UNL     1      45.938  30.121  50.454  0.00  0.00    +0.000 A 
ATOM     19  S   UNL     1      45.922  30.095  48.609  0.00  0.00    +0.000 S 
ENDBRANCH   7  14
TORSDOF 1
