REMARK  Name = 
REMARK  3 active torsions:
REMARK  status: ('A' for Active; 'I' for Inactive)
REMARK    1  A    between atoms: N_1  and  C_9
REMARK    2  A    between atoms: C_6  and  C_13
REMARK    3  A    between atoms: C_13  and  C_26
REMARK                            x       y       z     vdW  Elec       q    Type
REMARK                         _______ _______ _______ _____ _____    ______ ____
ROOT
ATOM      1  N   UNL     1      46.016  34.359  41.514  0.00  0.00    +0.000 N 
ATOM      2  C   UNL     1      45.096  34.040  40.484  0.00  0.00    +0.000 C 
ATOM      3  C   UNL     1      45.684  33.223  39.377  0.00  0.00    +0.000 C 
ATOM      4  N   UNL     1      46.944  33.651  38.880  0.00  0.00    +0.000 NA
ATOM      5  C   UNL     1      47.795  34.296  39.797  0.00  0.00    +0.000 C 
ATOM      6  C   UNL     1      47.404  34.358  41.208  0.00  0.00    +0.000 C 
ATOM      7  H   UNL     1      44.673  34.963  40.036  0.00  0.00    +0.000 HD
ATOM      8  H   UNL     1      44.192  33.473  40.836  0.00  0.00    +0.000 HD
ATOM      9  H   UNL     1      45.731  32.150  39.656  0.00  0.00    +0.000 HD
ATOM     10  H   UNL     1      44.955  33.283  38.517  0.00  0.00    +0.000 HD
ATOM     11  H   UNL     1      47.404  32.837  38.413  0.00  0.00    +0.000 HD
ATOM     12  H   UNL     1      47.956  35.345  39.426  0.00  0.00    +0.000 HD
ATOM     13  H   UNL     1      48.819  33.833  39.731  0.00  0.00    +0.000 HD
ATOM     14  H   UNL     1      47.772  33.355  41.678  0.00  0.00    +0.000 HD
ENDROOT
BRANCH   1  17
ATOM     15  C   UNL     1      44.568  36.037  44.490  0.00  0.00    +0.000 A 
ATOM     16  C   UNL     1      44.943  35.828  43.151  0.00  0.00    +0.000 A 
ATOM     17  C   UNL     1      45.610  34.666  42.830  0.00  0.00    +0.000 A 
ATOM     18  N   UNL     1      45.869  33.776  43.853  0.00  0.00    +0.000 NA
ATOM     19  C   UNL     1      45.496  34.002  45.133  0.00  0.00    +0.000 A 
ATOM     20  N   UNL     1      44.839  35.139  45.464  0.00  0.00    +0.000 NA
ATOM     21  H   UNL     1      44.044  36.988  44.643  0.00  0.00    +0.000 HD
ATOM     22  H   UNL     1      44.721  36.551  42.380  0.00  0.00    +0.000 HD
ATOM     23  H   UNL     1      45.728  33.265  45.889  0.00  0.00    +0.000 HD
ENDBRANCH   1  17
BRANCH   6  24
ATOM     24  C   UNL     1      48.112  35.368  41.940  0.00  0.00    +0.000 C 
ATOM     25  O   UNL     1      49.083  35.908  41.460  0.00  0.00    +0.000 OA
BRANCH  24  26
ATOM     26  C   UNL     1      48.632  36.362  42.937  0.00  0.00    +0.000 A 
ATOM     27  C   UNL     1      49.129  35.959  44.091  0.00  0.00    +0.000 A 
ATOM     28  H   UNL     1      49.301  35.041  44.612  0.00  0.00    +0.000 HD
ATOM     29  C   UNL     1      49.653  36.713  45.044  0.00  0.00    +0.000 A 
ATOM     30  C   UNL     1      49.637  38.076  44.699  0.00  0.00    +0.000 A 
ATOM     31  S   UNL     1      48.816  38.044  42.944  0.00  0.00    +0.000 S 
ENDBRANCH  24  26
ENDBRANCH   6  24
TORSDOF 3
