
 OpenBabel03252507173D

 26 28  0  0  0  0  0  0  0  0999 V2000
   35.9050   28.8940   38.6840 C   0  0  0  0  0  0  0  0  0  0  0  0
   36.5710   29.9430   39.3500 C   0  0  0  0  0  0  0  0  0  0  0  0
   37.3130   30.8260   38.5690 C   0  0  0  0  0  0  0  0  0  0  0  0
   37.3740   30.6600   37.2390 N   0  0  0  0  0  0  0  0  0  0  0  0
   36.7160   29.6280   36.6170 C   0  0  0  0  0  0  0  0  0  0  0  0
   36.0060   28.7810   37.3460 N   0  0  0  0  0  0  0  0  0  0  0  0
   35.3090   28.1710   39.2380 H   0  0  0  0  0  0  0  0  0  0  0  0
   36.7830   29.5180   35.5460 H   0  0  0  0  0  0  0  0  0  0  0  0
   38.0040   31.9140   39.2460 C   0  0  0  0  0  0  0  0  0  0  0  0
   37.4080   33.1540   39.3410 C   0  0  0  0  0  0  0  0  0  0  0  0
   38.0840   34.1600   39.9860 C   0  0  0  0  0  0  0  0  0  0  0  0
   39.3410   34.0110   40.5550 C   0  0  0  0  0  0  0  0  0  0  0  0
   39.8720   32.7460   40.4210 C   0  0  0  0  0  0  0  0  0  0  0  0
   39.2110   31.7530   39.7880 N   0  0  0  0  0  0  0  0  0  0  0  0
   36.4310   33.3070   38.9110 H   0  0  0  0  0  0  0  0  0  0  0  0
   37.5750   35.1280   40.0380 H   0  0  0  0  0  0  0  0  0  0  0  0
   39.8100   34.8350   41.0430 H   0  0  0  0  0  0  0  0  0  0  0  0
   40.8620   32.5850   40.8560 H   0  0  0  0  0  0  0  0  0  0  0  0
   36.4620   30.0570   40.7590 C   0  0  0  0  0  0  0  0  0  0  0  0
   35.8320   31.0290   41.2400 O   0  0  0  0  0  0  0  0  0  0  0  0
   37.0780   29.0510   41.6680 C   0  0  0  0  0  0  0  0  0  0  0  0
   36.6420   27.8570   42.0450 C   0  0  0  0  0  0  0  0  0  0  0  0
   35.6910   27.5170   41.6530 H   0  0  0  0  0  0  0  0  0  0  0  0
   37.3600   27.0760   42.8940 C   0  0  0  0  0  3  0  0  0  0  0  0
   38.6050   27.6440   43.3410 C   0  0  0  0  0  3  0  0  0  0  0  0
   38.5970   29.3130   42.4410 S   0  0  0  0  0  0  0  0  0  0  0  0
  1  7  1  0  0  0  0
  1  2  1  0  0  0  0
  2 19  1  0  0  0  0
  3  9  1  0  0  0  0
  3  2  2  0  0  0  0
  4  3  1  0  0  0  0
  5  4  2  0  0  0  0
  5  6  1  0  0  0  0
  6  1  2  0  0  0  0
  8  5  1  0  0  0  0
  9 10  2  0  0  0  0
  9 14  1  0  0  0  0
 10 11  1  0  0  0  0
 11 16  1  0  0  0  0
 11 12  2  0  0  0  0
 12 17  1  0  0  0  0
 13 12  1  0  0  0  0
 13 18  1  0  0  0  0
 14 13  2  0  0  0  0
 15 10  1  0  0  0  0
 19 20  2  0  0  0  0
 19 21  1  0  0  0  0
 21 22  2  0  0  0  0
 21 26  1  0  0  0  0
 22 24  1  0  0  0  0
 23 22  1  0  0  0  0
 24 25  2  0  0  0  0
 26 25  1  0  0  0  0
M  END
>  <minimizedAffinity>
-5.05675316

$$$$

 OpenBabel03252507173D

 26 28  0  0  0  0  0  0  0  0999 V2000
   39.8270   32.2110   40.8900 C   0  0  0  0  0  0  0  0  0  0  0  0
   38.8850   31.2620   40.4440 C   0  0  0  0  0  0  0  0  0  0  0  0
   37.6880   31.7480   39.9210 C   0  0  0  0  0  0  0  0  0  0  0  0
   37.4690   33.0700   39.8560 N   0  0  0  0  0  0  0  0  0  0  0  0
   38.4060   33.9710   40.2990 C   0  0  0  0  0  0  0  0  0  0  0  0
   39.5480   33.5250   40.7980 N   0  0  0  0  0  0  0  0  0  0  0  0
   40.7810   31.8950   41.3100 H   0  0  0  0  0  0  0  0  0  0  0  0
   38.2030   35.0290   40.2350 H   0  0  0  0  0  0  0  0  0  0  0  0
   36.7080   30.7770   39.4570 C   0  0  0  0  0  0  0  0  0  0  0  0
   35.7820   30.2590   40.3380 C   0  0  0  0  0  0  0  0  0  0  0  0
   34.8710   29.3450   39.8710 C   0  0  0  0  0  0  0  0  0  0  0  0
   34.8200   28.9010   38.5570 C   0  0  0  0  0  0  0  0  0  0  0  0
   35.7760   29.4600   37.7360 C   0  0  0  0  0  0  0  0  0  0  0  0
   36.6740   30.3610   38.1910 N   0  0  0  0  0  0  0  0  0  0  0  0
   35.7900   30.5810   41.3670 H   0  0  0  0  0  0  0  0  0  0  0  0
   34.1530   28.9600   40.6030 H   0  0  0  0  0  0  0  0  0  0  0  0
   34.0850   28.1880   38.2590 H   0  0  0  0  0  0  0  0  0  0  0  0
   35.7700   29.1380   36.6920 H   0  0  0  0  0  0  0  0  0  0  0  0
   39.1830   29.8800   40.5440 C   0  0  0  0  0  0  0  0  0  0  0  0
   39.9840   29.3730   39.7210 O   0  0  0  0  0  0  0  0  0  0  0  0
   38.5680   29.0270   41.6000 C   0  0  0  0  0  0  0  0  0  0  0  0
   38.2770   29.3060   42.8630 C   0  0  0  0  0  0  0  0  0  0  0  0
   38.5040   30.2990   43.2290 H   0  0  0  0  0  0  0  0  0  0  0  0
   37.7090   28.3800   43.6800 C   0  0  0  0  0  3  0  0  0  0  0  0
   37.4580   27.0990   43.0690 C   0  0  0  0  0  3  0  0  0  0  0  0
   38.0980   27.3940   41.3090 S   0  0  0  0  0  0  0  0  0  0  0  0
  1  7  1  0  0  0  0
  2 19  1  0  0  0  0
  2  1  2  0  0  0  0
  3  2  1  0  0  0  0
  4  3  2  0  0  0  0
  4  5  1  0  0  0  0
  5  6  2  0  0  0  0
  6  1  1  0  0  0  0
  8  5  1  0  0  0  0
  9  3  1  0  0  0  0
  9 10  1  0  0  0  0
 10 15  1  0  0  0  0
 11 10  2  0  0  0  0
 11 16  1  0  0  0  0
 12 11  1  0  0  0  0
 13 14  1  0  0  0  0
 13 12  2  0  0  0  0
 14  9  2  0  0  0  0
 17 12  1  0  0  0  0
 18 13  1  0  0  0  0
 19 21  1  0  0  0  0
 20 19  2  0  0  0  0
 21 22  2  0  0  0  0
 22 23  1  0  0  0  0
 22 24  1  0  0  0  0
 25 24  2  0  0  0  0
 26 21  1  0  0  0  0
 26 25  1  0  0  0  0
M  END
>  <minimizedAffinity>
-5.0001092

$$$$

 OpenBabel03252507173D

 26 28  0  0  0  0  0  0  0  0999 V2000
   36.4780   30.0770   37.9620 C   0  0  0  0  0  0  0  0  0  0  0  0
   36.7860   29.7930   39.3080 C   0  0  0  0  0  0  0  0  0  0  0  0
   37.1730   28.4900   39.6140 C   0  0  0  0  0  0  0  0  0  0  0  0
   37.2430   27.5640   38.6450 N   0  0  0  0  0  0  0  0  0  0  0  0
   36.9380   27.8700   37.3420 C   0  0  0  0  0  0  0  0  0  0  0  0
   36.5680   29.1030   37.0360 N   0  0  0  0  0  0  0  0  0  0  0  0
   36.1690   31.0760   37.6590 H   0  0  0  0  0  0  0  0  0  0  0  0
   37.0020   27.1050   36.5840 H   0  0  0  0  0  0  0  0  0  0  0  0
   37.4930   28.1870   41.0010 C   0  0  0  0  0  0  0  0  0  0  0  0
   36.5320   27.6430   41.8260 C   0  0  0  0  0  0  0  0  0  0  0  0
   36.8630   27.3670   43.1290 C   0  0  0  0  0  0  0  0  0  0  0  0
   38.1150   27.6040   43.6790 C   0  0  0  0  0  0  0  0  0  0  0  0
   39.0230   28.1500   42.7960 C   0  0  0  0  0  0  0  0  0  0  0  0
   38.7020   28.4210   41.5130 N   0  0  0  0  0  0  0  0  0  0  0  0
   35.5470   27.4440   41.4330 H   0  0  0  0  0  0  0  0  0  0  0  0
   36.0710   26.9350   43.7490 H   0  0  0  0  0  0  0  0  0  0  0  0
   38.3070   27.3660   44.7000 H   0  0  0  0  0  0  0  0  0  0  0  0
   40.0230   28.3520   43.1890 H   0  0  0  0  0  0  0  0  0  0  0  0
   36.6890   30.8220   40.2790 C   0  0  0  0  0  0  0  0  0  0  0  0
   35.7770   30.7580   41.1390 O   0  0  0  0  0  0  0  0  0  0  0  0
   37.6430   31.9670   40.2950 C   0  0  0  0  0  0  0  0  0  0  0  0
   37.4690   33.2310   39.9350 C   0  0  0  0  0  0  0  0  0  0  0  0
   36.4940   33.5230   39.5650 H   0  0  0  0  0  0  0  0  0  0  0  0
   38.4770   34.1380   40.0260 C   0  0  0  0  0  3  0  0  0  0  0  0
   39.7210   33.6190   40.5340 C   0  0  0  0  0  3  0  0  0  0  0  0
   39.2710   31.8030   40.8370 S   0  0  0  0  0  0  0  0  0  0  0  0
  1  2  1  0  0  0  0
  2  3  2  0  0  0  0
  2 19  1  0  0  0  0
  3  9  1  0  0  0  0
  4  3  1  0  0  0  0
  5  4  2  0  0  0  0
  6  5  1  0  0  0  0
  6  1  2  0  0  0  0
  7  1  1  0  0  0  0
  8  5  1  0  0  0  0
  9 14  2  0  0  0  0
  9 10  1  0  0  0  0
 10 11  2  0  0  0  0
 11 12  1  0  0  0  0
 11 16  1  0  0  0  0
 12 17  1  0  0  0  0
 13 18  1  0  0  0  0
 13 12  2  0  0  0  0
 14 13  1  0  0  0  0
 15 10  1  0  0  0  0
 19 21  1  0  0  0  0
 19 20  2  0  0  0  0
 21 26  1  0  0  0  0
 22 24  1  0  0  0  0
 22 21  2  0  0  0  0
 23 22  1  0  0  0  0
 24 25  2  0  0  0  0
 25 26  1  0  0  0  0
M  END
>  <minimizedAffinity>
-4.97812414

$$$$

 OpenBabel03252507173D

 26 28  0  0  0  0  0  0  0  0999 V2000
   39.0030   32.2730   40.5110 C   0  0  0  0  0  0  0  0  0  0  0  0
   38.3180   31.0940   40.8710 C   0  0  0  0  0  0  0  0  0  0  0  0
   39.0050   30.1700   41.6550 C   0  0  0  0  0  0  0  0  0  0  0  0
   40.2670   30.4190   42.0380 N   0  0  0  0  0  0  0  0  0  0  0  0
   40.9090   31.5760   41.6720 C   0  0  0  0  0  0  0  0  0  0  0  0
   40.2690   32.4630   40.9280 N   0  0  0  0  0  0  0  0  0  0  0  0
   38.5210   33.0330   39.9000 H   0  0  0  0  0  0  0  0  0  0  0  0
   41.9240   31.7490   41.9940 H   0  0  0  0  0  0  0  0  0  0  0  0
   38.3070   28.9500   42.0320 C   0  0  0  0  0  0  0  0  0  0  0  0
   37.7090   28.8540   43.2710 C   0  0  0  0  0  0  0  0  0  0  0  0
   37.0580   27.6910   43.5990 C   0  0  0  0  0  0  0  0  0  0  0  0
   36.9610   26.5920   42.7570 C   0  0  0  0  0  0  0  0  0  0  0  0
   37.5820   26.7600   41.5380 C   0  0  0  0  0  0  0  0  0  0  0  0
   38.2240   27.9030   41.2110 N   0  0  0  0  0  0  0  0  0  0  0  0
   37.7630   29.6890   43.9520 H   0  0  0  0  0  0  0  0  0  0  0  0
   36.5960   27.6580   44.5910 H   0  0  0  0  0  0  0  0  0  0  0  0
   36.4390   25.7180   43.0740 H   0  0  0  0  0  0  0  0  0  0  0  0
   37.5300   25.9170   40.8450 H   0  0  0  0  0  0  0  0  0  0  0  0
   36.9850   30.8980   40.4290 C   0  0  0  0  0  0  0  0  0  0  0  0
   36.0420   31.2030   41.1980 O   0  0  0  0  0  0  0  0  0  0  0  0
   36.6890   30.3400   39.0800 C   0  0  0  0  0  0  0  0  0  0  0  0
   37.2180   30.6300   37.8990 C   0  0  0  0  0  0  0  0  0  0  0  0
   37.9920   31.3860   37.8610 H   0  0  0  0  0  0  0  0  0  0  0  0
   36.8070   30.0010   36.7660 C   0  0  0  0  0  3  0  0  0  0  0  0
   35.7720   29.0180   36.9540 C   0  0  0  0  0  3  0  0  0  0  0  0
   35.5000   29.1170   38.8280 S   0  0  0  0  0  0  0  0  0  0  0  0
  1  2  2  0  0  0  0
  1  6  1  0  0  0  0
  2  3  1  0  0  0  0
  3  9  1  0  0  0  0
  3  4  2  0  0  0  0
  5  8  1  0  0  0  0
  5  4  1  0  0  0  0
  6  5  2  0  0  0  0
  7  1  1  0  0  0  0
  9 10  1  0  0  0  0
 10 11  2  0  0  0  0
 10 15  1  0  0  0  0
 11 16  1  0  0  0  0
 12 17  1  0  0  0  0
 12 11  1  0  0  0  0
 13 12  2  0  0  0  0
 14 13  1  0  0  0  0
 14  9  2  0  0  0  0
 18 13  1  0  0  0  0
 19  2  1  0  0  0  0
 19 20  2  0  0  0  0
 21 19  1  0  0  0  0
 22 21  2  0  0  0  0
 23 22  1  0  0  0  0
 24 25  2  0  0  0  0
 24 22  1  0  0  0  0
 25 26  1  0  0  0  0
 26 21  1  0  0  0  0
M  END
>  <minimizedAffinity>
-4.8465085

$$$$

 OpenBabel03252507173D

 26 28  0  0  0  0  0  0  0  0999 V2000
   39.2460   28.8890   42.2210 C   0  0  0  0  0  0  0  0  0  0  0  0
   38.3170   28.9460   41.1620 C   0  0  0  0  0  0  0  0  0  0  0  0
   37.1270   28.2390   41.3180 C   0  0  0  0  0  0  0  0  0  0  0  0
   36.9000   27.5420   42.4420 N   0  0  0  0  0  0  0  0  0  0  0  0
   37.8230   27.5050   43.4570 C   0  0  0  0  0  0  0  0  0  0  0  0
   38.9590   28.1710   43.3240 N   0  0  0  0  0  0  0  0  0  0  0  0
   40.1940   29.4190   42.1600 H   0  0  0  0  0  0  0  0  0  0  0  0
   37.6150   26.9360   44.3500 H   0  0  0  0  0  0  0  0  0  0  0  0
   36.1610   28.2910   40.2300 C   0  0  0  0  0  0  0  0  0  0  0  0
   35.0880   29.1540   40.3040 C   0  0  0  0  0  0  0  0  0  0  0  0
   34.1930   29.1810   39.2630 C   0  0  0  0  0  0  0  0  0  0  0  0
   34.2970   28.3880   38.1290 C   0  0  0  0  0  0  0  0  0  0  0  0
   35.3940   27.5520   38.1260 C   0  0  0  0  0  0  0  0  0  0  0  0
   36.2760   27.5220   39.1480 N   0  0  0  0  0  0  0  0  0  0  0  0
   34.9740   29.7870   41.1710 H   0  0  0  0  0  0  0  0  0  0  0  0
   33.3560   29.8800   39.3630 H   0  0  0  0  0  0  0  0  0  0  0  0
   33.5670   28.4590   37.3560 H   0  0  0  0  0  0  0  0  0  0  0  0
   35.5130   26.9100   37.2500 H   0  0  0  0  0  0  0  0  0  0  0  0
   38.6240   29.7020   40.0030 C   0  0  0  0  0  0  0  0  0  0  0  0
   39.1760   29.1270   39.0340 O   0  0  0  0  0  0  0  0  0  0  0  0
   38.3050   31.1550   39.9170 C   0  0  0  0  0  0  0  0  0  0  0  0
   37.3200   31.7800   39.2860 C   0  0  0  0  0  0  0  0  0  0  0  0
   36.6110   31.1780   38.7330 H   0  0  0  0  0  0  0  0  0  0  0  0
   37.1980   33.1320   39.3290 C   0  0  0  0  0  3  0  0  0  0  0  0
   38.2060   33.8130   40.0990 C   0  0  0  0  0  3  0  0  0  0  0  0
   39.2610   32.3570   40.7010 S   0  0  0  0  0  0  0  0  0  0  0  0
  1  6  1  0  0  0  0
  2  3  1  0  0  0  0
  2  1  2  0  0  0  0
  3  4  2  0  0  0  0
  4  5  1  0  0  0  0
  5  8  1  0  0  0  0
  6  5  2  0  0  0  0
  7  1  1  0  0  0  0
  9 10  1  0  0  0  0
  9  3  1  0  0  0  0
 10 15  1  0  0  0  0
 11 16  1  0  0  0  0
 11 10  2  0  0  0  0
 12 11  1  0  0  0  0
 13 12  2  0  0  0  0
 13 14  1  0  0  0  0
 14  9  2  0  0  0  0
 17 12  1  0  0  0  0
 18 13  1  0  0  0  0
 19  2  1  0  0  0  0
 20 19  2  0  0  0  0
 21 19  1  0  0  0  0
 21 26  1  0  0  0  0
 22 24  1  0  0  0  0
 22 21  2  0  0  0  0
 23 22  1  0  0  0  0
 24 25  2  0  0  0  0
 25 26  1  0  0  0  0
M  END
>  <minimizedAffinity>
-4.82717466

$$$$

 OpenBabel03252507173D

 26 28  0  0  0  0  0  0  0  0999 V2000
   39.3540   32.0950   41.3400 C   0  0  0  0  0  0  0  0  0  0  0  0
   38.5340   31.2240   40.5940 C   0  0  0  0  0  0  0  0  0  0  0  0
   38.9550   30.8960   39.3070 C   0  0  0  0  0  0  0  0  0  0  0  0
   40.1000   31.4020   38.8240 N   0  0  0  0  0  0  0  0  0  0  0  0
   40.8790   32.2480   39.5740 C   0  0  0  0  0  0  0  0  0  0  0  0
   40.4910   32.5700   40.7980 N   0  0  0  0  0  0  0  0  0  0  0  0
   39.0790   32.3900   42.3510 H   0  0  0  0  0  0  0  0  0  0  0  0
   41.7940   32.6410   39.1610 H   0  0  0  0  0  0  0  0  0  0  0  0
   38.1160   29.9970   38.5280 C   0  0  0  0  0  0  0  0  0  0  0  0
   37.0790   30.5040   37.7740 C   0  0  0  0  0  0  0  0  0  0  0  0
   36.3050   29.6310   37.0500 C   0  0  0  0  0  0  0  0  0  0  0  0
   36.4980   28.2570   37.0270 C   0  0  0  0  0  0  0  0  0  0  0  0
   37.5520   27.8240   37.8040 C   0  0  0  0  0  0  0  0  0  0  0  0
   38.3160   28.6790   38.5170 N   0  0  0  0  0  0  0  0  0  0  0  0
   36.8980   31.5670   37.7670 H   0  0  0  0  0  0  0  0  0  0  0  0
   35.4920   30.0760   36.4660 H   0  0  0  0  0  0  0  0  0  0  0  0
   35.8600   27.6350   36.4420 H   0  0  0  0  0  0  0  0  0  0  0  0
   37.7390   26.7480   37.8140 H   0  0  0  0  0  0  0  0  0  0  0  0
   37.3360   30.7280   41.1680 C   0  0  0  0  0  0  0  0  0  0  0  0
   36.2700   31.3650   40.9880 O   0  0  0  0  0  0  0  0  0  0  0  0
   37.3230   29.4740   41.9730 C   0  0  0  0  0  0  0  0  0  0  0  0
   37.9740   29.1660   43.0870 C   0  0  0  0  0  0  0  0  0  0  0  0
   38.6300   29.9130   43.5140 H   0  0  0  0  0  0  0  0  0  0  0  0
   37.8260   27.9520   43.6790 C   0  0  0  0  0  3  0  0  0  0  0  0
   36.9240   27.0510   43.0100 C   0  0  0  0  0  3  0  0  0  0  0  0
   36.3670   28.1070   41.5370 S   0  0  0  0  0  0  0  0  0  0  0  0
  1  7  1  0  0  0  0
  2 19  1  0  0  0  0
  2  1  2  0  0  0  0
  3  2  1  0  0  0  0
  4  3  2  0  0  0  0
  4  5  1  0  0  0  0
  5  6  2  0  0  0  0
  6  1  1  0  0  0  0
  8  5  1  0  0  0  0
  9  3  1  0  0  0  0
 10  9  2  0  0  0  0
 11 10  1  0  0  0  0
 12 11  2  0  0  0  0
 12 13  1  0  0  0  0
 13 18  1  0  0  0  0
 13 14  2  0  0  0  0
 14  9  1  0  0  0  0
 15 10  1  0  0  0  0
 16 11  1  0  0  0  0
 17 12  1  0  0  0  0
 19 21  1  0  0  0  0
 20 19  2  0  0  0  0
 21 22  2  0  0  0  0
 22 23  1  0  0  0  0
 22 24  1  0  0  0  0
 25 24  2  0  0  0  0
 26 21  1  0  0  0  0
 26 25  1  0  0  0  0
M  END
>  <minimizedAffinity>
-4.62536573

$$$$

 OpenBabel03252507173D

 26 28  0  0  0  0  0  0  0  0999 V2000
   37.1040   27.0580   41.5840 C   0  0  0  0  0  0  0  0  0  0  0  0
   37.4140   28.2600   40.9160 C   0  0  0  0  0  0  0  0  0  0  0  0
   37.6770   29.3790   41.7040 C   0  0  0  0  0  0  0  0  0  0  0  0
   37.6310   29.2860   43.0420 N   0  0  0  0  0  0  0  0  0  0  0  0
   37.3260   28.1010   43.6650 C   0  0  0  0  0  0  0  0  0  0  0  0
   37.0730   27.0300   42.9300 N   0  0  0  0  0  0  0  0  0  0  0  0
   36.8880   26.1500   41.0250 H   0  0  0  0  0  0  0  0  0  0  0  0
   37.2950   28.0560   44.7430 H   0  0  0  0  0  0  0  0  0  0  0  0
   37.9990   30.6250   41.0250 C   0  0  0  0  0  0  0  0  0  0  0  0
   36.9900   31.4930   40.6650 C   0  0  0  0  0  0  0  0  0  0  0  0
   37.3240   32.6610   40.0250 C   0  0  0  0  0  0  0  0  0  0  0  0
   38.6250   33.0290   39.7110 C   0  0  0  0  0  0  0  0  0  0  0  0
   39.5790   32.1130   40.1000 C   0  0  0  0  0  0  0  0  0  0  0  0
   39.2540   30.9640   40.7310 N   0  0  0  0  0  0  0  0  0  0  0  0
   35.9660   31.2410   40.8930 H   0  0  0  0  0  0  0  0  0  0  0  0
   36.4930   33.3220   39.7580 H   0  0  0  0  0  0  0  0  0  0  0  0
   38.8160   33.9530   39.2130 H   0  0  0  0  0  0  0  0  0  0  0  0
   40.6170   32.3650   39.8720 H   0  0  0  0  0  0  0  0  0  0  0  0
   37.4440   28.2850   39.4990 C   0  0  0  0  0  0  0  0  0  0  0  0
   38.5410   28.1200   38.9140 O   0  0  0  0  0  0  0  0  0  0  0  0
   36.2050   28.5030   38.7010 C   0  0  0  0  0  0  0  0  0  0  0  0
   34.9610   28.7370   39.0960 C   0  0  0  0  0  0  0  0  0  0  0  0
   34.7690   28.7870   40.1610 H   0  0  0  0  0  0  0  0  0  0  0  0
   33.9540   28.9110   38.2010 C   0  0  0  0  0  3  0  0  0  0  0  0
   34.3450   28.8200   36.8180 C   0  0  0  0  0  3  0  0  0  0  0  0
   36.2030   28.4810   36.9770 S   0  0  0  0  0  0  0  0  0  0  0  0
  1  6  1  0  0  0  0
  2  1  2  0  0  0  0
  2  3  1  0  0  0  0
  3  4  2  0  0  0  0
  4  5  1  0  0  0  0
  5  8  1  0  0  0  0
  6  5  2  0  0  0  0
  7  1  1  0  0  0  0
  9  3  1  0  0  0  0
 10 15  1  0  0  0  0
 10  9  2  0  0  0  0
 11 10  1  0  0  0  0
 12 11  2  0  0  0  0
 12 13  1  0  0  0  0
 13 14  2  0  0  0  0
 14  9  1  0  0  0  0
 16 11  1  0  0  0  0
 17 12  1  0  0  0  0
 18 13  1  0  0  0  0
 19  2  1  0  0  0  0
 20 19  2  0  0  0  0
 21 22  2  0  0  0  0
 21 19  1  0  0  0  0
 22 23  1  0  0  0  0
 24 22  1  0  0  0  0
 25 26  1  0  0  0  0
 25 24  2  0  0  0  0
 26 21  1  0  0  0  0
M  END
>  <minimizedAffinity>
-4.61025286

$$$$

 OpenBabel03252507173D

 26 28  0  0  0  0  0  0  0  0999 V2000
   35.6640   29.1700   40.8550 C   0  0  0  0  0  0  0  0  0  0  0  0
   36.4080   28.0010   41.1130 C   0  0  0  0  0  0  0  0  0  0  0  0
   36.5170   27.0720   40.0800 C   0  0  0  0  0  0  0  0  0  0  0  0
   35.9280   27.3080   38.8980 N   0  0  0  0  0  0  0  0  0  0  0  0
   35.2090   28.4560   38.6750 C   0  0  0  0  0  0  0  0  0  0  0  0
   35.0960   29.3470   39.6470 N   0  0  0  0  0  0  0  0  0  0  0  0
   35.5410   29.9340   41.6210 H   0  0  0  0  0  0  0  0  0  0  0  0
   34.7450   28.6190   37.7150 H   0  0  0  0  0  0  0  0  0  0  0  0
   37.2850   25.8620   40.3360 C   0  0  0  0  0  0  0  0  0  0  0  0
   38.5660   25.7420   39.8410 C   0  0  0  0  0  0  0  0  0  0  0  0
   39.2650   24.5890   40.0990 C   0  0  0  0  0  0  0  0  0  0  0  0
   38.7620   23.5240   40.8320 C   0  0  0  0  0  0  0  0  0  0  0  0
   37.4770   23.7150   41.2930 C   0  0  0  0  0  0  0  0  0  0  0  0
   36.7860   24.8480   41.0430 N   0  0  0  0  0  0  0  0  0  0  0  0
   38.9910   26.5510   39.2670 H   0  0  0  0  0  0  0  0  0  0  0  0
   40.2790   24.5360   39.6880 H   0  0  0  0  0  0  0  0  0  0  0  0
   39.3590   22.6560   40.9960 H   0  0  0  0  0  0  0  0  0  0  0  0
   37.0430   22.8990   41.8760 H   0  0  0  0  0  0  0  0  0  0  0  0
   37.0030   27.8190   42.3870 C   0  0  0  0  0  0  0  0  0  0  0  0
   36.2830   27.4380   43.3420 O   0  0  0  0  0  0  0  0  0  0  0  0
   38.4550   28.0690   42.6090 C   0  0  0  0  0  0  0  0  0  0  0  0
   39.3840   27.2940   43.1510 C   0  0  0  0  0  0  0  0  0  0  0  0
   39.0860   26.3150   43.5040 H   0  0  0  0  0  0  0  0  0  0  0  0
   40.6730   27.7090   43.2650 C   0  0  0  0  0  3  0  0  0  0  0  0
   40.9370   29.0310   42.7590 C   0  0  0  0  0  3  0  0  0  0  0  0
   39.2180   29.5450   42.1470 S   0  0  0  0  0  0  0  0  0  0  0  0
  1  2  1  0  0  0  0
  1  7  1  0  0  0  0
  2 19  1  0  0  0  0
  3  9  1  0  0  0  0
  3  2  2  0  0  0  0
  4  3  1  0  0  0  0
  5  4  2  0  0  0  0
  5  6  1  0  0  0  0
  6  1  2  0  0  0  0
  8  5  1  0  0  0  0
  9 14  1  0  0  0  0
 10 11  1  0  0  0  0
 10  9  2  0  0  0  0
 11 12  2  0  0  0  0
 12 17  1  0  0  0  0
 12 13  1  0  0  0  0
 13 18  1  0  0  0  0
 14 13  2  0  0  0  0
 15 10  1  0  0  0  0
 16 11  1  0  0  0  0
 19 21  1  0  0  0  0
 19 20  2  0  0  0  0
 21 22  2  0  0  0  0
 22 24  1  0  0  0  0
 22 23  1  0  0  0  0
 25 24  2  0  0  0  0
 26 21  1  0  0  0  0
 26 25  1  0  0  0  0
M  END
>  <minimizedAffinity>
-4.52033806

$$$$

 OpenBabel03252507173D

 26 28  0  0  0  0  0  0  0  0999 V2000
   39.6290   28.0100   43.2340 C   0  0  0  0  0  0  0  0  0  0  0  0
   38.6490   27.3950   42.4280 C   0  0  0  0  0  0  0  0  0  0  0  0
   38.9570   26.1480   41.8880 C   0  0  0  0  0  0  0  0  0  0  0  0
   40.1450   25.5790   42.1410 N   0  0  0  0  0  0  0  0  0  0  0  0
   41.0810   26.2020   42.9300 C   0  0  0  0  0  0  0  0  0  0  0  0
   40.8030   27.3870   43.4500 N   0  0  0  0  0  0  0  0  0  0  0  0
   39.4490   28.9840   43.6850 H   0  0  0  0  0  0  0  0  0  0  0  0
   42.0290   25.7220   43.1160 H   0  0  0  0  0  0  0  0  0  0  0  0
   37.9510   25.5040   41.0550 C   0  0  0  0  0  0  0  0  0  0  0  0
   37.1450   24.5200   41.5870 C   0  0  0  0  0  0  0  0  0  0  0  0
   36.2060   23.9310   40.7770 C   0  0  0  0  0  0  0  0  0  0  0  0
   36.0120   24.2630   39.4430 C   0  0  0  0  0  0  0  0  0  0  0  0
   36.8540   25.2530   38.9820 C   0  0  0  0  0  0  0  0  0  0  0  0
   37.7790   25.8360   39.7750 N   0  0  0  0  0  0  0  0  0  0  0  0
   37.2660   24.2360   42.6200 H   0  0  0  0  0  0  0  0  0  0  0  0
   35.5860   23.1550   41.2390 H   0  0  0  0  0  0  0  0  0  0  0  0
   35.2630   23.7660   38.8690 H   0  0  0  0  0  0  0  0  0  0  0  0
   36.7340   25.5450   37.9360 H   0  0  0  0  0  0  0  0  0  0  0  0
   37.4150   28.0550   42.2030 C   0  0  0  0  0  0  0  0  0  0  0  0
   36.3950   27.6570   42.8160 O   0  0  0  0  0  0  0  0  0  0  0  0
   37.3090   29.2030   41.2590 C   0  0  0  0  0  0  0  0  0  0  0  0
   36.4610   30.2210   41.2410 C   0  0  0  0  0  0  0  0  0  0  0  0
   35.7080   30.2680   42.0180 H   0  0  0  0  0  0  0  0  0  0  0  0
   36.5280   31.1820   40.2820 C   0  0  0  0  0  3  0  0  0  0  0  0
   37.5750   31.0020   39.3090 C   0  0  0  0  0  3  0  0  0  0  0  0
   38.3780   29.3960   39.9190 S   0  0  0  0  0  0  0  0  0  0  0  0
  1  6  1  0  0  0  0
  1  7  1  0  0  0  0
  2  1  2  0  0  0  0
  3  4  2  0  0  0  0
  3  2  1  0  0  0  0
  4  5  1  0  0  0  0
  5  8  1  0  0  0  0
  5  6  2  0  0  0  0
  9 10  1  0  0  0  0
  9  3  1  0  0  0  0
 10 15  1  0  0  0  0
 11 16  1  0  0  0  0
 11 10  2  0  0  0  0
 12 11  1  0  0  0  0
 13 12  2  0  0  0  0
 13 14  1  0  0  0  0
 14  9  2  0  0  0  0
 17 12  1  0  0  0  0
 18 13  1  0  0  0  0
 19  2  1  0  0  0  0
 19 20  2  0  0  0  0
 21 19  1  0  0  0  0
 22 21  2  0  0  0  0
 22 23  1  0  0  0  0
 24 22  1  0  0  0  0
 25 26  1  0  0  0  0
 25 24  2  0  0  0  0
 26 21  1  0  0  0  0
M  END
>  <minimizedAffinity>
-4.48476553

$$$$
