
 OpenBabel03252508493D

 25 27  0  0  0  0  0  0  0  0999 V2000
   45.9440   34.2280   41.0290 C   0  0  0  0  0  0  0  0  0  0  0  0
   46.5430   34.8140   42.1440 C   0  0  0  0  0  0  0  0  0  0  0  0
   47.8930   35.1310   42.0310 C   0  0  0  0  0  0  0  0  0  0  0  0
   48.5370   34.8550   40.8530 N   0  0  0  0  0  0  0  0  0  0  0  0
   47.9250   34.2940   39.8150 C   0  0  0  0  0  0  0  0  0  0  0  0
   46.6150   33.9750   39.8950 N   0  0  0  0  0  0  0  0  0  0  0  0
   48.3830   35.5890   42.8870 H   0  0  0  0  0  0  0  0  0  0  0  0
   48.4470   34.0820   38.8910 H   0  0  0  0  0  0  0  0  0  0  0  0
   45.7590   35.0580   43.3400 C   0  0  0  0  0  0  0  0  0  0  0  0
   45.1100   36.2620   43.5800 C   0  0  0  0  0  0  0  0  0  0  0  0
   44.5030   36.0410   44.8100 C   0  0  0  0  0  0  0  0  0  0  0  0
   44.7700   34.7900   45.2740 N   0  0  0  0  0  0  0  0  0  0  0  0
   45.5280   34.2200   44.3680 N   0  0  0  0  0  0  0  0  0  0  0  0
   45.0570   37.1710   42.9970 H   0  0  0  0  0  0  0  0  0  0  0  0
   43.8910   36.7660   45.3450 H   0  0  0  0  0  0  0  0  0  0  0  0
   44.4290   34.3840   46.1740 H   0  0  0  0  0  0  0  0  0  0  0  0
   44.6070   33.8990   41.1030 O   0  0  0  0  0  0  0  0  0  0  0  0
   43.5510   34.6040   40.6010 C   0  0  0  0  0  0  0  0  0  0  0  0
   43.2420   35.8230   40.8360 O   0  0  0  0  0  0  0  0  0  0  0  0
   42.5240   34.0110   39.6360 C   0  0  0  0  0  0  0  0  0  0  0  0
   41.5190   34.6010   38.9820 C   0  0  0  0  0  0  0  0  0  0  0  0
   41.3920   35.6620   39.1480 H   0  0  0  0  0  0  0  0  0  0  0  0
   40.7120   33.8860   38.1610 C   0  0  0  0  0  3  0  0  0  0  0  0
   41.0300   32.4870   38.0640 C   0  0  0  0  0  3  0  0  0  0  0  0
   42.5160   32.3360   39.2110 S   0  0  0  0  0  0  0  0  0  0  0  0
  1 17  1  0  0  0  0
  1  2  1  0  0  0  0
  2  9  1  0  0  0  0
  3  2  2  0  0  0  0
  3  7  1  0  0  0  0
  4  3  1  0  0  0  0
  5  6  1  0  0  0  0
  5  4  2  0  0  0  0
  6  1  2  0  0  0  0
  8  5  1  0  0  0  0
  9 10  1  0  0  0  0
  9 13  2  0  0  0  0
 10 11  2  0  0  0  0
 11 12  1  0  0  0  0
 11 15  1  0  0  0  0
 12 16  1  0  0  0  0
 13 12  1  0  0  0  0
 14 10  1  0  0  0  0
 18 19  2  0  0  0  0
 18 17  1  0  0  0  0
 20 18  1  0  0  0  0
 21 22  1  0  0  0  0
 21 20  2  0  0  0  0
 23 21  1  0  0  0  0
 24 23  2  0  0  0  0
 24 25  1  0  0  0  0
 25 20  1  0  0  0  0
M  END
>  <minimizedAffinity>
-5.16500521

>  <minimizedRMSD>
0.861974061

$$$$
