
 OpenBabel03242516593D

 29 31  0  0  0  0  0  0  0  0999 V2000
   46.5610   34.7280   42.0050 C   0  0  0  0  0  0  0  0  0  0  0  0
   47.8770   35.1860   41.9210 C   0  0  0  0  0  0  0  0  0  0  0  0
   48.5810   34.9850   40.7550 C   0  0  0  0  0  0  0  0  0  0  0  0
   47.9780   34.3350   39.6900 C   0  0  0  0  0  0  0  0  0  0  0  0
   46.6970   33.8750   39.7370 C   0  0  0  0  0  0  0  0  0  0  0  0
   46.0090   34.0970   40.9360 C   0  0  0  0  0  0  0  0  0  0  0  0
   48.3360   35.6880   42.7500 H   0  0  0  0  0  0  0  0  0  0  0  0
   49.6030   35.3070   40.6050 H   0  0  0  0  0  0  0  0  0  0  0  0
   48.5340   34.1790   38.7750 H   0  0  0  0  0  0  0  0  0  0  0  0
   46.1910   33.3670   38.9340 H   0  0  0  0  0  0  0  0  0  0  0  0
   44.4970   36.2170   44.7870 C   0  0  0  0  0  0  0  0  0  0  0  0
   45.1280   36.0800   43.5430 C   0  0  0  0  0  0  0  0  0  0  0  0
   45.8730   34.9670   43.2500 C   0  0  0  0  0  0  0  0  0  0  0  0
   45.9610   34.0140   44.2350 N   0  0  0  0  0  0  0  0  0  0  0  0
   45.3520   34.1470   45.4350 C   0  0  0  0  0  0  0  0  0  0  0  0
   44.6160   35.2540   45.7120 N   0  0  0  0  0  0  0  0  0  0  0  0
   43.9330   37.1180   44.9350 H   0  0  0  0  0  0  0  0  0  0  0  0
   45.0500   36.8290   42.7880 H   0  0  0  0  0  0  0  0  0  0  0  0
   45.4700   33.3510   46.1570 H   0  0  0  0  0  0  0  0  0  0  0  0
   43.3890   34.1770   40.7890 C   0  0  0  0  0  0  0  0  0  0  0  0
   43.1450   35.2420   40.2180 O   0  0  0  0  0  0  0  0  0  0  0  0
   44.6700   33.6680   41.1190 N   0  0  0  0  0  0  0  0  0  0  0  0
   44.8050   32.7470   41.6300 H   0  0  0  0  0  0  0  0  0  0  0  0
   42.2440   33.3010   41.1950 C   0  0  0  0  0  0  0  0  0  0  0  0
   42.1400   32.0720   41.6030 C   0  0  0  0  0  0  0  0  0  0  0  0
   43.0680   31.5220   41.6820 H   0  0  0  0  0  0  0  0  0  0  0  0
   40.9260   31.5180   41.9120 C   0  0  0  0  0  0  0  0  0  0  0  0
   39.8110   32.4170   41.7410 C   0  0  0  0  0  0  0  0  0  0  0  0
   40.6550   33.9860   41.1430 S   0  0  0  0  0  0  0  0  0  0  0  0
  1 13  1  0  0  0  0
  2  1  1  0  0  0  0
  2  7  1  0  0  0  0
  3  2  2  0  0  0  0
  4  5  2  0  0  0  0
  4  3  1  0  0  0  0
  5  6  1  0  0  0  0
  6 22  1  0  0  0  0
  6  1  2  0  0  0  0
  8  3  1  0  0  0  0
  9  4  1  0  0  0  0
 10  5  1  0  0  0  0
 11 17  1  0  0  0  0
 11 16  1  0  0  0  0
 12 11  2  0  0  0  0
 13 12  1  0  0  0  0
 13 14  2  0  0  0  0
 14 15  1  0  0  0  0
 15 16  2  0  0  0  0
 15 19  1  0  0  0  0
 18 12  1  0  0  0  0
 20 22  1  0  0  0  0
 20 24  1  0  0  0  0
 21 20  2  0  0  0  0
 22 23  1  0  0  0  0
 24 25  2  0  0  0  0
 25 26  1  0  0  0  0
 25 27  1  0  0  0  0
 28 27  2  0  0  0  0
 29 24  1  0  0  0  0
 29 28  1  0  0  0  0
M  END
>  <minimizedAffinity>
-6.0783267

>  <minimizedRMSD>
0.707954168

$$$$
