
 OpenBabel03252508493D

 25 27  0  0  0  0  0  0  0  0999 V2000
   45.9070   34.1140   41.0550 C   0  0  0  0  0  0  0  0  0  0  0  0
   46.5040   34.7820   42.1240 C   0  0  0  0  0  0  0  0  0  0  0  0
   47.8300   35.1680   41.9550 C   0  0  0  0  0  0  0  0  0  0  0  0
   48.4540   34.8740   40.7700 N   0  0  0  0  0  0  0  0  0  0  0  0
   47.8450   34.2350   39.7770 C   0  0  0  0  0  0  0  0  0  0  0  0
   46.5570   33.8480   39.9130 N   0  0  0  0  0  0  0  0  0  0  0  0
   48.3180   35.6900   42.7740 H   0  0  0  0  0  0  0  0  0  0  0  0
   48.3500   34.0100   38.8480 H   0  0  0  0  0  0  0  0  0  0  0  0
   45.7430   35.0360   43.3330 C   0  0  0  0  0  0  0  0  0  0  0  0
   45.0540   36.2220   43.5510 C   0  0  0  0  0  0  0  0  0  0  0  0
   44.4890   36.0190   44.8050 C   0  0  0  0  0  0  0  0  0  0  0  0
   44.8170   34.7950   45.3020 N   0  0  0  0  0  0  0  0  0  0  0  0
   45.5720   34.2240   44.3930 N   0  0  0  0  0  0  0  0  0  0  0  0
   44.9500   37.1070   42.9410 H   0  0  0  0  0  0  0  0  0  0  0  0
   43.8630   36.7370   45.3330 H   0  0  0  0  0  0  0  0  0  0  0  0
   44.5160   34.4070   46.2230 H   0  0  0  0  0  0  0  0  0  0  0  0
   44.5930   33.7160   41.1860 O   0  0  0  0  0  0  0  0  0  0  0  0
   43.4820   34.3560   40.7180 C   0  0  0  0  0  0  0  0  0  0  0  0
   43.3280   35.6100   40.5200 O   0  0  0  0  0  0  0  0  0  0  0  0
   42.1870   33.6340   40.3440 C   0  0  0  0  0  0  0  0  0  0  0  0
   41.2190   33.1460   41.1240 C   0  0  0  0  0  0  0  0  0  0  0  0
   41.3500   33.2700   42.1900 H   0  0  0  0  0  0  0  0  0  0  0  0
   40.1370   32.5330   40.5850 C   0  0  0  0  0  3  0  0  0  0  0  0
   40.1310   32.4590   39.1500 C   0  0  0  0  0  3  0  0  0  0  0  0
   41.7500   33.3150   38.7020 S   0  0  0  0  0  0  0  0  0  0  0  0
  1 17  1  0  0  0  0
  1  2  1  0  0  0  0
  2  9  1  0  0  0  0
  3  2  2  0  0  0  0
  3  7  1  0  0  0  0
  4  3  1  0  0  0  0
  5  6  1  0  0  0  0
  5  4  2  0  0  0  0
  6  1  2  0  0  0  0
  8  5  1  0  0  0  0
  9 10  1  0  0  0  0
  9 13  2  0  0  0  0
 10 11  2  0  0  0  0
 11 12  1  0  0  0  0
 11 15  1  0  0  0  0
 12 16  1  0  0  0  0
 13 12  1  0  0  0  0
 14 10  1  0  0  0  0
 18 17  1  0  0  0  0
 19 18  2  0  0  0  0
 20 18  1  0  0  0  0
 20 21  2  0  0  0  0
 21 22  1  0  0  0  0
 23 21  1  0  0  0  0
 24 23  2  0  0  0  0
 25 24  1  0  0  0  0
 25 20  1  0  0  0  0
M  END
>  <minimizedAffinity>
-4.98495913

>  <minimizedRMSD>
0.873309195

$$$$
