
 OpenBabel03242510223D

 35 38  0  0  1  0  0  0  0  0999 V2000
   48.0540   33.2250   43.1750 N   0  0  0  0  0  0  0  0  0  0  0  0
   49.2000   33.2570   42.3850 C   0  0  0  0  0  0  0  0  0  0  0  0
   50.3600   32.8230   42.6080 O   0  0  0  0  0  0  0  0  0  0  0  0
   47.5320   34.1500   43.1280 H   0  0  0  0  0  0  0  0  0  0  0  0
   46.2960   32.0980   44.4930 C   0  0  1  0  0  0  0  0  0  0  0  0
   46.4390   31.3470   43.3200 C   0  0  0  0  0  0  0  0  0  0  0  0
   47.6670   32.0880   43.9330 C   0  0  1  0  0  0  0  0  0  0  0  0
   46.1090   31.6370   45.4910 H   0  0  0  0  0  0  0  0  0  0  0  0
   46.5180   30.2210   43.4050 H   0  0  0  0  0  0  0  0  0  0  0  0
   46.1810   31.6140   42.2780 H   0  0  0  0  0  0  0  0  0  0  0  0
   48.4720   31.3920   44.2300 H   0  0  0  0  0  0  0  0  0  0  0  0
   45.0660   33.9660   43.1580 C   0  0  0  0  0  0  0  0  0  0  0  0
   45.5500   33.4370   44.4010 C   0  0  0  0  0  0  0  0  0  0  0  0
   45.3450   34.1940   45.5400 C   0  0  0  0  0  0  0  0  0  0  0  0
   44.7070   35.3790   45.4330 N   0  0  0  0  0  0  0  0  0  0  0  0
   44.2530   35.8680   44.2430 C   0  0  0  0  0  0  0  0  0  0  0  0
   44.4440   35.1270   43.0750 N   0  0  0  0  0  0  0  0  0  0  0  0
   45.2100   33.3590   42.2870 H   0  0  0  0  0  0  0  0  0  0  0  0
   45.6970   33.8250   46.4930 H   0  0  0  0  0  0  0  0  0  0  0  0
   43.7670   36.8250   44.3290 H   0  0  0  0  0  0  0  0  0  0  0  0
   49.1360   33.8950   41.0090 C   0  0  2  0  0  0  0  0  0  0  0  0
   48.6470   35.3860   40.9500 C   0  0  0  0  0  0  0  0  0  0  0  0
   47.8540   34.2550   40.3940 C   0  0  1  0  0  0  0  0  0  0  0  0
   50.0250   33.7860   40.3560 H   0  0  0  0  0  0  0  0  0  0  0  0
   49.1780   36.0820   40.3100 H   0  0  0  0  0  0  0  0  0  0  0  0
   48.3560   35.8100   41.9330 H   0  0  0  0  0  0  0  0  0  0  0  0
   46.9400   33.8820   40.9240 H   0  0  0  0  0  0  0  0  0  0  0  0
   47.7520   34.1420   38.8920 C   0  0  0  0  0  0  0  0  0  0  0  0
   48.5480   34.7100   38.1660 O   0  0  0  0  0  0  0  0  0  0  0  0
   46.6310   33.3040   38.3140 C   0  0  0  0  0  0  0  0  0  0  0  0
   45.4700   32.8690   38.7450 C   0  0  0  0  0  0  0  0  0  0  0  0
   45.2520   33.1790   39.7560 H   0  0  0  0  0  0  0  0  0  0  0  0
   44.6830   32.1110   37.9310 C   0  0  0  0  0  0  0  0  0  0  0  0
   45.2600   31.8550   36.5950 C   0  0  0  0  0  0  0  0  0  0  0  0
   46.9100   32.7810   36.7170 S   0  0  0  0  0  0  0  0  0  0  0  0
  1  7  1  0  0  0  0
  2  3  2  0  0  0  0
  2  1  1  0  0  0  0
  4  1  1  0  0  0  0
  5  8  1  1  0  0  0
  6  9  1  0  0  0  0
  6  7  1  0  0  0  0
  6  5  1  0  0  0  0
  7 11  1  1  0  0  0
  7  5  1  0  0  0  0
 10  6  1  0  0  0  0
 12 13  1  0  0  0  0
 13  5  1  0  0  0  0
 13 14  2  0  0  0  0
 14 19  1  0  0  0  0
 15 14  1  0  0  0  0
 16 20  1  0  0  0  0
 16 15  2  0  0  0  0
 17 12  2  0  0  0  0
 17 16  1  0  0  0  0
 18 12  1  0  0  0  0
 21 24  1  6  0  0  0
 21  2  1  0  0  0  0
 22 21  1  0  0  0  0
 22 26  1  0  0  0  0
 23 27  1  1  0  0  0
 23 22  1  0  0  0  0
 23 21  1  0  0  0  0
 25 22  1  0  0  0  0
 28 23  1  0  0  0  0
 29 28  2  0  0  0  0
 30 31  2  0  0  0  0
 30 28  1  0  0  0  0
 31 32  1  0  0  0  0
 33 31  1  0  0  0  0
 34 35  1  0  0  0  0
 34 33  2  0  0  0  0
 35 30  1  0  0  0  0
M  END
>  <minimizedAffinity>
-4.72960758

>  <minimizedRMSD>
0.14614892

$$$$
