
 OpenBabel03252508493D

 25 27  0  0  0  0  0  0  0  0999 V2000
   45.9710   34.1930   41.0460 C   0  0  0  0  0  0  0  0  0  0  0  0
   46.5540   34.8190   42.1470 C   0  0  0  0  0  0  0  0  0  0  0  0
   47.8920   35.1830   42.0210 C   0  0  0  0  0  0  0  0  0  0  0  0
   48.5380   34.9100   40.8430 N   0  0  0  0  0  0  0  0  0  0  0  0
   47.9420   34.3100   39.8190 C   0  0  0  0  0  0  0  0  0  0  0  0
   46.6450   33.9440   39.9130 N   0  0  0  0  0  0  0  0  0  0  0  0
   48.3680   35.6740   42.8650 H   0  0  0  0  0  0  0  0  0  0  0  0
   48.4660   34.1000   38.8960 H   0  0  0  0  0  0  0  0  0  0  0  0
   45.7680   35.0560   43.3430 C   0  0  0  0  0  0  0  0  0  0  0  0
   45.0810   36.2410   43.5680 C   0  0  0  0  0  0  0  0  0  0  0  0
   44.4880   36.0190   44.8050 C   0  0  0  0  0  0  0  0  0  0  0  0
   44.7990   34.7850   45.2870 N   0  0  0  0  0  0  0  0  0  0  0  0
   45.5710   34.2260   44.3850 N   0  0  0  0  0  0  0  0  0  0  0  0
   44.9940   37.1380   42.9710 H   0  0  0  0  0  0  0  0  0  0  0  0
   43.8540   36.7310   45.3320 H   0  0  0  0  0  0  0  0  0  0  0  0
   44.4760   34.3820   46.1940 H   0  0  0  0  0  0  0  0  0  0  0  0
   44.6480   33.8160   41.1330 O   0  0  0  0  0  0  0  0  0  0  0  0
   43.5640   34.4680   40.6190 C   0  0  0  0  0  0  0  0  0  0  0  0
   43.3290   35.7260   40.6360 O   0  0  0  0  0  0  0  0  0  0  0  0
   42.4090   33.7590   39.9130 C   0  0  0  0  0  0  0  0  0  0  0  0
   42.1970   33.5500   38.6100 C   0  0  0  0  0  0  0  0  0  0  0  0
   42.9450   33.9370   37.9310 H   0  0  0  0  0  0  0  0  0  0  0  0
   41.0950   32.8860   38.1840 C   0  0  0  0  0  3  0  0  0  0  0  0
   40.2100   32.4460   39.2270 C   0  0  0  0  0  3  0  0  0  0  0  0
   41.0900   33.0540   40.7780 S   0  0  0  0  0  0  0  0  0  0  0  0
  1 17  1  0  0  0  0
  1  2  1  0  0  0  0
  2  9  1  0  0  0  0
  3  2  2  0  0  0  0
  3  7  1  0  0  0  0
  4  3  1  0  0  0  0
  5  6  1  0  0  0  0
  5  4  2  0  0  0  0
  6  1  2  0  0  0  0
  8  5  1  0  0  0  0
  9 10  1  0  0  0  0
  9 13  2  0  0  0  0
 10 11  2  0  0  0  0
 11 12  1  0  0  0  0
 11 15  1  0  0  0  0
 12 16  1  0  0  0  0
 13 12  1  0  0  0  0
 14 10  1  0  0  0  0
 18 19  2  0  0  0  0
 18 17  1  0  0  0  0
 20 18  1  0  0  0  0
 20 25  1  0  0  0  0
 21 20  2  0  0  0  0
 22 21  1  0  0  0  0
 23 21  1  0  0  0  0
 23 24  2  0  0  0  0
 24 25  1  0  0  0  0
M  END
>  <minimizedAffinity>
-5.09226036

>  <minimizedRMSD>
0.530098259

$$$$
