
 OpenBabel03252503333D

 19 20  0  0  0  0  0  0  0  0999 V2000
   48.3410   32.9160   41.8130 C   0  0  0  0  0  0  0  0  0  0  0  0
   47.2210   32.4980   41.4190 O   0  0  0  0  0  0  0  0  0  0  0  0
   48.2960   33.8960   42.8360 N   0  0  0  0  0  0  0  0  0  0  0  0
   49.2410   34.2420   43.1800 H   0  0  0  0  0  0  0  0  0  0  0  0
   45.1140   35.7930   43.2880 C   0  0  0  0  0  0  0  0  0  0  0  0
   46.3330   35.3950   42.7150 C   0  0  0  0  0  0  0  0  0  0  0  0
   47.0530   34.3640   43.3460 C   0  0  0  0  0  0  0  0  0  0  0  0
   46.5330   33.8090   44.4720 N   0  0  0  0  0  0  0  0  0  0  0  0
   45.3470   34.2250   44.9970 C   0  0  0  0  0  0  0  0  0  0  0  0
   44.6590   35.2060   44.3980 N   0  0  0  0  0  0  0  0  0  0  0  0
   44.6050   36.5860   42.7630 H   0  0  0  0  0  0  0  0  0  0  0  0
   46.7720   35.8090   41.8290 H   0  0  0  0  0  0  0  0  0  0  0  0
   44.9960   33.7330   45.8990 H   0  0  0  0  0  0  0  0  0  0  0  0
   49.5490   32.4270   41.2600 C   0  0  0  0  0  0  0  0  0  0  0  0
   50.8420   32.2840   41.6240 C   0  0  0  0  0  0  0  0  0  0  0  0
   51.0080   32.6470   42.6300 H   0  0  0  0  0  0  0  0  0  0  0  0
   51.7800   31.7520   40.8100 C   0  0  0  0  0  3  0  0  0  0  0  0
   51.2950   31.3520   39.5280 C   0  0  0  0  0  3  0  0  0  0  0  0
   49.5250   31.7630   39.5740 S   0  0  0  0  0  0  0  0  0  0  0  0
  1  3  1  0  0  0  0
  2  1  2  0  0  0  0
  3  4  1  0  0  0  0
  3  7  1  0  0  0  0
  5 10  1  0  0  0  0
  6  5  2  0  0  0  0
  6  7  1  0  0  0  0
  7  8  2  0  0  0  0
  8  9  1  0  0  0  0
  9 13  1  0  0  0  0
 10  9  2  0  0  0  0
 11  5  1  0  0  0  0
 12  6  1  0  0  0  0
 14 15  2  0  0  0  0
 14  1  1  0  0  0  0
 15 16  1  0  0  0  0
 17 15  1  0  0  0  0
 18 19  1  0  0  0  0
 18 17  2  0  0  0  0
 19 14  1  0  0  0  0
M  END
>  <minimizedAffinity>
-3.73039389

>  <minimizedRMSD>
2.95926213

$$$$
