
 OpenBabel03252503333D

 19 20  0  0  0  0  0  0  0  0999 V2000
   45.9830   33.8630   40.9870 C   0  0  0  0  0  0  0  0  0  0  0  0
   44.9220   33.2660   41.3080 O   0  0  0  0  0  0  0  0  0  0  0  0
   46.5430   34.6890   41.9930 N   0  0  0  0  0  0  0  0  0  0  0  0
   47.4460   35.1840   41.7280 H   0  0  0  0  0  0  0  0  0  0  0  0
   44.4680   35.9490   44.8280 C   0  0  0  0  0  0  0  0  0  0  0  0
   45.0460   35.8960   43.5480 C   0  0  0  0  0  0  0  0  0  0  0  0
   45.9130   34.8250   43.2610 C   0  0  0  0  0  0  0  0  0  0  0  0
   46.1440   33.9030   44.2320 N   0  0  0  0  0  0  0  0  0  0  0  0
   45.5630   33.9910   45.4610 C   0  0  0  0  0  0  0  0  0  0  0  0
   44.7380   35.0100   45.7370 N   0  0  0  0  0  0  0  0  0  0  0  0
   43.8130   36.7910   44.9930 H   0  0  0  0  0  0  0  0  0  0  0  0
   44.8870   36.6040   42.7600 H   0  0  0  0  0  0  0  0  0  0  0  0
   45.7960   33.2170   46.1850 H   0  0  0  0  0  0  0  0  0  0  0  0
   46.5600   33.7040   39.7030 C   0  0  0  0  0  0  0  0  0  0  0  0
   46.2330   33.1680   38.5080 C   0  0  0  0  0  0  0  0  0  0  0  0
   45.2430   32.7300   38.5320 H   0  0  0  0  0  0  0  0  0  0  0  0
   47.0610   33.1930   37.4400 C   0  0  0  0  0  3  0  0  0  0  0  0
   48.3150   33.8340   37.6770 C   0  0  0  0  0  3  0  0  0  0  0  0
   48.2250   34.3590   39.4150 S   0  0  0  0  0  0  0  0  0  0  0  0
  1  2  2  0  0  0  0
  1  3  1  0  0  0  0
  3  7  1  0  0  0  0
  4  3  1  0  0  0  0
  5 11  1  0  0  0  0
  5 10  1  0  0  0  0
  6  5  2  0  0  0  0
  7  6  1  0  0  0  0
  7  8  2  0  0  0  0
  8  9  1  0  0  0  0
  9 10  2  0  0  0  0
  9 13  1  0  0  0  0
 12  6  1  0  0  0  0
 14  1  1  0  0  0  0
 15 16  1  0  0  0  0
 15 14  2  0  0  0  0
 17 18  2  0  0  0  0
 17 15  1  0  0  0  0
 18 19  1  0  0  0  0
 19 14  1  0  0  0  0
M  END
>  <minimizedAffinity>
-3.94949913

>  <minimizedRMSD>
0.627056479

$$$$
