
 OpenBabel03252503273D

 22 23  0  0  0  0  0  0  0  0999 V2000
   45.2490   35.0480   42.8040 C   0  0  0  0  0  0  0  0  0  0  0  0
   46.3260   35.3920   41.9470 C   0  0  0  0  0  0  0  0  0  0  0  0
   47.5890   34.8940   42.3210 C   0  0  0  0  0  0  0  0  0  0  0  0
   47.6800   34.1470   43.4370 N   0  0  0  0  0  0  0  0  0  0  0  0
   46.6250   33.8470   44.2190 C   0  0  0  0  0  0  0  0  0  0  0  0
   45.4060   34.3060   43.8920 N   0  0  0  0  0  0  0  0  0  0  0  0
   43.3630   34.7810   41.4380 C   0  0  0  0  0  0  0  0  0  0  0  0
   44.0450   33.8690   40.8920 O   0  0  0  0  0  0  0  0  0  0  0  0
   43.9210   35.5060   42.5110 N   0  0  0  0  0  0  0  0  0  0  0  0
   46.1330   36.0010   41.0730 H   0  0  0  0  0  0  0  0  0  0  0  0
   46.7730   33.2400   45.1050 H   0  0  0  0  0  0  0  0  0  0  0  0
   43.3440   36.2410   42.9420 H   0  0  0  0  0  0  0  0  0  0  0  0
   42.0040   35.0100   40.8840 C   0  0  0  0  0  0  0  0  0  0  0  0
   41.0980   35.9470   41.1790 C   0  0  0  0  0  0  0  0  0  0  0  0
   41.3430   36.6810   41.9330 H   0  0  0  0  0  0  0  0  0  0  0  0
   39.8970   35.9480   40.5180 C   0  0  0  0  0  0  0  0  0  0  0  0
   39.7040   34.9410   39.5600 C   0  0  0  0  0  0  0  0  0  0  0  0
   41.3450   34.0050   39.6720 S   0  0  0  0  0  0  0  0  0  0  0  0
   48.6830   35.2600   41.4250 C   0  0  0  0  0  0  0  0  0  0  0  0
   49.7670   34.4160   41.6710 F   0  0  0  0  0  0  0  0  0  0  0  0
   49.1190   36.5280   41.8120 F   0  0  0  0  0  0  0  0  0  0  0  0
   48.3710   35.1800   40.1100 F   0  0  0  0  0  0  0  0  0  0  0  0
  1  6  1  0  0  0  0
  2  3  1  0  0  0  0
  2  1  2  0  0  0  0
  3  4  2  0  0  0  0
  4  5  1  0  0  0  0
  5 11  1  0  0  0  0
  6  5  2  0  0  0  0
  7  9  1  0  0  0  0
  8  7  2  0  0  0  0
  9  1  1  0  0  0  0
  9 12  1  0  0  0  0
 10  2  1  0  0  0  0
 13 14  2  0  0  0  0
 13  7  1  0  0  0  0
 14 15  1  0  0  0  0
 16 14  1  0  0  0  0
 17 18  1  0  0  0  0
 17 16  2  0  0  0  0
 18 13  1  0  0  0  0
 19 20  1  0  0  0  0
 19 21  1  0  0  0  0
 19  3  1  0  0  0  0
 22 19  1  0  0  0  0
M  END
>  <minimizedAffinity>
-5.98405647

>  <minimizedRMSD>
0.874849141

$$$$
