REMARK  Name = 
REMARK  2 active torsions:
REMARK  status: ('A' for Active; 'I' for Inactive)
REMARK    1  A    between atoms: C_3  and  N_9
REMARK    2  A    between atoms: C_7  and  C_14
REMARK                            x       y       z     vdW  Elec       q    Type
REMARK                         _______ _______ _______ _____ _____    ______ ____
ROOT
ATOM      1  C   UNL     1      46.378  34.200  40.799  0.00  0.00    +0.000 C 
ATOM      2  O   UNL     1      45.220  33.726  40.935  0.00  0.00    +0.000 OA
ATOM      3  N   UNL     1      46.906  34.849  41.943  0.00  0.00    +0.000 N 
ATOM      4  H   UNL     1      47.889  35.239  41.835  0.00  0.00    +0.000 HD
ENDROOT
BRANCH   3   7
ATOM      5  C   UNL     1      44.535  36.038  44.569  0.00  0.00    +0.000 A 
ATOM      6  C   UNL     1      45.246  36.015  43.357  0.00  0.00    +0.000 A 
ATOM      7  C   UNL     1      46.144  34.954  43.140  0.00  0.00    +0.000 A 
ATOM      8  N   UNL     1      46.276  34.011  44.110  0.00  0.00    +0.000 NA
ATOM      9  C   UNL     1      45.568  34.070  45.272  0.00  0.00    +0.000 A 
ATOM     10  N   UNL     1      44.712  35.079  45.481  0.00  0.00    +0.000 NA
ATOM     11  H   UNL     1      43.861  36.873  44.682  0.00  0.00    +0.000 HD
ATOM     12  H   UNL     1      45.167  36.740  42.572  0.00  0.00    +0.000 HD
ATOM     13  H   UNL     1      45.727  33.280  45.999  0.00  0.00    +0.000 HD
ENDBRANCH   3   7
BRANCH   1  14
ATOM     14  C   UNL     1      47.087  34.081  39.579  0.00  0.00    +0.000 A 
ATOM     15  C   UNL     1      47.014  33.369  38.434  0.00  0.00    +0.000 A 
ATOM     16  H   UNL     1      46.171  32.690  38.447  0.00  0.00    +0.000 HD
ATOM     17  C   UNL     1      47.898  33.512  37.422  0.00  0.00    +0.000 A 
ATOM     18  C   UNL     1      48.921  34.480  37.661  0.00  0.00    +0.000 A 
ATOM     19  S   UNL     1      48.547  35.123  39.320  0.00  0.00    +0.000 S 
ENDBRANCH   1  14
TORSDOF 2
