
 OpenBabel03252503343D

 19 20  0  0  0  0  0  0  0  0999 V2000
   46.3590   33.9900   40.8980 C   0  0  0  0  0  0  0  0  0  0  0  0
   45.3330   33.3090   41.1560 O   0  0  0  0  0  0  0  0  0  0  0  0
   46.8060   34.8340   41.9460 N   0  0  0  0  0  0  0  0  0  0  0  0
   47.6810   35.4010   41.7350 H   0  0  0  0  0  0  0  0  0  0  0  0
   44.5170   35.8790   44.7020 C   0  0  0  0  0  0  0  0  0  0  0  0
   45.1590   35.8980   43.4520 C   0  0  0  0  0  0  0  0  0  0  0  0
   46.1080   34.8940   43.1840 C   0  0  0  0  0  0  0  0  0  0  0  0
   46.3520   33.9630   44.1440 N   0  0  0  0  0  0  0  0  0  0  0  0
   45.7080   33.9810   45.3440 C   0  0  0  0  0  0  0  0  0  0  0  0
   44.8040   34.9350   45.6020 N   0  0  0  0  0  0  0  0  0  0  0  0
   43.8000   36.6710   44.8540 H   0  0  0  0  0  0  0  0  0  0  0  0
   44.9910   36.6150   42.6740 H   0  0  0  0  0  0  0  0  0  0  0  0
   45.9560   33.2040   46.0590 H   0  0  0  0  0  0  0  0  0  0  0  0
   47.0080   33.9040   39.6420 C   0  0  0  0  0  0  0  0  0  0  0  0
   48.1320   34.3660   39.0530 C   0  0  0  0  0  0  0  0  0  0  0  0
   48.7080   34.9800   39.7330 H   0  0  0  0  0  0  0  0  0  0  0  0
   48.4630   34.0770   37.7750 C   0  0  0  0  0  3  0  0  0  0  0  0
   47.5270   33.2410   37.0940 C   0  0  0  0  0  3  0  0  0  0  0  0
   46.2320   32.9240   38.3300 S   0  0  0  0  0  0  0  0  0  0  0  0
  1  2  2  0  0  0  0
  1  3  1  0  0  0  0
  3  7  1  0  0  0  0
  4  3  1  0  0  0  0
  5 11  1  0  0  0  0
  5 10  1  0  0  0  0
  6  5  2  0  0  0  0
  7  6  1  0  0  0  0
  7  8  2  0  0  0  0
  8  9  1  0  0  0  0
  9 10  2  0  0  0  0
  9 13  1  0  0  0  0
 12  6  1  0  0  0  0
 14  1  1  0  0  0  0
 15 14  2  0  0  0  0
 15 16  1  0  0  0  0
 17 15  1  0  0  0  0
 18 17  2  0  0  0  0
 18 19  1  0  0  0  0
 19 14  1  0  0  0  0
M  END
>  <minimizedAffinity>
-4.28384972

>  <minimizedRMSD>
0.43191731

$$$$
