
 OpenBabel03252508023D

 39 42  0  0  1  0  0  0  0  0999 V2000
   44.2220   34.3640   41.5330 C   0  0  0  0  0  0  0  0  0  0  0  0
   45.0950   34.2510   40.6150 O   0  0  0  0  0  0  0  0  0  0  0  0
   42.0170   33.2960   41.1100 C   0  0  0  0  0  0  0  0  0  0  0  0
   42.7740   34.4160   41.3070 C   0  0  0  0  0  0  0  0  0  0  0  0
   42.1250   35.6650   41.2880 C   0  0  0  0  0  0  0  0  0  0  0  0
   40.7800   35.8180   41.0840 C   0  0  0  0  0  0  0  0  0  0  0  0
   40.0210   34.6920   40.8870 C   0  0  0  0  0  0  0  0  0  0  0  0
   40.6410   33.4770   40.9040 C   0  0  0  0  0  0  0  0  0  0  0  0
   42.6470   36.6030   41.4250 H   0  0  0  0  0  0  0  0  0  0  0  0
   40.2810   36.7570   41.0660 H   0  0  0  0  0  0  0  0  0  0  0  0
   38.9540   34.6620   40.7150 H   0  0  0  0  0  0  0  0  0  0  0  0
   40.0780   32.5580   40.7530 H   0  0  0  0  0  0  0  0  0  0  0  0
   42.6970   31.7320   41.1880 S   0  0  0  0  0  0  0  0  0  0  0  0
   41.5480   30.9150   40.5080 O   0  0  0  0  0  0  0  0  0  0  0  0
   42.7960   31.2440   42.5880 O   0  0  0  0  0  0  0  0  0  0  0  0
   43.7430   31.0220   40.1660 C   0  0  0  0  0  0  0  0  0  0  0  0
   44.7950   30.0600   40.0060 C   0  0  0  0  0  0  0  0  0  0  0  0
   45.0350   29.5620   40.9300 H   0  0  0  0  0  0  0  0  0  0  0  0
   45.3850   29.8920   38.8330 C   0  0  0  0  0  3  0  0  0  0  0  0
   45.0190   30.6270   37.7330 C   0  0  0  0  0  3  0  0  0  0  0  0
   43.7300   31.6690   38.3460 S   0  0  0  0  0  0  0  0  0  0  0  0
   44.5720   34.4570   42.9250 C   0  0  0  0  0  0  0  0  0  0  0  0
   44.3000   35.7190   43.5560 C   0  0  0  0  0  0  0  0  0  0  0  0
   44.6300   35.8220   44.8970 C   0  0  0  0  0  0  0  0  0  0  0  0
   45.1780   34.7460   45.5220 N   0  0  0  0  0  0  0  0  0  0  0  0
   45.4160   33.5630   44.8700 C   0  0  0  0  0  0  0  0  0  0  0  0
   45.1130   33.4610   43.6250 N   0  0  0  0  0  0  0  0  0  0  0  0
   43.8820   36.5970   43.1450 H   0  0  0  0  0  0  0  0  0  0  0  0
   44.4660   36.7370   45.4770 H   0  0  0  0  0  0  0  0  0  0  0  0
   46.0090   32.4470   45.6280 C   0  0  1  0  0  0  0  0  0  0  0  0
   46.9660   32.7490   46.7580 C   0  0  0  0  0  0  0  0  0  0  0  0
   45.5440   32.3440   47.0380 C   0  0  1  0  0  0  0  0  0  0  0  0
   46.2350   31.5190   45.0840 H   0  0  0  0  0  0  0  0  0  0  0  0
   47.8010   32.0420   46.9390 H   0  0  0  0  0  0  0  0  0  0  0  0
   47.2800   33.8070   46.8560 H   0  0  0  0  0  0  0  0  0  0  0  0
   45.4140   31.3360   47.4960 H   0  0  0  0  0  0  0  0  0  0  0  0
   44.7650   33.4080   47.6290 N   0  0  0  0  0  0  0  0  0  0  0  0
   43.8640   33.5940   47.1750 H   0  0  0  0  0  0  0  0  0  0  0  0
   45.2990   34.2260   47.9380 H   0  0  0  0  0  0  0  0  0  0  0  0
  1 22  1  0  0  0  0
  2  1  2  0  0  0  0
  3 13  1  0  0  0  0
  3  4  1  0  0  0  0
  4  1  1  0  0  0  0
  5  4  2  0  0  0  0
  5  9  1  0  0  0  0
  6  5  1  0  0  0  0
  7  8  1  0  0  0  0
  7  6  2  0  0  0  0
  8  3  2  0  0  0  0
 10  6  1  0  0  0  0
 11  7  1  0  0  0  0
 12  8  1  0  0  0  0
 13 15  2  0  0  0  0
 14 13  2  0  0  0  0
 16 13  1  0  0  0  0
 17 16  2  0  0  0  0
 17 18  1  0  0  0  0
 19 17  1  0  0  0  0
 20 21  1  0  0  0  0
 20 19  2  0  0  0  0
 21 16  1  0  0  0  0
 22 23  2  0  0  0  0
 22 27  1  0  0  0  0
 23 24  1  0  0  0  0
 24 29  1  0  0  0  0
 24 25  2  0  0  0  0
 26 25  1  0  0  0  0
 26 30  1  0  0  0  0
 27 26  2  0  0  0  0
 28 23  1  0  0  0  0
 30 33  1  6  0  0  0
 30 31  1  0  0  0  0
 30 32  1  0  0  0  0
 31 35  1  0  0  0  0
 31 34  1  0  0  0  0
 31 32  1  0  0  0  0
 32 36  1  1  0  0  0
 32 37  1  0  0  0  0
 37 39  1  0  0  0  0
 38 37  1  0  0  0  0
M  END
>  <minimizedAffinity>
-5.75646067

>  <minimizedRMSD>
1.41751802

$$$$
