
 OpenBabel03252508053D

 39 42  0  0  1  0  0  0  0  0999 V2000
   36.1950   29.9500   40.8830 C   0  0  0  0  0  0  0  0  0  0  0  0
   35.8940   31.0460   41.4540 O   0  0  0  0  0  0  0  0  0  0  0  0
   36.6300   29.8700   38.4360 C   0  0  0  0  0  0  0  0  0  0  0  0
   35.8290   29.5960   39.5090 C   0  0  0  0  0  0  0  0  0  0  0  0
   34.6020   28.9480   39.2690 C   0  0  0  0  0  0  0  0  0  0  0  0
   34.1700   28.5780   38.0230 C   0  0  0  0  0  0  0  0  0  0  0  0
   34.9760   28.8530   36.9480 C   0  0  0  0  0  0  0  0  0  0  0  0
   36.1670   29.4800   37.1700 C   0  0  0  0  0  0  0  0  0  0  0  0
   33.9020   28.7020   40.0560 H   0  0  0  0  0  0  0  0  0  0  0  0
   33.2440   28.0900   37.8330 H   0  0  0  0  0  0  0  0  0  0  0  0
   34.7650   28.6200   35.9150 H   0  0  0  0  0  0  0  0  0  0  0  0
   36.8380   29.7170   36.3470 H   0  0  0  0  0  0  0  0  0  0  0  0
   38.1680   30.5850   38.6290 S   0  0  0  0  0  0  0  0  0  0  0  0
   38.3210   31.2550   37.2230 O   0  0  0  0  0  0  0  0  0  0  0  0
   39.2410   29.5630   38.7330 O   0  0  0  0  0  0  0  0  0  0  0  0
   38.5520   32.0150   39.3000 C   0  0  0  0  0  0  0  0  0  0  0  0
   38.0830   33.1620   40.0240 C   0  0  0  0  0  0  0  0  0  0  0  0
   37.0320   33.1020   40.2460 H   0  0  0  0  0  0  0  0  0  0  0  0
   38.9040   34.1610   40.3110 C   0  0  0  0  0  3  0  0  0  0  0  0
   40.2230   34.1420   39.9290 C   0  0  0  0  0  3  0  0  0  0  0  0
   40.3790   32.5970   39.0820 S   0  0  0  0  0  0  0  0  0  0  0  0
   36.9470   28.9150   41.5430 C   0  0  0  0  0  0  0  0  0  0  0  0
   38.1360   29.3450   42.2250 C   0  0  0  0  0  0  0  0  0  0  0  0
   38.8680   28.3610   42.8670 C   0  0  0  0  0  0  0  0  0  0  0  0
   38.4260   27.0760   42.8150 N   0  0  0  0  0  0  0  0  0  0  0  0
   37.2820   26.7210   42.1480 C   0  0  0  0  0  0  0  0  0  0  0  0
   36.5980   27.6290   41.5500 N   0  0  0  0  0  0  0  0  0  0  0  0
   38.5470   30.3140   42.3110 H   0  0  0  0  0  0  0  0  0  0  0  0
   39.7910   28.5750   43.4170 H   0  0  0  0  0  0  0  0  0  0  0  0
   36.8750   25.3040   42.1490 C   0  0  1  0  0  0  0  0  0  0  0  0
   36.7050   24.5860   40.8310 C   0  0  0  0  0  0  0  0  0  0  0  0
   37.9270   24.3620   41.6780 C   0  0  1  0  0  0  0  0  0  0  0  0
   36.1870   24.9680   42.9370 H   0  0  0  0  0  0  0  0  0  0  0  0
   35.9170   23.8080   40.7570 H   0  0  0  0  0  0  0  0  0  0  0  0
   36.7570   25.2200   39.9230 H   0  0  0  0  0  0  0  0  0  0  0  0
   38.0050   23.3550   42.1500 H   0  0  0  0  0  0  0  0  0  0  0  0
   39.1340   24.8640   41.0640 N   0  0  0  0  0  0  0  0  0  0  0  0
   39.7120   25.4650   41.6610 H   0  0  0  0  0  0  0  0  0  0  0  0
   39.0460   25.1440   40.0820 H   0  0  0  0  0  0  0  0  0  0  0  0
  1  2  2  0  0  0  0
  1 22  1  0  0  0  0
  3 13  1  0  0  0  0
  3  4  1  0  0  0  0
  4  1  1  0  0  0  0
  5  4  2  0  0  0  0
  5  9  1  0  0  0  0
  6  5  1  0  0  0  0
  7  8  1  0  0  0  0
  7  6  2  0  0  0  0
  8  3  2  0  0  0  0
 10  6  1  0  0  0  0
 11  7  1  0  0  0  0
 12  8  1  0  0  0  0
 13 15  2  0  0  0  0
 13 16  1  0  0  0  0
 14 13  2  0  0  0  0
 16 17  2  0  0  0  0
 17 18  1  0  0  0  0
 17 19  1  0  0  0  0
 20 19  2  0  0  0  0
 21 16  1  0  0  0  0
 21 20  1  0  0  0  0
 22 27  2  0  0  0  0
 22 23  1  0  0  0  0
 23 28  1  0  0  0  0
 23 24  2  0  0  0  0
 24 29  1  0  0  0  0
 25 24  1  0  0  0  0
 26 30  1  0  0  0  0
 26 25  2  0  0  0  0
 27 26  1  0  0  0  0
 30 33  1  1  0  0  0
 31 32  1  0  0  0  0
 31 30  1  0  0  0  0
 32 30  1  0  0  0  0
 32 36  1  1  0  0  0
 34 31  1  0  0  0  0
 35 31  1  0  0  0  0
 37 38  1  0  0  0  0
 37 32  1  0  0  0  0
 39 37  1  0  0  0  0
M  END
>  <minimizedAffinity>
-6.12521029

$$$$

 OpenBabel03252508053D

 39 42  0  0  1  0  0  0  0  0999 V2000
   36.9550   28.5570   41.9230 C   0  0  0  0  0  0  0  0  0  0  0  0
   36.5800   28.1370   43.0640 O   0  0  0  0  0  0  0  0  0  0  0  0
   36.7780   26.8210   40.1520 C   0  0  0  0  0  0  0  0  0  0  0  0
   36.4520   28.0540   40.6410 C   0  0  0  0  0  0  0  0  0  0  0  0
   35.5980   28.8670   39.8710 C   0  0  0  0  0  0  0  0  0  0  0  0
   35.0780   28.4890   38.6620 C   0  0  0  0  0  0  0  0  0  0  0  0
   35.4050   27.2500   38.1720 C   0  0  0  0  0  0  0  0  0  0  0  0
   36.2320   26.4550   38.9120 C   0  0  0  0  0  0  0  0  0  0  0  0
   35.2960   29.8600   40.1760 H   0  0  0  0  0  0  0  0  0  0  0  0
   34.4330   29.0960   38.0730 H   0  0  0  0  0  0  0  0  0  0  0  0
   35.0700   26.8230   37.2390 H   0  0  0  0  0  0  0  0  0  0  0  0
   36.5170   25.4650   38.5620 H   0  0  0  0  0  0  0  0  0  0  0  0
   37.7460   25.7330   41.0420 S   0  0  0  0  0  0  0  0  0  0  0  0
   38.1520   24.7480   39.8960 O   0  0  0  0  0  0  0  0  0  0  0  0
   36.9400   24.9480   42.0130 O   0  0  0  0  0  0  0  0  0  0  0  0
   39.3190   25.8520   41.4340 C   0  0  0  0  0  0  0  0  0  0  0  0
   40.5910   26.4360   41.1170 C   0  0  0  0  0  0  0  0  0  0  0  0
   40.5390   27.0850   40.2620 H   0  0  0  0  0  0  0  0  0  0  0  0
   41.6690   26.1260   41.8200 C   0  0  0  0  0  3  0  0  0  0  0  0
   41.6170   25.2400   42.8680 C   0  0  0  0  0  3  0  0  0  0  0  0
   39.9140   24.7650   42.9150 S   0  0  0  0  0  0  0  0  0  0  0  0
   37.9370   29.5960   41.7670 C   0  0  0  0  0  0  0  0  0  0  0  0
   39.0170   29.5830   42.7140 C   0  0  0  0  0  0  0  0  0  0  0  0
   39.9720   30.5760   42.5760 C   0  0  0  0  0  0  0  0  0  0  0  0
   39.8330   31.4830   41.5720 N   0  0  0  0  0  0  0  0  0  0  0  0
   38.7800   31.4490   40.6940 C   0  0  0  0  0  0  0  0  0  0  0  0
   37.8900   30.5300   40.8180 N   0  0  0  0  0  0  0  0  0  0  0  0
   39.1970   28.9210   43.5170 H   0  0  0  0  0  0  0  0  0  0  0  0
   40.8380   30.6600   43.2420 H   0  0  0  0  0  0  0  0  0  0  0  0
   38.7120   32.4700   39.6340 C   0  0  1  0  0  0  0  0  0  0  0  0
   37.5200   33.3970   39.5770 C   0  0  0  0  0  0  0  0  0  0  0  0
   38.8410   33.8710   40.1190 C   0  0  1  0  0  0  0  0  0  0  0  0
   39.1330   32.2170   38.6500 H   0  0  0  0  0  0  0  0  0  0  0  0
   37.1650   33.7310   38.5800 H   0  0  0  0  0  0  0  0  0  0  0  0
   36.6840   33.1530   40.2630 H   0  0  0  0  0  0  0  0  0  0  0  0
   39.3770   34.6180   39.4890 H   0  0  0  0  0  0  0  0  0  0  0  0
   38.7940   34.1600   41.5340 N   0  0  0  0  0  0  0  0  0  0  0  0
   39.5370   33.7270   42.0930 H   0  0  0  0  0  0  0  0  0  0  0  0
   37.8580   34.1770   41.9500 H   0  0  0  0  0  0  0  0  0  0  0  0
  1  2  2  0  0  0  0
  3  4  1  0  0  0  0
  3 13  1  0  0  0  0
  4  1  1  0  0  0  0
  5  9  1  0  0  0  0
  5  4  2  0  0  0  0
  6  5  1  0  0  0  0
  7  6  2  0  0  0  0
  7  8  1  0  0  0  0
  8  3  2  0  0  0  0
 10  6  1  0  0  0  0
 11  7  1  0  0  0  0
 12  8  1  0  0  0  0
 13 16  1  0  0  0  0
 13 15  2  0  0  0  0
 14 13  2  0  0  0  0
 16 21  1  0  0  0  0
 17 16  2  0  0  0  0
 17 19  1  0  0  0  0
 18 17  1  0  0  0  0
 19 20  2  0  0  0  0
 20 21  1  0  0  0  0
 22  1  1  0  0  0  0
 22 23  1  0  0  0  0
 23 28  1  0  0  0  0
 24 23  2  0  0  0  0
 24 29  1  0  0  0  0
 25 24  1  0  0  0  0
 26 27  1  0  0  0  0
 26 25  2  0  0  0  0
 27 22  2  0  0  0  0
 30 33  1  6  0  0  0
 30 32  1  0  0  0  0
 30 26  1  0  0  0  0
 31 30  1  0  0  0  0
 31 32  1  0  0  0  0
 31 35  1  0  0  0  0
 32 36  1  6  0  0  0
 32 37  1  0  0  0  0
 34 31  1  0  0  0  0
 37 39  1  0  0  0  0
 37 38  1  0  0  0  0
M  END
>  <minimizedAffinity>
-6.06385517

$$$$

 OpenBabel03252508053D

 39 42  0  0  1  0  0  0  0  0999 V2000
   39.2120   29.4870   39.9810 C   0  0  0  0  0  0  0  0  0  0  0  0
   40.0390   28.5330   40.1350 O   0  0  0  0  0  0  0  0  0  0  0  0
   37.0640   28.8370   41.0530 C   0  0  0  0  0  0  0  0  0  0  0  0
   37.7540   29.3370   39.9840 C   0  0  0  0  0  0  0  0  0  0  0  0
   37.0200   29.7200   38.8440 C   0  0  0  0  0  0  0  0  0  0  0  0
   35.6580   29.6180   38.7490 C   0  0  0  0  0  0  0  0  0  0  0  0
   34.9680   29.1160   39.8230 C   0  0  0  0  0  0  0  0  0  0  0  0
   35.6690   28.7430   40.9320 C   0  0  0  0  0  0  0  0  0  0  0  0
   37.4850   30.1160   37.9510 H   0  0  0  0  0  0  0  0  0  0  0  0
   35.0960   29.9030   37.8920 H   0  0  0  0  0  0  0  0  0  0  0  0
   33.8980   28.9810   39.8880 H   0  0  0  0  0  0  0  0  0  0  0  0
   35.1620   28.3410   41.8070 H   0  0  0  0  0  0  0  0  0  0  0  0
   37.8520   28.4140   42.5060 S   0  0  0  0  0  0  0  0  0  0  0  0
   36.6360   27.8330   43.3020 O   0  0  0  0  0  0  0  0  0  0  0  0
   38.3140   29.6140   43.2510 O   0  0  0  0  0  0  0  0  0  0  0  0
   38.6750   27.0590   42.8650 C   0  0  0  0  0  0  0  0  0  0  0  0
   39.6900   26.4540   43.6800 C   0  0  0  0  0  0  0  0  0  0  0  0
   40.1280   27.1530   44.3690 H   0  0  0  0  0  0  0  0  0  0  0  0
   40.0230   25.1840   43.5100 C   0  0  0  0  0  3  0  0  0  0  0  0
   39.4210   24.4010   42.5560 C   0  0  0  0  0  3  0  0  0  0  0  0
   38.2670   25.5050   41.7940 S   0  0  0  0  0  0  0  0  0  0  0  0
   39.6320   30.8480   39.7830 C   0  0  0  0  0  0  0  0  0  0  0  0
   39.2800   31.7700   40.8270 C   0  0  0  0  0  0  0  0  0  0  0  0
   39.6790   33.0840   40.6510 C   0  0  0  0  0  0  0  0  0  0  0  0
   40.3660   33.4150   39.5250 N   0  0  0  0  0  0  0  0  0  0  0  0
   40.6760   32.4930   38.5590 C   0  0  0  0  0  0  0  0  0  0  0  0
   40.3070   31.2720   38.7150 N   0  0  0  0  0  0  0  0  0  0  0  0
   38.7500   31.5960   41.7240 H   0  0  0  0  0  0  0  0  0  0  0  0
   39.4640   33.8700   41.3830 H   0  0  0  0  0  0  0  0  0  0  0  0
   41.4290   32.9400   37.3730 C   0  0  1  0  0  0  0  0  0  0  0  0
   42.4180   34.0740   37.5110 C   0  0  0  0  0  0  0  0  0  0  0  0
   42.8870   32.6480   37.4220 C   0  0  1  0  0  0  0  0  0  0  0  0
   40.9210   32.9020   36.3990 H   0  0  0  0  0  0  0  0  0  0  0  0
   42.5440   34.7650   36.6520 H   0  0  0  0  0  0  0  0  0  0  0  0
   42.4120   34.6060   38.4830 H   0  0  0  0  0  0  0  0  0  0  0  0
   43.4200   32.3760   36.4810 H   0  0  0  0  0  0  0  0  0  0  0  0
   43.4960   32.1810   38.6470 N   0  0  0  0  0  0  0  0  0  0  0  0
   43.1400   31.2860   38.9990 H   0  0  0  0  0  0  0  0  0  0  0  0
   43.6890   32.9040   39.3460 H   0  0  0  0  0  0  0  0  0  0  0  0
  1  4  1  0  0  0  0
  1  2  2  0  0  0  0
  3 13  1  0  0  0  0
  4  3  2  0  0  0  0
  5  4  1  0  0  0  0
  6  5  2  0  0  0  0
  6  7  1  0  0  0  0
  7 11  1  0  0  0  0
  7  8  2  0  0  0  0
  8  3  1  0  0  0  0
  8 12  1  0  0  0  0
  9  5  1  0  0  0  0
 10  6  1  0  0  0  0
 13 16  1  0  0  0  0
 13 15  2  0  0  0  0
 13 14  2  0  0  0  0
 16 17  2  0  0  0  0
 17 18  1  0  0  0  0
 19 17  1  0  0  0  0
 20 19  2  0  0  0  0
 21 20  1  0  0  0  0
 21 16  1  0  0  0  0
 22  1  1  0  0  0  0
 22 23  1  0  0  0  0
 23 28  1  0  0  0  0
 24 23  2  0  0  0  0
 24 29  1  0  0  0  0
 25 24  1  0  0  0  0
 26 27  1  0  0  0  0
 26 25  2  0  0  0  0
 27 22  2  0  0  0  0
 30 33  1  6  0  0  0
 30 32  1  0  0  0  0
 30 31  1  0  0  0  0
 30 26  1  0  0  0  0
 31 35  1  0  0  0  0
 32 36  1  6  0  0  0
 32 31  1  0  0  0  0
 32 37  1  0  0  0  0
 34 31  1  0  0  0  0
 37 38  1  0  0  0  0
 37 39  1  0  0  0  0
M  END
>  <minimizedAffinity>
-5.79548931

$$$$

 OpenBabel03252508053D

 39 42  0  0  1  0  0  0  0  0999 V2000
   35.9370   29.2930   40.1970 C   0  0  0  0  0  0  0  0  0  0  0  0
   34.7460   29.5080   39.8040 O   0  0  0  0  0  0  0  0  0  0  0  0
   36.6510   26.9120   40.1370 C   0  0  0  0  0  0  0  0  0  0  0  0
   36.3940   28.0570   40.8380 C   0  0  0  0  0  0  0  0  0  0  0  0
   36.5790   28.0330   42.2340 C   0  0  0  0  0  0  0  0  0  0  0  0
   37.0010   26.9290   42.9240 C   0  0  0  0  0  0  0  0  0  0  0  0
   37.2590   25.7810   42.2190 C   0  0  0  0  0  0  0  0  0  0  0  0
   37.0830   25.7940   40.8660 C   0  0  0  0  0  0  0  0  0  0  0  0
   36.3900   28.8890   42.8680 H   0  0  0  0  0  0  0  0  0  0  0  0
   37.1420   26.9010   43.9790 H   0  0  0  0  0  0  0  0  0  0  0  0
   37.5970   24.8410   42.6300 H   0  0  0  0  0  0  0  0  0  0  0  0
   37.2770   24.9060   40.2670 H   0  0  0  0  0  0  0  0  0  0  0  0
   36.5280   26.8600   38.4360 S   0  0  0  0  0  0  0  0  0  0  0  0
   36.2460   25.3330   38.2420 O   0  0  0  0  0  0  0  0  0  0  0  0
   37.8330   27.1380   37.7810 O   0  0  0  0  0  0  0  0  0  0  0  0
   35.2390   27.1700   37.4950 C   0  0  0  0  0  0  0  0  0  0  0  0
   33.9320   26.7480   37.0780 C   0  0  0  0  0  0  0  0  0  0  0  0
   33.6200   25.8440   37.5690 H   0  0  0  0  0  0  0  0  0  0  0  0
   33.2670   27.4260   36.1560 C   0  0  0  0  0  3  0  0  0  0  0  0
   33.7960   28.5460   35.5630 C   0  0  0  0  0  3  0  0  0  0  0  0
   35.3770   28.7090   36.3380 S   0  0  0  0  0  0  0  0  0  0  0  0
   36.9860   30.2660   40.0510 C   0  0  0  0  0  0  0  0  0  0  0  0
   36.6740   31.5950   40.5000 C   0  0  0  0  0  0  0  0  0  0  0  0
   37.6750   32.5410   40.3680 C   0  0  0  0  0  0  0  0  0  0  0  0
   38.8680   32.1650   39.8340 N   0  0  0  0  0  0  0  0  0  0  0  0
   39.1120   30.8800   39.4210 C   0  0  0  0  0  0  0  0  0  0  0  0
   38.1870   29.9970   39.5400 N   0  0  0  0  0  0  0  0  0  0  0  0
   35.7800   31.9680   40.9210 H   0  0  0  0  0  0  0  0  0  0  0  0
   37.5470   33.5840   40.6780 H   0  0  0  0  0  0  0  0  0  0  0  0
   40.4360   30.5600   38.8580 C   0  0  1  0  0  0  0  0  0  0  0  0
   40.5200   29.8790   37.5120 C   0  0  0  0  0  0  0  0  0  0  0  0
   40.8000   31.3500   37.6510 C   0  0  1  0  0  0  0  0  0  0  0  0
   41.2360   30.2760   39.5560 H   0  0  0  0  0  0  0  0  0  0  0  0
   41.3480   29.1600   37.3400 H   0  0  0  0  0  0  0  0  0  0  0  0
   39.5590   29.5260   37.0870 H   0  0  0  0  0  0  0  0  0  0  0  0
   41.8620   31.6530   37.4980 H   0  0  0  0  0  0  0  0  0  0  0  0
   39.8110   32.1730   36.9930 N   0  0  0  0  0  0  0  0  0  0  0  0
   39.4170   32.9260   37.5670 H   0  0  0  0  0  0  0  0  0  0  0  0
   39.1570   31.6740   36.3820 H   0  0  0  0  0  0  0  0  0  0  0  0
  1  4  1  0  0  0  0
  2  1  2  0  0  0  0
  3  4  2  0  0  0  0
  3  8  1  0  0  0  0
  4  5  1  0  0  0  0
  5  9  1  0  0  0  0
  5  6  2  0  0  0  0
  6 10  1  0  0  0  0
  7 11  1  0  0  0  0
  7  6  1  0  0  0  0
  8  7  2  0  0  0  0
 12  8  1  0  0  0  0
 13  3  1  0  0  0  0
 14 13  2  0  0  0  0
 15 13  2  0  0  0  0
 16 13  1  0  0  0  0
 17 16  2  0  0  0  0
 17 18  1  0  0  0  0
 19 17  1  0  0  0  0
 20 19  2  0  0  0  0
 20 21  1  0  0  0  0
 21 16  1  0  0  0  0
 22  1  1  0  0  0  0
 22 23  1  0  0  0  0
 23 28  1  0  0  0  0
 24 23  2  0  0  0  0
 24 29  1  0  0  0  0
 25 24  1  0  0  0  0
 26 27  1  0  0  0  0
 26 25  2  0  0  0  0
 27 22  2  0  0  0  0
 30 26  1  0  0  0  0
 30 33  1  1  0  0  0
 31 32  1  0  0  0  0
 31 30  1  0  0  0  0
 32 36  1  6  0  0  0
 32 30  1  0  0  0  0
 34 31  1  0  0  0  0
 35 31  1  0  0  0  0
 37 38  1  0  0  0  0
 37 32  1  0  0  0  0
 39 37  1  0  0  0  0
M  END
>  <minimizedAffinity>
-5.60902691

$$$$

 OpenBabel03252508053D

 39 42  0  0  1  0  0  0  0  0999 V2000
   36.2810   29.7720   40.7910 C   0  0  0  0  0  0  0  0  0  0  0  0
   35.9650   30.7880   41.4890 O   0  0  0  0  0  0  0  0  0  0  0  0
   36.6480   29.9590   38.3390 C   0  0  0  0  0  0  0  0  0  0  0  0
   35.8820   29.5580   39.3970 C   0  0  0  0  0  0  0  0  0  0  0  0
   34.6590   28.9150   39.1230 C   0  0  0  0  0  0  0  0  0  0  0  0
   34.1980   28.6710   37.8570 C   0  0  0  0  0  0  0  0  0  0  0  0
   34.9690   29.0740   36.7960 C   0  0  0  0  0  0  0  0  0  0  0  0
   36.1550   29.6970   37.0520 C   0  0  0  0  0  0  0  0  0  0  0  0
   33.9860   28.5740   39.8980 H   0  0  0  0  0  0  0  0  0  0  0  0
   33.2760   28.1880   37.6400 H   0  0  0  0  0  0  0  0  0  0  0  0
   34.7320   28.9470   35.7490 H   0  0  0  0  0  0  0  0  0  0  0  0
   36.7990   30.0320   36.2410 H   0  0  0  0  0  0  0  0  0  0  0  0
   38.1780   30.6800   38.5660 S   0  0  0  0  0  0  0  0  0  0  0  0
   38.3140   31.4360   37.2030 O   0  0  0  0  0  0  0  0  0  0  0  0
   39.2640   29.6660   38.6010 O   0  0  0  0  0  0  0  0  0  0  0  0
   38.5500   32.0710   39.3210 C   0  0  0  0  0  0  0  0  0  0  0  0
   38.0640   33.1910   40.0760 C   0  0  0  0  0  0  0  0  0  0  0  0
   37.0030   33.1370   40.2460 H   0  0  0  0  0  0  0  0  0  0  0  0
   38.8840   34.1610   40.4470 C   0  0  0  0  0  3  0  0  0  0  0  0
   40.2190   34.1390   40.1260 C   0  0  0  0  0  3  0  0  0  0  0  0
   40.3930   32.6330   39.2150 S   0  0  0  0  0  0  0  0  0  0  0  0
   37.0840   28.6970   41.3120 C   0  0  0  0  0  0  0  0  0  0  0  0
   36.5760   27.3720   41.0890 C   0  0  0  0  0  0  0  0  0  0  0  0
   37.3390   26.3280   41.5830 C   0  0  0  0  0  0  0  0  0  0  0  0
   38.4990   26.6130   42.2320 N   0  0  0  0  0  0  0  0  0  0  0  0
   38.9380   27.8990   42.4170 C   0  0  0  0  0  0  0  0  0  0  0  0
   38.2340   28.8730   41.9620 N   0  0  0  0  0  0  0  0  0  0  0  0
   35.6910   27.0670   40.6000 H   0  0  0  0  0  0  0  0  0  0  0  0
   37.0470   25.2780   41.4700 H   0  0  0  0  0  0  0  0  0  0  0  0
   40.2100   28.1150   43.1290 C   0  0  1  0  0  0  0  0  0  0  0  0
   41.4790   27.5150   42.5700 C   0  0  0  0  0  0  0  0  0  0  0  0
   41.1820   28.9800   42.4060 C   0  0  1  0  0  0  0  0  0  0  0  0
   40.1820   28.1660   44.2260 H   0  0  0  0  0  0  0  0  0  0  0  0
   42.2550   27.1720   43.2860 H   0  0  0  0  0  0  0  0  0  0  0  0
   41.3500   26.8150   41.7200 H   0  0  0  0  0  0  0  0  0  0  0  0
   41.8340   29.6700   42.9890 H   0  0  0  0  0  0  0  0  0  0  0  0
   40.9440   29.3520   41.0300 N   0  0  0  0  0  0  0  0  0  0  0  0
   40.0900   29.8960   40.8660 H   0  0  0  0  0  0  0  0  0  0  0  0
   41.1710   28.6360   40.3340 H   0  0  0  0  0  0  0  0  0  0  0  0
  1 22  1  0  0  0  0
  1  2  2  0  0  0  0
  3 13  1  0  0  0  0
  3  4  1  0  0  0  0
  4  1  1  0  0  0  0
  5  4  2  0  0  0  0
  5  9  1  0  0  0  0
  6  5  1  0  0  0  0
  7  8  1  0  0  0  0
  7  6  2  0  0  0  0
  8  3  2  0  0  0  0
 10  6  1  0  0  0  0
 11  7  1  0  0  0  0
 12  8  1  0  0  0  0
 13 15  2  0  0  0  0
 13 16  1  0  0  0  0
 14 13  2  0  0  0  0
 16 17  2  0  0  0  0
 17 18  1  0  0  0  0
 17 19  1  0  0  0  0
 20 19  2  0  0  0  0
 21 16  1  0  0  0  0
 21 20  1  0  0  0  0
 22 27  1  0  0  0  0
 23 22  2  0  0  0  0
 23 24  1  0  0  0  0
 24 25  2  0  0  0  0
 25 26  1  0  0  0  0
 26 30  1  0  0  0  0
 27 26  2  0  0  0  0
 28 23  1  0  0  0  0
 29 24  1  0  0  0  0
 30 33  1  1  0  0  0
 31 30  1  0  0  0  0
 31 34  1  0  0  0  0
 32 31  1  0  0  0  0
 32 36  1  1  0  0  0
 32 30  1  0  0  0  0
 35 31  1  0  0  0  0
 37 32  1  0  0  0  0
 38 37  1  0  0  0  0
 39 37  1  0  0  0  0
M  END
>  <minimizedAffinity>
-5.56210136

$$$$

 OpenBabel03252508053D

 39 42  0  0  1  0  0  0  0  0999 V2000
   39.0420   28.6040   39.1620 C   0  0  0  0  0  0  0  0  0  0  0  0
   39.6390   27.4820   39.2130 O   0  0  0  0  0  0  0  0  0  0  0  0
   37.2010   28.8940   40.8070 C   0  0  0  0  0  0  0  0  0  0  0  0
   37.6360   28.8200   39.5140 C   0  0  0  0  0  0  0  0  0  0  0  0
   36.6820   28.9560   38.4870 C   0  0  0  0  0  0  0  0  0  0  0  0
   35.3470   29.1580   38.7130 C   0  0  0  0  0  0  0  0  0  0  0  0
   34.9120   29.2330   40.0120 C   0  0  0  0  0  0  0  0  0  0  0  0
   35.8290   29.1020   41.0140 C   0  0  0  0  0  0  0  0  0  0  0  0
   36.9360   28.9000   37.4370 H   0  0  0  0  0  0  0  0  0  0  0  0
   34.6200   29.2600   37.9430 H   0  0  0  0  0  0  0  0  0  0  0  0
   33.8940   29.3890   40.3370 H   0  0  0  0  0  0  0  0  0  0  0  0
   35.5280   29.1560   42.0590 H   0  0  0  0  0  0  0  0  0  0  0  0
   38.2870   28.8140   42.1210 S   0  0  0  0  0  0  0  0  0  0  0  0
   37.2630   28.6840   43.2980 O   0  0  0  0  0  0  0  0  0  0  0  0
   39.0030   30.1010   42.3220 O   0  0  0  0  0  0  0  0  0  0  0  0
   39.0700   27.5230   42.7220 C   0  0  0  0  0  0  0  0  0  0  0  0
   40.1540   27.0520   43.5370 C   0  0  0  0  0  0  0  0  0  0  0  0
   40.7270   27.8590   43.9570 H   0  0  0  0  0  0  0  0  0  0  0  0
   40.3830   25.7550   43.6710 C   0  0  0  0  0  3  0  0  0  0  0  0
   39.6040   24.8160   43.0390 C   0  0  0  0  0  3  0  0  0  0  0  0
   38.4210   25.7940   42.1610 S   0  0  0  0  0  0  0  0  0  0  0  0
   39.7020   29.8120   38.7420 C   0  0  0  0  0  0  0  0  0  0  0  0
   40.7250   29.6510   37.7460 C   0  0  0  0  0  0  0  0  0  0  0  0
   41.3680   30.8040   37.3300 C   0  0  0  0  0  0  0  0  0  0  0  0
   40.9990   31.9940   37.8760 N   0  0  0  0  0  0  0  0  0  0  0  0
   40.0140   32.0900   38.8250 C   0  0  0  0  0  0  0  0  0  0  0  0
   39.4140   31.0230   39.2170 N   0  0  0  0  0  0  0  0  0  0  0  0
   41.0710   28.7710   37.2760 H   0  0  0  0  0  0  0  0  0  0  0  0
   42.1630   30.7990   36.5760 H   0  0  0  0  0  0  0  0  0  0  0  0
   39.6760   33.4220   39.3590 C   0  0  1  0  0  0  0  0  0  0  0  0
   38.7080   33.5290   40.5140 C   0  0  0  0  0  0  0  0  0  0  0  0
   40.1880   33.6830   40.7320 C   0  0  1  0  0  0  0  0  0  0  0  0
   39.6280   34.2610   38.6520 H   0  0  0  0  0  0  0  0  0  0  0  0
   38.0360   34.4120   40.5520 H   0  0  0  0  0  0  0  0  0  0  0  0
   38.1900   32.5920   40.8010 H   0  0  0  0  0  0  0  0  0  0  0  0
   40.5290   34.7100   40.9990 H   0  0  0  0  0  0  0  0  0  0  0  0
   40.7530   32.6090   41.5170 N   0  0  0  0  0  0  0  0  0  0  0  0
   41.5860   32.1650   41.1150 H   0  0  0  0  0  0  0  0  0  0  0  0
   40.0740   31.9860   41.9650 H   0  0  0  0  0  0  0  0  0  0  0  0
  1  2  2  0  0  0  0
  1  4  1  0  0  0  0
  3  8  1  0  0  0  0
  3 13  1  0  0  0  0
  4  3  2  0  0  0  0
  5  6  2  0  0  0  0
  5  4  1  0  0  0  0
  6  7  1  0  0  0  0
  7 11  1  0  0  0  0
  7  8  2  0  0  0  0
  8 12  1  0  0  0  0
  9  5  1  0  0  0  0
 10  6  1  0  0  0  0
 13 15  2  0  0  0  0
 13 16  1  0  0  0  0
 13 14  2  0  0  0  0
 16 17  2  0  0  0  0
 17 19  1  0  0  0  0
 17 18  1  0  0  0  0
 20 19  2  0  0  0  0
 21 16  1  0  0  0  0
 21 20  1  0  0  0  0
 22  1  1  0  0  0  0
 22 27  1  0  0  0  0
 23 22  2  0  0  0  0
 24 23  1  0  0  0  0
 24 25  2  0  0  0  0
 25 26  1  0  0  0  0
 26 27  2  0  0  0  0
 26 30  1  0  0  0  0
 28 23  1  0  0  0  0
 29 24  1  0  0  0  0
 30 33  1  6  0  0  0
 30 31  1  0  0  0  0
 30 32  1  0  0  0  0
 31 34  1  0  0  0  0
 31 32  1  0  0  0  0
 31 35  1  0  0  0  0
 32 36  1  1  0  0  0
 32 37  1  0  0  0  0
 37 39  1  0  0  0  0
 38 37  1  0  0  0  0
M  END
>  <minimizedAffinity>
-5.53624344

$$$$

 OpenBabel03252508053D

 39 42  0  0  1  0  0  0  0  0999 V2000
   35.6660   29.0390   39.9630 C   0  0  0  0  0  0  0  0  0  0  0  0
   34.4130   29.2150   39.8340 O   0  0  0  0  0  0  0  0  0  0  0  0
   36.6460   26.7720   40.2480 C   0  0  0  0  0  0  0  0  0  0  0  0
   36.2820   27.9810   40.7690 C   0  0  0  0  0  0  0  0  0  0  0  0
   36.5120   28.2070   42.1400 C   0  0  0  0  0  0  0  0  0  0  0  0
   37.0800   27.2830   42.9760 C   0  0  0  0  0  0  0  0  0  0  0  0
   37.4450   26.0700   42.4510 C   0  0  0  0  0  0  0  0  0  0  0  0
   37.2260   25.8420   41.1240 C   0  0  0  0  0  0  0  0  0  0  0  0
   36.2470   29.1300   42.6380 H   0  0  0  0  0  0  0  0  0  0  0  0
   37.2560   27.4440   44.0130 H   0  0  0  0  0  0  0  0  0  0  0  0
   37.9010   25.2520   42.9900 H   0  0  0  0  0  0  0  0  0  0  0  0
   37.5010   24.8940   40.6650 H   0  0  0  0  0  0  0  0  0  0  0  0
   36.4760   26.4280   38.5850 S   0  0  0  0  0  0  0  0  0  0  0  0
   36.4220   24.8650   38.6470 O   0  0  0  0  0  0  0  0  0  0  0  0
   37.7010   26.7810   37.8220 O   0  0  0  0  0  0  0  0  0  0  0  0
   35.1240   26.3910   37.6830 C   0  0  0  0  0  0  0  0  0  0  0  0
   34.1150   27.1550   37.0060 C   0  0  0  0  0  0  0  0  0  0  0  0
   34.2720   28.2140   37.1050 H   0  0  0  0  0  0  0  0  0  0  0  0
   33.1110   26.5510   36.3900 C   0  0  0  0  0  3  0  0  0  0  0  0
   32.9930   25.1830   36.3760 C   0  0  0  0  0  3  0  0  0  0  0  0
   34.4000   24.6430   37.3020 S   0  0  0  0  0  0  0  0  0  0  0  0
   36.6350   29.8810   39.3150 C   0  0  0  0  0  0  0  0  0  0  0  0
   36.4910   30.0210   37.8920 C   0  0  0  0  0  0  0  0  0  0  0  0
   37.4150   30.8310   37.2550 C   0  0  0  0  0  0  0  0  0  0  0  0
   38.3820   31.4320   37.9980 N   0  0  0  0  0  0  0  0  0  0  0  0
   38.4740   31.2640   39.3560 C   0  0  0  0  0  0  0  0  0  0  0  0
   37.6200   30.5130   39.9530 N   0  0  0  0  0  0  0  0  0  0  0  0
   35.7750   29.5910   37.2450 H   0  0  0  0  0  0  0  0  0  0  0  0
   37.3990   31.0080   36.1740 H   0  0  0  0  0  0  0  0  0  0  0  0
   39.5530   31.9580   40.0820 C   0  0  1  0  0  0  0  0  0  0  0  0
   40.0400   33.2960   39.5760 C   0  0  0  0  0  0  0  0  0  0  0  0
   39.1280   33.2080   40.7680 C   0  0  1  0  0  0  0  0  0  0  0  0
   40.3330   31.3440   40.5510 H   0  0  0  0  0  0  0  0  0  0  0  0
   41.1140   33.5430   39.7020 H   0  0  0  0  0  0  0  0  0  0  0  0
   39.6480   33.6120   38.5880 H   0  0  0  0  0  0  0  0  0  0  0  0
   39.5900   33.4760   41.7470 H   0  0  0  0  0  0  0  0  0  0  0  0
   37.8200   33.7700   40.5160 N   0  0  0  0  0  0  0  0  0  0  0  0
   37.0300   33.1690   40.7710 H   0  0  0  0  0  0  0  0  0  0  0  0
   37.7300   34.3020   39.6450 H   0  0  0  0  0  0  0  0  0  0  0  0
  1  4  1  0  0  0  0
  2  1  2  0  0  0  0
  3  4  2  0  0  0  0
  3  8  1  0  0  0  0
  4  5  1  0  0  0  0
  5  9  1  0  0  0  0
  5  6  2  0  0  0  0
  6 10  1  0  0  0  0
  7  6  1  0  0  0  0
  7 11  1  0  0  0  0
  8  7  2  0  0  0  0
 12  8  1  0  0  0  0
 13 14  2  0  0  0  0
 13  3  1  0  0  0  0
 15 13  2  0  0  0  0
 16 13  1  0  0  0  0
 17 18  1  0  0  0  0
 17 16  2  0  0  0  0
 19 17  1  0  0  0  0
 20 19  2  0  0  0  0
 20 21  1  0  0  0  0
 21 16  1  0  0  0  0
 22 27  1  0  0  0  0
 22  1  1  0  0  0  0
 23 22  2  0  0  0  0
 24 23  1  0  0  0  0
 24 25  2  0  0  0  0
 25 26  1  0  0  0  0
 26 27  2  0  0  0  0
 26 30  1  0  0  0  0
 28 23  1  0  0  0  0
 29 24  1  0  0  0  0
 30 33  1  1  0  0  0
 30 32  1  0  0  0  0
 31 34  1  0  0  0  0
 31 30  1  0  0  0  0
 31 32  1  0  0  0  0
 32 36  1  1  0  0  0
 35 31  1  0  0  0  0
 37 32  1  0  0  0  0
 37 38  1  0  0  0  0
 39 37  1  0  0  0  0
M  END
>  <minimizedAffinity>
-5.51185322

$$$$

 OpenBabel03252508053D

 39 42  0  0  1  0  0  0  0  0999 V2000
   38.0480   29.0470   42.1280 C   0  0  0  0  0  0  0  0  0  0  0  0
   38.4470   29.9820   42.8930 O   0  0  0  0  0  0  0  0  0  0  0  0
   37.7560   29.6460   39.7330 C   0  0  0  0  0  0  0  0  0  0  0  0
   37.2300   29.2410   40.9280 C   0  0  0  0  0  0  0  0  0  0  0  0
   35.8440   29.0040   40.9940 C   0  0  0  0  0  0  0  0  0  0  0  0
   34.9960   29.1570   39.9300 C   0  0  0  0  0  0  0  0  0  0  0  0
   35.5250   29.5640   38.7310 C   0  0  0  0  0  0  0  0  0  0  0  0
   36.8680   29.7950   38.6570 C   0  0  0  0  0  0  0  0  0  0  0  0
   35.3430   28.6900   41.9000 H   0  0  0  0  0  0  0  0  0  0  0  0
   33.9480   28.9820   39.9710 H   0  0  0  0  0  0  0  0  0  0  0  0
   34.9790   29.7250   37.8130 H   0  0  0  0  0  0  0  0  0  0  0  0
   37.3300   30.1180   37.7260 H   0  0  0  0  0  0  0  0  0  0  0  0
   39.4330   29.8880   39.5310 S   0  0  0  0  0  0  0  0  0  0  0  0
   39.4320   30.5340   38.1050 O   0  0  0  0  0  0  0  0  0  0  0  0
   40.1640   28.6000   39.4140 O   0  0  0  0  0  0  0  0  0  0  0  0
   40.3540   31.1270   40.0400 C   0  0  0  0  0  0  0  0  0  0  0  0
   40.6500   32.5270   39.9240 C   0  0  0  0  0  0  0  0  0  0  0  0
   40.0180   33.0180   39.2060 H   0  0  0  0  0  0  0  0  0  0  0  0
   41.6340   33.0690   40.6250 C   0  0  0  0  0  3  0  0  0  0  0  0
   42.4070   32.3220   41.4790 C   0  0  0  0  0  3  0  0  0  0  0  0
   41.7310   30.6950   41.3230 S   0  0  0  0  0  0  0  0  0  0  0  0
   38.3670   27.6650   42.3690 C   0  0  0  0  0  0  0  0  0  0  0  0
   39.6160   27.4170   43.0320 C   0  0  0  0  0  0  0  0  0  0  0  0
   39.9360   26.0910   43.2720 C   0  0  0  0  0  0  0  0  0  0  0  0
   39.0650   25.1250   42.8750 N   0  0  0  0  0  0  0  0  0  0  0  0
   37.8830   25.4190   42.2450 C   0  0  0  0  0  0  0  0  0  0  0  0
   37.5810   26.6470   42.0180 N   0  0  0  0  0  0  0  0  0  0  0  0
   40.3450   28.1040   43.3690 H   0  0  0  0  0  0  0  0  0  0  0  0
   40.8620   25.7880   43.7710 H   0  0  0  0  0  0  0  0  0  0  0  0
   36.9970   24.3070   41.8540 C   0  0  1  0  0  0  0  0  0  0  0  0
   36.5240   24.2100   40.4220 C   0  0  0  0  0  0  0  0  0  0  0  0
   37.6200   23.3170   40.9340 C   0  0  1  0  0  0  0  0  0  0  0  0
   36.2690   23.9460   42.5940 H   0  0  0  0  0  0  0  0  0  0  0  0
   35.5070   23.8060   40.2340 H   0  0  0  0  0  0  0  0  0  0  0  0
   36.7590   25.0780   39.7740 H   0  0  0  0  0  0  0  0  0  0  0  0
   37.3540   22.2390   41.0330 H   0  0  0  0  0  0  0  0  0  0  0  0
   38.9000   23.5950   40.3220 N   0  0  0  0  0  0  0  0  0  0  0  0
   39.6790   23.7210   40.9770 H   0  0  0  0  0  0  0  0  0  0  0  0
   38.8750   24.2240   39.5140 H   0  0  0  0  0  0  0  0  0  0  0  0
  1 22  1  0  0  0  0
  1  2  2  0  0  0  0
  3  4  1  0  0  0  0
  4  5  2  0  0  0  0
  4  1  1  0  0  0  0
  5  9  1  0  0  0  0
  6 10  1  0  0  0  0
  6  5  1  0  0  0  0
  7  6  2  0  0  0  0
  8  7  1  0  0  0  0
  8  3  2  0  0  0  0
 11  7  1  0  0  0  0
 12  8  1  0  0  0  0
 13  3  1  0  0  0  0
 13 16  1  0  0  0  0
 14 13  2  0  0  0  0
 15 13  2  0  0  0  0
 16 21  1  0  0  0  0
 17 16  2  0  0  0  0
 17 19  1  0  0  0  0
 18 17  1  0  0  0  0
 19 20  2  0  0  0  0
 21 20  1  0  0  0  0
 22 23  1  0  0  0  0
 23 24  2  0  0  0  0
 23 28  1  0  0  0  0
 24 29  1  0  0  0  0
 25 24  1  0  0  0  0
 26 25  2  0  0  0  0
 27 26  1  0  0  0  0
 27 22  2  0  0  0  0
 30 26  1  0  0  0  0
 30 33  1  1  0  0  0
 31 32  1  0  0  0  0
 31 30  1  0  0  0  0
 32 36  1  1  0  0  0
 32 30  1  0  0  0  0
 34 31  1  0  0  0  0
 35 31  1  0  0  0  0
 37 32  1  0  0  0  0
 37 38  1  0  0  0  0
 39 37  1  0  0  0  0
M  END
>  <minimizedAffinity>
-5.50456858

$$$$

 OpenBabel03252508053D

 39 42  0  0  1  0  0  0  0  0999 V2000
   36.2250   28.4030   40.2230 C   0  0  0  0  0  0  0  0  0  0  0  0
   35.2510   28.9240   40.8540 O   0  0  0  0  0  0  0  0  0  0  0  0
   37.4020   26.5630   41.4110 C   0  0  0  0  0  0  0  0  0  0  0  0
   36.6570   27.0090   40.3560 C   0  0  0  0  0  0  0  0  0  0  0  0
   36.2970   26.0800   39.3610 C   0  0  0  0  0  0  0  0  0  0  0  0
   36.6520   24.7580   39.3940 C   0  0  0  0  0  0  0  0  0  0  0  0
   37.3990   24.3110   40.4540 C   0  0  0  0  0  0  0  0  0  0  0  0
   37.7520   25.2040   41.4230 C   0  0  0  0  0  0  0  0  0  0  0  0
   35.7180   26.3470   38.4870 H   0  0  0  0  0  0  0  0  0  0  0  0
   36.3860   24.0490   38.6460 H   0  0  0  0  0  0  0  0  0  0  0  0
   37.7480   23.3010   40.6100 H   0  0  0  0  0  0  0  0  0  0  0  0
   38.3430   24.8940   42.2830 H   0  0  0  0  0  0  0  0  0  0  0  0
   37.8260   27.5930   42.7040 S   0  0  0  0  0  0  0  0  0  0  0  0
   38.8970   26.6960   43.4100 O   0  0  0  0  0  0  0  0  0  0  0  0
   36.7060   27.7570   43.6670 O   0  0  0  0  0  0  0  0  0  0  0  0
   38.9000   28.8130   42.7280 C   0  0  0  0  0  0  0  0  0  0  0  0
   39.0980   30.2350   42.7140 C   0  0  0  0  0  0  0  0  0  0  0  0
   38.1690   30.7740   42.6720 H   0  0  0  0  0  0  0  0  0  0  0  0
   40.3190   30.7450   42.7110 C   0  0  0  0  0  3  0  0  0  0  0  0
   41.4350   29.9450   42.7170 C   0  0  0  0  0  3  0  0  0  0  0  0
   40.7630   28.3090   42.7280 S   0  0  0  0  0  0  0  0  0  0  0  0
   37.0280   29.1480   39.2900 C   0  0  0  0  0  0  0  0  0  0  0  0
   36.3460   29.6220   38.1180 C   0  0  0  0  0  0  0  0  0  0  0  0
   37.1050   30.3420   37.2110 C   0  0  0  0  0  0  0  0  0  0  0  0
   38.4200   30.5540   37.4800 N   0  0  0  0  0  0  0  0  0  0  0  0
   39.0220   30.0790   38.6170 C   0  0  0  0  0  0  0  0  0  0  0  0
   38.3230   29.4080   39.4620 N   0  0  0  0  0  0  0  0  0  0  0  0
   35.3350   29.5000   37.8340 H   0  0  0  0  0  0  0  0  0  0  0  0
   36.6870   30.7500   36.2840 H   0  0  0  0  0  0  0  0  0  0  0  0
   40.4530   30.3600   38.8290 C   0  0  1  0  0  0  0  0  0  0  0  0
   41.4080   29.2090   39.0390 C   0  0  0  0  0  0  0  0  0  0  0  0
   41.3380   29.9220   37.7160 C   0  0  1  0  0  0  0  0  0  0  0  0
   40.7200   31.2730   39.3800 H   0  0  0  0  0  0  0  0  0  0  0  0
   42.2710   29.3630   39.7190 H   0  0  0  0  0  0  0  0  0  0  0  0
   40.9430   28.2110   39.1670 H   0  0  0  0  0  0  0  0  0  0  0  0
   42.2300   30.5370   37.4560 H   0  0  0  0  0  0  0  0  0  0  0  0
   40.8190   29.0870   36.6570 N   0  0  0  0  0  0  0  0  0  0  0  0
   40.0610   29.5020   36.1060 H   0  0  0  0  0  0  0  0  0  0  0  0
   40.7290   28.0920   36.8840 H   0  0  0  0  0  0  0  0  0  0  0  0
  1  4  1  0  0  0  0
  1  2  2  0  0  0  0
  3  8  1  0  0  0  0
  3 13  1  0  0  0  0
  4  3  2  0  0  0  0
  5  6  2  0  0  0  0
  5  4  1  0  0  0  0
  6  7  1  0  0  0  0
  7 11  1  0  0  0  0
  7  8  2  0  0  0  0
  8 12  1  0  0  0  0
  9  5  1  0  0  0  0
 10  6  1  0  0  0  0
 13 16  1  0  0  0  0
 13 14  2  0  0  0  0
 13 15  2  0  0  0  0
 17 16  2  0  0  0  0
 18 17  1  0  0  0  0
 19 17  1  0  0  0  0
 19 20  2  0  0  0  0
 20 21  1  0  0  0  0
 21 16  1  0  0  0  0
 22 27  1  0  0  0  0
 22  1  1  0  0  0  0
 23 22  2  0  0  0  0
 24 25  2  0  0  0  0
 24 23  1  0  0  0  0
 25 26  1  0  0  0  0
 26 30  1  0  0  0  0
 26 27  2  0  0  0  0
 28 23  1  0  0  0  0
 29 24  1  0  0  0  0
 30 31  1  0  0  0  0
 30 33  1  1  0  0  0
 31 35  1  0  0  0  0
 31 34  1  0  0  0  0
 32 36  1  6  0  0  0
 32 30  1  0  0  0  0
 32 31  1  0  0  0  0
 37 39  1  0  0  0  0
 37 32  1  0  0  0  0
 38 37  1  0  0  0  0
M  END
>  <minimizedAffinity>
-5.35587454

$$$$
