
 OpenBabel03252507453D

 34 36  0  0  0  0  0  0  0  0999 V2000
   47.2060   34.4840   40.9030 C   0  0  0  0  0  0  0  0  0  0  0  0
   47.3600   35.2690   40.1250 H   0  0  0  0  0  0  0  0  0  0  0  0
   46.6190   33.6810   40.4140 H   0  0  0  0  0  0  0  0  0  0  0  0
   48.5270   34.0070   41.3440 C   0  0  0  0  0  0  0  0  0  0  0  0
   48.9180   32.7550   40.8910 C   0  0  0  0  0  0  0  0  0  0  0  0
   50.1380   32.2010   41.2390 C   0  0  0  0  0  0  0  0  0  0  0  0
   50.9430   32.9630   42.0610 N   0  0  0  0  0  0  0  0  0  0  0  0
   50.5340   34.1800   42.4850 C   0  0  0  0  0  0  0  0  0  0  0  0
   49.3520   34.6770   42.1270 N   0  0  0  0  0  0  0  0  0  0  0  0
   50.4270   31.2210   40.8770 H   0  0  0  0  0  0  0  0  0  0  0  0
   51.2350   34.6970   43.1220 H   0  0  0  0  0  0  0  0  0  0  0  0
   47.8290   31.7940   39.8160 S   0  0  0  0  0  0  0  0  0  0  0  0
   46.6660   30.8820   40.7100 C   0  0  0  0  0  0  0  0  0  0  0  0
   45.3920   31.1270   41.1030 C   0  0  0  0  0  0  0  0  0  0  0  0
   44.9660   32.0760   40.8240 H   0  0  0  0  0  0  0  0  0  0  0  0
   44.7000   30.1930   41.8180 C   0  0  0  0  0  3  0  0  0  0  0  0
   45.3520   28.9690   42.1360 C   0  0  0  0  0  3  0  0  0  0  0  0
   47.0620   29.1820   41.3550 S   0  0  0  0  0  0  0  0  0  0  0  0
   46.3530   34.9830   42.0380 C   0  0  0  0  0  0  0  0  0  0  0  0
   46.6140   34.5300   43.0130 H   0  0  0  0  0  0  0  0  0  0  0  0
   46.6150   36.0730   42.1660 H   0  0  0  0  0  0  0  0  0  0  0  0
   44.9010   34.9450   41.7760 C   0  0  0  0  0  0  0  0  0  0  0  0
   43.9960   35.4610   42.7430 C   0  0  0  0  0  0  0  0  0  0  0  0
   42.3520   35.1900   41.9640 S   0  0  0  0  0  0  0  0  0  0  0  0
   43.1820   34.4110   40.4350 C   0  0  0  0  0  0  0  0  0  0  0  0
   44.2920   34.4770   40.7140 N   0  0  0  0  0  0  0  0  0  0  0  0
   44.2310   35.9030   43.6980 H   0  0  0  0  0  0  0  0  0  0  0  0
   42.4650   33.9350   39.3480 O   0  0  0  0  0  0  0  0  0  0  0  0
   40.4800   34.3430   37.6400 O   0  0  0  0  0  0  0  0  0  0  0  0
   41.5590   35.0560   38.4440 P   0  0  0  0  0  0  0  0  0  0  0  0
   40.8090   36.1020   39.5480 O   0  0  0  0  0  0  0  0  0  0  0  0
   40.0320   36.5370   39.1500 H   0  0  0  0  0  0  0  0  0  0  0  0
   42.5920   35.9470   37.4480 O   0  0  0  0  0  0  0  0  0  0  0  0
   42.8210   36.7850   37.9270 H   0  0  0  0  0  0  0  0  0  0  0  0
  1  4  1  0  0  0  0
  1 19  1  0  0  0  0
  2  1  1  0  0  0  0
  3  1  1  0  0  0  0
  4  9  1  0  0  0  0
  5  6  1  0  0  0  0
  5  4  2  0  0  0  0
  6  7  2  0  0  0  0
  7  8  1  0  0  0  0
  8 11  1  0  0  0  0
  9  8  2  0  0  0  0
 10  6  1  0  0  0  0
 12 13  1  0  0  0  0
 12  5  1  0  0  0  0
 13 14  2  0  0  0  0
 13 18  1  0  0  0  0
 14 16  1  0  0  0  0
 15 14  1  0  0  0  0
 16 17  2  0  0  0  0
 18 17  1  0  0  0  0
 19 21  1  0  0  0  0
 19 20  1  0  0  0  0
 22 19  1  0  0  0  0
 22 23  2  0  0  0  0
 23 27  1  0  0  0  0
 24 23  1  0  0  0  0
 25 26  2  0  0  0  0
 25 24  1  0  0  0  0
 26 22  1  0  0  0  0
 28 25  1  0  0  0  0
 29 30  2  0  0  0  0
 30 28  1  0  0  0  0
 30 31  1  0  0  0  0
 32 31  1  0  0  0  0
 33 34  1  0  0  0  0
 33 30  1  0  0  0  0
M  END
>  <minimizedAffinity>
-4.33228922

>  <minimizedRMSD>
0.307687134

$$$$
