
 OpenBabel03252508033D

 39 42  0  0  1  0  0  0  0  0999 V2000
   44.2520   34.3800   41.5510 C   0  0  0  0  0  0  0  0  0  0  0  0
   45.1350   34.3000   40.6380 O   0  0  0  0  0  0  0  0  0  0  0  0
   42.0790   33.2560   41.1050 C   0  0  0  0  0  0  0  0  0  0  0  0
   42.8050   34.3940   41.3150 C   0  0  0  0  0  0  0  0  0  0  0  0
   42.1230   35.6260   41.2990 C   0  0  0  0  0  0  0  0  0  0  0  0
   40.7750   35.7440   41.0860 C   0  0  0  0  0  0  0  0  0  0  0  0
   40.0480   34.6000   40.8760 C   0  0  0  0  0  0  0  0  0  0  0  0
   40.7000   33.4020   40.8900 C   0  0  0  0  0  0  0  0  0  0  0  0
   42.6190   36.5760   41.4460 H   0  0  0  0  0  0  0  0  0  0  0  0
   40.2520   36.6700   41.0710 H   0  0  0  0  0  0  0  0  0  0  0  0
   38.9840   34.5430   40.6970 H   0  0  0  0  0  0  0  0  0  0  0  0
   40.1630   32.4690   40.7290 H   0  0  0  0  0  0  0  0  0  0  0  0
   42.8000   31.7100   41.1770 S   0  0  0  0  0  0  0  0  0  0  0  0
   41.6940   30.8730   40.4520 O   0  0  0  0  0  0  0  0  0  0  0  0
   42.8730   31.2020   42.5710 O   0  0  0  0  0  0  0  0  0  0  0  0
   43.8940   31.0460   40.1750 C   0  0  0  0  0  0  0  0  0  0  0  0
   44.9880   30.1290   40.0340 C   0  0  0  0  0  0  0  0  0  0  0  0
   45.2320   29.6410   40.9620 H   0  0  0  0  0  0  0  0  0  0  0  0
   45.6070   29.9870   38.8730 C   0  0  0  0  0  3  0  0  0  0  0  0
   45.2320   30.7080   37.7650 C   0  0  0  0  0  3  0  0  0  0  0  0
   43.8880   31.6940   38.3560 S   0  0  0  0  0  0  0  0  0  0  0  0
   44.5890   34.4670   42.9460 C   0  0  0  0  0  0  0  0  0  0  0  0
   44.3060   35.7240   43.5810 C   0  0  0  0  0  0  0  0  0  0  0  0
   44.6230   35.8220   44.9250 C   0  0  0  0  0  0  0  0  0  0  0  0
   45.1710   34.7460   45.5490 N   0  0  0  0  0  0  0  0  0  0  0  0
   45.4210   33.5670   44.8940 C   0  0  0  0  0  0  0  0  0  0  0  0
   45.1300   33.4700   43.6470 N   0  0  0  0  0  0  0  0  0  0  0  0
   43.8870   36.6030   43.1710 H   0  0  0  0  0  0  0  0  0  0  0  0
   44.4500   36.7340   45.5080 H   0  0  0  0  0  0  0  0  0  0  0  0
   46.0130   32.4500   45.6520 C   0  0  1  0  0  0  0  0  0  0  0  0
   46.9670   32.7510   46.7850 C   0  0  0  0  0  0  0  0  0  0  0  0
   45.5450   32.3450   47.0610 C   0  0  1  0  0  0  0  0  0  0  0  0
   46.2400   31.5240   45.1070 H   0  0  0  0  0  0  0  0  0  0  0  0
   47.8020   32.0440   46.9660 H   0  0  0  0  0  0  0  0  0  0  0  0
   47.2810   33.8100   46.8850 H   0  0  0  0  0  0  0  0  0  0  0  0
   45.4140   31.3370   47.5170 H   0  0  0  0  0  0  0  0  0  0  0  0
   44.7640   33.4080   47.6510 N   0  0  0  0  0  0  0  0  0  0  0  0
   43.8640   33.5940   47.1950 H   0  0  0  0  0  0  0  0  0  0  0  0
   45.2970   34.2260   47.9630 H   0  0  0  0  0  0  0  0  0  0  0  0
  1 22  1  0  0  0  0
  2  1  2  0  0  0  0
  3 13  1  0  0  0  0
  3  4  1  0  0  0  0
  4  1  1  0  0  0  0
  5  4  2  0  0  0  0
  5  9  1  0  0  0  0
  6  5  1  0  0  0  0
  7  8  1  0  0  0  0
  7  6  2  0  0  0  0
  8  3  2  0  0  0  0
 10  6  1  0  0  0  0
 11  7  1  0  0  0  0
 12  8  1  0  0  0  0
 13 15  2  0  0  0  0
 14 13  2  0  0  0  0
 16 13  1  0  0  0  0
 17 16  2  0  0  0  0
 17 18  1  0  0  0  0
 19 17  1  0  0  0  0
 20 21  1  0  0  0  0
 20 19  2  0  0  0  0
 21 16  1  0  0  0  0
 22 23  2  0  0  0  0
 22 27  1  0  0  0  0
 23 24  1  0  0  0  0
 24 29  1  0  0  0  0
 24 25  2  0  0  0  0
 26 25  1  0  0  0  0
 26 30  1  0  0  0  0
 27 26  2  0  0  0  0
 28 23  1  0  0  0  0
 30 33  1  6  0  0  0
 30 31  1  0  0  0  0
 30 32  1  0  0  0  0
 31 35  1  0  0  0  0
 31 34  1  0  0  0  0
 31 32  1  0  0  0  0
 32 36  1  1  0  0  0
 32 37  1  0  0  0  0
 37 39  1  0  0  0  0
 38 37  1  0  0  0  0
M  END
>  <minimizedAffinity>
-5.73959064

>  <minimizedRMSD>
1.21658731

$$$$
