
 OpenBabel03252508023D

 39 42  0  0  1  0  0  0  0  0999 V2000
   44.2910   34.4690   41.6100 C   0  0  0  0  0  0  0  0  0  0  0  0
   45.1880   34.4550   40.7080 O   0  0  0  0  0  0  0  0  0  0  0  0
   42.1540   33.2740   41.1790 C   0  0  0  0  0  0  0  0  0  0  0  0
   42.8480   34.4370   41.3540 C   0  0  0  0  0  0  0  0  0  0  0  0
   42.1360   35.6500   41.2810 C   0  0  0  0  0  0  0  0  0  0  0  0
   40.7890   35.7260   41.0450 C   0  0  0  0  0  0  0  0  0  0  0  0
   40.0930   34.5570   40.8700 C   0  0  0  0  0  0  0  0  0  0  0  0
   40.7750   33.3770   40.9400 C   0  0  0  0  0  0  0  0  0  0  0  0
   42.6060   36.6170   41.3970 H   0  0  0  0  0  0  0  0  0  0  0  0
   40.2430   36.6370   40.9870 H   0  0  0  0  0  0  0  0  0  0  0  0
   39.0340   34.4660   40.6790 H   0  0  0  0  0  0  0  0  0  0  0  0
   40.2630   32.4250   40.8080 H   0  0  0  0  0  0  0  0  0  0  0  0
   42.9110   31.7510   41.3210 S   0  0  0  0  0  0  0  0  0  0  0  0
   42.1000   30.9560   40.2440 O   0  0  0  0  0  0  0  0  0  0  0  0
   42.6200   31.1120   42.6310 O   0  0  0  0  0  0  0  0  0  0  0  0
   44.2770   31.2200   40.6170 C   0  0  0  0  0  0  0  0  0  0  0  0
   45.5740   30.6360   40.8070 C   0  0  0  0  0  0  0  0  0  0  0  0
   45.7850   30.4450   41.8450 H   0  0  0  0  0  0  0  0  0  0  0  0
   46.3780   30.4280   39.7790 C   0  0  0  0  0  3  0  0  0  0  0  0
   46.0110   30.7620   38.4980 C   0  0  0  0  0  3  0  0  0  0  0  0
   44.3890   31.4360   38.7020 S   0  0  0  0  0  0  0  0  0  0  0  0
   44.6070   34.5190   43.0120 C   0  0  0  0  0  0  0  0  0  0  0  0
   44.2970   35.7530   43.6800 C   0  0  0  0  0  0  0  0  0  0  0  0
   44.5940   35.8150   45.0300 C   0  0  0  0  0  0  0  0  0  0  0  0
   45.1470   34.7280   45.6310 N   0  0  0  0  0  0  0  0  0  0  0  0
   45.4220   33.5720   44.9450 C   0  0  0  0  0  0  0  0  0  0  0  0
   45.1500   33.5080   43.6910 N   0  0  0  0  0  0  0  0  0  0  0  0
   43.8730   36.6380   43.2900 H   0  0  0  0  0  0  0  0  0  0  0  0
   44.4000   36.7060   45.6380 H   0  0  0  0  0  0  0  0  0  0  0  0
   46.0180   32.4410   45.6780 C   0  0  1  0  0  0  0  0  0  0  0  0
   46.9760   32.7200   46.8120 C   0  0  0  0  0  0  0  0  0  0  0  0
   45.5560   32.3080   47.0860 C   0  0  1  0  0  0  0  0  0  0  0  0
   46.2430   31.5250   45.1140 H   0  0  0  0  0  0  0  0  0  0  0  0
   47.8130   32.0090   46.9760 H   0  0  0  0  0  0  0  0  0  0  0  0
   47.2900   33.7760   46.9320 H   0  0  0  0  0  0  0  0  0  0  0  0
   45.4280   31.2910   47.5230 H   0  0  0  0  0  0  0  0  0  0  0  0
   44.7770   33.3590   47.7010 N   0  0  0  0  0  0  0  0  0  0  0  0
   43.8750   33.5540   47.2530 H   0  0  0  0  0  0  0  0  0  0  0  0
   45.3110   34.1700   48.0270 H   0  0  0  0  0  0  0  0  0  0  0  0
  1 22  1  0  0  0  0
  2  1  2  0  0  0  0
  3 13  1  0  0  0  0
  3  4  1  0  0  0  0
  4  1  1  0  0  0  0
  5  4  2  0  0  0  0
  5  9  1  0  0  0  0
  6  5  1  0  0  0  0
  7  8  1  0  0  0  0
  7  6  2  0  0  0  0
  8  3  2  0  0  0  0
 10  6  1  0  0  0  0
 11  7  1  0  0  0  0
 12  8  1  0  0  0  0
 13 15  2  0  0  0  0
 14 13  2  0  0  0  0
 16 17  2  0  0  0  0
 16 13  1  0  0  0  0
 17 18  1  0  0  0  0
 19 17  1  0  0  0  0
 20 21  1  0  0  0  0
 20 19  2  0  0  0  0
 21 16  1  0  0  0  0
 22 23  2  0  0  0  0
 22 27  1  0  0  0  0
 23 24  1  0  0  0  0
 24 25  2  0  0  0  0
 24 29  1  0  0  0  0
 26 25  1  0  0  0  0
 26 30  1  0  0  0  0
 27 26  2  0  0  0  0
 28 23  1  0  0  0  0
 30 33  1  6  0  0  0
 30 31  1  0  0  0  0
 30 32  1  0  0  0  0
 31 35  1  0  0  0  0
 31 34  1  0  0  0  0
 31 32  1  0  0  0  0
 32 36  1  1  0  0  0
 32 37  1  0  0  0  0
 37 39  1  0  0  0  0
 38 37  1  0  0  0  0
M  END
>  <minimizedAffinity>
-5.70599604

>  <minimizedRMSD>
0.806522012

$$$$
