
 OpenBabel03252508033D

 39 42  0  0  1  0  0  0  0  0999 V2000
   44.2310   34.3650   41.5430 C   0  0  0  0  0  0  0  0  0  0  0  0
   45.1080   34.2510   40.6280 O   0  0  0  0  0  0  0  0  0  0  0  0
   42.0260   33.2960   41.1190 C   0  0  0  0  0  0  0  0  0  0  0  0
   42.7840   34.4160   41.3120 C   0  0  0  0  0  0  0  0  0  0  0  0
   42.1360   35.6660   41.2830 C   0  0  0  0  0  0  0  0  0  0  0  0
   40.7920   35.8190   41.0730 C   0  0  0  0  0  0  0  0  0  0  0  0
   40.0320   34.6930   40.8800 C   0  0  0  0  0  0  0  0  0  0  0  0
   40.6510   33.4770   40.9070 C   0  0  0  0  0  0  0  0  0  0  0  0
   42.6590   36.6040   41.4150 H   0  0  0  0  0  0  0  0  0  0  0  0
   40.2940   36.7590   41.0480 H   0  0  0  0  0  0  0  0  0  0  0  0
   38.9670   34.6630   40.7060 H   0  0  0  0  0  0  0  0  0  0  0  0
   40.0870   32.5580   40.7600 H   0  0  0  0  0  0  0  0  0  0  0  0
   42.7040   31.7320   41.2090 S   0  0  0  0  0  0  0  0  0  0  0  0
   41.5420   30.9080   40.5620 O   0  0  0  0  0  0  0  0  0  0  0  0
   42.8250   31.2650   42.6140 O   0  0  0  0  0  0  0  0  0  0  0  0
   43.7310   31.0040   40.1810 C   0  0  0  0  0  0  0  0  0  0  0  0
   44.6340   31.1620   39.0770 C   0  0  0  0  0  0  0  0  0  0  0  0
   44.6980   32.1850   38.7480 H   0  0  0  0  0  0  0  0  0  0  0  0
   45.2470   30.1150   38.5500 C   0  0  0  0  0  3  0  0  0  0  0  0
   45.0430   28.8440   39.0310 C   0  0  0  0  0  3  0  0  0  0  0  0
   43.8910   29.0870   40.3500 S   0  0  0  0  0  0  0  0  0  0  0  0
   44.5760   34.4570   42.9360 C   0  0  0  0  0  0  0  0  0  0  0  0
   44.2960   35.7170   43.5680 C   0  0  0  0  0  0  0  0  0  0  0  0
   44.6210   35.8210   44.9090 C   0  0  0  0  0  0  0  0  0  0  0  0
   45.1720   34.7470   45.5350 N   0  0  0  0  0  0  0  0  0  0  0  0
   45.4180   33.5650   44.8830 C   0  0  0  0  0  0  0  0  0  0  0  0
   45.1200   33.4630   43.6380 N   0  0  0  0  0  0  0  0  0  0  0  0
   43.8750   36.5940   43.1570 H   0  0  0  0  0  0  0  0  0  0  0  0
   44.4510   36.7340   45.4900 H   0  0  0  0  0  0  0  0  0  0  0  0
   46.0130   32.4510   45.6430 C   0  0  1  0  0  0  0  0  0  0  0  0
   46.9660   32.7560   46.7750 C   0  0  0  0  0  0  0  0  0  0  0  0
   45.5460   32.3460   47.0510 C   0  0  1  0  0  0  0  0  0  0  0  0
   46.2430   31.5250   45.0980 H   0  0  0  0  0  0  0  0  0  0  0  0
   47.8040   32.0520   46.9570 H   0  0  0  0  0  0  0  0  0  0  0  0
   47.2770   33.8160   46.8740 H   0  0  0  0  0  0  0  0  0  0  0  0
   45.4180   31.3380   47.5090 H   0  0  0  0  0  0  0  0  0  0  0  0
   44.7610   33.4070   47.6400 N   0  0  0  0  0  0  0  0  0  0  0  0
   43.8610   33.5900   47.1850 H   0  0  0  0  0  0  0  0  0  0  0  0
   45.2910   34.2270   47.9520 H   0  0  0  0  0  0  0  0  0  0  0  0
  1 22  1  0  0  0  0
  2  1  2  0  0  0  0
  3 13  1  0  0  0  0
  3  4  1  0  0  0  0
  4  1  1  0  0  0  0
  5  4  2  0  0  0  0
  5  9  1  0  0  0  0
  6  5  1  0  0  0  0
  7  8  1  0  0  0  0
  7  6  2  0  0  0  0
  8  3  2  0  0  0  0
 10  6  1  0  0  0  0
 11  7  1  0  0  0  0
 12  8  1  0  0  0  0
 13 15  2  0  0  0  0
 14 13  2  0  0  0  0
 16 21  1  0  0  0  0
 16 13  1  0  0  0  0
 17 16  2  0  0  0  0
 18 17  1  0  0  0  0
 19 20  2  0  0  0  0
 19 17  1  0  0  0  0
 20 21  1  0  0  0  0
 22 23  2  0  0  0  0
 22 27  1  0  0  0  0
 23 24  1  0  0  0  0
 24 29  1  0  0  0  0
 24 25  2  0  0  0  0
 26 25  1  0  0  0  0
 26 30  1  0  0  0  0
 27 26  2  0  0  0  0
 28 23  1  0  0  0  0
 30 33  1  6  0  0  0
 30 31  1  0  0  0  0
 30 32  1  0  0  0  0
 31 35  1  0  0  0  0
 31 34  1  0  0  0  0
 31 32  1  0  0  0  0
 32 36  1  1  0  0  0
 32 37  1  0  0  0  0
 37 39  1  0  0  0  0
 38 37  1  0  0  0  0
M  END
>  <minimizedAffinity>
-5.66963196

>  <minimizedRMSD>
1.12607026

$$$$
