REMARK  Name = 
REMARK  9 active torsions:
REMARK  status: ('A' for Active; 'I' for Inactive)
REMARK    1  A    between atoms: C_1  and  C_2
REMARK    2  A    between atoms: C_1  and  C_12
REMARK    3  A    between atoms: C_5  and  O_7
REMARK    4  A    between atoms: O_7  and  P_9
REMARK    5  A    between atoms: P_9  and  O_10
REMARK    6  A    between atoms: P_9  and  O_11
REMARK    7  A    between atoms: C_12  and  C_13
REMARK    8  A    between atoms: C_14  and  S_19
REMARK    9  A    between atoms: S_19  and  C_29
REMARK                            x       y       z     vdW  Elec       q    Type
REMARK                         _______ _______ _______ _____ _____    ______ ____
ROOT
ATOM      1  C   UNL     1      47.132  34.346  40.827  0.00  0.00    +0.000 C 
ATOM      2  H   UNL     1      47.261  35.023  39.950  0.00  0.00    +0.000 HD
ATOM      3  H   UNL     1      46.529  33.489  40.466  0.00  0.00    +0.000 HD
ENDROOT
BRANCH   1   4
ATOM      4  C   UNL     1      48.466  33.924  41.284  0.00  0.00    +0.000 A 
ATOM      5  C   UNL     1      48.936  32.713  40.795  0.00  0.00    +0.000 A 
ATOM      6  C   UNL     1      50.176  32.212  41.153  0.00  0.00    +0.000 A 
ATOM      7  N   UNL     1      50.918  32.984  42.023  0.00  0.00    +0.000 NA
ATOM      8  C   UNL     1      50.433  34.160  42.482  0.00  0.00    +0.000 A 
ATOM      9  N   UNL     1      49.235  34.606  42.113  0.00  0.00    +0.000 NA
ATOM     10  H   UNL     1      50.526  31.264  40.762  0.00  0.00    +0.000 HD
ATOM     11  H   UNL     1      51.090  34.688  43.156  0.00  0.00    +0.000 HD
BRANCH   5  12
ATOM     12  S   UNL     1      47.927  31.737  39.657  0.00  0.00    +0.000 S 
BRANCH  12  13
ATOM     13  C   UNL     1      46.897  30.625  40.485  0.00  0.00    +0.000 A 
ATOM     14  C   UNL     1      45.568  30.604  40.747  0.00  0.00    +0.000 A 
ATOM     15  H   UNL     1      44.982  31.433  40.384  0.00  0.00    +0.000 HD
ATOM     16  C   UNL     1      45.018  29.566  41.443  0.00  0.00    +0.000 A 
ATOM     17  C   UNL     1      45.877  28.518  41.879  0.00  0.00    +0.000 A 
ATOM     18  S   UNL     1      47.573  29.067  41.247  0.00  0.00    +0.000 S 
ENDBRANCH  12  13
ENDBRANCH   5  12
ENDBRANCH   1   4
BRANCH   1  19
ATOM     19  C   UNL     1      46.317  34.992  41.915  0.00  0.00    +0.000 C 
ATOM     20  H   UNL     1      46.601  34.659  42.931  0.00  0.00    +0.000 HD
ATOM     21  H   UNL     1      46.592  36.086  41.900  0.00  0.00    +0.000 HD
BRANCH  19  22
ATOM     22  C   UNL     1      44.857  34.940  41.699  0.00  0.00    +0.000 A 
ATOM     23  C   UNL     1      43.978  35.428  42.704  0.00  0.00    +0.000 A 
ATOM     24  S   UNL     1      42.313  35.149  41.974  0.00  0.00    +0.000 S 
ATOM     25  C   UNL     1      43.102  34.407  40.406  0.00  0.00    +0.000 A 
ATOM     26  N   UNL     1      44.220  34.482  40.650  0.00  0.00    +0.000 NA
ATOM     27  H   UNL     1      44.239  35.856  43.659  0.00  0.00    +0.000 HD
BRANCH  25  28
ATOM     28  O   UNL     1      42.356  33.941  39.334  0.00  0.00    +0.000 OA
BRANCH  28  30
ATOM     29  O   UNL     1      40.399  34.395  37.605  0.00  0.00    +0.000 OA
ATOM     30  P   UNL     1      41.492  35.082  38.414  0.00  0.00    +0.000 P 
BRANCH  30  31
ATOM     31  O   UNL     1      40.764  36.158  39.503  0.00  0.00    +0.000 OA
ATOM     32  H   UNL     1      40.004  36.613  39.095  0.00  0.00    +0.000 HD
ENDBRANCH  30  31
BRANCH  30  33
ATOM     33  O   UNL     1      42.560  35.934  37.421  0.00  0.00    +0.000 OA
ATOM     34  H   UNL     1      42.810  36.768  37.896  0.00  0.00    +0.000 HD
ENDBRANCH  30  33
ENDBRANCH  28  30
ENDBRANCH  25  28
ENDBRANCH  19  22
ENDBRANCH   1  19
TORSDOF 9
