
 OpenBabel03242523303D

 19 20  0  0  0  0  0  0  0  0999 V2000
   46.0370   32.9920   46.0280 C   0  0  0  0  0  0  0  0  0  0  0  0
   46.5870   33.3200   46.9210 H   0  0  0  0  0  0  0  0  0  0  0  0
   45.1350   32.4560   46.3710 H   0  0  0  0  0  0  0  0  0  0  0  0
   44.4940   36.0240   44.5360 C   0  0  0  0  0  0  0  0  0  0  0  0
   45.1240   36.0630   43.3000 C   0  0  0  0  0  0  0  0  0  0  0  0
   46.0490   35.0770   42.9910 C   0  0  0  0  0  0  0  0  0  0  0  0
   46.3260   34.0910   43.8980 N   0  0  0  0  0  0  0  0  0  0  0  0
   45.6910   34.0880   45.0940 C   0  0  0  0  0  0  0  0  0  0  0  0
   44.7900   35.0400   45.4070 N   0  0  0  0  0  0  0  0  0  0  0  0
   43.7790   36.7770   44.7910 H   0  0  0  0  0  0  0  0  0  0  0  0
   44.9080   36.8390   42.5820 H   0  0  0  0  0  0  0  0  0  0  0  0
   46.5710   35.0530   42.0450 H   0  0  0  0  0  0  0  0  0  0  0  0
   47.0070   31.7770   45.0640 S   0  0  0  0  0  0  0  0  0  0  0  0
   47.2060   30.3580   46.0730 C   0  0  0  0  0  0  0  0  0  0  0  0
   48.1700   29.9250   46.9030 C   0  0  0  0  0  0  0  0  0  0  0  0
   49.0270   30.5870   46.9810 H   0  0  0  0  0  0  0  0  0  0  0  0
   48.0910   28.7630   47.5890 C   0  0  0  0  0  3  0  0  0  0  0  0
   46.8470   28.0380   47.3280 C   0  0  0  0  0  3  0  0  0  0  0  0
   45.9510   29.0760   46.1570 S   0  0  0  0  0  0  0  0  0  0  0  0
  1  3  1  0  0  0  0
  1  2  1  0  0  0  0
  4 10  1  0  0  0  0
  4  9  1  0  0  0  0
  5  4  2  0  0  0  0
  6  5  1  0  0  0  0
  6  7  2  0  0  0  0
  7  8  1  0  0  0  0
  8  9  2  0  0  0  0
  8  1  1  0  0  0  0
 11  5  1  0  0  0  0
 12  6  1  0  0  0  0
 13  1  1  0  0  0  0
 13 14  1  0  0  0  0
 14 19  1  0  0  0  0
 14 15  2  0  0  0  0
 15 16  1  0  0  0  0
 15 17  1  0  0  0  0
 18 17  2  0  0  0  0
 19 18  1  0  0  0  0
M  END
>  <minimizedAffinity>
-3.44933772

>  <minimizedRMSD>
0.736061335

$$$$
