
 OpenBabel03242523303D

 19 20  0  0  0  0  0  0  0  0999 V2000
   45.9710   33.0280   46.1250 C   0  0  0  0  0  0  0  0  0  0  0  0
   46.8300   33.2480   46.7730 H   0  0  0  0  0  0  0  0  0  0  0  0
   45.1100   32.8050   46.7760 H   0  0  0  0  0  0  0  0  0  0  0  0
   44.4960   36.0440   44.5360 C   0  0  0  0  0  0  0  0  0  0  0  0
   45.1350   36.0360   43.3030 C   0  0  0  0  0  0  0  0  0  0  0  0
   46.0430   35.0240   43.0300 C   0  0  0  0  0  0  0  0  0  0  0  0
   46.2950   34.0600   43.9660 N   0  0  0  0  0  0  0  0  0  0  0  0
   45.6530   34.1030   45.1570 C   0  0  0  0  0  0  0  0  0  0  0  0
   44.7680   35.0790   45.4360 N   0  0  0  0  0  0  0  0  0  0  0  0
   43.7930   36.8170   44.7630 H   0  0  0  0  0  0  0  0  0  0  0  0
   44.9380   36.7950   42.5610 H   0  0  0  0  0  0  0  0  0  0  0  0
   46.5710   34.9640   42.0890 H   0  0  0  0  0  0  0  0  0  0  0  0
   46.2600   31.5140   45.1390 S   0  0  0  0  0  0  0  0  0  0  0  0
   45.9820   30.1460   46.2000 C   0  0  0  0  0  0  0  0  0  0  0  0
   45.1190   29.8960   47.2000 C   0  0  0  0  0  0  0  0  0  0  0  0
   44.4300   30.7070   47.4130 H   0  0  0  0  0  0  0  0  0  0  0  0
   45.0980   28.7340   47.8880 C   0  0  0  0  0  3  0  0  0  0  0  0
   46.1160   27.7870   47.4260 C   0  0  0  0  0  3  0  0  0  0  0  0
   46.9650   28.6490   46.0900 S   0  0  0  0  0  0  0  0  0  0  0  0
  1  2  1  0  0  0  0
  1  3  1  0  0  0  0
  4 10  1  0  0  0  0
  4  9  1  0  0  0  0
  5  4  2  0  0  0  0
  6  5  1  0  0  0  0
  6  7  2  0  0  0  0
  7  8  1  0  0  0  0
  8  9  2  0  0  0  0
  8  1  1  0  0  0  0
 11  5  1  0  0  0  0
 12  6  1  0  0  0  0
 13  1  1  0  0  0  0
 13 14  1  0  0  0  0
 14 15  2  0  0  0  0
 15 16  1  0  0  0  0
 15 17  1  0  0  0  0
 18 17  2  0  0  0  0
 19 14  1  0  0  0  0
 19 18  1  0  0  0  0
M  END
>  <minimizedAffinity>
-3.72598314

>  <minimizedRMSD>
1.28565836

$$$$
