
     RDKit          3D

 21 22  0  0  0  0  0  0  0  0999 V2000
   44.5221   36.0063   44.5243 C   0  0  0  0  0  0  0  0  0  0  0  0
   45.2149   35.8779   43.3278 C   0  0  0  0  0  0  0  0  0  0  0  0
   46.1065   34.8248   43.1829 C   0  0  0  0  0  0  0  0  0  0  0  0
   46.2893   33.9384   44.2068 N   0  0  0  0  0  0  0  0  0  0  0  0
   45.5950   34.0972   45.3587 C   0  0  0  0  0  0  0  0  0  0  0  0
   44.7256   35.1154   45.5136 N   0  0  0  0  0  0  0  0  0  0  0  0
   45.8405   33.1010   46.4272 C   0  0  0  0  0  0  0  0  0  0  0  0
   46.5292   31.6188   45.6037 S   0  0  0  0  0  0  0  0  0  0  0  0
   43.8312   36.8123   44.6525 H   0  0  0  0  0  0  0  0  0  0  0  0
   45.0731   36.5763   42.5167 H   0  0  0  0  0  0  0  0  0  0  0  0
   46.6742   34.6729   42.2758 H   0  0  0  0  0  0  0  0  0  0  0  0
   46.5051   33.4540   47.2265 H   0  0  0  0  0  0  0  0  0  0  0  0
   44.8972   32.7752   46.8974 H   0  0  0  0  0  0  0  0  0  0  0  0
   46.8238   30.4253   46.8533 C   0  0  0  0  0  0  0  0  0  0  0  0
   46.6529   30.4013   48.1862 C   0  0  0  0  0  0  0  0  0  0  0  0
   46.2406   31.3159   48.6028 H   0  0  0  0  0  0  0  0  0  0  0  0
   46.9637   29.3350   48.9551 C   0  0  0  0  0  0  0  0  0  0  0  0
   47.5035   28.2182   48.1770 C   0  0  0  0  0  0  0  0  0  0  0  0
   47.5045   28.8080   46.4734 S   0  0  0  0  0  0  0  0  0  0  0  0
   46.8362   29.2899   50.0267 H   0  0  0  0  0  0  0  0  0  0  0  0
   47.7940   27.2433   48.8330 H   0  0  0  0  0  0  0  0  0  0  0  0
  1  6  2  0
  2  1  1  0
  3  2  2  0
  3  4  1  0
  4  5  2  0
  5  6  1  0
  5  7  1  0
  8  7  1  0
  1  9  1  0
  2 10  1  0
  3 11  1  0
  7 12  1  0
  7 13  1  0
 14 15  2  0
 15 16  1  0
 15 17  1  0
 17 18  2  0
 18 19  1  0
 19 14  1  0
 17 20  1  0
 18 21  1  0
  8 14  1  0
M  ISO  6   9  14  10  14  11  14  12   8  13   8  16  15
M  END
>  <DihAtoms>  (1) 
6,7,13,14

>  <DihDeg>  (1) 
89.95174949011694

$$$$
