
     RDKit          3D

 37 39  0  0  0  0  0  0  0  0999 V2000
   48.0902   32.9112   41.9126 O   0  0  0  0  0  0  0  0  0  0  0  0
   47.1948   34.0377   41.3324 P   0  0  2  0  0  0  0  0  0  0  0  0
   45.5965   33.8243   41.9196 O   0  0  0  0  0  0  0  0  0  0  0  0
   44.3660   35.9171   44.6349 C   0  0  0  0  0  0  0  0  0  0  0  0
   44.6652   35.4656   43.3283 C   0  0  0  0  0  0  0  0  0  0  0  0
   45.3176   34.2314   43.2069 C   0  0  0  0  0  0  0  0  0  0  0  0
   45.6215   33.5465   44.3274 N   0  0  0  0  0  0  0  0  0  0  0  0
   45.3221   34.0043   45.5635 C   0  0  0  0  0  0  0  0  0  0  0  0
   44.6982   35.1818   45.7269 N   0  0  0  0  0  0  0  0  0  0  0  0
   47.1758   33.9161   39.6785 O   0  0  0  0  0  0  0  0  0  0  0  0
   46.5486   33.0189   38.8732 C   0  0  0  0  0  0  0  0  0  0  0  0
   45.9203   33.5010   37.7729 O   0  0  0  0  0  0  0  0  0  0  0  0
   47.7896   35.4705   41.9161 O   0  0  0  0  0  0  0  0  0  0  0  0
   49.0447   35.7725   41.4056 C   0  0  0  0  0  0  0  0  0  0  0  0
   49.4521   37.0549   41.7274 F   0  0  0  0  0  0  0  0  0  0  0  0
   49.9483   34.8241   41.7628 F   0  0  0  0  0  0  0  0  0  0  0  0
   48.9146   35.7431   40.0191 F   0  0  0  0  0  0  0  0  0  0  0  0
   43.8630   36.8689   44.7367 H   0  0  0  0  0  0  0  0  0  0  0  0
   44.3794   36.0867   42.5020 H   0  0  0  0  0  0  0  0  0  0  0  0
   45.6019   33.3896   46.4263 H   0  0  0  0  0  0  0  0  0  0  0  0
   46.2345   31.5884   38.6537 C   0  0  0  0  0  0  0  0  0  0  0  0
   47.2615   30.6173   38.6882 C   0  0  0  0  0  0  0  0  0  0  0  0
   48.2439   31.0197   39.0311 H   0  0  0  0  0  0  0  0  0  0  0  0
   47.2703   29.2832   38.3779 C   0  0  0  0  0  0  0  0  0  0  0  0
   46.0262   28.8749   37.9655 C   0  0  0  0  0  0  0  0  0  0  0  0
   44.9688   29.7481   37.9033 C   0  0  0  0  0  0  0  0  0  0  0  0
   43.7205   29.3020   37.5255 C   0  0  0  0  0  0  0  0  0  0  0  0
   42.5566   30.0387   37.4516 C   0  0  0  0  0  0  0  0  0  0  0  0
   42.7060   31.3852   37.8103 C   0  0  0  0  0  0  0  0  0  0  0  0
   43.9373   31.8577   38.1894 C   0  0  0  0  0  0  0  0  0  0  0  0
   45.0677   31.0943   38.2452 C   0  0  0  0  0  0  0  0  0  0  0  0
   48.1552   28.6961   38.4659 H   0  0  0  0  0  0  0  0  0  0  0  0
   45.8971   27.8404   37.6877 H   0  0  0  0  0  0  0  0  0  0  0  0
   43.6633   28.2489   37.2586 H   0  0  0  0  0  0  0  0  0  0  0  0
   41.6473   29.5457   37.1350 H   0  0  0  0  0  0  0  0  0  0  0  0
   41.7720   31.9483   37.7462 H   0  0  0  0  0  0  0  0  0  0  0  0
   43.8467   32.8786   38.4678 H   0  0  0  0  0  0  0  0  0  0  0  0
  2  1  2  0
  2  3  1  1
  2 13  1  0
  3  6  1  0
  4  9  2  0
  5  4  1  0
  6  5  2  0
  6  7  1  0
  7  8  2  0
  8  9  1  0
 10  2  1  0
 11 10  1  0
 12 11  2  0
 14 16  1  0
 14 15  1  0
 14 13  1  0
 17 14  1  0
  4 18  1  0
  5 19  1  0
  8 20  1  0
 21 22  2  0
 22 23  1  0
 22 24  1  0
 24 25  2  0
 25 26  1  0
 26 27  2  0
 27 28  1  0
 28 29  2  0
 29 30  1  0
 30 31  2  0
 31 21  1  0
 31 26  1  0
 24 32  1  0
 25 33  1  0
 27 34  1  0
 28 35  1  0
 29 36  1  0
 30 37  1  0
 11 21  1  0
M  ISO  4  18  14  19  14  20  14  23  15
M  END
>  <DihAtoms>  (1) 
9,10,20,21

>  <DihDeg>  (1) 
-20.291404428908407

$$$$
