
 OpenBabel03242512033D

 49 53  0  0  1  0  0  0  0  0999 V2000
   37.8720   30.1180   38.4160 C   0  0  2  0  0  0  0  0  0  0  0  0
   38.0490   30.3740   36.9510 C   0  0  0  0  0  0  0  0  0  0  0  0
   36.7570   30.4070   36.2260 C   0  0  0  0  0  0  0  0  0  0  0  0
   35.9580   29.1430   36.4260 C   0  0  0  0  0  0  0  0  0  0  0  0
   35.9600   28.6430   37.8400 C   0  0  0  0  0  0  0  0  0  0  0  0
   36.5330   29.6310   38.8220 C   0  0  1  0  0  0  0  0  0  0  0  0
   38.6250   29.3070   38.6610 H   0  0  0  0  0  0  0  0  0  0  0  0
   38.5190   31.3850   36.8540 H   0  0  0  0  0  0  0  0  0  0  0  0
   38.7630   29.6790   36.4650 H   0  0  0  0  0  0  0  0  0  0  0  0
   36.1640   31.3150   36.4450 H   0  0  0  0  0  0  0  0  0  0  0  0
   36.9790   30.4590   35.1350 H   0  0  0  0  0  0  0  0  0  0  0  0
   36.3740   28.3240   35.7820 H   0  0  0  0  0  0  0  0  0  0  0  0
   34.9420   29.3510   36.0210 H   0  0  0  0  0  0  0  0  0  0  0  0
   34.8950   28.4930   38.1110 H   0  0  0  0  0  0  0  0  0  0  0  0
   36.4290   27.6430   37.9470 H   0  0  0  0  0  0  0  0  0  0  0  0
   35.7480   30.3860   38.9750 H   0  0  0  0  0  0  0  0  0  0  0  0
   38.2800   31.2680   39.2500 C   0  0  0  0  0  0  0  0  0  0  0  0
   37.3810   32.3190   39.2010 C   0  0  0  0  0  0  0  0  0  0  0  0
   37.6320   33.4820   39.9500 C   0  0  0  0  0  0  0  0  0  0  0  0
   38.8110   33.4710   40.7040 N   0  0  0  0  0  0  0  0  0  0  0  0
   39.6520   32.4230   40.7160 C   0  0  0  0  0  0  0  0  0  0  0  0
   39.3730   31.3280   39.9820 N   0  0  0  0  0  0  0  0  0  0  0  0
   36.4510   32.5300   38.6950 H   0  0  0  0  0  0  0  0  0  0  0  0
   37.0810   34.3810   40.0500 H   0  0  0  0  0  0  0  0  0  0  0  0
   40.5450   32.4420   41.3000 H   0  0  0  0  0  0  0  0  0  0  0  0
   36.6860   28.9250   40.1490 C   0  0  2  0  0  0  0  0  0  0  0  0
   35.4470   28.8020   41.0150 C   0  0  0  0  0  0  0  0  0  0  0  0
   36.5450   29.6880   41.4200 C   0  0  1  0  0  0  0  0  0  0  0  0
   37.2760   27.9840   40.1130 H   0  0  0  0  0  0  0  0  0  0  0  0
   34.5030   29.3160   40.6820 H   0  0  0  0  0  0  0  0  0  0  0  0
   35.2700   27.9100   41.6280 H   0  0  0  0  0  0  0  0  0  0  0  0
   36.4200   30.7930   41.2790 H   0  0  0  0  0  0  0  0  0  0  0  0
   37.6000   29.3440   42.4360 C   0  0  0  0  0  0  0  0  0  0  0  0
   38.5610   29.2400   41.9080 H   0  0  0  0  0  0  0  0  0  0  0  0
   37.7300   30.2390   43.1070 H   0  0  0  0  0  0  0  0  0  0  0  0
   37.2840   28.1450   43.2600 C   0  0  0  0  0  0  0  0  0  0  0  0
   36.3350   27.6890   42.8720 H   0  0  0  0  0  0  0  0  0  0  0  0
   37.1080   28.4400   44.3020 H   0  0  0  0  0  0  0  0  0  0  0  0
   38.3510   27.1250   43.1090 C   0  0  0  0  0  0  0  0  0  0  0  0
   39.6020   27.3310   43.6800 C   0  0  0  0  0  0  0  0  0  0  0  0
   39.8500   28.2250   44.2210 H   0  0  0  0  0  0  0  0  0  0  0  0
   40.6320   26.4010   43.5990 C   0  0  0  0  0  3  0  0  0  0  0  0
   40.4080   25.2310   42.9300 C   0  0  0  0  0  3  0  0  0  0  0  0
   39.1810   24.9670   42.3380 C   0  0  0  0  0  0  0  0  0  0  0  0
   38.9860   23.7840   41.6610 C   0  0  0  0  0  3  0  0  0  0  0  0
   37.7720   23.5420   41.0730 C   0  0  0  0  0  3  0  0  0  0  0  0
   36.7530   24.4710   41.1540 C   0  0  0  0  0  3  0  0  0  0  0  0
   37.0140   25.6430   41.8520 C   0  0  0  0  0  3  0  0  0  0  0  0
   38.2150   25.9220   42.4550 C   0  0  0  0  0  0  0  0  0  0  0  0
  1  7  1  1  0  0  0
  1  6  1  0  0  0  0
  1 17  1  0  0  0  0
  2  1  1  0  0  0  0
  3  4  1  0  0  0  0
  3 10  1  0  0  0  0
  3  2  1  0  0  0  0
  4  5  1  0  0  0  0
  5 15  1  0  0  0  0
  5 14  1  0  0  0  0
  5  6  1  0  0  0  0
  6 16  1  1  0  0  0
  6 26  1  0  0  0  0
  8  2  1  0  0  0  0
  9  2  1  0  0  0  0
 11  3  1  0  0  0  0
 12  4  1  0  0  0  0
 13  4  1  0  0  0  0
 17 22  1  0  0  0  0
 18 17  2  0  0  0  0
 18 19  1  0  0  0  0
 19 24  1  0  0  0  0
 19 20  2  0  0  0  0
 20 21  1  0  0  0  0
 21 25  1  0  0  0  0
 22 21  2  0  0  0  0
 23 18  1  0  0  0  0
 26 29  1  1  0  0  0
 26 27  1  0  0  0  0
 26 28  1  0  0  0  0
 27 28  1  0  0  0  0
 27 31  1  0  0  0  0
 28 32  1  6  0  0  0
 28 33  1  0  0  0  0
 30 27  1  0  0  0  0
 33 35  1  0  0  0  0
 33 36  1  0  0  0  0
 34 33  1  0  0  0  0
 36 38  1  0  0  0  0
 37 36  1  0  0  0  0
 39 36  1  0  0  0  0
 39 40  1  0  0  0  0
 40 41  1  0  0  0  0
 42 40  2  0  0  0  0
 43 42  1  0  0  0  0
 44 49  1  0  0  0  0
 44 43  2  0  0  0  0
 45 44  1  0  0  0  0
 46 47  1  0  0  0  0
 46 45  2  0  0  0  0
 47 48  2  0  0  0  0
 48 49  1  0  0  0  0
 49 39  2  0  0  0  0
M  END
>  <minimizedAffinity>
-6.65941429

$$$$

 OpenBabel03242512033D

 49 53  0  0  1  0  0  0  0  0999 V2000
   40.0850   30.6340   39.8320 C   0  0  2  0  0  0  0  0  0  0  0  0
   40.8100   30.4490   38.5340 C   0  0  0  0  0  0  0  0  0  0  0  0
   40.3490   29.2480   37.7990 C   0  0  0  0  0  0  0  0  0  0  0  0
   40.4650   27.9930   38.6270 C   0  0  0  0  0  0  0  0  0  0  0  0
   40.0200   28.1620   40.0500 C   0  0  0  0  0  0  0  0  0  0  0  0
   39.3050   29.4650   40.3010 C   0  0  1  0  0  0  0  0  0  0  0  0
   40.9000   30.8350   40.5930 H   0  0  0  0  0  0  0  0  0  0  0  0
   40.5780   31.3430   37.9030 H   0  0  0  0  0  0  0  0  0  0  0  0
   41.9140   30.4530   38.6420 H   0  0  0  0  0  0  0  0  0  0  0  0
   39.3390   29.3710   37.3650 H   0  0  0  0  0  0  0  0  0  0  0  0
   41.0260   29.1020   36.9260 H   0  0  0  0  0  0  0  0  0  0  0  0
   41.5320   27.6490   38.6510 H   0  0  0  0  0  0  0  0  0  0  0  0
   39.9120   27.2020   38.0710 H   0  0  0  0  0  0  0  0  0  0  0  0
   39.2900   27.3480   40.2390 H   0  0  0  0  0  0  0  0  0  0  0  0
   40.8350   27.9960   40.7830 H   0  0  0  0  0  0  0  0  0  0  0  0
   38.2960   29.3340   39.8850 H   0  0  0  0  0  0  0  0  0  0  0  0
   39.2510   31.8540   39.8500 C   0  0  0  0  0  0  0  0  0  0  0  0
   38.0780   31.7200   39.1270 C   0  0  0  0  0  0  0  0  0  0  0  0
   37.1770   32.7970   39.0590 C   0  0  0  0  0  0  0  0  0  0  0  0
   37.5630   33.9500   39.7530 N   0  0  0  0  0  0  0  0  0  0  0  0
   38.7160   34.0300   40.4400 C   0  0  0  0  0  0  0  0  0  0  0  0
   39.5500   32.9720   40.4780 N   0  0  0  0  0  0  0  0  0  0  0  0
   37.6100   30.9500   38.5330 H   0  0  0  0  0  0  0  0  0  0  0  0
   36.2430   32.8970   38.5710 H   0  0  0  0  0  0  0  0  0  0  0  0
   38.9840   34.9220   40.9590 H   0  0  0  0  0  0  0  0  0  0  0  0
   39.1190   29.6070   41.7930 C   0  0  2  0  0  0  0  0  0  0  0  0
   40.2650   29.1610   42.6800 C   0  0  0  0  0  0  0  0  0  0  0  0
   39.0130   28.3950   42.6500 C   0  0  1  0  0  0  0  0  0  0  0  0
   38.6780   30.5740   42.1190 H   0  0  0  0  0  0  0  0  0  0  0  0
   41.1530   28.6630   42.2040 H   0  0  0  0  0  0  0  0  0  0  0  0
   40.5040   29.6950   43.6080 H   0  0  0  0  0  0  0  0  0  0  0  0
   38.9910   27.4300   42.0790 H   0  0  0  0  0  0  0  0  0  0  0  0
   37.9190   28.4900   43.6780 C   0  0  0  0  0  0  0  0  0  0  0  0
   38.3730   28.3500   44.6720 H   0  0  0  0  0  0  0  0  0  0  0  0
   37.5420   29.5510   43.6760 H   0  0  0  0  0  0  0  0  0  0  0  0
   36.7830   27.5560   43.4470 C   0  0  0  0  0  0  0  0  0  0  0  0
   35.8280   28.1440   43.4930 H   0  0  0  0  0  0  0  0  0  0  0  0
   36.7470   26.8030   44.2440 H   0  0  0  0  0  0  0  0  0  0  0  0
   36.8690   26.9710   42.0870 C   0  0  0  0  0  0  0  0  0  0  0  0
   37.4750   25.7350   41.8940 C   0  0  0  0  0  0  0  0  0  0  0  0
   37.9150   25.1760   42.6990 H   0  0  0  0  0  0  0  0  0  0  0  0
   37.5610   25.1200   40.6500 C   0  0  0  0  0  3  0  0  0  0  0  0
   37.0260   25.7580   39.5660 C   0  0  0  0  0  3  0  0  0  0  0  0
   36.4090   26.9950   39.6940 C   0  0  0  0  0  0  0  0  0  0  0  0
   35.8880   27.6190   38.5820 C   0  0  0  0  0  3  0  0  0  0  0  0
   35.2910   28.8440   38.7230 C   0  0  0  0  0  3  0  0  0  0  0  0
   35.2110   29.4510   39.9610 C   0  0  0  0  0  3  0  0  0  0  0  0
   35.7550   28.7680   41.0410 C   0  0  0  0  0  3  0  0  0  0  0  0
   36.3600   27.5400   40.9420 C   0  0  0  0  0  0  0  0  0  0  0  0
  1 17  1  0  0  0  0
  1  6  1  0  0  0  0
  1  7  1  1  0  0  0
  2  9  1  0  0  0  0
  2  1  1  0  0  0  0
  3  2  1  0  0  0  0
  3  4  1  0  0  0  0
  4 12  1  0  0  0  0
  4  5  1  0  0  0  0
  5 14  1  0  0  0  0
  5  6  1  0  0  0  0
  5 15  1  0  0  0  0
  6 16  1  6  0  0  0
  6 26  1  0  0  0  0
  8  2  1  0  0  0  0
 10  3  1  0  0  0  0
 11  3  1  0  0  0  0
 13  4  1  0  0  0  0
 17 22  1  0  0  0  0
 18 17  2  0  0  0  0
 19 18  1  0  0  0  0
 19 20  2  0  0  0  0
 20 21  1  0  0  0  0
 21 22  2  0  0  0  0
 21 25  1  0  0  0  0
 23 18  1  0  0  0  0
 24 19  1  0  0  0  0
 26 29  1  1  0  0  0
 26 28  1  0  0  0  0
 26 27  1  0  0  0  0
 27 31  1  0  0  0  0
 28 32  1  6  0  0  0
 28 27  1  0  0  0  0
 28 33  1  0  0  0  0
 30 27  1  0  0  0  0
 33 34  1  0  0  0  0
 35 33  1  0  0  0  0
 36 37  1  0  0  0  0
 36 33  1  0  0  0  0
 36 38  1  0  0  0  0
 39 36  1  0  0  0  0
 40 39  1  0  0  0  0
 40 41  1  0  0  0  0
 42 40  2  0  0  0  0
 43 44  2  0  0  0  0
 43 42  1  0  0  0  0
 44 49  1  0  0  0  0
 45 46  2  0  0  0  0
 45 44  1  0  0  0  0
 46 47  1  0  0  0  0
 47 48  2  0  0  0  0
 49 48  1  0  0  0  0
 49 39  2  0  0  0  0
M  END
>  <minimizedAffinity>
-6.32946348

$$$$

 OpenBabel03242512033D

 49 53  0  0  1  0  0  0  0  0999 V2000
   36.5250   27.8570   38.9720 C   0  0  2  0  0  0  0  0  0  0  0  0
   35.8560   27.1760   37.8170 C   0  0  0  0  0  0  0  0  0  0  0  0
   34.9200   28.0740   37.1000 C   0  0  0  0  0  0  0  0  0  0  0  0
   33.8760   28.6600   38.0170 C   0  0  0  0  0  0  0  0  0  0  0  0
   34.4180   29.1170   39.3400 C   0  0  0  0  0  0  0  0  0  0  0  0
   35.9230   29.1450   39.3900 C   0  0  1  0  0  0  0  0  0  0  0  0
   36.4240   27.1300   39.8350 H   0  0  0  0  0  0  0  0  0  0  0  0
   36.6640   26.8860   37.1010 H   0  0  0  0  0  0  0  0  0  0  0  0
   35.3620   26.2230   38.0940 H   0  0  0  0  0  0  0  0  0  0  0  0
   35.4390   28.8520   36.5080 H   0  0  0  0  0  0  0  0  0  0  0  0
   34.3640   27.4620   36.3540 H   0  0  0  0  0  0  0  0  0  0  0  0
   33.0830   27.8950   38.2290 H   0  0  0  0  0  0  0  0  0  0  0  0
   33.3660   29.4610   37.4360 H   0  0  0  0  0  0  0  0  0  0  0  0
   34.0670   30.1620   39.4670 H   0  0  0  0  0  0  0  0  0  0  0  0
   33.9910   28.5620   40.2000 H   0  0  0  0  0  0  0  0  0  0  0  0
   36.2210   30.0440   38.8330 H   0  0  0  0  0  0  0  0  0  0  0  0
   37.9830   28.0050   38.7800 C   0  0  0  0  0  0  0  0  0  0  0  0
   38.7170   27.0260   39.4290 C   0  0  0  0  0  0  0  0  0  0  0  0
   40.1190   27.0310   39.3320 C   0  0  0  0  0  0  0  0  0  0  0  0
   40.6660   28.0650   38.5610 N   0  0  0  0  0  0  0  0  0  0  0  0
   39.9080   28.9930   37.9530 C   0  0  0  0  0  0  0  0  0  0  0  0
   38.5660   28.9490   38.0720 N   0  0  0  0  0  0  0  0  0  0  0  0
   38.5010   26.1770   40.0580 H   0  0  0  0  0  0  0  0  0  0  0  0
   40.8500   26.3840   39.7420 H   0  0  0  0  0  0  0  0  0  0  0  0
   40.3530   29.7690   37.3720 H   0  0  0  0  0  0  0  0  0  0  0  0
   36.3310   29.3970   40.8230 C   0  0  2  0  0  0  0  0  0  0  0  0
   36.2520   30.8260   41.3240 C   0  0  0  0  0  0  0  0  0  0  0  0
   37.5570   30.1850   41.1210 C   0  0  1  0  0  0  0  0  0  0  0  0
   35.9330   28.6650   41.5580 H   0  0  0  0  0  0  0  0  0  0  0  0
   35.9890   31.6400   40.5940 H   0  0  0  0  0  0  0  0  0  0  0  0
   35.9580   31.0490   42.3570 H   0  0  0  0  0  0  0  0  0  0  0  0
   38.1540   30.4650   40.2140 H   0  0  0  0  0  0  0  0  0  0  0  0
   38.3990   29.5800   42.2110 C   0  0  0  0  0  0  0  0  0  0  0  0
   39.2110   29.0060   41.7360 H   0  0  0  0  0  0  0  0  0  0  0  0
   38.9160   30.4240   42.7500 H   0  0  0  0  0  0  0  0  0  0  0  0
   37.6340   28.7580   43.1880 C   0  0  0  0  0  0  0  0  0  0  0  0
   36.5390   28.9420   43.0230 H   0  0  0  0  0  0  0  0  0  0  0  0
   37.8720   29.0720   44.2110 H   0  0  0  0  0  0  0  0  0  0  0  0
   37.8750   27.3150   42.9430 C   0  0  0  0  0  0  0  0  0  0  0  0
   36.8360   26.4950   42.5170 C   0  0  0  0  0  0  0  0  0  0  0  0
   35.8350   26.8570   42.3730 H   0  0  0  0  0  0  0  0  0  0  0  0
   37.0050   25.1420   42.2420 C   0  0  0  0  0  3  0  0  0  0  0  0
   38.2460   24.5920   42.3960 C   0  0  0  0  0  3  0  0  0  0  0  0
   39.3230   25.3590   42.8200 C   0  0  0  0  0  0  0  0  0  0  0  0
   40.5610   24.7760   42.9770 C   0  0  0  0  0  3  0  0  0  0  0  0
   41.6110   25.5440   43.4050 C   0  0  0  0  0  3  0  0  0  0  0  0
   41.4370   26.8860   43.6790 C   0  0  0  0  0  3  0  0  0  0  0  0
   40.1650   27.4120   43.5000 C   0  0  0  0  0  3  0  0  0  0  0  0
   39.0870   26.6780   43.0720 C   0  0  0  0  0  0  0  0  0  0  0  0
  1  6  1  0  0  0  0
  1  7  1  1  0  0  0
  2  9  1  0  0  0  0
  2  1  1  0  0  0  0
  3  2  1  0  0  0  0
  3  4  1  0  0  0  0
  4 12  1  0  0  0  0
  4  5  1  0  0  0  0
  5  6  1  0  0  0  0
  5 14  1  0  0  0  0
  5 15  1  0  0  0  0
  6 16  1  6  0  0  0
  6 26  1  0  0  0  0
  8  2  1  0  0  0  0
 10  3  1  0  0  0  0
 11  3  1  0  0  0  0
 13  4  1  0  0  0  0
 17  1  1  0  0  0  0
 17 18  1  0  0  0  0
 18 23  1  0  0  0  0
 19 18  2  0  0  0  0
 19 24  1  0  0  0  0
 20 19  1  0  0  0  0
 21 22  1  0  0  0  0
 21 20  2  0  0  0  0
 22 17  2  0  0  0  0
 25 21  1  0  0  0  0
 26 28  1  0  0  0  0
 26 27  1  0  0  0  0
 26 29  1  1  0  0  0
 27 31  1  0  0  0  0
 28 32  1  6  0  0  0
 28 27  1  0  0  0  0
 28 33  1  0  0  0  0
 30 27  1  0  0  0  0
 33 35  1  0  0  0  0
 33 36  1  0  0  0  0
 34 33  1  0  0  0  0
 36 38  1  0  0  0  0
 37 36  1  0  0  0  0
 39 49  1  0  0  0  0
 39 36  1  0  0  0  0
 40 39  2  0  0  0  0
 41 40  1  0  0  0  0
 42 43  2  0  0  0  0
 42 40  1  0  0  0  0
 43 44  1  0  0  0  0
 44 45  2  0  0  0  0
 44 49  1  0  0  0  0
 45 46  1  0  0  0  0
 46 47  2  0  0  0  0
 48 47  1  0  0  0  0
 49 48  2  0  0  0  0
M  END
>  <minimizedAffinity>
-6.24679852

$$$$

 OpenBabel03242512033D

 49 53  0  0  1  0  0  0  0  0999 V2000
   37.9820   30.9520   40.1500 C   0  0  2  0  0  0  0  0  0  0  0  0
   36.9180   31.9860   39.9440 C   0  0  0  0  0  0  0  0  0  0  0  0
   37.4710   33.2760   39.4700 C   0  0  0  0  0  0  0  0  0  0  0  0
   38.5300   33.8180   40.3980 C   0  0  0  0  0  0  0  0  0  0  0  0
   39.4920   32.7770   40.8930 C   0  0  0  0  0  0  0  0  0  0  0  0
   39.3730   31.4620   40.1680 C   0  0  1  0  0  0  0  0  0  0  0  0
   37.7610   30.5090   41.1690 H   0  0  0  0  0  0  0  0  0  0  0  0
   36.2370   31.5950   39.1470 H   0  0  0  0  0  0  0  0  0  0  0  0
   36.2670   32.1310   40.8300 H   0  0  0  0  0  0  0  0  0  0  0  0
   37.8170   33.2360   38.4200 H   0  0  0  0  0  0  0  0  0  0  0  0
   36.6460   34.0250   39.4780 H   0  0  0  0  0  0  0  0  0  0  0  0
   38.0480   34.2810   41.2980 H   0  0  0  0  0  0  0  0  0  0  0  0
   39.0160   34.6600   39.8560 H   0  0  0  0  0  0  0  0  0  0  0  0
   40.5060   33.1750   40.6820 H   0  0  0  0  0  0  0  0  0  0  0  0
   39.4570   32.6420   41.9930 H   0  0  0  0  0  0  0  0  0  0  0  0
   39.8660   31.6130   39.1980 H   0  0  0  0  0  0  0  0  0  0  0  0
   37.8590   29.8140   39.2160 C   0  0  0  0  0  0  0  0  0  0  0  0
   37.2240   28.7180   39.7770 C   0  0  0  0  0  0  0  0  0  0  0  0
   37.0280   27.5600   39.0050 C   0  0  0  0  0  0  0  0  0  0  0  0
   37.5110   27.6210   37.6930 N   0  0  0  0  0  0  0  0  0  0  0  0
   38.1230   28.7090   37.1970 C   0  0  0  0  0  0  0  0  0  0  0  0
   38.2900   29.7990   37.9720 N   0  0  0  0  0  0  0  0  0  0  0  0
   36.7990   28.4680   40.7370 H   0  0  0  0  0  0  0  0  0  0  0  0
   36.5720   26.6330   39.2400 H   0  0  0  0  0  0  0  0  0  0  0  0
   38.4810   28.7280   36.1920 H   0  0  0  0  0  0  0  0  0  0  0  0
   40.2210   30.4520   40.9060 C   0  0  2  0  0  0  0  0  0  0  0  0
   41.7240   30.5540   40.7350 C   0  0  0  0  0  0  0  0  0  0  0  0
   40.9890   29.4280   40.1470 C   0  0  1  0  0  0  0  0  0  0  0  0
   39.9230   30.2730   41.9610 H   0  0  0  0  0  0  0  0  0  0  0  0
   42.1340   31.3040   40.0050 H   0  0  0  0  0  0  0  0  0  0  0  0
   42.4050   30.3290   41.5650 H   0  0  0  0  0  0  0  0  0  0  0  0
   40.7950   29.4350   39.0420 H   0  0  0  0  0  0  0  0  0  0  0  0
   40.8950   28.0520   40.7470 C   0  0  0  0  0  0  0  0  0  0  0  0
   40.0830   27.5110   40.2350 H   0  0  0  0  0  0  0  0  0  0  0  0
   41.8350   27.4960   40.4730 H   0  0  0  0  0  0  0  0  0  0  0  0
   40.7230   28.0430   42.2260 C   0  0  0  0  0  0  0  0  0  0  0  0
   40.9140   29.0790   42.6110 H   0  0  0  0  0  0  0  0  0  0  0  0
   41.4620   27.3760   42.6870 H   0  0  0  0  0  0  0  0  0  0  0  0
   39.3220   27.7000   42.5770 C   0  0  0  0  0  0  0  0  0  0  0  0
   38.5150   28.6310   43.2200 C   0  0  0  0  0  0  0  0  0  0  0  0
   38.8690   29.6050   43.5040 H   0  0  0  0  0  0  0  0  0  0  0  0
   37.1870   28.3820   43.5480 C   0  0  0  0  0  3  0  0  0  0  0  0
   36.6490   27.1690   43.2250 C   0  0  0  0  0  3  0  0  0  0  0  0
   37.4040   26.1970   42.5830 C   0  0  0  0  0  0  0  0  0  0  0  0
   36.8390   24.9790   42.2780 C   0  0  0  0  0  3  0  0  0  0  0  0
   37.6010   24.0260   41.6540 C   0  0  0  0  0  3  0  0  0  0  0  0
   38.9200   24.2790   41.3330 C   0  0  0  0  0  3  0  0  0  0  0  0
   39.4290   25.5270   41.6670 C   0  0  0  0  0  3  0  0  0  0  0  0
   38.6990   26.5080   42.2910 C   0  0  0  0  0  0  0  0  0  0  0  0
  1  6  1  0  0  0  0
  1  7  1  1  0  0  0
  2  1  1  0  0  0  0
  2  9  1  0  0  0  0
  3 11  1  0  0  0  0
  3  2  1  0  0  0  0
  3  4  1  0  0  0  0
  4  5  1  0  0  0  0
  4 12  1  0  0  0  0
  5 15  1  0  0  0  0
  6 16  1  6  0  0  0
  6  5  1  0  0  0  0
  6 26  1  0  0  0  0
  8  2  1  0  0  0  0
 10  3  1  0  0  0  0
 13  4  1  0  0  0  0
 14  5  1  0  0  0  0
 17 18  1  0  0  0  0
 17  1  1  0  0  0  0
 18 23  1  0  0  0  0
 19 24  1  0  0  0  0
 19 18  2  0  0  0  0
 20 19  1  0  0  0  0
 21 20  2  0  0  0  0
 21 22  1  0  0  0  0
 22 17  2  0  0  0  0
 25 21  1  0  0  0  0
 26 29  1  1  0  0  0
 27 26  1  0  0  0  0
 27 31  1  0  0  0  0
 28 32  1  6  0  0  0
 28 27  1  0  0  0  0
 28 33  1  0  0  0  0
 28 26  1  0  0  0  0
 30 27  1  0  0  0  0
 33 36  1  0  0  0  0
 34 33  1  0  0  0  0
 35 33  1  0  0  0  0
 36 39  1  0  0  0  0
 36 37  1  0  0  0  0
 36 38  1  0  0  0  0
 39 40  1  0  0  0  0
 40 41  1  0  0  0  0
 40 42  2  0  0  0  0
 43 42  1  0  0  0  0
 44 43  2  0  0  0  0
 45 44  1  0  0  0  0
 46 45  2  0  0  0  0
 47 46  1  0  0  0  0
 47 48  2  0  0  0  0
 48 49  1  0  0  0  0
 49 39  2  0  0  0  0
 49 44  1  0  0  0  0
M  END
>  <minimizedAffinity>
-6.13405132

$$$$

 OpenBabel03242512033D

 49 53  0  0  1  0  0  0  0  0999 V2000
   36.2090   28.6980   37.8120 C   0  0  2  0  0  0  0  0  0  0  0  0
   35.4050   29.2880   36.6940 C   0  0  0  0  0  0  0  0  0  0  0  0
   33.9890   28.8540   36.7300 C   0  0  0  0  0  0  0  0  0  0  0  0
   33.8520   27.3520   36.7130 C   0  0  0  0  0  0  0  0  0  0  0  0
   34.8290   26.6440   37.6050 C   0  0  0  0  0  0  0  0  0  0  0  0
   35.5710   27.5720   38.5330 C   0  0  1  0  0  0  0  0  0  0  0  0
   37.1490   28.3040   37.3160 H   0  0  0  0  0  0  0  0  0  0  0  0
   35.4240   30.3980   36.8340 H   0  0  0  0  0  0  0  0  0  0  0  0
   35.8510   29.1180   35.6940 H   0  0  0  0  0  0  0  0  0  0  0  0
   33.4180   29.3160   37.5580 H   0  0  0  0  0  0  0  0  0  0  0  0
   33.4980   29.2160   35.7980 H   0  0  0  0  0  0  0  0  0  0  0  0
   34.0130   26.9670   35.6720 H   0  0  0  0  0  0  0  0  0  0  0  0
   32.7860   27.1350   36.9480 H   0  0  0  0  0  0  0  0  0  0  0  0
   34.2240   25.9630   38.2390 H   0  0  0  0  0  0  0  0  0  0  0  0
   35.5240   25.9810   37.0500 H   0  0  0  0  0  0  0  0  0  0  0  0
   34.8580   27.8250   39.3310 H   0  0  0  0  0  0  0  0  0  0  0  0
   36.6930   29.7160   38.7670 C   0  0  0  0  0  0  0  0  0  0  0  0
   35.8500   29.8860   39.8520 C   0  0  0  0  0  0  0  0  0  0  0  0
   36.1840   30.8180   40.8500 C   0  0  0  0  0  0  0  0  0  0  0  0
   37.3800   31.5150   40.6480 N   0  0  0  0  0  0  0  0  0  0  0  0
   38.1630   31.3140   39.5750 C   0  0  0  0  0  0  0  0  0  0  0  0
   37.8050   30.4100   38.6420 N   0  0  0  0  0  0  0  0  0  0  0  0
   34.9100   29.4730   40.1830 H   0  0  0  0  0  0  0  0  0  0  0  0
   35.6860   31.0930   41.7440 H   0  0  0  0  0  0  0  0  0  0  0  0
   39.0710   31.8610   39.4470 H   0  0  0  0  0  0  0  0  0  0  0  0
   36.6670   26.7750   39.2010 C   0  0  2  0  0  0  0  0  0  0  0  0
   37.5470   25.9230   38.3070 C   0  0  0  0  0  0  0  0  0  0  0  0
   36.5970   25.2880   39.2280 C   0  0  1  0  0  0  0  0  0  0  0  0
   37.2480   27.3310   39.9670 H   0  0  0  0  0  0  0  0  0  0  0  0
   37.2930   25.8470   37.2140 H   0  0  0  0  0  0  0  0  0  0  0  0
   38.6150   25.7940   38.5210 H   0  0  0  0  0  0  0  0  0  0  0  0
   35.6470   24.8660   38.8080 H   0  0  0  0  0  0  0  0  0  0  0  0
   36.9540   24.7040   40.5670 C   0  0  0  0  0  0  0  0  0  0  0  0
   36.1000   24.8580   41.2450 H   0  0  0  0  0  0  0  0  0  0  0  0
   37.0290   23.5870   40.4420 H   0  0  0  0  0  0  0  0  0  0  0  0
   38.2240   25.2270   41.1420 C   0  0  0  0  0  0  0  0  0  0  0  0
   38.8780   25.5720   40.2980 H   0  0  0  0  0  0  0  0  0  0  0  0
   38.7560   24.4270   41.6690 H   0  0  0  0  0  0  0  0  0  0  0  0
   37.9500   26.4120   41.9930 C   0  0  0  0  0  0  0  0  0  0  0  0
   36.8390   26.4320   42.8280 C   0  0  0  0  0  0  0  0  0  0  0  0
   36.1370   25.6200   42.8750 H   0  0  0  0  0  0  0  0  0  0  0  0
   36.5450   27.4980   43.6700 C   0  0  0  0  0  3  0  0  0  0  0  0
   37.3840   28.5760   43.6800 C   0  0  0  0  0  3  0  0  0  0  0  0
   38.5090   28.6170   42.8670 C   0  0  0  0  0  0  0  0  0  0  0  0
   39.3320   29.7210   42.8890 C   0  0  0  0  0  3  0  0  0  0  0  0
   40.4320   29.7500   42.0740 C   0  0  0  0  0  3  0  0  0  0  0  0
   40.7180   28.6890   41.2380 C   0  0  0  0  0  3  0  0  0  0  0  0
   39.8490   27.6060   41.2640 C   0  0  0  0  0  3  0  0  0  0  0  0
   38.7380   27.5380   42.0660 C   0  0  0  0  0  0  0  0  0  0  0  0
  1  7  1  6  0  0  0
  1  6  1  0  0  0  0
  1 17  1  0  0  0  0
  2  3  1  0  0  0  0
  2  8  1  0  0  0  0
  2  1  1  0  0  0  0
  3 10  1  0  0  0  0
  4  3  1  0  0  0  0
  4 13  1  0  0  0  0
  4  5  1  0  0  0  0
  5 14  1  0  0  0  0
  5  6  1  0  0  0  0
  6 26  1  0  0  0  0
  6 16  1  1  0  0  0
  9  2  1  0  0  0  0
 11  3  1  0  0  0  0
 12  4  1  0  0  0  0
 15  5  1  0  0  0  0
 17 18  1  0  0  0  0
 18 23  1  0  0  0  0
 18 19  2  0  0  0  0
 19 24  1  0  0  0  0
 20 19  1  0  0  0  0
 21 20  2  0  0  0  0
 22 17  2  0  0  0  0
 22 21  1  0  0  0  0
 25 21  1  0  0  0  0
 26 28  1  0  0  0  0
 26 29  1  1  0  0  0
 27 31  1  0  0  0  0
 27 26  1  0  0  0  0
 27 28  1  0  0  0  0
 28 32  1  6  0  0  0
 28 33  1  0  0  0  0
 30 27  1  0  0  0  0
 33 36  1  0  0  0  0
 33 34  1  0  0  0  0
 35 33  1  0  0  0  0
 36 38  1  0  0  0  0
 36 39  1  0  0  0  0
 37 36  1  0  0  0  0
 39 49  2  0  0  0  0
 39 40  1  0  0  0  0
 40 41  1  0  0  0  0
 40 42  2  0  0  0  0
 42 43  1  0  0  0  0
 44 45  1  0  0  0  0
 44 43  2  0  0  0  0
 46 45  2  0  0  0  0
 47 48  2  0  0  0  0
 47 46  1  0  0  0  0
 48 49  1  0  0  0  0
 49 44  1  0  0  0  0
M  END
>  <minimizedAffinity>
-6.08956575

$$$$

 OpenBabel03242512033D

 49 53  0  0  1  0  0  0  0  0999 V2000
   39.7630   26.2960   41.4150 C   0  0  2  0  0  0  0  0  0  0  0  0
   41.0390   25.5120   41.4320 C   0  0  0  0  0  0  0  0  0  0  0  0
   41.4720   25.1710   42.8070 C   0  0  0  0  0  0  0  0  0  0  0  0
   41.6170   26.3940   43.6790 C   0  0  0  0  0  0  0  0  0  0  0  0
   40.5060   27.3890   43.5150 C   0  0  0  0  0  0  0  0  0  0  0  0
   39.3420   26.8610   42.7180 C   0  0  1  0  0  0  0  0  0  0  0  0
   39.9630   27.1600   40.7100 H   0  0  0  0  0  0  0  0  0  0  0  0
   40.8380   24.5530   40.8920 H   0  0  0  0  0  0  0  0  0  0  0  0
   41.8600   25.9940   40.8630 H   0  0  0  0  0  0  0  0  0  0  0  0
   40.8380   24.3960   43.2770 H   0  0  0  0  0  0  0  0  0  0  0  0
   42.4880   24.7190   42.7430 H   0  0  0  0  0  0  0  0  0  0  0  0
   42.5760   26.9220   43.4380 H   0  0  0  0  0  0  0  0  0  0  0  0
   41.7380   26.0190   44.7210 H   0  0  0  0  0  0  0  0  0  0  0  0
   40.1320   27.5990   44.5390 H   0  0  0  0  0  0  0  0  0  0  0  0
   40.8540   28.3690   43.1290 H   0  0  0  0  0  0  0  0  0  0  0  0
   38.7930   26.1960   43.4010 H   0  0  0  0  0  0  0  0  0  0  0  0
   38.6480   25.5560   40.7870 C   0  0  0  0  0  0  0  0  0  0  0  0
   38.2310   24.4670   41.5330 C   0  0  0  0  0  0  0  0  0  0  0  0
   37.1710   23.6710   41.0660 C   0  0  0  0  0  0  0  0  0  0  0  0
   36.6150   24.0640   39.8430 N   0  0  0  0  0  0  0  0  0  0  0  0
   37.0580   25.1300   39.1560 C   0  0  0  0  0  0  0  0  0  0  0  0
   38.0770   25.8670   39.6420 N   0  0  0  0  0  0  0  0  0  0  0  0
   38.5190   24.0000   42.4620 H   0  0  0  0  0  0  0  0  0  0  0  0
   36.7080   22.8120   41.4780 H   0  0  0  0  0  0  0  0  0  0  0  0
   36.6150   25.4070   38.2260 H   0  0  0  0  0  0  0  0  0  0  0  0
   38.4130   28.0180   42.4380 C   0  0  2  0  0  0  0  0  0  0  0  0
   37.6080   28.5580   43.6040 C   0  0  0  0  0  0  0  0  0  0  0  0
   36.9390   27.8270   42.5210 C   0  0  1  0  0  0  0  0  0  0  0  0
   38.8470   28.8240   41.8090 H   0  0  0  0  0  0  0  0  0  0  0  0
   37.6640   28.0240   44.5910 H   0  0  0  0  0  0  0  0  0  0  0  0
   37.3910   29.6300   43.6940 H   0  0  0  0  0  0  0  0  0  0  0  0
   36.6240   26.7670   42.7070 H   0  0  0  0  0  0  0  0  0  0  0  0
   36.1940   28.4670   41.3810 C   0  0  0  0  0  0  0  0  0  0  0  0
   36.5220   27.9840   40.4460 H   0  0  0  0  0  0  0  0  0  0  0  0
   35.1080   28.1900   41.4870 H   0  0  0  0  0  0  0  0  0  0  0  0
   36.3290   29.9480   41.3190 C   0  0  0  0  0  0  0  0  0  0  0  0
   37.0390   30.2720   42.1250 H   0  0  0  0  0  0  0  0  0  0  0  0
   35.3600   30.4220   41.5200 H   0  0  0  0  0  0  0  0  0  0  0  0
   36.9270   30.3540   40.0240 C   0  0  0  0  0  0  0  0  0  0  0  0
   36.3110   30.0010   38.8280 C   0  0  0  0  0  0  0  0  0  0  0  0
   35.4120   29.4150   38.7920 H   0  0  0  0  0  0  0  0  0  0  0  0
   36.8050   30.3770   37.5840 C   0  0  0  0  0  3  0  0  0  0  0  0
   37.9460   31.1270   37.5310 C   0  0  0  0  0  3  0  0  0  0  0  0
   38.6080   31.5100   38.6900 C   0  0  0  0  0  0  0  0  0  0  0  0
   39.7610   32.2570   38.6060 C   0  0  0  0  0  3  0  0  0  0  0  0
   40.4080   32.6180   39.7590 C   0  0  0  0  0  3  0  0  0  0  0  0
   39.9150   32.2400   40.9920 C   0  0  0  0  0  3  0  0  0  0  0  0
   38.7470   31.4880   41.0060 C   0  0  0  0  0  3  0  0  0  0  0  0
   38.0690   31.1070   39.8760 C   0  0  0  0  0  0  0  0  0  0  0  0
  1  7  1  6  0  0  0
  1  2  1  0  0  0  0
  1  6  1  0  0  0  0
  2  3  1  0  0  0  0
  3 10  1  0  0  0  0
  3  4  1  0  0  0  0
  4 13  1  0  0  0  0
  5  4  1  0  0  0  0
  5 14  1  0  0  0  0
  6 16  1  1  0  0  0
  6  5  1  0  0  0  0
  8  2  1  0  0  0  0
  9  2  1  0  0  0  0
 11  3  1  0  0  0  0
 12  4  1  0  0  0  0
 15  5  1  0  0  0  0
 17  1  1  0  0  0  0
 17 18  1  0  0  0  0
 18 23  1  0  0  0  0
 19 24  1  0  0  0  0
 19 18  2  0  0  0  0
 20 19  1  0  0  0  0
 21 22  1  0  0  0  0
 21 20  2  0  0  0  0
 22 17  2  0  0  0  0
 25 21  1  0  0  0  0
 26 29  1  6  0  0  0
 26 28  1  0  0  0  0
 26  6  1  0  0  0  0
 26 27  1  0  0  0  0
 27 31  1  0  0  0  0
 27 30  1  0  0  0  0
 28 32  1  1  0  0  0
 28 27  1  0  0  0  0
 33 35  1  0  0  0  0
 33 28  1  0  0  0  0
 34 33  1  0  0  0  0
 36 33  1  0  0  0  0
 36 38  1  0  0  0  0
 36 37  1  0  0  0  0
 39 36  1  0  0  0  0
 40 39  2  0  0  0  0
 41 40  1  0  0  0  0
 42 40  1  0  0  0  0
 43 42  2  0  0  0  0
 43 44  1  0  0  0  0
 44 49  1  0  0  0  0
 45 44  2  0  0  0  0
 45 46  1  0  0  0  0
 46 47  2  0  0  0  0
 47 48  1  0  0  0  0
 49 39  1  0  0  0  0
 49 48  2  0  0  0  0
M  END
>  <minimizedAffinity>
-6.03550005

$$$$

 OpenBabel03242512033D

 49 53  0  0  1  0  0  0  0  0999 V2000
   40.2260   32.5340   40.1950 C   0  0  2  0  0  0  0  0  0  0  0  0
   40.4700   33.8720   39.5670 C   0  0  0  0  0  0  0  0  0  0  0  0
   41.6790   33.8800   38.7100 C   0  0  0  0  0  0  0  0  0  0  0  0
   42.9120   33.4410   39.4600 C   0  0  0  0  0  0  0  0  0  0  0  0
   42.6880   32.2560   40.3530 C   0  0  0  0  0  0  0  0  0  0  0  0
   41.3600   31.5820   40.1290 C   0  0  1  0  0  0  0  0  0  0  0  0
   40.0250   32.7590   41.2870 H   0  0  0  0  0  0  0  0  0  0  0  0
   39.5890   34.0880   38.9120 H   0  0  0  0  0  0  0  0  0  0  0  0
   40.4940   34.7050   40.2990 H   0  0  0  0  0  0  0  0  0  0  0  0
   41.5410   33.3180   37.7670 H   0  0  0  0  0  0  0  0  0  0  0  0
   41.8690   34.9320   38.3980 H   0  0  0  0  0  0  0  0  0  0  0  0
   43.2840   34.2790   40.1050 H   0  0  0  0  0  0  0  0  0  0  0  0
   43.7030   33.2850   38.6920 H   0  0  0  0  0  0  0  0  0  0  0  0
   43.4760   31.5210   40.0870 H   0  0  0  0  0  0  0  0  0  0  0  0
   42.8550   32.4830   41.4260 H   0  0  0  0  0  0  0  0  0  0  0  0
   41.4750   31.0000   39.2040 H   0  0  0  0  0  0  0  0  0  0  0  0
   38.9840   31.8960   39.7130 C   0  0  0  0  0  0  0  0  0  0  0  0
   37.9640   31.9210   40.6480 C   0  0  0  0  0  0  0  0  0  0  0  0
   36.7160   31.3560   40.3300 C   0  0  0  0  0  0  0  0  0  0  0  0
   36.6170   30.7980   39.0500 N   0  0  0  0  0  0  0  0  0  0  0  0
   37.6390   30.7980   38.1790 C   0  0  0  0  0  0  0  0  0  0  0  0
   38.8190   31.3510   38.5260 N   0  0  0  0  0  0  0  0  0  0  0  0
   37.8380   32.2790   41.6580 H   0  0  0  0  0  0  0  0  0  0  0  0
   35.8220   31.2750   40.8910 H   0  0  0  0  0  0  0  0  0  0  0  0
   37.5350   30.3650   37.2090 H   0  0  0  0  0  0  0  0  0  0  0  0
   41.1680   30.5660   41.2300 C   0  0  2  0  0  0  0  0  0  0  0  0
   41.3520   31.0460   42.6570 C   0  0  0  0  0  0  0  0  0  0  0  0
   42.3290   30.1310   42.0540 C   0  0  1  0  0  0  0  0  0  0  0  0
   40.2780   29.9110   41.1130 H   0  0  0  0  0  0  0  0  0  0  0  0
   41.7110   32.0980   42.8290 H   0  0  0  0  0  0  0  0  0  0  0  0
   40.7330   30.6530   43.4720 H   0  0  0  0  0  0  0  0  0  0  0  0
   43.3130   30.5480   41.7150 H   0  0  0  0  0  0  0  0  0  0  0  0
   42.3710   28.6450   42.2810 C   0  0  0  0  0  0  0  0  0  0  0  0
   41.9840   28.1510   41.3750 H   0  0  0  0  0  0  0  0  0  0  0  0
   43.4540   28.3400   42.3400 H   0  0  0  0  0  0  0  0  0  0  0  0
   41.6580   28.1940   43.5080 C   0  0  0  0  0  0  0  0  0  0  0  0
   41.0560   29.0550   43.9030 H   0  0  0  0  0  0  0  0  0  0  0  0
   42.3830   27.9130   44.2820 H   0  0  0  0  0  0  0  0  0  0  0  0
   40.7010   27.1100   43.1750 C   0  0  0  0  0  0  0  0  0  0  0  0
   41.1510   25.8050   43.0160 C   0  0  0  0  0  0  0  0  0  0  0  0
   42.1880   25.5360   43.1020 H   0  0  0  0  0  0  0  0  0  0  0  0
   40.3020   24.7410   42.7340 C   0  0  0  0  0  3  0  0  0  0  0  0
   38.9640   24.9870   42.6080 C   0  0  0  0  0  3  0  0  0  0  0  0
   38.4530   26.2700   42.7540 C   0  0  0  0  0  0  0  0  0  0  0  0
   37.1010   26.4900   42.6110 C   0  0  0  0  0  3  0  0  0  0  0  0
   36.6140   27.7640   42.7480 C   0  0  0  0  0  3  0  0  0  0  0  0
   37.4630   28.8160   43.0260 C   0  0  0  0  0  3  0  0  0  0  0  0
   38.8150   28.5260   43.1590 C   0  0  0  0  0  3  0  0  0  0  0  0
   39.3420   27.2660   43.0300 C   0  0  0  0  0  0  0  0  0  0  0  0
  1  7  1  1  0  0  0
  2  1  1  0  0  0  0
  2  9  1  0  0  0  0
  3  4  1  0  0  0  0
  3  2  1  0  0  0  0
  4 12  1  0  0  0  0
  4  5  1  0  0  0  0
  5 15  1  0  0  0  0
  6 16  1  6  0  0  0
  6  1  1  0  0  0  0
  6  5  1  0  0  0  0
  6 26  1  0  0  0  0
  8  2  1  0  0  0  0
 10  3  1  0  0  0  0
 11  3  1  0  0  0  0
 13  4  1  0  0  0  0
 14  5  1  0  0  0  0
 17  1  1  0  0  0  0
 17 18  1  0  0  0  0
 18 23  1  0  0  0  0
 19 18  2  0  0  0  0
 19 24  1  0  0  0  0
 20 19  1  0  0  0  0
 21 22  1  0  0  0  0
 21 20  2  0  0  0  0
 22 17  2  0  0  0  0
 25 21  1  0  0  0  0
 26 29  1  6  0  0  0
 26 28  1  0  0  0  0
 26 27  1  0  0  0  0
 27 30  1  0  0  0  0
 27 31  1  0  0  0  0
 28 32  1  6  0  0  0
 28 33  1  0  0  0  0
 28 27  1  0  0  0  0
 33 35  1  0  0  0  0
 33 36  1  0  0  0  0
 34 33  1  0  0  0  0
 36 37  1  0  0  0  0
 36 38  1  0  0  0  0
 39 36  1  0  0  0  0
 40 41  1  0  0  0  0
 40 39  2  0  0  0  0
 42 40  1  0  0  0  0
 43 42  2  0  0  0  0
 43 44  1  0  0  0  0
 44 49  1  0  0  0  0
 45 46  1  0  0  0  0
 45 44  2  0  0  0  0
 46 47  2  0  0  0  0
 47 48  1  0  0  0  0
 49 48  2  0  0  0  0
 49 39  1  0  0  0  0
M  END
>  <minimizedAffinity>
-5.97212029

$$$$

 OpenBabel03242512033D

 49 53  0  0  1  0  0  0  0  0999 V2000
   37.9500   29.9330   38.6280 C   0  0  2  0  0  0  0  0  0  0  0  0
   36.5180   30.3400   38.4610 C   0  0  0  0  0  0  0  0  0  0  0  0
   35.6220   29.6460   39.4150 C   0  0  0  0  0  0  0  0  0  0  0  0
   35.7360   28.1450   39.3170 C   0  0  0  0  0  0  0  0  0  0  0  0
   37.1470   27.6520   39.1890 C   0  0  0  0  0  0  0  0  0  0  0  0
   38.1780   28.7200   39.4470 C   0  0  1  0  0  0  0  0  0  0  0  0
   38.3130   29.7160   37.5770 H   0  0  0  0  0  0  0  0  0  0  0  0
   36.4650   31.4360   38.6820 H   0  0  0  0  0  0  0  0  0  0  0  0
   36.1490   30.2390   37.4210 H   0  0  0  0  0  0  0  0  0  0  0  0
   35.7380   30.0060   40.4550 H   0  0  0  0  0  0  0  0  0  0  0  0
   34.5710   29.8920   39.1370 H   0  0  0  0  0  0  0  0  0  0  0  0
   35.1720   27.7790   38.4190 H   0  0  0  0  0  0  0  0  0  0  0  0
   35.1910   27.7340   40.1960 H   0  0  0  0  0  0  0  0  0  0  0  0
   37.2720   26.8810   39.9770 H   0  0  0  0  0  0  0  0  0  0  0  0
   37.3380   27.1230   38.2330 H   0  0  0  0  0  0  0  0  0  0  0  0
   38.2060   28.8480   40.5380 H   0  0  0  0  0  0  0  0  0  0  0  0
   38.8080   31.0420   39.0940 C   0  0  0  0  0  0  0  0  0  0  0  0
   38.6860   31.2880   40.4510 C   0  0  0  0  0  0  0  0  0  0  0  0
   39.4480   32.3110   41.0420 C   0  0  0  0  0  0  0  0  0  0  0  0
   40.2900   33.0150   40.1730 N   0  0  0  0  0  0  0  0  0  0  0  0
   40.3690   32.7380   38.8600 C   0  0  0  0  0  0  0  0  0  0  0  0
   39.6210   31.7470   38.3350 N   0  0  0  0  0  0  0  0  0  0  0  0
   38.1110   30.8850   41.2700 H   0  0  0  0  0  0  0  0  0  0  0  0
   39.5030   32.6520   42.0430 H   0  0  0  0  0  0  0  0  0  0  0  0
   41.0200   33.2910   38.2210 H   0  0  0  0  0  0  0  0  0  0  0  0
   39.5280   28.1580   39.0660 C   0  0  2  0  0  0  0  0  0  0  0  0
   39.6250   27.4260   37.7420 C   0  0  0  0  0  0  0  0  0  0  0  0
   39.7310   26.6850   39.0040 C   0  0  1  0  0  0  0  0  0  0  0  0
   40.3850   28.8430   39.2390 H   0  0  0  0  0  0  0  0  0  0  0  0
   38.6840   27.2520   37.1510 H   0  0  0  0  0  0  0  0  0  0  0  0
   40.5280   27.4930   37.1220 H   0  0  0  0  0  0  0  0  0  0  0  0
   38.8480   26.0850   39.3480 H   0  0  0  0  0  0  0  0  0  0  0  0
   41.0210   26.2380   39.6350 C   0  0  0  0  0  0  0  0  0  0  0  0
   41.3970   25.3720   39.0670 H   0  0  0  0  0  0  0  0  0  0  0  0
   41.7820   27.0510   39.4660 H   0  0  0  0  0  0  0  0  0  0  0  0
   40.9180   25.9460   41.0910 C   0  0  0  0  0  0  0  0  0  0  0  0
   41.2110   26.8690   41.6590 H   0  0  0  0  0  0  0  0  0  0  0  0
   41.6220   25.1510   41.3660 H   0  0  0  0  0  0  0  0  0  0  0  0
   39.5130   25.6390   41.4540 C   0  0  0  0  0  0  0  0  0  0  0  0
   38.9410   24.4300   41.0760 C   0  0  0  0  0  0  0  0  0  0  0  0
   39.4720   23.6940   40.5010 H   0  0  0  0  0  0  0  0  0  0  0  0
   37.6400   24.0710   41.4110 C   0  0  0  0  0  3  0  0  0  0  0  0
   36.8880   24.9450   42.1440 C   0  0  0  0  0  3  0  0  0  0  0  0
   37.4010   26.1690   42.5500 C   0  0  0  0  0  0  0  0  0  0  0  0
   36.6170   27.0350   43.2790 C   0  0  0  0  0  3  0  0  0  0  0  0
   37.1360   28.2430   43.6630 C   0  0  0  0  0  3  0  0  0  0  0  0
   38.4270   28.5950   43.3260 C   0  0  0  0  0  3  0  0  0  0  0  0
   39.1650   27.6770   42.5910 C   0  0  0  0  0  3  0  0  0  0  0  0
   38.6840   26.4570   42.1870 C   0  0  0  0  0  0  0  0  0  0  0  0
  1  7  1  6  0  0  0
  1 17  1  0  0  0  0
  1  6  1  0  0  0  0
  2  1  1  0  0  0  0
  2  8  1  0  0  0  0
  2  3  1  0  0  0  0
  3 10  1  0  0  0  0
  4  3  1  0  0  0  0
  4 13  1  0  0  0  0
  5  4  1  0  0  0  0
  5  6  1  0  0  0  0
  5 14  1  0  0  0  0
  6 16  1  1  0  0  0
  9  2  1  0  0  0  0
 11  3  1  0  0  0  0
 12  4  1  0  0  0  0
 15  5  1  0  0  0  0
 17 18  1  0  0  0  0
 18 19  2  0  0  0  0
 18 23  1  0  0  0  0
 19 24  1  0  0  0  0
 20 19  1  0  0  0  0
 21 20  2  0  0  0  0
 22 21  1  0  0  0  0
 22 17  2  0  0  0  0
 25 21  1  0  0  0  0
 26 29  1  1  0  0  0
 26  6  1  0  0  0  0
 27 28  1  0  0  0  0
 27 26  1  0  0  0  0
 28 26  1  0  0  0  0
 28 32  1  1  0  0  0
 28 33  1  0  0  0  0
 30 27  1  0  0  0  0
 31 27  1  0  0  0  0
 33 36  1  0  0  0  0
 34 33  1  0  0  0  0
 35 33  1  0  0  0  0
 36 38  1  0  0  0  0
 36 39  1  0  0  0  0
 36 37  1  0  0  0  0
 39 49  1  0  0  0  0
 40 42  1  0  0  0  0
 40 39  2  0  0  0  0
 41 40  1  0  0  0  0
 42 43  2  0  0  0  0
 43 44  1  0  0  0  0
 44 45  1  0  0  0  0
 45 46  2  0  0  0  0
 47 46  1  0  0  0  0
 48 47  2  0  0  0  0
 49 44  2  0  0  0  0
 49 48  1  0  0  0  0
M  END
>  <minimizedAffinity>
-5.93169117

$$$$

 OpenBabel03242512033D

 49 53  0  0  1  0  0  0  0  0999 V2000
   39.5470   29.0620   38.9860 C   0  0  2  0  0  0  0  0  0  0  0  0
   40.9210   28.5540   38.6760 C   0  0  0  0  0  0  0  0  0  0  0  0
   41.1490   28.4020   37.2200 C   0  0  0  0  0  0  0  0  0  0  0  0
   40.1210   27.5100   36.5710 C   0  0  0  0  0  0  0  0  0  0  0  0
   38.7180   27.7590   37.0430 C   0  0  0  0  0  0  0  0  0  0  0  0
   38.5790   29.0130   37.8650 C   0  0  1  0  0  0  0  0  0  0  0  0
   39.1630   28.3800   39.8050 H   0  0  0  0  0  0  0  0  0  0  0  0
   41.6430   29.3200   39.0540 H   0  0  0  0  0  0  0  0  0  0  0  0
   41.1800   27.6230   39.2200 H   0  0  0  0  0  0  0  0  0  0  0  0
   41.2500   29.3720   36.6970 H   0  0  0  0  0  0  0  0  0  0  0  0
   42.1290   27.8920   37.0790 H   0  0  0  0  0  0  0  0  0  0  0  0
   40.3590   26.4350   36.7860 H   0  0  0  0  0  0  0  0  0  0  0  0
   40.2560   27.6280   35.4720 H   0  0  0  0  0  0  0  0  0  0  0  0
   38.1090   27.9000   36.1260 H   0  0  0  0  0  0  0  0  0  0  0  0
   38.2700   26.8830   37.5550 H   0  0  0  0  0  0  0  0  0  0  0  0
   38.6010   29.8430   37.1450 H   0  0  0  0  0  0  0  0  0  0  0  0
   39.5610   30.4060   39.6000 C   0  0  0  0  0  0  0  0  0  0  0  0
   39.6050   30.3710   40.9830 C   0  0  0  0  0  0  0  0  0  0  0  0
   39.6320   31.5750   41.7080 C   0  0  0  0  0  0  0  0  0  0  0  0
   39.6080   32.7430   40.9370 N   0  0  0  0  0  0  0  0  0  0  0  0
   39.5630   32.7230   39.5950 C   0  0  0  0  0  0  0  0  0  0  0  0
   39.5400   31.5450   38.9400 N   0  0  0  0  0  0  0  0  0  0  0  0
   39.6200   29.6070   41.7450 H   0  0  0  0  0  0  0  0  0  0  0  0
   39.6670   31.7620   42.7500 H   0  0  0  0  0  0  0  0  0  0  0  0
   39.5450   33.6300   39.0330 H   0  0  0  0  0  0  0  0  0  0  0  0
   37.1900   29.0230   38.4590 C   0  0  2  0  0  0  0  0  0  0  0  0
   36.1040   29.7270   37.6690 C   0  0  0  0  0  0  0  0  0  0  0  0
   36.5890   30.3000   38.9300 C   0  0  1  0  0  0  0  0  0  0  0  0
   36.8520   28.0490   38.8730 H   0  0  0  0  0  0  0  0  0  0  0  0
   36.3920   30.2860   36.7360 H   0  0  0  0  0  0  0  0  0  0  0  0
   35.0760   29.3460   37.6540 H   0  0  0  0  0  0  0  0  0  0  0  0
   37.2860   31.1780   38.8850 H   0  0  0  0  0  0  0  0  0  0  0  0
   35.8950   30.1740   40.2580 C   0  0  0  0  0  0  0  0  0  0  0  0
   36.5150   30.6770   41.0160 H   0  0  0  0  0  0  0  0  0  0  0  0
   34.9470   30.7800   40.2060 H   0  0  0  0  0  0  0  0  0  0  0  0
   35.5700   28.7730   40.6450 C   0  0  0  0  0  0  0  0  0  0  0  0
   35.6540   28.1260   39.7330 H   0  0  0  0  0  0  0  0  0  0  0  0
   34.5350   28.7120   41.0010 H   0  0  0  0  0  0  0  0  0  0  0  0
   36.5610   28.2700   41.6280 C   0  0  0  0  0  0  0  0  0  0  0  0
   36.9360   29.0600   42.7090 C   0  0  0  0  0  0  0  0  0  0  0  0
   36.5500   30.0500   42.8630 H   0  0  0  0  0  0  0  0  0  0  0  0
   37.8360   28.6350   43.6800 C   0  0  0  0  0  3  0  0  0  0  0  0
   38.3790   27.3850   43.5680 C   0  0  0  0  0  3  0  0  0  0  0  0
   38.0460   26.5510   42.5100 C   0  0  0  0  0  0  0  0  0  0  0  0
   38.6160   25.3000   42.4160 C   0  0  0  0  0  3  0  0  0  0  0  0
   38.2840   24.4930   41.3610 C   0  0  0  0  0  3  0  0  0  0  0  0
   37.3910   24.9210   40.3990 C   0  0  0  0  0  3  0  0  0  0  0  0
   36.8520   26.1920   40.5520 C   0  0  0  0  0  3  0  0  0  0  0  0
   37.1570   27.0310   41.5940 C   0  0  0  0  0  0  0  0  0  0  0  0
  1 17  1  0  0  0  0
  1  7  1  1  0  0  0
  2  1  1  0  0  0  0
  2  8  1  0  0  0  0
  2  9  1  0  0  0  0
  3  2  1  0  0  0  0
  4 12  1  0  0  0  0
  4  5  1  0  0  0  0
  4  3  1  0  0  0  0
  5 15  1  0  0  0  0
  5  6  1  0  0  0  0
  6 16  1  6  0  0  0
  6 26  1  0  0  0  0
  6  1  1  0  0  0  0
 10  3  1  0  0  0  0
 11  3  1  0  0  0  0
 13  4  1  0  0  0  0
 14  5  1  0  0  0  0
 17 18  1  0  0  0  0
 18 19  2  0  0  0  0
 18 23  1  0  0  0  0
 19 24  1  0  0  0  0
 20 19  1  0  0  0  0
 21 20  2  0  0  0  0
 22 21  1  0  0  0  0
 22 17  2  0  0  0  0
 25 21  1  0  0  0  0
 26 29  1  1  0  0  0
 26 28  1  0  0  0  0
 27 26  1  0  0  0  0
 27 28  1  0  0  0  0
 28 32  1  6  0  0  0
 28 33  1  0  0  0  0
 30 27  1  0  0  0  0
 31 27  1  0  0  0  0
 33 36  1  0  0  0  0
 33 34  1  0  0  0  0
 35 33  1  0  0  0  0
 36 38  1  0  0  0  0
 36 39  1  0  0  0  0
 37 36  1  0  0  0  0
 39 40  1  0  0  0  0
 40 41  1  0  0  0  0
 40 42  2  0  0  0  0
 43 42  1  0  0  0  0
 44 43  2  0  0  0  0
 45 44  1  0  0  0  0
 46 45  2  0  0  0  0
 47 48  2  0  0  0  0
 47 46  1  0  0  0  0
 48 49  1  0  0  0  0
 49 39  2  0  0  0  0
 49 44  1  0  0  0  0
M  END
>  <minimizedAffinity>
-5.92783594

$$$$
