
 OpenBabel03252504303D

 35 37  0  0  0  0  0  0  0  0999 V2000
   45.1260   35.5720   43.5470 C   0  0  0  0  0  0  0  0  0  0  0  0
   45.9730   35.1910   42.9680 H   0  0  0  0  0  0  0  0  0  0  0  0
   45.1750   36.6550   43.7560 H   0  0  0  0  0  0  0  0  0  0  0  0
   43.7190   35.6590   41.4390 C   0  0  0  0  0  3  0  0  0  0  0  0
   43.9000   35.2750   42.7090 C   0  0  0  0  0  3  0  0  0  0  0  0
   42.5290   35.2860   40.8300 O   0  0  0  0  0  0  0  0  0  0  0  0
   41.2620   35.7510   41.0880 C   0  0  0  0  0  0  0  0  0  0  0  0
   41.1930   35.8480   42.2210 H   0  0  0  0  0  0  0  0  0  0  0  0
   41.0070   36.7460   40.6950 H   0  0  0  0  0  0  0  0  0  0  0  0
   40.2140   33.6410   41.6210 C   0  0  0  0  0  0  0  0  0  0  0  0
   40.1950   34.7650   40.7760 C   0  0  0  0  0  0  0  0  0  0  0  0
   39.2360   34.8380   39.8130 C   0  0  0  0  0  0  0  0  0  0  0  0
   38.3660   33.8100   39.7440 N   0  0  0  0  0  0  0  0  0  0  0  0
   38.3730   32.7450   40.5350 C   0  0  0  0  0  0  0  0  0  0  0  0
   39.3250   32.6160   41.5340 N   0  0  0  0  0  0  0  0  0  0  0  0
   40.9260   33.4710   42.4220 H   0  0  0  0  0  0  0  0  0  0  0  0
   39.2750   35.7090   39.2080 H   0  0  0  0  0  0  0  0  0  0  0  0
   37.6410   31.9560   40.4220 H   0  0  0  0  0  0  0  0  0  0  0  0
   45.0190   34.8410   44.7010 O   0  0  0  0  0  0  0  0  0  0  0  0
   45.4130   32.3750   43.7860 O   0  0  0  0  0  0  0  0  0  0  0  0
   46.0040   33.4360   44.6610 P   0  0  1  0  0  0  0  0  0  0  0  0
   47.5320   33.8810   44.0280 O   0  0  0  0  0  0  0  0  0  0  0  0
   47.8440   34.6490   44.5870 H   0  0  0  0  0  0  0  0  0  0  0  0
   46.2520   32.9180   46.2150 O   0  0  0  0  0  0  0  0  0  0  0  0
   46.8150   31.9400   46.8590 C   0  0  0  0  0  0  0  0  0  0  0  0
   47.4480   32.5550   47.9670 C   0  0  0  0  0  0  0  0  0  0  0  0
   47.5060   33.6070   48.2880 H   0  0  0  0  0  0  0  0  0  0  0  0
   48.1790   31.8550   48.9280 C   0  0  0  0  0  3  0  0  0  0  0  0
   48.2730   30.4740   48.7660 C   0  0  0  0  0  3  0  0  0  0  0  0
   47.6850   29.8040   47.7170 C   0  0  0  0  0  0  0  0  0  0  0  0
   47.7340   28.4480   47.4890 C   0  0  0  0  0  3  0  0  0  0  0  0
   47.1150   27.8500   46.4090 C   0  0  0  0  0  3  0  0  0  0  0  0
   46.4140   28.6730   45.5190 C   0  0  0  0  0  3  0  0  0  0  0  0
   46.3780   30.0230   45.7630 C   0  0  0  0  0  3  0  0  0  0  0  0
   47.0020   30.5870   46.8440 C   0  0  0  0  0  0  0  0  0  0  0  0
  1  3  1  0  0  0  0
  1 19  1  0  0  0  0
  2  1  1  0  0  0  0
  4  5  2  0  0  0  0
  5  1  1  0  0  0  0
  6  7  1  0  0  0  0
  6  4  1  0  0  0  0
  7  8  1  0  0  0  0
  9  7  1  0  0  0  0
 10 16  1  0  0  0  0
 11  7  1  0  0  0  0
 11 10  2  0  0  0  0
 12 11  1  0  0  0  0
 13 12  2  0  0  0  0
 13 14  1  0  0  0  0
 14 15  2  0  0  0  0
 15 10  1  0  0  0  0
 17 12  1  0  0  0  0
 18 14  1  0  0  0  0
 21 20  2  6  0  0  0
 21 19  1  0  0  0  0
 21 24  1  0  0  0  0
 22 23  1  0  0  0  0
 22 21  1  0  0  0  0
 24 25  1  0  0  0  0
 25 26  1  0  0  0  0
 26 27  1  0  0  0  0
 26 28  2  0  0  0  0
 29 28  1  0  0  0  0
 30 29  2  0  0  0  0
 31 30  1  0  0  0  0
 32 31  2  0  0  0  0
 33 34  2  0  0  0  0
 33 32  1  0  0  0  0
 34 35  1  0  0  0  0
 35 25  2  0  0  0  0
 35 30  1  0  0  0  0
M  END
>  <minimizedAffinity>
-5.54106379

>  <minimizedRMSD>
1.16452932

$$$$
