
 OpenBabel03242516533D

 47 51  0  0  1  0  0  0  0  0999 V2000
   47.8290   32.8400   41.7100 C   0  0  1  0  0  0  0  0  0  0  0  0
   47.4460   32.1710   40.4630 C   0  0  0  0  0  0  0  0  0  0  0  0
   48.4520   32.6160   39.4050 C   0  0  0  0  0  0  0  0  0  0  0  0
   48.1630   34.0790   39.1240 C   0  0  0  0  0  0  0  0  0  0  0  0
   48.1640   34.9430   40.3540 C   0  0  0  0  0  0  0  0  0  0  0  0
   47.6790   34.3610   41.6100 C   0  0  1  0  0  0  0  0  0  0  0  0
   48.9450   32.7180   41.8540 H   0  0  0  0  0  0  0  0  0  0  0  0
   47.5750   31.0720   40.5850 H   0  0  0  0  0  0  0  0  0  0  0  0
   46.4350   32.4050   40.0920 H   0  0  0  0  0  0  0  0  0  0  0  0
   48.3240   32.0750   38.4640 H   0  0  0  0  0  0  0  0  0  0  0  0
   49.4720   32.5330   39.8390 H   0  0  0  0  0  0  0  0  0  0  0  0
   47.1430   34.1480   38.6760 H   0  0  0  0  0  0  0  0  0  0  0  0
   48.9300   34.4350   38.4110 H   0  0  0  0  0  0  0  0  0  0  0  0
   49.2130   35.3310   40.4650 H   0  0  0  0  0  0  0  0  0  0  0  0
   47.5500   35.8480   40.1060 H   0  0  0  0  0  0  0  0  0  0  0  0
   48.3160   34.7590   42.4560 H   0  0  0  0  0  0  0  0  0  0  0  0
   45.4160   31.0170   43.9860 C   0  0  0  0  0  0  0  0  0  0  0  0
   46.0840   31.5080   42.8610 C   0  0  0  0  0  0  0  0  0  0  0  0
   47.1890   32.3630   42.9180 C   0  0  0  0  0  0  0  0  0  0  0  0
   47.5920   32.7050   44.1500 N   0  0  0  0  0  0  0  0  0  0  0  0
   46.9510   32.2350   45.2560 C   0  0  0  0  0  0  0  0  0  0  0  0
   45.9020   31.4220   45.1890 N   0  0  0  0  0  0  0  0  0  0  0  0
   44.5770   30.3650   43.8300 H   0  0  0  0  0  0  0  0  0  0  0  0
   45.7440   31.2220   41.8740 H   0  0  0  0  0  0  0  0  0  0  0  0
   47.2600   32.4970   46.2600 H   0  0  0  0  0  0  0  0  0  0  0  0
   46.3230   34.7950   41.9470 C   0  0  0  0  0  0  0  0  0  0  0  0
   45.9480   35.5440   43.0630 C   0  0  0  0  0  0  0  0  0  0  0  0
   44.5950   35.8570   43.1690 C   0  0  0  0  0  0  0  0  0  0  0  0
   43.7450   35.4100   42.1790 C   0  0  0  0  0  0  0  0  0  0  0  0
   44.1340   34.6660   41.0760 C   0  0  0  0  0  0  0  0  0  0  0  0
   45.4550   34.3700   40.9880 N   0  0  0  0  0  0  0  0  0  0  0  0
   46.7190   35.8090   43.7320 H   0  0  0  0  0  0  0  0  0  0  0  0
   44.2930   36.4250   44.0120 H   0  0  0  0  0  0  0  0  0  0  0  0
   42.6930   35.6620   42.2770 H   0  0  0  0  0  0  0  0  0  0  0  0
   43.1520   34.2410   40.0870 C   0  0  0  0  0  0  0  0  0  0  0  0
   42.3970   35.0990   39.5850 O   0  0  0  0  0  0  0  0  0  0  0  0
   42.8170   32.9540   39.5020 C   0  0  0  0  0  0  0  0  0  0  0  0
   42.8440   32.6990   38.1480 C   0  0  0  0  0  0  0  0  0  0  0  0
   43.1430   33.4640   37.4640 H   0  0  0  0  0  0  0  0  0  0  0  0
   42.4960   31.5060   37.5470 C   0  0  0  0  0  3  0  0  0  0  0  0
   42.0860   30.4730   38.3640 C   0  0  0  0  0  3  0  0  0  0  0  0
   42.0360   30.6580   39.7280 C   0  0  0  0  0  0  0  0  0  0  0  0
   41.6290   29.5980   40.4810 C   0  0  0  0  0  3  0  0  0  0  0  0
   41.5620   29.7040   41.8560 C   0  0  0  0  0  3  0  0  0  0  0  0
   41.9210   30.9210   42.4410 C   0  0  0  0  0  3  0  0  0  0  0  0
   42.3220   31.9510   41.6250 C   0  0  0  0  0  3  0  0  0  0  0  0
   42.3980   31.8780   40.2530 C   0  0  0  0  0  0  0  0  0  0  0  0
  1  7  1  1  0  0  0
  1 19  1  0  0  0  0
  2  8  1  0  0  0  0
  2  1  1  0  0  0  0
  3 11  1  0  0  0  0
  3  2  1  0  0  0  0
  4  3  1  0  0  0  0
  4  5  1  0  0  0  0
  5 14  1  0  0  0  0
  5  6  1  0  0  0  0
  6  1  1  0  0  0  0
  6 26  1  0  0  0  0
  6 16  1  1  0  0  0
  9  2  1  0  0  0  0
 10  3  1  0  0  0  0
 12  4  1  0  0  0  0
 13  4  1  0  0  0  0
 15  5  1  0  0  0  0
 17 22  1  0  0  0  0
 18 19  1  0  0  0  0
 18 17  2  0  0  0  0
 19 20  2  0  0  0  0
 20 21  1  0  0  0  0
 21 25  1  0  0  0  0
 22 21  2  0  0  0  0
 23 17  1  0  0  0  0
 24 18  1  0  0  0  0
 26 27  1  0  0  0  0
 27 28  2  0  0  0  0
 27 32  1  0  0  0  0
 28 33  1  0  0  0  0
 29 34  1  0  0  0  0
 29 28  1  0  0  0  0
 30 29  2  0  0  0  0
 31 30  1  0  0  0  0
 31 26  2  0  0  0  0
 35 30  1  0  0  0  0
 36 35  2  0  0  0  0
 37 35  1  0  0  0  0
 37 47  1  0  0  0  0
 38 37  2  0  0  0  0
 39 38  1  0  0  0  0
 40 38  1  0  0  0  0
 40 41  2  0  0  0  0
 41 42  1  0  0  0  0
 42 47  2  0  0  0  0
 42 43  1  0  0  0  0
 43 44  2  0  0  0  0
 44 45  1  0  0  0  0
 46 45  2  0  0  0  0
 47 46  1  0  0  0  0
M  END
>  <minimizedAffinity>
-5.73259258

>  <minimizedRMSD>
0.608229518

$$$$
