
 OpenBabel03252509023D

 47 50  0  0  1  0  0  0  0  0999 V2000
   38.1350   28.7210   37.7170 N   0  0  0  0  0  0  0  0  0  0  0  0
   38.7340   27.6740   36.9700 C   0  0  0  0  0  0  0  0  0  0  0  0
   38.5500   26.2890   37.5530 C   0  0  0  0  0  0  0  0  0  0  0  0
   37.2410   26.0870   38.2780 C   0  0  0  0  0  0  0  0  0  0  0  0
   36.3500   27.2990   38.1630 C   0  0  0  0  0  0  0  0  0  0  0  0
   37.2420   28.4590   38.7400 C   0  0  2  0  0  0  0  0  0  0  0  0
   38.2070   27.6420   35.9830 H   0  0  0  0  0  0  0  0  0  0  0  0
   39.7900   27.8020   36.7350 H   0  0  0  0  0  0  0  0  0  0  0  0
   39.4440   26.0500   38.1710 H   0  0  0  0  0  0  0  0  0  0  0  0
   38.5710   25.5440   36.7250 H   0  0  0  0  0  0  0  0  0  0  0  0
   36.7210   25.1450   37.9820 H   0  0  0  0  0  0  0  0  0  0  0  0
   37.4810   25.9800   39.3580 H   0  0  0  0  0  0  0  0  0  0  0  0
   36.0930   27.5770   37.1420 H   0  0  0  0  0  0  0  0  0  0  0  0
   35.5180   27.1630   38.8620 H   0  0  0  0  0  0  0  0  0  0  0  0
   37.6620   28.0920   39.7110 H   0  0  0  0  0  0  0  0  0  0  0  0
   38.9180   29.9190   37.7730 C   0  0  0  0  0  0  0  0  0  0  0  0
   38.2590   30.8290   37.7050 H   0  0  0  0  0  0  0  0  0  0  0  0
   39.6290   29.9000   36.9320 H   0  0  0  0  0  0  0  0  0  0  0  0
   39.6220   29.9810   39.0870 C   0  0  0  0  0  0  0  0  0  0  0  0
   39.3060   29.2340   39.8280 H   0  0  0  0  0  0  0  0  0  0  0  0
   40.7200   29.8220   38.9520 H   0  0  0  0  0  0  0  0  0  0  0  0
   40.5050   33.3270   40.5440 C   0  0  0  0  0  0  0  0  0  0  0  0
   40.6270   32.0320   40.0080 C   0  0  0  0  0  0  0  0  0  0  0  0
   39.4900   31.3490   39.6520 C   0  0  0  0  0  0  0  0  0  0  0  0
   38.3100   31.9610   39.8350 N   0  0  0  0  0  0  0  0  0  0  0  0
   38.2150   33.2050   40.3500 C   0  0  0  0  0  0  0  0  0  0  0  0
   39.3070   33.8950   40.7070 N   0  0  0  0  0  0  0  0  0  0  0  0
   41.4800   33.7600   40.7860 H   0  0  0  0  0  0  0  0  0  0  0  0
   41.5900   31.5400   39.8620 H   0  0  0  0  0  0  0  0  0  0  0  0
   37.2500   33.6940   40.4960 H   0  0  0  0  0  0  0  0  0  0  0  0
   36.3120   29.4770   38.8900 O   0  0  0  0  0  0  0  0  0  0  0  0
   33.9470   29.1680   40.0670 O   0  0  0  0  0  0  0  0  0  0  0  0
   35.4440   29.3620   40.3260 P   0  0  2  0  0  0  0  0  0  0  0  0
   35.5550   30.9010   41.0690 O   0  0  0  0  0  0  0  0  0  0  0  0
   36.5200   31.0850   41.1130 H   0  0  0  0  0  0  0  0  0  0  0  0
   36.0820   28.2470   41.3690 O   0  0  0  0  0  0  0  0  0  0  0  0
   37.3040   28.2320   41.9760 C   0  0  0  0  0  0  0  0  0  0  0  0
   38.0630   29.3180   42.3860 C   0  0  0  0  0  0  0  0  0  0  0  0
   37.5960   30.2710   42.1830 H   0  0  0  0  0  0  0  0  0  0  0  0
   39.2910   29.0980   42.9920 C   0  0  0  0  0  3  0  0  0  0  0  0
   39.7570   27.8300   43.1860 C   0  0  0  0  0  3  0  0  0  0  0  0
   39.0340   26.7390   42.7940 C   0  0  0  0  0  0  0  0  0  0  0  0
   39.5460   25.4850   43.0100 C   0  0  0  0  0  3  0  0  0  0  0  0
   38.8340   24.3720   42.6240 C   0  0  0  0  0  3  0  0  0  0  0  0
   37.6050   24.5360   42.0170 C   0  0  0  0  0  3  0  0  0  0  0  0
   37.1270   25.7950   41.8160 C   0  0  0  0  0  3  0  0  0  0  0  0
   37.8000   26.9520   42.1850 C   0  0  0  0  0  0  0  0  0  0  0  0
  1 16  1  0  0  0  0
  1  6  1  0  0  0  0
  2  3  1  0  0  0  0
  2  1  1  0  0  0  0
  3  9  1  0  0  0  0
  3  4  1  0  0  0  0
  4 12  1  0  0  0  0
  5  4  1  0  0  0  0
  5  6  1  0  0  0  0
  5 14  1  0  0  0  0
  6 31  1  0  0  0  0
  6 15  1  1  0  0  0
  7  2  1  0  0  0  0
  8  2  1  0  0  0  0
 10  3  1  0  0  0  0
 11  4  1  0  0  0  0
 13  5  1  0  0  0  0
 16 19  1  0  0  0  0
 17 16  1  0  0  0  0
 18 16  1  0  0  0  0
 19 24  1  0  0  0  0
 19 20  1  0  0  0  0
 21 19  1  0  0  0  0
 22 27  1  0  0  0  0
 22 28  1  0  0  0  0
 23 22  2  0  0  0  0
 24 25  2  0  0  0  0
 24 23  1  0  0  0  0
 25 26  1  0  0  0  0
 26 30  1  0  0  0  0
 26 27  2  0  0  0  0
 29 23  1  0  0  0  0
 31 33  1  0  0  0  0
 33 32  2  6  0  0  0
 33 34  1  0  0  0  0
 33 36  1  0  0  0  0
 34 35  1  0  0  0  0
 36 37  1  0  0  0  0
 37 47  2  0  0  0  0
 37 38  1  0  0  0  0
 38 40  2  0  0  0  0
 39 38  1  0  0  0  0
 40 41  1  0  0  0  0
 42 43  1  0  0  0  0
 42 41  2  0  0  0  0
 44 43  2  0  0  0  0
 45 44  1  0  0  0  0
 46 45  2  0  0  0  0
 46 47  1  0  0  0  0
 47 42  1  0  0  0  0
M  END
>  <minimizedAffinity>
-6.07934999

$$$$

 OpenBabel03252509023D

 47 50  0  0  1  0  0  0  0  0999 V2000
   39.2920   30.8800   41.6010 N   0  0  0  0  0  0  0  0  0  0  0  0
   40.0680   31.0990   42.7680 C   0  0  0  0  0  0  0  0  0  0  0  0
   41.5410   31.3440   42.5180 C   0  0  0  0  0  0  0  0  0  0  0  0
   41.8420   32.0680   41.2280 C   0  0  0  0  0  0  0  0  0  0  0  0
   40.5780   32.4870   40.5180 C   0  0  0  0  0  0  0  0  0  0  0  0
   39.7990   31.1330   40.3390 C   0  0  2  0  0  0  0  0  0  0  0  0
   39.6940   32.0490   43.2290 H   0  0  0  0  0  0  0  0  0  0  0  0
   39.9810   30.3420   43.5460 H   0  0  0  0  0  0  0  0  0  0  0  0
   42.0780   30.3740   42.6210 H   0  0  0  0  0  0  0  0  0  0  0  0
   41.9460   31.9800   43.3390 H   0  0  0  0  0  0  0  0  0  0  0  0
   42.5580   32.9140   41.3600 H   0  0  0  0  0  0  0  0  0  0  0  0
   42.3470   31.3400   40.5560 H   0  0  0  0  0  0  0  0  0  0  0  0
   39.9330   33.1480   41.0950 H   0  0  0  0  0  0  0  0  0  0  0  0
   40.8600   32.8240   39.5160 H   0  0  0  0  0  0  0  0  0  0  0  0
   40.5260   30.3940   39.9170 H   0  0  0  0  0  0  0  0  0  0  0  0
   38.2820   29.8760   41.7530 C   0  0  0  0  0  0  0  0  0  0  0  0
   38.3760   29.0930   40.9500 H   0  0  0  0  0  0  0  0  0  0  0  0
   37.3000   30.3690   41.6920 H   0  0  0  0  0  0  0  0  0  0  0  0
   38.4720   29.1880   43.0630 C   0  0  0  0  0  0  0  0  0  0  0  0
   39.3870   29.4550   43.6100 H   0  0  0  0  0  0  0  0  0  0  0  0
   37.6290   29.4260   43.7570 H   0  0  0  0  0  0  0  0  0  0  0  0
   37.1880   25.7720   42.1750 C   0  0  0  0  0  0  0  0  0  0  0  0
   37.2510   27.1650   42.3690 C   0  0  0  0  0  0  0  0  0  0  0  0
   38.4090   27.7170   42.8600 C   0  0  0  0  0  0  0  0  0  0  0  0
   39.4300   26.8910   43.1320 N   0  0  0  0  0  0  0  0  0  0  0  0
   39.3500   25.5570   42.9390 C   0  0  0  0  0  0  0  0  0  0  0  0
   38.2330   24.9900   42.4610 N   0  0  0  0  0  0  0  0  0  0  0  0
   36.2170   25.4600   41.7820 H   0  0  0  0  0  0  0  0  0  0  0  0
   36.4170   27.8310   42.1460 H   0  0  0  0  0  0  0  0  0  0  0  0
   40.1860   24.8930   43.1630 H   0  0  0  0  0  0  0  0  0  0  0  0
   38.8040   31.5010   39.4450 O   0  0  0  0  0  0  0  0  0  0  0  0
   40.3220   30.0290   37.8320 O   0  0  0  0  0  0  0  0  0  0  0  0
   39.0620   30.8960   37.8970 P   0  0  2  0  0  0  0  0  0  0  0  0
   39.4230   32.2520   36.9140 O   0  0  0  0  0  0  0  0  0  0  0  0
   38.6720   32.8700   37.0620 H   0  0  0  0  0  0  0  0  0  0  0  0
   37.7200   30.1560   37.2710 O   0  0  0  0  0  0  0  0  0  0  0  0
   36.5700   29.7790   37.8990 C   0  0  0  0  0  0  0  0  0  0  0  0
   36.3140   29.7530   39.2620 C   0  0  0  0  0  0  0  0  0  0  0  0
   37.1510   30.0780   39.8640 H   0  0  0  0  0  0  0  0  0  0  0  0
   35.0700   29.3360   39.7120 C   0  0  0  0  0  3  0  0  0  0  0  0
   34.1010   28.9520   38.8300 C   0  0  0  0  0  3  0  0  0  0  0  0
   34.3210   28.9660   37.4820 C   0  0  0  0  0  0  0  0  0  0  0  0
   33.3160   28.5700   36.6370 C   0  0  0  0  0  3  0  0  0  0  0  0
   33.5150   28.5760   35.2750 C   0  0  0  0  0  3  0  0  0  0  0  0
   34.7360   28.9840   34.7750 C   0  0  0  0  0  3  0  0  0  0  0  0
   35.7120   29.3700   35.6420 C   0  0  0  0  0  3  0  0  0  0  0  0
   35.5680   29.3840   37.0230 C   0  0  0  0  0  0  0  0  0  0  0  0
  1 16  1  0  0  0  0
  1  2  1  0  0  0  0
  2  7  1  0  0  0  0
  2  8  1  0  0  0  0
  3  9  1  0  0  0  0
  3  2  1  0  0  0  0
  3 10  1  0  0  0  0
  4 11  1  0  0  0  0
  4  3  1  0  0  0  0
  5 13  1  0  0  0  0
  5  4  1  0  0  0  0
  6 15  1  6  0  0  0
  6  5  1  0  0  0  0
  6  1  1  0  0  0  0
 12  4  1  0  0  0  0
 14  5  1  0  0  0  0
 16 19  1  0  0  0  0
 17 16  1  0  0  0  0
 18 16  1  0  0  0  0
 19 20  1  0  0  0  0
 19 21  1  0  0  0  0
 22 23  2  0  0  0  0
 22 27  1  0  0  0  0
 23 24  1  0  0  0  0
 24 19  1  0  0  0  0
 24 25  2  0  0  0  0
 26 25  1  0  0  0  0
 26 30  1  0  0  0  0
 27 26  2  0  0  0  0
 28 22  1  0  0  0  0
 29 23  1  0  0  0  0
 31  6  1  0  0  0  0
 33 32  2  1  0  0  0
 33 31  1  0  0  0  0
 34 35  1  0  0  0  0
 34 33  1  0  0  0  0
 36 33  1  0  0  0  0
 36 37  1  0  0  0  0
 37 38  1  0  0  0  0
 38 40  2  0  0  0  0
 38 39  1  0  0  0  0
 41 40  1  0  0  0  0
 42 41  2  0  0  0  0
 43 42  1  0  0  0  0
 44 43  2  0  0  0  0
 45 44  1  0  0  0  0
 45 46  2  0  0  0  0
 46 47  1  0  0  0  0
 47 42  1  0  0  0  0
 47 37  2  0  0  0  0
M  END
>  <minimizedAffinity>
-6.03247929

$$$$

 OpenBabel03252509023D

 47 50  0  0  1  0  0  0  0  0999 V2000
   38.5090   28.6000   38.3270 N   0  0  0  0  0  0  0  0  0  0  0  0
   38.6750   28.1420   36.9950 C   0  0  0  0  0  0  0  0  0  0  0  0
   37.4000   28.0720   36.1810 C   0  0  0  0  0  0  0  0  0  0  0  0
   36.3820   29.1320   36.5250 C   0  0  0  0  0  0  0  0  0  0  0  0
   36.9180   30.1050   37.5470 C   0  0  0  0  0  0  0  0  0  0  0  0
   37.3260   29.1780   38.7490 C   0  0  2  0  0  0  0  0  0  0  0  0
   39.3080   28.9010   36.4700 H   0  0  0  0  0  0  0  0  0  0  0  0
   39.1990   27.1940   36.8790 H   0  0  0  0  0  0  0  0  0  0  0  0
   37.0030   27.0340   36.2440 H   0  0  0  0  0  0  0  0  0  0  0  0
   37.6510   28.2130   35.1050 H   0  0  0  0  0  0  0  0  0  0  0  0
   35.9650   29.6430   35.6260 H   0  0  0  0  0  0  0  0  0  0  0  0
   35.5250   28.6140   37.0100 H   0  0  0  0  0  0  0  0  0  0  0  0
   37.8170   30.6350   37.2380 H   0  0  0  0  0  0  0  0  0  0  0  0
   36.0770   30.7160   37.8900 H   0  0  0  0  0  0  0  0  0  0  0  0
   36.4580   28.4970   38.9430 H   0  0  0  0  0  0  0  0  0  0  0  0
   39.3250   27.9140   39.2850 C   0  0  0  0  0  0  0  0  0  0  0  0
   38.8090   27.8640   40.2830 H   0  0  0  0  0  0  0  0  0  0  0  0
   40.2760   28.4610   39.3730 H   0  0  0  0  0  0  0  0  0  0  0  0
   39.5380   26.5100   38.8270 C   0  0  0  0  0  0  0  0  0  0  0  0
   39.2790   26.3090   37.7780 H   0  0  0  0  0  0  0  0  0  0  0  0
   40.6130   26.2230   38.9290 H   0  0  0  0  0  0  0  0  0  0  0  0
   38.7560   23.6110   41.0830 C   0  0  0  0  0  0  0  0  0  0  0  0
   39.4540   24.4910   40.2340 C   0  0  0  0  0  0  0  0  0  0  0  0
   38.7980   25.5840   39.7230 C   0  0  0  0  0  0  0  0  0  0  0  0
   37.5120   25.7570   40.0630 N   0  0  0  0  0  0  0  0  0  0  0  0
   36.8600   24.9010   40.8780 C   0  0  0  0  0  0  0  0  0  0  0  0
   37.4740   23.8260   41.3930 N   0  0  0  0  0  0  0  0  0  0  0  0
   39.3880   22.7850   41.4210 H   0  0  0  0  0  0  0  0  0  0  0  0
   40.5010   24.3440   39.9620 H   0  0  0  0  0  0  0  0  0  0  0  0
   35.8130   25.0500   41.1490 H   0  0  0  0  0  0  0  0  0  0  0  0
   37.5340   30.1070   39.7580 O   0  0  0  0  0  0  0  0  0  0  0  0
   35.6820   28.6030   40.9330 O   0  0  0  0  0  0  0  0  0  0  0  0
   36.6470   29.7720   41.1480 P   0  0  2  0  0  0  0  0  0  0  0  0
   35.6300   31.1280   41.3960 O   0  0  0  0  0  0  0  0  0  0  0  0
   36.2420   31.8980   41.4000 H   0  0  0  0  0  0  0  0  0  0  0  0
   37.6030   29.6000   42.4870 O   0  0  0  0  0  0  0  0  0  0  0  0
   38.9590   29.6950   42.5980 C   0  0  0  0  0  0  0  0  0  0  0  0
   39.7530   30.8150   42.4000 C   0  0  0  0  0  0  0  0  0  0  0  0
   39.1930   31.6970   42.1260 H   0  0  0  0  0  0  0  0  0  0  0  0
   41.1270   30.7110   42.5620 C   0  0  0  0  0  3  0  0  0  0  0  0
   41.7010   29.5230   42.9140 C   0  0  0  0  0  3  0  0  0  0  0  0
   40.9480   28.4020   43.1160 C   0  0  0  0  0  0  0  0  0  0  0  0
   41.5710   27.2320   43.4680 C   0  0  0  0  0  3  0  0  0  0  0  0
   40.8320   26.0900   43.6770 C   0  0  0  0  0  3  0  0  0  0  0  0
   39.4600   26.1400   43.5290 C   0  0  0  0  0  3  0  0  0  0  0  0
   38.8730   27.3170   43.1790 C   0  0  0  0  0  3  0  0  0  0  0  0
   39.5670   28.4990   42.9550 C   0  0  0  0  0  0  0  0  0  0  0  0
  1  6  1  0  0  0  0
  1 16  1  0  0  0  0
  2  1  1  0  0  0  0
  3  9  1  0  0  0  0
  3  4  1  0  0  0  0
  3  2  1  0  0  0  0
  4 12  1  0  0  0  0
  4  5  1  0  0  0  0
  5 14  1  0  0  0  0
  5  6  1  0  0  0  0
  6 15  1  1  0  0  0
  6 31  1  0  0  0  0
  7  2  1  0  0  0  0
  8  2  1  0  0  0  0
 10  3  1  0  0  0  0
 11  4  1  0  0  0  0
 13  5  1  0  0  0  0
 16 18  1  0  0  0  0
 16 17  1  0  0  0  0
 19 21  1  0  0  0  0
 19 16  1  0  0  0  0
 19 24  1  0  0  0  0
 20 19  1  0  0  0  0
 22 27  1  0  0  0  0
 22 28  1  0  0  0  0
 23 22  2  0  0  0  0
 24 25  2  0  0  0  0
 24 23  1  0  0  0  0
 25 26  1  0  0  0  0
 26 30  1  0  0  0  0
 26 27  2  0  0  0  0
 29 23  1  0  0  0  0
 31 33  1  0  0  0  0
 33 32  2  6  0  0  0
 33 34  1  0  0  0  0
 33 36  1  0  0  0  0
 34 35  1  0  0  0  0
 36 37  1  0  0  0  0
 37 47  1  0  0  0  0
 38 40  1  0  0  0  0
 38 37  2  0  0  0  0
 39 38  1  0  0  0  0
 40 41  2  0  0  0  0
 41 42  1  0  0  0  0
 42 43  1  0  0  0  0
 43 44  2  0  0  0  0
 45 44  1  0  0  0  0
 46 45  2  0  0  0  0
 47 42  2  0  0  0  0
 47 46  1  0  0  0  0
M  END
>  <minimizedAffinity>
-6.0004673

$$$$

 OpenBabel03252509023D

 47 50  0  0  1  0  0  0  0  0999 V2000
   38.2220   28.7230   37.7240 N   0  0  0  0  0  0  0  0  0  0  0  0
   38.1450   28.1640   36.4230 C   0  0  0  0  0  0  0  0  0  0  0  0
   36.9490   28.6080   35.6070 C   0  0  0  0  0  0  0  0  0  0  0  0
   36.4980   30.0220   35.8820 C   0  0  0  0  0  0  0  0  0  0  0  0
   37.4240   30.7220   36.8460 C   0  0  0  0  0  0  0  0  0  0  0  0
   37.4150   29.7800   38.1050 C   0  0  2  0  0  0  0  0  0  0  0  0
   39.0340   28.5430   35.8570 H   0  0  0  0  0  0  0  0  0  0  0  0
   38.2040   27.0780   36.3670 H   0  0  0  0  0  0  0  0  0  0  0  0
   36.1430   27.8500   35.7310 H   0  0  0  0  0  0  0  0  0  0  0  0
   37.2140   28.5650   34.5260 H   0  0  0  0  0  0  0  0  0  0  0  0
   36.3240   30.6110   34.9520 H   0  0  0  0  0  0  0  0  0  0  0  0
   35.5120   29.9550   36.3920 H   0  0  0  0  0  0  0  0  0  0  0  0
   38.4570   30.7920   36.5110 H   0  0  0  0  0  0  0  0  0  0  0  0
   36.9380   31.6560   37.1480 H   0  0  0  0  0  0  0  0  0  0  0  0
   36.3420   29.5540   38.3340 H   0  0  0  0  0  0  0  0  0  0  0  0
   38.6810   27.8070   38.7260 C   0  0  0  0  0  0  0  0  0  0  0  0
   39.2380   28.3520   39.5370 H   0  0  0  0  0  0  0  0  0  0  0  0
   39.3390   27.0720   38.2380 H   0  0  0  0  0  0  0  0  0  0  0  0
   37.5020   27.1520   39.3630 C   0  0  0  0  0  0  0  0  0  0  0  0
   36.8950   27.7980   40.0130 H   0  0  0  0  0  0  0  0  0  0  0  0
   36.7990   26.7650   38.5850 H   0  0  0  0  0  0  0  0  0  0  0  0
   39.7320   24.6160   41.0070 C   0  0  0  0  0  0  0  0  0  0  0  0
   39.3000   25.7510   40.2970 C   0  0  0  0  0  0  0  0  0  0  0  0
   37.9530   25.9510   40.1150 C   0  0  0  0  0  0  0  0  0  0  0  0
   37.1110   25.0440   40.6310 N   0  0  0  0  0  0  0  0  0  0  0  0
   37.5450   23.9610   41.3110 C   0  0  0  0  0  0  0  0  0  0  0  0
   38.8540   23.7400   41.5030 N   0  0  0  0  0  0  0  0  0  0  0  0
   40.8220   24.5720   41.0820 H   0  0  0  0  0  0  0  0  0  0  0  0
   39.9910   26.4860   39.8790 H   0  0  0  0  0  0  0  0  0  0  0  0
   36.8520   23.2280   41.7270 H   0  0  0  0  0  0  0  0  0  0  0  0
   38.0260   30.5820   39.0570 O   0  0  0  0  0  0  0  0  0  0  0  0
   35.6560   30.2530   40.2160 O   0  0  0  0  0  0  0  0  0  0  0  0
   37.0320   30.9030   40.3760 P   0  0  2  0  0  0  0  0  0  0  0  0
   36.7190   32.5860   40.3320 O   0  0  0  0  0  0  0  0  0  0  0  0
   37.6100   33.0020   40.2990 H   0  0  0  0  0  0  0  0  0  0  0  0
   37.7610   30.5580   41.8210 O   0  0  0  0  0  0  0  0  0  0  0  0
   37.9250   29.3530   42.4390 C   0  0  0  0  0  0  0  0  0  0  0  0
   36.9410   28.4600   42.8360 C   0  0  0  0  0  0  0  0  0  0  0  0
   35.9390   28.7940   42.6100 H   0  0  0  0  0  0  0  0  0  0  0  0
   37.3100   27.2740   43.4550 C   0  0  0  0  0  3  0  0  0  0  0  0
   38.6250   26.9810   43.6760 C   0  0  0  0  0  3  0  0  0  0  0  0
   39.6180   27.8400   43.2980 C   0  0  0  0  0  0  0  0  0  0  0  0
   40.9240   27.5000   43.5420 C   0  0  0  0  0  3  0  0  0  0  0  0
   41.9410   28.3500   43.1690 C   0  0  0  0  0  3  0  0  0  0  0  0
   41.6270   29.5430   42.5490 C   0  0  0  0  0  3  0  0  0  0  0  0
   40.3200   29.8490   42.3210 C   0  0  0  0  0  3  0  0  0  0  0  0
   39.2550   29.0320   42.6750 C   0  0  0  0  0  0  0  0  0  0  0  0
  1  6  1  0  0  0  0
  1 16  1  0  0  0  0
  2  1  1  0  0  0  0
  3  9  1  0  0  0  0
  3  4  1  0  0  0  0
  3  2  1  0  0  0  0
  4 12  1  0  0  0  0
  4  5  1  0  0  0  0
  5 14  1  0  0  0  0
  5  6  1  0  0  0  0
  6 15  1  1  0  0  0
  6 31  1  0  0  0  0
  7  2  1  0  0  0  0
  8  2  1  0  0  0  0
 10  3  1  0  0  0  0
 11  4  1  0  0  0  0
 13  5  1  0  0  0  0
 16 19  1  0  0  0  0
 16 17  1  0  0  0  0
 18 16  1  0  0  0  0
 19 20  1  0  0  0  0
 19 24  1  0  0  0  0
 21 19  1  0  0  0  0
 22 28  1  0  0  0  0
 22 27  1  0  0  0  0
 23 22  2  0  0  0  0
 24 23  1  0  0  0  0
 24 25  2  0  0  0  0
 25 26  1  0  0  0  0
 26 27  2  0  0  0  0
 26 30  1  0  0  0  0
 29 23  1  0  0  0  0
 31 33  1  0  0  0  0
 33 32  2  6  0  0  0
 33 36  1  0  0  0  0
 34 33  1  0  0  0  0
 35 34  1  0  0  0  0
 36 37  1  0  0  0  0
 37 47  2  0  0  0  0
 37 38  1  0  0  0  0
 38 40  2  0  0  0  0
 39 38  1  0  0  0  0
 40 41  1  0  0  0  0
 42 43  1  0  0  0  0
 42 41  2  0  0  0  0
 44 43  2  0  0  0  0
 45 44  1  0  0  0  0
 46 45  2  0  0  0  0
 46 47  1  0  0  0  0
 47 42  1  0  0  0  0
M  END
>  <minimizedAffinity>
-5.93336725

$$$$

 OpenBabel03252509023D

 47 50  0  0  1  0  0  0  0  0999 V2000
   36.7190   29.7080   37.7890 N   0  0  0  0  0  0  0  0  0  0  0  0
   36.0540   29.2410   36.6260 C   0  0  0  0  0  0  0  0  0  0  0  0
   35.5470   27.8170   36.7090 C   0  0  0  0  0  0  0  0  0  0  0  0
   35.1060   27.3920   38.0890 C   0  0  0  0  0  0  0  0  0  0  0  0
   35.1700   28.5370   39.0700 C   0  0  0  0  0  0  0  0  0  0  0  0
   36.6690   29.0050   38.9800 C   0  0  2  0  0  0  0  0  0  0  0  0
   35.1330   29.8670   36.5100 H   0  0  0  0  0  0  0  0  0  0  0  0
   36.6010   29.3490   35.6910 H   0  0  0  0  0  0  0  0  0  0  0  0
   36.3150   27.1480   36.2600 H   0  0  0  0  0  0  0  0  0  0  0  0
   34.6580   27.7120   36.0470 H   0  0  0  0  0  0  0  0  0  0  0  0
   34.1140   26.8830   38.0910 H   0  0  0  0  0  0  0  0  0  0  0  0
   35.8400   26.6370   38.4460 H   0  0  0  0  0  0  0  0  0  0  0  0
   34.5550   29.3950   38.8050 H   0  0  0  0  0  0  0  0  0  0  0  0
   35.0290   28.1190   40.0720 H   0  0  0  0  0  0  0  0  0  0  0  0
   37.3020   28.0850   39.0640 H   0  0  0  0  0  0  0  0  0  0  0  0
   37.8610   30.5290   37.5180 C   0  0  0  0  0  0  0  0  0  0  0  0
   38.1140   30.5090   36.4220 H   0  0  0  0  0  0  0  0  0  0  0  0
   38.7040   30.1450   38.1120 H   0  0  0  0  0  0  0  0  0  0  0  0
   37.5380   31.9430   37.8700 C   0  0  0  0  0  0  0  0  0  0  0  0
   37.5000   32.6440   37.0250 H   0  0  0  0  0  0  0  0  0  0  0  0
   36.5350   32.0070   38.3580 H   0  0  0  0  0  0  0  0  0  0  0  0
   39.0150   33.8690   40.7360 C   0  0  0  0  0  0  0  0  0  0  0  0
   38.1050   33.4080   39.7670 C   0  0  0  0  0  0  0  0  0  0  0  0
   38.5030   32.4270   38.8920 C   0  0  0  0  0  0  0  0  0  0  0  0
   39.7530   31.9550   39.0090 N   0  0  0  0  0  0  0  0  0  0  0  0
   40.6120   32.4110   39.9460 C   0  0  0  0  0  0  0  0  0  0  0  0
   40.2510   33.3670   40.8130 N   0  0  0  0  0  0  0  0  0  0  0  0
   38.5770   34.6470   41.3680 H   0  0  0  0  0  0  0  0  0  0  0  0
   37.0890   33.7970   39.6780 H   0  0  0  0  0  0  0  0  0  0  0  0
   41.6270   32.0210   40.0320 H   0  0  0  0  0  0  0  0  0  0  0  0
   36.7640   29.8440   40.0810 O   0  0  0  0  0  0  0  0  0  0  0  0
   38.4300   30.5230   42.0400 O   0  0  0  0  0  0  0  0  0  0  0  0
   37.9480   29.3570   41.1720 P   0  0  2  0  0  0  0  0  0  0  0  0
   39.3140   28.9320   40.2290 O   0  0  0  0  0  0  0  0  0  0  0  0
   38.9710   28.2770   39.5800 H   0  0  0  0  0  0  0  0  0  0  0  0
   37.4990   28.0260   42.0470 O   0  0  0  0  0  0  0  0  0  0  0  0
   38.2520   26.9620   42.4480 C   0  0  0  0  0  0  0  0  0  0  0  0
   39.2540   26.9420   43.4070 C   0  0  0  0  0  0  0  0  0  0  0  0
   39.4280   27.9030   43.8690 H   0  0  0  0  0  0  0  0  0  0  0  0
   39.9110   25.7500   43.6780 C   0  0  0  0  0  3  0  0  0  0  0  0
   39.5830   24.6040   43.0130 C   0  0  0  0  0  3  0  0  0  0  0  0
   38.6020   24.5910   42.0630 C   0  0  0  0  0  0  0  0  0  0  0  0
   38.3090   23.4140   41.4210 C   0  0  0  0  0  3  0  0  0  0  0  0
   37.3230   23.3770   40.4610 C   0  0  0  0  0  3  0  0  0  0  0  0
   36.6390   24.5350   40.1540 C   0  0  0  0  0  3  0  0  0  0  0  0
   36.9540   25.6860   40.8090 C   0  0  0  0  0  3  0  0  0  0  0  0
   37.9370   25.7830   41.7850 C   0  0  0  0  0  0  0  0  0  0  0  0
  1  6  1  0  0  0  0
  2  3  1  0  0  0  0
  2  1  1  0  0  0  0
  3  4  1  0  0  0  0
  4 11  1  0  0  0  0
  4 12  1  0  0  0  0
  4  5  1  0  0  0  0
  5 14  1  0  0  0  0
  6 15  1  1  0  0  0
  6  5  1  0  0  0  0
  6 31  1  0  0  0  0
  7  2  1  0  0  0  0
  8  2  1  0  0  0  0
  9  3  1  0  0  0  0
 10  3  1  0  0  0  0
 13  5  1  0  0  0  0
 16  1  1  0  0  0  0
 16 19  1  0  0  0  0
 16 18  1  0  0  0  0
 17 16  1  0  0  0  0
 19 21  1  0  0  0  0
 19 24  1  0  0  0  0
 20 19  1  0  0  0  0
 22 27  1  0  0  0  0
 22 28  1  0  0  0  0
 23 22  2  0  0  0  0
 24 25  2  0  0  0  0
 24 23  1  0  0  0  0
 25 26  1  0  0  0  0
 26 30  1  0  0  0  0
 26 27  2  0  0  0  0
 29 23  1  0  0  0  0
 31 33  1  0  0  0  0
 33 32  2  1  0  0  0
 33 36  1  0  0  0  0
 34 33  1  0  0  0  0
 35 34  1  0  0  0  0
 36 37  1  0  0  0  0
 37 38  1  0  0  0  0
 38 40  2  0  0  0  0
 38 39  1  0  0  0  0
 41 40  1  0  0  0  0
 42 41  2  0  0  0  0
 43 42  1  0  0  0  0
 44 43  2  0  0  0  0
 45 44  1  0  0  0  0
 45 46  2  0  0  0  0
 46 47  1  0  0  0  0
 47 42  1  0  0  0  0
 47 37  2  0  0  0  0
M  END
>  <minimizedAffinity>
-5.83338308

$$$$

 OpenBabel03252509023D

 47 50  0  0  1  0  0  0  0  0999 V2000
   38.8660   31.5740   41.3890 N   0  0  0  0  0  0  0  0  0  0  0  0
   39.5950   32.6870   40.8970 C   0  0  0  0  0  0  0  0  0  0  0  0
   39.3740   32.9980   39.4320 C   0  0  0  0  0  0  0  0  0  0  0  0
   37.9840   32.6890   38.9320 C   0  0  0  0  0  0  0  0  0  0  0  0
   37.0810   32.2320   40.0520 C   0  0  0  0  0  0  0  0  0  0  0  0
   37.8470   30.9970   40.6530 C   0  0  2  0  0  0  0  0  0  0  0  0
   39.2140   33.5880   41.4420 H   0  0  0  0  0  0  0  0  0  0  0  0
   40.6690   32.6690   41.0780 H   0  0  0  0  0  0  0  0  0  0  0  0
   40.1800   32.5020   38.8460 H   0  0  0  0  0  0  0  0  0  0  0  0
   39.5340   34.0880   39.2670 H   0  0  0  0  0  0  0  0  0  0  0  0
   37.5400   33.5210   38.3380 H   0  0  0  0  0  0  0  0  0  0  0  0
   38.0730   31.8270   38.2360 H   0  0  0  0  0  0  0  0  0  0  0  0
   36.9600   32.9520   40.8590 H   0  0  0  0  0  0  0  0  0  0  0  0
   36.1640   31.8430   39.5960 H   0  0  0  0  0  0  0  0  0  0  0  0
   38.1380   30.3450   39.7910 H   0  0  0  0  0  0  0  0  0  0  0  0
   39.5970   30.7620   42.3150 C   0  0  0  0  0  0  0  0  0  0  0  0
   39.1820   29.7160   42.3400 H   0  0  0  0  0  0  0  0  0  0  0  0
   39.5180   31.2270   43.3100 H   0  0  0  0  0  0  0  0  0  0  0  0
   41.0150   30.6630   41.8640 C   0  0  0  0  0  0  0  0  0  0  0  0
   41.3050   31.3540   41.0590 H   0  0  0  0  0  0  0  0  0  0  0  0
   41.7120   30.8790   42.7090 H   0  0  0  0  0  0  0  0  0  0  0  0
   40.8060   27.3490   40.1090 C   0  0  0  0  0  0  0  0  0  0  0  0
   40.5330   28.6760   40.4910 C   0  0  0  0  0  0  0  0  0  0  0  0
   41.3070   29.2620   41.4630 C   0  0  0  0  0  0  0  0  0  0  0  0
   42.2940   28.5310   42.0010 N   0  0  0  0  0  0  0  0  0  0  0  0
   42.5400   27.2590   41.6210 C   0  0  0  0  0  0  0  0  0  0  0  0
   41.8010   26.6610   40.6760 N   0  0  0  0  0  0  0  0  0  0  0  0
   40.1210   27.0010   39.3310 H   0  0  0  0  0  0  0  0  0  0  0  0
   39.7270   29.2650   40.0490 H   0  0  0  0  0  0  0  0  0  0  0  0
   43.3460   26.6720   42.0650 H   0  0  0  0  0  0  0  0  0  0  0  0
   36.8740   30.4350   41.4660 O   0  0  0  0  0  0  0  0  0  0  0  0
   36.8790   28.6520   39.4940 O   0  0  0  0  0  0  0  0  0  0  0  0
   36.2670   28.9900   40.8560 P   0  0  2  0  0  0  0  0  0  0  0  0
   34.6110   29.2760   40.5240 O   0  0  0  0  0  0  0  0  0  0  0  0
   34.2460   29.6230   41.3690 H   0  0  0  0  0  0  0  0  0  0  0  0
   36.3600   27.7490   41.9470 O   0  0  0  0  0  0  0  0  0  0  0  0
   37.4590   27.0860   42.4080 C   0  0  0  0  0  0  0  0  0  0  0  0
   38.3950   27.5280   43.3320 C   0  0  0  0  0  0  0  0  0  0  0  0
   38.1930   28.5200   43.7080 H   0  0  0  0  0  0  0  0  0  0  0  0
   39.4530   26.6990   43.6770 C   0  0  0  0  0  3  0  0  0  0  0  0
   39.5810   25.4600   43.1180 C   0  0  0  0  0  3  0  0  0  0  0  0
   38.6770   24.9950   42.2050 C   0  0  0  0  0  0  0  0  0  0  0  0
   38.8490   23.7430   41.6710 C   0  0  0  0  0  3  0  0  0  0  0  0
   37.9510   23.2550   40.7500 C   0  0  0  0  0  3  0  0  0  0  0  0
   36.8790   24.0390   40.3730 C   0  0  0  0  0  3  0  0  0  0  0  0
   36.7380   25.2770   40.9220 C   0  0  0  0  0  3  0  0  0  0  0  0
   37.6120   25.8210   41.8540 C   0  0  0  0  0  0  0  0  0  0  0  0
  1 16  1  0  0  0  0
  2  8  1  0  0  0  0
  2  1  1  0  0  0  0
  2  7  1  0  0  0  0
  3  2  1  0  0  0  0
  4  3  1  0  0  0  0
  4  5  1  0  0  0  0
  5  6  1  0  0  0  0
  5 13  1  0  0  0  0
  6 15  1  6  0  0  0
  6  1  1  0  0  0  0
  6 31  1  0  0  0  0
  9  3  1  0  0  0  0
 10  3  1  0  0  0  0
 11  4  1  0  0  0  0
 12  4  1  0  0  0  0
 14  5  1  0  0  0  0
 16 17  1  0  0  0  0
 16 18  1  0  0  0  0
 19 16  1  0  0  0  0
 19 21  1  0  0  0  0
 20 19  1  0  0  0  0
 22 23  2  0  0  0  0
 22 27  1  0  0  0  0
 23 24  1  0  0  0  0
 24 19  1  0  0  0  0
 24 25  2  0  0  0  0
 26 25  1  0  0  0  0
 26 30  1  0  0  0  0
 27 26  2  0  0  0  0
 28 22  1  0  0  0  0
 29 23  1  0  0  0  0
 33 32  2  6  0  0  0
 33 31  1  0  0  0  0
 33 36  1  0  0  0  0
 34 33  1  0  0  0  0
 34 35  1  0  0  0  0
 36 37  1  0  0  0  0
 37 38  1  0  0  0  0
 38 40  2  0  0  0  0
 38 39  1  0  0  0  0
 41 40  1  0  0  0  0
 42 41  2  0  0  0  0
 43 42  1  0  0  0  0
 44 43  2  0  0  0  0
 45 44  1  0  0  0  0
 45 46  2  0  0  0  0
 46 47  1  0  0  0  0
 47 42  1  0  0  0  0
 47 37  2  0  0  0  0
M  END
>  <minimizedAffinity>
-5.81342888

$$$$

 OpenBabel03252509023D

 47 50  0  0  1  0  0  0  0  0999 V2000
   37.6640   31.4790   39.5360 N   0  0  0  0  0  0  0  0  0  0  0  0
   37.1970   32.6730   38.9290 C   0  0  0  0  0  0  0  0  0  0  0  0
   37.5320   33.9440   39.6800 C   0  0  0  0  0  0  0  0  0  0  0  0
   38.8470   33.9030   40.4200 C   0  0  0  0  0  0  0  0  0  0  0  0
   39.5950   32.6200   40.1500 C   0  0  0  0  0  0  0  0  0  0  0  0
   38.5700   31.5070   40.5800 C   0  0  2  0  0  0  0  0  0  0  0  0
   37.7340   32.7680   37.9510 H   0  0  0  0  0  0  0  0  0  0  0  0
   36.1360   32.6980   38.6840 H   0  0  0  0  0  0  0  0  0  0  0  0
   36.6640   34.2050   40.3270 H   0  0  0  0  0  0  0  0  0  0  0  0
   37.6050   34.7850   38.9530 H   0  0  0  0  0  0  0  0  0  0  0  0
   39.4740   34.8080   40.2430 H   0  0  0  0  0  0  0  0  0  0  0  0
   38.6090   33.9000   41.5060 H   0  0  0  0  0  0  0  0  0  0  0  0
   39.8300   32.4450   39.1020 H   0  0  0  0  0  0  0  0  0  0  0  0
   40.4290   32.5720   40.8580 H   0  0  0  0  0  0  0  0  0  0  0  0
   38.1850   31.7950   41.5910 H   0  0  0  0  0  0  0  0  0  0  0  0
   36.7480   30.3810   39.4430 C   0  0  0  0  0  0  0  0  0  0  0  0
   35.6870   30.7520   39.3970 H   0  0  0  0  0  0  0  0  0  0  0  0
   36.8920   29.7440   40.3300 H   0  0  0  0  0  0  0  0  0  0  0  0
   37.0100   29.6340   38.1790 C   0  0  0  0  0  0  0  0  0  0  0  0
   37.6860   30.1280   37.4680 H   0  0  0  0  0  0  0  0  0  0  0  0
   37.4800   28.6440   38.3990 H   0  0  0  0  0  0  0  0  0  0  0  0
   34.4530   28.9340   35.5190 C   0  0  0  0  0  0  0  0  0  0  0  0
   35.6750   29.2340   36.1480 C   0  0  0  0  0  0  0  0  0  0  0  0
   35.7170   29.3170   37.5190 C   0  0  0  0  0  0  0  0  0  0  0  0
   34.5770   29.1050   38.1930 N   0  0  0  0  0  0  0  0  0  0  0  0
   33.4130   28.8190   37.5700 C   0  0  0  0  0  0  0  0  0  0  0  0
   33.3420   28.7310   36.2350 N   0  0  0  0  0  0  0  0  0  0  0  0
   34.5530   28.8980   34.4310 H   0  0  0  0  0  0  0  0  0  0  0  0
   36.6000   29.4050   35.5930 H   0  0  0  0  0  0  0  0  0  0  0  0
   32.4910   28.6490   38.1280 H   0  0  0  0  0  0  0  0  0  0  0  0
   39.3760   30.3790   40.5980 O   0  0  0  0  0  0  0  0  0  0  0  0
   39.8820   31.0680   43.1160 O   0  0  0  0  0  0  0  0  0  0  0  0
   39.7690   29.8810   42.1560 P   0  0  2  0  0  0  0  0  0  0  0  0
   41.3590   29.2500   42.0630 O   0  0  0  0  0  0  0  0  0  0  0  0
   41.3160   28.5770   41.3480 H   0  0  0  0  0  0  0  0  0  0  0  0
   38.7760   28.6780   42.7090 O   0  0  0  0  0  0  0  0  0  0  0  0
   39.0150   27.3390   42.8090 C   0  0  0  0  0  0  0  0  0  0  0  0
   39.8820   26.6920   43.6780 C   0  0  0  0  0  0  0  0  0  0  0  0
   40.4110   27.3640   44.3380 H   0  0  0  0  0  0  0  0  0  0  0  0
   39.9870   25.3100   43.6280 C   0  0  0  0  0  3  0  0  0  0  0  0
   39.2500   24.5840   42.7370 C   0  0  0  0  0  3  0  0  0  0  0  0
   38.3880   25.1910   41.8680 C   0  0  0  0  0  0  0  0  0  0  0  0
   37.6700   24.4180   40.9910 C   0  0  0  0  0  3  0  0  0  0  0  0
   36.7950   25.0080   40.1060 C   0  0  0  0  0  3  0  0  0  0  0  0
   36.6530   26.3810   40.1150 C   0  0  0  0  0  3  0  0  0  0  0  0
   37.3810   27.1180   40.9990 C   0  0  0  0  0  3  0  0  0  0  0  0
   38.2760   26.5780   41.9120 C   0  0  0  0  0  0  0  0  0  0  0  0
  1  6  1  0  0  0  0
  2  1  1  0  0  0  0
  2  3  1  0  0  0  0
  3  9  1  0  0  0  0
  3  4  1  0  0  0  0
  4 12  1  0  0  0  0
  5  4  1  0  0  0  0
  5  6  1  0  0  0  0
  5 14  1  0  0  0  0
  6 31  1  0  0  0  0
  6 15  1  1  0  0  0
  7  2  1  0  0  0  0
  8  2  1  0  0  0  0
 10  3  1  0  0  0  0
 11  4  1  0  0  0  0
 13  5  1  0  0  0  0
 16  1  1  0  0  0  0
 16 18  1  0  0  0  0
 17 16  1  0  0  0  0
 19 21  1  0  0  0  0
 19 16  1  0  0  0  0
 20 19  1  0  0  0  0
 22 23  2  0  0  0  0
 22 27  1  0  0  0  0
 23 24  1  0  0  0  0
 24 19  1  0  0  0  0
 24 25  2  0  0  0  0
 26 30  1  0  0  0  0
 26 25  1  0  0  0  0
 27 26  2  0  0  0  0
 28 22  1  0  0  0  0
 29 23  1  0  0  0  0
 31 33  1  0  0  0  0
 33 36  1  0  0  0  0
 33 32  2  1  0  0  0
 34 33  1  0  0  0  0
 35 34  1  0  0  0  0
 36 37  1  0  0  0  0
 37 38  1  0  0  0  0
 38 39  1  0  0  0  0
 40 38  2  0  0  0  0
 41 40  1  0  0  0  0
 42 47  1  0  0  0  0
 42 41  2  0  0  0  0
 43 42  1  0  0  0  0
 44 45  1  0  0  0  0
 44 43  2  0  0  0  0
 45 46  2  0  0  0  0
 46 47  1  0  0  0  0
 47 37  2  0  0  0  0
M  END
>  <minimizedAffinity>
-5.79522133

$$$$

 OpenBabel03252509023D

 47 50  0  0  1  0  0  0  0  0999 V2000
   38.1110   28.4360   37.9900 N   0  0  0  0  0  0  0  0  0  0  0  0
   38.3470   28.2590   36.6020 C   0  0  0  0  0  0  0  0  0  0  0  0
   37.2460   28.7690   35.6970 C   0  0  0  0  0  0  0  0  0  0  0  0
   36.5230   29.9860   36.2210 C   0  0  0  0  0  0  0  0  0  0  0  0
   37.1430   30.4930   37.5000 C   0  0  0  0  0  0  0  0  0  0  0  0
   37.0850   29.2410   38.4500 C   0  0  2  0  0  0  0  0  0  0  0  0
   39.2410   28.8830   36.3460 H   0  0  0  0  0  0  0  0  0  0  0  0
   38.5970   27.2460   36.2880 H   0  0  0  0  0  0  0  0  0  0  0  0
   36.5700   27.9170   35.4570 H   0  0  0  0  0  0  0  0  0  0  0  0
   37.6900   29.0620   34.7180 H   0  0  0  0  0  0  0  0  0  0  0  0
   36.4090   30.7880   35.4540 H   0  0  0  0  0  0  0  0  0  0  0  0
   35.4910   29.6640   36.4840 H   0  0  0  0  0  0  0  0  0  0  0  0
   38.1910   30.7750   37.4130 H   0  0  0  0  0  0  0  0  0  0  0  0
   36.4630   31.2410   37.9200 H   0  0  0  0  0  0  0  0  0  0  0  0
   36.0430   28.8360   38.3890 H   0  0  0  0  0  0  0  0  0  0  0  0
   38.5450   27.3370   38.8000 C   0  0  0  0  0  0  0  0  0  0  0  0
   38.6300   27.6470   39.8780 H   0  0  0  0  0  0  0  0  0  0  0  0
   39.5220   27.0010   38.4210 H   0  0  0  0  0  0  0  0  0  0  0  0
   37.5250   26.2500   38.7330 C   0  0  0  0  0  0  0  0  0  0  0  0
   36.7530   26.2760   39.5140 H   0  0  0  0  0  0  0  0  0  0  0  0
   36.9720   26.2910   37.7630 H   0  0  0  0  0  0  0  0  0  0  0  0
   38.1090   22.5440   38.5610 C   0  0  0  0  0  0  0  0  0  0  0  0
   37.4630   23.7940   38.5570 C   0  0  0  0  0  0  0  0  0  0  0  0
   38.2120   24.9320   38.7370 C   0  0  0  0  0  0  0  0  0  0  0  0
   39.5340   24.7890   38.9090 N   0  0  0  0  0  0  0  0  0  0  0  0
   40.1350   23.5800   38.9100 C   0  0  0  0  0  0  0  0  0  0  0  0
   39.4310   22.4530   38.7370 N   0  0  0  0  0  0  0  0  0  0  0  0
   37.4050   21.7210   38.4090 H   0  0  0  0  0  0  0  0  0  0  0  0
   36.3860   23.9030   38.4170 H   0  0  0  0  0  0  0  0  0  0  0  0
   41.2120   23.4740   39.0510 H   0  0  0  0  0  0  0  0  0  0  0  0
   37.3850   29.8110   39.6780 O   0  0  0  0  0  0  0  0  0  0  0  0
   34.9410   28.9090   40.2120 O   0  0  0  0  0  0  0  0  0  0  0  0
   36.1870   29.5470   40.8300 P   0  0  2  0  0  0  0  0  0  0  0  0
   35.6680   31.1000   41.3350 O   0  0  0  0  0  0  0  0  0  0  0  0
   36.4940   31.5590   41.6080 H   0  0  0  0  0  0  0  0  0  0  0  0
   36.7510   28.7410   42.1610 O   0  0  0  0  0  0  0  0  0  0  0  0
   37.9970   28.2440   42.4060 C   0  0  0  0  0  0  0  0  0  0  0  0
   39.1630   28.9530   42.6550 C   0  0  0  0  0  0  0  0  0  0  0  0
   39.0250   30.0250   42.6450 H   0  0  0  0  0  0  0  0  0  0  0  0
   40.3430   28.2610   42.8840 C   0  0  0  0  0  3  0  0  0  0  0  0
   40.3680   26.8960   42.8660 C   0  0  0  0  0  3  0  0  0  0  0  0
   39.2380   26.1680   42.6240 C   0  0  0  0  0  0  0  0  0  0  0  0
   39.3140   24.7990   42.6160 C   0  0  0  0  0  3  0  0  0  0  0  0
   38.1870   24.0450   42.3740 C   0  0  0  0  0  3  0  0  0  0  0  0
   36.9870   24.6850   42.1410 C   0  0  0  0  0  3  0  0  0  0  0  0
   36.9460   26.0460   42.1560 C   0  0  0  0  0  3  0  0  0  0  0  0
   38.0480   26.8560   42.3940 C   0  0  0  0  0  0  0  0  0  0  0  0
  1  6  1  0  0  0  0
  1 16  1  0  0  0  0
  2  1  1  0  0  0  0
  3  4  1  0  0  0  0
  3  2  1  0  0  0  0
  4 12  1  0  0  0  0
  4  5  1  0  0  0  0
  5 14  1  0  0  0  0
  5  6  1  0  0  0  0
  6 15  1  6  0  0  0
  6 31  1  0  0  0  0
  7  2  1  0  0  0  0
  8  2  1  0  0  0  0
  9  3  1  0  0  0  0
 10  3  1  0  0  0  0
 11  4  1  0  0  0  0
 13  5  1  0  0  0  0
 16 17  1  0  0  0  0
 18 16  1  0  0  0  0
 19 24  1  0  0  0  0
 19 16  1  0  0  0  0
 19 20  1  0  0  0  0
 21 19  1  0  0  0  0
 22 27  1  0  0  0  0
 23 22  2  0  0  0  0
 23 24  1  0  0  0  0
 24 25  2  0  0  0  0
 25 26  1  0  0  0  0
 26 30  1  0  0  0  0
 27 26  2  0  0  0  0
 28 22  1  0  0  0  0
 29 23  1  0  0  0  0
 31 33  1  0  0  0  0
 33 32  2  6  0  0  0
 33 34  1  0  0  0  0
 33 36  1  0  0  0  0
 34 35  1  0  0  0  0
 36 37  1  0  0  0  0
 37 38  1  0  0  0  0
 38 40  2  0  0  0  0
 39 38  1  0  0  0  0
 41 40  1  0  0  0  0
 42 41  2  0  0  0  0
 43 42  1  0  0  0  0
 44 43  2  0  0  0  0
 45 46  2  0  0  0  0
 45 44  1  0  0  0  0
 46 47  1  0  0  0  0
 47 37  2  0  0  0  0
 47 42  1  0  0  0  0
M  END
>  <minimizedAffinity>
-5.77099466

$$$$

 OpenBabel03252509023D

 47 50  0  0  1  0  0  0  0  0999 V2000
   38.5020   28.7670   38.0550 N   0  0  0  0  0  0  0  0  0  0  0  0
   38.6900   28.3210   36.7220 C   0  0  0  0  0  0  0  0  0  0  0  0
   37.4250   27.8910   36.0100 C   0  0  0  0  0  0  0  0  0  0  0  0
   36.1900   28.6590   36.4140 C   0  0  0  0  0  0  0  0  0  0  0  0
   36.5200   29.7740   37.3750 C   0  0  0  0  0  0  0  0  0  0  0  0
   37.2410   29.0300   38.5580 C   0  0  2  0  0  0  0  0  0  0  0  0
   39.0620   29.2010   36.1380 H   0  0  0  0  0  0  0  0  0  0  0  0
   39.4360   27.5400   36.5820 H   0  0  0  0  0  0  0  0  0  0  0  0
   37.3210   26.7880   36.1210 H   0  0  0  0  0  0  0  0  0  0  0  0
   37.5540   28.0540   34.9150 H   0  0  0  0  0  0  0  0  0  0  0  0
   35.5910   29.0100   35.5420 H   0  0  0  0  0  0  0  0  0  0  0  0
   35.5360   27.9530   36.9720 H   0  0  0  0  0  0  0  0  0  0  0  0
   37.2230   30.5100   36.9900 H   0  0  0  0  0  0  0  0  0  0  0  0
   35.5730   30.1560   37.7720 H   0  0  0  0  0  0  0  0  0  0  0  0
   36.5990   28.1530   38.8290 H   0  0  0  0  0  0  0  0  0  0  0  0
   39.5350   28.3540   38.9580 C   0  0  0  0  0  0  0  0  0  0  0  0
   39.6240   27.2330   38.9740 H   0  0  0  0  0  0  0  0  0  0  0  0
   39.2800   28.7310   39.9610 H   0  0  0  0  0  0  0  0  0  0  0  0
   40.8420   28.8950   38.4840 C   0  0  0  0  0  0  0  0  0  0  0  0
   41.7320   28.5010   38.9950 H   0  0  0  0  0  0  0  0  0  0  0  0
   40.9920   28.6630   37.4010 H   0  0  0  0  0  0  0  0  0  0  0  0
   40.6300   32.3750   39.8800 C   0  0  0  0  0  0  0  0  0  0  0  0
   40.6520   30.9700   39.7960 C   0  0  0  0  0  0  0  0  0  0  0  0
   40.8200   30.3780   38.5680 C   0  0  0  0  0  0  0  0  0  0  0  0
   40.9580   31.1800   37.5010 N   0  0  0  0  0  0  0  0  0  0  0  0
   40.9350   32.5260   37.6030 C   0  0  0  0  0  0  0  0  0  0  0  0
   40.7720   33.1320   38.7880 N   0  0  0  0  0  0  0  0  0  0  0  0
   40.4890   32.7190   40.9090 H   0  0  0  0  0  0  0  0  0  0  0  0
   40.5390   30.3240   40.6680 H   0  0  0  0  0  0  0  0  0  0  0  0
   41.0470   33.1700   36.7290 H   0  0  0  0  0  0  0  0  0  0  0  0
   37.2670   30.0170   39.5330 O   0  0  0  0  0  0  0  0  0  0  0  0
   35.0500   28.8520   40.4270 O   0  0  0  0  0  0  0  0  0  0  0  0
   36.2790   29.6620   40.8470 P   0  0  2  0  0  0  0  0  0  0  0  0
   35.6420   31.1620   41.3770 O   0  0  0  0  0  0  0  0  0  0  0  0
   36.4330   31.7290   41.5200 H   0  0  0  0  0  0  0  0  0  0  0  0
   37.1130   28.9890   42.1080 O   0  0  0  0  0  0  0  0  0  0  0  0
   37.6320   27.7340   42.2270 C   0  0  0  0  0  0  0  0  0  0  0  0
   36.9660   26.5230   42.1050 C   0  0  0  0  0  0  0  0  0  0  0  0
   35.9130   26.6300   41.8890 H   0  0  0  0  0  0  0  0  0  0  0  0
   37.6740   25.3400   42.2610 C   0  0  0  0  0  3  0  0  0  0  0  0
   39.0120   25.3570   42.5320 C   0  0  0  0  0  3  0  0  0  0  0  0
   39.6970   26.5320   42.6590 C   0  0  0  0  0  0  0  0  0  0  0  0
   41.0410   26.4970   42.9320 C   0  0  0  0  0  3  0  0  0  0  0  0
   41.7500   27.6690   43.0630 C   0  0  0  0  0  3  0  0  0  0  0  0
   41.0930   28.8740   42.9170 C   0  0  0  0  0  3  0  0  0  0  0  0
   39.7590   28.8730   42.6460 C   0  0  0  0  0  3  0  0  0  0  0  0
   38.9930   27.7240   42.5030 C   0  0  0  0  0  0  0  0  0  0  0  0
  1  6  1  0  0  0  0
  1 16  1  0  0  0  0
  2  1  1  0  0  0  0
  3  9  1  0  0  0  0
  3  4  1  0  0  0  0
  3  2  1  0  0  0  0
  4 12  1  0  0  0  0
  4  5  1  0  0  0  0
  5 14  1  0  0  0  0
  5  6  1  0  0  0  0
  6 15  1  1  0  0  0
  6 31  1  0  0  0  0
  7  2  1  0  0  0  0
  8  2  1  0  0  0  0
 10  3  1  0  0  0  0
 11  4  1  0  0  0  0
 13  5  1  0  0  0  0
 16 17  1  0  0  0  0
 16 18  1  0  0  0  0
 19 24  1  0  0  0  0
 19 16  1  0  0  0  0
 19 20  1  0  0  0  0
 21 19  1  0  0  0  0
 22 28  1  0  0  0  0
 23 22  1  0  0  0  0
 23 29  1  0  0  0  0
 24 23  2  0  0  0  0
 25 26  2  0  0  0  0
 25 24  1  0  0  0  0
 26 27  1  0  0  0  0
 27 22  2  0  0  0  0
 30 26  1  0  0  0  0
 31 33  1  0  0  0  0
 33 32  2  6  0  0  0
 33 34  1  0  0  0  0
 33 36  1  0  0  0  0
 34 35  1  0  0  0  0
 36 37  1  0  0  0  0
 37 47  1  0  0  0  0
 38 37  2  0  0  0  0
 38 40  1  0  0  0  0
 39 38  1  0  0  0  0
 40 41  2  0  0  0  0
 41 42  1  0  0  0  0
 42 43  1  0  0  0  0
 43 44  2  0  0  0  0
 45 44  1  0  0  0  0
 46 45  2  0  0  0  0
 47 46  1  0  0  0  0
 47 42  2  0  0  0  0
M  END
>  <minimizedAffinity>
-5.75477219

$$$$
