REMARK  Name = 
REMARK  5 active torsions:
REMARK  status: ('A' for Active; 'I' for Inactive)
REMARK    1  A    between atoms: C_3  and  C_14
REMARK    2  A    between atoms: C_5  and  C_7
REMARK    3  A    between atoms: C_12  and  N_13
REMARK    4  A    between atoms: C_18  and  O_20
REMARK    5  A    between atoms: O_20  and  C_36
REMARK                            x       y       z     vdW  Elec       q    Type
REMARK                         _______ _______ _______ _____ _____    ______ ____
ROOT
ATOM      1  C   UNL     1      44.564  35.580  44.608  0.00  0.00    +0.000 A 
ATOM      2  C   UNL     1      45.220  35.592  43.361  0.00  0.00    +0.000 A 
ATOM      3  C   UNL     1      46.316  34.683  43.179  0.00  0.00    +0.000 A 
ATOM      4  N   UNL     1      46.657  33.873  44.200  0.00  0.00    +0.000 NA
ATOM      5  C   UNL     1      46.011  33.889  45.374  0.00  0.00    +0.000 A 
ATOM      6  N   UNL     1      44.955  34.745  45.589  0.00  0.00    +0.000 NA
ATOM      7  H   UNL     1      43.732  36.258  44.772  0.00  0.00    +0.000 HD
ATOM      8  H   UNL     1      44.911  36.258  42.574  0.00  0.00    +0.000 HD
ENDROOT
BRANCH   5   9
ATOM      9  C   UNL     1      46.432  32.978  46.465  0.00  0.00    +0.000 C 
ATOM     10  C   UNL     1      46.963  31.747  45.764  0.00  0.00    +0.000 C 
ATOM     11  C   UNL     1      46.095  30.558  45.779  0.00  0.00    +0.000 C 
ATOM     12  C   UNL     1      45.811  30.300  47.261  0.00  0.00    +0.000 C 
ATOM     13  C   UNL     1      45.023  31.359  47.878  0.00  0.00    +0.000 C 
ATOM     14  C   UNL     1      45.394  32.730  47.420  0.00  0.00    +0.000 C 
ATOM     15  H   UNL     1      47.285  33.509  46.965  0.00  0.00    +0.000 HD
ATOM     16  H   UNL     1      47.250  31.939  44.706  0.00  0.00    +0.000 HD
ATOM     17  H   UNL     1      47.918  31.471  46.262  0.00  0.00    +0.000 HD
ATOM     18  H   UNL     1      46.703  29.696  45.453  0.00  0.00    +0.000 HD
ATOM     19  H   UNL     1      45.169  30.597  45.205  0.00  0.00    +0.000 HD
ATOM     20  H   UNL     1      45.148  29.398  47.249  0.00  0.00    +0.000 HD
ATOM     21  H   UNL     1      46.734  30.010  47.782  0.00  0.00    +0.000 HD
ATOM     22  H   UNL     1      44.243  31.341  48.580  0.00  0.00    +0.000 HD
BRANCH  14  23
ATOM     23  N   UNL     1      44.700  33.873  47.935  0.00  0.00    +0.000 N 
ATOM     24  H   UNL     1      43.709  34.245  47.845  0.00  0.00    +0.000 HD
ATOM     25  H   UNL     1      45.142  34.601  48.562  0.00  0.00    +0.000 HD
ENDBRANCH  14  23
ENDBRANCH   5   9
BRANCH   3  26
ATOM     26  C   UNL     1      47.009  34.670  41.900  0.00  0.00    +0.000 A 
ATOM     27  C   UNL     1      48.149  35.384  41.775  0.00  0.00    +0.000 A 
ATOM     28  C   UNL     1      48.780  35.339  40.522  0.00  0.00    +0.000 A 
ATOM     29  C   UNL     1      48.178  34.579  39.557  0.00  0.00    +0.000 A 
ATOM     30  C   UNL     1      47.018  33.845  39.666  0.00  0.00    +0.000 A 
ATOM     31  N   UNL     1      46.465  33.942  40.920  0.00  0.00    +0.000 NA
ATOM     32  H   UNL     1      48.527  35.947  42.614  0.00  0.00    +0.000 HD
ATOM     33  H   UNL     1      49.681  35.890  40.386  0.00  0.00    +0.000 HD
ATOM     34  H   UNL     1      48.713  34.599  38.617  0.00  0.00    +0.000 HD
BRANCH  30  35
ATOM     35  O   UNL     1      46.452  33.099  38.662  0.00  0.00    +0.000 OA
BRANCH  35  36
ATOM     36  C   UNL     1      47.066  32.975  37.440  0.00  0.00    +0.000 A 
ATOM     37  C   UNL     1      46.169  32.585  36.440  0.00  0.00    +0.000 A 
ATOM     38  H   UNL     1      45.108  32.397  36.589  0.00  0.00    +0.000 HD
ATOM     39  C   UNL     1      46.603  32.406  35.124  0.00  0.00    +0.000 A 
ATOM     40  C   UNL     1      47.919  32.601  34.752  0.00  0.00    +0.000 A 
ATOM     41  C   UNL     1      48.782  32.984  35.758  0.00  0.00    +0.000 A 
ATOM     42  C   UNL     1      50.123  33.192  35.507  0.00  0.00    +0.000 A 
ATOM     43  C   UNL     1      50.979  33.562  36.539  0.00  0.00    +0.000 A 
ATOM     44  C   UNL     1      50.548  33.737  37.837  0.00  0.00    +0.000 A 
ATOM     45  C   UNL     1      49.210  33.531  38.095  0.00  0.00    +0.000 A 
ATOM     46  C   UNL     1      48.378  33.167  37.063  0.00  0.00    +0.000 A 
ENDBRANCH  35  36
ENDBRANCH  30  35
ENDBRANCH   3  26
TORSDOF 5
