
     RDKit          3D

 45 48  0  0  0  0  0  0  0  0999 V2000
   46.3258   35.0004   41.9140 C   0  0  0  0  0  0  0  0  0  0  0  0
   44.8596   34.9394   41.6929 C   0  0  0  0  0  0  0  0  0  0  0  0
   43.9713   35.4273   42.7125 C   0  0  0  0  0  0  0  0  0  0  0  0
   42.3128   35.1330   41.9669 S   0  0  0  0  0  0  0  0  0  0  0  0
   43.1063   34.4013   40.4056 C   0  0  0  0  0  0  0  0  0  0  0  0
   44.2155   34.4849   40.6554 N   0  0  0  0  0  0  0  0  0  0  0  0
   42.3571   33.9343   39.3345 O   0  0  0  0  0  0  0  0  0  0  0  0
   40.4058   34.3972   37.5921 O   0  0  0  0  0  0  0  0  0  0  0  0
   41.4942   35.0919   38.4173 P   0  0  0  0  0  0  0  0  0  0  0  0
   40.7617   36.1686   39.5043 O   0  0  0  0  0  0  0  0  0  0  0  0
   42.5627   35.9438   37.4239 O   0  0  0  0  0  0  0  0  0  0  0  0
   47.1255   34.3325   40.8411 C   0  0  0  0  0  0  0  0  0  0  0  0
   48.4666   33.9075   41.2831 C   0  0  0  0  0  0  0  0  0  0  0  0
   48.9291   32.6981   40.7906 C   0  0  0  0  0  0  0  0  0  0  0  0
   50.1805   32.2167   41.1513 C   0  0  0  0  0  0  0  0  0  0  0  0
   50.9197   33.0027   42.0141 N   0  0  0  0  0  0  0  0  0  0  0  0
   50.4334   34.1739   42.4711 C   0  0  0  0  0  0  0  0  0  0  0  0
   49.2343   34.6115   42.1109 N   0  0  0  0  0  0  0  0  0  0  0  0
   47.9182   31.7242   39.6763 S   0  0  0  0  0  0  0  0  0  0  0  0
   46.6301   36.0439   42.0011 H   0  0  0  0  0  0  0  0  0  0  0  0
   46.5529   34.5172   42.9073 H   0  0  0  0  0  0  0  0  0  0  0  0
   44.2511   35.8537   43.6666 H   0  0  0  0  0  0  0  0  0  0  0  0
   39.8712   35.8124   39.7241 H   0  0  0  0  0  0  0  0  0  0  0  0
   42.6651   36.8845   37.6862 H   0  0  0  0  0  0  0  0  0  0  0  0
   47.2130   35.0321   39.9605 H   0  0  0  0  0  0  0  0  0  0  0  0
   46.5250   33.4876   40.4738 H   0  0  0  0  0  0  0  0  0  0  0  0
   50.5517   31.2738   40.7728 H   0  0  0  0  0  0  0  0  0  0  0  0
   51.1068   34.7044   43.1443 H   0  0  0  0  0  0  0  0  0  0  0  0
   48.2016   32.1277   37.9841 C   0  0  0  0  0  0  0  0  0  0  0  0
   48.3555   31.1664   37.0061 C   0  0  0  0  0  0  0  0  0  0  0  0
   48.2994   30.1226   37.2944 H   0  0  0  0  0  0  0  0  0  0  0  0
   48.5726   31.5335   35.7129 C   0  0  0  0  0  0  0  0  0  0  0  0
   48.6432   32.8790   35.3522 C   0  0  0  0  0  0  0  0  0  0  0  0
   48.4855   33.8347   36.3526 C   0  0  0  0  0  0  0  0  0  0  0  0
   48.5543   35.1770   36.0030 C   0  0  0  0  0  0  0  0  0  0  0  0
   48.4049   36.1618   36.9542 C   0  0  0  0  0  0  0  0  0  0  0  0
   48.1812   35.8125   38.2887 C   0  0  0  0  0  0  0  0  0  0  0  0
   48.1149   34.4613   38.6229 C   0  0  0  0  0  0  0  0  0  0  0  0
   48.2624   33.4723   37.6829 C   0  0  0  0  0  0  0  0  0  0  0  0
   48.6937   30.7767   34.9437 H   0  0  0  0  0  0  0  0  0  0  0  0
   48.8159   33.2068   34.3254 H   0  0  0  0  0  0  0  0  0  0  0  0
   48.7214   35.5182   35.0098 H   0  0  0  0  0  0  0  0  0  0  0  0
   48.4565   37.2204   36.6951 H   0  0  0  0  0  0  0  0  0  0  0  0
   48.0676   36.5988   39.0143 H   0  0  0  0  0  0  0  0  0  0  0  0
   47.9434   34.2155   39.6471 H   0  0  0  0  0  0  0  0  0  0  0  0
  2  1  1  0
  2  3  2  0
  4  3  1  0
  5  6  2  0
  5  4  1  0
  6  2  1  0
  7  5  1  0
  8  9  2  0
  9  7  1  0
  9 10  1  0
 11  9  1  0
 12 13  1  0
 12  1  1  0
 13 18  2  0
 14 15  2  0
 14 13  1  0
 15 16  1  0
 16 17  2  0
 18 17  1  0
 19 14  1  0
  1 20  1  0
  1 21  1  0
  3 22  1  0
 10 23  1  0
 11 24  1  0
 12 25  1  0
 12 26  1  0
 15 27  1  0
 17 28  1  0
 29 30  2  0
 30 31  1  0
 30 32  1  0
 32 33  2  0
 33 34  1  0
 34 35  2  0
 35 36  1  0
 36 37  2  0
 37 38  1  0
 38 39  2  0
 39 29  1  0
 39 34  1  0
 32 40  1  0
 33 41  1  0
 35 42  1  0
 36 43  1  0
 37 44  1  0
 38 45  1  0
 19 29  1  0
M  ISO  8  20   8  21   8  22  14  23   3  24   3  25   8  26   8  27  14
M  ISO  2  28  14  31  15
M  END
>  <DihAtoms>  (1) 
13,18,28,29

>  <DihDeg>  (1) 
-0.00030612089000232754

$$$$
