
 OpenBabel03252507553D

 46 50  0  0  1  0  0  0  0  0999 V2000
   48.8640   32.7920   39.7560 C   0  0  2  0  0  0  0  0  0  0  0  0
   49.3700   32.9830   41.1080 C   0  0  0  0  0  0  0  0  0  0  0  0
   47.9400   32.6120   40.8750 C   0  0  1  0  0  0  0  0  0  0  0  0
   48.7260   33.6920   39.1290 H   0  0  0  0  0  0  0  0  0  0  0  0
   49.9600   32.1580   41.5790 H   0  0  0  0  0  0  0  0  0  0  0  0
   49.5660   33.9740   41.5680 H   0  0  0  0  0  0  0  0  0  0  0  0
   47.5210   31.6080   40.9730 H   0  0  0  0  0  0  0  0  0  0  0  0
   51.4580   30.5000   38.7590 C   0  0  2  0  0  0  0  0  0  0  0  0
   51.5500   31.7330   37.8550 C   0  0  0  0  0  0  0  0  0  0  0  0
   50.0340   31.9640   37.6710 C   0  0  0  0  0  0  0  0  0  0  0  0
   49.4300   31.6140   38.9970 C   0  0  1  0  0  0  0  0  0  0  0  0
   50.5460   31.0450   39.8210 C   0  0  0  0  0  0  0  0  0  0  0  0
   50.9600   29.6760   38.2260 H   0  0  0  0  0  0  0  0  0  0  0  0
   51.9860   32.5340   38.4590 H   0  0  0  0  0  0  0  0  0  0  0  0
   52.0340   31.5290   36.8990 H   0  0  0  0  0  0  0  0  0  0  0  0
   49.8600   33.0160   37.3750 H   0  0  0  0  0  0  0  0  0  0  0  0
   49.6570   31.2610   36.9090 H   0  0  0  0  0  0  0  0  0  0  0  0
   48.6300   30.8400   38.9120 H   0  0  0  0  0  0  0  0  0  0  0  0
   51.0600   31.8480   40.3850 H   0  0  0  0  0  0  0  0  0  0  0  0
   50.2120   30.2820   40.5550 H   0  0  0  0  0  0  0  0  0  0  0  0
   55.0500   29.4280   39.0980 C   0  0  0  0  0  0  0  0  0  0  0  0
   53.8570   29.7660   38.4720 C   0  0  0  0  0  0  0  0  0  0  0  0
   52.7970   30.1380   39.2980 C   0  0  0  0  0  0  0  0  0  0  0  0
   52.9570   30.1590   40.6890 N   0  0  0  0  0  0  0  0  0  0  0  0
   54.1510   29.8160   41.2400 C   0  0  0  0  0  0  0  0  0  0  0  0
   55.1910   29.4530   40.4450 N   0  0  0  0  0  0  0  0  0  0  0  0
   55.8830   29.1370   38.4710 H   0  0  0  0  0  0  0  0  0  0  0  0
   53.7060   29.7570   37.4040 H   0  0  0  0  0  0  0  0  0  0  0  0
   54.1610   29.8680   42.3200 H   0  0  0  0  0  0  0  0  0  0  0  0
   46.9670   33.6230   41.0820 O   0  0  0  0  0  0  0  0  0  0  0  0
   45.0080   33.3080   39.3880 O   0  0  0  0  0  0  0  0  0  0  0  0
   45.4530   32.9560   40.7850 P   0  0  1  0  0  0  0  0  0  0  0  0
   45.5350   31.2460   40.8880 O   0  0  0  0  0  0  0  0  0  0  0  0
   45.6910   30.8680   39.9930 H   0  0  0  0  0  0  0  0  0  0  0  0
   44.2740   33.4430   41.8520 O   0  0  0  0  0  0  0  0  0  0  0  0
   42.9880   32.9420   41.7170 C   0  0  0  0  0  0  0  0  0  0  0  0
   42.5720   31.6520   41.9620 C   0  0  0  0  0  0  0  0  0  0  0  0
   43.3330   30.9640   42.2940 H   0  0  0  0  0  0  0  0  0  0  0  0
   41.2580   31.2690   41.7920 C   0  0  0  0  0  3  0  0  0  0  0  0
   40.2950   32.1850   41.3610 C   0  0  0  0  0  3  0  0  0  0  0  0
   40.6940   33.4790   41.1110 C   0  0  0  0  0  0  0  0  0  0  0  0
   39.7510   34.4060   40.6820 C   0  0  0  0  0  3  0  0  0  0  0  0
   40.1150   35.7270   40.4180 C   0  0  0  0  0  3  0  0  0  0  0  0
   41.4420   36.1070   40.5920 C   0  0  0  0  0  3  0  0  0  0  0  0
   42.3290   35.1520   41.0180 C   0  0  0  0  0  3  0  0  0  0  0  0
   42.0200   33.8370   41.2900 C   0  0  0  0  0  0  0  0  0  0  0  0
  1  4  1  6  0  0  0
  1  3  1  0  0  0  0
  1  2  1  0  0  0  0
  2  6  1  0  0  0  0
  2  5  1  0  0  0  0
  3  7  1  1  0  0  0
  3 30  1  0  0  0  0
  3  2  1  0  0  0  0
  8 13  1  6  0  0  0
  8 23  1  0  0  0  0
  8 12  1  0  0  0  0
  9 14  1  0  0  0  0
  9  8  1  0  0  0  0
 10  9  1  0  0  0  0
 10 11  1  0  0  0  0
 11 18  1  6  0  0  0
 11  1  1  0  0  0  0
 11 12  1  0  0  0  0
 12 19  1  0  0  0  0
 12 20  1  0  0  0  0
 15  9  1  0  0  0  0
 16 10  1  0  0  0  0
 17 10  1  0  0  0  0
 21 26  1  0  0  0  0
 22 21  2  0  0  0  0
 22 23  1  0  0  0  0
 23 24  2  0  0  0  0
 24 25  1  0  0  0  0
 25 29  1  0  0  0  0
 26 25  2  0  0  0  0
 27 21  1  0  0  0  0
 28 22  1  0  0  0  0
 32 31  2  6  0  0  0
 32 33  1  0  0  0  0
 32 30  1  0  0  0  0
 32 35  1  0  0  0  0
 34 33  1  0  0  0  0
 36 35  1  0  0  0  0
 36 37  1  0  0  0  0
 37 38  1  0  0  0  0
 39 37  2  0  0  0  0
 40 39  1  0  0  0  0
 41 46  1  0  0  0  0
 41 40  2  0  0  0  0
 42 41  1  0  0  0  0
 43 44  1  0  0  0  0
 43 42  2  0  0  0  0
 44 45  2  0  0  0  0
 45 46  1  0  0  0  0
 46 36  2  0  0  0  0
M  END
>  <minimizedAffinity>
-4.39475203

>  <minimizedRMSD>
11.1715593

$$$$
