
     RDKit          3D

 55 59  0  0  0  0  0  0  0  0999 V2000
   46.0831   33.8422   43.1342 C   0  0  2  0  0  0  0  0  0  0  0  0
   45.3466   34.9586   42.4828 C   0  0  2  0  0  0  0  0  0  0  0  0
   45.1854   36.1411   43.3661 C   0  0  0  0  0  0  0  0  0  0  0  0
   44.6116   35.8371   44.7234 C   0  0  0  0  0  0  0  0  0  0  0  0
   45.0399   34.5034   45.2854 C   0  0  0  0  0  0  0  0  0  0  0  0
   46.3018   33.9996   44.6140 C   0  0  0  0  0  0  0  0  0  0  0  0
   47.3874   33.5761   42.4950 C   0  0  0  0  0  0  0  0  0  0  0  0
   48.4320   34.3891   42.9331 C   0  0  0  0  0  0  0  0  0  0  0  0
   49.7238   34.2319   42.4065 C   0  0  0  0  0  0  0  0  0  0  0  0
   49.8605   33.2344   41.4476 N   0  0  0  0  0  0  0  0  0  0  0  0
   48.8172   32.4676   41.0502 C   0  0  0  0  0  0  0  0  0  0  0  0
   47.5788   32.6340   41.5705 N   0  0  0  0  0  0  0  0  0  0  0  0
   43.2627   35.4667   41.1496 C   0  0  1  0  0  0  0  0  0  0  0  0
   44.0046   34.4706   41.9799 C   0  0  1  0  0  0  0  0  0  0  0  0
   44.2204   33.3237   41.2233 O   0  0  0  0  0  0  0  0  0  0  0  0
   44.0713   33.6592   39.8800 C   0  0  0  0  0  0  0  0  0  0  0  0
   42.8716   34.5964   39.9418 C   0  0  2  0  0  0  0  0  0  0  0  0
   42.0984   35.9162   41.7446 O   0  0  0  0  0  0  0  0  0  0  0  0
   42.7630   35.3679   38.8152 O   0  0  0  0  0  0  0  0  0  0  0  0
   45.4845   32.8920   42.9900 H   0  0  0  0  0  0  0  0  0  0  0  0
   45.9264   35.2900   41.5976 H   0  0  0  0  0  0  0  0  0  0  0  0
   44.5073   36.8777   42.8916 H   0  0  0  0  0  0  0  0  0  0  0  0
   46.1779   36.6351   43.5105 H   0  0  0  0  0  0  0  0  0  0  0  0
   44.9997   36.6066   45.4369 H   0  0  0  0  0  0  0  0  0  0  0  0
   43.4997   35.9445   44.7213 H   0  0  0  0  0  0  0  0  0  0  0  0
   45.2134   34.5650   46.3696 H   0  0  0  0  0  0  0  0  0  0  0  0
   44.2571   33.7388   45.0965 H   0  0  0  0  0  0  0  0  0  0  0  0
   46.4768   32.9735   45.0226 H   0  0  0  0  0  0  0  0  0  0  0  0
   47.1015   34.6585   44.9235 H   0  0  0  0  0  0  0  0  0  0  0  0
   48.4749   35.1946   43.6491 H   0  0  0  0  0  0  0  0  0  0  0  0
   50.6048   34.7967   42.6662 H   0  0  0  0  0  0  0  0  0  0  0  0
   49.0337   31.7155   40.2928 H   0  0  0  0  0  0  0  0  0  0  0  0
   43.9079   36.2894   40.8432 H   0  0  0  0  0  0  0  0  0  0  0  0
   43.3430   34.1687   42.8189 H   0  0  0  0  0  0  0  0  0  0  0  0
   43.7641   32.7261   39.3556 H   0  0  0  0  0  0  0  0  0  0  0  0
   44.9497   34.1282   39.4301 H   0  0  0  0  0  0  0  0  0  0  0  0
   41.9724   34.0173   40.1505 H   0  0  0  0  0  0  0  0  0  0  0  0
   42.1234   35.8966   42.7363 H   0  0  0  0  0  0  0  0  0  0  0  0
   41.6238   35.3896   38.0456 C   0  0  0  0  0  0  0  0  0  0  0  0
   41.3569   35.8460   36.7749 C   0  0  0  0  0  0  0  0  0  0  0  0
   42.2190   36.2715   36.2895 H   0  0  0  0  0  0  0  0  0  0  0  0
   40.1144   35.7652   36.1883 C   0  0  0  0  0  0  0  0  0  0  0  0
   39.0658   35.2120   36.8647 C   0  0  0  0  0  0  0  0  0  0  0  0
   39.2851   34.7390   38.1457 C   0  0  0  0  0  0  0  0  0  0  0  0
   38.1748   34.1985   38.7526 C   0  0  0  0  0  0  0  0  0  0  0  0
   38.3094   33.7038   40.0326 C   0  0  0  0  0  0  0  0  0  0  0  0
   39.5308   33.7583   40.6699 C   0  0  0  0  0  0  0  0  0  0  0  0
   40.6100   34.3100   40.0159 C   0  0  0  0  0  0  0  0  0  0  0  0
   40.5486   34.8225   38.7391 C   0  0  0  0  0  0  0  0  0  0  0  0
   40.0869   36.1734   35.1848 H   0  0  0  0  0  0  0  0  0  0  0  0
   38.1166   35.1742   36.3587 H   0  0  0  0  0  0  0  0  0  0  0  0
   37.2176   34.1442   38.2815 H   0  0  0  0  0  0  0  0  0  0  0  0
   37.4582   33.2713   40.5417 H   0  0  0  0  0  0  0  0  0  0  0  0
   39.6454   33.3710   41.6777 H   0  0  0  0  0  0  0  0  0  0  0  0
   41.5560   34.3477   40.5205 H   0  0  0  0  0  0  0  0  0  0  0  0
  1  6  1  0
  2  1  1  0
  2  3  1  0
  3  4  1  0
  4  5  1  0
  6  5  1  0
  7  8  2  0
  7  1  1  0
  9  8  1  0
 10  9  2  0
 11 10  1  0
 11 12  2  0
 12  7  1  0
 13 18  1  0
 13 14  1  0
 14 15  1  0
 14  2  1  0
 16 17  1  0
 16 15  1  0
 17 19  1  0
 17 13  1  0
  1 20  1  1
  2 21  1  6
  3 22  1  0
  3 23  1  0
  4 24  1  0
  4 25  1  0
  5 26  1  0
  5 27  1  0
  6 28  1  0
  6 29  1  0
  8 30  1  0
  9 31  1  0
 11 32  1  0
 13 33  1  6
 14 34  1  1
 16 35  1  0
 16 36  1  0
 17 37  1  1
 18 38  1  0
 39 40  2  0
 40 41  1  0
 40 42  1  0
 42 43  2  0
 43 44  1  0
 44 45  2  0
 45 46  1  0
 46 47  2  0
 47 48  1  0
 48 49  2  0
 49 39  1  0
 49 44  1  0
 42 50  1  0
 43 51  1  0
 45 52  1  0
 46 53  1  0
 47 54  1  0
 48 55  1  0
 19 39  1  0
M  ISO  8  20  13  21  13  22  13  23  13  24  13  25  13  26  13  27  13
M  ISO  8  28  13  29  13  30  14  31  14  32  14  33  13  34  13  35  13
M  ISO  4  36  13  37  13  38   3  41  15
M  END
>  <DihAtoms>  (1) 
16,18,38,39

>  <DihDeg>  (1) 
0.000723082803647874

$$$$
