
 OpenBabel03252503593D

 36 40  0  0  0  0  0  0  0  0999 V2000
   47.0330   35.0850   42.6320 C   0  0  0  0  0  0  0  0  0  0  0  0
   45.9710   35.9430   42.3880 C   0  0  0  0  0  0  0  0  0  0  0  0
   44.8510   35.8190   43.1920 C   0  0  0  0  0  0  0  0  0  0  0  0
   44.8460   34.8780   44.1670 N   0  0  0  0  0  0  0  0  0  0  0  0
   45.9150   34.0510   44.3740 C   0  0  0  0  0  0  0  0  0  0  0  0
   47.0060   34.1590   43.6040 N   0  0  0  0  0  0  0  0  0  0  0  0
   45.9300   36.7040   41.6270 H   0  0  0  0  0  0  0  0  0  0  0  0
   43.9880   36.4620   43.0520 H   0  0  0  0  0  0  0  0  0  0  0  0
   46.2010   31.7390   45.0670 C   0  0  0  0  0  0  0  0  0  0  0  0
   45.8810   33.0460   45.4300 C   0  0  0  0  0  0  0  0  0  0  0  0
   45.5560   33.3210   46.7340 C   0  0  0  0  0  0  0  0  0  0  0  0
   45.5520   32.3030   47.6570 C   0  0  0  0  0  0  0  0  0  0  0  0
   45.2790   32.2770   48.9780 N   0  0  0  0  0  0  0  0  0  0  0  0
   45.4090   31.0360   49.4630 C   0  0  0  0  0  0  0  0  0  0  0  0
   45.7790   30.2040   48.4410 C   0  0  0  0  0  0  0  0  0  0  0  0
   45.8700   30.9980   47.3040 C   0  0  0  0  0  0  0  0  0  0  0  0
   46.1980   30.7150   45.9930 C   0  0  0  0  0  0  0  0  0  0  0  0
   46.4730   31.4160   44.0570 H   0  0  0  0  0  0  0  0  0  0  0  0
   45.3100   34.3390   46.9990 H   0  0  0  0  0  0  0  0  0  0  0  0
   45.0030   33.1090   49.5590 H   0  0  0  0  0  0  0  0  0  0  0  0
   45.2500   30.7250   50.4970 H   0  0  0  0  0  0  0  0  0  0  0  0
   45.9790   29.1260   48.4480 H   0  0  0  0  0  0  0  0  0  0  0  0
   46.4410   29.6880   45.7460 H   0  0  0  0  0  0  0  0  0  0  0  0
   48.1860   35.2570   41.7550 C   0  0  0  0  0  0  0  0  0  0  0  0
   48.9730   36.2710   41.8130 O   0  0  0  0  0  0  0  0  0  0  0  0
   48.2820   34.1230   40.8400 C   0  0  0  0  0  0  0  0  0  0  0  0
   47.4100   33.9840   39.7570 C   0  0  0  0  0  0  0  0  0  0  0  0
   46.6330   34.7450   39.5960 H   0  0  0  0  0  0  0  0  0  0  0  0
   47.4430   32.9460   38.8510 C   0  0  0  0  0  3  0  0  0  0  0  0
   48.3970   31.9690   39.0090 C   0  0  0  0  0  3  0  0  0  0  0  0
   49.2860   32.0490   40.0600 C   0  0  0  0  0  0  0  0  0  0  0  0
   50.2310   31.0540   40.1960 C   0  0  0  0  0  3  0  0  0  0  0  0
   51.1480   31.0830   41.2290 C   0  0  0  0  0  3  0  0  0  0  0  0
   51.0580   32.1470   42.0980 C   0  0  0  0  0  3  0  0  0  0  0  0
   50.1110   33.1410   41.9600 C   0  0  0  0  0  3  0  0  0  0  0  0
   49.1980   33.1150   40.9310 C   0  0  0  0  0  0  0  0  0  0  0  0
  1  6  1  0  0  0  0
  2  1  2  0  0  0  0
  2  3  1  0  0  0  0
  3  4  2  0  0  0  0
  4  5  1  0  0  0  0
  5 10  1  0  0  0  0
  6  5  2  0  0  0  0
  7  2  1  0  0  0  0
  8  3  1  0  0  0  0
  9 10  2  0  0  0  0
  9 17  1  0  0  0  0
 10 11  1  0  0  0  0
 11 19  1  0  0  0  0
 11 12  2  0  0  0  0
 12 13  1  0  0  0  0
 13 14  1  0  0  0  0
 13 20  1  0  0  0  0
 14 21  1  0  0  0  0
 15 22  1  0  0  0  0
 15 14  2  0  0  0  0
 16 12  1  0  0  0  0
 16 15  1  0  0  0  0
 17 16  2  0  0  0  0
 18  9  1  0  0  0  0
 23 17  1  0  0  0  0
 24 25  2  0  0  0  0
 24  1  1  0  0  0  0
 26 36  1  0  0  0  0
 26 24  1  0  0  0  0
 27 26  2  0  0  0  0
 28 27  1  0  0  0  0
 29 30  2  0  0  0  0
 29 27  1  0  0  0  0
 30 31  1  0  0  0  0
 31 32  2  0  0  0  0
 31 36  1  0  0  0  0
 32 33  1  0  0  0  0
 33 34  2  0  0  0  0
 35 34  1  0  0  0  0
 36 35  2  0  0  0  0
M  END
>  <minimizedAffinity>
-6.82666779

>  <minimizedRMSD>
0.833233654

$$$$
