
 OpenBabel03252508033D

 44 48  0  0  1  0  0  0  0  0999 V2000
   42.0550   33.2630   41.1230 C   0  0  0  0  0  0  0  0  0  0  0  0
   42.7850   34.3970   41.3120 C   0  0  0  0  0  0  0  0  0  0  0  0
   42.1270   35.6380   41.2830 C   0  0  0  0  0  0  0  0  0  0  0  0
   40.7780   35.7640   41.0720 C   0  0  0  0  0  0  0  0  0  0  0  0
   40.0390   34.6260   40.8820 C   0  0  0  0  0  0  0  0  0  0  0  0
   40.6790   33.4260   40.9110 C   0  0  0  0  0  0  0  0  0  0  0  0
   42.6360   36.5820   41.4140 H   0  0  0  0  0  0  0  0  0  0  0  0
   40.2800   36.7050   41.0500 H   0  0  0  0  0  0  0  0  0  0  0  0
   38.9750   34.6320   40.7100 H   0  0  0  0  0  0  0  0  0  0  0  0
   40.0800   32.5140   40.7570 H   0  0  0  0  0  0  0  0  0  0  0  0
   42.6960   31.7110   41.2580 S   0  0  0  0  0  0  0  0  0  0  0  0
   41.5520   30.9050   40.5560 O   0  0  0  0  0  0  0  0  0  0  0  0
   42.7330   31.2060   42.6390 O   0  0  0  0  0  0  0  0  0  0  0  0
   43.7680   30.8940   40.2330 C   0  0  0  0  0  0  0  0  0  0  0  0
   44.2100   31.2130   38.9240 C   0  0  0  0  0  0  0  0  0  0  0  0
   43.7770   32.1890   38.5990 H   0  0  0  0  0  0  0  0  0  0  0  0
   45.0080   30.5430   38.0130 C   0  0  0  0  0  3  0  0  0  0  0  0
   45.3940   29.3660   38.5510 C   0  0  0  0  0  3  0  0  0  0  0  0
   45.0580   28.9010   39.7980 C   0  0  0  0  0  0  0  0  0  0  0  0
   45.5890   27.6470   40.1090 C   0  0  0  0  0  3  0  0  0  0  0  0
   45.3170   27.0870   41.3340 C   0  0  0  0  0  3  0  0  0  0  0  0
   44.5240   27.7920   42.2110 C   0  0  0  0  0  3  0  0  0  0  0  0
   44.0440   29.0170   41.8220 C   0  0  0  0  0  3  0  0  0  0  0  0
   44.2620   29.6520   40.6200 C   0  0  0  0  0  0  0  0  0  0  0  0
   44.2290   34.3620   41.5390 C   0  0  0  0  0  0  0  0  0  0  0  0
   45.0980   34.2660   40.6220 O   0  0  0  0  0  0  0  0  0  0  0  0
   44.5880   34.4510   42.9280 C   0  0  0  0  0  0  0  0  0  0  0  0
   44.3080   35.7110   43.5670 C   0  0  0  0  0  0  0  0  0  0  0  0
   44.6300   35.8170   44.9100 C   0  0  0  0  0  0  0  0  0  0  0  0
   45.1790   34.7410   45.5330 N   0  0  0  0  0  0  0  0  0  0  0  0
   45.4230   33.5630   44.8740 C   0  0  0  0  0  0  0  0  0  0  0  0
   45.1290   33.4590   43.6260 N   0  0  0  0  0  0  0  0  0  0  0  0
   43.8850   36.5980   43.1560 H   0  0  0  0  0  0  0  0  0  0  0  0
   44.4730   36.7000   45.5010 H   0  0  0  0  0  0  0  0  0  0  0  0
   46.0130   32.4380   45.6360 C   0  0  1  0  0  0  0  0  0  0  0  0
   46.9640   32.7370   46.7730 C   0  0  0  0  0  0  0  0  0  0  0  0
   45.5520   32.3220   47.0380 C   0  0  1  0  0  0  0  0  0  0  0  0
   46.1410   31.5030   45.0690 H   0  0  0  0  0  0  0  0  0  0  0  0
   47.2940   33.7860   46.9090 H   0  0  0  0  0  0  0  0  0  0  0  0
   47.7240   31.9760   47.0250 H   0  0  0  0  0  0  0  0  0  0  0  0
   45.3350   31.3440   47.5110 H   0  0  0  0  0  0  0  0  0  0  0  0
   44.7700   33.3990   47.6370 N   0  0  0  0  0  0  0  0  0  0  0  0
   43.7680   33.1680   47.3970 H   0  0  0  0  0  0  0  0  0  0  0  0
   44.8840   33.2990   48.6650 H   0  0  0  0  0  0  0  0  0  0  0  0
  1 11  1  0  0  0  0
  1  2  1  0  0  0  0
  2 25  1  0  0  0  0
  3  2  2  0  0  0  0
  3  7  1  0  0  0  0
  4  3  1  0  0  0  0
  5  6  1  0  0  0  0
  5  4  2  0  0  0  0
  6  1  2  0  0  0  0
  8  4  1  0  0  0  0
  9  5  1  0  0  0  0
 10  6  1  0  0  0  0
 11 13  2  0  0  0  0
 12 11  2  0  0  0  0
 14 24  1  0  0  0  0
 14 11  1  0  0  0  0
 15 14  2  0  0  0  0
 16 15  1  0  0  0  0
 17 18  2  0  0  0  0
 17 15  1  0  0  0  0
 18 19  1  0  0  0  0
 19 20  2  0  0  0  0
 19 24  1  0  0  0  0
 20 21  1  0  0  0  0
 21 22  2  0  0  0  0
 23 22  1  0  0  0  0
 24 23  2  0  0  0  0
 25 27  1  0  0  0  0
 26 25  2  0  0  0  0
 27 28  2  0  0  0  0
 27 32  1  0  0  0  0
 28 29  1  0  0  0  0
 29 34  1  0  0  0  0
 29 30  2  0  0  0  0
 31 30  1  0  0  0  0
 31 35  1  0  0  0  0
 32 31  2  0  0  0  0
 33 28  1  0  0  0  0
 35 38  1  6  0  0  0
 35 36  1  0  0  0  0
 35 37  1  0  0  0  0
 36 39  1  0  0  0  0
 36 40  1  0  0  0  0
 36 37  1  0  0  0  0
 37 41  1  1  0  0  0
 37 42  1  0  0  0  0
 42 44  1  0  0  0  0
 43 42  1  0  0  0  0
M  END
>  <minimizedAffinity>
-5.7594943

>  <minimizedRMSD>
1.25844336

$$$$
