
 OpenBabel03252507463D

 39 42  0  0  0  0  0  0  0  0999 V2000
   48.4390   33.8200   41.5120 C   0  0  0  0  0  0  0  0  0  0  0  0
   49.0070   32.5830   41.2550 C   0  0  0  0  0  0  0  0  0  0  0  0
   50.3000   32.2960   41.6690 C   0  0  0  0  0  0  0  0  0  0  0  0
   50.9710   33.2990   42.3420 N   0  0  0  0  0  0  0  0  0  0  0  0
   50.3820   34.4890   42.5730 C   0  0  0  0  0  0  0  0  0  0  0  0
   49.1450   34.7390   42.1660 N   0  0  0  0  0  0  0  0  0  0  0  0
   50.7530   31.3330   41.4730 H   0  0  0  0  0  0  0  0  0  0  0  0
   51.0100   35.1990   43.1120 H   0  0  0  0  0  0  0  0  0  0  0  0
   47.0610   34.0300   41.0310 C   0  0  0  0  0  0  0  0  0  0  0  0
   47.0750   34.3700   39.9560 H   0  0  0  0  0  0  0  0  0  0  0  0
   46.4800   33.0970   41.0260 H   0  0  0  0  0  0  0  0  0  0  0  0
   46.2880   35.0190   41.8430 C   0  0  0  0  0  0  0  0  0  0  0  0
   46.6210   36.0290   41.6040 H   0  0  0  0  0  0  0  0  0  0  0  0
   46.5070   34.8600   42.9370 H   0  0  0  0  0  0  0  0  0  0  0  0
   44.8190   34.9340   41.6480 C   0  0  0  0  0  0  0  0  0  0  0  0
   43.9410   35.3780   42.6970 C   0  0  0  0  0  0  0  0  0  0  0  0
   42.2740   35.0710   41.9750 S   0  0  0  0  0  0  0  0  0  0  0  0
   43.0510   34.3960   40.3810 C   0  0  0  0  0  0  0  0  0  0  0  0
   44.1630   34.4950   40.6110 N   0  0  0  0  0  0  0  0  0  0  0  0
   44.2310   35.7850   43.6570 H   0  0  0  0  0  0  0  0  0  0  0  0
   42.2900   33.9430   39.3110 O   0  0  0  0  0  0  0  0  0  0  0  0
   40.3560   34.4410   37.5600 O   0  0  0  0  0  0  0  0  0  0  0  0
   41.4490   35.1170   38.3940 P   0  0  0  0  0  0  0  0  0  0  0  0
   40.7260   36.2000   39.4810 O   0  0  0  0  0  0  0  0  0  0  0  0
   39.8290   35.8540   39.6950 H   0  0  0  0  0  0  0  0  0  0  0  0
   42.5360   35.9580   37.4110 O   0  0  0  0  0  0  0  0  0  0  0  0
   42.6500   36.8960   37.6770 H   0  0  0  0  0  0  0  0  0  0  0  0
   48.0800   31.3230   40.3790 S   0  0  0  0  0  0  0  0  0  0  0  0
   48.9480   30.7040   38.9750 C   0  0  0  0  0  0  0  0  0  0  0  0
   49.7370   29.5730   39.0290 C   0  0  0  0  0  0  0  0  0  0  0  0
   49.8250   29.0480   39.9730 H   0  0  0  0  0  0  0  0  0  0  0  0
   50.3860   29.1380   37.9130 C   0  0  0  0  0  3  0  0  0  0  0  0
   50.2680   29.8200   36.7020 C   0  0  0  0  0  3  0  0  0  0  0  0
   49.4670   30.9580   36.6690 C   0  0  0  0  0  0  0  0  0  0  0  0
   49.3420   31.6450   35.4670 C   0  0  0  0  0  3  0  0  0  0  0  0
   48.5620   32.7760   35.3790 C   0  0  0  0  0  3  0  0  0  0  0  0
   47.8860   33.2460   36.5080 C   0  0  0  0  0  3  0  0  0  0  0  0
   48.0210   32.5450   37.7060 C   0  0  0  0  0  3  0  0  0  0  0  0
   48.7950   31.4170   37.8040 C   0  0  0  0  0  0  0  0  0  0  0  0
  1  6  1  0  0  0  0
  2  1  2  0  0  0  0
  2  3  1  0  0  0  0
  3  4  2  0  0  0  0
  4  5  1  0  0  0  0
  5  8  1  0  0  0  0
  6  5  2  0  0  0  0
  7  3  1  0  0  0  0
  9  1  1  0  0  0  0
  9 12  1  0  0  0  0
 10  9  1  0  0  0  0
 11  9  1  0  0  0  0
 12 14  1  0  0  0  0
 13 12  1  0  0  0  0
 15 12  1  0  0  0  0
 15 16  2  0  0  0  0
 16 20  1  0  0  0  0
 17 16  1  0  0  0  0
 18 19  2  0  0  0  0
 18 17  1  0  0  0  0
 19 15  1  0  0  0  0
 21 18  1  0  0  0  0
 22 23  2  0  0  0  0
 23 21  1  0  0  0  0
 23 24  1  0  0  0  0
 24 25  1  0  0  0  0
 26 27  1  0  0  0  0
 26 23  1  0  0  0  0
 28  2  1  0  0  0  0
 29 30  1  0  0  0  0
 29 28  1  0  0  0  0
 30 31  1  0  0  0  0
 32 30  2  0  0  0  0
 33 32  1  0  0  0  0
 34 33  2  0  0  0  0
 34 39  1  0  0  0  0
 35 34  1  0  0  0  0
 36 35  2  0  0  0  0
 36 37  1  0  0  0  0
 37 38  2  0  0  0  0
 38 39  1  0  0  0  0
 39 29  2  0  0  0  0
M  END
>  <minimizedAffinity>
-4.96504545

>  <minimizedRMSD>
1.84837067

$$$$
