
 OpenBabel03252508053D

 44 48  0  0  1  0  0  0  0  0999 V2000
   36.8690   30.1700   38.8610 C   0  0  0  0  0  0  0  0  0  0  0  0
   37.2970   31.2960   38.2250 C   0  0  0  0  0  0  0  0  0  0  0  0
   37.3670   31.2940   36.8210 C   0  0  0  0  0  0  0  0  0  0  0  0
   37.0240   30.2090   36.0570 C   0  0  0  0  0  0  0  0  0  0  0  0
   36.5940   29.0730   36.6930 C   0  0  0  0  0  0  0  0  0  0  0  0
   36.5270   29.0790   38.0520 C   0  0  0  0  0  0  0  0  0  0  0  0
   37.7050   32.1420   36.2440 H   0  0  0  0  0  0  0  0  0  0  0  0
   37.0780   30.2080   34.9940 H   0  0  0  0  0  0  0  0  0  0  0  0
   36.3050   28.1760   36.1720 H   0  0  0  0  0  0  0  0  0  0  0  0
   36.1810   28.1630   38.5570 H   0  0  0  0  0  0  0  0  0  0  0  0
   36.6210   30.0810   40.5250 S   0  0  0  0  0  0  0  0  0  0  0  0
   35.2550   29.3150   40.5340 O   0  0  0  0  0  0  0  0  0  0  0  0
   36.3370   31.3820   41.1490 O   0  0  0  0  0  0  0  0  0  0  0  0
   37.1640   28.9250   41.6370 C   0  0  0  0  0  0  0  0  0  0  0  0
   36.4380   28.0040   42.4340 C   0  0  0  0  0  0  0  0  0  0  0  0
   35.3480   28.0810   42.2110 H   0  0  0  0  0  0  0  0  0  0  0  0
   36.8200   27.1080   43.4160 C   0  0  0  0  0  3  0  0  0  0  0  0
   38.1570   27.1910   43.5900 C   0  0  0  0  0  3  0  0  0  0  0  0
   39.0080   28.0240   42.9080 C   0  0  0  0  0  0  0  0  0  0  0  0
   40.3490   27.9110   43.2850 C   0  0  0  0  0  3  0  0  0  0  0  0
   41.2880   28.7010   42.6640 C   0  0  0  0  0  3  0  0  0  0  0  0
   40.8630   29.5740   41.6890 C   0  0  0  0  0  3  0  0  0  0  0  0
   39.5270   29.6170   41.3830 C   0  0  0  0  0  3  0  0  0  0  0  0
   38.5190   28.8710   41.9520 C   0  0  0  0  0  0  0  0  0  0  0  0
   37.6880   32.5000   38.9560 C   0  0  0  0  0  0  0  0  0  0  0  0
   36.8950   33.4360   39.2740 O   0  0  0  0  0  0  0  0  0  0  0  0
   39.0840   32.5300   39.2940 C   0  0  0  0  0  0  0  0  0  0  0  0
   39.4240   33.2670   40.4840 C   0  0  0  0  0  0  0  0  0  0  0  0
   40.7620   33.2980   40.8410 C   0  0  0  0  0  0  0  0  0  0  0  0
   41.6570   32.6380   40.0590 N   0  0  0  0  0  0  0  0  0  0  0  0
   41.2760   31.9490   38.9360 C   0  0  0  0  0  0  0  0  0  0  0  0
   40.0360   31.9200   38.5980 N   0  0  0  0  0  0  0  0  0  0  0  0
   38.7910   33.8100   41.1470 H   0  0  0  0  0  0  0  0  0  0  0  0
   41.1460   33.8110   41.7020 H   0  0  0  0  0  0  0  0  0  0  0  0
   42.3200   31.2490   38.1510 C   0  0  1  0  0  0  0  0  0  0  0  0
   42.0940   31.0090   36.6750 C   0  0  0  0  0  0  0  0  0  0  0  0
   43.0160   32.0860   37.1490 C   0  0  1  0  0  0  0  0  0  0  0  0
   42.9290   30.5290   38.7180 H   0  0  0  0  0  0  0  0  0  0  0  0
   41.0940   31.2450   36.2600 H   0  0  0  0  0  0  0  0  0  0  0  0
   42.5960   30.1410   36.2090 H   0  0  0  0  0  0  0  0  0  0  0  0
   44.1070   32.0080   36.9680 H   0  0  0  0  0  0  0  0  0  0  0  0
   42.5080   33.4170   36.8340 N   0  0  0  0  0  0  0  0  0  0  0  0
   42.9730   34.0540   37.5370 H   0  0  0  0  0  0  0  0  0  0  0  0
   42.8820   33.6520   35.8940 H   0  0  0  0  0  0  0  0  0  0  0  0
  1 11  1  0  0  0  0
  2  1  1  0  0  0  0
  2 25  1  0  0  0  0
  3  2  2  0  0  0  0
  4  5  2  0  0  0  0
  4  3  1  0  0  0  0
  5  6  1  0  0  0  0
  6 10  1  0  0  0  0
  6  1  2  0  0  0  0
  7  3  1  0  0  0  0
  8  4  1  0  0  0  0
  9  5  1  0  0  0  0
 11 12  2  0  0  0  0
 11 13  2  0  0  0  0
 11 14  1  0  0  0  0
 14 24  2  0  0  0  0
 14 15  1  0  0  0  0
 15 17  2  0  0  0  0
 16 15  1  0  0  0  0
 17 18  1  0  0  0  0
 19 20  1  0  0  0  0
 19 18  2  0  0  0  0
 21 20  2  0  0  0  0
 22 21  1  0  0  0  0
 23 22  2  0  0  0  0
 23 24  1  0  0  0  0
 24 19  1  0  0  0  0
 25 26  2  0  0  0  0
 25 27  1  0  0  0  0
 27 28  1  0  0  0  0
 28 29  2  0  0  0  0
 28 33  1  0  0  0  0
 29 34  1  0  0  0  0
 30 29  1  0  0  0  0
 31 30  2  0  0  0  0
 32 31  1  0  0  0  0
 32 27  2  0  0  0  0
 35 38  1  1  0  0  0
 35 31  1  0  0  0  0
 36 37  1  0  0  0  0
 36 35  1  0  0  0  0
 37 41  1  6  0  0  0
 37 35  1  0  0  0  0
 39 36  1  0  0  0  0
 40 36  1  0  0  0  0
 42 37  1  0  0  0  0
 42 43  1  0  0  0  0
 44 42  1  0  0  0  0
M  END
>  <minimizedAffinity>
-6.99843025

$$$$

 OpenBabel03252508053D

 44 48  0  0  1  0  0  0  0  0999 V2000
   36.6840   28.6980   40.4130 C   0  0  0  0  0  0  0  0  0  0  0  0
   37.1600   28.7670   39.1380 C   0  0  0  0  0  0  0  0  0  0  0  0
   36.2630   29.0550   38.0960 C   0  0  0  0  0  0  0  0  0  0  0  0
   34.9240   29.2710   38.2990 C   0  0  0  0  0  0  0  0  0  0  0  0
   34.4400   29.2020   39.5800 C   0  0  0  0  0  0  0  0  0  0  0  0
   35.3120   28.9230   40.5870 C   0  0  0  0  0  0  0  0  0  0  0  0
   36.5590   29.1180   37.0590 H   0  0  0  0  0  0  0  0  0  0  0  0
   34.2450   29.4890   37.5100 H   0  0  0  0  0  0  0  0  0  0  0  0
   33.4050   29.3580   39.8320 H   0  0  0  0  0  0  0  0  0  0  0  0
   34.9180   28.8690   41.6140 H   0  0  0  0  0  0  0  0  0  0  0  0
   37.6690   28.4850   41.7620 S   0  0  0  0  0  0  0  0  0  0  0  0
   36.5650   28.2140   42.8390 O   0  0  0  0  0  0  0  0  0  0  0  0
   38.3410   29.7180   42.2020 O   0  0  0  0  0  0  0  0  0  0  0  0
   38.4310   27.0840   42.3330 C   0  0  0  0  0  0  0  0  0  0  0  0
   39.5010   26.9290   43.2500 C   0  0  0  0  0  0  0  0  0  0  0  0
   39.8120   27.9230   43.6480 H   0  0  0  0  0  0  0  0  0  0  0  0
   40.2160   25.8250   43.6790 C   0  0  0  0  0  3  0  0  0  0  0  0
   39.7420   24.7250   43.0550 C   0  0  0  0  0  3  0  0  0  0  0  0
   38.7170   24.6950   42.1420 C   0  0  0  0  0  0  0  0  0  0  0  0
   38.4260   23.4230   41.6450 C   0  0  0  0  0  3  0  0  0  0  0  0
   37.4160   23.2780   40.7240 C   0  0  0  0  0  3  0  0  0  0  0  0
   36.7280   24.4020   40.3290 C   0  0  0  0  0  3  0  0  0  0  0  0
   37.0820   25.6120   40.8710 C   0  0  0  0  0  3  0  0  0  0  0  0
   38.0770   25.8520   41.7910 C   0  0  0  0  0  0  0  0  0  0  0  0
   38.5710   28.5470   38.8230 C   0  0  0  0  0  0  0  0  0  0  0  0
   39.1200   27.4080   38.7420 O   0  0  0  0  0  0  0  0  0  0  0  0
   39.3000   29.7660   38.6040 C   0  0  0  0  0  0  0  0  0  0  0  0
   40.5020   29.6440   37.8200 C   0  0  0  0  0  0  0  0  0  0  0  0
   41.2150   30.8080   37.5800 C   0  0  0  0  0  0  0  0  0  0  0  0
   40.7410   31.9750   38.0900 N   0  0  0  0  0  0  0  0  0  0  0  0
   39.5870   32.0330   38.8300 C   0  0  0  0  0  0  0  0  0  0  0  0
   38.9230   30.9560   39.0580 N   0  0  0  0  0  0  0  0  0  0  0  0
   40.9420   28.7750   37.3880 H   0  0  0  0  0  0  0  0  0  0  0  0
   42.1250   30.8520   37.0130 H   0  0  0  0  0  0  0  0  0  0  0  0
   39.1390   33.3520   39.3350 C   0  0  1  0  0  0  0  0  0  0  0  0
   37.9020   33.4270   40.2010 C   0  0  0  0  0  0  0  0  0  0  0  0
   39.2690   33.5390   40.7970 C   0  0  1  0  0  0  0  0  0  0  0  0
   39.3890   34.2100   38.6930 H   0  0  0  0  0  0  0  0  0  0  0  0
   37.2940   32.5080   40.3170 H   0  0  0  0  0  0  0  0  0  0  0  0
   37.3220   34.3680   40.1950 H   0  0  0  0  0  0  0  0  0  0  0  0
   39.6080   34.4940   41.2440 H   0  0  0  0  0  0  0  0  0  0  0  0
   39.5870   32.3990   41.6500 N   0  0  0  0  0  0  0  0  0  0  0  0
   40.6430   32.3620   41.6660 H   0  0  0  0  0  0  0  0  0  0  0  0
   39.2630   32.6540   42.6040 H   0  0  0  0  0  0  0  0  0  0  0  0
  1  6  1  0  0  0  0
  1 11  1  0  0  0  0
  2  1  2  0  0  0  0
  3  4  2  0  0  0  0
  3  2  1  0  0  0  0
  4  5  1  0  0  0  0
  5  9  1  0  0  0  0
  5  6  2  0  0  0  0
  6 10  1  0  0  0  0
  7  3  1  0  0  0  0
  8  4  1  0  0  0  0
 11 13  2  0  0  0  0
 11 14  1  0  0  0  0
 11 12  2  0  0  0  0
 14 15  1  0  0  0  0
 15 16  1  0  0  0  0
 15 17  2  0  0  0  0
 18 17  1  0  0  0  0
 19 18  2  0  0  0  0
 20 19  1  0  0  0  0
 21 20  2  0  0  0  0
 22 21  1  0  0  0  0
 22 23  2  0  0  0  0
 23 24  1  0  0  0  0
 24 19  1  0  0  0  0
 24 14  2  0  0  0  0
 25  2  1  0  0  0  0
 26 25  2  0  0  0  0
 27 25  1  0  0  0  0
 27 32  1  0  0  0  0
 28 27  2  0  0  0  0
 29 28  1  0  0  0  0
 29 30  2  0  0  0  0
 30 31  1  0  0  0  0
 31 32  2  0  0  0  0
 31 35  1  0  0  0  0
 33 28  1  0  0  0  0
 34 29  1  0  0  0  0
 35 38  1  6  0  0  0
 35 36  1  0  0  0  0
 35 37  1  0  0  0  0
 36 39  1  0  0  0  0
 36 37  1  0  0  0  0
 37 41  1  1  0  0  0
 37 42  1  0  0  0  0
 40 36  1  0  0  0  0
 42 43  1  0  0  0  0
 42 44  1  0  0  0  0
M  END
>  <minimizedAffinity>
-6.88476324

$$$$

 OpenBabel03252508053D

 44 48  0  0  1  0  0  0  0  0999 V2000
   36.6250   29.2980   38.2580 C   0  0  0  0  0  0  0  0  0  0  0  0
   37.8210   29.0900   37.6400 C   0  0  0  0  0  0  0  0  0  0  0  0
   37.8380   28.8880   36.2490 C   0  0  0  0  0  0  0  0  0  0  0  0
   36.7030   28.8910   35.4790 C   0  0  0  0  0  0  0  0  0  0  0  0
   35.4970   29.1000   36.0970 C   0  0  0  0  0  0  0  0  0  0  0  0
   35.4850   29.2950   37.4430 C   0  0  0  0  0  0  0  0  0  0  0  0
   38.7430   28.7070   35.6870 H   0  0  0  0  0  0  0  0  0  0  0  0
   36.7160   28.7380   34.4260 H   0  0  0  0  0  0  0  0  0  0  0  0
   34.5580   29.1180   35.5710 H   0  0  0  0  0  0  0  0  0  0  0  0
   34.5130   29.4620   37.9340 H   0  0  0  0  0  0  0  0  0  0  0  0
   36.4780   29.6750   39.8930 S   0  0  0  0  0  0  0  0  0  0  0  0
   34.9740   29.2910   40.1040 O   0  0  0  0  0  0  0  0  0  0  0  0
   36.5500   31.1170   40.1740 O   0  0  0  0  0  0  0  0  0  0  0  0
   36.8100   28.7240   41.2540 C   0  0  0  0  0  0  0  0  0  0  0  0
   37.2010   29.0990   42.5640 C   0  0  0  0  0  0  0  0  0  0  0  0
   37.2350   30.2110   42.6500 H   0  0  0  0  0  0  0  0  0  0  0  0
   37.5690   28.3680   43.6790 C   0  0  0  0  0  3  0  0  0  0  0  0
   37.5240   27.0530   43.3760 C   0  0  0  0  0  3  0  0  0  0  0  0
   37.1690   26.5170   42.1630 C   0  0  0  0  0  0  0  0  0  0  0  0
   37.2070   25.1210   42.1170 C   0  0  0  0  0  3  0  0  0  0  0  0
   36.8700   24.4800   40.9490 C   0  0  0  0  0  3  0  0  0  0  0  0
   36.5040   25.2470   39.8660 C   0  0  0  0  0  3  0  0  0  0  0  0
   36.4950   26.6120   40.0030 C   0  0  0  0  0  3  0  0  0  0  0  0
   36.8190   27.3380   41.1260 C   0  0  0  0  0  0  0  0  0  0  0  0
   39.0830   29.0650   38.3780 C   0  0  0  0  0  0  0  0  0  0  0  0
   39.4980   28.0800   39.0580 O   0  0  0  0  0  0  0  0  0  0  0  0
   39.8330   30.2860   38.2600 C   0  0  0  0  0  0  0  0  0  0  0  0
   41.0200   30.2150   37.4480 C   0  0  0  0  0  0  0  0  0  0  0  0
   41.7520   31.3820   37.3050 C   0  0  0  0  0  0  0  0  0  0  0  0
   41.3100   32.5050   37.9300 N   0  0  0  0  0  0  0  0  0  0  0  0
   40.1690   32.5150   38.6920 C   0  0  0  0  0  0  0  0  0  0  0  0
   39.4870   31.4340   38.8300 N   0  0  0  0  0  0  0  0  0  0  0  0
   41.4350   29.3820   36.9290 H   0  0  0  0  0  0  0  0  0  0  0  0
   42.6540   31.4630   36.7280 H   0  0  0  0  0  0  0  0  0  0  0  0
   39.7560   33.7890   39.3260 C   0  0  1  0  0  0  0  0  0  0  0  0
   39.0500   33.7510   40.6630 C   0  0  0  0  0  0  0  0  0  0  0  0
   40.4900   34.1400   40.5630 C   0  0  1  0  0  0  0  0  0  0  0  0
   39.5250   34.6080   38.6280 H   0  0  0  0  0  0  0  0  0  0  0  0
   38.7430   32.7630   41.0580 H   0  0  0  0  0  0  0  0  0  0  0  0
   38.3630   34.5820   40.9090 H   0  0  0  0  0  0  0  0  0  0  0  0
   40.8070   35.1770   40.7890 H   0  0  0  0  0  0  0  0  0  0  0  0
   41.3650   33.1570   41.1910 N   0  0  0  0  0  0  0  0  0  0  0  0
   42.3020   33.2910   40.7210 H   0  0  0  0  0  0  0  0  0  0  0  0
   41.4620   33.4500   42.1830 H   0  0  0  0  0  0  0  0  0  0  0  0
  1 11  1  0  0  0  0
  2  1  1  0  0  0  0
  2 25  1  0  0  0  0
  3  2  2  0  0  0  0
  4  5  2  0  0  0  0
  4  3  1  0  0  0  0
  5  6  1  0  0  0  0
  6 10  1  0  0  0  0
  6  1  2  0  0  0  0
  7  3  1  0  0  0  0
  8  4  1  0  0  0  0
  9  5  1  0  0  0  0
 11 12  2  0  0  0  0
 11 13  2  0  0  0  0
 11 14  1  0  0  0  0
 14 15  1  0  0  0  0
 15 16  1  0  0  0  0
 15 17  2  0  0  0  0
 18 17  1  0  0  0  0
 19 18  2  0  0  0  0
 20 19  1  0  0  0  0
 21 20  2  0  0  0  0
 22 23  2  0  0  0  0
 22 21  1  0  0  0  0
 23 24  1  0  0  0  0
 24 14  2  0  0  0  0
 24 19  1  0  0  0  0
 25 26  2  0  0  0  0
 27 25  1  0  0  0  0
 27 32  1  0  0  0  0
 28 27  2  0  0  0  0
 29 28  1  0  0  0  0
 29 30  2  0  0  0  0
 30 31  1  0  0  0  0
 31 32  2  0  0  0  0
 31 35  1  0  0  0  0
 33 28  1  0  0  0  0
 34 29  1  0  0  0  0
 35 38  1  6  0  0  0
 35 37  1  0  0  0  0
 35 36  1  0  0  0  0
 36 40  1  0  0  0  0
 36 39  1  0  0  0  0
 37 36  1  0  0  0  0
 37 41  1  1  0  0  0
 37 42  1  0  0  0  0
 42 44  1  0  0  0  0
 43 42  1  0  0  0  0
M  END
>  <minimizedAffinity>
-6.77912331

$$$$

 OpenBabel03252508053D

 44 48  0  0  1  0  0  0  0  0999 V2000
   37.1230   27.5260   40.9640 C   0  0  0  0  0  0  0  0  0  0  0  0
   37.0040   27.1530   39.6600 C   0  0  0  0  0  0  0  0  0  0  0  0
   36.8740   25.7870   39.3560 C   0  0  0  0  0  0  0  0  0  0  0  0
   36.8610   24.8060   40.3140 C   0  0  0  0  0  0  0  0  0  0  0  0
   36.9800   25.1770   41.6280 C   0  0  0  0  0  0  0  0  0  0  0  0
   37.1060   26.5000   41.9180 C   0  0  0  0  0  0  0  0  0  0  0  0
   36.7840   25.4100   38.3480 H   0  0  0  0  0  0  0  0  0  0  0  0
   36.7620   23.7720   40.0840 H   0  0  0  0  0  0  0  0  0  0  0  0
   36.9800   24.4740   42.4440 H   0  0  0  0  0  0  0  0  0  0  0  0
   37.2030   26.7920   42.9760 H   0  0  0  0  0  0  0  0  0  0  0  0
   37.1610   29.1320   41.4710 S   0  0  0  0  0  0  0  0  0  0  0  0
   37.3230   28.9050   43.0120 O   0  0  0  0  0  0  0  0  0  0  0  0
   35.8740   29.8290   41.3190 O   0  0  0  0  0  0  0  0  0  0  0  0
   38.4730   30.1970   41.5900 C   0  0  0  0  0  0  0  0  0  0  0  0
   39.6980   30.0700   42.2910 C   0  0  0  0  0  0  0  0  0  0  0  0
   39.7560   29.0720   42.7860 H   0  0  0  0  0  0  0  0  0  0  0  0
   40.7570   30.9370   42.4940 C   0  0  0  0  0  3  0  0  0  0  0  0
   40.4910   32.1070   41.8750 C   0  0  0  0  0  3  0  0  0  0  0  0
   39.3590   32.4000   41.1560 C   0  0  0  0  0  0  0  0  0  0  0  0
   39.3350   33.6880   40.6180 C   0  0  0  0  0  3  0  0  0  0  0  0
   38.2470   34.0860   39.8790 C   0  0  0  0  0  3  0  0  0  0  0  0
   37.2190   33.1890   39.6970 C   0  0  0  0  0  3  0  0  0  0  0  0
   37.3280   31.9440   40.2630 C   0  0  0  0  0  3  0  0  0  0  0  0
   38.3730   31.4610   41.0180 C   0  0  0  0  0  0  0  0  0  0  0  0
   37.0120   28.1270   38.5690 C   0  0  0  0  0  0  0  0  0  0  0  0
   35.9810   28.7090   38.1180 O   0  0  0  0  0  0  0  0  0  0  0  0
   38.3260   28.3780   38.0420 C   0  0  0  0  0  0  0  0  0  0  0  0
   38.8320   27.3890   37.1260 C   0  0  0  0  0  0  0  0  0  0  0  0
   40.0890   27.6150   36.5910 C   0  0  0  0  0  0  0  0  0  0  0  0
   40.7560   28.7410   36.9570 N   0  0  0  0  0  0  0  0  0  0  0  0
   40.2240   29.6520   37.8340 C   0  0  0  0  0  0  0  0  0  0  0  0
   39.0590   29.4460   38.3360 N   0  0  0  0  0  0  0  0  0  0  0  0
   38.3790   26.4840   36.7900 H   0  0  0  0  0  0  0  0  0  0  0  0
   40.5790   26.9570   35.8990 H   0  0  0  0  0  0  0  0  0  0  0  0
   41.0180   30.8590   38.1660 C   0  0  1  0  0  0  0  0  0  0  0  0
   41.7280   31.6010   37.0560 C   0  0  0  0  0  0  0  0  0  0  0  0
   40.4650   32.1320   37.6540 C   0  0  1  0  0  0  0  0  0  0  0  0
   41.4560   30.8690   39.1750 H   0  0  0  0  0  0  0  0  0  0  0  0
   41.7420   31.1370   36.0500 H   0  0  0  0  0  0  0  0  0  0  0  0
   42.6380   32.1720   37.3160 H   0  0  0  0  0  0  0  0  0  0  0  0
   40.4770   33.0650   38.2510 H   0  0  0  0  0  0  0  0  0  0  0  0
   39.3600   32.1130   36.7010 N   0  0  0  0  0  0  0  0  0  0  0  0
   38.4900   32.0950   37.2990 H   0  0  0  0  0  0  0  0  0  0  0  0
   39.3900   33.0270   36.2080 H   0  0  0  0  0  0  0  0  0  0  0  0
  1 11  1  0  0  0  0
  1  6  1  0  0  0  0
  2  1  2  0  0  0  0
  3  2  1  0  0  0  0
  3  4  2  0  0  0  0
  4  5  1  0  0  0  0
  5  6  2  0  0  0  0
  5  9  1  0  0  0  0
  6 10  1  0  0  0  0
  7  3  1  0  0  0  0
  8  4  1  0  0  0  0
 11 14  1  0  0  0  0
 11 12  2  0  0  0  0
 13 11  2  0  0  0  0
 14 15  1  0  0  0  0
 15 17  2  0  0  0  0
 15 16  1  0  0  0  0
 18 17  1  0  0  0  0
 19 18  2  0  0  0  0
 20 19  1  0  0  0  0
 21 20  2  0  0  0  0
 22 21  1  0  0  0  0
 22 23  2  0  0  0  0
 23 24  1  0  0  0  0
 24 19  1  0  0  0  0
 24 14  2  0  0  0  0
 25  2  1  0  0  0  0
 26 25  2  0  0  0  0
 27 32  1  0  0  0  0
 27 25  1  0  0  0  0
 28 27  2  0  0  0  0
 29 30  2  0  0  0  0
 29 28  1  0  0  0  0
 30 31  1  0  0  0  0
 31 35  1  0  0  0  0
 31 32  2  0  0  0  0
 33 28  1  0  0  0  0
 34 29  1  0  0  0  0
 35 38  1  1  0  0  0
 36 40  1  0  0  0  0
 36 37  1  0  0  0  0
 36 35  1  0  0  0  0
 37 35  1  0  0  0  0
 37 41  1  1  0  0  0
 39 36  1  0  0  0  0
 42 43  1  0  0  0  0
 42 37  1  0  0  0  0
 44 42  1  0  0  0  0
M  END
>  <minimizedAffinity>
-6.75447035

$$$$

 OpenBabel03252508053D

 44 48  0  0  1  0  0  0  0  0999 V2000
   36.7480   28.9720   38.7610 C   0  0  0  0  0  0  0  0  0  0  0  0
   35.9130   29.1000   39.8300 C   0  0  0  0  0  0  0  0  0  0  0  0
   34.5270   28.9930   39.6210 C   0  0  0  0  0  0  0  0  0  0  0  0
   33.9720   28.7640   38.3890 C   0  0  0  0  0  0  0  0  0  0  0  0
   34.8080   28.6340   37.3110 C   0  0  0  0  0  0  0  0  0  0  0  0
   36.1490   28.7390   37.5160 C   0  0  0  0  0  0  0  0  0  0  0  0
   33.7990   29.0920   40.4140 H   0  0  0  0  0  0  0  0  0  0  0  0
   32.9220   28.6830   38.2320 H   0  0  0  0  0  0  0  0  0  0  0  0
   34.4590   28.4540   36.3080 H   0  0  0  0  0  0  0  0  0  0  0  0
   36.8170   28.6340   36.6460 H   0  0  0  0  0  0  0  0  0  0  0  0
   38.4270   28.9550   38.8920 S   0  0  0  0  0  0  0  0  0  0  0  0
   38.7950   29.4780   37.4630 O   0  0  0  0  0  0  0  0  0  0  0  0
   39.0000   27.6020   38.9650 O   0  0  0  0  0  0  0  0  0  0  0  0
   39.4760   30.1430   39.4890 C   0  0  0  0  0  0  0  0  0  0  0  0
   40.7910   30.0320   40.0080 C   0  0  0  0  0  0  0  0  0  0  0  0
   41.1400   28.9740   39.9430 H   0  0  0  0  0  0  0  0  0  0  0  0
   41.6510   30.9460   40.5870 C   0  0  0  0  0  3  0  0  0  0  0  0
   41.0440   32.1520   40.6330 C   0  0  0  0  0  3  0  0  0  0  0  0
   39.7800   32.4360   40.1800 C   0  0  0  0  0  0  0  0  0  0  0  0
   39.3930   33.7670   40.3500 C   0  0  0  0  0  3  0  0  0  0  0  0
   38.1450   34.1610   39.9300 C   0  0  0  0  0  3  0  0  0  0  0  0
   37.3240   33.2190   39.3530 C   0  0  0  0  0  3  0  0  0  0  0  0
   37.7880   31.9340   39.2260 C   0  0  0  0  0  3  0  0  0  0  0  0
   39.0150   31.4500   39.6190 C   0  0  0  0  0  0  0  0  0  0  0  0
   36.4130   29.3490   41.1810 C   0  0  0  0  0  0  0  0  0  0  0  0
   36.2810   30.4450   41.8050 O   0  0  0  0  0  0  0  0  0  0  0  0
   37.0810   28.2150   41.7570 C   0  0  0  0  0  0  0  0  0  0  0  0
   38.1670   28.5170   42.6530 C   0  0  0  0  0  0  0  0  0  0  0  0
   38.8170   27.4400   43.2350 C   0  0  0  0  0  0  0  0  0  0  0  0
   38.3940   26.1850   42.9300 N   0  0  0  0  0  0  0  0  0  0  0  0
   37.3510   25.9560   42.0690 C   0  0  0  0  0  0  0  0  0  0  0  0
   36.7450   26.9510   41.5240 N   0  0  0  0  0  0  0  0  0  0  0  0
   38.5610   29.4630   42.9430 H   0  0  0  0  0  0  0  0  0  0  0  0
   39.6400   27.5290   43.9180 H   0  0  0  0  0  0  0  0  0  0  0  0
   36.9500   24.5540   41.8050 C   0  0  1  0  0  0  0  0  0  0  0  0
   36.3990   24.1900   40.4450 C   0  0  0  0  0  0  0  0  0  0  0  0
   37.7990   23.8340   40.8300 C   0  0  1  0  0  0  0  0  0  0  0  0
   36.6030   23.9920   42.6850 H   0  0  0  0  0  0  0  0  0  0  0  0
   36.1870   25.0140   39.7350 H   0  0  0  0  0  0  0  0  0  0  0  0
   35.7040   23.3330   40.3800 H   0  0  0  0  0  0  0  0  0  0  0  0
   38.0890   22.7740   40.9690 H   0  0  0  0  0  0  0  0  0  0  0  0
   38.7850   24.5670   40.0440 N   0  0  0  0  0  0  0  0  0  0  0  0
   39.6560   24.5720   40.6420 H   0  0  0  0  0  0  0  0  0  0  0  0
   38.9770   23.9830   39.2070 H   0  0  0  0  0  0  0  0  0  0  0  0
  1 11  1  0  0  0  0
  1  2  1  0  0  0  0
  2 25  1  0  0  0  0
  3  2  2  0  0  0  0
  3  7  1  0  0  0  0
  4  3  1  0  0  0  0
  5  6  1  0  0  0  0
  5  4  2  0  0  0  0
  6  1  2  0  0  0  0
  8  4  1  0  0  0  0
  9  5  1  0  0  0  0
 10  6  1  0  0  0  0
 11 13  2  0  0  0  0
 11 14  1  0  0  0  0
 12 11  2  0  0  0  0
 14 24  2  0  0  0  0
 14 15  1  0  0  0  0
 15 17  2  0  0  0  0
 16 15  1  0  0  0  0
 17 18  1  0  0  0  0
 19 20  1  0  0  0  0
 19 18  2  0  0  0  0
 21 20  2  0  0  0  0
 22 21  1  0  0  0  0
 23 22  2  0  0  0  0
 23 24  1  0  0  0  0
 24 19  1  0  0  0  0
 25 27  1  0  0  0  0
 25 26  2  0  0  0  0
 27 28  1  0  0  0  0
 28 33  1  0  0  0  0
 28 29  2  0  0  0  0
 29 34  1  0  0  0  0
 30 29  1  0  0  0  0
 31 30  2  0  0  0  0
 32 27  2  0  0  0  0
 32 31  1  0  0  0  0
 35 31  1  0  0  0  0
 35 38  1  1  0  0  0
 36 37  1  0  0  0  0
 36 35  1  0  0  0  0
 37 41  1  1  0  0  0
 37 35  1  0  0  0  0
 39 36  1  0  0  0  0
 40 36  1  0  0  0  0
 42 43  1  0  0  0  0
 42 37  1  0  0  0  0
 44 42  1  0  0  0  0
M  END
>  <minimizedAffinity>
-6.71100998

$$$$

 OpenBabel03252508053D

 44 48  0  0  1  0  0  0  0  0999 V2000
   37.4430   26.7400   41.4950 C   0  0  0  0  0  0  0  0  0  0  0  0
   37.3490   26.5870   40.1440 C   0  0  0  0  0  0  0  0  0  0  0  0
   37.0240   25.3210   39.6280 C   0  0  0  0  0  0  0  0  0  0  0  0
   36.7970   24.2260   40.4210 C   0  0  0  0  0  0  0  0  0  0  0  0
   36.8900   24.3750   41.7810 C   0  0  0  0  0  0  0  0  0  0  0  0
   37.2040   25.6020   42.2770 C   0  0  0  0  0  0  0  0  0  0  0  0
   36.9400   25.1160   38.5710 H   0  0  0  0  0  0  0  0  0  0  0  0
   36.5510   23.2670   40.0300 H   0  0  0  0  0  0  0  0  0  0  0  0
   36.7280   23.5700   42.4770 H   0  0  0  0  0  0  0  0  0  0  0  0
   37.2790   25.7160   43.3700 H   0  0  0  0  0  0  0  0  0  0  0  0
   37.7010   28.2250   42.2450 S   0  0  0  0  0  0  0  0  0  0  0  0
   38.3760   27.7250   43.5660 O   0  0  0  0  0  0  0  0  0  0  0  0
   36.4610   28.8920   42.6750 O   0  0  0  0  0  0  0  0  0  0  0  0
   39.0040   29.2970   42.1000 C   0  0  0  0  0  0  0  0  0  0  0  0
   40.3350   29.1940   42.5780 C   0  0  0  0  0  0  0  0  0  0  0  0
   40.4870   28.2100   43.0820 H   0  0  0  0  0  0  0  0  0  0  0  0
   41.4060   30.0690   42.5660 C   0  0  0  0  0  3  0  0  0  0  0  0
   41.0260   31.2200   41.9710 C   0  0  0  0  0  3  0  0  0  0  0  0
   39.7830   31.4890   41.4560 C   0  0  0  0  0  0  0  0  0  0  0  0
   39.6550   32.7610   40.8940 C   0  0  0  0  0  3  0  0  0  0  0  0
   38.4500   33.1350   40.3480 C   0  0  0  0  0  3  0  0  0  0  0  0
   37.4130   32.2300   40.3760 C   0  0  0  0  0  3  0  0  0  0  0  0
   37.6300   31.0010   40.9480 C   0  0  0  0  0  3  0  0  0  0  0  0
   38.7950   30.5440   41.5200 C   0  0  0  0  0  0  0  0  0  0  0  0
   37.5790   27.6960   39.2190 C   0  0  0  0  0  0  0  0  0  0  0  0
   38.7060   28.2360   39.0110 O   0  0  0  0  0  0  0  0  0  0  0  0
   36.3850   28.1290   38.5450 C   0  0  0  0  0  0  0  0  0  0  0  0
   35.3290   28.6170   39.3940 C   0  0  0  0  0  0  0  0  0  0  0  0
   34.1740   29.0570   38.7680 C   0  0  0  0  0  0  0  0  0  0  0  0
   34.1120   29.0020   37.4110 N   0  0  0  0  0  0  0  0  0  0  0  0
   35.1510   28.5280   36.6510 C   0  0  0  0  0  0  0  0  0  0  0  0
   36.2240   28.1170   37.2270 N   0  0  0  0  0  0  0  0  0  0  0  0
   35.2960   28.6920   40.4570 H   0  0  0  0  0  0  0  0  0  0  0  0
   33.3160   29.4420   39.2840 H   0  0  0  0  0  0  0  0  0  0  0  0
   34.9990   28.5180   35.1770 C   0  0  1  0  0  0  0  0  0  0  0  0
   35.3930   29.7470   34.3880 C   0  0  0  0  0  0  0  0  0  0  0  0
   36.2690   28.5360   34.4170 C   0  0  1  0  0  0  0  0  0  0  0  0
   34.1910   27.8780   34.7930 H   0  0  0  0  0  0  0  0  0  0  0  0
   35.6540   30.6630   34.9540 H   0  0  0  0  0  0  0  0  0  0  0  0
   34.8850   29.9260   33.4230 H   0  0  0  0  0  0  0  0  0  0  0  0
   36.4190   27.9310   33.5020 H   0  0  0  0  0  0  0  0  0  0  0  0
   37.5270   28.7890   35.1110 N   0  0  0  0  0  0  0  0  0  0  0  0
   37.8530   27.8370   35.4330 H   0  0  0  0  0  0  0  0  0  0  0  0
   38.1920   29.1260   34.3870 H   0  0  0  0  0  0  0  0  0  0  0  0
  1 11  1  0  0  0  0
  1  6  1  0  0  0  0
  2  1  2  0  0  0  0
  3  2  1  0  0  0  0
  3  4  2  0  0  0  0
  4  5  1  0  0  0  0
  5  6  2  0  0  0  0
  5  9  1  0  0  0  0
  6 10  1  0  0  0  0
  7  3  1  0  0  0  0
  8  4  1  0  0  0  0
 11 13  2  0  0  0  0
 11 12  2  0  0  0  0
 14 11  1  0  0  0  0
 14 15  1  0  0  0  0
 15 16  1  0  0  0  0
 17 15  2  0  0  0  0
 18 17  1  0  0  0  0
 19 24  1  0  0  0  0
 19 18  2  0  0  0  0
 20 19  1  0  0  0  0
 21 22  1  0  0  0  0
 21 20  2  0  0  0  0
 22 23  2  0  0  0  0
 23 24  1  0  0  0  0
 24 14  2  0  0  0  0
 25  2  1  0  0  0  0
 26 25  2  0  0  0  0
 27 25  1  0  0  0  0
 27 28  1  0  0  0  0
 28 33  1  0  0  0  0
 29 34  1  0  0  0  0
 29 28  2  0  0  0  0
 30 29  1  0  0  0  0
 31 32  1  0  0  0  0
 31 30  2  0  0  0  0
 32 27  2  0  0  0  0
 35 38  1  6  0  0  0
 35 31  1  0  0  0  0
 36 37  1  0  0  0  0
 36 39  1  0  0  0  0
 36 35  1  0  0  0  0
 37 41  1  6  0  0  0
 37 42  1  0  0  0  0
 37 35  1  0  0  0  0
 40 36  1  0  0  0  0
 42 43  1  0  0  0  0
 44 42  1  0  0  0  0
M  END
>  <minimizedAffinity>
-6.48009348

$$$$

 OpenBabel03252508053D

 44 48  0  0  1  0  0  0  0  0999 V2000
   38.4620   29.8310   39.4950 C   0  0  0  0  0  0  0  0  0  0  0  0
   38.6110   29.8800   40.8480 C   0  0  0  0  0  0  0  0  0  0  0  0
   37.5860   30.4530   41.6210 C   0  0  0  0  0  0  0  0  0  0  0  0
   36.4380   30.9680   41.0760 C   0  0  0  0  0  0  0  0  0  0  0  0
   36.2840   30.9210   39.7150 C   0  0  0  0  0  0  0  0  0  0  0  0
   37.2780   30.3650   38.9700 C   0  0  0  0  0  0  0  0  0  0  0  0
   37.6320   30.5390   42.6970 H   0  0  0  0  0  0  0  0  0  0  0  0
   35.6620   31.4020   41.6610 H   0  0  0  0  0  0  0  0  0  0  0  0
   35.4160   31.3010   39.2030 H   0  0  0  0  0  0  0  0  0  0  0  0
   37.1490   30.3300   37.8760 H   0  0  0  0  0  0  0  0  0  0  0  0
   39.5540   29.0620   38.4680 S   0  0  0  0  0  0  0  0  0  0  0  0
   38.7190   29.0970   37.1430 O   0  0  0  0  0  0  0  0  0  0  0  0
   39.7400   27.6340   38.7680 O   0  0  0  0  0  0  0  0  0  0  0  0
   40.8300   29.7140   37.5650 C   0  0  0  0  0  0  0  0  0  0  0  0
   41.7400   29.0880   36.6760 C   0  0  0  0  0  0  0  0  0  0  0  0
   41.4910   28.0050   36.5720 H   0  0  0  0  0  0  0  0  0  0  0  0
   42.8470   29.5500   35.9880 C   0  0  0  0  0  3  0  0  0  0  0  0
   43.0290   30.8570   36.2760 C   0  0  0  0  0  3  0  0  0  0  0  0
   42.2480   31.6140   37.1130 C   0  0  0  0  0  0  0  0  0  0  0  0
   42.6580   32.9440   37.2380 C   0  0  0  0  0  3  0  0  0  0  0  0
   41.9450   33.7910   38.0520 C   0  0  0  0  0  3  0  0  0  0  0  0
   40.8460   33.2900   38.7130 C   0  0  0  0  0  3  0  0  0  0  0  0
   40.5170   31.9710   38.5300 C   0  0  0  0  0  3  0  0  0  0  0  0
   41.1710   31.0510   37.7420 C   0  0  0  0  0  0  0  0  0  0  0  0
   39.8020   29.3610   41.5180 C   0  0  0  0  0  0  0  0  0  0  0  0
   40.9170   29.9620   41.5710 O   0  0  0  0  0  0  0  0  0  0  0  0
   39.5940   28.0770   42.1310 C   0  0  0  0  0  0  0  0  0  0  0  0
   40.6160   27.6500   43.0510 C   0  0  0  0  0  0  0  0  0  0  0  0
   40.4320   26.4240   43.6680 C   0  0  0  0  0  0  0  0  0  0  0  0
   39.3130   25.7110   43.3720 N   0  0  0  0  0  0  0  0  0  0  0  0
   38.3690   26.1680   42.4870 C   0  0  0  0  0  0  0  0  0  0  0  0
   38.5370   27.3050   41.9100 N   0  0  0  0  0  0  0  0  0  0  0  0
   41.5180   28.1420   43.3360 H   0  0  0  0  0  0  0  0  0  0  0  0
   41.1180   25.9920   44.3720 H   0  0  0  0  0  0  0  0  0  0  0  0
   37.1740   25.3300   42.2350 C   0  0  1  0  0  0  0  0  0  0  0  0
   36.8820   24.8690   40.8250 C   0  0  0  0  0  0  0  0  0  0  0  0
   37.4620   23.9340   41.8370 C   0  0  1  0  0  0  0  0  0  0  0  0
   36.3320   25.4940   42.9240 H   0  0  0  0  0  0  0  0  0  0  0  0
   37.4990   25.2880   40.0050 H   0  0  0  0  0  0  0  0  0  0  0  0
   35.8300   24.6630   40.5550 H   0  0  0  0  0  0  0  0  0  0  0  0
   36.8680   23.0770   42.2130 H   0  0  0  0  0  0  0  0  0  0  0  0
   38.8260   23.5410   41.5000 N   0  0  0  0  0  0  0  0  0  0  0  0
   39.2600   23.2580   42.4210 H   0  0  0  0  0  0  0  0  0  0  0  0
   38.7420   22.6880   40.9120 H   0  0  0  0  0  0  0  0  0  0  0  0
  1  2  1  0  0  0  0
  2 25  1  0  0  0  0
  2  3  2  0  0  0  0
  3  7  1  0  0  0  0
  4  3  1  0  0  0  0
  4  8  1  0  0  0  0
  5  4  2  0  0  0  0
  6  1  2  0  0  0  0
  6  5  1  0  0  0  0
  9  5  1  0  0  0  0
 10  6  1  0  0  0  0
 11 13  2  0  0  0  0
 11  1  1  0  0  0  0
 12 11  2  0  0  0  0
 14 24  1  0  0  0  0
 14 11  1  0  0  0  0
 15 14  2  0  0  0  0
 16 15  1  0  0  0  0
 17 18  2  0  0  0  0
 17 15  1  0  0  0  0
 18 19  1  0  0  0  0
 19 20  2  0  0  0  0
 19 24  1  0  0  0  0
 20 21  1  0  0  0  0
 21 22  2  0  0  0  0
 23 22  1  0  0  0  0
 24 23  2  0  0  0  0
 25 26  2  0  0  0  0
 25 27  1  0  0  0  0
 27 28  1  0  0  0  0
 28 33  1  0  0  0  0
 28 29  2  0  0  0  0
 29 34  1  0  0  0  0
 30 29  1  0  0  0  0
 31 30  2  0  0  0  0
 32 27  2  0  0  0  0
 32 31  1  0  0  0  0
 35 31  1  0  0  0  0
 35 38  1  1  0  0  0
 36 37  1  0  0  0  0
 36 35  1  0  0  0  0
 37 41  1  1  0  0  0
 37 35  1  0  0  0  0
 39 36  1  0  0  0  0
 40 36  1  0  0  0  0
 42 37  1  0  0  0  0
 42 43  1  0  0  0  0
 44 42  1  0  0  0  0
M  END
>  <minimizedAffinity>
-6.22431421

$$$$

 OpenBabel03252508053D

 44 48  0  0  1  0  0  0  0  0999 V2000
   38.2420   26.7640   41.9380 C   0  0  0  0  0  0  0  0  0  0  0  0
   38.9330   26.3830   40.8270 C   0  0  0  0  0  0  0  0  0  0  0  0
   38.5970   25.1670   40.2060 C   0  0  0  0  0  0  0  0  0  0  0  0
   37.6040   24.3420   40.6660 C   0  0  0  0  0  0  0  0  0  0  0  0
   36.9060   24.7210   41.7830 C   0  0  0  0  0  0  0  0  0  0  0  0
   37.2330   25.8980   42.3820 C   0  0  0  0  0  0  0  0  0  0  0  0
   39.1030   24.7910   39.3290 H   0  0  0  0  0  0  0  0  0  0  0  0
   37.3510   23.4220   40.1950 H   0  0  0  0  0  0  0  0  0  0  0  0
   36.1110   24.1350   42.2120 H   0  0  0  0  0  0  0  0  0  0  0  0
   36.6690   26.1970   43.2800 H   0  0  0  0  0  0  0  0  0  0  0  0
   38.4580   28.2490   42.7030 S   0  0  0  0  0  0  0  0  0  0  0  0
   39.7230   27.9080   43.5600 O   0  0  0  0  0  0  0  0  0  0  0  0
   37.4050   28.5680   43.6800 O   0  0  0  0  0  0  0  0  0  0  0  0
   39.3030   29.6200   42.1790 C   0  0  0  0  0  0  0  0  0  0  0  0
   40.6320   30.0360   42.4440 C   0  0  0  0  0  0  0  0  0  0  0  0
   41.1560   29.2740   43.0670 H   0  0  0  0  0  0  0  0  0  0  0  0
   41.3390   31.1800   42.1190 C   0  0  0  0  0  3  0  0  0  0  0  0
   40.5360   32.0090   41.4180 C   0  0  0  0  0  3  0  0  0  0  0  0
   39.2290   31.7650   41.0750 C   0  0  0  0  0  0  0  0  0  0  0  0
   38.6240   32.7920   40.3460 C   0  0  0  0  0  3  0  0  0  0  0  0
   37.3140   32.6510   39.9510 C   0  0  0  0  0  3  0  0  0  0  0  0
   36.6520   31.4940   40.2900 C   0  0  0  0  0  3  0  0  0  0  0  0
   37.3260   30.5380   41.0080 C   0  0  0  0  0  3  0  0  0  0  0  0
   38.6290   30.5940   41.4480 C   0  0  0  0  0  0  0  0  0  0  0  0
   40.0110   27.1950   40.2670 C   0  0  0  0  0  0  0  0  0  0  0  0
   41.2280   27.1110   40.6120 O   0  0  0  0  0  0  0  0  0  0  0  0
   39.5620   28.1200   39.2620 C   0  0  0  0  0  0  0  0  0  0  0  0
   40.5500   29.0510   38.7820 C   0  0  0  0  0  0  0  0  0  0  0  0
   40.1460   29.9420   37.8010 C   0  0  0  0  0  0  0  0  0  0  0  0
   38.8630   29.8810   37.3580 N   0  0  0  0  0  0  0  0  0  0  0  0
   37.9630   28.9710   37.8510 C   0  0  0  0  0  0  0  0  0  0  0  0
   38.3310   28.1430   38.7630 N   0  0  0  0  0  0  0  0  0  0  0  0
   41.5680   29.1660   39.0740 H   0  0  0  0  0  0  0  0  0  0  0  0
   40.7840   30.6840   37.3600 H   0  0  0  0  0  0  0  0  0  0  0  0
   36.5880   28.9680   37.2990 C   0  0  1  0  0  0  0  0  0  0  0  0
   36.1980   30.0250   36.2910 C   0  0  0  0  0  0  0  0  0  0  0  0
   36.4900   28.6230   35.8640 C   0  0  1  0  0  0  0  0  0  0  0  0
   35.8140   28.5640   37.9690 H   0  0  0  0  0  0  0  0  0  0  0  0
   36.9140   30.8490   36.1010 H   0  0  0  0  0  0  0  0  0  0  0  0
   35.1320   30.3140   36.2310 H   0  0  0  0  0  0  0  0  0  0  0  0
   35.6820   27.9790   35.4640 H   0  0  0  0  0  0  0  0  0  0  0  0
   37.7000   28.5400   35.0520 N   0  0  0  0  0  0  0  0  0  0  0  0
   38.0300   27.5430   35.1630 H   0  0  0  0  0  0  0  0  0  0  0  0
   37.3940   28.6670   34.0670 H   0  0  0  0  0  0  0  0  0  0  0  0
  1  6  1  0  0  0  0
  1 11  1  0  0  0  0
  2  1  2  0  0  0  0
  3  4  2  0  0  0  0
  3  2  1  0  0  0  0
  4  5  1  0  0  0  0
  5  9  1  0  0  0  0
  5  6  2  0  0  0  0
  6 10  1  0  0  0  0
  7  3  1  0  0  0  0
  8  4  1  0  0  0  0
 11 12  2  0  0  0  0
 11 13  2  0  0  0  0
 14 15  1  0  0  0  0
 14 11  1  0  0  0  0
 15 16  1  0  0  0  0
 17 15  2  0  0  0  0
 18 17  1  0  0  0  0
 19 18  2  0  0  0  0
 19 24  1  0  0  0  0
 20 19  1  0  0  0  0
 21 22  1  0  0  0  0
 21 20  2  0  0  0  0
 22 23  2  0  0  0  0
 23 24  1  0  0  0  0
 24 14  2  0  0  0  0
 25 26  2  0  0  0  0
 25  2  1  0  0  0  0
 27 25  1  0  0  0  0
 28 33  1  0  0  0  0
 28 27  1  0  0  0  0
 29 28  2  0  0  0  0
 30 29  1  0  0  0  0
 30 31  2  0  0  0  0
 31 32  1  0  0  0  0
 32 27  2  0  0  0  0
 34 29  1  0  0  0  0
 35 31  1  0  0  0  0
 35 38  1  1  0  0  0
 36 35  1  0  0  0  0
 37 41  1  6  0  0  0
 37 36  1  0  0  0  0
 37 35  1  0  0  0  0
 39 36  1  0  0  0  0
 40 36  1  0  0  0  0
 42 43  1  0  0  0  0
 42 37  1  0  0  0  0
 44 42  1  0  0  0  0
M  END
>  <minimizedAffinity>
-6.17092371

$$$$

 OpenBabel03252508053D

 44 48  0  0  1  0  0  0  0  0999 V2000
   36.9970   29.8570   38.4860 C   0  0  0  0  0  0  0  0  0  0  0  0
   36.0830   29.5670   39.4540 C   0  0  0  0  0  0  0  0  0  0  0  0
   34.8520   29.0040   39.0740 C   0  0  0  0  0  0  0  0  0  0  0  0
   34.5250   28.7310   37.7710 C   0  0  0  0  0  0  0  0  0  0  0  0
   35.4410   29.0220   36.7940 C   0  0  0  0  0  0  0  0  0  0  0  0
   36.6320   29.5660   37.1650 C   0  0  0  0  0  0  0  0  0  0  0  0
   34.0720   28.7550   39.7790 H   0  0  0  0  0  0  0  0  0  0  0  0
   33.5930   28.3050   37.4840 H   0  0  0  0  0  0  0  0  0  0  0  0
   35.2680   28.8400   35.7470 H   0  0  0  0  0  0  0  0  0  0  0  0
   37.3640   29.7980   36.3750 H   0  0  0  0  0  0  0  0  0  0  0  0
   38.5520   30.4160   38.8140 S   0  0  0  0  0  0  0  0  0  0  0  0
   38.2200   31.9150   39.1210 O   0  0  0  0  0  0  0  0  0  0  0  0
   39.4280   30.4490   37.6330 O   0  0  0  0  0  0  0  0  0  0  0  0
   39.4150   30.4120   40.2710 C   0  0  0  0  0  0  0  0  0  0  0  0
   39.6830   31.4630   41.1840 C   0  0  0  0  0  0  0  0  0  0  0  0
   39.1810   32.4010   40.8470 H   0  0  0  0  0  0  0  0  0  0  0  0
   40.4500   31.5360   42.3320 C   0  0  0  0  0  3  0  0  0  0  0  0
   41.0230   30.3330   42.5550 C   0  0  0  0  0  3  0  0  0  0  0  0
   40.8740   29.2130   41.7760 C   0  0  0  0  0  0  0  0  0  0  0  0
   41.5790   28.0970   42.2310 C   0  0  0  0  0  3  0  0  0  0  0  0
   41.4990   26.9200   41.5250 C   0  0  0  0  0  3  0  0  0  0  0  0
   40.7190   26.8910   40.3920 C   0  0  0  0  0  3  0  0  0  0  0  0
   40.0610   28.0360   40.0190 C   0  0  0  0  0  3  0  0  0  0  0  0
   40.0840   29.2550   40.6590 C   0  0  0  0  0  0  0  0  0  0  0  0
   36.3410   29.8270   40.8690 C   0  0  0  0  0  0  0  0  0  0  0  0
   36.1990   30.9550   41.4300 O   0  0  0  0  0  0  0  0  0  0  0  0
   36.7780   28.6630   41.5890 C   0  0  0  0  0  0  0  0  0  0  0  0
   37.3240   28.9060   42.8990 C   0  0  0  0  0  0  0  0  0  0  0  0
   37.7380   27.7980   43.6210 C   0  0  0  0  0  0  0  0  0  0  0  0
   37.6020   26.5690   43.0570 N   0  0  0  0  0  0  0  0  0  0  0  0
   37.0720   26.3960   41.8030 C   0  0  0  0  0  0  0  0  0  0  0  0
   36.6890   27.4200   41.1280 N   0  0  0  0  0  0  0  0  0  0  0  0
   37.4680   29.8290   43.4120 H   0  0  0  0  0  0  0  0  0  0  0  0
   38.1620   27.8420   44.6060 H   0  0  0  0  0  0  0  0  0  0  0  0
   36.9490   25.0170   41.2740 C   0  0  1  0  0  0  0  0  0  0  0  0
   38.0360   24.4760   40.3720 C   0  0  0  0  0  0  0  0  0  0  0  0
   37.9400   24.0530   41.8030 C   0  0  1  0  0  0  0  0  0  0  0  0
   35.9190   24.6570   41.1370 H   0  0  0  0  0  0  0  0  0  0  0  0
   38.8200   25.1790   40.0270 H   0  0  0  0  0  0  0  0  0  0  0  0
   37.7590   23.6960   39.6400 H   0  0  0  0  0  0  0  0  0  0  0  0
   37.6710   23.0110   42.0620 H   0  0  0  0  0  0  0  0  0  0  0  0
   39.0710   24.5330   42.5900 N   0  0  0  0  0  0  0  0  0  0  0  0
   38.7160   24.5550   43.5850 H   0  0  0  0  0  0  0  0  0  0  0  0
   39.7990   23.7930   42.5270 H   0  0  0  0  0  0  0  0  0  0  0  0
  1 11  1  0  0  0  0
  1  2  1  0  0  0  0
  2 25  1  0  0  0  0
  3  2  2  0  0  0  0
  3  7  1  0  0  0  0
  4  3  1  0  0  0  0
  5  6  1  0  0  0  0
  5  4  2  0  0  0  0
  6  1  2  0  0  0  0
  8  4  1  0  0  0  0
  9  5  1  0  0  0  0
 10  6  1  0  0  0  0
 11 12  2  0  0  0  0
 11 14  1  0  0  0  0
 13 11  2  0  0  0  0
 14 24  2  0  0  0  0
 14 15  1  0  0  0  0
 15 17  2  0  0  0  0
 16 15  1  0  0  0  0
 17 18  1  0  0  0  0
 19 20  1  0  0  0  0
 19 18  2  0  0  0  0
 21 20  2  0  0  0  0
 22 21  1  0  0  0  0
 23 22  2  0  0  0  0
 23 24  1  0  0  0  0
 24 19  1  0  0  0  0
 25 26  2  0  0  0  0
 25 27  1  0  0  0  0
 27 28  1  0  0  0  0
 28 33  1  0  0  0  0
 28 29  2  0  0  0  0
 29 34  1  0  0  0  0
 30 29  1  0  0  0  0
 31 30  2  0  0  0  0
 32 27  2  0  0  0  0
 32 31  1  0  0  0  0
 35 38  1  6  0  0  0
 35 31  1  0  0  0  0
 35 37  1  0  0  0  0
 36 35  1  0  0  0  0
 36 37  1  0  0  0  0
 37 41  1  1  0  0  0
 37 42  1  0  0  0  0
 39 36  1  0  0  0  0
 40 36  1  0  0  0  0
 42 43  1  0  0  0  0
 44 42  1  0  0  0  0
M  END
>  <minimizedAffinity>
-6.14573097

$$$$
