REMARK  Name = 
REMARK  9 active torsions:
REMARK  status: ('A' for Active; 'I' for Inactive)
REMARK    1  A    between atoms: O_1  and  C_2
REMARK    2  A    between atoms: O_1  and  C_9
REMARK    3  A    between atoms: C_2  and  C_4
REMARK    4  A    between atoms: C_10  and  C_11
REMARK    5  A    between atoms: C_11  and  O_12
REMARK    6  A    between atoms: O_12  and  P_14
REMARK    7  A    between atoms: P_14  and  O_15
REMARK    8  A    between atoms: P_14  and  O_16
REMARK    9  A    between atoms: O_16  and  C_27
REMARK                            x       y       z     vdW  Elec       q    Type
REMARK                         _______ _______ _______ _____ _____    ______ ____
ROOT
ATOM      1  C   UNL     1      45.183  35.582  43.549  0.00  0.00    +0.000 C 
ATOM      2  H   UNL     1      46.013  35.128  42.999  0.00  0.00    +0.000 HD
ATOM      3  H   UNL     1      45.277  36.674  43.683  0.00  0.00    +0.000 HD
ENDROOT
BRANCH   1   5
ATOM      4  C   UNL     1      43.740  35.661  41.466  0.00  0.00    +0.000 C 
ATOM      5  C   UNL     1      43.945  35.278  42.732  0.00  0.00    +0.000 C 
BRANCH   4   6
ATOM      6  O   UNL     1      42.542  35.281  40.877  0.00  0.00    +0.000 OA
BRANCH   6   7
ATOM      7  C   UNL     1      41.276  35.732  41.164  0.00  0.00    +0.000 C 
ATOM      8  H   UNL     1      41.221  35.797  42.300  0.00  0.00    +0.000 HD
ATOM      9  H   UNL     1      41.011  36.736  40.801  0.00  0.00    +0.000 HD
BRANCH   7  11
ATOM     10  C   UNL     1      40.281  33.577  41.612  0.00  0.00    +0.000 A 
ATOM     11  C   UNL     1      40.210  34.749  40.838  0.00  0.00    +0.000 A 
ATOM     12  C   UNL     1      39.210  34.863  39.922  0.00  0.00    +0.000 A 
ATOM     13  N   UNL     1      38.352  33.827  39.828  0.00  0.00    +0.000 NA
ATOM     14  C   UNL     1      38.408  32.717  40.552  0.00  0.00    +0.000 A 
ATOM     15  N   UNL     1      39.404  32.544  41.500  0.00  0.00    +0.000 NA
ATOM     16  H   UNL     1      41.029  33.371  42.370  0.00  0.00    +0.000 HD
ATOM     17  H   UNL     1      39.211  35.769  39.370  0.00  0.00    +0.000 HD
ATOM     18  H   UNL     1      37.683  31.924  40.423  0.00  0.00    +0.000 HD
ENDBRANCH   7  11
ENDBRANCH   6   7
ENDBRANCH   4   6
ENDBRANCH   1   5
BRANCH   1  19
ATOM     19  O   UNL     1      45.049  34.937  44.751  0.00  0.00    +0.000 OA
BRANCH  19  21
ATOM     20  O   UNL     1      45.539  32.344  44.423  0.00  0.00    +0.000 OA
ATOM     21  P   UNL     1      46.147  33.626  44.899  0.00  0.00    +0.000 P 
BRANCH  21  22
ATOM     22  O   UNL     1      47.517  33.975  43.932  0.00  0.00    +0.000 OA
ATOM     23  H   UNL     1      47.833  34.878  44.224  0.00  0.00    +0.000 HD
ENDBRANCH  21  22
BRANCH  21  24
ATOM     24  O   UNL     1      46.666  33.544  46.470  0.00  0.00    +0.000 OA
BRANCH  24  25
ATOM     25  C   UNL     1      47.486  32.862  47.211  0.00  0.00    +0.000 A 
ATOM     26  C   UNL     1      47.353  33.422  48.506  0.00  0.00    +0.000 A 
ATOM     27  H   UNL     1      46.728  34.244  48.888  0.00  0.00    +0.000 HD
ATOM     28  C   UNL     1      48.067  32.977  49.619  0.00  0.00    +0.000 A 
ATOM     29  C   UNL     1      48.954  31.921  49.419  0.00  0.00    +0.000 A 
ATOM     30  C   UNL     1      49.138  31.325  48.193  0.00  0.00    +0.000 A 
ATOM     31  C   UNL     1      49.992  30.280  47.916  0.00  0.00    +0.000 A 
ATOM     32  C   UNL     1      50.120  29.735  46.653  0.00  0.00    +0.000 A 
ATOM     33  C   UNL     1      49.341  30.280  45.624  0.00  0.00    +0.000 A 
ATOM     34  C   UNL     1      48.497  31.320  45.920  0.00  0.00    +0.000 A 
ATOM     35  C   UNL     1      48.391  31.839  47.183  0.00  0.00    +0.000 A 
ENDBRANCH  24  25
ENDBRANCH  21  24
ENDBRANCH  19  21
ENDBRANCH   1  19
TORSDOF 9
