
 OpenBabel03242519413D

 31 33  0  0  0  0  0  0  0  0999 V2000
   48.0120   32.8720   41.6500 O   0  0  0  0  0  0  0  0  0  0  0  0
   47.1240   34.0740   41.2330 P   0  0  2  0  0  0  0  0  0  0  0  0
   45.5470   33.8360   41.8700 O   0  0  0  0  0  0  0  0  0  0  0  0
   44.4030   35.8940   44.6480 C   0  0  0  0  0  0  0  0  0  0  0  0
   44.6630   35.4610   43.3270 C   0  0  0  0  0  0  0  0  0  0  0  0
   45.3070   34.2250   43.1700 C   0  0  0  0  0  0  0  0  0  0  0  0
   45.6380   33.5240   44.2710 N   0  0  0  0  0  0  0  0  0  0  0  0
   45.3760   33.9640   45.5220 C   0  0  0  0  0  0  0  0  0  0  0  0
   44.7620   35.1420   45.7200 N   0  0  0  0  0  0  0  0  0  0  0  0
   43.9070   36.8460   44.7780 H   0  0  0  0  0  0  0  0  0  0  0  0
   44.3570   36.0950   42.5180 H   0  0  0  0  0  0  0  0  0  0  0  0
   45.6770   33.3360   46.3680 H   0  0  0  0  0  0  0  0  0  0  0  0
   47.0280   34.1290   39.5780 O   0  0  0  0  0  0  0  0  0  0  0  0
   47.0050   33.1200   38.6680 C   0  0  0  0  0  0  0  0  0  0  0  0
   46.4040   33.3660   37.4780 O   0  0  0  0  0  0  0  0  0  0  0  0
   47.4080   31.7220   38.3860 C   0  0  0  0  0  0  0  0  0  0  0  0
   46.4710   30.6700   38.5060 C   0  0  0  0  0  0  0  0  0  0  0  0
   45.4260   31.0210   38.6780 H   0  0  0  0  0  0  0  0  0  0  0  0
   46.6130   29.3090   38.4520 C   0  0  0  0  0  3  0  0  0  0  0  0
   47.9260   28.9680   38.2410 C   0  0  0  0  0  3  0  0  0  0  0  0
   48.9030   29.9230   38.1090 C   0  0  0  0  0  0  0  0  0  0  0  0
   50.2070   29.5540   37.8550 C   0  0  0  0  0  3  0  0  0  0  0  0
   51.2890   30.3870   37.6600 C   0  0  0  0  0  3  0  0  0  0  0  0
   50.9820   31.7520   37.7340 C   0  0  0  0  0  3  0  0  0  0  0  0
   49.6930   32.1500   37.9870 C   0  0  0  0  0  3  0  0  0  0  0  0
   48.6500   31.2910   38.1790 C   0  0  0  0  0  0  0  0  0  0  0  0
   47.7840   35.4230   41.9350 O   0  0  0  0  0  0  0  0  0  0  0  0
   49.0330   35.7350   41.4170 C   0  0  0  0  0  0  0  0  0  0  0  0
   49.4420   37.0120   41.7550 F   0  0  0  0  0  0  0  0  0  0  0  0
   49.9410   34.7810   41.7500 F   0  0  0  0  0  0  0  0  0  0  0  0
   48.8890   35.7280   40.0310 F   0  0  0  0  0  0  0  0  0  0  0  0
  2  1  2  1  0  0  0
  2  3  1  0  0  0  0
  2 27  1  0  0  0  0
  3  6  1  0  0  0  0
  4 10  1  0  0  0  0
  4  9  1  0  0  0  0
  5  4  2  0  0  0  0
  6  5  1  0  0  0  0
  6  7  2  0  0  0  0
  7  8  1  0  0  0  0
  8  9  2  0  0  0  0
  8 12  1  0  0  0  0
 11  5  1  0  0  0  0
 13  2  1  0  0  0  0
 14 13  1  0  0  0  0
 15 14  2  0  0  0  0
 16 17  1  0  0  0  0
 16 14  1  0  0  0  0
 17 18  1  0  0  0  0
 19 17  2  0  0  0  0
 20 19  1  0  0  0  0
 21 26  1  0  0  0  0
 21 20  2  0  0  0  0
 22 21  1  0  0  0  0
 23 24  1  0  0  0  0
 23 22  2  0  0  0  0
 24 25  2  0  0  0  0
 25 26  1  0  0  0  0
 26 16  2  0  0  0  0
 28 30  1  0  0  0  0
 28 29  1  0  0  0  0
 28 27  1  0  0  0  0
 31 28  1  0  0  0  0
M  END
>  <minimizedAffinity>
-5.18098879

>  <minimizedRMSD>
1.36856651

$$$$
