
 OpenBabel03252500453D

 36 39  0  0  1  0  0  0  0  0999 V2000
   40.1140   30.4870   42.4800 C   0  0  1  0  0  0  0  0  0  0  0  0
   41.4970   31.1260   42.5140 C   0  0  0  0  0  0  0  0  0  0  0  0
   40.3650   31.7670   41.7400 C   0  0  1  0  0  0  0  0  0  0  0  0
   39.6450   30.5360   43.4900 H   0  0  0  0  0  0  0  0  0  0  0  0
   41.8810   31.6030   43.4130 H   0  0  0  0  0  0  0  0  0  0  0  0
   42.2830   30.6260   41.8970 H   0  0  0  0  0  0  0  0  0  0  0  0
   39.9790   32.6860   42.2330 H   0  0  0  0  0  0  0  0  0  0  0  0
   39.9680   29.2860   41.6350 C   0  0  0  0  0  0  0  0  0  0  0  0
   39.7760   29.6510   40.5820 H   0  0  0  0  0  0  0  0  0  0  0  0
   40.9190   28.7240   41.5490 H   0  0  0  0  0  0  0  0  0  0  0  0
   38.8230   28.4290   41.9650 C   0  0  0  0  0  0  0  0  0  0  0  0
   38.3070   28.6720   43.2090 C   0  0  0  0  0  0  0  0  0  0  0  0
   37.2100   27.9240   43.6790 C   0  0  0  0  0  0  0  0  0  0  0  0
   36.7270   26.9700   42.8090 N   0  0  0  0  0  0  0  0  0  0  0  0
   37.2530   26.7490   41.5880 C   0  0  0  0  0  0  0  0  0  0  0  0
   38.2860   27.4760   41.1860 N   0  0  0  0  0  0  0  0  0  0  0  0
   38.5250   29.3590   44.0160 H   0  0  0  0  0  0  0  0  0  0  0  0
   36.6820   27.9680   44.6010 H   0  0  0  0  0  0  0  0  0  0  0  0
   36.8550   26.0010   40.9370 H   0  0  0  0  0  0  0  0  0  0  0  0
   40.4360   31.6970   40.3730 O   0  0  0  0  0  0  0  0  0  0  0  0
   39.2690   34.0850   40.5540 O   0  0  0  0  0  0  0  0  0  0  0  0
   39.6190   32.9600   39.6060 P   0  0  1  0  0  0  0  0  0  0  0  0
   40.6890   33.6070   38.4240 O   0  0  0  0  0  0  0  0  0  0  0  0
   41.5290   33.7840   38.9270 H   0  0  0  0  0  0  0  0  0  0  0  0
   38.2620   32.3470   38.8240 O   0  0  0  0  0  0  0  0  0  0  0  0
   37.3350   31.4860   39.3540 C   0  0  0  0  0  0  0  0  0  0  0  0
   36.9350   31.4820   40.6740 C   0  0  0  0  0  0  0  0  0  0  0  0
   37.3630   32.1880   41.3520 H   0  0  0  0  0  0  0  0  0  0  0  0
   35.9940   30.5530   41.0480 C   0  0  0  0  0  3  0  0  0  0  0  0
   35.4600   29.6550   40.1460 C   0  0  0  0  0  3  0  0  0  0  0  0
   35.8570   29.6540   38.8230 C   0  0  0  0  0  0  0  0  0  0  0  0
   35.2990   28.7400   37.9570 C   0  0  0  0  0  3  0  0  0  0  0  0
   35.6940   28.7370   36.6300 C   0  0  0  0  0  3  0  0  0  0  0  0
   36.6360   29.6530   36.2210 C   0  0  0  0  0  3  0  0  0  0  0  0
   37.1800   30.5600   37.1050 C   0  0  0  0  0  3  0  0  0  0  0  0
   36.8100   30.5940   38.4440 C   0  0  0  0  0  0  0  0  0  0  0  0
  1  2  1  0  0  0  0
  1  4  1  1  0  0  0
  2  5  1  0  0  0  0
  3  7  1  1  0  0  0
  3  1  1  0  0  0  0
  3  2  1  0  0  0  0
  6  2  1  0  0  0  0
  8 11  1  0  0  0  0
  8  1  1  0  0  0  0
  9  8  1  0  0  0  0
 10  8  1  0  0  0  0
 11 12  1  0  0  0  0
 12 13  2  0  0  0  0
 12 17  1  0  0  0  0
 13 18  1  0  0  0  0
 14 13  1  0  0  0  0
 15 14  2  0  0  0  0
 16 15  1  0  0  0  0
 16 11  2  0  0  0  0
 19 15  1  0  0  0  0
 20  3  1  0  0  0  0
 22 20  1  0  0  0  0
 22 21  2  1  0  0  0
 23 24  1  0  0  0  0
 23 22  1  0  0  0  0
 25 26  1  0  0  0  0
 25 22  1  0  0  0  0
 26 27  1  0  0  0  0
 27 29  2  0  0  0  0
 27 28  1  0  0  0  0
 30 29  1  0  0  0  0
 31 30  2  0  0  0  0
 32 31  1  0  0  0  0
 33 32  2  0  0  0  0
 34 33  1  0  0  0  0
 34 35  2  0  0  0  0
 35 36  1  0  0  0  0
 36 31  1  0  0  0  0
 36 26  2  0  0  0  0
M  END
>  <minimizedAffinity>
-5.80534649

$$$$

 OpenBabel03252500453D

 36 39  0  0  1  0  0  0  0  0999 V2000
   38.3470   28.1860   38.6850 C   0  0  1  0  0  0  0  0  0  0  0  0
   37.9940   28.9880   37.4390 C   0  0  0  0  0  0  0  0  0  0  0  0
   38.0740   29.6570   38.7940 C   0  0  1  0  0  0  0  0  0  0  0  0
   39.4050   27.8410   38.6310 H   0  0  0  0  0  0  0  0  0  0  0  0
   38.7370   29.2090   36.6760 H   0  0  0  0  0  0  0  0  0  0  0  0
   36.9630   28.8360   37.0330 H   0  0  0  0  0  0  0  0  0  0  0  0
   38.9730   30.3020   38.8960 H   0  0  0  0  0  0  0  0  0  0  0  0
   37.2890   27.3060   39.2200 C   0  0  0  0  0  0  0  0  0  0  0  0
   36.6990   27.9210   39.9620 H   0  0  0  0  0  0  0  0  0  0  0  0
   36.5430   27.0410   38.4450 H   0  0  0  0  0  0  0  0  0  0  0  0
   37.7710   26.1420   39.9740 C   0  0  0  0  0  0  0  0  0  0  0  0
   39.1360   26.0550   40.0190 C   0  0  0  0  0  0  0  0  0  0  0  0
   39.7560   24.9880   40.6970 C   0  0  0  0  0  0  0  0  0  0  0  0
   38.8990   24.0820   41.2850 N   0  0  0  0  0  0  0  0  0  0  0  0
   37.5560   24.1900   41.2260 C   0  0  0  0  0  0  0  0  0  0  0  0
   37.0150   25.2100   40.5760 N   0  0  0  0  0  0  0  0  0  0  0  0
   39.9610   26.6470   39.6460 H   0  0  0  0  0  0  0  0  0  0  0  0
   40.7840   24.7560   40.8380 H   0  0  0  0  0  0  0  0  0  0  0  0
   36.9190   23.4700   41.6930 H   0  0  0  0  0  0  0  0  0  0  0  0
   36.8870   30.0340   39.3660 O   0  0  0  0  0  0  0  0  0  0  0  0
   37.4000   32.5370   40.1190 O   0  0  0  0  0  0  0  0  0  0  0  0
   37.0850   31.1450   40.6210 P   0  0  1  0  0  0  0  0  0  0  0  0
   35.5840   31.2350   41.4560 O   0  0  0  0  0  0  0  0  0  0  0  0
   34.9150   31.4020   40.7380 H   0  0  0  0  0  0  0  0  0  0  0  0
   38.2580   30.5770   41.6840 O   0  0  0  0  0  0  0  0  0  0  0  0
   38.2440   29.3780   42.3490 C   0  0  0  0  0  0  0  0  0  0  0  0
   37.1010   28.6910   42.6990 C   0  0  0  0  0  0  0  0  0  0  0  0
   36.1470   29.0990   42.4450 H   0  0  0  0  0  0  0  0  0  0  0  0
   37.2580   27.4990   43.3650 C   0  0  0  0  0  3  0  0  0  0  0  0
   38.5060   26.9980   43.6780 C   0  0  0  0  0  3  0  0  0  0  0  0
   39.6540   27.6830   43.3300 C   0  0  0  0  0  0  0  0  0  0  0  0
   40.8790   27.1480   43.6610 C   0  0  0  0  0  3  0  0  0  0  0  0
   42.0320   27.8310   43.3150 C   0  0  0  0  0  3  0  0  0  0  0  0
   41.9130   29.0290   42.6470 C   0  0  0  0  0  3  0  0  0  0  0  0
   40.6760   29.5460   42.3240 C   0  0  0  0  0  3  0  0  0  0  0  0
   39.4970   28.8890   42.6560 C   0  0  0  0  0  0  0  0  0  0  0  0
  1  4  1  1  0  0  0
  1  3  1  0  0  0  0
  1  8  1  0  0  0  0
  2  1  1  0  0  0  0
  2  3  1  0  0  0  0
  3  7  1  1  0  0  0
  3 20  1  0  0  0  0
  5  2  1  0  0  0  0
  6  2  1  0  0  0  0
  8  9  1  0  0  0  0
  8 11  1  0  0  0  0
 10  8  1  0  0  0  0
 11 12  2  0  0  0  0
 11 16  1  0  0  0  0
 12 13  1  0  0  0  0
 13 18  1  0  0  0  0
 13 14  2  0  0  0  0
 15 14  1  0  0  0  0
 15 19  1  0  0  0  0
 16 15  2  0  0  0  0
 17 12  1  0  0  0  0
 20 22  1  0  0  0  0
 22 21  2  6  0  0  0
 22 23  1  0  0  0  0
 22 25  1  0  0  0  0
 24 23  1  0  0  0  0
 25 26  1  0  0  0  0
 26 36  2  0  0  0  0
 26 27  1  0  0  0  0
 27 29  2  0  0  0  0
 28 27  1  0  0  0  0
 29 30  1  0  0  0  0
 31 32  1  0  0  0  0
 31 30  2  0  0  0  0
 33 32  2  0  0  0  0
 34 33  1  0  0  0  0
 35 34  2  0  0  0  0
 35 36  1  0  0  0  0
 36 31  1  0  0  0  0
M  END
>  <minimizedAffinity>
-5.65903664

$$$$

 OpenBabel03252500453D

 36 39  0  0  1  0  0  0  0  0999 V2000
   38.7360   32.5820   39.6880 C   0  0  1  0  0  0  0  0  0  0  0  0
   37.6550   33.6550   39.7280 C   0  0  0  0  0  0  0  0  0  0  0  0
   37.4100   32.2840   40.3210 C   0  0  1  0  0  0  0  0  0  0  0  0
   39.5890   32.8730   40.3440 H   0  0  0  0  0  0  0  0  0  0  0  0
   37.7400   34.5230   40.3780 H   0  0  0  0  0  0  0  0  0  0  0  0
   37.1360   33.8650   38.7610 H   0  0  0  0  0  0  0  0  0  0  0  0
   37.3990   32.2970   41.4330 H   0  0  0  0  0  0  0  0  0  0  0  0
   38.9710   31.9380   38.3810 C   0  0  0  0  0  0  0  0  0  0  0  0
   38.7690   30.8350   38.5210 H   0  0  0  0  0  0  0  0  0  0  0  0
   38.2220   32.2490   37.6270 H   0  0  0  0  0  0  0  0  0  0  0  0
   40.3510   32.0210   37.8860 C   0  0  0  0  0  0  0  0  0  0  0  0
   40.8800   30.8050   37.5510 C   0  0  0  0  0  0  0  0  0  0  0  0
   42.1990   30.7140   37.0680 C   0  0  0  0  0  0  0  0  0  0  0  0
   42.8770   31.9110   36.9670 N   0  0  0  0  0  0  0  0  0  0  0  0
   42.3330   33.0980   37.3030 C   0  0  0  0  0  0  0  0  0  0  0  0
   41.0880   33.1360   37.7540 N   0  0  0  0  0  0  0  0  0  0  0  0
   40.5250   29.7820   37.5460 H   0  0  0  0  0  0  0  0  0  0  0  0
   42.7730   29.8720   36.7630 H   0  0  0  0  0  0  0  0  0  0  0  0
   42.8850   34.0080   37.2130 H   0  0  0  0  0  0  0  0  0  0  0  0
   36.5580   31.4590   39.6340 O   0  0  0  0  0  0  0  0  0  0  0  0
   34.9620   29.4850   40.4410 O   0  0  0  0  0  0  0  0  0  0  0  0
   36.4020   29.9350   40.3440 P   0  0  1  0  0  0  0  0  0  0  0  0
   37.2140   28.8170   39.3190 O   0  0  0  0  0  0  0  0  0  0  0  0
   36.8340   28.9920   38.4170 H   0  0  0  0  0  0  0  0  0  0  0  0
   37.1640   29.9420   41.8430 O   0  0  0  0  0  0  0  0  0  0  0  0
   37.7740   28.8770   42.4540 C   0  0  0  0  0  0  0  0  0  0  0  0
   37.1160   27.7540   42.9100 C   0  0  0  0  0  0  0  0  0  0  0  0
   36.0560   27.6850   42.7910 H   0  0  0  0  0  0  0  0  0  0  0  0
   37.8740   26.7710   43.5000 C   0  0  0  0  0  3  0  0  0  0  0  0
   39.2420   26.8910   43.6370 C   0  0  0  0  0  3  0  0  0  0  0  0
   39.9060   28.0140   43.1820 C   0  0  0  0  0  0  0  0  0  0  0  0
   41.2720   28.0930   43.3380 C   0  0  0  0  0  3  0  0  0  0  0  0
   41.9420   29.2160   42.8840 C   0  0  0  0  0  3  0  0  0  0  0  0
   41.2140   30.2200   42.2880 C   0  0  0  0  0  3  0  0  0  0  0  0
   39.8470   30.1200   42.1400 C   0  0  0  0  0  3  0  0  0  0  0  0
   39.1400   29.0090   42.5840 C   0  0  0  0  0  0  0  0  0  0  0  0
  1  2  1  0  0  0  0
  1  3  1  0  0  0  0
  1  4  1  1  0  0  0
  2  3  1  0  0  0  0
  2  5  1  0  0  0  0
  3  7  1  1  0  0  0
  6  2  1  0  0  0  0
  8  9  1  0  0  0  0
  8  1  1  0  0  0  0
 10  8  1  0  0  0  0
 11  8  1  0  0  0  0
 12 11  2  0  0  0  0
 13 12  1  0  0  0  0
 14 13  2  0  0  0  0
 14 15  1  0  0  0  0
 15 16  2  0  0  0  0
 16 11  1  0  0  0  0
 17 12  1  0  0  0  0
 18 13  1  0  0  0  0
 19 15  1  0  0  0  0
 20  3  1  0  0  0  0
 20 22  1  0  0  0  0
 22 21  2  1  0  0  0
 22 25  1  0  0  0  0
 23 22  1  0  0  0  0
 24 23  1  0  0  0  0
 25 26  1  0  0  0  0
 26 36  2  0  0  0  0
 26 27  1  0  0  0  0
 27 29  2  0  0  0  0
 28 27  1  0  0  0  0
 29 30  1  0  0  0  0
 31 32  1  0  0  0  0
 31 30  2  0  0  0  0
 33 32  2  0  0  0  0
 34 33  1  0  0  0  0
 35 34  2  0  0  0  0
 35 36  1  0  0  0  0
 36 31  1  0  0  0  0
M  END
>  <minimizedAffinity>
-5.61503315

$$$$

 OpenBabel03252500453D

 36 39  0  0  1  0  0  0  0  0999 V2000
   36.7660   28.7780   37.3570 C   0  0  1  0  0  0  0  0  0  0  0  0
   36.9670   30.0710   36.5770 C   0  0  0  0  0  0  0  0  0  0  0  0
   37.2000   30.0230   38.0720 C   0  0  1  0  0  0  0  0  0  0  0  0
   37.5410   28.0310   37.0660 H   0  0  0  0  0  0  0  0  0  0  0  0
   37.8060   30.2010   35.8980 H   0  0  0  0  0  0  0  0  0  0  0  0
   36.0350   30.5950   36.2480 H   0  0  0  0  0  0  0  0  0  0  0  0
   38.2780   30.0700   38.3360 H   0  0  0  0  0  0  0  0  0  0  0  0
   35.3690   28.3660   37.5950 C   0  0  0  0  0  0  0  0  0  0  0  0
   35.0730   28.7880   38.6010 H   0  0  0  0  0  0  0  0  0  0  0  0
   34.6690   28.8530   36.8880 H   0  0  0  0  0  0  0  0  0  0  0  0
   35.1580   26.9170   37.7030 C   0  0  0  0  0  0  0  0  0  0  0  0
   34.0310   26.4860   37.0570 C   0  0  0  0  0  0  0  0  0  0  0  0
   33.6820   25.1220   37.0750 C   0  0  0  0  0  0  0  0  0  0  0  0
   34.5430   24.2990   37.7700 N   0  0  0  0  0  0  0  0  0  0  0  0
   35.6480   24.7480   38.3980 C   0  0  0  0  0  0  0  0  0  0  0  0
   35.9380   26.0410   38.3560 N   0  0  0  0  0  0  0  0  0  0  0  0
   33.2530   26.9510   36.4660 H   0  0  0  0  0  0  0  0  0  0  0  0
   32.8590   24.6080   36.6400 H   0  0  0  0  0  0  0  0  0  0  0  0
   36.2960   24.0840   38.9290 H   0  0  0  0  0  0  0  0  0  0  0  0
   36.2690   30.6490   38.8600 O   0  0  0  0  0  0  0  0  0  0  0  0
   37.3690   32.5690   40.3450 O   0  0  0  0  0  0  0  0  0  0  0  0
   36.8910   31.1330   40.3530 P   0  0  1  0  0  0  0  0  0  0  0  0
   35.6050   31.0340   41.4910 O   0  0  0  0  0  0  0  0  0  0  0  0
   34.8630   31.5430   41.0670 H   0  0  0  0  0  0  0  0  0  0  0  0
   38.1060   30.0670   40.8190 O   0  0  0  0  0  0  0  0  0  0  0  0
   37.9330   28.8340   41.3940 C   0  0  0  0  0  0  0  0  0  0  0  0
   36.7980   28.0620   41.2640 C   0  0  0  0  0  0  0  0  0  0  0  0
   35.9810   28.4280   40.6800 H   0  0  0  0  0  0  0  0  0  0  0  0
   36.7820   26.8470   41.9040 C   0  0  0  0  0  3  0  0  0  0  0  0
   37.8550   26.4030   42.6500 C   0  0  0  0  0  3  0  0  0  0  0  0
   38.9940   27.1720   42.7840 C   0  0  0  0  0  0  0  0  0  0  0  0
   40.0420   26.6920   43.5380 C   0  0  0  0  0  3  0  0  0  0  0  0
   41.1850   27.4590   43.6740 C   0  0  0  0  0  3  0  0  0  0  0  0
   41.2360   28.6830   43.0470 C   0  0  0  0  0  3  0  0  0  0  0  0
   40.1760   29.1440   42.2960 C   0  0  0  0  0  3  0  0  0  0  0  0
   39.0110   28.4030   42.1370 C   0  0  0  0  0  0  0  0  0  0  0  0
  1  4  1  6  0  0  0
  1  8  1  0  0  0  0
  1  3  1  0  0  0  0
  2  1  1  0  0  0  0
  2  3  1  0  0  0  0
  3  7  1  1  0  0  0
  3 20  1  0  0  0  0
  5  2  1  0  0  0  0
  6  2  1  0  0  0  0
  8 11  1  0  0  0  0
  8  9  1  0  0  0  0
 10  8  1  0  0  0  0
 11 16  1  0  0  0  0
 12 13  1  0  0  0  0
 12 11  2  0  0  0  0
 13 14  2  0  0  0  0
 14 15  1  0  0  0  0
 15 19  1  0  0  0  0
 16 15  2  0  0  0  0
 17 12  1  0  0  0  0
 18 13  1  0  0  0  0
 20 22  1  0  0  0  0
 22 21  2  6  0  0  0
 22 25  1  0  0  0  0
 22 23  1  0  0  0  0
 24 23  1  0  0  0  0
 25 26  1  0  0  0  0
 26 36  1  0  0  0  0
 27 26  2  0  0  0  0
 27 29  1  0  0  0  0
 28 27  1  0  0  0  0
 29 30  2  0  0  0  0
 30 31  1  0  0  0  0
 31 32  1  0  0  0  0
 32 33  2  0  0  0  0
 34 33  1  0  0  0  0
 35 34  2  0  0  0  0
 36 35  1  0  0  0  0
 36 31  2  0  0  0  0
M  END
>  <minimizedAffinity>
-5.59907293

$$$$

 OpenBabel03252500453D

 36 39  0  0  1  0  0  0  0  0999 V2000
   37.3900   31.2010   38.4190 C   0  0  1  0  0  0  0  0  0  0  0  0
   37.2830   32.7020   38.6580 C   0  0  0  0  0  0  0  0  0  0  0  0
   38.4030   31.8960   39.2780 C   0  0  1  0  0  0  0  0  0  0  0  0
   37.6410   31.0000   37.3520 H   0  0  0  0  0  0  0  0  0  0  0  0
   37.4990   33.4190   37.8700 H   0  0  0  0  0  0  0  0  0  0  0  0
   36.4770   33.0310   39.3590 H   0  0  0  0  0  0  0  0  0  0  0  0
   39.3850   32.0900   38.7950 H   0  0  0  0  0  0  0  0  0  0  0  0
   36.4230   30.3520   39.1430 C   0  0  0  0  0  0  0  0  0  0  0  0
   36.9520   29.9710   40.0660 H   0  0  0  0  0  0  0  0  0  0  0  0
   35.5780   30.9430   39.5480 H   0  0  0  0  0  0  0  0  0  0  0  0
   35.9870   29.1510   38.4200 C   0  0  0  0  0  0  0  0  0  0  0  0
   36.2650   27.9890   39.0850 C   0  0  0  0  0  0  0  0  0  0  0  0
   35.9180   26.7470   38.5190 C   0  0  0  0  0  0  0  0  0  0  0  0
   35.3000   26.8090   37.2880 N   0  0  0  0  0  0  0  0  0  0  0  0
   35.0370   27.9680   36.6520 C   0  0  0  0  0  0  0  0  0  0  0  0
   35.3810   29.1140   37.2220 N   0  0  0  0  0  0  0  0  0  0  0  0
   36.7190   27.7300   40.0330 H   0  0  0  0  0  0  0  0  0  0  0  0
   36.0510   25.7550   38.8800 H   0  0  0  0  0  0  0  0  0  0  0  0
   34.5560   27.9830   35.6970 H   0  0  0  0  0  0  0  0  0  0  0  0
   38.3320   31.6800   40.6310 O   0  0  0  0  0  0  0  0  0  0  0  0
   40.7070   30.5120   40.3280 O   0  0  0  0  0  0  0  0  0  0  0  0
   39.8160   31.2440   41.3070 P   0  0  1  0  0  0  0  0  0  0  0  0
   40.6230   32.7020   41.7340 O   0  0  0  0  0  0  0  0  0  0  0  0
   40.5910   33.2510   40.9040 H   0  0  0  0  0  0  0  0  0  0  0  0
   39.5460   30.3490   42.7050 O   0  0  0  0  0  0  0  0  0  0  0  0
   38.8120   29.1950   42.8060 C   0  0  0  0  0  0  0  0  0  0  0  0
   37.4420   29.1230   42.6680 C   0  0  0  0  0  0  0  0  0  0  0  0
   36.8900   30.0160   42.4680 H   0  0  0  0  0  0  0  0  0  0  0  0
   36.8560   27.8870   42.7970 C   0  0  0  0  0  3  0  0  0  0  0  0
   37.6000   26.7530   43.0530 C   0  0  0  0  0  3  0  0  0  0  0  0
   38.9720   26.8190   43.1920 C   0  0  0  0  0  0  0  0  0  0  0  0
   39.6760   25.6630   43.4480 C   0  0  0  0  0  3  0  0  0  0  0  0
   41.0510   25.7240   43.5880 C   0  0  0  0  0  3  0  0  0  0  0  0
   41.6720   26.9470   43.4660 C   0  0  0  0  0  3  0  0  0  0  0  0
   40.9480   28.0920   43.2080 C   0  0  0  0  0  3  0  0  0  0  0  0
   39.5660   28.0690   43.0620 C   0  0  0  0  0  0  0  0  0  0  0  0
  1  4  1  6  0  0  0
  1  2  1  0  0  0  0
  1  8  1  0  0  0  0
  1  3  1  0  0  0  0
  2  3  1  0  0  0  0
  2  6  1  0  0  0  0
  3  7  1  6  0  0  0
  3 20  1  0  0  0  0
  5  2  1  0  0  0  0
  8 10  1  0  0  0  0
  8  9  1  0  0  0  0
 11 12  1  0  0  0  0
 11  8  1  0  0  0  0
 12 17  1  0  0  0  0
 13 18  1  0  0  0  0
 13 12  2  0  0  0  0
 14 13  1  0  0  0  0
 15 16  1  0  0  0  0
 15 14  2  0  0  0  0
 16 11  2  0  0  0  0
 19 15  1  0  0  0  0
 20 22  1  0  0  0  0
 22 21  2  6  0  0  0
 22 23  1  0  0  0  0
 22 25  1  0  0  0  0
 24 23  1  0  0  0  0
 25 26  1  0  0  0  0
 26 36  1  0  0  0  0
 27 29  1  0  0  0  0
 27 26  2  0  0  0  0
 28 27  1  0  0  0  0
 29 30  2  0  0  0  0
 30 31  1  0  0  0  0
 31 32  1  0  0  0  0
 32 33  2  0  0  0  0
 34 33  1  0  0  0  0
 35 34  2  0  0  0  0
 36 31  2  0  0  0  0
 36 35  1  0  0  0  0
M  END
>  <minimizedAffinity>
-5.54860544

$$$$

 OpenBabel03252500453D

 36 39  0  0  1  0  0  0  0  0999 V2000
   38.1130   30.5130   37.9580 C   0  0  1  0  0  0  0  0  0  0  0  0
   37.3490   29.7960   36.8520 C   0  0  0  0  0  0  0  0  0  0  0  0
   36.6890   30.0990   38.1800 C   0  0  1  0  0  0  0  0  0  0  0  0
   38.3240   31.5660   37.6580 H   0  0  0  0  0  0  0  0  0  0  0  0
   37.0290   30.3160   35.9530 H   0  0  0  0  0  0  0  0  0  0  0  0
   37.6240   28.7260   36.6810 H   0  0  0  0  0  0  0  0  0  0  0  0
   35.9380   30.9150   38.1050 H   0  0  0  0  0  0  0  0  0  0  0  0
   39.1240   29.7160   38.6810 C   0  0  0  0  0  0  0  0  0  0  0  0
   38.5590   28.9440   39.2820 H   0  0  0  0  0  0  0  0  0  0  0  0
   39.7420   29.1100   37.9890 H   0  0  0  0  0  0  0  0  0  0  0  0
   39.9230   30.4640   39.6590 C   0  0  0  0  0  0  0  0  0  0  0  0
   41.1540   29.9110   39.8860 C   0  0  0  0  0  0  0  0  0  0  0  0
   42.0380   30.5060   40.8070 C   0  0  0  0  0  0  0  0  0  0  0  0
   41.5700   31.6440   41.4280 N   0  0  0  0  0  0  0  0  0  0  0  0
   40.3520   32.1690   41.1870 C   0  0  0  0  0  0  0  0  0  0  0  0
   39.5510   31.5760   40.3130 N   0  0  0  0  0  0  0  0  0  0  0  0
   41.7000   29.0570   39.5080 H   0  0  0  0  0  0  0  0  0  0  0  0
   43.0180   30.2270   41.1110 H   0  0  0  0  0  0  0  0  0  0  0  0
   40.0180   33.0540   41.6850 H   0  0  0  0  0  0  0  0  0  0  0  0
   36.4690   29.0350   39.0160 O   0  0  0  0  0  0  0  0  0  0  0  0
   35.9490   30.9100   40.8360 O   0  0  0  0  0  0  0  0  0  0  0  0
   35.6850   29.4720   40.4460 P   0  0  1  0  0  0  0  0  0  0  0  0
   33.9950   29.3280   40.1580 O   0  0  0  0  0  0  0  0  0  0  0  0
   33.8440   29.8470   39.3230 H   0  0  0  0  0  0  0  0  0  0  0  0
   36.1180   28.3980   41.6650 O   0  0  0  0  0  0  0  0  0  0  0  0
   37.3820   28.1790   42.1490 C   0  0  0  0  0  0  0  0  0  0  0  0
   38.2390   29.1710   42.5780 C   0  0  0  0  0  0  0  0  0  0  0  0
   37.9190   30.1890   42.5420 H   0  0  0  0  0  0  0  0  0  0  0  0
   39.4750   28.7850   43.0360 C   0  0  0  0  0  3  0  0  0  0  0  0
   39.8580   27.4590   43.0710 C   0  0  0  0  0  3  0  0  0  0  0  0
   39.0040   26.4610   42.6420 C   0  0  0  0  0  0  0  0  0  0  0  0
   39.4250   25.1510   42.6930 C   0  0  0  0  0  3  0  0  0  0  0  0
   38.5720   24.1490   42.2650 C   0  0  0  0  0  3  0  0  0  0  0  0
   37.3250   24.4990   41.7990 C   0  0  0  0  0  3  0  0  0  0  0  0
   36.9240   25.8170   41.7570 C   0  0  0  0  0  3  0  0  0  0  0  0
   37.7520   26.8510   42.1780 C   0  0  0  0  0  0  0  0  0  0  0  0
  1  4  1  6  0  0  0
  1  3  1  0  0  0  0
  1  8  1  0  0  0  0
  2  1  1  0  0  0  0
  2  3  1  0  0  0  0
  3  7  1  1  0  0  0
  3 20  1  0  0  0  0
  5  2  1  0  0  0  0
  6  2  1  0  0  0  0
  8  9  1  0  0  0  0
  8 11  1  0  0  0  0
 10  8  1  0  0  0  0
 11 12  2  0  0  0  0
 11 16  1  0  0  0  0
 12 13  1  0  0  0  0
 13 18  1  0  0  0  0
 13 14  2  0  0  0  0
 15 14  1  0  0  0  0
 15 19  1  0  0  0  0
 16 15  2  0  0  0  0
 17 12  1  0  0  0  0
 20 22  1  0  0  0  0
 22 21  2  1  0  0  0
 22 25  1  0  0  0  0
 23 22  1  0  0  0  0
 24 23  1  0  0  0  0
 25 26  1  0  0  0  0
 26 36  2  0  0  0  0
 26 27  1  0  0  0  0
 27 29  2  0  0  0  0
 28 27  1  0  0  0  0
 29 30  1  0  0  0  0
 31 32  1  0  0  0  0
 31 30  2  0  0  0  0
 33 32  2  0  0  0  0
 34 33  1  0  0  0  0
 35 34  2  0  0  0  0
 35 36  1  0  0  0  0
 36 31  1  0  0  0  0
M  END
>  <minimizedAffinity>
-5.46674013

$$$$

 OpenBabel03252500453D

 36 39  0  0  1  0  0  0  0  0999 V2000
   37.4140   32.3200   38.9620 C   0  0  1  0  0  0  0  0  0  0  0  0
   37.3250   33.7210   39.5540 C   0  0  0  0  0  0  0  0  0  0  0  0
   38.6220   32.9430   39.5950 C   0  0  1  0  0  0  0  0  0  0  0  0
   37.3070   32.3650   37.8540 H   0  0  0  0  0  0  0  0  0  0  0  0
   37.2370   34.6010   38.9210 H   0  0  0  0  0  0  0  0  0  0  0  0
   36.7820   33.8090   40.5270 H   0  0  0  0  0  0  0  0  0  0  0  0
   39.3800   33.3420   38.8860 H   0  0  0  0  0  0  0  0  0  0  0  0
   36.7800   31.2390   39.7410 C   0  0  0  0  0  0  0  0  0  0  0  0
   37.5980   30.7550   40.3520 H   0  0  0  0  0  0  0  0  0  0  0  0
   36.0800   31.6350   40.5040 H   0  0  0  0  0  0  0  0  0  0  0  0
   36.1980   30.1540   38.9400 C   0  0  0  0  0  0  0  0  0  0  0  0
   36.7320   30.0650   37.6830 C   0  0  0  0  0  0  0  0  0  0  0  0
   36.2730   29.0810   36.7870 C   0  0  0  0  0  0  0  0  0  0  0  0
   35.2830   28.2530   37.2720 N   0  0  0  0  0  0  0  0  0  0  0  0
   34.7730   28.3610   38.5150 C   0  0  0  0  0  0  0  0  0  0  0  0
   35.2340   29.3030   39.3260 N   0  0  0  0  0  0  0  0  0  0  0  0
   37.4970   30.5920   37.1290 H   0  0  0  0  0  0  0  0  0  0  0  0
   36.5610   28.8610   35.7870 H   0  0  0  0  0  0  0  0  0  0  0  0
   34.0060   27.7030   38.8610 H   0  0  0  0  0  0  0  0  0  0  0  0
   39.0110   32.4580   40.8170 O   0  0  0  0  0  0  0  0  0  0  0  0
   41.1890   31.8220   39.4200 O   0  0  0  0  0  0  0  0  0  0  0  0
   40.5400   31.7420   40.7840 P   0  0  1  0  0  0  0  0  0  0  0  0
   41.5340   32.6280   41.8720 O   0  0  0  0  0  0  0  0  0  0  0  0
   41.4170   33.5760   41.5930 H   0  0  0  0  0  0  0  0  0  0  0  0
   40.4210   30.1560   41.3330 O   0  0  0  0  0  0  0  0  0  0  0  0
   39.6840   29.1490   40.7640 C   0  0  0  0  0  0  0  0  0  0  0  0
   39.8750   28.6660   39.4870 C   0  0  0  0  0  0  0  0  0  0  0  0
   40.6430   29.0890   38.8770 H   0  0  0  0  0  0  0  0  0  0  0  0
   39.0510   27.6510   39.0640 C   0  0  0  0  0  3  0  0  0  0  0  0
   38.0670   27.1260   39.8780 C   0  0  0  0  0  3  0  0  0  0  0  0
   37.8720   27.6060   41.1580 C   0  0  0  0  0  0  0  0  0  0  0  0
   36.8790   27.0540   41.9360 C   0  0  0  0  0  3  0  0  0  0  0  0
   36.6800   27.5320   43.2190 C   0  0  0  0  0  3  0  0  0  0  0  0
   37.4870   28.5490   43.6760 C   0  0  0  0  0  3  0  0  0  0  0  0
   38.4760   29.0870   42.8800 C   0  0  0  0  0  3  0  0  0  0  0  0
   38.7050   28.6330   41.5870 C   0  0  0  0  0  0  0  0  0  0  0  0
  1  4  1  6  0  0  0
  1  2  1  0  0  0  0
  1  3  1  0  0  0  0
  1  8  1  0  0  0  0
  2  3  1  0  0  0  0
  2  6  1  0  0  0  0
  3  7  1  6  0  0  0
  3 20  1  0  0  0  0
  5  2  1  0  0  0  0
  8  9  1  0  0  0  0
  8 10  1  0  0  0  0
 11 16  1  0  0  0  0
 11  8  1  0  0  0  0
 12 11  2  0  0  0  0
 13 14  2  0  0  0  0
 13 12  1  0  0  0  0
 14 15  1  0  0  0  0
 15 19  1  0  0  0  0
 15 16  2  0  0  0  0
 17 12  1  0  0  0  0
 18 13  1  0  0  0  0
 22 21  2  6  0  0  0
 22 20  1  0  0  0  0
 22 25  1  0  0  0  0
 22 23  1  0  0  0  0
 24 23  1  0  0  0  0
 26 25  1  0  0  0  0
 26 36  1  0  0  0  0
 27 26  2  0  0  0  0
 28 27  1  0  0  0  0
 29 27  1  0  0  0  0
 29 30  2  0  0  0  0
 30 31  1  0  0  0  0
 31 36  2  0  0  0  0
 31 32  1  0  0  0  0
 32 33  2  0  0  0  0
 33 34  1  0  0  0  0
 35 34  2  0  0  0  0
 36 35  1  0  0  0  0
M  END
>  <minimizedAffinity>
-5.43077993

$$$$

 OpenBabel03252500453D

 36 39  0  0  1  0  0  0  0  0999 V2000
   37.7490   30.1030   38.1500 C   0  0  1  0  0  0  0  0  0  0  0  0
   37.6970   31.4890   37.5180 C   0  0  0  0  0  0  0  0  0  0  0  0
   38.5010   31.2390   38.7760 C   0  0  1  0  0  0  0  0  0  0  0  0
   38.3010   29.3990   37.4840 H   0  0  0  0  0  0  0  0  0  0  0  0
   38.2050   31.7050   36.5810 H   0  0  0  0  0  0  0  0  0  0  0  0
   36.7440   32.0550   37.6570 H   0  0  0  0  0  0  0  0  0  0  0  0
   39.5970   31.2470   38.5890 H   0  0  0  0  0  0  0  0  0  0  0  0
   36.5400   29.6680   38.8770 C   0  0  0  0  0  0  0  0  0  0  0  0
   36.8300   29.5790   39.9650 H   0  0  0  0  0  0  0  0  0  0  0  0
   35.7550   30.4510   38.8760 H   0  0  0  0  0  0  0  0  0  0  0  0
   36.0300   28.3450   38.4990 C   0  0  0  0  0  0  0  0  0  0  0  0
   34.9470   28.4010   37.6640 C   0  0  0  0  0  0  0  0  0  0  0  0
   34.3340   27.2150   37.2180 C   0  0  0  0  0  0  0  0  0  0  0  0
   34.9010   26.0450   37.6780 N   0  0  0  0  0  0  0  0  0  0  0  0
   35.9690   26.0160   38.5010 C   0  0  0  0  0  0  0  0  0  0  0  0
   36.5140   27.1570   38.8970 N   0  0  0  0  0  0  0  0  0  0  0  0
   34.3740   29.1890   37.1940 H   0  0  0  0  0  0  0  0  0  0  0  0
   33.4980   27.0610   36.5790 H   0  0  0  0  0  0  0  0  0  0  0  0
   36.3850   25.0920   38.8400 H   0  0  0  0  0  0  0  0  0  0  0  0
   37.9980   31.7570   39.9410 O   0  0  0  0  0  0  0  0  0  0  0  0
   40.5730   32.2950   40.3630 O   0  0  0  0  0  0  0  0  0  0  0  0
   39.2020   32.2820   41.0030 P   0  0  1  0  0  0  0  0  0  0  0  0
   38.8250   33.9050   41.4300 O   0  0  0  0  0  0  0  0  0  0  0  0
   38.6910   34.3620   40.5560 H   0  0  0  0  0  0  0  0  0  0  0  0
   39.1640   31.3360   42.3930 O   0  0  0  0  0  0  0  0  0  0  0  0
   39.7320   30.0990   42.5540 C   0  0  0  0  0  0  0  0  0  0  0  0
   41.0830   29.8700   42.7000 C   0  0  0  0  0  0  0  0  0  0  0  0
   41.7580   30.6990   42.6910 H   0  0  0  0  0  0  0  0  0  0  0  0
   41.4930   28.5670   42.8520 C   0  0  0  0  0  3  0  0  0  0  0  0
   40.5960   27.5190   42.8600 C   0  0  0  0  0  3  0  0  0  0  0  0
   39.2400   27.7410   42.7140 C   0  0  0  0  0  0  0  0  0  0  0  0
   38.3800   26.6660   42.7270 C   0  0  0  0  0  3  0  0  0  0  0  0
   37.0210   26.8850   42.5810 C   0  0  0  0  0  3  0  0  0  0  0  0
   36.5750   28.1780   42.4260 C   0  0  0  0  0  3  0  0  0  0  0  0
   37.4540   29.2400   42.4170 C   0  0  0  0  0  3  0  0  0  0  0  0
   38.8250   29.0590   42.5600 C   0  0  0  0  0  0  0  0  0  0  0  0
  1  4  1  6  0  0  0
  1  3  1  0  0  0  0
  1  8  1  0  0  0  0
  2  6  1  0  0  0  0
  2  1  1  0  0  0  0
  2  3  1  0  0  0  0
  3  7  1  6  0  0  0
  3 20  1  0  0  0  0
  5  2  1  0  0  0  0
  8  9  1  0  0  0  0
 10  8  1  0  0  0  0
 11  8  1  0  0  0  0
 11 16  1  0  0  0  0
 12 11  2  0  0  0  0
 13 12  1  0  0  0  0
 13 14  2  0  0  0  0
 14 15  1  0  0  0  0
 15 19  1  0  0  0  0
 15 16  2  0  0  0  0
 17 12  1  0  0  0  0
 18 13  1  0  0  0  0
 20 22  1  0  0  0  0
 22 21  2  6  0  0  0
 22 23  1  0  0  0  0
 22 25  1  0  0  0  0
 24 23  1  0  0  0  0
 25 26  1  0  0  0  0
 26 36  2  0  0  0  0
 26 27  1  0  0  0  0
 27 29  2  0  0  0  0
 28 27  1  0  0  0  0
 29 30  1  0  0  0  0
 31 32  1  0  0  0  0
 31 30  2  0  0  0  0
 33 32  2  0  0  0  0
 34 33  1  0  0  0  0
 35 34  2  0  0  0  0
 35 36  1  0  0  0  0
 36 31  1  0  0  0  0
M  END
>  <minimizedAffinity>
-5.42927885

$$$$

 OpenBabel03252500453D

 36 39  0  0  1  0  0  0  0  0999 V2000
   36.0940   27.7080   37.9530 C   0  0  1  0  0  0  0  0  0  0  0  0
   34.6420   28.1640   37.8790 C   0  0  0  0  0  0  0  0  0  0  0  0
   35.6420   28.8970   38.7470 C   0  0  1  0  0  0  0  0  0  0  0  0
   36.6000   27.8800   36.9740 H   0  0  0  0  0  0  0  0  0  0  0  0
   34.2410   28.6420   36.9870 H   0  0  0  0  0  0  0  0  0  0  0  0
   33.9000   27.5290   38.4230 H   0  0  0  0  0  0  0  0  0  0  0  0
   35.9250   29.8860   38.3280 H   0  0  0  0  0  0  0  0  0  0  0  0
   36.3570   26.4860   38.7380 C   0  0  0  0  0  0  0  0  0  0  0  0
   36.0610   26.7150   39.8040 H   0  0  0  0  0  0  0  0  0  0  0  0
   35.6830   25.6560   38.4480 H   0  0  0  0  0  0  0  0  0  0  0  0
   37.7670   26.0820   38.8030 C   0  0  0  0  0  0  0  0  0  0  0  0
   38.6280   27.1390   38.9130 C   0  0  0  0  0  0  0  0  0  0  0  0
   40.0170   26.9180   38.9780 C   0  0  0  0  0  0  0  0  0  0  0  0
   40.4100   25.5970   38.9240 N   0  0  0  0  0  0  0  0  0  0  0  0
   39.5420   24.5720   38.8150 C   0  0  0  0  0  0  0  0  0  0  0  0
   38.2420   24.8260   38.7570 N   0  0  0  0  0  0  0  0  0  0  0  0
   38.5270   28.2140   38.9810 H   0  0  0  0  0  0  0  0  0  0  0  0
   40.8280   27.6010   39.0630 H   0  0  0  0  0  0  0  0  0  0  0  0
   39.8780   23.5590   38.7750 H   0  0  0  0  0  0  0  0  0  0  0  0
   35.5160   28.7340   40.1020 O   0  0  0  0  0  0  0  0  0  0  0  0
   37.6710   30.2980   40.1560 O   0  0  0  0  0  0  0  0  0  0  0  0
   36.5280   29.7570   40.9850 P   0  0  1  0  0  0  0  0  0  0  0  0
   35.5770   31.1040   41.4770 O   0  0  0  0  0  0  0  0  0  0  0  0
   35.1500   31.4220   40.6360 H   0  0  0  0  0  0  0  0  0  0  0  0
   37.0700   28.9510   42.3580 O   0  0  0  0  0  0  0  0  0  0  0  0
   38.2720   28.3090   42.5050 C   0  0  0  0  0  0  0  0  0  0  0  0
   39.4810   28.9450   42.6950 C   0  0  0  0  0  0  0  0  0  0  0  0
   39.5100   30.0120   42.7330 H   0  0  0  0  0  0  0  0  0  0  0  0
   40.5980   28.1560   42.8250 C   0  0  0  0  0  3  0  0  0  0  0  0
   40.5270   26.7780   42.7720 C   0  0  0  0  0  3  0  0  0  0  0  0
   39.3190   26.1360   42.5820 C   0  0  0  0  0  0  0  0  0  0  0  0
   39.2920   24.7600   42.5350 C   0  0  0  0  0  3  0  0  0  0  0  0
   38.0840   24.1120   42.3450 C   0  0  0  0  0  3  0  0  0  0  0  0
   36.9440   24.8710   42.2090 C   0  0  0  0  0  3  0  0  0  0  0  0
   36.9930   26.2480   42.2610 C   0  0  0  0  0  3  0  0  0  0  0  0
   38.1880   26.9340   42.4500 C   0  0  0  0  0  0  0  0  0  0  0  0
  1  4  1  6  0  0  0
  1  8  1  0  0  0  0
  1  3  1  0  0  0  0
  2  1  1  0  0  0  0
  2  6  1  0  0  0  0
  2  3  1  0  0  0  0
  3  7  1  6  0  0  0
  3 20  1  0  0  0  0
  5  2  1  0  0  0  0
  8 11  1  0  0  0  0
  8  9  1  0  0  0  0
 10  8  1  0  0  0  0
 11 12  1  0  0  0  0
 12 13  2  0  0  0  0
 12 17  1  0  0  0  0
 13 18  1  0  0  0  0
 14 13  1  0  0  0  0
 15 14  2  0  0  0  0
 16 11  2  0  0  0  0
 16 15  1  0  0  0  0
 19 15  1  0  0  0  0
 20 22  1  0  0  0  0
 22 21  2  6  0  0  0
 22 23  1  0  0  0  0
 22 25  1  0  0  0  0
 24 23  1  0  0  0  0
 25 26  1  0  0  0  0
 26 27  1  0  0  0  0
 27 28  1  0  0  0  0
 27 29  2  0  0  0  0
 30 29  1  0  0  0  0
 31 30  2  0  0  0  0
 32 31  1  0  0  0  0
 33 32  2  0  0  0  0
 34 35  2  0  0  0  0
 34 33  1  0  0  0  0
 35 36  1  0  0  0  0
 36 26  2  0  0  0  0
 36 31  1  0  0  0  0
M  END
>  <minimizedAffinity>
-5.39826632

$$$$
