
 OpenBabel03252504583D

 39 42  0  0  1  0  0  0  0  0999 V2000
   47.8110   34.1080   41.9820 N   0  0  0  0  0  0  0  0  0  0  0  0
   47.9440   35.0730   40.9560 C   0  0  0  0  0  0  0  0  0  0  0  0
   49.1530   35.8170   41.3710 C   0  0  0  0  0  0  0  0  0  0  0  0
   49.7010   35.1840   42.6370 C   0  0  0  0  0  0  0  0  0  0  0  0
   49.0350   33.8000   42.6000 C   0  0  2  0  0  0  0  0  0  0  0  0
   47.4820   35.3950   40.0600 H   0  0  0  0  0  0  0  0  0  0  0  0
   49.6630   36.6490   40.9240 H   0  0  0  0  0  0  0  0  0  0  0  0
   49.4010   35.7320   43.5270 H   0  0  0  0  0  0  0  0  0  0  0  0
   50.7870   35.0500   42.4880 H   0  0  0  0  0  0  0  0  0  0  0  0
   48.9260   33.3400   43.5780 H   0  0  0  0  0  0  0  0  0  0  0  0
   46.5700   33.6120   42.2920 C   0  0  0  0  0  0  0  0  0  0  0  0
   46.6810   32.5100   42.4670 H   0  0  0  0  0  0  0  0  0  0  0  0
   45.8300   33.6320   41.4610 H   0  0  0  0  0  0  0  0  0  0  0  0
   44.6000   35.9550   44.5200 C   0  0  0  0  0  0  0  0  0  0  0  0
   45.2330   35.4580   43.3440 C   0  0  0  0  0  0  0  0  0  0  0  0
   45.9120   34.2430   43.4160 C   0  0  0  0  0  0  0  0  0  0  0  0
   45.9220   33.6120   44.6100 N   0  0  0  0  0  0  0  0  0  0  0  0
   45.3040   34.1050   45.7400 C   0  0  0  0  0  0  0  0  0  0  0  0
   44.6510   35.2650   45.6900 N   0  0  0  0  0  0  0  0  0  0  0  0
   44.0790   36.8790   44.4820 H   0  0  0  0  0  0  0  0  0  0  0  0
   45.2020   35.9890   42.4170 H   0  0  0  0  0  0  0  0  0  0  0  0
   45.3700   33.5230   46.6570 H   0  0  0  0  0  0  0  0  0  0  0  0
   49.7680   33.0400   41.6760 O   0  0  0  0  0  0  0  0  0  0  0  0
   48.6850   30.9210   42.8630 O   0  0  0  0  0  0  0  0  0  0  0  0
   49.3170   31.4480   41.5930 P   0  0  2  0  0  0  0  0  0  0  0  0
   50.7090   30.5190   41.3090 O   0  0  0  0  0  0  0  0  0  0  0  0
   50.9620   30.6750   40.3530 H   0  0  0  0  0  0  0  0  0  0  0  0
   48.2930   31.1640   40.2490 O   0  0  0  0  0  0  0  0  0  0  0  0
   48.3000   31.8790   39.0840 C   0  0  0  0  0  0  0  0  0  0  0  0
   49.3380   32.3350   38.3340 C   0  0  0  0  0  0  0  0  0  0  0  0
   50.3130   32.0850   38.7300 H   0  0  0  0  0  0  0  0  0  0  0  0
   49.1770   33.0500   37.1700 C   0  0  0  0  0  3  0  0  0  0  0  0
   47.9060   33.3440   36.7040 C   0  0  0  0  0  3  0  0  0  0  0  0
   46.8320   32.8900   37.4540 C   0  0  0  0  0  0  0  0  0  0  0  0
   45.5930   33.2170   36.9320 C   0  0  0  0  0  3  0  0  0  0  0  0
   44.4720   32.8100   37.6040 C   0  0  0  0  0  3  0  0  0  0  0  0
   44.6110   32.1010   38.7570 C   0  0  0  0  0  3  0  0  0  0  0  0
   45.8440   31.7720   39.2820 C   0  0  0  0  0  3  0  0  0  0  0  0
   47.0100   32.1680   38.6270 C   0  0  0  0  0  0  0  0  0  0  0  0
  1 11  1  0  0  0  0
  1  5  1  0  0  0  0
  2  3  2  0  0  0  0
  2  1  1  0  0  0  0
  3  4  1  0  0  0  0
  4  8  1  0  0  0  0
  5  4  1  0  0  0  0
  5 10  1  1  0  0  0
  6  2  1  0  0  0  0
  7  3  1  0  0  0  0
  9  4  1  0  0  0  0
 11 12  1  0  0  0  0
 11 16  1  0  0  0  0
 13 11  1  0  0  0  0
 14 19  1  0  0  0  0
 15 16  1  0  0  0  0
 15 14  2  0  0  0  0
 16 17  2  0  0  0  0
 17 18  1  0  0  0  0
 18 22  1  0  0  0  0
 19 18  2  0  0  0  0
 20 14  1  0  0  0  0
 21 15  1  0  0  0  0
 23  5  1  0  0  0  0
 25 23  1  0  0  0  0
 25 24  2  1  0  0  0
 26 25  1  0  0  0  0
 27 26  1  0  0  0  0
 28 25  1  0  0  0  0
 29 28  1  0  0  0  0
 30 31  1  0  0  0  0
 30 29  2  0  0  0  0
 32 30  1  0  0  0  0
 33 32  2  0  0  0  0
 33 34  1  0  0  0  0
 34 39  1  0  0  0  0
 35 34  2  0  0  0  0
 35 36  1  0  0  0  0
 36 37  2  0  0  0  0
 37 38  1  0  0  0  0
 39 29  1  0  0  0  0
 39 38  2  0  0  0  0
M  END
>  <minimizedAffinity>
-5.41532326

>  <minimizedRMSD>
3.8049829

$$$$
