
     RDKit          3D

 50 54  0  0  0  0  0  0  0  0999 V2000
   44.5967   34.4247   42.9362 C   0  0  0  0  0  0  0  0  0  0  0  0
   44.3045   35.6911   43.5566 C   0  0  0  0  0  0  0  0  0  0  0  0
   44.6188   35.8176   44.9002 C   0  0  0  0  0  0  0  0  0  0  0  0
   45.1745   34.7548   45.5395 N   0  0  0  0  0  0  0  0  0  0  0  0
   45.4312   33.5701   44.8970 C   0  0  0  0  0  0  0  0  0  0  0  0
   45.1430   33.4465   43.6502 N   0  0  0  0  0  0  0  0  0  0  0  0
   46.0270   32.4599   45.6771 C   0  0  1  0  0  0  0  0  0  0  0  0
   46.9646   32.7828   46.8178 C   0  0  0  0  0  0  0  0  0  0  0  0
   45.5559   32.3554   47.0757 C   0  0  1  0  0  0  0  0  0  0  0  0
   44.7571   33.4286   47.6558 N   0  0  0  0  0  0  0  0  0  0  0  0
   44.2455   34.3138   41.5466 C   0  0  0  0  0  0  0  0  0  0  0  0
   45.1160   34.1546   40.6397 O   0  0  0  0  0  0  0  0  0  0  0  0
   42.0006   33.3077   41.2989 C   0  0  0  0  0  0  0  0  0  0  0  0
   42.8059   34.4065   41.3075 C   0  0  0  0  0  0  0  0  0  0  0  0
   42.2312   35.6676   41.0722 C   0  0  0  0  0  0  0  0  0  0  0  0
   40.8930   35.8467   40.8342 C   0  0  0  0  0  0  0  0  0  0  0  0
   40.0791   34.7442   40.8251 C   0  0  0  0  0  0  0  0  0  0  0  0
   40.6394   33.5253   41.0527 C   0  0  0  0  0  0  0  0  0  0  0  0
   42.5387   31.7598   41.6878 S   0  0  0  0  0  0  0  0  0  0  0  0
   42.3633   31.0747   40.2905 O   0  0  0  0  0  0  0  0  0  0  0  0
   41.6350   31.0306   42.5914 O   0  0  0  0  0  0  0  0  0  0  0  0
   43.8752   36.5687   43.1320 H   0  0  0  0  0  0  0  0  0  0  0  0
   44.4521   36.7070   45.4782 H   0  0  0  0  0  0  0  0  0  0  0  0
   46.1713   31.5206   45.1223 H   0  0  0  0  0  0  0  0  0  0  0  0
   47.2816   33.8367   46.9447 H   0  0  0  0  0  0  0  0  0  0  0  0
   47.7320   32.0333   47.0851 H   0  0  0  0  0  0  0  0  0  0  0  0
   45.3460   31.3796   47.5584 H   0  0  0  0  0  0  0  0  0  0  0  0
   43.7592   33.1844   47.4107 H   0  0  0  0  0  0  0  0  0  0  0  0
   44.8630   33.3417   48.6861 H   0  0  0  0  0  0  0  0  0  0  0  0
   42.8024   36.5854   41.0521 H   0  0  0  0  0  0  0  0  0  0  0  0
   40.4577   36.8016   40.6560 H   0  0  0  0  0  0  0  0  0  0  0  0
   39.0184   34.7920   40.6469 H   0  0  0  0  0  0  0  0  0  0  0  0
   39.9800   32.6422   41.0437 H   0  0  0  0  0  0  0  0  0  0  0  0
   44.1122   31.1323   41.6878 C   0  0  0  0  0  0  0  0  0  0  0  0
   45.2140   31.4150   42.5347 C   0  0  0  0  0  0  0  0  0  0  0  0
   44.9133   32.1414   43.3257 H   0  0  0  0  0  0  0  0  0  0  0  0
   46.5344   31.0028   42.5249 C   0  0  0  0  0  0  0  0  0  0  0  0
   46.7286   30.1767   41.4739 C   0  0  0  0  0  0  0  0  0  0  0  0
   45.7779   29.7997   40.5586 C   0  0  0  0  0  0  0  0  0  0  0  0
   46.2448   28.9356   39.5651 C   0  0  0  0  0  0  0  0  0  0  0  0
   45.3746   28.4942   38.5971 C   0  0  0  0  0  0  0  0  0  0  0  0
   44.0681   28.9250   38.6490 C   0  0  0  0  0  0  0  0  0  0  0  0
   43.6973   29.7744   39.6612 C   0  0  0  0  0  0  0  0  0  0  0  0
   44.4965   30.2686   40.6666 C   0  0  0  0  0  0  0  0  0  0  0  0
   47.1736   31.3752   43.3045 H   0  0  0  0  0  0  0  0  0  0  0  0
   47.7617   29.8139   41.4138 H   0  0  0  0  0  0  0  0  0  0  0  0
   47.2663   28.6001   39.5302 H   0  0  0  0  0  0  0  0  0  0  0  0
   45.7340   27.8351   37.8388 H   0  0  0  0  0  0  0  0  0  0  0  0
   43.4027   28.5730   37.8912 H   0  0  0  0  0  0  0  0  0  0  0  0
   42.6558   30.0246   39.6247 H   0  0  0  0  0  0  0  0  0  0  0  0
  1  2  2  0
  1  6  1  0
  2  3  1  0
  3  4  2  0
  5  4  1  0
  5  7  1  0
  6  5  2  0
  7  8  1  0
  7  9  1  0
  8  9  1  0
  9 10  1  0
 11  1  1  0
 12 11  2  0
 13 19  1  0
 14 13  1  0
 14 11  1  0
 15 14  2  0
 16 17  2  0
 16 15  1  0
 17 18  1  0
 18 13  2  0
 19 21  2  0
 20 19  2  0
  2 22  1  0
  3 23  1  0
  7 24  1  6
  8 25  1  0
  8 26  1  0
  9 27  1  1
 10 28  1  0
 10 29  1  0
 15 30  1  0
 16 31  1  0
 17 32  1  0
 18 33  1  0
 34 35  2  0
 35 36  1  0
 35 37  1  0
 37 38  2  0
 38 39  1  0
 39 40  2  0
 40 41  1  0
 41 42  2  0
 42 43  1  0
 43 44  2  0
 44 34  1  0
 44 39  1  0
 37 45  1  0
 38 46  1  0
 40 47  1  0
 41 48  1  0
 42 49  1  0
 43 50  1  0
 19 34  1  0
M  ISO  8  22  14  23  14  24  13  25  13  26  13  27  13  28   5  29   5
M  ISO  5  30  14  31  14  32  14  33  14  36  15
M  END
>  <DihAtoms>  (1) 
12,18,33,34

>  <DihDeg>  (1) 
-50.9441772802134

$$$$
