
     RDKit          3D

 43 46  0  0  0  0  0  0  0  0999 V2000
   45.1306   34.4150   41.1900 C   0  0  0  0  0  0  0  0  0  0  0  0
   45.5470   35.0204   42.3709 C   0  0  0  0  0  0  0  0  0  0  0  0
   46.9193   35.2446   42.5465 C   0  0  0  0  0  0  0  0  0  0  0  0
   47.8011   34.8705   41.5718 C   0  0  0  0  0  0  0  0  0  0  0  0
   47.4097   34.2757   40.4073 C   0  0  0  0  0  0  0  0  0  0  0  0
   46.0359   34.0591   40.2484 C   0  0  0  0  0  0  0  0  0  0  0  0
   41.4338   34.8407   40.5778 C   0  0  0  0  0  0  0  0  0  0  0  0
   42.7928   35.1650   40.6632 C   0  0  0  0  0  0  0  0  0  0  0  0
   43.6986   34.2068   41.0621 C   0  0  0  0  0  0  0  0  0  0  0  0
   43.1970   32.9758   41.3543 N   0  0  0  0  0  0  0  0  0  0  0  0
   41.8828   32.6717   41.2687 C   0  0  0  0  0  0  0  0  0  0  0  0
   40.9916   33.6066   40.8786 N   0  0  0  0  0  0  0  0  0  0  0  0
   40.4524   35.8714   40.1473 C   0  0  0  0  0  0  0  0  0  0  0  0
   39.2312   35.2361   39.9583 F   0  0  0  0  0  0  0  0  0  0  0  0
   40.8449   36.3011   38.8862 F   0  0  0  0  0  0  0  0  0  0  0  0
   40.3160   36.8993   41.0408 F   0  0  0  0  0  0  0  0  0  0  0  0
   45.4608   32.1442   38.5585 C   0  0  0  0  0  0  0  0  0  0  0  0
   45.9440   31.1465   39.0881 O   0  0  0  0  0  0  0  0  0  0  0  0
   45.4876   33.4525   39.0901 N   0  0  0  0  0  0  0  0  0  0  0  0
   44.8377   35.3117   43.1326 H   0  0  0  0  0  0  0  0  0  0  0  0
   47.2419   35.7187   43.4688 H   0  0  0  0  0  0  0  0  0  0  0  0
   48.8415   35.0710   41.7669 H   0  0  0  0  0  0  0  0  0  0  0  0
   48.0925   33.9723   39.6245 H   0  0  0  0  0  0  0  0  0  0  0  0
   43.1715   36.1557   40.4243 H   0  0  0  0  0  0  0  0  0  0  0  0
   41.5323   31.6704   41.5124 H   0  0  0  0  0  0  0  0  0  0  0  0
   44.9998   34.2321   38.5492 H   0  0  0  0  0  0  0  0  0  0  0  0
   44.8072   31.9403   37.2678 C   0  0  0  0  0  0  0  0  0  0  0  0
   43.4859   31.5739   37.2853 C   0  0  0  0  0  0  0  0  0  0  0  0
   42.9377   31.4379   38.2156 H   0  0  0  0  0  0  0  0  0  0  0  0
   42.7797   31.3580   36.1249 C   0  0  0  0  0  0  0  0  0  0  0  0
   43.3731   31.5014   34.8652 C   0  0  0  0  0  0  0  0  0  0  0  0
   44.7130   31.8732   34.8672 C   0  0  0  0  0  0  0  0  0  0  0  0
   45.3299   32.0236   33.6366 C   0  0  0  0  0  0  0  0  0  0  0  0
   46.6710   32.3951   33.5872 C   0  0  0  0  0  0  0  0  0  0  0  0
   47.3407   32.6013   34.7827 C   0  0  0  0  0  0  0  0  0  0  0  0
   46.7375   32.4548   36.0148 C   0  0  0  0  0  0  0  0  0  0  0  0
   45.4105   32.0868   36.0375 C   0  0  0  0  0  0  0  0  0  0  0  0
   41.7266   31.0641   36.0495 H   0  0  0  0  0  0  0  0  0  0  0  0
   42.8732   31.3463   33.9192 H   0  0  0  0  0  0  0  0  0  0  0  0
   44.7885   31.8576   32.7076 H   0  0  0  0  0  0  0  0  0  0  0  0
   47.1000   32.4973   32.6116 H   0  0  0  0  0  0  0  0  0  0  0  0
   48.3981   32.8941   34.7004 H   0  0  0  0  0  0  0  0  0  0  0  0
   47.2975   32.6258   36.9235 H   0  0  0  0  0  0  0  0  0  0  0  0
  1  2  2  0
  2  3  1  0
  4  3  2  0
  5  4  1  0
  6  5  2  0
  6  1  1  0
  7  8  2  0
  7 12  1  0
  8  9  1  0
  9  1  1  0
  9 10  2  0
 11 10  1  0
 12 11  2  0
 13  7  1  0
 13 16  1  0
 14 13  1  0
 15 13  1  0
 17 18  2  0
 17 19  1  0
 19  6  1  0
  2 20  1  0
  3 21  1  0
  4 22  1  0
  5 23  1  0
  8 24  1  0
 11 25  1  0
 19 26  1  0
 27 28  2  0
 28 29  1  0
 28 30  1  0
 30 31  2  0
 31 32  1  0
 32 33  2  0
 33 34  1  0
 34 35  2  0
 35 36  1  0
 36 37  2  0
 37 27  1  0
 37 32  1  0
 30 38  1  0
 31 39  1  0
 33 40  1  0
 34 41  1  0
 35 42  1  0
 36 43  1  0
 17 27  1  0
M  ISO  7  20  14  21  14  22  14  23  14  24  14  25  14  29  15
M  END
>  <DihAtoms>  (1) 
17,16,26,27

>  <DihDeg>  (1) 
-123.32155295307952

$$$$
