
     RDKit          3D

 32 34  0  0  0  0  0  0  0  0999 V2000
   45.1906   35.2116   44.0642 C   0  0  0  0  0  0  0  0  0  0  0  0
   46.2131   34.5904   43.3604 C   0  0  0  0  0  0  0  0  0  0  0  0
   46.8923   33.5661   44.0544 C   0  0  0  0  0  0  0  0  0  0  0  0
   46.5243   33.2518   45.3289 N   0  0  0  0  0  0  0  0  0  0  0  0
   45.5118   33.9094   45.9447 C   0  0  0  0  0  0  0  0  0  0  0  0
   44.8442   34.8935   45.3057 N   0  0  0  0  0  0  0  0  0  0  0  0
   46.5613   34.9575   42.0061 C   0  0  1  0  0  0  0  0  0  0  0  0
   48.0585   35.2057   41.9415 C   0  0  0  0  0  0  0  0  0  0  0  0
   44.5989   36.0121   43.6434 H   0  0  0  0  0  0  0  0  0  0  0  0
   47.7119   33.0175   43.5832 H   0  0  0  0  0  0  0  0  0  0  0  0
   45.3909   33.4970   46.9515 H   0  0  0  0  0  0  0  0  0  0  0  0
   46.1270   35.9620   41.7837 H   0  0  0  0  0  0  0  0  0  0  0  0
   48.6378   34.4647   42.5032 H   0  0  0  0  0  0  0  0  0  0  0  0
   48.2881   36.2100   42.4017 H   0  0  0  0  0  0  0  0  0  0  0  0
   48.3872   35.2931   40.8812 H   0  0  0  0  0  0  0  0  0  0  0  0
   46.2205   33.9693   40.9599 C   0  0  0  0  0  0  0  0  0  0  0  0
   46.9569   33.9996   39.7660 C   0  0  0  0  0  0  0  0  0  0  0  0
   47.7402   34.7553   39.6432 H   0  0  0  0  0  0  0  0  0  0  0  0
   46.7844   33.1475   38.7063 C   0  0  0  0  0  0  0  0  0  0  0  0
   45.8105   32.1773   38.8107 C   0  0  0  0  0  0  0  0  0  0  0  0
   45.0521   32.0942   39.9569 C   0  0  0  0  0  0  0  0  0  0  0  0
   44.0779   31.1454   40.0782 C   0  0  0  0  0  0  0  0  0  0  0  0
   43.3216   31.0794   41.2301 C   0  0  0  0  0  0  0  0  0  0  0  0
   43.5274   31.9577   42.2733 C   0  0  0  0  0  0  0  0  0  0  0  0
   44.5158   32.9078   42.1307 C   0  0  0  0  0  0  0  0  0  0  0  0
   45.2665   32.9754   40.9918 C   0  0  0  0  0  0  0  0  0  0  0  0
   47.3945   33.2366   37.8185 H   0  0  0  0  0  0  0  0  0  0  0  0
   45.6414   31.4810   37.9933 H   0  0  0  0  0  0  0  0  0  0  0  0
   43.9357   30.4726   39.2529 H   0  0  0  0  0  0  0  0  0  0  0  0
   42.5796   30.3180   41.2602 H   0  0  0  0  0  0  0  0  0  0  0  0
   42.8962   31.8399   43.1340 H   0  0  0  0  0  0  0  0  0  0  0  0
   44.6611   33.5799   42.9342 H   0  0  0  0  0  0  0  0  0  0  0  0
  1  6  2  0
  2  1  1  0
  2  3  2  0
  3  4  1  0
  4  5  2  0
  6  5  1  0
  7  2  1  0
  8  7  1  0
  1  9  1  0
  3 10  1  0
  5 11  1  0
  7 12  1  6
  8 13  1  0
  8 14  1  0
  8 15  1  0
 16 17  2  0
 17 18  1  0
 17 19  1  0
 19 20  2  0
 20 21  1  0
 21 22  2  0
 22 23  1  0
 23 24  2  0
 24 25  1  0
 25 26  2  0
 26 16  1  0
 26 21  1  0
 19 27  1  0
 20 28  1  0
 22 29  1  0
 23 30  1  0
 24 31  1  0
 25 32  1  0
  7 16  1  0
M  ISO  8   9  14  10  14  11  14  12   8  13   8  14   8  15   8  18  15
M  END
>  <DihAtoms>  (1) 
1,6,15,16

>  <DihDeg>  (1) 
-95.70095803197756

$$$$
