
 OpenBabel03252502373D

 26 28  0  0  1  0  0  0  0  0999 V2000
   46.2590   35.1840   42.3220 C   0  0  1  0  0  0  0  0  0  0  0  0
   45.9270   36.2450   42.4140 H   0  0  0  0  0  0  0  0  0  0  0  0
   45.5840   34.4920   41.2020 C   0  0  0  0  0  0  0  0  0  0  0  0
   46.3480   33.6130   40.4210 C   0  0  0  0  0  0  0  0  0  0  0  0
   47.4090   33.4790   40.6530 H   0  0  0  0  0  0  0  0  0  0  0  0
   45.8770   32.8810   39.3610 C   0  0  0  0  0  3  0  0  0  0  0  0
   44.5450   33.0120   39.0280 C   0  0  0  0  0  3  0  0  0  0  0  0
   43.7410   33.8600   39.7550 C   0  0  0  0  0  0  0  0  0  0  0  0
   42.4220   34.0100   39.4370 C   0  0  0  0  0  3  0  0  0  0  0  0
   41.6310   34.8690   40.1720 C   0  0  0  0  0  3  0  0  0  0  0  0
   42.1460   35.5890   41.2300 C   0  0  0  0  0  3  0  0  0  0  0  0
   43.4800   35.4220   41.5350 C   0  0  0  0  0  3  0  0  0  0  0  0
   44.2650   34.5720   40.8100 C   0  0  0  0  0  0  0  0  0  0  0  0
   45.2060   34.9360   44.5600 C   0  0  0  0  0  0  0  0  0  0  0  0
   46.1480   34.5480   43.6160 C   0  0  0  0  0  0  0  0  0  0  0  0
   46.9920   33.4860   44.0020 C   0  0  0  0  0  0  0  0  0  0  0  0
   46.8450   32.9160   45.2320 N   0  0  0  0  0  0  0  0  0  0  0  0
   45.8980   33.3540   46.0950 C   0  0  0  0  0  0  0  0  0  0  0  0
   45.0750   34.3700   45.7540 N   0  0  0  0  0  0  0  0  0  0  0  0
   44.5050   35.7390   44.3850 H   0  0  0  0  0  0  0  0  0  0  0  0
   47.7650   33.1090   43.3260 H   0  0  0  0  0  0  0  0  0  0  0  0
   45.9600   32.7590   47.0120 H   0  0  0  0  0  0  0  0  0  0  0  0
   47.7320   35.3100   41.9690 C   0  0  0  0  0  0  0  0  0  0  0  0
   48.3090   34.4130   42.2220 H   0  0  0  0  0  0  0  0  0  0  0  0
   48.1820   36.1590   42.5600 H   0  0  0  0  0  0  0  0  0  0  0  0
   47.8460   35.6070   40.9030 H   0  0  0  0  0  0  0  0  0  0  0  0
  1  2  1  1  0  0  0
  1 15  1  0  0  0  0
  3  1  1  0  0  0  0
  4  5  1  0  0  0  0
  4  3  2  0  0  0  0
  6  4  1  0  0  0  0
  7  6  2  0  0  0  0
  7  8  1  0  0  0  0
  8 13  1  0  0  0  0
  9  8  2  0  0  0  0
  9 10  1  0  0  0  0
 10 11  2  0  0  0  0
 11 12  1  0  0  0  0
 13  3  1  0  0  0  0
 13 12  2  0  0  0  0
 14 19  1  0  0  0  0
 15 16  1  0  0  0  0
 15 14  2  0  0  0  0
 16 17  2  0  0  0  0
 17 18  1  0  0  0  0
 18 22  1  0  0  0  0
 19 18  2  0  0  0  0
 20 14  1  0  0  0  0
 21 16  1  0  0  0  0
 23 24  1  0  0  0  0
 23  1  1  0  0  0  0
 23 25  1  0  0  0  0
 26 23  1  0  0  0  0
M  END
>  <minimizedAffinity>
-5.38018227

>  <minimizedRMSD>
1.96431661

$$$$
