
 OpenBabel03252509273D

 32 35  0  0  1  0  0  0  0  0999 V2000
   47.2270   35.2820   41.8750 C   0  0  1  0  0  0  0  0  0  0  0  0
   48.7520   35.3470   41.9690 C   0  0  0  0  0  0  0  0  0  0  0  0
   47.9330   34.3640   41.0720 C   0  0  2  0  0  0  0  0  0  0  0  0
   46.7970   36.2150   41.5190 H   0  0  0  0  0  0  0  0  0  0  0  0
   49.2730   36.1480   41.3920 H   0  0  0  0  0  0  0  0  0  0  0  0
   49.2610   34.9620   42.8450 H   0  0  0  0  0  0  0  0  0  0  0  0
   48.1460   33.3040   41.4280 H   0  0  0  0  0  0  0  0  0  0  0  0
   44.9450   34.8210   44.8090 C   0  0  0  0  0  0  0  0  0  0  0  0
   45.4840   35.3790   43.6170 C   0  0  0  0  0  0  0  0  0  0  0  0
   46.6280   34.7820   43.1700 C   0  0  0  0  0  0  0  0  0  0  0  0
   47.2040   33.7240   43.8360 N   0  0  0  0  0  0  0  0  0  0  0  0
   46.6620   33.2290   44.9580 C   0  0  0  0  0  0  0  0  0  0  0  0
   45.5210   33.7840   45.4490 N   0  0  0  0  0  0  0  0  0  0  0  0
   44.0380   35.2230   45.2340 H   0  0  0  0  0  0  0  0  0  0  0  0
   47.1300   32.3970   45.4720 H   0  0  0  0  0  0  0  0  0  0  0  0
   44.8870   36.4750   42.9710 N   0  0  0  0  0  0  0  0  0  0  0  0
   45.5500   37.2840   43.0510 H   0  0  0  0  0  0  0  0  0  0  0  0
   43.9320   36.4630   42.4940 H   0  0  0  0  0  0  0  0  0  0  0  0
   48.0750   34.5060   39.5800 C   0  0  0  0  0  0  0  0  0  0  0  0
   49.1340   34.2340   39.3100 H   0  0  0  0  0  0  0  0  0  0  0  0
   47.9130   35.5780   39.3990 H   0  0  0  0  0  0  0  0  0  0  0  0
   47.1950   33.5970   38.8440 C   0  0  0  0  0  0  0  0  0  0  0  0
   46.0110   33.2750   39.5220 C   0  0  0  0  0  0  0  0  0  0  0  0
   45.7960   33.5670   40.5440 H   0  0  0  0  0  0  0  0  0  0  0  0
   45.0150   32.5420   38.8880 C   0  0  0  0  0  3  0  0  0  0  0  0
   45.1320   32.0970   37.5860 C   0  0  0  0  0  3  0  0  0  0  0  0
   46.2770   32.3990   36.9210 C   0  0  0  0  0  0  0  0  0  0  0  0
   46.4700   31.9330   35.6230 C   0  0  0  0  0  3  0  0  0  0  0  0
   47.6690   32.2210   35.0030 C   0  0  0  0  0  3  0  0  0  0  0  0
   48.6580   32.9500   35.6360 C   0  0  0  0  0  3  0  0  0  0  0  0
   48.4390   33.4010   36.9210 C   0  0  0  0  0  3  0  0  0  0  0  0
   47.2300   33.1130   37.5550 C   0  0  0  0  0  0  0  0  0  0  0  0
  1  4  1  6  0  0  0
  1  2  1  0  0  0  0
  1 10  1  0  0  0  0
  2  6  1  0  0  0  0
  3  7  1  1  0  0  0
  3  1  1  0  0  0  0
  3  2  1  0  0  0  0
  5  2  1  0  0  0  0
  8 14  1  0  0  0  0
  8 13  1  0  0  0  0
  9  8  2  0  0  0  0
 10  9  1  0  0  0  0
 10 11  2  0  0  0  0
 11 12  1  0  0  0  0
 12 13  2  0  0  0  0
 12 15  1  0  0  0  0
 16 17  1  0  0  0  0
 16  9  1  0  0  0  0
 18 16  1  0  0  0  0
 19  3  1  0  0  0  0
 20 19  1  0  0  0  0
 21 19  1  0  0  0  0
 22 23  1  0  0  0  0
 22 19  1  0  0  0  0
 23 24  1  0  0  0  0
 25 23  2  0  0  0  0
 26 25  1  0  0  0  0
 27 32  1  0  0  0  0
 27 26  2  0  0  0  0
 28 27  1  0  0  0  0
 29 28  2  0  0  0  0
 29 30  1  0  0  0  0
 30 31  2  0  0  0  0
 31 32  1  0  0  0  0
 32 22  2  0  0  0  0
M  END
>  <minimizedAffinity>
-5.59649515

>  <minimizedRMSD>
1.57110023

$$$$
