
 OpenBabel03252509003D

 47 50  0  0  1  0  0  0  0  0999 V2000
   47.1660   34.1580   43.0860 N   0  0  0  0  0  0  0  0  0  0  0  0
   46.6750   35.3470   42.4870 C   0  0  0  0  0  0  0  0  0  0  0  0
   45.1960   35.5990   42.6890 C   0  0  0  0  0  0  0  0  0  0  0  0
   44.6520   35.1020   44.0070 C   0  0  0  0  0  0  0  0  0  0  0  0
   45.7480   34.5530   44.8870 C   0  0  0  0  0  0  0  0  0  0  0  0
   46.4070   33.4400   43.9920 C   0  0  2  0  0  0  0  0  0  0  0  0
   47.1840   36.2000   43.0040 H   0  0  0  0  0  0  0  0  0  0  0  0
   46.8950   35.4720   41.4280 H   0  0  0  0  0  0  0  0  0  0  0  0
   44.6510   35.2010   41.8030 H   0  0  0  0  0  0  0  0  0  0  0  0
   45.0100   36.6970   42.6640 H   0  0  0  0  0  0  0  0  0  0  0  0
   44.0230   35.8590   44.5300 H   0  0  0  0  0  0  0  0  0  0  0  0
   43.9800   34.2460   43.7790 H   0  0  0  0  0  0  0  0  0  0  0  0
   46.5330   35.2670   45.1310 H   0  0  0  0  0  0  0  0  0  0  0  0
   45.2680   34.0400   45.7270 H   0  0  0  0  0  0  0  0  0  0  0  0
   45.5710   32.8150   43.5860 H   0  0  0  0  0  0  0  0  0  0  0  0
   48.1380   33.4650   42.2940 C   0  0  0  0  0  0  0  0  0  0  0  0
   48.7810   32.8070   42.9410 H   0  0  0  0  0  0  0  0  0  0  0  0
   48.7560   34.2170   41.7800 H   0  0  0  0  0  0  0  0  0  0  0  0
   47.4320   32.5770   41.3250 C   0  0  0  0  0  0  0  0  0  0  0  0
   47.4550   31.5040   41.5620 H   0  0  0  0  0  0  0  0  0  0  0  0
   46.3500   32.8460   41.2620 H   0  0  0  0  0  0  0  0  0  0  0  0
   49.3020   32.0730   38.1070 C   0  0  0  0  0  0  0  0  0  0  0  0
   48.7870   31.8560   39.3990 C   0  0  0  0  0  0  0  0  0  0  0  0
   47.9740   32.8100   39.9610 C   0  0  0  0  0  0  0  0  0  0  0  0
   47.7110   33.9100   39.2400 N   0  0  0  0  0  0  0  0  0  0  0  0
   48.2150   34.0990   38.0020 C   0  0  0  0  0  0  0  0  0  0  0  0
   49.0110   33.1860   37.4280 N   0  0  0  0  0  0  0  0  0  0  0  0
   49.9330   31.2420   37.7760 H   0  0  0  0  0  0  0  0  0  0  0  0
   49.0060   30.9580   39.9800 H   0  0  0  0  0  0  0  0  0  0  0  0
   47.9960   34.9980   37.4240 H   0  0  0  0  0  0  0  0  0  0  0  0
   47.1970   32.7720   44.9160 O   0  0  0  0  0  0  0  0  0  0  0  0
   45.9540   30.5910   44.0370 O   0  0  0  0  0  0  0  0  0  0  0  0
   46.6380   31.2210   45.2530 P   0  0  2  0  0  0  0  0  0  0  0  0
   45.3820   31.4110   46.4020 O   0  0  0  0  0  0  0  0  0  0  0  0
   45.7890   31.9360   47.1280 H   0  0  0  0  0  0  0  0  0  0  0  0
   47.8030   30.2580   45.9270 O   0  0  0  0  0  0  0  0  0  0  0  0
   47.8230   28.9020   46.0750 C   0  0  0  0  0  0  0  0  0  0  0  0
   48.8420   28.1180   46.5950 C   0  0  0  0  0  0  0  0  0  0  0  0
   49.7040   28.6860   46.9100 H   0  0  0  0  0  0  0  0  0  0  0  0
   48.6740   26.7420   46.6620 C   0  0  0  0  0  3  0  0  0  0  0  0
   47.5210   26.1580   46.2240 C   0  0  0  0  0  3  0  0  0  0  0  0
   46.4980   26.9010   45.7050 C   0  0  0  0  0  0  0  0  0  0  0  0
   45.3600   26.2660   45.2760 C   0  0  0  0  0  3  0  0  0  0  0  0
   44.3180   26.9950   44.7520 C   0  0  0  0  0  3  0  0  0  0  0  0
   44.4350   28.3680   44.6630 C   0  0  0  0  0  3  0  0  0  0  0  0
   45.5780   28.9670   45.0960 C   0  0  0  0  0  3  0  0  0  0  0  0
   46.6600   28.2830   45.6340 C   0  0  0  0  0  0  0  0  0  0  0  0
  1  6  1  0  0  0  0
  2  3  1  0  0  0  0
  2  7  1  0  0  0  0
  2  1  1  0  0  0  0
  3  4  1  0  0  0  0
  4 11  1  0  0  0  0
  4  5  1  0  0  0  0
  5 13  1  0  0  0  0
  5 14  1  0  0  0  0
  6 15  1  6  0  0  0
  6  5  1  0  0  0  0
  6 31  1  0  0  0  0
  8  2  1  0  0  0  0
  9  3  1  0  0  0  0
 10  3  1  0  0  0  0
 12  4  1  0  0  0  0
 16 17  1  0  0  0  0
 16  1  1  0  0  0  0
 18 16  1  0  0  0  0
 19 20  1  0  0  0  0
 19 16  1  0  0  0  0
 21 19  1  0  0  0  0
 22 23  1  0  0  0  0
 23 24  2  0  0  0  0
 23 29  1  0  0  0  0
 24 19  1  0  0  0  0
 25 24  1  0  0  0  0
 26 25  2  0  0  0  0
 27 26  1  0  0  0  0
 27 22  2  0  0  0  0
 28 22  1  0  0  0  0
 30 26  1  0  0  0  0
 31 33  1  0  0  0  0
 33 32  2  6  0  0  0
 33 36  1  0  0  0  0
 33 34  1  0  0  0  0
 34 35  1  0  0  0  0
 36 37  1  0  0  0  0
 37 38  1  0  0  0  0
 38 40  2  0  0  0  0
 38 39  1  0  0  0  0
 41 40  1  0  0  0  0
 42 41  2  0  0  0  0
 43 42  1  0  0  0  0
 44 43  2  0  0  0  0
 45 44  1  0  0  0  0
 45 46  2  0  0  0  0
 46 47  1  0  0  0  0
 47 42  1  0  0  0  0
 47 37  2  0  0  0  0
M  END
>  <minimizedAffinity>
-4.02095842

>  <minimizedRMSD>
0.377604961

$$$$
