
 OpenBabel03252508003D

 31 34  0  0  1  0  0  0  0  0999 V2000
   46.1690   34.5430   43.4760 C   0  0  0  0  0  0  0  0  0  0  0  0
   45.2320   35.5330   43.9020 C   0  0  0  0  0  0  0  0  0  0  0  0
   44.6970   35.3540   45.1730 C   0  0  0  0  0  0  0  0  0  0  0  0
   45.0830   34.2860   45.9090 N   0  0  0  0  0  0  0  0  0  0  0  0
   45.9930   33.3710   45.4330 C   0  0  0  0  0  0  0  0  0  0  0  0
   46.5370   33.4830   44.2370 N   0  0  0  0  0  0  0  0  0  0  0  0
   44.9850   36.3510   43.2420 H   0  0  0  0  0  0  0  0  0  0  0  0
   43.9820   36.0780   45.5390 H   0  0  0  0  0  0  0  0  0  0  0  0
   46.3760   32.2300   46.3160 C   0  0  1  0  0  0  0  0  0  0  0  0
   47.0730   32.5180   47.6250 C   0  0  0  0  0  0  0  0  0  0  0  0
   45.6140   32.1550   47.5800 C   0  0  1  0  0  0  0  0  0  0  0  0
   46.6240   31.2840   45.8000 H   0  0  0  0  0  0  0  0  0  0  0  0
   47.3910   33.5620   47.7470 H   0  0  0  0  0  0  0  0  0  0  0  0
   47.7580   31.7170   47.9610 H   0  0  0  0  0  0  0  0  0  0  0  0
   45.3330   31.1770   48.0420 H   0  0  0  0  0  0  0  0  0  0  0  0
   44.7620   33.2520   47.9800 N   0  0  0  0  0  0  0  0  0  0  0  0
   43.7810   33.1890   47.7480 H   0  0  0  0  0  0  0  0  0  0  0  0
   45.2070   34.1410   48.1640 H   0  0  0  0  0  0  0  0  0  0  0  0
   46.7270   34.7490   42.1550 C   0  0  0  0  0  0  0  0  0  0  0  0
   47.5830   35.6650   41.8950 O   0  0  0  0  0  0  0  0  0  0  0  0
   46.1580   33.7710   41.2330 C   0  0  0  0  0  0  0  0  0  0  0  0
   46.8260   32.6110   40.8720 C   0  0  0  0  0  0  0  0  0  0  0  0
   47.8120   32.4240   41.2960 H   0  0  0  0  0  0  0  0  0  0  0  0
   46.3370   31.6600   40.0020 C   0  0  0  0  0  3  0  0  0  0  0  0
   45.1030   31.8500   39.4420 C   0  0  0  0  0  3  0  0  0  0  0  0
   44.3800   32.9820   39.7580 C   0  0  0  0  0  0  0  0  0  0  0  0
   43.1180   33.2030   39.2020 C   0  0  0  0  0  3  0  0  0  0  0  0
   42.3780   34.3180   39.4990 C   0  0  0  0  0  3  0  0  0  0  0  0
   42.9020   35.2630   40.3830 C   0  0  0  0  0  3  0  0  0  0  0  0
   44.1550   35.0070   40.9100 C   0  0  0  0  0  3  0  0  0  0  0  0
   44.9240   33.8980   40.6330 C   0  0  0  0  0  0  0  0  0  0  0  0
  1  2  2  0  0  0  0
  1  6  1  0  0  0  0
  2  3  1  0  0  0  0
  3  8  1  0  0  0  0
  3  4  2  0  0  0  0
  5  4  1  0  0  0  0
  5  9  1  0  0  0  0
  6  5  2  0  0  0  0
  7  2  1  0  0  0  0
  9 12  1  6  0  0  0
  9 11  1  0  0  0  0
  9 10  1  0  0  0  0
 10 13  1  0  0  0  0
 10 14  1  0  0  0  0
 11 10  1  0  0  0  0
 11 16  1  0  0  0  0
 11 15  1  1  0  0  0
 16 18  1  0  0  0  0
 17 16  1  0  0  0  0
 19  1  1  0  0  0  0
 20 19  2  0  0  0  0
 21 19  1  0  0  0  0
 22 21  1  0  0  0  0
 22 23  1  0  0  0  0
 24 22  2  0  0  0  0
 25 26  2  0  0  0  0
 25 24  1  0  0  0  0
 26 31  1  0  0  0  0
 27 28  2  0  0  0  0
 27 26  1  0  0  0  0
 28 29  1  0  0  0  0
 29 30  2  0  0  0  0
 31 30  1  0  0  0  0
 31 21  2  0  0  0  0
M  END
>  <minimizedAffinity>
-6.03816891

>  <minimizedRMSD>
1.27929604

$$$$
