
     RDKit          3D

 35 38  0  0  0  0  0  0  0  0999 V2000
   45.4494   36.1001   43.2134 C   0  0  0  0  0  0  0  0  0  0  0  0
   46.1865   34.8941   43.1131 C   0  0  0  0  0  0  0  0  0  0  0  0
   46.0485   34.0169   44.1412 C   0  0  0  0  0  0  0  0  0  0  0  0
   45.2476   34.2712   45.2101 N   0  0  0  0  0  0  0  0  0  0  0  0
   44.5514   35.4496   45.2647 C   0  0  0  0  0  0  0  0  0  0  0  0
   44.6475   36.3531   44.2856 N   0  0  0  0  0  0  0  0  0  0  0  0
   46.7609   32.8237   44.1138 C   0  0  0  0  0  0  0  0  0  0  0  0
   47.3910   32.1411   43.1017 C   0  0  0  0  0  0  0  0  0  0  0  0
   48.0289   30.9969   43.3233 C   0  0  0  0  0  0  0  0  0  0  0  0
   48.0314   30.5017   44.6543 C   0  0  0  0  0  0  0  0  0  0  0  0
   47.0427   31.8014   45.6040 S   0  0  0  0  0  0  0  0  0  0  0  0
   46.9301   34.7281   41.9394 C   0  0  0  0  0  0  0  0  0  0  0  0
   48.0132   35.3983   41.8254 O   0  0  0  0  0  0  0  0  0  0  0  0
   45.4832   36.8684   42.4596 H   0  0  0  0  0  0  0  0  0  0  0  0
   43.9493   35.5659   46.1275 H   0  0  0  0  0  0  0  0  0  0  0  0
   47.5149   32.2108   42.0993 H   0  0  0  0  0  0  0  0  0  0  0  0
   48.6006   30.1893   42.9329 H   0  0  0  0  0  0  0  0  0  0  0  0
   48.3231   29.7398   45.4062 H   0  0  0  0  0  0  0  0  0  0  0  0
   47.0752   34.1166   40.6448 C   0  0  0  0  0  0  0  0  0  0  0  0
   48.4314   33.7710   40.5148 C   0  0  0  0  0  0  0  0  0  0  0  0
   49.2683   33.9060   41.2028 H   0  0  0  0  0  0  0  0  0  0  0  0
   48.9423   33.1449   39.3725 C   0  0  0  0  0  0  0  0  0  0  0  0
   48.0704   32.8520   38.3204 C   0  0  0  0  0  0  0  0  0  0  0  0
   46.7476   33.1997   38.4706 C   0  0  0  0  0  0  0  0  0  0  0  0
   45.7778   32.9690   37.5178 C   0  0  0  0  0  0  0  0  0  0  0  0
   44.4476   33.3073   37.6500 C   0  0  0  0  0  0  0  0  0  0  0  0
   44.0271   33.9321   38.8287 C   0  0  0  0  0  0  0  0  0  0  0  0
   44.9554   34.1842   39.8086 C   0  0  0  0  0  0  0  0  0  0  0  0
   46.2648   33.8172   39.6067 C   0  0  0  0  0  0  0  0  0  0  0  0
   49.9465   32.8439   39.1766 H   0  0  0  0  0  0  0  0  0  0  0  0
   48.3294   32.3741   37.3875 H   0  0  0  0  0  0  0  0  0  0  0  0
   46.1226   32.4766   36.5941 H   0  0  0  0  0  0  0  0  0  0  0  0
   43.8043   33.0610   36.8139 H   0  0  0  0  0  0  0  0  0  0  0  0
   42.9821   34.1783   38.8891 H   0  0  0  0  0  0  0  0  0  0  0  0
   44.5384   34.6800   40.6558 H   0  0  0  0  0  0  0  0  0  0  0  0
  1  6  2  0
  2  1  1  0
  2  3  2  0
  3  4  1  0
  4  5  2  0
  6  5  1  0
  7  3  1  0
  7 11  1  0
  8  9  1  0
  8  7  2  0
  9 10  2  0
 10 11  1  0
 12  2  1  0
 13 12  2  0
  1 14  1  0
  5 15  1  0
  8 16  1  0
  9 17  1  0
 10 18  1  0
 19 20  2  0
 20 21  1  0
 20 22  1  0
 22 23  2  0
 23 24  1  0
 24 25  2  0
 25 26  1  0
 26 27  2  0
 27 28  1  0
 28 29  2  0
 29 19  1  0
 29 24  1  0
 22 30  1  0
 23 31  1  0
 25 32  1  0
 26 33  1  0
 27 34  1  0
 28 35  1  0
 12 19  1  0
M  ISO  6  14  14  15  14  16  14  17  14  18  14  21  15
M  END
>  <DihAtoms>  (1) 
1,11,18,19

>  <DihDeg>  (1) 
40.30377033642595

$$$$
