REMARK  Name = 
REMARK  3 active torsions:
REMARK  status: ('A' for Active; 'I' for Inactive)
REMARK    1  A    between atoms: C_2  and  C_12
REMARK    2  A    between atoms: C_3  and  C_7
REMARK    3  A    between atoms: C_12  and  C_19
REMARK                            x       y       z     vdW  Elec       q    Type
REMARK                         _______ _______ _______ _____ _____    ______ ____
ROOT
ATOM      1  C   UNL     1      45.449  36.100  43.213  0.00  0.00    +0.000 A 
ATOM      2  C   UNL     1      46.187  34.894  43.113  0.00  0.00    +0.000 A 
ATOM      3  C   UNL     1      46.048  34.017  44.141  0.00  0.00    +0.000 A 
ATOM      4  N   UNL     1      45.248  34.271  45.210  0.00  0.00    +0.000 NA
ATOM      5  C   UNL     1      44.551  35.450  45.265  0.00  0.00    +0.000 A 
ATOM      6  N   UNL     1      44.648  36.353  44.286  0.00  0.00    +0.000 NA
ATOM      7  H   UNL     1      45.483  36.868  42.460  0.00  0.00    +0.000 HD
ATOM      8  H   UNL     1      43.949  35.566  46.127  0.00  0.00    +0.000 HD
ENDROOT
BRANCH   3   9
ATOM      9  C   UNL     1      46.761  32.824  44.114  0.00  0.00    +0.000 A 
ATOM     10  C   UNL     1      47.391  32.141  43.102  0.00  0.00    +0.000 A 
ATOM     11  C   UNL     1      48.029  30.997  43.323  0.00  0.00    +0.000 A 
ATOM     12  C   UNL     1      48.031  30.502  44.654  0.00  0.00    +0.000 A 
ATOM     13  S   UNL     1      47.043  31.801  45.604  0.00  0.00    +0.000 S 
ATOM     14  H   UNL     1      47.515  32.211  42.099  0.00  0.00    +0.000 HD
ATOM     15  H   UNL     1      48.601  30.189  42.933  0.00  0.00    +0.000 HD
ATOM     16  H   UNL     1      48.323  29.740  45.406  0.00  0.00    +0.000 HD
ENDBRANCH   3   9
BRANCH   2  17
ATOM     17  C   UNL     1      46.930  34.728  41.939  0.00  0.00    +0.000 C 
ATOM     18  O   UNL     1      48.013  35.398  41.825  0.00  0.00    +0.000 OA
BRANCH  17  19
ATOM     19  C   UNL     1      47.075  34.117  40.645  0.00  0.00    +0.000 A 
ATOM     20  C   UNL     1      48.431  33.771  40.515  0.00  0.00    +0.000 A 
ATOM     21  H   UNL     1      49.268  33.906  41.203  0.00  0.00    +0.000 HD
ATOM     22  C   UNL     1      48.942  33.145  39.373  0.00  0.00    +0.000 A 
ATOM     23  C   UNL     1      48.070  32.852  38.320  0.00  0.00    +0.000 A 
ATOM     24  C   UNL     1      46.748  33.200  38.471  0.00  0.00    +0.000 A 
ATOM     25  C   UNL     1      45.778  32.969  37.518  0.00  0.00    +0.000 A 
ATOM     26  C   UNL     1      44.448  33.307  37.650  0.00  0.00    +0.000 A 
ATOM     27  C   UNL     1      44.027  33.932  38.829  0.00  0.00    +0.000 A 
ATOM     28  C   UNL     1      44.955  34.184  39.809  0.00  0.00    +0.000 A 
ATOM     29  C   UNL     1      46.265  33.817  39.607  0.00  0.00    +0.000 A 
ENDBRANCH  17  19
ENDBRANCH   2  17
TORSDOF 3
