
 OpenBabel03252509003D

 47 50  0  0  1  0  0  0  0  0999 V2000
   47.1650   34.1570   43.0870 N   0  0  0  0  0  0  0  0  0  0  0  0
   46.6800   35.3520   42.4970 C   0  0  0  0  0  0  0  0  0  0  0  0
   45.2040   35.6140   42.7050 C   0  0  0  0  0  0  0  0  0  0  0  0
   44.6620   35.1130   44.0230 C   0  0  0  0  0  0  0  0  0  0  0  0
   45.7580   34.5510   44.8950 C   0  0  0  0  0  0  0  0  0  0  0  0
   46.4050   33.4390   43.9920 C   0  0  2  0  0  0  0  0  0  0  0  0
   47.1970   36.1990   43.0150 H   0  0  0  0  0  0  0  0  0  0  0  0
   46.8970   35.4820   41.4370 H   0  0  0  0  0  0  0  0  0  0  0  0
   44.6530   35.2240   41.8200 H   0  0  0  0  0  0  0  0  0  0  0  0
   45.0260   36.7130   42.6880 H   0  0  0  0  0  0  0  0  0  0  0  0
   44.0400   35.8710   44.5530 H   0  0  0  0  0  0  0  0  0  0  0  0
   43.9830   34.2630   43.7930 H   0  0  0  0  0  0  0  0  0  0  0  0
   46.5480   35.2580   45.1400 H   0  0  0  0  0  0  0  0  0  0  0  0
   45.2780   34.0370   45.7350 H   0  0  0  0  0  0  0  0  0  0  0  0
   45.5630   32.8220   43.5850 H   0  0  0  0  0  0  0  0  0  0  0  0
   48.1290   33.4610   42.2870 C   0  0  0  0  0  0  0  0  0  0  0  0
   48.7690   32.7930   42.9270 H   0  0  0  0  0  0  0  0  0  0  0  0
   48.7520   34.2120   41.7760 H   0  0  0  0  0  0  0  0  0  0  0  0
   47.4130   32.5860   41.3130 C   0  0  0  0  0  0  0  0  0  0  0  0
   47.4280   31.5120   41.5430 H   0  0  0  0  0  0  0  0  0  0  0  0
   46.3330   32.8650   41.2550 H   0  0  0  0  0  0  0  0  0  0  0  0
   49.2710   32.0880   38.0880 C   0  0  0  0  0  0  0  0  0  0  0  0
   48.7570   31.8670   39.3790 C   0  0  0  0  0  0  0  0  0  0  0  0
   47.9540   32.8240   39.9490 C   0  0  0  0  0  0  0  0  0  0  0  0
   47.6980   33.9310   39.2370 N   0  0  0  0  0  0  0  0  0  0  0  0
   48.2010   34.1250   37.9990 C   0  0  0  0  0  0  0  0  0  0  0  0
   48.9880   33.2080   37.4170 N   0  0  0  0  0  0  0  0  0  0  0  0
   49.8940   31.2550   37.7490 H   0  0  0  0  0  0  0  0  0  0  0  0
   48.9690   30.9630   39.9530 H   0  0  0  0  0  0  0  0  0  0  0  0
   47.9880   35.0300   37.4280 H   0  0  0  0  0  0  0  0  0  0  0  0
   47.1940   32.7600   44.9080 O   0  0  0  0  0  0  0  0  0  0  0  0
   45.9100   30.5990   44.0400 O   0  0  0  0  0  0  0  0  0  0  0  0
   46.6190   31.2160   45.2490 P   0  0  2  0  0  0  0  0  0  0  0  0
   45.3810   31.4200   46.4150 O   0  0  0  0  0  0  0  0  0  0  0  0
   45.8040   31.9370   47.1370 H   0  0  0  0  0  0  0  0  0  0  0  0
   47.7790   30.2350   45.9050 O   0  0  0  0  0  0  0  0  0  0  0  0
   47.7960   28.8760   46.0210 C   0  0  0  0  0  0  0  0  0  0  0  0
   48.8920   28.0550   46.2380 C   0  0  0  0  0  0  0  0  0  0  0  0
   49.8250   28.5930   46.3200 H   0  0  0  0  0  0  0  0  0  0  0  0
   48.7050   26.6830   46.3270 C   0  0  0  0  0  3  0  0  0  0  0  0
   47.4610   26.1380   46.2030 C   0  0  0  0  0  3  0  0  0  0  0  0
   46.3600   26.9180   45.9890 C   0  0  0  0  0  0  0  0  0  0  0  0
   45.1290   26.3220   45.8720 C   0  0  0  0  0  3  0  0  0  0  0  0
   44.0090   27.0910   45.6550 C   0  0  0  0  0  3  0  0  0  0  0  0
   44.1390   28.4610   45.5580 C   0  0  0  0  0  3  0  0  0  0  0  0
   45.3750   29.0200   45.6800 C   0  0  0  0  0  3  0  0  0  0  0  0
   46.5390   28.2970   45.8990 C   0  0  0  0  0  0  0  0  0  0  0  0
  1  6  1  0  0  0  0
  2  3  1  0  0  0  0
  2  7  1  0  0  0  0
  2  1  1  0  0  0  0
  3  4  1  0  0  0  0
  4 11  1  0  0  0  0
  4  5  1  0  0  0  0
  5 13  1  0  0  0  0
  5 14  1  0  0  0  0
  6 15  1  6  0  0  0
  6  5  1  0  0  0  0
  6 31  1  0  0  0  0
  8  2  1  0  0  0  0
  9  3  1  0  0  0  0
 10  3  1  0  0  0  0
 12  4  1  0  0  0  0
 16 17  1  0  0  0  0
 16  1  1  0  0  0  0
 18 16  1  0  0  0  0
 19 20  1  0  0  0  0
 19 16  1  0  0  0  0
 21 19  1  0  0  0  0
 22 23  1  0  0  0  0
 23 24  2  0  0  0  0
 23 29  1  0  0  0  0
 24 19  1  0  0  0  0
 25 24  1  0  0  0  0
 26 25  2  0  0  0  0
 27 26  1  0  0  0  0
 27 22  2  0  0  0  0
 28 22  1  0  0  0  0
 30 26  1  0  0  0  0
 31 33  1  0  0  0  0
 33 32  2  6  0  0  0
 33 36  1  0  0  0  0
 33 34  1  0  0  0  0
 34 35  1  0  0  0  0
 36 37  1  0  0  0  0
 37 38  1  0  0  0  0
 38 39  1  0  0  0  0
 38 40  2  0  0  0  0
 41 40  1  0  0  0  0
 42 41  2  0  0  0  0
 43 42  1  0  0  0  0
 44 43  2  0  0  0  0
 45 44  1  0  0  0  0
 45 46  2  0  0  0  0
 46 47  1  0  0  0  0
 47 42  1  0  0  0  0
 47 37  2  0  0  0  0
M  END
>  <minimizedAffinity>
-4.20712662

>  <minimizedRMSD>
0.350516379

$$$$
