
 OpenBabel03252504183D

 40 43  0  0  0  0  0  0  0  0999 V2000
   47.6220   29.9860   44.9300 F   0  0  0  0  0  0  0  0  0  0  0  0
   47.5010   30.7650   46.0530 C   0  0  0  0  0  0  0  0  0  0  0  0
   46.9370   32.0220   45.9610 C   0  0  0  0  0  0  0  0  0  0  0  0
   46.8580   32.7340   47.1470 C   0  0  0  0  0  0  0  0  0  0  0  0
   47.3190   32.2140   48.3330 C   0  0  0  0  0  0  0  0  0  0  0  0
   47.8750   30.9490   48.3580 C   0  0  0  0  0  0  0  0  0  0  0  0
   47.9800   30.1860   47.2050 C   0  0  0  0  0  0  0  0  0  0  0  0
   46.4150   33.7180   47.0710 H   0  0  0  0  0  0  0  0  0  0  0  0
   47.2320   32.8150   49.2340 H   0  0  0  0  0  0  0  0  0  0  0  0
   48.2420   30.5180   49.2740 H   0  0  0  0  0  0  0  0  0  0  0  0
   46.7960   34.1100   42.9610 C   0  0  0  0  0  0  0  0  0  0  0  0
   45.6620   33.6460   42.2920 C   0  0  0  0  0  0  0  0  0  0  0  0
   44.9480   32.5960   42.8970 C   0  0  0  0  0  0  0  0  0  0  0  0
   45.3690   32.0870   44.0680 N   0  0  0  0  0  0  0  0  0  0  0  0
   46.4600   32.5590   44.6790 C   0  0  0  0  0  0  0  0  0  0  0  0
   47.1800   33.5690   44.1350 N   0  0  0  0  0  0  0  0  0  0  0  0
   44.0840   32.2610   42.3600 H   0  0  0  0  0  0  0  0  0  0  0  0
   45.2700   34.2580   41.0170 C   0  0  0  0  0  0  0  0  0  0  0  0
   44.9410   35.5910   41.2050 F   0  0  0  0  0  0  0  0  0  0  0  0
   46.3740   34.2350   40.1770 F   0  0  0  0  0  0  0  0  0  0  0  0
   44.2400   33.6560   40.3800 F   0  0  0  0  0  0  0  0  0  0  0  0
   47.4900   35.1170   42.3860 O   0  0  0  0  0  0  0  0  0  0  0  0
   48.8160   35.0690   41.9090 C   0  0  0  0  0  0  0  0  0  0  0  0
   49.6480   35.3270   42.9790 F   0  0  0  0  0  0  0  0  0  0  0  0
   49.0500   33.8460   41.3280 F   0  0  0  0  0  0  0  0  0  0  0  0
   49.0220   36.1080   41.0300 F   0  0  0  0  0  0  0  0  0  0  0  0
   48.5690   28.8080   47.2200 C   0  0  0  0  0  0  0  0  0  0  0  0
   48.1300   28.1870   47.9960 H   0  0  0  0  0  0  0  0  0  0  0  0
   48.2770   28.3910   46.2100 H   0  0  0  0  0  0  0  0  0  0  0  0
   50.0600   28.8800   47.2730 C   0  0  0  0  0  0  0  0  0  0  0  0
   50.7330   29.1230   46.0940 C   0  0  0  0  0  0  0  0  0  0  0  0
   50.1940   29.2990   45.1610 H   0  0  0  0  0  0  0  0  0  0  0  0
   52.1040   29.1370   46.1240 C   0  0  0  0  0  0  0  0  0  0  0  0
   52.8690   28.9260   47.2490 C   0  0  0  0  0  0  0  0  0  0  0  0
   52.1620   28.6860   48.4220 C   0  0  0  0  0  0  0  0  0  0  0  0
   52.8640   28.4760   49.5880 C   0  0  0  0  0  0  0  0  0  0  0  0
   52.2410   28.2360   50.8190 C   0  0  0  0  0  0  0  0  0  0  0  0
   50.8650   28.2350   50.7200 C   0  0  0  0  0  0  0  0  0  0  0  0
   50.0820   28.4330   49.6100 C   0  0  0  0  0  0  0  0  0  0  0  0
   50.7820   28.6630   48.4350 C   0  0  0  0  0  0  0  0  0  0  0  0
  1  2  1  0  0  0  0
  2  7  1  0  0  0  0
  3  2  2  0  0  0  0
  3  4  1  0  0  0  0
  4  5  2  0  0  0  0
  5  6  1  0  0  0  0
  5  9  1  0  0  0  0
  6 10  1  0  0  0  0
  7 27  1  0  0  0  0
  7  6  2  0  0  0  0
  8  4  1  0  0  0  0
 11 16  1  0  0  0  0
 12 13  1  0  0  0  0
 12 11  2  0  0  0  0
 13 14  2  0  0  0  0
 14 15  1  0  0  0  0
 15  3  1  0  0  0  0
 16 15  2  0  0  0  0
 17 13  1  0  0  0  0
 18 19  1  0  0  0  0
 18 12  1  0  0  0  0
 20 18  1  0  0  0  0
 21 18  1  0  0  0  0
 22 11  1  0  0  0  0
 23 22  1  0  0  0  0
 23 24  1  0  0  0  0
 25 23  1  0  0  0  0
 26 23  1  0  0  0  0
 27 30  1  0  0  0  0
 27 28  1  0  0  0  0
 29 27  1  0  0  0  0
 30 40  1  0  0  0  0
 31 33  1  0  0  0  0
 31 30  2  0  0  0  0
 32 31  1  0  0  0  0
 33 34  2  0  0  0  0
 34 35  1  0  0  0  0
 35 40  2  0  0  0  0
 35 36  1  0  0  0  0
 36 37  2  0  0  0  0
 38 37  1  0  0  0  0
 39 38  2  0  0  0  0
 40 39  1  0  0  0  0
M  END
>  <minimizedAffinity>
-6.10693979

>  <minimizedRMSD>
1.70880353

$$$$
