
 OpenBabel03252504233D

 34 38  0  0  0  0  0  0  0  0999 V2000
   36.9150   30.2830   39.3540 C   0  0  0  0  0  0  0  0  0  0  0  0
   36.5150   30.0610   38.0440 C   0  0  0  0  0  0  0  0  0  0  0  0
   37.2800   30.6400   36.9900 C   0  0  0  0  0  0  0  0  0  0  0  0
   38.3620   31.3800   37.3680 N   0  0  0  0  0  0  0  0  0  0  0  0
   38.7120   31.5690   38.6590 C   0  0  0  0  0  0  0  0  0  0  0  0
   37.9930   31.0250   39.6470 N   0  0  0  0  0  0  0  0  0  0  0  0
   39.8710   32.3670   38.9460 N   0  0  0  0  0  0  0  0  0  0  0  0
   39.9690   33.3220   39.8810 C   0  0  0  0  0  0  0  0  0  0  0  0
   41.2290   33.8370   39.8330 N   0  0  0  0  0  0  0  0  0  0  0  0
   41.8740   33.1850   38.8680 C   0  0  0  0  0  0  0  0  0  0  0  0
   43.1410   33.2480   38.3530 C   0  0  0  0  0  0  0  0  0  0  0  0
   43.5570   32.4610   37.3550 N   0  0  0  0  0  0  0  0  0  0  0  0
   42.7510   31.5480   36.7880 C   0  0  0  0  0  0  0  0  0  0  0  0
   41.5030   31.4820   37.2910 N   0  0  0  0  0  0  0  0  0  0  0  0
   41.0390   32.2470   38.2890 C   0  0  0  0  0  0  0  0  0  0  0  0
   35.6580   29.4740   37.7740 H   0  0  0  0  0  0  0  0  0  0  0  0
   37.0210   30.5040   35.9570 H   0  0  0  0  0  0  0  0  0  0  0  0
   39.1610   33.6060   40.5430 H   0  0  0  0  0  0  0  0  0  0  0  0
   43.0840   30.9130   35.9840 H   0  0  0  0  0  0  0  0  0  0  0  0
   44.1020   34.1610   38.8500 N   0  0  0  0  0  0  0  0  0  0  0  0
   44.9190   34.5030   38.2970 H   0  0  0  0  0  0  0  0  0  0  0  0
   43.9910   34.5220   39.8440 H   0  0  0  0  0  0  0  0  0  0  0  0
   35.8660   29.4980   40.5880 S   0  0  0  0  0  0  0  0  0  0  0  0
   36.8160   28.3680   41.6010 C   0  0  0  0  0  0  0  0  0  0  0  0
   37.3020   28.8780   42.7960 C   0  0  0  0  0  0  0  0  0  0  0  0
   37.1210   29.8960   43.1010 H   0  0  0  0  0  0  0  0  0  0  0  0
   38.0540   28.0490   43.6350 C   0  0  0  0  0  3  0  0  0  0  0  0
   38.2510   26.7730   43.1980 C   0  0  0  0  0  3  0  0  0  0  0  0
   37.7940   26.2080   42.0220 C   0  0  0  0  0  0  0  0  0  0  0  0
   38.0570   24.8970   41.6800 C   0  0  0  0  0  3  0  0  0  0  0  0
   37.5280   24.4800   40.4680 C   0  0  0  0  0  3  0  0  0  0  0  0
   36.7850   25.2870   39.6280 C   0  0  0  0  0  3  0  0  0  0  0  0
   36.5390   26.5930   39.9950 C   0  0  0  0  0  3  0  0  0  0  0  0
   37.0480   27.0580   41.2050 C   0  0  0  0  0  0  0  0  0  0  0  0
  1  6  1  0  0  0  0
  1 23  1  0  0  0  0
  2  1  2  0  0  0  0
  3  4  2  0  0  0  0
  3  2  1  0  0  0  0
  4  5  1  0  0  0  0
  5  7  1  0  0  0  0
  5  6  2  0  0  0  0
  7  8  1  0  0  0  0
  8 18  1  0  0  0  0
  9  8  2  0  0  0  0
 10  9  1  0  0  0  0
 11 20  1  0  0  0  0
 11 10  1  0  0  0  0
 12 11  2  0  0  0  0
 13 14  2  0  0  0  0
 13 12  1  0  0  0  0
 14 15  1  0  0  0  0
 15 10  2  0  0  0  0
 15  7  1  0  0  0  0
 16  2  1  0  0  0  0
 17  3  1  0  0  0  0
 19 13  1  0  0  0  0
 20 22  1  0  0  0  0
 21 20  1  0  0  0  0
 23 24  1  0  0  0  0
 24 25  1  0  0  0  0
 25 26  1  0  0  0  0
 25 27  2  0  0  0  0
 28 27  1  0  0  0  0
 29 28  2  0  0  0  0
 30 29  1  0  0  0  0
 31 30  2  0  0  0  0
 32 33  2  0  0  0  0
 32 31  1  0  0  0  0
 33 34  1  0  0  0  0
 34 24  2  0  0  0  0
 34 29  1  0  0  0  0
M  END
>  <minimizedAffinity>
-6.9068079

$$$$

 OpenBabel03252504233D

 34 38  0  0  0  0  0  0  0  0999 V2000
   33.6040   27.6840   36.4490 C   0  0  0  0  0  0  0  0  0  0  0  0
   34.5040   26.9430   35.6970 C   0  0  0  0  0  0  0  0  0  0  0  0
   35.8180   26.7410   36.2100 C   0  0  0  0  0  0  0  0  0  0  0  0
   36.0850   27.3070   37.4230 N   0  0  0  0  0  0  0  0  0  0  0  0
   35.1740   28.0210   38.1190 C   0  0  0  0  0  0  0  0  0  0  0  0
   33.9410   28.2100   37.6350 N   0  0  0  0  0  0  0  0  0  0  0  0
   35.5590   28.5750   39.3880 N   0  0  0  0  0  0  0  0  0  0  0  0
   35.3070   29.8150   39.8260 C   0  0  0  0  0  0  0  0  0  0  0  0
   35.8370   29.9420   41.0730 N   0  0  0  0  0  0  0  0  0  0  0  0
   36.4040   28.7750   41.3710 C   0  0  0  0  0  0  0  0  0  0  0  0
   37.0830   28.2900   42.4560 C   0  0  0  0  0  0  0  0  0  0  0  0
   37.5650   27.0450   42.5130 N   0  0  0  0  0  0  0  0  0  0  0  0
   37.4130   26.1790   41.4970 C   0  0  0  0  0  0  0  0  0  0  0  0
   36.7450   26.6500   40.4260 N   0  0  0  0  0  0  0  0  0  0  0  0
   36.2420   27.8890   40.3220 C   0  0  0  0  0  0  0  0  0  0  0  0
   34.2690   26.5080   34.7440 H   0  0  0  0  0  0  0  0  0  0  0  0
   36.5590   26.1770   35.6760 H   0  0  0  0  0  0  0  0  0  0  0  0
   34.7680   30.5610   39.2540 H   0  0  0  0  0  0  0  0  0  0  0  0
   37.8000   25.1750   41.5390 H   0  0  0  0  0  0  0  0  0  0  0  0
   37.3200   29.0880   43.6020 N   0  0  0  0  0  0  0  0  0  0  0  0
   38.1020   28.9220   44.2740 H   0  0  0  0  0  0  0  0  0  0  0  0
   36.6680   29.9060   43.7950 H   0  0  0  0  0  0  0  0  0  0  0  0
   31.9830   27.8650   35.6900 S   0  0  0  0  0  0  0  0  0  0  0  0
   31.5310   29.5930   35.5630 C   0  0  0  0  0  0  0  0  0  0  0  0
   31.9360   30.2480   34.4100 C   0  0  0  0  0  0  0  0  0  0  0  0
   32.4910   29.7500   33.6320 H   0  0  0  0  0  0  0  0  0  0  0  0
   31.6160   31.6010   34.2470 C   0  0  0  0  0  3  0  0  0  0  0  0
   30.9140   32.1780   35.2630 C   0  0  0  0  0  3  0  0  0  0  0  0
   30.4830   31.5790   36.4320 C   0  0  0  0  0  0  0  0  0  0  0  0
   29.7750   32.2670   37.3970 C   0  0  0  0  0  3  0  0  0  0  0  0
   29.4150   31.5260   38.5120 C   0  0  0  0  0  3  0  0  0  0  0  0
   29.7230   30.1900   38.6880 C   0  0  0  0  0  3  0  0  0  0  0  0
   30.4320   29.5300   37.7070 C   0  0  0  0  0  3  0  0  0  0  0  0
   30.8160   30.2320   36.5680 C   0  0  0  0  0  0  0  0  0  0  0  0
  1  6  1  0  0  0  0
  2  3  1  0  0  0  0
  2  1  2  0  0  0  0
  3  4  2  0  0  0  0
  4  5  1  0  0  0  0
  5  7  1  0  0  0  0
  6  5  2  0  0  0  0
  7  8  1  0  0  0  0
  7 15  1  0  0  0  0
  8  9  2  0  0  0  0
  9 10  1  0  0  0  0
 10 11  1  0  0  0  0
 11 12  2  0  0  0  0
 11 20  1  0  0  0  0
 13 19  1  0  0  0  0
 13 12  1  0  0  0  0
 14 13  2  0  0  0  0
 15 14  1  0  0  0  0
 15 10  2  0  0  0  0
 16  2  1  0  0  0  0
 17  3  1  0  0  0  0
 18  8  1  0  0  0  0
 20 22  1  0  0  0  0
 20 21  1  0  0  0  0
 23  1  1  0  0  0  0
 24 23  1  0  0  0  0
 24 34  1  0  0  0  0
 25 24  2  0  0  0  0
 26 25  1  0  0  0  0
 27 25  1  0  0  0  0
 27 28  2  0  0  0  0
 28 29  1  0  0  0  0
 29 34  2  0  0  0  0
 29 30  1  0  0  0  0
 30 31  2  0  0  0  0
 31 32  1  0  0  0  0
 33 32  2  0  0  0  0
 34 33  1  0  0  0  0
M  END
>  <minimizedAffinity>
-6.86315918

$$$$

 OpenBabel03252504233D

 34 38  0  0  0  0  0  0  0  0999 V2000
   37.6740   29.5950   42.1810 C   0  0  0  0  0  0  0  0  0  0  0  0
   36.5370   30.0730   41.5460 C   0  0  0  0  0  0  0  0  0  0  0  0
   36.6770   31.1360   40.6060 C   0  0  0  0  0  0  0  0  0  0  0  0
   37.9440   31.6020   40.4080 N   0  0  0  0  0  0  0  0  0  0  0  0
   39.0210   31.1030   41.0520 C   0  0  0  0  0  0  0  0  0  0  0  0
   38.8880   30.1060   41.9330 N   0  0  0  0  0  0  0  0  0  0  0  0
   40.3120   31.6680   40.7700 N   0  0  0  0  0  0  0  0  0  0  0  0
   41.2490   32.0020   41.6670 C   0  0  0  0  0  0  0  0  0  0  0  0
   42.3230   32.5010   40.9950 N   0  0  0  0  0  0  0  0  0  0  0  0
   42.0180   32.4630   39.6990 C   0  0  0  0  0  0  0  0  0  0  0  0
   42.6730   32.8180   38.5510 C   0  0  0  0  0  0  0  0  0  0  0  0
   42.1360   32.6740   37.3360 N   0  0  0  0  0  0  0  0  0  0  0  0
   40.9040   32.1660   37.1610 C   0  0  0  0  0  0  0  0  0  0  0  0
   40.2550   31.8150   38.2870 N   0  0  0  0  0  0  0  0  0  0  0  0
   40.7500   31.9380   39.5270 C   0  0  0  0  0  0  0  0  0  0  0  0
   35.5500   29.6880   41.7190 H   0  0  0  0  0  0  0  0  0  0  0  0
   35.8350   31.5480   40.0820 H   0  0  0  0  0  0  0  0  0  0  0  0
   41.1340   31.8790   42.7370 H   0  0  0  0  0  0  0  0  0  0  0  0
   40.4680   32.0500   36.1830 H   0  0  0  0  0  0  0  0  0  0  0  0
   43.9790   33.3670   38.5790 N   0  0  0  0  0  0  0  0  0  0  0  0
   44.3720   33.9690   37.8220 H   0  0  0  0  0  0  0  0  0  0  0  0
   44.5990   33.1570   39.4170 H   0  0  0  0  0  0  0  0  0  0  0  0
   37.3620   28.2550   43.3410 S   0  0  0  0  0  0  0  0  0  0  0  0
   38.5230   26.9160   43.0910 C   0  0  0  0  0  0  0  0  0  0  0  0
   39.7700   27.0690   43.6790 C   0  0  0  0  0  0  0  0  0  0  0  0
   40.0290   27.9430   44.2530 H   0  0  0  0  0  0  0  0  0  0  0  0
   40.7260   26.0600   43.5220 C   0  0  0  0  0  3  0  0  0  0  0  0
   40.3420   24.9790   42.7850 C   0  0  0  0  0  3  0  0  0  0  0  0
   39.1190   24.7690   42.1770 C   0  0  0  0  0  0  0  0  0  0  0  0
   38.8400   23.6290   41.4500 C   0  0  0  0  0  3  0  0  0  0  0  0
   37.5680   23.5680   40.9030 C   0  0  0  0  0  3  0  0  0  0  0  0
   36.6130   24.5560   41.0480 C   0  0  0  0  0  3  0  0  0  0  0  0
   36.9200   25.6840   41.7790 C   0  0  0  0  0  3  0  0  0  0  0  0
   38.1860   25.7910   42.3490 C   0  0  0  0  0  0  0  0  0  0  0  0
  1 23  1  0  0  0  0
  2 16  1  0  0  0  0
  2  1  2  0  0  0  0
  3  2  1  0  0  0  0
  4  3  2  0  0  0  0
  4  5  1  0  0  0  0
  5  6  2  0  0  0  0
  6  1  1  0  0  0  0
  7  5  1  0  0  0  0
  7  8  1  0  0  0  0
  8 18  1  0  0  0  0
  9  8  2  0  0  0  0
 10  9  1  0  0  0  0
 11 20  1  0  0  0  0
 11 10  2  0  0  0  0
 12 11  1  0  0  0  0
 13 12  2  0  0  0  0
 13 14  1  0  0  0  0
 14 15  2  0  0  0  0
 15 10  1  0  0  0  0
 15  7  1  0  0  0  0
 17  3  1  0  0  0  0
 19 13  1  0  0  0  0
 20 22  1  0  0  0  0
 21 20  1  0  0  0  0
 24 23  1  0  0  0  0
 24 25  1  0  0  0  0
 25 26  1  0  0  0  0
 27 25  2  0  0  0  0
 28 27  1  0  0  0  0
 29 34  1  0  0  0  0
 29 28  2  0  0  0  0
 30 29  1  0  0  0  0
 31 32  1  0  0  0  0
 31 30  2  0  0  0  0
 32 33  2  0  0  0  0
 33 34  1  0  0  0  0
 34 24  2  0  0  0  0
M  END
>  <minimizedAffinity>
-6.81830263

$$$$

 OpenBabel03252504233D

 34 38  0  0  0  0  0  0  0  0999 V2000
   37.5010   30.3770   39.8190 C   0  0  0  0  0  0  0  0  0  0  0  0
   36.8340   31.5200   39.4010 C   0  0  0  0  0  0  0  0  0  0  0  0
   37.4140   32.7910   39.6860 C   0  0  0  0  0  0  0  0  0  0  0  0
   38.6000   32.7740   40.3600 N   0  0  0  0  0  0  0  0  0  0  0  0
   39.2120   31.6330   40.7470 C   0  0  0  0  0  0  0  0  0  0  0  0
   38.6660   30.4420   40.4800 N   0  0  0  0  0  0  0  0  0  0  0  0
   40.4590   31.7290   41.4540 N   0  0  0  0  0  0  0  0  0  0  0  0
   40.8090   31.0430   42.5500 C   0  0  0  0  0  0  0  0  0  0  0  0
   42.0680   31.4210   42.9050 N   0  0  0  0  0  0  0  0  0  0  0  0
   42.4600   32.3330   42.0180 C   0  0  0  0  0  0  0  0  0  0  0  0
   43.6010   33.0690   41.8440 C   0  0  0  0  0  0  0  0  0  0  0  0
   43.7540   33.9430   40.8440 N   0  0  0  0  0  0  0  0  0  0  0  0
   42.7880   34.1570   39.9350 C   0  0  0  0  0  0  0  0  0  0  0  0
   41.6630   33.4350   40.1010 N   0  0  0  0  0  0  0  0  0  0  0  0
   41.4620   32.5470   41.0860 C   0  0  0  0  0  0  0  0  0  0  0  0
   35.9010   31.5060   38.8710 H   0  0  0  0  0  0  0  0  0  0  0  0
   36.9470   33.7100   39.3880 H   0  0  0  0  0  0  0  0  0  0  0  0
   40.1700   30.3170   43.0390 H   0  0  0  0  0  0  0  0  0  0  0  0
   42.9080   34.8600   39.1290 H   0  0  0  0  0  0  0  0  0  0  0  0
   44.7050   32.9500   42.7240 N   0  0  0  0  0  0  0  0  0  0  0  0
   45.4180   33.7000   42.8650 H   0  0  0  0  0  0  0  0  0  0  0  0
   44.8190   32.0480   43.2750 H   0  0  0  0  0  0  0  0  0  0  0  0
   36.6640   28.8400   39.3980 S   0  0  0  0  0  0  0  0  0  0  0  0
   36.7430   27.6820   40.7610 C   0  0  0  0  0  0  0  0  0  0  0  0
   36.5700   28.2170   42.0300 C   0  0  0  0  0  0  0  0  0  0  0  0
   36.3980   29.2680   42.1900 H   0  0  0  0  0  0  0  0  0  0  0  0
   36.6200   27.3670   43.1400 C   0  0  0  0  0  3  0  0  0  0  0  0
   36.8410   26.0470   42.8760 C   0  0  0  0  0  3  0  0  0  0  0  0
   37.0200   25.4570   41.6390 C   0  0  0  0  0  0  0  0  0  0  0  0
   37.2370   24.1020   41.4910 C   0  0  0  0  0  3  0  0  0  0  0  0
   37.3980   23.6640   40.1860 C   0  0  0  0  0  3  0  0  0  0  0  0
   37.3520   24.4900   39.0790 C   0  0  0  0  0  3  0  0  0  0  0  0
   37.1330   25.8390   39.2580 C   0  0  0  0  0  3  0  0  0  0  0  0
   36.9650   26.3270   40.5510 C   0  0  0  0  0  0  0  0  0  0  0  0
  1  6  1  0  0  0  0
  2  3  1  0  0  0  0
  2  1  2  0  0  0  0
  3  4  2  0  0  0  0
  4  5  1  0  0  0  0
  5  7  1  0  0  0  0
  6  5  2  0  0  0  0
  7  8  1  0  0  0  0
  8  9  2  0  0  0  0
  8 18  1  0  0  0  0
 10  9  1  0  0  0  0
 11 10  1  0  0  0  0
 11 20  1  0  0  0  0
 12 11  2  0  0  0  0
 13 14  2  0  0  0  0
 13 12  1  0  0  0  0
 14 15  1  0  0  0  0
 15  7  1  0  0  0  0
 15 10  2  0  0  0  0
 16  2  1  0  0  0  0
 17  3  1  0  0  0  0
 19 13  1  0  0  0  0
 20 21  1  0  0  0  0
 20 22  1  0  0  0  0
 23  1  1  0  0  0  0
 23 24  1  0  0  0  0
 24 25  1  0  0  0  0
 25 26  1  0  0  0  0
 25 27  2  0  0  0  0
 28 27  1  0  0  0  0
 29 28  2  0  0  0  0
 30 29  1  0  0  0  0
 31 30  2  0  0  0  0
 32 33  2  0  0  0  0
 32 31  1  0  0  0  0
 33 34  1  0  0  0  0
 34 24  2  0  0  0  0
 34 29  1  0  0  0  0
M  END
>  <minimizedAffinity>
-6.62412786

$$$$

 OpenBabel03252504233D

 34 38  0  0  0  0  0  0  0  0999 V2000
   36.7960   29.6260   39.2180 C   0  0  0  0  0  0  0  0  0  0  0  0
   36.3780   29.6980   37.8970 C   0  0  0  0  0  0  0  0  0  0  0  0
   37.0580   30.5870   37.0140 C   0  0  0  0  0  0  0  0  0  0  0  0
   38.0820   31.3080   37.5560 N   0  0  0  0  0  0  0  0  0  0  0  0
   38.4520   31.2030   38.8510 C   0  0  0  0  0  0  0  0  0  0  0  0
   37.8130   30.3690   39.6780 N   0  0  0  0  0  0  0  0  0  0  0  0
   39.5450   32.0100   39.3200 N   0  0  0  0  0  0  0  0  0  0  0  0
   39.5870   32.7090   40.4610 C   0  0  0  0  0  0  0  0  0  0  0  0
   40.7950   33.3340   40.5340 N   0  0  0  0  0  0  0  0  0  0  0  0
   41.4660   33.0020   39.4330 C   0  0  0  0  0  0  0  0  0  0  0  0
   42.7070   33.3060   38.9410 C   0  0  0  0  0  0  0  0  0  0  0  0
   43.1610   32.8320   37.7770 N   0  0  0  0  0  0  0  0  0  0  0  0
   42.4210   32.0170   37.0060 C   0  0  0  0  0  0  0  0  0  0  0  0
   41.1990   31.7140   37.4850 N   0  0  0  0  0  0  0  0  0  0  0  0
   40.6990   32.1630   38.6450 C   0  0  0  0  0  0  0  0  0  0  0  0
   35.5690   29.1190   37.4950 H   0  0  0  0  0  0  0  0  0  0  0  0
   36.7830   30.6860   35.9810 H   0  0  0  0  0  0  0  0  0  0  0  0
   38.7770   32.7460   41.1790 H   0  0  0  0  0  0  0  0  0  0  0  0
   42.7840   31.6330   36.0680 H   0  0  0  0  0  0  0  0  0  0  0  0
   43.5990   34.1530   39.6430 N   0  0  0  0  0  0  0  0  0  0  0  0
   44.3650   34.6950   39.1860 H   0  0  0  0  0  0  0  0  0  0  0  0
   43.4860   34.2470   40.6960 H   0  0  0  0  0  0  0  0  0  0  0  0
   35.8570   28.4680   40.2260 S   0  0  0  0  0  0  0  0  0  0  0  0
   36.7910   26.9660   40.5010 C   0  0  0  0  0  0  0  0  0  0  0  0
   36.5840   25.9410   39.5900 C   0  0  0  0  0  0  0  0  0  0  0  0
   35.9010   26.0390   38.7630 H   0  0  0  0  0  0  0  0  0  0  0  0
   37.2830   24.7390   39.7470 C   0  0  0  0  0  3  0  0  0  0  0  0
   38.1320   24.6730   40.8120 C   0  0  0  0  0  3  0  0  0  0  0  0
   38.3800   25.6570   41.7510 C   0  0  0  0  0  0  0  0  0  0  0  0
   39.2670   25.4770   42.7930 C   0  0  0  0  0  3  0  0  0  0  0  0
   39.4050   26.5590   43.6490 C   0  0  0  0  0  3  0  0  0  0  0  0
   38.7230   27.7520   43.5080 C   0  0  0  0  0  3  0  0  0  0  0  0
   37.8430   27.9020   42.4570 C   0  0  0  0  0  3  0  0  0  0  0  0
   37.6700   26.8440   41.5700 C   0  0  0  0  0  0  0  0  0  0  0  0
  1  6  1  0  0  0  0
  1 23  1  0  0  0  0
  2  1  2  0  0  0  0
  3  4  2  0  0  0  0
  3  2  1  0  0  0  0
  4  5  1  0  0  0  0
  5  7  1  0  0  0  0
  5  6  2  0  0  0  0
  7  8  1  0  0  0  0
  8  9  2  0  0  0  0
  8 18  1  0  0  0  0
 10  9  1  0  0  0  0
 11 10  1  0  0  0  0
 11 20  1  0  0  0  0
 12 11  2  0  0  0  0
 13 14  2  0  0  0  0
 13 12  1  0  0  0  0
 14 15  1  0  0  0  0
 15  7  1  0  0  0  0
 15 10  2  0  0  0  0
 16  2  1  0  0  0  0
 17  3  1  0  0  0  0
 19 13  1  0  0  0  0
 20 22  1  0  0  0  0
 21 20  1  0  0  0  0
 23 24  1  0  0  0  0
 24 34  1  0  0  0  0
 25 27  1  0  0  0  0
 25 24  2  0  0  0  0
 26 25  1  0  0  0  0
 27 28  2  0  0  0  0
 28 29  1  0  0  0  0
 29 30  1  0  0  0  0
 30 31  2  0  0  0  0
 32 31  1  0  0  0  0
 33 32  2  0  0  0  0
 34 29  2  0  0  0  0
 34 33  1  0  0  0  0
M  END
>  <minimizedAffinity>
-6.4863801

$$$$

 OpenBabel03252504233D

 34 38  0  0  0  0  0  0  0  0999 V2000
   37.7160   30.9200   40.9420 C   0  0  0  0  0  0  0  0  0  0  0  0
   36.8470   31.8250   40.3490 C   0  0  0  0  0  0  0  0  0  0  0  0
   37.3840   33.0190   39.7870 C   0  0  0  0  0  0  0  0  0  0  0  0
   38.7360   33.1740   39.8840 N   0  0  0  0  0  0  0  0  0  0  0  0
   39.5430   32.2640   40.4710 C   0  0  0  0  0  0  0  0  0  0  0  0
   39.0370   31.1440   40.9980 N   0  0  0  0  0  0  0  0  0  0  0  0
   40.9550   32.5270   40.5190 N   0  0  0  0  0  0  0  0  0  0  0  0
   41.7610   32.3620   41.5760 C   0  0  0  0  0  0  0  0  0  0  0  0
   43.0220   32.7200   41.2100 N   0  0  0  0  0  0  0  0  0  0  0  0
   42.9590   33.0980   39.9340 C   0  0  0  0  0  0  0  0  0  0  0  0
   43.8760   33.5540   39.0260 C   0  0  0  0  0  0  0  0  0  0  0  0
   43.5530   33.8730   37.7690 N   0  0  0  0  0  0  0  0  0  0  0  0
   42.2950   33.7660   37.3110 C   0  0  0  0  0  0  0  0  0  0  0  0
   41.3880   33.3180   38.2010 N   0  0  0  0  0  0  0  0  0  0  0  0
   41.6620   32.9840   39.4700 C   0  0  0  0  0  0  0  0  0  0  0  0
   35.7850   31.6780   40.2870 H   0  0  0  0  0  0  0  0  0  0  0  0
   36.7640   33.7560   39.3150 H   0  0  0  0  0  0  0  0  0  0  0  0
   41.4270   32.0020   42.5420 H   0  0  0  0  0  0  0  0  0  0  0  0
   42.0310   34.0230   36.2980 H   0  0  0  0  0  0  0  0  0  0  0  0
   45.2420   33.7170   39.3640 N   0  0  0  0  0  0  0  0  0  0  0  0
   45.8880   34.3700   38.8690 H   0  0  0  0  0  0  0  0  0  0  0  0
   45.6370   33.1450   40.1690 H   0  0  0  0  0  0  0  0  0  0  0  0
   36.9120   29.4550   41.6110 S   0  0  0  0  0  0  0  0  0  0  0  0
   36.8930   28.1350   40.4030 C   0  0  0  0  0  0  0  0  0  0  0  0
   37.9140   27.2010   40.5000 C   0  0  0  0  0  0  0  0  0  0  0  0
   38.6770   27.2640   41.2580 H   0  0  0  0  0  0  0  0  0  0  0  0
   37.9580   26.1430   39.5860 C   0  0  0  0  0  3  0  0  0  0  0  0
   36.9670   26.1160   38.6500 C   0  0  0  0  0  3  0  0  0  0  0  0
   35.9260   27.0130   38.5030 C   0  0  0  0  0  0  0  0  0  0  0  0
   34.9740   26.8850   37.5120 C   0  0  0  0  0  3  0  0  0  0  0  0
   33.9950   27.8670   37.4970 C   0  0  0  0  0  3  0  0  0  0  0  0
   33.9370   28.9180   38.3920 C   0  0  0  0  0  3  0  0  0  0  0  0
   34.9030   29.0200   39.3710 C   0  0  0  0  0  3  0  0  0  0  0  0
   35.9070   28.0580   39.4270 C   0  0  0  0  0  0  0  0  0  0  0  0
  1  6  1  0  0  0  0
  1 23  1  0  0  0  0
  2  1  2  0  0  0  0
  3  4  2  0  0  0  0
  3  2  1  0  0  0  0
  4  5  1  0  0  0  0
  5  7  1  0  0  0  0
  5  6  2  0  0  0  0
  7  8  1  0  0  0  0
  8 18  1  0  0  0  0
  9  8  2  0  0  0  0
 10  9  1  0  0  0  0
 11 20  1  0  0  0  0
 11 10  2  0  0  0  0
 12 11  1  0  0  0  0
 13 12  2  0  0  0  0
 13 14  1  0  0  0  0
 14 15  2  0  0  0  0
 15 10  1  0  0  0  0
 15  7  1  0  0  0  0
 16  2  1  0  0  0  0
 17  3  1  0  0  0  0
 19 13  1  0  0  0  0
 20 22  1  0  0  0  0
 21 20  1  0  0  0  0
 24 25  1  0  0  0  0
 24 23  1  0  0  0  0
 25 26  1  0  0  0  0
 27 25  2  0  0  0  0
 28 27  1  0  0  0  0
 29 28  2  0  0  0  0
 29 34  1  0  0  0  0
 30 29  1  0  0  0  0
 31 30  2  0  0  0  0
 31 32  1  0  0  0  0
 32 33  2  0  0  0  0
 33 34  1  0  0  0  0
 34 24  2  0  0  0  0
M  END
>  <minimizedAffinity>
-6.27858067

$$$$

 OpenBabel03252504233D

 34 38  0  0  0  0  0  0  0  0999 V2000
   37.9460   31.4490   40.6580 C   0  0  0  0  0  0  0  0  0  0  0  0
   37.7080   32.7710   40.3080 C   0  0  0  0  0  0  0  0  0  0  0  0
   38.8090   33.5770   39.8990 C   0  0  0  0  0  0  0  0  0  0  0  0
   40.0300   32.9680   39.8870 N   0  0  0  0  0  0  0  0  0  0  0  0
   40.2120   31.6760   40.2370 C   0  0  0  0  0  0  0  0  0  0  0  0
   39.1770   30.9210   40.6210 N   0  0  0  0  0  0  0  0  0  0  0  0
   41.5420   31.1330   40.1890 N   0  0  0  0  0  0  0  0  0  0  0  0
   42.1240   30.3680   41.1220 C   0  0  0  0  0  0  0  0  0  0  0  0
   43.3810   30.0620   40.6980 N   0  0  0  0  0  0  0  0  0  0  0  0
   43.5400   30.6480   39.5130 C   0  0  0  0  0  0  0  0  0  0  0  0
   44.5640   30.7090   38.6060 C   0  0  0  0  0  0  0  0  0  0  0  0
   44.4730   31.3830   37.4550 N   0  0  0  0  0  0  0  0  0  0  0  0
   43.3590   32.0510   37.1100 C   0  0  0  0  0  0  0  0  0  0  0  0
   42.3490   31.9940   38.0000 N   0  0  0  0  0  0  0  0  0  0  0  0
   42.3910   31.3330   39.1650 C   0  0  0  0  0  0  0  0  0  0  0  0
   36.7360   33.2270   40.3260 H   0  0  0  0  0  0  0  0  0  0  0  0
   38.6890   34.6050   39.6160 H   0  0  0  0  0  0  0  0  0  0  0  0
   41.6420   30.0650   42.0440 H   0  0  0  0  0  0  0  0  0  0  0  0
   43.2830   32.5950   36.1840 H   0  0  0  0  0  0  0  0  0  0  0  0
   45.7990   30.0530   38.8320 N   0  0  0  0  0  0  0  0  0  0  0  0
   46.6990   30.3420   38.3890 H   0  0  0  0  0  0  0  0  0  0  0  0
   45.8170   29.2180   39.4900 H   0  0  0  0  0  0  0  0  0  0  0  0
   36.4740   30.5420   41.1560 S   0  0  0  0  0  0  0  0  0  0  0  0
   36.9110   28.9300   41.8010 C   0  0  0  0  0  0  0  0  0  0  0  0
   37.3660   28.8980   43.1100 C   0  0  0  0  0  0  0  0  0  0  0  0
   37.4540   29.7890   43.7090 H   0  0  0  0  0  0  0  0  0  0  0  0
   37.7250   27.6700   43.6770 C   0  0  0  0  0  3  0  0  0  0  0  0
   37.5940   26.5770   42.8720 C   0  0  0  0  0  3  0  0  0  0  0  0
   37.1470   26.5450   41.5650 C   0  0  0  0  0  0  0  0  0  0  0  0
   37.0540   25.3720   40.8430 C   0  0  0  0  0  3  0  0  0  0  0  0
   36.5880   25.5070   39.5450 C   0  0  0  0  0  3  0  0  0  0  0  0
   36.2300   26.7120   38.9710 C   0  0  0  0  0  3  0  0  0  0  0  0
   36.3340   27.8670   39.7160 C   0  0  0  0  0  3  0  0  0  0  0  0
   36.7960   27.7830   41.0260 C   0  0  0  0  0  0  0  0  0  0  0  0
  1 23  1  0  0  0  0
  2 16  1  0  0  0  0
  2  1  2  0  0  0  0
  3  2  1  0  0  0  0
  4  3  2  0  0  0  0
  4  5  1  0  0  0  0
  5  6  2  0  0  0  0
  6  1  1  0  0  0  0
  7  5  1  0  0  0  0
  7  8  1  0  0  0  0
  8 18  1  0  0  0  0
  9  8  2  0  0  0  0
 10  9  1  0  0  0  0
 11 20  1  0  0  0  0
 11 10  2  0  0  0  0
 12 11  1  0  0  0  0
 13 12  2  0  0  0  0
 13 14  1  0  0  0  0
 14 15  2  0  0  0  0
 15 10  1  0  0  0  0
 15  7  1  0  0  0  0
 17  3  1  0  0  0  0
 19 13  1  0  0  0  0
 20 22  1  0  0  0  0
 21 20  1  0  0  0  0
 23 24  1  0  0  0  0
 24 25  1  0  0  0  0
 25 27  2  0  0  0  0
 25 26  1  0  0  0  0
 28 27  1  0  0  0  0
 29 28  2  0  0  0  0
 30 29  1  0  0  0  0
 31 30  2  0  0  0  0
 32 31  1  0  0  0  0
 32 33  2  0  0  0  0
 33 34  1  0  0  0  0
 34 29  1  0  0  0  0
 34 24  2  0  0  0  0
M  END
>  <minimizedAffinity>
-6.23417091

$$$$

 OpenBabel03252504233D

 34 38  0  0  0  0  0  0  0  0999 V2000
   37.3040   29.7500   40.9280 C   0  0  0  0  0  0  0  0  0  0  0  0
   37.0730   31.1070   40.7500 C   0  0  0  0  0  0  0  0  0  0  0  0
   36.8290   31.5900   39.4320 C   0  0  0  0  0  0  0  0  0  0  0  0
   36.8450   30.6570   38.4360 N   0  0  0  0  0  0  0  0  0  0  0  0
   37.0740   29.3450   38.6590 C   0  0  0  0  0  0  0  0  0  0  0  0
   37.3030   28.8940   39.8970 N   0  0  0  0  0  0  0  0  0  0  0  0
   37.0690   28.4470   37.5380 N   0  0  0  0  0  0  0  0  0  0  0  0
   37.9600   27.4770   37.2890 C   0  0  0  0  0  0  0  0  0  0  0  0
   37.5990   26.8550   36.1330 N   0  0  0  0  0  0  0  0  0  0  0  0
   36.4950   27.4590   35.6990 C   0  0  0  0  0  0  0  0  0  0  0  0
   35.6760   27.2920   34.6150 C   0  0  0  0  0  0  0  0  0  0  0  0
   34.5960   28.0490   34.3990 N   0  0  0  0  0  0  0  0  0  0  0  0
   34.2410   29.0340   35.2400 C   0  0  0  0  0  0  0  0  0  0  0  0
   35.0430   29.2040   36.3090 N   0  0  0  0  0  0  0  0  0  0  0  0
   36.1350   28.4710   36.5700 C   0  0  0  0  0  0  0  0  0  0  0  0
   37.0660   31.8210   41.5520 H   0  0  0  0  0  0  0  0  0  0  0  0
   36.6440   32.6280   39.2300 H   0  0  0  0  0  0  0  0  0  0  0  0
   38.8080   27.2570   37.9250 H   0  0  0  0  0  0  0  0  0  0  0  0
   33.3710   29.6460   35.0690 H   0  0  0  0  0  0  0  0  0  0  0  0
   35.9240   26.2920   33.6420 N   0  0  0  0  0  0  0  0  0  0  0  0
   35.5800   26.3420   32.6580 H   0  0  0  0  0  0  0  0  0  0  0  0
   36.4940   25.4400   33.9250 H   0  0  0  0  0  0  0  0  0  0  0  0
   37.5970   29.2710   42.6380 S   0  0  0  0  0  0  0  0  0  0  0  0
   38.8570   28.0020   42.7330 C   0  0  0  0  0  0  0  0  0  0  0  0
   40.1470   28.4400   42.9970 C   0  0  0  0  0  0  0  0  0  0  0  0
   40.3810   29.4820   43.1370 H   0  0  0  0  0  0  0  0  0  0  0  0
   41.1800   27.5000   43.0840 C   0  0  0  0  0  3  0  0  0  0  0  0
   40.8240   26.1970   42.8970 C   0  0  0  0  0  3  0  0  0  0  0  0
   39.5610   25.7020   42.6330 C   0  0  0  0  0  0  0  0  0  0  0  0
   39.3170   24.3540   42.4610 C   0  0  0  0  0  3  0  0  0  0  0  0
   37.9970   24.0170   42.2020 C   0  0  0  0  0  3  0  0  0  0  0  0
   36.9660   24.9320   42.1120 C   0  0  0  0  0  3  0  0  0  0  0  0
   37.2400   26.2710   42.2880 C   0  0  0  0  0  3  0  0  0  0  0  0
   38.5510   26.6600   42.5510 C   0  0  0  0  0  0  0  0  0  0  0  0
  1 23  1  0  0  0  0
  2  1  1  0  0  0  0
  2 16  1  0  0  0  0
  3  2  2  0  0  0  0
  4  5  2  0  0  0  0
  4  3  1  0  0  0  0
  5  6  1  0  0  0  0
  6  1  2  0  0  0  0
  7  5  1  0  0  0  0
  8  7  1  0  0  0  0
  8 18  1  0  0  0  0
  9  8  2  0  0  0  0
 10  9  1  0  0  0  0
 10 15  1  0  0  0  0
 11 10  2  0  0  0  0
 12 11  1  0  0  0  0
 12 13  2  0  0  0  0
 13 14  1  0  0  0  0
 14 15  2  0  0  0  0
 15  7  1  0  0  0  0
 17  3  1  0  0  0  0
 19 13  1  0  0  0  0
 20 22  1  0  0  0  0
 20 11  1  0  0  0  0
 21 20  1  0  0  0  0
 23 24  1  0  0  0  0
 24 25  1  0  0  0  0
 25 27  2  0  0  0  0
 25 26  1  0  0  0  0
 28 27  1  0  0  0  0
 29 28  2  0  0  0  0
 30 29  1  0  0  0  0
 31 30  2  0  0  0  0
 32 31  1  0  0  0  0
 32 33  2  0  0  0  0
 33 34  1  0  0  0  0
 34 29  1  0  0  0  0
 34 24  2  0  0  0  0
M  END
>  <minimizedAffinity>
-6.22956657

$$$$

 OpenBabel03252504233D

 34 38  0  0  0  0  0  0  0  0999 V2000
   38.8430   31.5140   40.1840 C   0  0  0  0  0  0  0  0  0  0  0  0
   38.0580   32.6140   39.8670 C   0  0  0  0  0  0  0  0  0  0  0  0
   37.2730   32.5720   38.6780 C   0  0  0  0  0  0  0  0  0  0  0  0
   37.3630   31.4300   37.9370 N   0  0  0  0  0  0  0  0  0  0  0  0
   38.1430   30.3840   38.2870 C   0  0  0  0  0  0  0  0  0  0  0  0
   38.8790   30.4250   39.4030 N   0  0  0  0  0  0  0  0  0  0  0  0
   38.1650   29.2280   37.4340 N   0  0  0  0  0  0  0  0  0  0  0  0
   39.2500   28.5470   37.0420 C   0  0  0  0  0  0  0  0  0  0  0  0
   38.8440   27.5220   36.2430 N   0  0  0  0  0  0  0  0  0  0  0  0
   37.5170   27.5990   36.1630 C   0  0  0  0  0  0  0  0  0  0  0  0
   36.5530   26.8670   35.5240 C   0  0  0  0  0  0  0  0  0  0  0  0
   35.2510   27.1570   35.6050 N   0  0  0  0  0  0  0  0  0  0  0  0
   34.7980   28.1960   36.3270 C   0  0  0  0  0  0  0  0  0  0  0  0
   35.7430   28.9200   36.9580 N   0  0  0  0  0  0  0  0  0  0  0  0
   37.0590   28.6700   36.9090 C   0  0  0  0  0  0  0  0  0  0  0  0
   38.0050   33.5020   40.4680 H   0  0  0  0  0  0  0  0  0  0  0  0
   36.6460   33.3900   38.3800 H   0  0  0  0  0  0  0  0  0  0  0  0
   40.2620   28.8010   37.3340 H   0  0  0  0  0  0  0  0  0  0  0  0
   33.7500   28.4320   36.3940 H   0  0  0  0  0  0  0  0  0  0  0  0
   36.8790   25.7430   34.7270 N   0  0  0  0  0  0  0  0  0  0  0  0
   36.2730   25.3820   33.9570 H   0  0  0  0  0  0  0  0  0  0  0  0
   37.7920   25.2330   34.9180 H   0  0  0  0  0  0  0  0  0  0  0  0
   39.7840   31.6950   41.7080 S   0  0  0  0  0  0  0  0  0  0  0  0
   40.3600   30.1020   42.2890 C   0  0  0  0  0  0  0  0  0  0  0  0
   41.7300   29.8950   42.2470 C   0  0  0  0  0  0  0  0  0  0  0  0
   42.4130   30.6460   41.8850 H   0  0  0  0  0  0  0  0  0  0  0  0
   42.2480   28.6710   42.6870 C   0  0  0  0  0  3  0  0  0  0  0  0
   41.3370   27.7600   43.1320 C   0  0  0  0  0  3  0  0  0  0  0  0
   39.9640   27.9080   43.1990 C   0  0  0  0  0  0  0  0  0  0  0  0
   39.1350   26.9110   43.6710 C   0  0  0  0  0  3  0  0  0  0  0  0
   37.7820   27.2140   43.6740 C   0  0  0  0  0  3  0  0  0  0  0  0
   37.2550   28.4160   43.2430 C   0  0  0  0  0  3  0  0  0  0  0  0
   38.1080   29.3930   42.7760 C   0  0  0  0  0  3  0  0  0  0  0  0
   39.4760   29.1370   42.7540 C   0  0  0  0  0  0  0  0  0  0  0  0
  1 23  1  0  0  0  0
  2  1  1  0  0  0  0
  2 16  1  0  0  0  0
  3  2  2  0  0  0  0
  4  5  2  0  0  0  0
  4  3  1  0  0  0  0
  5  6  1  0  0  0  0
  6  1  2  0  0  0  0
  7  5  1  0  0  0  0
  8 18  1  0  0  0  0
  8  7  1  0  0  0  0
  9  8  2  0  0  0  0
 10  9  1  0  0  0  0
 10 15  1  0  0  0  0
 11 12  1  0  0  0  0
 11 10  2  0  0  0  0
 12 13  2  0  0  0  0
 13 19  1  0  0  0  0
 13 14  1  0  0  0  0
 15 14  2  0  0  0  0
 15  7  1  0  0  0  0
 17  3  1  0  0  0  0
 20 22  1  0  0  0  0
 20 11  1  0  0  0  0
 21 20  1  0  0  0  0
 23 24  1  0  0  0  0
 24 34  1  0  0  0  0
 25 24  2  0  0  0  0
 25 27  1  0  0  0  0
 26 25  1  0  0  0  0
 27 28  2  0  0  0  0
 28 29  1  0  0  0  0
 29 30  1  0  0  0  0
 30 31  2  0  0  0  0
 32 31  1  0  0  0  0
 33 32  2  0  0  0  0
 34 33  1  0  0  0  0
 34 29  2  0  0  0  0
M  END
>  <minimizedAffinity>
-6.21274805

$$$$
