REMARK  Name = 
REMARK  8 active torsions:
REMARK  status: ('A' for Active; 'I' for Inactive)
REMARK    1  A    between atoms: N_1  and  C_7
REMARK    2  A    between atoms: C_6  and  O_15
REMARK    3  A    between atoms: C_7  and  C_8
REMARK    4  A    between atoms: C_8  and  C_11
REMARK    5  A    between atoms: O_15  and  P_17
REMARK    6  A    between atoms: P_17  and  O_18
REMARK    7  A    between atoms: P_17  and  O_19
REMARK    8  A    between atoms: O_19  and  C_37
REMARK                            x       y       z     vdW  Elec       q    Type
REMARK                         _______ _______ _______ _____ _____    ______ ____
ROOT
ATOM      1  N   UNL     1      47.167  34.154  43.084  0.00  0.00    +0.000 NA
ATOM      2  C   UNL     1      46.670  35.363  42.533  0.00  0.00    +0.000 C 
ATOM      3  C   UNL     1      45.189  35.598  42.742  0.00  0.00    +0.000 C 
ATOM      4  C   UNL     1      44.647  35.045  44.038  0.00  0.00    +0.000 C 
ATOM      5  C   UNL     1      45.745  34.467  44.897  0.00  0.00    +0.000 C 
ATOM      6  C   UNL     1      46.411  33.395  43.959  0.00  0.00    +0.000 C 
ATOM      7  H   UNL     1      47.173  36.198  43.084  0.00  0.00    +0.000 HD
ATOM      8  H   UNL     1      46.891  35.532  41.480  0.00  0.00    +0.000 HD
ATOM      9  H   UNL     1      44.648  35.233  41.840  0.00  0.00    +0.000 HD
ATOM     10  H   UNL     1      44.997  36.695  42.762  0.00  0.00    +0.000 HD
ATOM     11  H   UNL     1      44.012  35.776  44.591  0.00  0.00    +0.000 HD
ATOM     12  H   UNL     1      43.980  34.195  43.775  0.00  0.00    +0.000 HD
ATOM     13  H   UNL     1      46.525  35.175  45.171  0.00  0.00    +0.000 HD
ATOM     14  H   UNL     1      45.267  33.918  45.715  0.00  0.00    +0.000 HD
ATOM     15  H   UNL     1      45.580  32.782  43.526  0.00  0.00    +0.000 HD
ENDROOT
BRANCH   1  16
ATOM     16  C   UNL     1      48.144  33.499  42.266  0.00  0.00    +0.000 C 
ATOM     17  H   UNL     1      48.788  32.816  42.886  0.00  0.00    +0.000 HD
ATOM     18  H   UNL     1      48.761  34.275  41.787  0.00  0.00    +0.000 HD
BRANCH  16  19
ATOM     19  C   UNL     1      47.445  32.651  41.257  0.00  0.00    +0.000 C 
ATOM     20  H   UNL     1      47.471  31.569  41.448  0.00  0.00    +0.000 HD
ATOM     21  H   UNL     1      46.362  32.919  41.202  0.00  0.00    +0.000 HD
BRANCH  19  24
ATOM     22  C   UNL     1      49.329  32.292  38.028  0.00  0.00    +0.000 A 
ATOM     23  C   UNL     1      48.810  32.018  39.307  0.00  0.00    +0.000 A 
ATOM     24  C   UNL     1      47.991  32.944  39.906  0.00  0.00    +0.000 A 
ATOM     25  N   UNL     1      47.726  34.073  39.232  0.00  0.00    +0.000 NA
ATOM     26  C   UNL     1      48.234  34.317  38.005  0.00  0.00    +0.000 A 
ATOM     27  N   UNL     1      49.036  33.432  37.396  0.00  0.00    +0.000 NA
ATOM     28  H   UNL     1      49.964  31.479  37.664  0.00  0.00    +0.000 HD
ATOM     29  H   UNL     1      49.030  31.097  39.850  0.00  0.00    +0.000 HD
ATOM     30  H   UNL     1      48.013  35.239  37.465  0.00  0.00    +0.000 HD
ENDBRANCH  19  24
ENDBRANCH  16  19
ENDBRANCH   1  16
BRANCH   6  31
ATOM     31  O   UNL     1      47.204  32.695  44.856  0.00  0.00    +0.000 OA
BRANCH  31  33
ATOM     32  O   UNL     1      45.996  30.543  43.865  0.00  0.00    +0.000 OA
ATOM     33  P   UNL     1      46.666  31.122  45.114  0.00  0.00    +0.000 P 
BRANCH  33  34
ATOM     34  O   UNL     1      45.402  31.238  46.264  0.00  0.00    +0.000 OA
ATOM     35  H   UNL     1      45.798  31.732  47.017  0.00  0.00    +0.000 HD
ENDBRANCH  33  34
BRANCH  33  36
ATOM     36  O   UNL     1      47.841  30.143  45.746  0.00  0.00    +0.000 OA
BRANCH  36  37
ATOM     37  C   UNL     1      47.908  28.781  45.772  0.00  0.00    +0.000 A 
ATOM     38  C   UNL     1      46.900  27.885  46.097  0.00  0.00    +0.000 A 
ATOM     39  H   UNL     1      45.966  28.363  46.355  0.00  0.00    +0.000 HD
ATOM     40  C   UNL     1      47.165  26.524  46.065  0.00  0.00    +0.000 A 
ATOM     41  C   UNL     1      48.401  26.061  45.717  0.00  0.00    +0.000 A 
ATOM     42  C   UNL     1      49.415  26.916  45.391  0.00  0.00    +0.000 A 
ATOM     43  C   UNL     1      50.640  26.401  45.049  0.00  0.00    +0.000 A 
ATOM     44  C   UNL     1      51.675  27.245  44.717  0.00  0.00    +0.000 A 
ATOM     45  C   UNL     1      51.465  28.608  44.733  0.00  0.00    +0.000 A 
ATOM     46  C   UNL     1      50.237  29.086  45.078  0.00  0.00    +0.000 A 
ATOM     47  C   UNL     1      49.157  28.284  45.422  0.00  0.00    +0.000 A 
ENDBRANCH  36  37
ENDBRANCH  33  36
ENDBRANCH  31  33
ENDBRANCH   6  31
TORSDOF 8
