
 OpenBabel03252502363D

 26 28  0  0  1  0  0  0  0  0999 V2000
   47.6380   35.1700   41.4680 C   0  0  1  0  0  0  0  0  0  0  0  0
   47.1500   35.9490   40.8360 H   0  0  0  0  0  0  0  0  0  0  0  0
   48.0040   33.9730   40.6800 C   0  0  0  0  0  0  0  0  0  0  0  0
   47.1530   33.5960   39.6290 C   0  0  0  0  0  0  0  0  0  0  0  0
   46.2490   34.1850   39.4400 H   0  0  0  0  0  0  0  0  0  0  0  0
   47.3510   32.5300   38.7920 C   0  0  0  0  0  3  0  0  0  0  0  0
   48.4740   31.7560   38.9880 C   0  0  0  0  0  3  0  0  0  0  0  0
   49.3500   32.0710   40.0030 C   0  0  0  0  0  0  0  0  0  0  0  0
   50.4660   31.3150   40.2190 C   0  0  0  0  0  3  0  0  0  0  0  0
   51.3300   31.6390   41.2440 C   0  0  0  0  0  3  0  0  0  0  0  0
   51.0920   32.7220   42.0640 C   0  0  0  0  0  3  0  0  0  0  0  0
   49.9610   33.4730   41.8300 C   0  0  0  0  0  3  0  0  0  0  0  0
   49.1040   33.1550   40.8150 C   0  0  0  0  0  0  0  0  0  0  0  0
   45.6480   35.6410   42.8800 C   0  0  0  0  0  0  0  0  0  0  0  0
   46.8150   34.9320   42.6320 C   0  0  0  0  0  0  0  0  0  0  0  0
   47.1460   33.9540   43.5940 C   0  0  0  0  0  0  0  0  0  0  0  0
   46.3350   33.7630   44.6740 N   0  0  0  0  0  0  0  0  0  0  0  0
   45.2100   34.5000   44.8400 C   0  0  0  0  0  0  0  0  0  0  0  0
   44.8680   35.4430   43.9360 N   0  0  0  0  0  0  0  0  0  0  0  0
   45.2890   36.4180   42.2190 H   0  0  0  0  0  0  0  0  0  0  0  0
   48.0470   33.3430   43.4870 H   0  0  0  0  0  0  0  0  0  0  0  0
   44.7190   34.1810   45.7650 H   0  0  0  0  0  0  0  0  0  0  0  0
   48.9260   35.8430   41.9150 C   0  0  0  0  0  0  0  0  0  0  0  0
   49.3380   35.4080   42.8320 H   0  0  0  0  0  0  0  0  0  0  0  0
   48.7170   36.9290   42.1390 H   0  0  0  0  0  0  0  0  0  0  0  0
   49.6600   35.8570   41.0790 H   0  0  0  0  0  0  0  0  0  0  0  0
  1  2  1  6  0  0  0
  1 23  1  0  0  0  0
  1 15  1  0  0  0  0
  3 13  1  0  0  0  0
  3  1  1  0  0  0  0
  4  3  2  0  0  0  0
  5  4  1  0  0  0  0
  6  7  2  0  0  0  0
  6  4  1  0  0  0  0
  7  8  1  0  0  0  0
  8  9  2  0  0  0  0
  8 13  1  0  0  0  0
  9 10  1  0  0  0  0
 10 11  2  0  0  0  0
 12 11  1  0  0  0  0
 13 12  2  0  0  0  0
 14 19  1  0  0  0  0
 15 14  2  0  0  0  0
 15 16  1  0  0  0  0
 16 17  2  0  0  0  0
 17 18  1  0  0  0  0
 18 22  1  0  0  0  0
 19 18  2  0  0  0  0
 20 14  1  0  0  0  0
 21 16  1  0  0  0  0
 23 25  1  0  0  0  0
 23 24  1  0  0  0  0
 26 23  1  0  0  0  0
M  END
>  <minimizedAffinity>
-5.17976236

>  <minimizedRMSD>
2.72765779

$$$$
