
 OpenBabel03242519103D

 49 53  0  0  1  0  0  0  0  0999 V2000
   46.7350   32.4310   37.1630 C   0  0  0  0  0  0  0  0  0  0  0  0
   45.9420   32.6450   38.3070 C   0  0  0  0  0  0  0  0  0  0  0  0
   44.9670   31.6980   38.4830 C   0  0  0  0  0  0  0  0  0  0  0  0
   44.7310   30.6250   37.6690 C   0  0  0  0  0  0  0  0  0  0  0  0
   45.5390   30.4570   36.5570 C   0  0  0  0  0  0  0  0  0  0  0  0
   46.5290   31.3670   36.3260 C   0  0  0  0  0  0  0  0  0  0  0  0
   44.3350   31.8380   39.3610 H   0  0  0  0  0  0  0  0  0  0  0  0
   43.9240   29.9520   37.9310 H   0  0  0  0  0  0  0  0  0  0  0  0
   45.3580   29.6090   35.9020 H   0  0  0  0  0  0  0  0  0  0  0  0
   46.9060   31.7030   33.9240 C   0  0  0  0  0  0  0  0  0  0  0  0
   45.7810   32.2850   33.8440 O   0  0  0  0  0  0  0  0  0  0  0  0
   47.3320   31.1480   35.1740 N   0  0  0  0  0  0  0  0  0  0  0  0
   48.1540   30.5870   35.4290 H   0  0  0  0  0  0  0  0  0  0  0  0
   47.9190   31.4880   32.8670 C   0  0  0  0  0  0  0  0  0  0  0  0
   49.0200   32.2960   32.7030 C   0  0  0  0  0  0  0  0  0  0  0  0
   49.1420   33.1290   33.3830 H   0  0  0  0  0  0  0  0  0  0  0  0
   49.9150   32.0230   31.6860 C   0  0  0  0  0  0  0  0  0  0  0  0
   49.7610   30.9620   30.8110 C   0  0  0  0  0  0  0  0  0  0  0  0
   48.6550   30.1500   30.9750 C   0  0  0  0  0  0  0  0  0  0  0  0
   48.4880   29.0840   30.1050 C   0  0  0  0  0  0  0  0  0  0  0  0
   47.3920   28.2510   30.2430 C   0  0  0  0  0  0  0  0  0  0  0  0
   46.4660   28.4880   31.2510 C   0  0  0  0  0  0  0  0  0  0  0  0
   46.6880   29.5760   32.0940 C   0  0  0  0  0  0  0  0  0  0  0  0
   47.7510   30.4150   31.9930 C   0  0  0  0  0  0  0  0  0  0  0  0
   46.1160   33.7180   39.2030 N   0  0  0  0  0  0  0  0  0  0  0  0
   46.0360   34.6050   38.6460 H   0  0  0  0  0  0  0  0  0  0  0  0
   46.1170   34.7280   42.6130 N   0  0  0  0  0  0  0  0  0  0  0  0
   45.3570   34.5600   41.3730 C   0  0  0  0  0  0  0  0  0  0  0  0
   46.3590   33.7630   40.6080 C   0  0  2  0  0  0  0  0  0  0  0  0
   47.6360   34.5710   40.8220 C   0  0  0  0  0  0  0  0  0  0  0  0
   47.4660   35.0650   42.2310 C   0  0  0  0  0  0  0  0  0  0  0  0
   45.1180   35.5340   40.9260 H   0  0  0  0  0  0  0  0  0  0  0  0
   44.4530   33.9690   41.5970 H   0  0  0  0  0  0  0  0  0  0  0  0
   46.4670   32.7740   41.0830 H   0  0  0  0  0  0  0  0  0  0  0  0
   48.5000   33.8710   40.7920 H   0  0  0  0  0  0  0  0  0  0  0  0
   47.7200   35.3940   40.0870 H   0  0  0  0  0  0  0  0  0  0  0  0
   47.6260   36.1480   42.3140 H   0  0  0  0  0  0  0  0  0  0  0  0
   48.1960   34.5690   42.9310 H   0  0  0  0  0  0  0  0  0  0  0  0
   44.4550   35.2330   45.9200 C   0  0  0  0  0  0  0  0  0  0  0  0
   44.7910   35.4440   44.5920 C   0  0  0  0  0  0  0  0  0  0  0  0
   45.7050   34.6070   43.9540 C   0  0  0  0  0  0  0  0  0  0  0  0
   46.2310   33.5930   44.7020 N   0  0  0  0  0  0  0  0  0  0  0  0
   45.9090   33.3830   45.9840 C   0  0  0  0  0  0  0  0  0  0  0  0
   45.0170   34.2110   46.5870 N   0  0  0  0  0  0  0  0  0  0  0  0
   43.7360   35.9620   46.2580 H   0  0  0  0  0  0  0  0  0  0  0  0
   44.4220   36.2220   43.9240 H   0  0  0  0  0  0  0  0  0  0  0  0
   46.3190   32.5790   46.5860 H   0  0  0  0  0  0  0  0  0  0  0  0
   48.6440   34.1520   36.7040 N   0  0  0  0  0  0  0  0  0  0  0  0
   47.7980   33.3990   36.9100 C   0  0  0  0  0  0  0  0  0  0  0  0
  1  2  1  0  0  0  0
  2  3  2  0  0  0  0
  2 25  1  0  0  0  0
  3  7  1  0  0  0  0
  4  8  1  0  0  0  0
  4  3  1  0  0  0  0
  5  4  2  0  0  0  0
  6  5  1  0  0  0  0
  6  1  2  0  0  0  0
  9  5  1  0  0  0  0
 10 12  1  0  0  0  0
 11 10  2  0  0  0  0
 12 13  1  0  0  0  0
 12  6  1  0  0  0  0
 14 10  1  0  0  0  0
 15 14  1  0  0  0  0
 15 16  1  0  0  0  0
 17 15  2  0  0  0  0
 18 19  2  0  0  0  0
 18 17  1  0  0  0  0
 19 24  1  0  0  0  0
 20 21  2  0  0  0  0
 20 19  1  0  0  0  0
 21 22  1  0  0  0  0
 22 23  2  0  0  0  0
 24 23  1  0  0  0  0
 24 14  2  0  0  0  0
 25 29  1  0  0  0  0
 26 25  1  0  0  0  0
 27 41  1  0  0  0  0
 28 33  1  0  0  0  0
 28 27  1  0  0  0  0
 29 30  1  0  0  0  0
 29 34  1  1  0  0  0
 29 28  1  0  0  0  0
 30 31  1  0  0  0  0
 31 37  1  0  0  0  0
 31 27  1  0  0  0  0
 31 38  1  0  0  0  0
 32 28  1  0  0  0  0
 35 30  1  0  0  0  0
 36 30  1  0  0  0  0
 39 45  1  0  0  0  0
 39 44  1  0  0  0  0
 40 39  2  0  0  0  0
 41 40  1  0  0  0  0
 41 42  2  0  0  0  0
 42 43  1  0  0  0  0
 43 47  1  0  0  0  0
 43 44  2  0  0  0  0
 46 40  1  0  0  0  0
 48 49  3  0  0  0  0
 49  1  1  0  0  0  0
M  END
>  <minimizedAffinity>
-6.52526522

>  <minimizedRMSD>
2.6311121

$$$$
