
 OpenBabel03252507463D

 39 42  0  0  0  0  0  0  0  0999 V2000
   48.5010   33.9320   41.3240 C   0  0  0  0  0  0  0  0  0  0  0  0
   48.7880   32.6410   40.9160 C   0  0  0  0  0  0  0  0  0  0  0  0
   49.9880   32.0360   41.2660 C   0  0  0  0  0  0  0  0  0  0  0  0
   50.8580   32.7870   42.0330 N   0  0  0  0  0  0  0  0  0  0  0  0
   50.5400   34.0410   42.4100 C   0  0  0  0  0  0  0  0  0  0  0  0
   49.3870   34.5960   42.0610 N   0  0  0  0  0  0  0  0  0  0  0  0
   50.2230   31.0270   40.9530 H   0  0  0  0  0  0  0  0  0  0  0  0
   51.3050   34.5330   43.0110 H   0  0  0  0  0  0  0  0  0  0  0  0
   47.2030   34.4880   40.8990 C   0  0  0  0  0  0  0  0  0  0  0  0
   47.3630   35.3280   40.1650 H   0  0  0  0  0  0  0  0  0  0  0  0
   46.5950   33.7480   40.3570 H   0  0  0  0  0  0  0  0  0  0  0  0
   46.3660   34.9880   42.0340 C   0  0  0  0  0  0  0  0  0  0  0  0
   46.6510   36.0130   42.2740 H   0  0  0  0  0  0  0  0  0  0  0  0
   46.5760   34.3730   42.9550 H   0  0  0  0  0  0  0  0  0  0  0  0
   44.9070   34.9400   41.7680 C   0  0  0  0  0  0  0  0  0  0  0  0
   43.9930   35.4660   42.7450 C   0  0  0  0  0  0  0  0  0  0  0  0
   42.3560   35.1750   41.9550 S   0  0  0  0  0  0  0  0  0  0  0  0
   43.1870   34.3920   40.4390 C   0  0  0  0  0  0  0  0  0  0  0  0
   44.2890   34.4680   40.7220 N   0  0  0  0  0  0  0  0  0  0  0  0
   44.2490   35.9140   43.6970 H   0  0  0  0  0  0  0  0  0  0  0  0
   42.4660   33.9070   39.3560 O   0  0  0  0  0  0  0  0  0  0  0  0
   40.4850   34.3090   37.6330 O   0  0  0  0  0  0  0  0  0  0  0  0
   41.5570   35.0380   38.4500 P   0  0  0  0  0  0  0  0  0  0  0  0
   40.7990   36.0870   39.5460 O   0  0  0  0  0  0  0  0  0  0  0  0
   39.9230   35.7000   39.7730 H   0  0  0  0  0  0  0  0  0  0  0  0
   42.5880   35.9270   37.4500 O   0  0  0  0  0  0  0  0  0  0  0  0
   42.6610   36.8700   37.7140 H   0  0  0  0  0  0  0  0  0  0  0  0
   47.6140   31.7180   39.9240 S   0  0  0  0  0  0  0  0  0  0  0  0
   47.7940   32.0360   38.2000 C   0  0  0  0  0  0  0  0  0  0  0  0
   48.9770   32.4780   37.6440 C   0  0  0  0  0  0  0  0  0  0  0  0
   49.8280   32.6350   38.2980 H   0  0  0  0  0  0  0  0  0  0  0  0
   49.0610   32.7070   36.3040 C   0  0  0  0  0  3  0  0  0  0  0  0
   47.9600   32.5020   35.4720 C   0  0  0  0  0  3  0  0  0  0  0  0
   46.7750   32.0560   36.0510 C   0  0  0  0  0  0  0  0  0  0  0  0
   45.6740   31.8480   35.2290 C   0  0  0  0  0  3  0  0  0  0  0  0
   44.4780   31.4080   35.7520 C   0  0  0  0  0  3  0  0  0  0  0  0
   44.3650   31.1640   37.1230 C   0  0  0  0  0  3  0  0  0  0  0  0
   45.4790   31.3780   37.9330 C   0  0  0  0  0  3  0  0  0  0  0  0
   46.6750   31.8160   37.4230 C   0  0  0  0  0  0  0  0  0  0  0  0
  1  6  1  0  0  0  0
  2  3  1  0  0  0  0
  2  1  2  0  0  0  0
  3  4  2  0  0  0  0
  4  5  1  0  0  0  0
  5  8  1  0  0  0  0
  6  5  2  0  0  0  0
  7  3  1  0  0  0  0
  9  1  1  0  0  0  0
  9 12  1  0  0  0  0
 10  9  1  0  0  0  0
 11  9  1  0  0  0  0
 12 13  1  0  0  0  0
 12 14  1  0  0  0  0
 15 12  1  0  0  0  0
 15 16  2  0  0  0  0
 16 20  1  0  0  0  0
 17 16  1  0  0  0  0
 18 19  2  0  0  0  0
 18 17  1  0  0  0  0
 19 15  1  0  0  0  0
 21 18  1  0  0  0  0
 22 23  2  0  0  0  0
 23 21  1  0  0  0  0
 23 24  1  0  0  0  0
 24 25  1  0  0  0  0
 26 27  1  0  0  0  0
 26 23  1  0  0  0  0
 28  2  1  0  0  0  0
 29 28  1  0  0  0  0
 30 29  1  0  0  0  0
 30 31  1  0  0  0  0
 32 30  2  0  0  0  0
 33 34  2  0  0  0  0
 33 32  1  0  0  0  0
 34 39  1  0  0  0  0
 35 36  2  0  0  0  0
 35 34  1  0  0  0  0
 36 37  1  0  0  0  0
 37 38  2  0  0  0  0
 39 38  1  0  0  0  0
 39 29  2  0  0  0  0
M  END
>  <minimizedAffinity>
-5.27893209

>  <minimizedRMSD>
0.385482252

$$$$
