
 OpenBabel03252507513D

 47 50  0  0  0  0  0  0  0  0999 V2000
   37.9160   29.0090   38.9340 C   0  0  0  0  0  0  0  0  0  0  0  0
   37.5900   28.9570   40.0110 H   0  0  0  0  0  0  0  0  0  0  0  0
   37.0080   29.3360   38.3710 H   0  0  0  0  0  0  0  0  0  0  0  0
   38.2600   27.6270   38.5470 C   0  0  0  0  0  0  0  0  0  0  0  0
   38.2680   27.2430   37.1750 C   0  0  0  0  0  0  0  0  0  0  0  0
   38.7420   25.4810   37.2190 S   0  0  0  0  0  0  0  0  0  0  0  0
   38.8590   25.5330   39.1220 C   0  0  0  0  0  0  0  0  0  0  0  0
   38.5780   26.6280   39.3050 N   0  0  0  0  0  0  0  0  0  0  0  0
   38.0280   27.9160   36.3080 H   0  0  0  0  0  0  0  0  0  0  0  0
   39.2060   24.4320   39.8900 O   0  0  0  0  0  0  0  0  0  0  0  0
   36.6530   23.7310   39.8450 O   0  0  0  0  0  0  0  0  0  0  0  0
   37.9450   23.5980   40.6680 P   0  0  1  0  0  0  0  0  0  0  0  0
   38.3770   21.9630   40.7310 O   0  0  0  0  0  0  0  0  0  0  0  0
   38.6200   21.6530   39.8190 H   0  0  0  0  0  0  0  0  0  0  0  0
   37.7450   24.1820   42.2350 O   0  0  0  0  0  0  0  0  0  0  0  0
   38.6750   25.0880   42.7280 C   0  0  0  0  0  0  0  0  0  0  0  0
   39.9300   24.7300   43.1760 C   0  0  0  0  0  0  0  0  0  0  0  0
   40.2240   23.6900   43.1490 H   0  0  0  0  0  0  0  0  0  0  0  0
   40.7470   25.7450   43.6390 C   0  0  0  0  0  3  0  0  0  0  0  0
   40.3580   27.0750   43.6690 C   0  0  0  0  0  3  0  0  0  0  0  0
   39.0870   27.3810   43.2080 C   0  0  0  0  0  0  0  0  0  0  0  0
   38.6840   28.7100   43.2320 C   0  0  0  0  0  3  0  0  0  0  0  0
   37.4060   29.0270   42.7690 C   0  0  0  0  0  3  0  0  0  0  0  0
   36.5240   28.0770   42.2890 C   0  0  0  0  0  3  0  0  0  0  0  0
   36.9790   26.7740   42.2890 C   0  0  0  0  0  3  0  0  0  0  0  0
   38.2370   26.4100   42.7370 C   0  0  0  0  0  0  0  0  0  0  0  0
   39.0440   29.9800   38.8110 C   0  0  0  0  0  0  0  0  0  0  0  0
   39.3180   30.0260   37.7230 H   0  0  0  0  0  0  0  0  0  0  0  0
   39.9140   29.5660   39.3590 H   0  0  0  0  0  0  0  0  0  0  0  0
   38.7120   31.3470   39.2410 C   0  0  0  0  0  0  0  0  0  0  0  0
   39.7570   32.1520   39.6480 C   0  0  0  0  0  0  0  0  0  0  0  0
   39.5420   33.4460   40.0670 C   0  0  0  0  0  0  0  0  0  0  0  0
   38.2310   33.8890   40.0570 N   0  0  0  0  0  0  0  0  0  0  0  0
   37.2270   33.0590   39.6470 C   0  0  0  0  0  0  0  0  0  0  0  0
   37.4730   31.8100   39.2470 N   0  0  0  0  0  0  0  0  0  0  0  0
   40.3270   34.1120   40.3950 H   0  0  0  0  0  0  0  0  0  0  0  0
   36.2000   33.4180   39.6440 H   0  0  0  0  0  0  0  0  0  0  0  0
   41.4320   31.5110   39.6350 S   0  0  0  0  0  0  0  0  0  0  0  0
   42.5060   32.6210   38.6950 C   0  0  0  0  0  0  0  0  0  0  0  0
   42.6080   33.5510   39.2940 H   0  0  0  0  0  0  0  0  0  0  0  0
   43.5430   32.2030   38.6160 H   0  0  0  0  0  0  0  0  0  0  0  0
   41.8830   32.8680   37.3430 C   0  0  0  0  0  0  0  0  0  0  0  0
   40.7960   33.0280   37.4940 H   0  0  0  0  0  0  0  0  0  0  0  0
   41.9980   32.0030   36.6670 H   0  0  0  0  0  0  0  0  0  0  0  0
   42.4720   34.0400   36.7770 N   0  0  0  0  0  0  0  0  0  0  0  0
   42.2700   34.8790   37.3630 H   0  0  0  0  0  0  0  0  0  0  0  0
   42.2080   34.2030   35.7770 H   0  0  0  0  0  0  0  0  0  0  0  0
  1  2  1  0  0  0  0
  3  1  1  0  0  0  0
  4  1  1  0  0  0  0
  4  8  1  0  0  0  0
  5  6  1  0  0  0  0
  5  4  2  0  0  0  0
  6  7  1  0  0  0  0
  7  8  2  0  0  0  0
  7 10  1  0  0  0  0
  9  5  1  0  0  0  0
 10 12  1  0  0  0  0
 12 11  2  6  0  0  0
 12 13  1  0  0  0  0
 12 15  1  0  0  0  0
 14 13  1  0  0  0  0
 15 16  1  0  0  0  0
 16 26  2  0  0  0  0
 16 17  1  0  0  0  0
 17 19  2  0  0  0  0
 18 17  1  0  0  0  0
 19 20  1  0  0  0  0
 21 22  1  0  0  0  0
 21 20  2  0  0  0  0
 23 22  2  0  0  0  0
 24 25  2  0  0  0  0
 24 23  1  0  0  0  0
 25 26  1  0  0  0  0
 26 21  1  0  0  0  0
 27  1  1  0  0  0  0
 27 30  1  0  0  0  0
 27 29  1  0  0  0  0
 28 27  1  0  0  0  0
 30 35  2  0  0  0  0
 30 31  1  0  0  0  0
 31 32  2  0  0  0  0
 32 36  1  0  0  0  0
 33 32  1  0  0  0  0
 34 33  2  0  0  0  0
 35 34  1  0  0  0  0
 37 34  1  0  0  0  0
 38 31  1  0  0  0  0
 39 40  1  0  0  0  0
 39 38  1  0  0  0  0
 41 39  1  0  0  0  0
 42 43  1  0  0  0  0
 42 39  1  0  0  0  0
 44 42  1  0  0  0  0
 45 42  1  0  0  0  0
 45 46  1  0  0  0  0
 47 45  1  0  0  0  0
M  END
>  <minimizedAffinity>
-6.19293261

$$$$

 OpenBabel03252507513D

 47 50  0  0  0  0  0  0  0  0999 V2000
   42.2740   29.9030   41.4580 C   0  0  0  0  0  0  0  0  0  0  0  0
   42.0410   29.8480   40.3580 H   0  0  0  0  0  0  0  0  0  0  0  0
   43.3880   29.8480   41.5230 H   0  0  0  0  0  0  0  0  0  0  0  0
   41.6880   28.6880   42.0580 C   0  0  0  0  0  0  0  0  0  0  0  0
   42.3670   27.4400   41.9660 C   0  0  0  0  0  0  0  0  0  0  0  0
   41.2620   26.2790   42.8400 S   0  0  0  0  0  0  0  0  0  0  0  0
   40.0280   27.6860   43.2040 C   0  0  0  0  0  0  0  0  0  0  0  0
   40.5740   28.5590   42.7040 N   0  0  0  0  0  0  0  0  0  0  0  0
   43.3540   27.2700   41.4580 H   0  0  0  0  0  0  0  0  0  0  0  0
   38.8450   27.4950   43.9030 O   0  0  0  0  0  0  0  0  0  0  0  0
   36.2390   27.0660   43.7220 O   0  0  0  0  0  0  0  0  0  0  0  0
   37.3960   27.8540   43.0890 P   0  0  1  0  0  0  0  0  0  0  0  0
   37.0960   29.5080   43.2890 O   0  0  0  0  0  0  0  0  0  0  0  0
   37.1310   29.7310   44.2560 H   0  0  0  0  0  0  0  0  0  0  0  0
   37.5540   27.5120   41.4470 O   0  0  0  0  0  0  0  0  0  0  0  0
   37.2780   26.2230   41.0090 C   0  0  0  0  0  0  0  0  0  0  0  0
   37.6860   25.0840   41.6720 C   0  0  0  0  0  0  0  0  0  0  0  0
   38.2540   25.1810   42.5870 H   0  0  0  0  0  0  0  0  0  0  0  0
   37.3350   23.8700   41.1130 C   0  0  0  0  0  3  0  0  0  0  0  0
   36.6050   23.7600   39.9390 C   0  0  0  0  0  3  0  0  0  0  0  0
   36.2200   24.9350   39.3120 C   0  0  0  0  0  0  0  0  0  0  0  0
   35.4890   24.8390   38.1350 C   0  0  0  0  0  3  0  0  0  0  0  0
   35.0960   26.0170   37.4970 C   0  0  0  0  0  3  0  0  0  0  0  0
   35.4040   27.2740   37.9850 C   0  0  0  0  0  3  0  0  0  0  0  0
   36.1310   27.3070   39.1580 C   0  0  0  0  0  3  0  0  0  0  0  0
   36.5430   26.1660   39.8270 C   0  0  0  0  0  0  0  0  0  0  0  0
   41.7340   31.1820   42.0100 C   0  0  0  0  0  0  0  0  0  0  0  0
   42.4540   31.5260   42.8010 H   0  0  0  0  0  0  0  0  0  0  0  0
   40.7690   30.9600   42.5090 H   0  0  0  0  0  0  0  0  0  0  0  0
   41.6160   32.2620   41.0200 C   0  0  0  0  0  0  0  0  0  0  0  0
   40.3480   32.5630   40.5610 C   0  0  0  0  0  0  0  0  0  0  0  0
   40.1400   33.5590   39.6340 C   0  0  0  0  0  0  0  0  0  0  0  0
   41.2630   34.2360   39.1920 N   0  0  0  0  0  0  0  0  0  0  0  0
   42.4990   33.9070   39.6710 C   0  0  0  0  0  0  0  0  0  0  0  0
   42.6630   32.9340   40.5700 N   0  0  0  0  0  0  0  0  0  0  0  0
   39.1680   33.8290   39.2460 H   0  0  0  0  0  0  0  0  0  0  0  0
   43.3750   34.4460   39.3150 H   0  0  0  0  0  0  0  0  0  0  0  0
   38.9370   31.6440   41.1790 S   0  0  0  0  0  0  0  0  0  0  0  0
   37.4310   32.2010   40.3490 C   0  0  0  0  0  0  0  0  0  0  0  0
   36.9730   32.9740   41.0020 H   0  0  0  0  0  0  0  0  0  0  0  0
   37.6730   32.7280   39.3890 H   0  0  0  0  0  0  0  0  0  0  0  0
   36.5260   31.0110   40.1370 C   0  0  0  0  0  0  0  0  0  0  0  0
   37.1620   30.1030   40.1070 H   0  0  0  0  0  0  0  0  0  0  0  0
   35.9850   31.0670   39.1770 H   0  0  0  0  0  0  0  0  0  0  0  0
   35.6150   30.9300   41.2330 N   0  0  0  0  0  0  0  0  0  0  0  0
   36.1240   30.7690   42.1300 H   0  0  0  0  0  0  0  0  0  0  0  0
   34.8540   30.2250   41.0980 H   0  0  0  0  0  0  0  0  0  0  0  0
  1  3  1  0  0  0  0
  1 27  1  0  0  0  0
  1  4  1  0  0  0  0
  2  1  1  0  0  0  0
  4  8  1  0  0  0  0
  5  4  2  0  0  0  0
  5  6  1  0  0  0  0
  6  7  1  0  0  0  0
  7 10  1  0  0  0  0
  8  7  2  0  0  0  0
  9  5  1  0  0  0  0
 12 13  1  0  0  0  0
 12 11  2  1  0  0  0
 12 10  1  0  0  0  0
 13 14  1  0  0  0  0
 15 12  1  0  0  0  0
 16 15  1  0  0  0  0
 16 17  1  0  0  0  0
 17 18  1  0  0  0  0
 19 17  2  0  0  0  0
 20 19  1  0  0  0  0
 21 26  1  0  0  0  0
 21 20  2  0  0  0  0
 22 21  1  0  0  0  0
 23 24  1  0  0  0  0
 23 22  2  0  0  0  0
 24 25  2  0  0  0  0
 25 26  1  0  0  0  0
 26 16  2  0  0  0  0
 27 29  1  0  0  0  0
 27 28  1  0  0  0  0
 30 27  1  0  0  0  0
 31 30  2  0  0  0  0
 31 38  1  0  0  0  0
 32 31  1  0  0  0  0
 33 32  2  0  0  0  0
 33 34  1  0  0  0  0
 34 35  2  0  0  0  0
 35 30  1  0  0  0  0
 36 32  1  0  0  0  0
 37 34  1  0  0  0  0
 39 40  1  0  0  0  0
 39 38  1  0  0  0  0
 41 39  1  0  0  0  0
 42 39  1  0  0  0  0
 42 45  1  0  0  0  0
 43 42  1  0  0  0  0
 44 42  1  0  0  0  0
 45 46  1  0  0  0  0
 47 45  1  0  0  0  0
M  END
>  <minimizedAffinity>
-6.02263975

$$$$

 OpenBabel03252507513D

 47 50  0  0  0  0  0  0  0  0999 V2000
   41.7580   30.8000   39.4420 C   0  0  0  0  0  0  0  0  0  0  0  0
   42.3230   29.9540   38.9600 H   0  0  0  0  0  0  0  0  0  0  0  0
   41.7970   30.5880   40.5390 H   0  0  0  0  0  0  0  0  0  0  0  0
   40.3650   30.6800   38.9700 C   0  0  0  0  0  0  0  0  0  0  0  0
   39.9150   31.4390   37.8530 C   0  0  0  0  0  0  0  0  0  0  0  0
   38.1660   30.9490   37.6700 S   0  0  0  0  0  0  0  0  0  0  0  0
   38.3140   29.7680   39.1610 C   0  0  0  0  0  0  0  0  0  0  0  0
   39.4110   29.9420   39.4390 N   0  0  0  0  0  0  0  0  0  0  0  0
   40.5390   32.1600   37.2590 H   0  0  0  0  0  0  0  0  0  0  0  0
   37.2590   28.9970   39.6240 O   0  0  0  0  0  0  0  0  0  0  0  0
   36.5310   31.1710   40.9480 O   0  0  0  0  0  0  0  0  0  0  0  0
   36.3060   29.6540   40.8700 P   0  0  1  0  0  0  0  0  0  0  0  0
   34.6840   29.3690   40.4750 O   0  0  0  0  0  0  0  0  0  0  0  0
   34.5090   29.7040   39.5560 H   0  0  0  0  0  0  0  0  0  0  0  0
   36.6630   28.8970   42.3320 O   0  0  0  0  0  0  0  0  0  0  0  0
   37.9490   28.4110   42.5300 C   0  0  0  0  0  0  0  0  0  0  0  0
   39.0430   29.2160   42.7750 C   0  0  0  0  0  0  0  0  0  0  0  0
   38.9110   30.2880   42.8190 H   0  0  0  0  0  0  0  0  0  0  0  0
   40.2610   28.5870   42.9520 C   0  0  0  0  0  3  0  0  0  0  0  0
   40.4170   27.2100   42.8920 C   0  0  0  0  0  3  0  0  0  0  0  0
   39.2860   26.4470   42.6430 C   0  0  0  0  0  0  0  0  0  0  0  0
   39.4280   25.0670   42.5810 C   0  0  0  0  0  3  0  0  0  0  0  0
   38.2950   24.2910   42.3320 C   0  0  0  0  0  3  0  0  0  0  0  0
   37.0390   24.8370   42.1430 C   0  0  0  0  0  3  0  0  0  0  0  0
   36.9590   26.2130   42.2160 C   0  0  0  0  0  3  0  0  0  0  0  0
   38.0530   27.0240   42.4610 C   0  0  0  0  0  0  0  0  0  0  0  0
   42.4180   32.0930   39.0890 C   0  0  0  0  0  0  0  0  0  0  0  0
   41.6290   32.7470   38.6300 H   0  0  0  0  0  0  0  0  0  0  0  0
   43.1790   31.8870   38.3090 H   0  0  0  0  0  0  0  0  0  0  0  0
   42.9780   32.8170   40.2390 C   0  0  0  0  0  0  0  0  0  0  0  0
   42.4240   34.0450   40.5440 C   0  0  0  0  0  0  0  0  0  0  0  0
   42.8830   34.7950   41.6030 C   0  0  0  0  0  0  0  0  0  0  0  0
   43.9230   34.2530   42.3390 N   0  0  0  0  0  0  0  0  0  0  0  0
   44.4430   33.0350   42.0030 C   0  0  0  0  0  0  0  0  0  0  0  0
   43.9720   32.3360   40.9690 N   0  0  0  0  0  0  0  0  0  0  0  0
   42.4820   35.7590   41.8790 H   0  0  0  0  0  0  0  0  0  0  0  0
   45.2600   32.6190   42.5890 H   0  0  0  0  0  0  0  0  0  0  0  0
   41.0780   34.6860   39.5470 S   0  0  0  0  0  0  0  0  0  0  0  0
   39.6070   34.9090   40.5730 C   0  0  0  0  0  0  0  0  0  0  0  0
   39.9630   35.0760   41.6120 H   0  0  0  0  0  0  0  0  0  0  0  0
   39.0600   35.8460   40.2920 H   0  0  0  0  0  0  0  0  0  0  0  0
   38.7380   33.6800   40.4500 C   0  0  0  0  0  0  0  0  0  0  0  0
   38.8730   33.2710   39.4280 H   0  0  0  0  0  0  0  0  0  0  0  0
   37.6670   33.9150   40.5730 H   0  0  0  0  0  0  0  0  0  0  0  0
   39.1650   32.7210   41.4170 N   0  0  0  0  0  0  0  0  0  0  0  0
   40.1470   32.4190   41.2340 H   0  0  0  0  0  0  0  0  0  0  0  0
   38.5250   31.8970   41.5050 H   0  0  0  0  0  0  0  0  0  0  0  0
  1  3  1  0  0  0  0
  2  1  1  0  0  0  0
  4  8  1  0  0  0  0
  4  1  1  0  0  0  0
  5  4  2  0  0  0  0
  6  5  1  0  0  0  0
  6  7  1  0  0  0  0
  7  8  2  0  0  0  0
  7 10  1  0  0  0  0
  9  5  1  0  0  0  0
 10 12  1  0  0  0  0
 12 11  2  1  0  0  0
 12 15  1  0  0  0  0
 13 12  1  0  0  0  0
 14 13  1  0  0  0  0
 15 16  1  0  0  0  0
 16 17  1  0  0  0  0
 17 18  1  0  0  0  0
 17 19  2  0  0  0  0
 20 19  1  0  0  0  0
 21 20  2  0  0  0  0
 22 21  1  0  0  0  0
 23 22  2  0  0  0  0
 24 25  2  0  0  0  0
 24 23  1  0  0  0  0
 25 26  1  0  0  0  0
 26 16  2  0  0  0  0
 26 21  1  0  0  0  0
 27  1  1  0  0  0  0
 27 30  1  0  0  0  0
 28 27  1  0  0  0  0
 29 27  1  0  0  0  0
 30 31  2  0  0  0  0
 30 35  1  0  0  0  0
 31 32  1  0  0  0  0
 32 36  1  0  0  0  0
 32 33  2  0  0  0  0
 34 33  1  0  0  0  0
 34 37  1  0  0  0  0
 35 34  2  0  0  0  0
 38 31  1  0  0  0  0
 38 39  1  0  0  0  0
 39 40  1  0  0  0  0
 41 39  1  0  0  0  0
 42 44  1  0  0  0  0
 42 39  1  0  0  0  0
 42 45  1  0  0  0  0
 43 42  1  0  0  0  0
 45 47  1  0  0  0  0
 46 45  1  0  0  0  0
M  END
>  <minimizedAffinity>
-6.00770187

$$$$

 OpenBabel03252507513D

 47 50  0  0  0  0  0  0  0  0999 V2000
   40.2900   28.5430   37.8070 C   0  0  0  0  0  0  0  0  0  0  0  0
   39.2640   28.3510   37.3860 H   0  0  0  0  0  0  0  0  0  0  0  0
   40.9650   27.8400   37.2590 H   0  0  0  0  0  0  0  0  0  0  0  0
   40.2270   28.1490   39.2280 C   0  0  0  0  0  0  0  0  0  0  0  0
   41.2240   27.3000   39.7870 C   0  0  0  0  0  0  0  0  0  0  0  0
   40.7100   27.1130   41.5290 S   0  0  0  0  0  0  0  0  0  0  0  0
   39.1960   28.2340   41.2290 C   0  0  0  0  0  0  0  0  0  0  0  0
   39.3460   28.4730   40.1200 N   0  0  0  0  0  0  0  0  0  0  0  0
   42.1030   26.8740   39.2330 H   0  0  0  0  0  0  0  0  0  0  0  0
   38.2800   28.5510   42.2210 O   0  0  0  0  0  0  0  0  0  0  0  0
   36.8560   26.4500   41.4670 O   0  0  0  0  0  0  0  0  0  0  0  0
   36.7390   27.8400   42.1120 P   0  0  1  0  0  0  0  0  0  0  0  0
   36.1490   27.6560   43.6880 O   0  0  0  0  0  0  0  0  0  0  0  0
   36.8240   27.1750   44.2350 H   0  0  0  0  0  0  0  0  0  0  0  0
   35.7000   28.8420   41.2420 O   0  0  0  0  0  0  0  0  0  0  0  0
   35.9640   29.0600   39.8960 C   0  0  0  0  0  0  0  0  0  0  0  0
   35.6910   28.1430   38.9020 C   0  0  0  0  0  0  0  0  0  0  0  0
   35.2460   27.1940   39.1680 H   0  0  0  0  0  0  0  0  0  0  0  0
   36.0090   28.5040   37.6060 C   0  0  0  0  0  3  0  0  0  0  0  0
   36.5800   29.7250   37.2800 C   0  0  0  0  0  3  0  0  0  0  0  0
   36.8350   30.6110   38.3150 C   0  0  0  0  0  0  0  0  0  0  0  0
   37.4060   31.8370   38.0020 C   0  0  0  0  0  3  0  0  0  0  0  0
   37.6650   32.7350   39.0380 C   0  0  0  0  0  3  0  0  0  0  0  0
   37.3790   32.4570   40.3620 C   0  0  0  0  0  3  0  0  0  0  0  0
   36.8120   31.2240   40.6130 C   0  0  0  0  0  3  0  0  0  0  0  0
   36.5360   30.3000   39.6190 C   0  0  0  0  0  0  0  0  0  0  0  0
   40.6530   29.9740   37.5810 C   0  0  0  0  0  0  0  0  0  0  0  0
   40.6050   30.4850   38.5800 H   0  0  0  0  0  0  0  0  0  0  0  0
   39.8730   30.4260   36.9350 H   0  0  0  0  0  0  0  0  0  0  0  0
   42.0080   30.1750   37.0450 C   0  0  0  0  0  0  0  0  0  0  0  0
   42.8040   31.1090   37.6770 C   0  0  0  0  0  0  0  0  0  0  0  0
   44.0870   31.3650   37.2460 C   0  0  0  0  0  0  0  0  0  0  0  0
   44.5280   30.6380   36.1540 N   0  0  0  0  0  0  0  0  0  0  0  0
   43.7070   29.7230   35.5590 C   0  0  0  0  0  0  0  0  0  0  0  0
   42.4690   29.5020   36.0040 N   0  0  0  0  0  0  0  0  0  0  0  0
   44.7460   32.0860   37.7080 H   0  0  0  0  0  0  0  0  0  0  0  0
   44.0650   29.1580   34.7000 H   0  0  0  0  0  0  0  0  0  0  0  0
   42.1670   32.0150   39.0880 S   0  0  0  0  0  0  0  0  0  0  0  0
   41.3470   33.5250   38.5280 C   0  0  0  0  0  0  0  0  0  0  0  0
   40.7360   33.2490   37.6430 H   0  0  0  0  0  0  0  0  0  0  0  0
   40.6130   33.8910   39.2930 H   0  0  0  0  0  0  0  0  0  0  0  0
   42.4000   34.5580   38.2060 C   0  0  0  0  0  0  0  0  0  0  0  0
   43.3150   34.3000   38.7790 H   0  0  0  0  0  0  0  0  0  0  0  0
   42.0940   35.5730   38.5120 H   0  0  0  0  0  0  0  0  0  0  0  0
   42.6740   34.5070   36.8060 N   0  0  0  0  0  0  0  0  0  0  0  0
   43.0660   33.5790   36.5350 H   0  0  0  0  0  0  0  0  0  0  0  0
   43.2830   35.2890   36.4660 H   0  0  0  0  0  0  0  0  0  0  0  0
  1  4  1  0  0  0  0
  2  1  1  0  0  0  0
  3  1  1  0  0  0  0
  4  5  2  0  0  0  0
  4  8  1  0  0  0  0
  5  6  1  0  0  0  0
  7  6  1  0  0  0  0
  7 10  1  0  0  0  0
  8  7  2  0  0  0  0
  9  5  1  0  0  0  0
 12 11  2  6  0  0  0
 12 10  1  0  0  0  0
 12 13  1  0  0  0  0
 13 14  1  0  0  0  0
 15 12  1  0  0  0  0
 16 15  1  0  0  0  0
 17 18  1  0  0  0  0
 17 16  2  0  0  0  0
 19 17  1  0  0  0  0
 20 19  2  0  0  0  0
 20 21  1  0  0  0  0
 21 26  1  0  0  0  0
 22 21  2  0  0  0  0
 22 23  1  0  0  0  0
 23 24  2  0  0  0  0
 24 25  1  0  0  0  0
 26 16  1  0  0  0  0
 26 25  2  0  0  0  0
 27  1  1  0  0  0  0
 27 28  1  0  0  0  0
 29 27  1  0  0  0  0
 30 27  1  0  0  0  0
 30 31  1  0  0  0  0
 31 38  1  0  0  0  0
 32 31  2  0  0  0  0
 32 36  1  0  0  0  0
 33 32  1  0  0  0  0
 34 35  1  0  0  0  0
 34 33  2  0  0  0  0
 35 30  2  0  0  0  0
 37 34  1  0  0  0  0
 39 38  1  0  0  0  0
 39 41  1  0  0  0  0
 40 39  1  0  0  0  0
 42 44  1  0  0  0  0
 42 39  1  0  0  0  0
 42 43  1  0  0  0  0
 45 42  1  0  0  0  0
 46 45  1  0  0  0  0
 47 45  1  0  0  0  0
M  END
>  <minimizedAffinity>
-5.97132397

$$$$

 OpenBabel03252507513D

 47 50  0  0  0  0  0  0  0  0999 V2000
   38.5970   29.0010   38.8530 C   0  0  0  0  0  0  0  0  0  0  0  0
   37.6780   29.0170   39.5040 H   0  0  0  0  0  0  0  0  0  0  0  0
   38.3190   29.5870   37.9430 H   0  0  0  0  0  0  0  0  0  0  0  0
   38.8060   27.5880   38.4800 C   0  0  0  0  0  0  0  0  0  0  0  0
   38.8340   27.2010   37.1110 C   0  0  0  0  0  0  0  0  0  0  0  0
   39.1130   25.3980   37.1740 S   0  0  0  0  0  0  0  0  0  0  0  0
   39.1500   25.4450   39.0810 C   0  0  0  0  0  0  0  0  0  0  0  0
   38.9810   26.5640   39.2520 N   0  0  0  0  0  0  0  0  0  0  0  0
   38.7080   27.8920   36.2340 H   0  0  0  0  0  0  0  0  0  0  0  0
   39.3420   24.3150   39.8620 O   0  0  0  0  0  0  0  0  0  0  0  0
   36.8030   23.6530   39.5090 O   0  0  0  0  0  0  0  0  0  0  0  0
   37.9570   23.5830   40.5220 P   0  0  1  0  0  0  0  0  0  0  0  0
   38.3270   21.9550   40.8060 O   0  0  0  0  0  0  0  0  0  0  0  0
   38.6900   21.5530   39.9740 H   0  0  0  0  0  0  0  0  0  0  0  0
   37.5480   24.3230   41.9790 O   0  0  0  0  0  0  0  0  0  0  0  0
   38.4800   25.1590   42.5810 C   0  0  0  0  0  0  0  0  0  0  0  0
   39.6580   24.7150   43.1440 C   0  0  0  0  0  0  0  0  0  0  0  0
   39.8870   23.6580   43.1250 H   0  0  0  0  0  0  0  0  0  0  0  0
   40.4870   25.6680   43.7070 C   0  0  0  0  0  3  0  0  0  0  0  0
   40.1810   27.0200   43.7240 C   0  0  0  0  0  3  0  0  0  0  0  0
   38.9850   27.4140   43.1450 C   0  0  0  0  0  0  0  0  0  0  0  0
   38.6670   28.7660   43.1560 C   0  0  0  0  0  3  0  0  0  0  0  0
   37.4650   29.1720   42.5740 C   0  0  0  0  0  3  0  0  0  0  0  0
   36.5770   28.2880   41.9890 C   0  0  0  0  0  3  0  0  0  0  0  0
   36.9460   26.9580   42.0080 C   0  0  0  0  0  3  0  0  0  0  0  0
   38.1280   26.5070   42.5720 C   0  0  0  0  0  0  0  0  0  0  0  0
   39.7360   29.6150   39.6000 C   0  0  0  0  0  0  0  0  0  0  0  0
   40.4270   28.7780   39.8870 H   0  0  0  0  0  0  0  0  0  0  0  0
   39.3340   30.0540   40.5360 H   0  0  0  0  0  0  0  0  0  0  0  0
   40.5160   30.5850   38.8180 C   0  0  0  0  0  0  0  0  0  0  0  0
   40.6150   31.8680   39.3200 C   0  0  0  0  0  0  0  0  0  0  0  0
   41.3250   32.8430   38.6570 C   0  0  0  0  0  0  0  0  0  0  0  0
   41.9280   32.4680   37.4690 N   0  0  0  0  0  0  0  0  0  0  0  0
   41.8050   31.1880   37.0080 C   0  0  0  0  0  0  0  0  0  0  0  0
   41.1080   30.2690   37.6780 N   0  0  0  0  0  0  0  0  0  0  0  0
   41.4300   33.8590   39.0100 H   0  0  0  0  0  0  0  0  0  0  0  0
   42.2840   30.9050   36.0720 H   0  0  0  0  0  0  0  0  0  0  0  0
   39.8070   32.2830   40.8660 S   0  0  0  0  0  0  0  0  0  0  0  0
   38.5450   33.5450   40.5800 C   0  0  0  0  0  0  0  0  0  0  0  0
   38.1810   33.8660   41.5790 H   0  0  0  0  0  0  0  0  0  0  0  0
   38.9930   34.4630   40.1180 H   0  0  0  0  0  0  0  0  0  0  0  0
   37.4500   32.9510   39.7280 C   0  0  0  0  0  0  0  0  0  0  0  0
   37.9290   32.3290   38.9450 H   0  0  0  0  0  0  0  0  0  0  0  0
   36.8560   33.7280   39.2140 H   0  0  0  0  0  0  0  0  0  0  0  0
   36.6190   32.1370   40.5550 N   0  0  0  0  0  0  0  0  0  0  0  0
   37.1590   31.3380   40.9550 H   0  0  0  0  0  0  0  0  0  0  0  0
   35.7470   31.8040   40.0800 H   0  0  0  0  0  0  0  0  0  0  0  0
  1  2  1  0  0  0  0
  1 27  1  0  0  0  0
  3  1  1  0  0  0  0
  4  1  1  0  0  0  0
  4  8  1  0  0  0  0
  5  6  1  0  0  0  0
  5  4  2  0  0  0  0
  6  7  1  0  0  0  0
  7  8  2  0  0  0  0
  7 10  1  0  0  0  0
  9  5  1  0  0  0  0
 10 12  1  0  0  0  0
 12 11  2  6  0  0  0
 12 13  1  0  0  0  0
 12 15  1  0  0  0  0
 14 13  1  0  0  0  0
 15 16  1  0  0  0  0
 16 17  1  0  0  0  0
 17 19  2  0  0  0  0
 18 17  1  0  0  0  0
 19 20  1  0  0  0  0
 21 22  1  0  0  0  0
 21 20  2  0  0  0  0
 23 22  2  0  0  0  0
 24 25  2  0  0  0  0
 24 23  1  0  0  0  0
 25 26  1  0  0  0  0
 26 16  2  0  0  0  0
 26 21  1  0  0  0  0
 27 28  1  0  0  0  0
 27 29  1  0  0  0  0
 30 31  1  0  0  0  0
 30 27  1  0  0  0  0
 31 38  1  0  0  0  0
 32 36  1  0  0  0  0
 32 31  2  0  0  0  0
 33 32  1  0  0  0  0
 34 33  2  0  0  0  0
 34 35  1  0  0  0  0
 35 30  2  0  0  0  0
 37 34  1  0  0  0  0
 39 38  1  0  0  0  0
 39 40  1  0  0  0  0
 41 39  1  0  0  0  0
 42 45  1  0  0  0  0
 42 39  1  0  0  0  0
 43 42  1  0  0  0  0
 44 42  1  0  0  0  0
 45 46  1  0  0  0  0
 47 45  1  0  0  0  0
M  END
>  <minimizedAffinity>
-5.86719418

$$$$

 OpenBabel03252507513D

 47 50  0  0  0  0  0  0  0  0999 V2000
   40.8500   31.3440   38.2560 C   0  0  0  0  0  0  0  0  0  0  0  0
   40.4530   30.4580   37.6860 H   0  0  0  0  0  0  0  0  0  0  0  0
   41.5630   30.9140   39.0020 H   0  0  0  0  0  0  0  0  0  0  0  0
   39.6920   31.9230   38.9640 C   0  0  0  0  0  0  0  0  0  0  0  0
   39.7250   33.2720   39.4190 C   0  0  0  0  0  0  0  0  0  0  0  0
   38.0980   33.5050   40.2120 S   0  0  0  0  0  0  0  0  0  0  0  0
   37.6110   31.7070   39.8000 C   0  0  0  0  0  0  0  0  0  0  0  0
   38.5630   31.3650   39.2650 N   0  0  0  0  0  0  0  0  0  0  0  0
   40.5860   33.9830   39.2890 H   0  0  0  0  0  0  0  0  0  0  0  0
   36.3860   31.1570   40.1450 O   0  0  0  0  0  0  0  0  0  0  0  0
   34.9650   28.9980   40.7210 O   0  0  0  0  0  0  0  0  0  0  0  0
   36.3920   29.5680   40.7510 P   0  0  1  0  0  0  0  0  0  0  0  0
   37.3670   28.6350   39.7290 O   0  0  0  0  0  0  0  0  0  0  0  0
   37.0620   28.7530   38.7910 H   0  0  0  0  0  0  0  0  0  0  0  0
   37.0360   29.5450   42.3080 O   0  0  0  0  0  0  0  0  0  0  0  0
   37.9940   28.5860   42.6140 C   0  0  0  0  0  0  0  0  0  0  0  0
   37.7070   27.2520   42.8140 C   0  0  0  0  0  0  0  0  0  0  0  0
   36.6830   26.9140   42.7300 H   0  0  0  0  0  0  0  0  0  0  0  0
   38.7670   26.4170   43.1120 C   0  0  0  0  0  3  0  0  0  0  0  0
   40.0750   26.8630   43.2160 C   0  0  0  0  0  3  0  0  0  0  0  0
   40.3100   28.2140   43.0070 C   0  0  0  0  0  0  0  0  0  0  0  0
   41.6160   28.6740   43.1080 C   0  0  0  0  0  3  0  0  0  0  0  0
   41.8620   30.0320   42.8980 C   0  0  0  0  0  3  0  0  0  0  0  0
   40.8620   30.9380   42.5950 C   0  0  0  0  0  3  0  0  0  0  0  0
   39.5850   30.4230   42.5080 C   0  0  0  0  0  3  0  0  0  0  0  0
   39.2910   29.0840   42.7070 C   0  0  0  0  0  0  0  0  0  0  0  0
   41.5180   32.2790   37.3030 C   0  0  0  0  0  0  0  0  0  0  0  0
   41.5420   33.2870   37.7970 H   0  0  0  0  0  0  0  0  0  0  0  0
   40.8790   32.3630   36.4010 H   0  0  0  0  0  0  0  0  0  0  0  0
   42.9040   31.9150   36.9730 C   0  0  0  0  0  0  0  0  0  0  0  0
   43.9060   32.7130   37.4890 C   0  0  0  0  0  0  0  0  0  0  0  0
   45.2340   32.4500   37.2340 C   0  0  0  0  0  0  0  0  0  0  0  0
   45.5030   31.3490   36.4390 N   0  0  0  0  0  0  0  0  0  0  0  0
   44.4810   30.5860   35.9490 C   0  0  0  0  0  0  0  0  0  0  0  0
   43.2060   30.8730   36.2170 N   0  0  0  0  0  0  0  0  0  0  0  0
   46.0510   33.0450   37.6150 H   0  0  0  0  0  0  0  0  0  0  0  0
   44.7060   29.7240   35.3250 H   0  0  0  0  0  0  0  0  0  0  0  0
   43.4830   34.1240   38.5120 S   0  0  0  0  0  0  0  0  0  0  0  0
   44.1440   33.8930   40.1790 C   0  0  0  0  0  0  0  0  0  0  0  0
   45.0580   33.2700   40.0780 H   0  0  0  0  0  0  0  0  0  0  0  0
   44.4940   34.8660   40.6110 H   0  0  0  0  0  0  0  0  0  0  0  0
   43.0870   33.2350   41.0330 C   0  0  0  0  0  0  0  0  0  0  0  0
   43.4130   32.1930   41.2320 H   0  0  0  0  0  0  0  0  0  0  0  0
   42.1120   33.1830   40.5200 H   0  0  0  0  0  0  0  0  0  0  0  0
   42.9810   33.9530   42.2620 N   0  0  0  0  0  0  0  0  0  0  0  0
   43.8750   33.9100   42.7980 H   0  0  0  0  0  0  0  0  0  0  0  0
   42.1690   33.6580   42.8540 H   0  0  0  0  0  0  0  0  0  0  0  0
  1  4  1  0  0  0  0
  1  3  1  0  0  0  0
  2  1  1  0  0  0  0
  4  8  1  0  0  0  0
  4  5  2  0  0  0  0
  5  6  1  0  0  0  0
  7 10  1  0  0  0  0
  7  6  1  0  0  0  0
  8  7  2  0  0  0  0
  9  5  1  0  0  0  0
 10 12  1  0  0  0  0
 12 11  2  1  0  0  0
 12 15  1  0  0  0  0
 13 12  1  0  0  0  0
 14 13  1  0  0  0  0
 15 16  1  0  0  0  0
 16 26  2  0  0  0  0
 16 17  1  0  0  0  0
 17 19  2  0  0  0  0
 18 17  1  0  0  0  0
 19 20  1  0  0  0  0
 21 22  1  0  0  0  0
 21 20  2  0  0  0  0
 23 22  2  0  0  0  0
 24 23  1  0  0  0  0
 25 24  2  0  0  0  0
 25 26  1  0  0  0  0
 26 21  1  0  0  0  0
 27 28  1  0  0  0  0
 27  1  1  0  0  0  0
 29 27  1  0  0  0  0
 30 27  1  0  0  0  0
 30 31  1  0  0  0  0
 31 38  1  0  0  0  0
 32 31  2  0  0  0  0
 32 36  1  0  0  0  0
 33 32  1  0  0  0  0
 34 35  1  0  0  0  0
 34 33  2  0  0  0  0
 35 30  2  0  0  0  0
 37 34  1  0  0  0  0
 38 39  1  0  0  0  0
 39 41  1  0  0  0  0
 39 42  1  0  0  0  0
 40 39  1  0  0  0  0
 42 43  1  0  0  0  0
 42 45  1  0  0  0  0
 44 42  1  0  0  0  0
 45 46  1  0  0  0  0
 45 47  1  0  0  0  0
M  END
>  <minimizedAffinity>
-5.85575962

$$$$

 OpenBabel03252507513D

 47 50  0  0  0  0  0  0  0  0999 V2000
   35.7400   29.2170   39.0180 C   0  0  0  0  0  0  0  0  0  0  0  0
   35.1390   28.4410   39.5700 H   0  0  0  0  0  0  0  0  0  0  0  0
   35.2090   30.1830   39.2060 H   0  0  0  0  0  0  0  0  0  0  0  0
   35.6340   28.8710   37.5870 C   0  0  0  0  0  0  0  0  0  0  0  0
   36.7620   28.3630   36.8830 C   0  0  0  0  0  0  0  0  0  0  0  0
   36.1340   28.0980   35.1890 S   0  0  0  0  0  0  0  0  0  0  0  0
   34.4080   28.7270   35.7030 C   0  0  0  0  0  0  0  0  0  0  0  0
   34.6060   28.9610   36.8060 N   0  0  0  0  0  0  0  0  0  0  0  0
   37.7800   28.1870   37.3220 H   0  0  0  0  0  0  0  0  0  0  0  0
   33.3380   28.8030   34.8250 O   0  0  0  0  0  0  0  0  0  0  0  0
   32.2880   26.5440   33.9250 O   0  0  0  0  0  0  0  0  0  0  0  0
   32.1120   27.6360   34.9920 P   0  0  1  0  0  0  0  0  0  0  0  0
   32.2850   26.9290   36.5200 O   0  0  0  0  0  0  0  0  0  0  0  0
   33.2200   26.6120   36.6290 H   0  0  0  0  0  0  0  0  0  0  0  0
   30.5980   28.3680   34.8860 O   0  0  0  0  0  0  0  0  0  0  0  0
   30.5040   29.7330   35.1230 C   0  0  0  0  0  0  0  0  0  0  0  0
   30.7350   30.3150   36.3530 C   0  0  0  0  0  0  0  0  0  0  0  0
   31.0070   29.6880   37.1910 H   0  0  0  0  0  0  0  0  0  0  0  0
   30.6030   31.6880   36.4350 C   0  0  0  0  0  3  0  0  0  0  0  0
   30.2540   32.4810   35.3520 C   0  0  0  0  0  3  0  0  0  0  0  0
   30.0320   31.8470   34.1390 C   0  0  0  0  0  0  0  0  0  0  0  0
   29.6820   32.6290   33.0460 C   0  0  0  0  0  3  0  0  0  0  0  0
   29.4580   31.9990   31.8210 C   0  0  0  0  0  3  0  0  0  0  0  0
   29.5670   30.6310   31.6490 C   0  0  0  0  0  3  0  0  0  0  0  0
   29.9180   29.9060   32.7690 C   0  0  0  0  0  3  0  0  0  0  0  0
   30.1510   30.4850   34.0050 C   0  0  0  0  0  0  0  0  0  0  0  0
   37.1360   29.2240   39.5470 C   0  0  0  0  0  0  0  0  0  0  0  0
   37.5420   30.2590   39.3870 H   0  0  0  0  0  0  0  0  0  0  0  0
   37.7400   28.5280   38.9290 H   0  0  0  0  0  0  0  0  0  0  0  0
   37.2380   28.9250   40.9830 C   0  0  0  0  0  0  0  0  0  0  0  0
   38.1700   29.6380   41.7120 C   0  0  0  0  0  0  0  0  0  0  0  0
   38.3360   29.4270   43.0630 C   0  0  0  0  0  0  0  0  0  0  0  0
   37.5220   28.4690   43.6420 N   0  0  0  0  0  0  0  0  0  0  0  0
   36.6130   27.7870   42.8850 C   0  0  0  0  0  0  0  0  0  0  0  0
   36.4810   28.0180   41.5780 N   0  0  0  0  0  0  0  0  0  0  0  0
   39.0510   29.9600   43.6730 H   0  0  0  0  0  0  0  0  0  0  0  0
   35.9800   27.0350   43.3520 H   0  0  0  0  0  0  0  0  0  0  0  0
   39.1900   30.8650   40.8940 S   0  0  0  0  0  0  0  0  0  0  0  0
   38.2660   32.4080   40.7110 C   0  0  0  0  0  0  0  0  0  0  0  0
   37.6550   32.3080   39.7890 H   0  0  0  0  0  0  0  0  0  0  0  0
   37.5280   32.5350   41.5450 H   0  0  0  0  0  0  0  0  0  0  0  0
   39.2460   33.5540   40.6340 C   0  0  0  0  0  0  0  0  0  0  0  0
   39.2950   33.8880   39.5780 H   0  0  0  0  0  0  0  0  0  0  0  0
   40.2650   33.2500   40.9320 H   0  0  0  0  0  0  0  0  0  0  0  0
   38.7690   34.6180   41.4580 N   0  0  0  0  0  0  0  0  0  0  0  0
   37.8530   34.9770   41.1110 H   0  0  0  0  0  0  0  0  0  0  0  0
   39.4580   35.3960   41.5840 H   0  0  0  0  0  0  0  0  0  0  0  0
  1  3  1  0  0  0  0
  1 27  1  0  0  0  0
  1  2  1  0  0  0  0
  4  1  1  0  0  0  0
  5  9  1  0  0  0  0
  5  4  2  0  0  0  0
  6  7  1  0  0  0  0
  6  5  1  0  0  0  0
  7  8  2  0  0  0  0
  8  4  1  0  0  0  0
 10 12  1  0  0  0  0
 10  7  1  0  0  0  0
 12 11  2  6  0  0  0
 12 13  1  0  0  0  0
 13 14  1  0  0  0  0
 15 12  1  0  0  0  0
 15 16  1  0  0  0  0
 16 17  1  0  0  0  0
 17 19  2  0  0  0  0
 17 18  1  0  0  0  0
 20 19  1  0  0  0  0
 21 20  2  0  0  0  0
 22 21  1  0  0  0  0
 23 22  2  0  0  0  0
 24 23  1  0  0  0  0
 24 25  2  0  0  0  0
 25 26  1  0  0  0  0
 26 21  1  0  0  0  0
 26 16  2  0  0  0  0
 27 30  1  0  0  0  0
 28 27  1  0  0  0  0
 29 27  1  0  0  0  0
 30 35  2  0  0  0  0
 30 31  1  0  0  0  0
 31 32  2  0  0  0  0
 32 33  1  0  0  0  0
 32 36  1  0  0  0  0
 34 37  1  0  0  0  0
 34 33  2  0  0  0  0
 35 34  1  0  0  0  0
 38 31  1  0  0  0  0
 39 38  1  0  0  0  0
 39 41  1  0  0  0  0
 40 39  1  0  0  0  0
 42 39  1  0  0  0  0
 42 44  1  0  0  0  0
 42 45  1  0  0  0  0
 43 42  1  0  0  0  0
 45 47  1  0  0  0  0
 46 45  1  0  0  0  0
M  END
>  <minimizedAffinity>
-5.82829762

$$$$

 OpenBabel03252507513D

 47 50  0  0  0  0  0  0  0  0999 V2000
   40.5920   29.8170   41.1930 C   0  0  0  0  0  0  0  0  0  0  0  0
   41.4710   29.2450   41.6030 H   0  0  0  0  0  0  0  0  0  0  0  0
   39.7000   29.3950   41.7190 H   0  0  0  0  0  0  0  0  0  0  0  0
   40.5190   29.4770   39.7590 C   0  0  0  0  0  0  0  0  0  0  0  0
   41.6620   29.6280   38.9230 C   0  0  0  0  0  0  0  0  0  0  0  0
   41.0750   29.0910   37.2810 S   0  0  0  0  0  0  0  0  0  0  0  0
   39.3400   28.7370   37.9880 C   0  0  0  0  0  0  0  0  0  0  0  0
   39.5110   29.0310   39.0810 N   0  0  0  0  0  0  0  0  0  0  0  0
   42.6690   29.9980   39.2570 H   0  0  0  0  0  0  0  0  0  0  0  0
   38.2910   28.2580   37.2180 O   0  0  0  0  0  0  0  0  0  0  0  0
   37.0670   30.6040   37.2970 O   0  0  0  0  0  0  0  0  0  0  0  0
   36.8110   29.0890   37.3170 P   0  0  1  0  0  0  0  0  0  0  0  0
   35.9020   28.6780   35.9490 O   0  0  0  0  0  0  0  0  0  0  0  0
   36.4480   28.8360   35.1350 H   0  0  0  0  0  0  0  0  0  0  0  0
   35.9750   28.6200   38.7020 O   0  0  0  0  0  0  0  0  0  0  0  0
   36.2530   27.3760   39.2540 C   0  0  0  0  0  0  0  0  0  0  0  0
   36.1180   26.1860   38.5690 C   0  0  0  0  0  0  0  0  0  0  0  0
   35.7780   26.2030   37.5430 H   0  0  0  0  0  0  0  0  0  0  0  0
   36.4330   25.0260   39.2520 C   0  0  0  0  0  3  0  0  0  0  0  0
   36.8690   25.0180   40.5690 C   0  0  0  0  0  3  0  0  0  0  0  0
   36.9870   26.2410   41.2120 C   0  0  0  0  0  0  0  0  0  0  0  0
   37.4220   26.2480   42.5300 C   0  0  0  0  0  3  0  0  0  0  0  0
   37.5450   27.4740   43.1850 C   0  0  0  0  0  3  0  0  0  0  0  0
   37.2520   28.6820   42.5790 C   0  0  0  0  0  3  0  0  0  0  0  0
   36.8240   28.6130   41.2680 C   0  0  0  0  0  3  0  0  0  0  0  0
   36.6870   27.4210   40.5770 C   0  0  0  0  0  0  0  0  0  0  0  0
   40.7810   31.2720   41.4710 C   0  0  0  0  0  0  0  0  0  0  0  0
   41.7360   31.5800   40.9670 H   0  0  0  0  0  0  0  0  0  0  0  0
   40.9240   31.3950   42.5640 H   0  0  0  0  0  0  0  0  0  0  0  0
   39.7070   32.1300   40.9480 C   0  0  0  0  0  0  0  0  0  0  0  0
   40.0670   33.3820   40.4880 C   0  0  0  0  0  0  0  0  0  0  0  0
   39.1300   34.2540   39.9800 C   0  0  0  0  0  0  0  0  0  0  0  0
   37.8200   33.8080   39.9580 N   0  0  0  0  0  0  0  0  0  0  0  0
   37.5080   32.5620   40.4220 C   0  0  0  0  0  0  0  0  0  0  0  0
   38.4430   31.7440   40.9080 N   0  0  0  0  0  0  0  0  0  0  0  0
   39.3640   35.2420   39.6100 H   0  0  0  0  0  0  0  0  0  0  0  0
   36.4740   32.2230   40.3990 H   0  0  0  0  0  0  0  0  0  0  0  0
   41.7850   33.8930   40.5490 S   0  0  0  0  0  0  0  0  0  0  0  0
   42.5840   33.5470   38.9650 C   0  0  0  0  0  0  0  0  0  0  0  0
   43.6640   33.4010   39.1760 H   0  0  0  0  0  0  0  0  0  0  0  0
   42.2300   32.5720   38.5400 H   0  0  0  0  0  0  0  0  0  0  0  0
   42.3290   34.7050   38.0300 C   0  0  0  0  0  0  0  0  0  0  0  0
   42.9130   35.5730   38.3980 H   0  0  0  0  0  0  0  0  0  0  0  0
   41.2660   35.0030   38.0190 H   0  0  0  0  0  0  0  0  0  0  0  0
   42.7710   34.3410   36.7220 N   0  0  0  0  0  0  0  0  0  0  0  0
   43.7990   34.1630   36.7120 H   0  0  0  0  0  0  0  0  0  0  0  0
   42.4970   35.0260   35.9790 H   0  0  0  0  0  0  0  0  0  0  0  0
  1 27  1  0  0  0  0
  1  2  1  0  0  0  0
  1  3  1  0  0  0  0
  4  1  1  0  0  0  0
  5  9  1  0  0  0  0
  5  4  2  0  0  0  0
  6  7  1  0  0  0  0
  6  5  1  0  0  0  0
  7  8  2  0  0  0  0
  8  4  1  0  0  0  0
 10 12  1  0  0  0  0
 10  7  1  0  0  0  0
 12 11  2  1  0  0  0
 12 15  1  0  0  0  0
 13 12  1  0  0  0  0
 14 13  1  0  0  0  0
 15 16  1  0  0  0  0
 16 26  1  0  0  0  0
 17 19  1  0  0  0  0
 17 16  2  0  0  0  0
 18 17  1  0  0  0  0
 19 20  2  0  0  0  0
 20 21  1  0  0  0  0
 21 22  1  0  0  0  0
 22 23  2  0  0  0  0
 24 23  1  0  0  0  0
 25 24  2  0  0  0  0
 26 21  2  0  0  0  0
 26 25  1  0  0  0  0
 27 29  1  0  0  0  0
 28 27  1  0  0  0  0
 30 27  1  0  0  0  0
 31 38  1  0  0  0  0
 31 30  2  0  0  0  0
 32 31  1  0  0  0  0
 33 32  2  0  0  0  0
 33 34  1  0  0  0  0
 34 35  2  0  0  0  0
 35 30  1  0  0  0  0
 36 32  1  0  0  0  0
 37 34  1  0  0  0  0
 39 40  1  0  0  0  0
 39 38  1  0  0  0  0
 41 39  1  0  0  0  0
 42 43  1  0  0  0  0
 42 39  1  0  0  0  0
 44 42  1  0  0  0  0
 45 42  1  0  0  0  0
 46 45  1  0  0  0  0
 47 45  1  0  0  0  0
M  END
>  <minimizedAffinity>
-5.76585817

$$$$

 OpenBabel03252507513D

 47 50  0  0  0  0  0  0  0  0999 V2000
   40.0750   31.3890   40.1080 C   0  0  0  0  0  0  0  0  0  0  0  0
   40.0960   31.4550   38.9840 H   0  0  0  0  0  0  0  0  0  0  0  0
   40.8380   30.6140   40.3670 H   0  0  0  0  0  0  0  0  0  0  0  0
   38.7320   30.8890   40.4600 C   0  0  0  0  0  0  0  0  0  0  0  0
   37.6260   31.7830   40.5310 C   0  0  0  0  0  0  0  0  0  0  0  0
   36.2260   30.7070   40.9930 S   0  0  0  0  0  0  0  0  0  0  0  0
   37.3720   29.1830   41.0200 C   0  0  0  0  0  0  0  0  0  0  0  0
   38.3640   29.6800   40.7390 N   0  0  0  0  0  0  0  0  0  0  0  0
   37.6670   32.8890   40.3370 H   0  0  0  0  0  0  0  0  0  0  0  0
   36.9260   27.9060   41.3250 O   0  0  0  0  0  0  0  0  0  0  0  0
   38.4490   28.1210   43.4800 O   0  0  0  0  0  0  0  0  0  0  0  0
   37.3050   27.2990   42.8680 P   0  0  1  0  0  0  0  0  0  0  0  0
   35.9300   27.4800   43.8390 O   0  0  0  0  0  0  0  0  0  0  0  0
   35.6220   28.4230   43.7950 H   0  0  0  0  0  0  0  0  0  0  0  0
   37.7010   25.6640   42.7650 O   0  0  0  0  0  0  0  0  0  0  0  0
   38.4810   25.2380   41.6980 C   0  0  0  0  0  0  0  0  0  0  0  0
   39.8210   25.5360   41.5600 C   0  0  0  0  0  0  0  0  0  0  0  0
   40.3090   26.1360   42.3160 H   0  0  0  0  0  0  0  0  0  0  0  0
   40.4660   25.0410   40.4420 C   0  0  0  0  0  3  0  0  0  0  0  0
   39.8280   24.2730   39.4790 C   0  0  0  0  0  3  0  0  0  0  0  0
   38.4810   24.0020   39.6650 C   0  0  0  0  0  0  0  0  0  0  0  0
   37.8300   23.2340   38.7090 C   0  0  0  0  0  3  0  0  0  0  0  0
   36.4740   22.9550   38.8880 C   0  0  0  0  0  3  0  0  0  0  0  0
   35.7510   23.4110   39.9750 C   0  0  0  0  0  3  0  0  0  0  0  0
   36.4510   24.1680   40.8930 C   0  0  0  0  0  3  0  0  0  0  0  0
   37.7960   24.4710   40.7590 C   0  0  0  0  0  0  0  0  0  0  0  0
   40.4040   32.7270   40.6830 C   0  0  0  0  0  0  0  0  0  0  0  0
   39.7990   32.8370   41.6220 H   0  0  0  0  0  0  0  0  0  0  0  0
   40.0580   33.5010   39.9690 H   0  0  0  0  0  0  0  0  0  0  0  0
   41.8190   32.8950   41.0470 C   0  0  0  0  0  0  0  0  0  0  0  0
   42.5730   33.7550   40.2720 C   0  0  0  0  0  0  0  0  0  0  0  0
   43.9060   33.9760   40.5370 C   0  0  0  0  0  0  0  0  0  0  0  0
   44.4420   33.2930   41.6140 N   0  0  0  0  0  0  0  0  0  0  0  0
   43.6610   32.4510   42.3550 C   0  0  0  0  0  0  0  0  0  0  0  0
   42.3720   32.2620   42.0680 N   0  0  0  0  0  0  0  0  0  0  0  0
   44.5340   34.6380   39.9590 H   0  0  0  0  0  0  0  0  0  0  0  0
   44.0950   31.9200   43.2000 H   0  0  0  0  0  0  0  0  0  0  0  0
   41.8110   34.6070   38.8900 S   0  0  0  0  0  0  0  0  0  0  0  0
   42.4420   33.9400   37.3330 C   0  0  0  0  0  0  0  0  0  0  0  0
   42.0840   34.6140   36.5270 H   0  0  0  0  0  0  0  0  0  0  0  0
   43.5610   34.0000   37.2950 H   0  0  0  0  0  0  0  0  0  0  0  0
   41.9390   32.5260   37.1720 C   0  0  0  0  0  0  0  0  0  0  0  0
   42.0880   32.0000   38.1370 H   0  0  0  0  0  0  0  0  0  0  0  0
   42.5020   31.9700   36.4030 H   0  0  0  0  0  0  0  0  0  0  0  0
   40.5470   32.5710   36.8540 N   0  0  0  0  0  0  0  0  0  0  0  0
   40.0010   33.0010   37.6320 H   0  0  0  0  0  0  0  0  0  0  0  0
   40.1480   31.6430   36.5780 H   0  0  0  0  0  0  0  0  0  0  0  0
  1  3  1  0  0  0  0
  1  4  1  0  0  0  0
  1 27  1  0  0  0  0
  2  1  1  0  0  0  0
  4  5  2  0  0  0  0
  4  8  1  0  0  0  0
  5  6  1  0  0  0  0
  6  7  1  0  0  0  0
  7 10  1  0  0  0  0
  8  7  2  0  0  0  0
  9  5  1  0  0  0  0
 10 12  1  0  0  0  0
 12 11  2  1  0  0  0
 12 13  1  0  0  0  0
 14 13  1  0  0  0  0
 15 12  1  0  0  0  0
 16 15  1  0  0  0  0
 17 16  1  0  0  0  0
 17 18  1  0  0  0  0
 19 17  2  0  0  0  0
 20 21  2  0  0  0  0
 20 19  1  0  0  0  0
 21 26  1  0  0  0  0
 22 23  2  0  0  0  0
 22 21  1  0  0  0  0
 23 24  1  0  0  0  0
 24 25  2  0  0  0  0
 26 25  1  0  0  0  0
 26 16  2  0  0  0  0
 27 30  1  0  0  0  0
 27 28  1  0  0  0  0
 29 27  1  0  0  0  0
 30 35  1  0  0  0  0
 31 32  1  0  0  0  0
 31 30  2  0  0  0  0
 32 33  2  0  0  0  0
 33 34  1  0  0  0  0
 34 37  1  0  0  0  0
 35 34  2  0  0  0  0
 36 32  1  0  0  0  0
 38 31  1  0  0  0  0
 39 38  1  0  0  0  0
 40 39  1  0  0  0  0
 41 39  1  0  0  0  0
 42 39  1  0  0  0  0
 42 43  1  0  0  0  0
 44 42  1  0  0  0  0
 45 42  1  0  0  0  0
 45 46  1  0  0  0  0
 47 45  1  0  0  0  0
M  END
>  <minimizedAffinity>
-5.75171137

$$$$
