
 OpenBabel03252508003D

 31 34  0  0  1  0  0  0  0  0999 V2000
   47.4110   34.4620   43.0700 C   0  0  0  0  0  0  0  0  0  0  0  0
   46.2300   35.1950   42.7460 C   0  0  0  0  0  0  0  0  0  0  0  0
   45.0950   34.8720   43.4830 C   0  0  0  0  0  0  0  0  0  0  0  0
   45.1750   33.9120   44.4340 N   0  0  0  0  0  0  0  0  0  0  0  0
   46.3510   33.2460   44.6910 C   0  0  0  0  0  0  0  0  0  0  0  0
   47.4610   33.5050   44.0280 N   0  0  0  0  0  0  0  0  0  0  0  0
   46.2630   35.9440   41.9690 H   0  0  0  0  0  0  0  0  0  0  0  0
   44.1750   35.4010   43.2740 H   0  0  0  0  0  0  0  0  0  0  0  0
   46.3560   32.2120   45.7670 C   0  0  1  0  0  0  0  0  0  0  0  0
   47.0390   32.5220   47.0790 C   0  0  0  0  0  0  0  0  0  0  0  0
   45.5400   32.5590   46.9500 C   0  0  1  0  0  0  0  0  0  0  0  0
   46.3560   31.1600   45.4260 H   0  0  0  0  0  0  0  0  0  0  0  0
   47.6280   33.4480   47.0730 H   0  0  0  0  0  0  0  0  0  0  0  0
   47.4560   31.6370   47.5950 H   0  0  0  0  0  0  0  0  0  0  0  0
   44.9750   31.7850   47.5240 H   0  0  0  0  0  0  0  0  0  0  0  0
   45.0090   33.8950   47.0990 N   0  0  0  0  0  0  0  0  0  0  0  0
   44.0620   34.0570   46.7860 H   0  0  0  0  0  0  0  0  0  0  0  0
   45.6740   34.6510   47.1880 H   0  0  0  0  0  0  0  0  0  0  0  0
   48.5870   34.8170   42.3010 C   0  0  0  0  0  0  0  0  0  0  0  0
   49.4340   35.6960   42.6900 O   0  0  0  0  0  0  0  0  0  0  0  0
   48.6180   34.0290   41.0730 C   0  0  0  0  0  0  0  0  0  0  0  0
   47.8400   34.3380   39.9700 C   0  0  0  0  0  0  0  0  0  0  0  0
   47.1830   35.2060   40.0220 H   0  0  0  0  0  0  0  0  0  0  0  0
   47.8280   33.6230   38.7900 C   0  0  0  0  0  3  0  0  0  0  0  0
   48.6360   32.5250   38.6770 C   0  0  0  0  0  3  0  0  0  0  0  0
   49.4400   32.1590   39.7370 C   0  0  0  0  0  0  0  0  0  0  0  0
   50.2760   31.0440   39.6490 C   0  0  0  0  0  3  0  0  0  0  0  0
   51.0840   30.6580   40.6850 C   0  0  0  0  0  3  0  0  0  0  0  0
   51.0730   31.4030   41.8670 C   0  0  0  0  0  3  0  0  0  0  0  0
   50.2310   32.5000   41.9120 C   0  0  0  0  0  3  0  0  0  0  0  0
   49.4070   32.9130   40.8890 C   0  0  0  0  0  0  0  0  0  0  0  0
  1  6  1  0  0  0  0
  2  1  2  0  0  0  0
  2  3  1  0  0  0  0
  3  4  2  0  0  0  0
  4  5  1  0  0  0  0
  5  9  1  0  0  0  0
  6  5  2  0  0  0  0
  7  2  1  0  0  0  0
  8  3  1  0  0  0  0
  9 12  1  6  0  0  0
  9 11  1  0  0  0  0
  9 10  1  0  0  0  0
 10 14  1  0  0  0  0
 11 10  1  0  0  0  0
 11 16  1  0  0  0  0
 11 15  1  1  0  0  0
 13 10  1  0  0  0  0
 16 18  1  0  0  0  0
 17 16  1  0  0  0  0
 19 20  2  0  0  0  0
 19  1  1  0  0  0  0
 21 19  1  0  0  0  0
 22 23  1  0  0  0  0
 22 21  2  0  0  0  0
 24 22  1  0  0  0  0
 25 24  2  0  0  0  0
 25 26  1  0  0  0  0
 26 31  1  0  0  0  0
 27 26  2  0  0  0  0
 27 28  1  0  0  0  0
 28 29  2  0  0  0  0
 29 30  1  0  0  0  0
 31 21  1  0  0  0  0
 31 30  2  0  0  0  0
M  END
>  <minimizedAffinity>
-5.66916275

>  <minimizedRMSD>
3.51553655

$$$$
