
 OpenBabel03252505493D

 24 26  0  0  0  0  0  0  0  0999 V2000
   44.6200   35.3410   45.1700 C   0  0  0  0  0  0  0  0  0  0  0  0
   45.3450   35.0990   44.0120 C   0  0  0  0  0  0  0  0  0  0  0  0
   46.2160   34.0180   44.0270 C   0  0  0  0  0  0  0  0  0  0  0  0
   46.3110   33.2760   45.1380 N   0  0  0  0  0  0  0  0  0  0  0  0
   45.6060   33.5200   46.2500 C   0  0  0  0  0  0  0  0  0  0  0  0
   44.7510   34.5590   46.2760 N   0  0  0  0  0  0  0  0  0  0  0  0
   43.9250   36.1690   45.2230 H   0  0  0  0  0  0  0  0  0  0  0  0
   46.7600   33.8490   43.1320 H   0  0  0  0  0  0  0  0  0  0  0  0
   45.1050   36.0290   42.8720 C   0  0  0  0  0  0  0  0  0  0  0  0
   45.2350   37.2990   43.3540 F   0  0  0  0  0  0  0  0  0  0  0  0
   43.8040   35.8120   42.4360 F   0  0  0  0  0  0  0  0  0  0  0  0
   46.0090   35.6950   41.8730 F   0  0  0  0  0  0  0  0  0  0  0  0
   45.6740   32.7800   47.4150 O   0  0  0  0  0  0  0  0  0  0  0  0
   46.6570   31.9310   47.7970 C   0  0  0  0  0  0  0  0  0  0  0  0
   47.8770   32.1180   48.4080 C   0  0  0  0  0  0  0  0  0  0  0  0
   48.0910   33.1530   48.6270 H   0  0  0  0  0  0  0  0  0  0  0  0
   48.7580   31.1070   48.7230 C   0  0  0  0  0  0  0  0  0  0  0  0
   48.4370   29.8000   48.4220 C   0  0  0  0  0  0  0  0  0  0  0  0
   47.2200   29.5610   47.8060 C   0  0  0  0  0  0  0  0  0  0  0  0
   46.9720   28.2380   47.5390 C   0  0  0  0  0  0  0  0  0  0  0  0
   45.7840   27.9010   46.9260 C   0  0  0  0  0  0  0  0  0  0  0  0
   44.8760   28.8840   46.5950 C   0  0  0  0  0  0  0  0  0  0  0  0
   45.1750   30.1960   46.8860 C   0  0  0  0  0  0  0  0  0  0  0  0
   46.3390   30.6040   47.4950 C   0  0  0  0  0  0  0  0  0  0  0  0
  1  7  1  0  0  0  0
  1  6  1  0  0  0  0
  2  3  1  0  0  0  0
  2  1  2  0  0  0  0
  3  4  2  0  0  0  0
  4  5  1  0  0  0  0
  5  6  2  0  0  0  0
  5 13  1  0  0  0  0
  8  3  1  0  0  0  0
  9 10  1  0  0  0  0
  9  2  1  0  0  0  0
 11  9  1  0  0  0  0
 12  9  1  0  0  0  0
 13 14  1  0  0  0  0
 14 15  1  0  0  0  0
 15 16  1  0  0  0  0
 15 17  2  0  0  0  0
 18 17  1  0  0  0  0
 19 18  2  0  0  0  0
 20 19  1  0  0  0  0
 21 20  2  0  0  0  0
 22 23  2  0  0  0  0
 22 21  1  0  0  0  0
 23 24  1  0  0  0  0
 24 14  2  0  0  0  0
 24 19  1  0  0  0  0
M  END
>  <minimizedAffinity>
-5.58488131

>  <minimizedRMSD>
1.35010803

$$$$
