
 OpenBabel03242512353D

 22 24  0  0  0  0  0  0  0  0999 V2000
   36.2430   29.6670   40.4800 C   0  0  0  0  0  0  0  0  0  0  0  0
   35.0240   29.6870   40.0990 O   0  0  0  0  0  0  0  0  0  0  0  0
   36.8260   28.7470   41.4560 C   0  0  0  0  0  0  0  0  0  0  0  0
   37.3220   29.1550   42.6930 C   0  0  0  0  0  0  0  0  0  0  0  0
   37.2690   30.2040   42.9520 H   0  0  0  0  0  0  0  0  0  0  0  0
   37.8820   28.3180   43.6250 C   0  0  0  0  0  3  0  0  0  0  0  0
   37.9710   26.9760   43.3390 C   0  0  0  0  0  3  0  0  0  0  0  0
   37.5050   26.4970   42.1410 C   0  0  0  0  0  0  0  0  0  0  0  0
   37.6030   25.1460   41.8780 C   0  0  0  0  0  3  0  0  0  0  0  0
   37.1410   24.6330   40.6810 C   0  0  0  0  0  3  0  0  0  0  0  0
   36.5800   25.4950   39.7590 C   0  0  0  0  0  3  0  0  0  0  0  0
   36.5030   26.8380   40.0670 C   0  0  0  0  0  3  0  0  0  0  0  0
   36.9520   27.3890   41.2460 C   0  0  0  0  0  0  0  0  0  0  0  0
   37.2870   30.5480   40.0220 C   0  0  0  0  0  0  0  0  0  0  0  0
   37.0180   31.8910   40.2670 C   0  0  0  0  0  0  0  0  0  0  0  0
   37.9840   32.8350   39.8580 C   0  0  0  0  0  0  0  0  0  0  0  0
   39.1160   32.3460   39.2490 N   0  0  0  0  0  0  0  0  0  0  0  0
   39.3070   31.0340   39.0440 C   0  0  0  0  0  0  0  0  0  0  0  0
   38.4090   30.1330   39.4230 N   0  0  0  0  0  0  0  0  0  0  0  0
   36.1270   32.2710   40.7470 H   0  0  0  0  0  0  0  0  0  0  0  0
   37.8100   33.8830   40.0310 H   0  0  0  0  0  0  0  0  0  0  0  0
   40.2370   30.7830   38.5570 H   0  0  0  0  0  0  0  0  0  0  0  0
  1  3  1  0  0  0  0
  2  1  2  0  0  0  0
  3  4  1  0  0  0  0
  4  5  1  0  0  0  0
  4  6  2  0  0  0  0
  7  6  1  0  0  0  0
  8  7  2  0  0  0  0
  9  8  1  0  0  0  0
 10  9  2  0  0  0  0
 11 12  2  0  0  0  0
 11 10  1  0  0  0  0
 12 13  1  0  0  0  0
 13  3  2  0  0  0  0
 13  8  1  0  0  0  0
 14 15  1  0  0  0  0
 14  1  1  0  0  0  0
 15 20  1  0  0  0  0
 16 21  1  0  0  0  0
 16 15  2  0  0  0  0
 17 16  1  0  0  0  0
 18 17  2  0  0  0  0
 18 19  1  0  0  0  0
 19 14  2  0  0  0  0
 22 18  1  0  0  0  0
M  END
>  <minimizedAffinity>
-5.25125074

$$$$

 OpenBabel03242512353D

 22 24  0  0  0  0  0  0  0  0999 V2000
   35.4470   28.9380   39.6740 C   0  0  0  0  0  0  0  0  0  0  0  0
   34.2790   29.2010   40.1170 O   0  0  0  0  0  0  0  0  0  0  0  0
   36.2400   27.7490   39.9870 C   0  0  0  0  0  0  0  0  0  0  0  0
   36.3960   26.6770   39.1090 C   0  0  0  0  0  0  0  0  0  0  0  0
   35.9120   26.7250   38.1430 H   0  0  0  0  0  0  0  0  0  0  0  0
   37.1250   25.5470   39.3780 C   0  0  0  0  0  3  0  0  0  0  0  0
   37.7570   25.4410   40.5950 C   0  0  0  0  0  3  0  0  0  0  0  0
   37.6520   26.4550   41.5130 C   0  0  0  0  0  0  0  0  0  0  0  0
   38.2970   26.3270   42.7260 C   0  0  0  0  0  3  0  0  0  0  0  0
   38.2110   27.3320   43.6710 C   0  0  0  0  0  3  0  0  0  0  0  0
   37.4720   28.4610   43.3770 C   0  0  0  0  0  3  0  0  0  0  0  0
   36.8450   28.5440   42.1510 C   0  0  0  0  0  3  0  0  0  0  0  0
   36.9040   27.5660   41.1830 C   0  0  0  0  0  0  0  0  0  0  0  0
   36.2170   29.7600   38.7760 C   0  0  0  0  0  0  0  0  0  0  0  0
   36.7830   30.8700   39.3980 C   0  0  0  0  0  0  0  0  0  0  0  0
   37.5600   31.7370   38.6020 C   0  0  0  0  0  0  0  0  0  0  0  0
   37.6950   31.4120   37.2720 N   0  0  0  0  0  0  0  0  0  0  0  0
   37.1190   30.3230   36.7410 C   0  0  0  0  0  0  0  0  0  0  0  0
   36.3850   29.4970   37.4750 N   0  0  0  0  0  0  0  0  0  0  0  0
   36.6740   31.1210   40.4430 H   0  0  0  0  0  0  0  0  0  0  0  0
   38.0130   32.6060   39.0480 H   0  0  0  0  0  0  0  0  0  0  0  0
   37.3040   30.1830   35.6870 H   0  0  0  0  0  0  0  0  0  0  0  0
  1  3  1  0  0  0  0
  1  2  2  0  0  0  0
  3 13  1  0  0  0  0
  4  6  1  0  0  0  0
  4  3  2  0  0  0  0
  5  4  1  0  0  0  0
  6  7  2  0  0  0  0
  7  8  1  0  0  0  0
  8  9  1  0  0  0  0
  9 10  2  0  0  0  0
 11 10  1  0  0  0  0
 12 11  2  0  0  0  0
 13  8  2  0  0  0  0
 13 12  1  0  0  0  0
 14 15  1  0  0  0  0
 14  1  1  0  0  0  0
 15 20  1  0  0  0  0
 16 21  1  0  0  0  0
 16 15  2  0  0  0  0
 17 16  1  0  0  0  0
 18 17  2  0  0  0  0
 18 19  1  0  0  0  0
 19 14  2  0  0  0  0
 22 18  1  0  0  0  0
M  END
>  <minimizedAffinity>
-5.15168667

$$$$

 OpenBabel03242512353D

 22 24  0  0  0  0  0  0  0  0999 V2000
   37.3370   26.8490   42.9480 C   0  0  0  0  0  0  0  0  0  0  0  0
   36.4470   27.4000   43.6790 O   0  0  0  0  0  0  0  0  0  0  0  0
   38.7860   26.9640   43.1190 C   0  0  0  0  0  0  0  0  0  0  0  0
   39.6020   25.8970   43.4890 C   0  0  0  0  0  0  0  0  0  0  0  0
   39.1480   24.9300   43.6520 H   0  0  0  0  0  0  0  0  0  0  0  0
   40.9600   25.9770   43.6650 C   0  0  0  0  0  3  0  0  0  0  0  0
   41.5830   27.1880   43.4700 C   0  0  0  0  0  3  0  0  0  0  0  0
   40.8460   28.2870   43.1040 C   0  0  0  0  0  0  0  0  0  0  0  0
   41.4930   29.4910   42.9110 C   0  0  0  0  0  3  0  0  0  0  0  0
   40.7790   30.6140   42.5420 C   0  0  0  0  0  3  0  0  0  0  0  0
   39.4130   30.5090   42.3690 C   0  0  0  0  0  3  0  0  0  0  0  0
   38.8100   29.2840   42.5730 C   0  0  0  0  0  3  0  0  0  0  0  0
   39.4840   28.1420   42.9430 C   0  0  0  0  0  0  0  0  0  0  0  0
   37.0920   26.0020   41.8090 C   0  0  0  0  0  0  0  0  0  0  0  0
   37.0730   26.6970   40.6030 C   0  0  0  0  0  0  0  0  0  0  0  0
   36.8430   25.9540   39.4260 C   0  0  0  0  0  0  0  0  0  0  0  0
   36.6570   24.5990   39.5680 N   0  0  0  0  0  0  0  0  0  0  0  0
   36.6890   23.9960   40.7670 C   0  0  0  0  0  0  0  0  0  0  0  0
   36.9040   24.6790   41.8840 N   0  0  0  0  0  0  0  0  0  0  0  0
   37.2200   27.7620   40.4960 H   0  0  0  0  0  0  0  0  0  0  0  0
   36.8220   26.4570   38.4740 H   0  0  0  0  0  0  0  0  0  0  0  0
   36.5280   22.9290   40.7400 H   0  0  0  0  0  0  0  0  0  0  0  0
  1  3  1  0  0  0  0
  1  2  2  0  0  0  0
  3  4  1  0  0  0  0
  4  5  1  0  0  0  0
  4  6  2  0  0  0  0
  7  6  1  0  0  0  0
  8  7  2  0  0  0  0
  9  8  1  0  0  0  0
 10  9  2  0  0  0  0
 11 10  1  0  0  0  0
 11 12  2  0  0  0  0
 12 13  1  0  0  0  0
 13  8  1  0  0  0  0
 13  3  2  0  0  0  0
 14 19  1  0  0  0  0
 14  1  1  0  0  0  0
 15 14  2  0  0  0  0
 16 17  2  0  0  0  0
 16 15  1  0  0  0  0
 17 18  1  0  0  0  0
 18 19  2  0  0  0  0
 20 15  1  0  0  0  0
 21 16  1  0  0  0  0
 22 18  1  0  0  0  0
M  END
>  <minimizedAffinity>
-5.10304356

$$$$

 OpenBabel03242512353D

 22 24  0  0  0  0  0  0  0  0999 V2000
   38.8020   31.6420   40.5820 C   0  0  0  0  0  0  0  0  0  0  0  0
   38.9850   32.5970   41.4100 O   0  0  0  0  0  0  0  0  0  0  0  0
   37.6920   30.6880   40.5980 C   0  0  0  0  0  0  0  0  0  0  0  0
   36.6240   30.7390   39.7040 C   0  0  0  0  0  0  0  0  0  0  0  0
   36.6140   31.5180   38.9540 H   0  0  0  0  0  0  0  0  0  0  0  0
   35.5670   29.8650   39.7000 C   0  0  0  0  0  3  0  0  0  0  0  0
   35.5370   28.8590   40.6360 C   0  0  0  0  0  3  0  0  0  0  0  0
   36.5530   28.7420   41.5520 C   0  0  0  0  0  0  0  0  0  0  0  0
   36.5020   27.7220   42.4790 C   0  0  0  0  0  3  0  0  0  0  0  0
   37.5110   27.5780   43.4120 C   0  0  0  0  0  3  0  0  0  0  0  0
   38.5660   28.4690   43.3960 C   0  0  0  0  0  3  0  0  0  0  0  0
   38.5730   29.4720   42.4490 C   0  0  0  0  0  3  0  0  0  0  0  0
   37.5890   29.6520   41.5040 C   0  0  0  0  0  0  0  0  0  0  0  0
   39.6530   31.3130   39.4670 C   0  0  0  0  0  0  0  0  0  0  0  0
   39.8520   32.3800   38.5960 C   0  0  0  0  0  0  0  0  0  0  0  0
   40.6760   32.1590   37.4720 C   0  0  0  0  0  0  0  0  0  0  0  0
   41.2160   30.9020   37.3300 N   0  0  0  0  0  0  0  0  0  0  0  0
   40.9780   29.9190   38.2130 C   0  0  0  0  0  0  0  0  0  0  0  0
   40.2070   30.1100   39.2750 N   0  0  0  0  0  0  0  0  0  0  0  0
   39.4260   33.3670   38.7120 H   0  0  0  0  0  0  0  0  0  0  0  0
   40.8530   32.9620   36.7760 H   0  0  0  0  0  0  0  0  0  0  0  0
   41.4620   28.9820   37.9850 H   0  0  0  0  0  0  0  0  0  0  0  0
  1  3  1  0  0  0  0
  1  2  2  0  0  0  0
  3 13  1  0  0  0  0
  4  3  2  0  0  0  0
  5  4  1  0  0  0  0
  6  4  1  0  0  0  0
  6  7  2  0  0  0  0
  7  8  1  0  0  0  0
  8  9  1  0  0  0  0
  9 10  2  0  0  0  0
 11 10  1  0  0  0  0
 12 11  2  0  0  0  0
 13  8  2  0  0  0  0
 13 12  1  0  0  0  0
 14  1  1  0  0  0  0
 15 20  1  0  0  0  0
 15 14  2  0  0  0  0
 16 15  1  0  0  0  0
 17 16  2  0  0  0  0
 17 18  1  0  0  0  0
 18 19  2  0  0  0  0
 19 14  1  0  0  0  0
 21 16  1  0  0  0  0
 22 18  1  0  0  0  0
M  END
>  <minimizedAffinity>
-5.02990294

$$$$

 OpenBabel03242512353D

 22 24  0  0  0  0  0  0  0  0999 V2000
   39.1660   30.5200   42.0000 C   0  0  0  0  0  0  0  0  0  0  0  0
   39.7610   31.3640   42.7500 O   0  0  0  0  0  0  0  0  0  0  0  0
   38.6050   29.2370   42.4230 C   0  0  0  0  0  0  0  0  0  0  0  0
   37.2370   28.9690   42.4500 C   0  0  0  0  0  0  0  0  0  0  0  0
   36.5520   29.7440   42.1370 H   0  0  0  0  0  0  0  0  0  0  0  0
   36.6820   27.7800   42.8490 C   0  0  0  0  0  3  0  0  0  0  0  0
   37.5150   26.7640   43.2560 C   0  0  0  0  0  3  0  0  0  0  0  0
   38.8750   26.9510   43.2580 C   0  0  0  0  0  0  0  0  0  0  0  0
   39.6910   25.9160   43.6680 C   0  0  0  0  0  3  0  0  0  0  0  0
   41.0630   26.0740   43.6790 C   0  0  0  0  0  3  0  0  0  0  0  0
   41.5990   27.2790   43.2710 C   0  0  0  0  0  3  0  0  0  0  0  0
   40.7430   28.2840   42.8700 C   0  0  0  0  0  3  0  0  0  0  0  0
   39.3720   28.1700   42.8450 C   0  0  0  0  0  0  0  0  0  0  0  0
   38.9270   30.6640   40.5870 C   0  0  0  0  0  0  0  0  0  0  0  0
   37.8700   31.5220   40.2940 C   0  0  0  0  0  0  0  0  0  0  0  0
   37.5590   31.7320   38.9340 C   0  0  0  0  0  0  0  0  0  0  0  0
   38.3290   31.0690   38.0070 N   0  0  0  0  0  0  0  0  0  0  0  0
   39.3350   30.2550   38.3640 C   0  0  0  0  0  0  0  0  0  0  0  0
   39.6410   30.0470   39.6390 N   0  0  0  0  0  0  0  0  0  0  0  0
   37.2670   32.0400   41.0260 H   0  0  0  0  0  0  0  0  0  0  0  0
   36.7480   32.3890   38.6690 H   0  0  0  0  0  0  0  0  0  0  0  0
   39.8600   29.7980   37.5400 H   0  0  0  0  0  0  0  0  0  0  0  0
  1  3  1  0  0  0  0
  1  2  2  0  0  0  0
  3  4  2  0  0  0  0
  3 13  1  0  0  0  0
  4  6  1  0  0  0  0
  5  4  1  0  0  0  0
  6  7  2  0  0  0  0
  7  8  1  0  0  0  0
  8  9  1  0  0  0  0
  9 10  2  0  0  0  0
 11 10  1  0  0  0  0
 12 11  2  0  0  0  0
 13 12  1  0  0  0  0
 13  8  2  0  0  0  0
 14  1  1  0  0  0  0
 15 14  1  0  0  0  0
 15 20  1  0  0  0  0
 16 15  2  0  0  0  0
 17 18  2  0  0  0  0
 17 16  1  0  0  0  0
 18 19  1  0  0  0  0
 19 14  2  0  0  0  0
 21 16  1  0  0  0  0
 22 18  1  0  0  0  0
M  END
>  <minimizedAffinity>
-4.94812155

$$$$

 OpenBabel03242512353D

 22 24  0  0  0  0  0  0  0  0999 V2000
   35.9940   28.2260   38.9860 C   0  0  0  0  0  0  0  0  0  0  0  0
   34.9260   27.9590   38.3390 O   0  0  0  0  0  0  0  0  0  0  0  0
   36.3640   27.6910   40.2970 C   0  0  0  0  0  0  0  0  0  0  0  0
   36.4140   28.4650   41.4550 C   0  0  0  0  0  0  0  0  0  0  0  0
   36.1610   29.5140   41.3870 H   0  0  0  0  0  0  0  0  0  0  0  0
   36.7660   27.9950   42.6940 C   0  0  0  0  0  3  0  0  0  0  0  0
   37.0970   26.6670   42.8280 C   0  0  0  0  0  3  0  0  0  0  0  0
   37.0720   25.8390   41.7330 C   0  0  0  0  0  0  0  0  0  0  0  0
   37.4060   24.5100   41.8930 C   0  0  0  0  0  3  0  0  0  0  0  0
   37.3880   23.6520   40.8100 C   0  0  0  0  0  3  0  0  0  0  0  0
   37.0300   24.1480   39.5720 C   0  0  0  0  0  3  0  0  0  0  0  0
   36.7040   25.4850   39.4620 C   0  0  0  0  0  3  0  0  0  0  0  0
   36.7100   26.3730   40.5140 C   0  0  0  0  0  0  0  0  0  0  0  0
   37.0490   29.1070   38.5530 C   0  0  0  0  0  0  0  0  0  0  0  0
   36.6150   30.4080   38.3190 C   0  0  0  0  0  0  0  0  0  0  0  0
   37.5760   31.3490   37.8930 C   0  0  0  0  0  0  0  0  0  0  0  0
   38.8670   30.9010   37.7460 N   0  0  0  0  0  0  0  0  0  0  0  0
   39.2130   29.6270   37.9900 C   0  0  0  0  0  0  0  0  0  0  0  0
   38.3220   28.7300   38.3920 N   0  0  0  0  0  0  0  0  0  0  0  0
   35.5980   30.7560   38.4360 H   0  0  0  0  0  0  0  0  0  0  0  0
   37.2770   32.3660   37.7020 H   0  0  0  0  0  0  0  0  0  0  0  0
   40.2580   29.4060   37.8360 H   0  0  0  0  0  0  0  0  0  0  0  0
  1  3  1  0  0  0  0
  2  1  2  0  0  0  0
  3 13  2  0  0  0  0
  3  4  1  0  0  0  0
  4  6  2  0  0  0  0
  5  4  1  0  0  0  0
  6  7  1  0  0  0  0
  8  9  1  0  0  0  0
  8  7  2  0  0  0  0
 10  9  2  0  0  0  0
 11 10  1  0  0  0  0
 12 11  2  0  0  0  0
 12 13  1  0  0  0  0
 13  8  1  0  0  0  0
 14  1  1  0  0  0  0
 15 20  1  0  0  0  0
 15 14  2  0  0  0  0
 16 15  1  0  0  0  0
 17 16  2  0  0  0  0
 17 18  1  0  0  0  0
 18 19  2  0  0  0  0
 19 14  1  0  0  0  0
 21 16  1  0  0  0  0
 22 18  1  0  0  0  0
M  END
>  <minimizedAffinity>
-4.91734505

$$$$

 OpenBabel03242512353D

 22 24  0  0  0  0  0  0  0  0999 V2000
   36.7700   29.4890   39.7510 C   0  0  0  0  0  0  0  0  0  0  0  0
   35.6850   29.5480   39.0800 O   0  0  0  0  0  0  0  0  0  0  0  0
   36.9750   28.7410   40.9920 C   0  0  0  0  0  0  0  0  0  0  0  0
   37.2510   29.3480   42.2160 C   0  0  0  0  0  0  0  0  0  0  0  0
   37.3110   30.4260   42.2570 H   0  0  0  0  0  0  0  0  0  0  0  0
   37.4580   28.6730   43.3930 C   0  0  0  0  0  3  0  0  0  0  0  0
   37.3930   27.3000   43.3880 C   0  0  0  0  0  3  0  0  0  0  0  0
   37.1250   26.6290   42.2210 C   0  0  0  0  0  0  0  0  0  0  0  0
   37.0620   25.2510   42.2420 C   0  0  0  0  0  3  0  0  0  0  0  0
   36.7940   24.5480   41.0840 C   0  0  0  0  0  3  0  0  0  0  0  0
   36.5880   25.2480   39.9110 C   0  0  0  0  0  3  0  0  0  0  0  0
   36.6610   26.6260   39.9400 C   0  0  0  0  0  3  0  0  0  0  0  0
   36.9270   27.3640   41.0710 C   0  0  0  0  0  0  0  0  0  0  0  0
   38.0080   30.1460   39.4190 C   0  0  0  0  0  0  0  0  0  0  0  0
   38.9560   29.2870   38.8730 C   0  0  0  0  0  0  0  0  0  0  0  0
   40.2030   29.8380   38.5110 C   0  0  0  0  0  0  0  0  0  0  0  0
   40.3790   31.1850   38.7280 N   0  0  0  0  0  0  0  0  0  0  0  0
   39.4160   31.9530   39.2620 C   0  0  0  0  0  0  0  0  0  0  0  0
   38.2380   31.4510   39.6070 N   0  0  0  0  0  0  0  0  0  0  0  0
   38.8140   28.2290   38.7030 H   0  0  0  0  0  0  0  0  0  0  0  0
   40.9620   29.2030   38.0840 H   0  0  0  0  0  0  0  0  0  0  0  0
   39.6820   32.9920   39.3800 H   0  0  0  0  0  0  0  0  0  0  0  0
  1  3  1  0  0  0  0
  2  1  2  0  0  0  0
  3 13  2  0  0  0  0
  3  4  1  0  0  0  0
  4  5  1  0  0  0  0
  4  6  2  0  0  0  0
  7  6  1  0  0  0  0
  8  9  1  0  0  0  0
  8  7  2  0  0  0  0
 10  9  2  0  0  0  0
 11 12  2  0  0  0  0
 11 10  1  0  0  0  0
 12 13  1  0  0  0  0
 13  8  1  0  0  0  0
 14 19  1  0  0  0  0
 14  1  1  0  0  0  0
 15 14  2  0  0  0  0
 16 17  2  0  0  0  0
 16 15  1  0  0  0  0
 17 18  1  0  0  0  0
 18 22  1  0  0  0  0
 18 19  2  0  0  0  0
 20 15  1  0  0  0  0
 21 16  1  0  0  0  0
M  END
>  <minimizedAffinity>
-4.91690874

$$$$

 OpenBabel03242512353D

 22 24  0  0  0  0  0  0  0  0999 V2000
   37.0490   27.3070   42.7030 C   0  0  0  0  0  0  0  0  0  0  0  0
   36.2420   27.1510   43.6800 O   0  0  0  0  0  0  0  0  0  0  0  0
   38.2350   28.1640   42.6940 C   0  0  0  0  0  0  0  0  0  0  0  0
   38.2000   29.5170   42.3620 C   0  0  0  0  0  0  0  0  0  0  0  0
   37.2490   29.9630   42.1050 H   0  0  0  0  0  0  0  0  0  0  0  0
   39.2950   30.3430   42.3360 C   0  0  0  0  0  3  0  0  0  0  0  0
   40.5260   29.8200   42.6560 C   0  0  0  0  0  3  0  0  0  0  0  0
   40.6420   28.4950   42.9940 C   0  0  0  0  0  0  0  0  0  0  0  0
   41.8870   27.9930   43.3130 C   0  0  0  0  0  3  0  0  0  0  0  0
   42.0350   26.6640   43.6580 C   0  0  0  0  0  3  0  0  0  0  0  0
   40.9180   25.8520   43.6790 C   0  0  0  0  0  3  0  0  0  0  0  0
   39.6940   26.3990   43.3520 C   0  0  0  0  0  3  0  0  0  0  0  0
   39.5030   27.7160   43.0010 C   0  0  0  0  0  0  0  0  0  0  0  0
   36.9530   26.6690   41.4150 C   0  0  0  0  0  0  0  0  0  0  0  0
   36.9890   25.2800   41.4870 C   0  0  0  0  0  0  0  0  0  0  0  0
   36.8980   24.5620   40.2760 C   0  0  0  0  0  0  0  0  0  0  0  0
   36.7800   25.2980   39.1200 N   0  0  0  0  0  0  0  0  0  0  0  0
   36.7530   26.6400   39.1280 C   0  0  0  0  0  0  0  0  0  0  0  0
   36.8370   27.3300   40.2570 N   0  0  0  0  0  0  0  0  0  0  0  0
   37.0810   24.7050   42.3980 H   0  0  0  0  0  0  0  0  0  0  0  0
   36.9220   23.4850   40.2920 H   0  0  0  0  0  0  0  0  0  0  0  0
   36.6580   27.0950   38.1540 H   0  0  0  0  0  0  0  0  0  0  0  0
  1  2  2  0  0  0  0
  3  1  1  0  0  0  0
  3 13  1  0  0  0  0
  4  3  2  0  0  0  0
  5  4  1  0  0  0  0
  6  4  1  0  0  0  0
  6  7  2  0  0  0  0
  7  8  1  0  0  0  0
  8 13  2  0  0  0  0
  8  9  1  0  0  0  0
  9 10  2  0  0  0  0
 10 11  1  0  0  0  0
 12 11  2  0  0  0  0
 13 12  1  0  0  0  0
 14 15  1  0  0  0  0
 14  1  1  0  0  0  0
 15 20  1  0  0  0  0
 16 21  1  0  0  0  0
 16 15  2  0  0  0  0
 17 18  2  0  0  0  0
 17 16  1  0  0  0  0
 18 19  1  0  0  0  0
 19 14  2  0  0  0  0
 22 18  1  0  0  0  0
M  END
>  <minimizedAffinity>
-4.91292429

$$$$

 OpenBabel03242512353D

 22 24  0  0  0  0  0  0  0  0999 V2000
   39.3010   28.8760   40.3470 C   0  0  0  0  0  0  0  0  0  0  0  0
   40.4870   28.5170   40.0410 O   0  0  0  0  0  0  0  0  0  0  0  0
   38.4920   28.3370   41.4400 C   0  0  0  0  0  0  0  0  0  0  0  0
   38.1990   29.0500   42.6010 C   0  0  0  0  0  0  0  0  0  0  0  0
   38.5820   30.0570   42.7010 H   0  0  0  0  0  0  0  0  0  0  0  0
   37.4520   28.5690   43.6460 C   0  0  0  0  0  3  0  0  0  0  0  0
   36.9440   27.2940   43.5640 C   0  0  0  0  0  3  0  0  0  0  0  0
   37.1890   26.5280   42.4520 C   0  0  0  0  0  0  0  0  0  0  0  0
   36.6670   25.2520   42.3920 C   0  0  0  0  0  3  0  0  0  0  0  0
   36.8950   24.4570   41.2850 C   0  0  0  0  0  3  0  0  0  0  0  0
   37.6500   24.9640   40.2450 C   0  0  0  0  0  3  0  0  0  0  0  0
   38.1500   26.2450   40.3500 C   0  0  0  0  0  3  0  0  0  0  0  0
   37.9480   27.0690   41.4350 C   0  0  0  0  0  0  0  0  0  0  0  0
   38.5220   29.8840   39.6740 C   0  0  0  0  0  0  0  0  0  0  0  0
   39.1210   31.1400   39.6900 C   0  0  0  0  0  0  0  0  0  0  0  0
   38.4360   32.1970   39.0530 C   0  0  0  0  0  0  0  0  0  0  0  0
   37.2290   31.8960   38.4660 N   0  0  0  0  0  0  0  0  0  0  0  0
   36.7120   30.6570   38.4920 C   0  0  0  0  0  0  0  0  0  0  0  0
   37.3430   29.6530   39.0860 N   0  0  0  0  0  0  0  0  0  0  0  0
   40.0700   31.3730   40.1520 H   0  0  0  0  0  0  0  0  0  0  0  0
   38.8690   33.1830   39.0450 H   0  0  0  0  0  0  0  0  0  0  0  0
   35.7590   30.5560   37.9950 H   0  0  0  0  0  0  0  0  0  0  0  0
  1  3  1  0  0  0  0
  2  1  2  0  0  0  0
  3  4  1  0  0  0  0
  4  5  1  0  0  0  0
  4  6  2  0  0  0  0
  7  6  1  0  0  0  0
  8  7  2  0  0  0  0
  9  8  1  0  0  0  0
 10  9  2  0  0  0  0
 11 12  2  0  0  0  0
 11 10  1  0  0  0  0
 12 13  1  0  0  0  0
 13  3  2  0  0  0  0
 13  8  1  0  0  0  0
 14 15  1  0  0  0  0
 14  1  1  0  0  0  0
 15 20  1  0  0  0  0
 16 15  2  0  0  0  0
 17 18  2  0  0  0  0
 17 16  1  0  0  0  0
 18 19  1  0  0  0  0
 19 14  2  0  0  0  0
 21 16  1  0  0  0  0
 22 18  1  0  0  0  0
M  END
>  <minimizedAffinity>
-4.88803434

$$$$
