
 OpenBabel03242517123D

 49 53  0  0  1  0  0  0  0  0999 V2000
   39.8160   31.7620   39.5130 C   0  0  2  0  0  0  0  0  0  0  0  0
   38.3520   31.5280   39.6410 C   0  0  2  0  0  0  0  0  0  0  0  0
   37.5360   32.6700   39.1590 C   0  0  0  0  0  0  0  0  0  0  0  0
   37.9210   34.0040   39.7360 C   0  0  0  0  0  0  0  0  0  0  0  0
   39.4010   34.1610   39.9860 C   0  0  0  0  0  0  0  0  0  0  0  0
   40.2070   33.1730   39.1680 C   0  0  0  0  0  0  0  0  0  0  0  0
   40.3020   31.5200   40.5060 H   0  0  0  0  0  0  0  0  0  0  0  0
   38.0830   30.6500   39.0210 H   0  0  0  0  0  0  0  0  0  0  0  0
   36.4700   32.5080   39.4130 H   0  0  0  0  0  0  0  0  0  0  0  0
   37.6140   32.7370   38.0450 H   0  0  0  0  0  0  0  0  0  0  0  0
   37.6540   34.7900   38.9840 H   0  0  0  0  0  0  0  0  0  0  0  0
   37.3230   34.2310   40.6520 H   0  0  0  0  0  0  0  0  0  0  0  0
   39.7390   35.1810   39.7490 H   0  0  0  0  0  0  0  0  0  0  0  0
   39.6330   33.9520   41.0510 H   0  0  0  0  0  0  0  0  0  0  0  0
   41.2690   33.3000   39.4960 H   0  0  0  0  0  0  0  0  0  0  0  0
   40.1060   33.4700   38.1340 H   0  0  0  0  0  0  0  0  0  0  0  0
   37.0060   30.0830   41.2160 C   0  0  1  0  0  0  0  0  0  0  0  0
   38.0070   31.1830   41.0750 C   0  0  1  0  0  0  0  0  0  0  0  0
   39.1800   30.8120   41.7230 O   0  0  0  0  0  0  0  0  0  0  0  0
   39.1650   29.4290   41.8840 C   0  0  0  0  0  0  0  0  0  0  0  0
   37.7080   29.1920   42.2580 C   0  0  2  0  0  0  0  0  0  0  0  0
   36.8670   29.5480   40.2780 H   0  0  0  0  0  0  0  0  0  0  0  0
   37.6180   32.0680   41.6220 H   0  0  0  0  0  0  0  0  0  0  0  0
   39.7990   29.2090   42.7720 H   0  0  0  0  0  0  0  0  0  0  0  0
   39.4700   28.8660   40.9970 H   0  0  0  0  0  0  0  0  0  0  0  0
   37.5310   29.5580   43.2700 H   0  0  0  0  0  0  0  0  0  0  0  0
   35.8040   30.5030   41.7570 O   0  0  0  0  0  0  0  0  0  0  0  0
   35.5930   31.4530   41.5700 H   0  0  0  0  0  0  0  0  0  0  0  0
   37.3390   27.8830   42.0890 O   0  0  0  0  0  0  0  0  0  0  0  0
   38.1400   26.8370   42.4800 C   0  0  0  0  0  0  0  0  0  0  0  0
   39.0990   26.7030   43.4580 C   0  0  0  0  0  0  0  0  0  0  0  0
   39.2490   27.6030   44.0290 H   0  0  0  0  0  0  0  0  0  0  0  0
   39.7940   25.5350   43.6800 C   0  0  0  0  0  3  0  0  0  0  0  0
   39.5510   24.4310   42.9150 C   0  0  0  0  0  3  0  0  0  0  0  0
   38.5950   24.5170   41.9200 C   0  0  0  0  0  0  0  0  0  0  0  0
   38.4150   23.3580   41.1990 C   0  0  0  0  0  3  0  0  0  0  0  0
   37.4780   23.3610   40.1870 C   0  0  0  0  0  3  0  0  0  0  0  0
   36.7530   24.5020   39.9190 C   0  0  0  0  0  3  0  0  0  0  0  0
   36.9730   25.6350   40.6720 C   0  0  0  0  0  3  0  0  0  0  0  0
   37.8900   25.7040   41.6960 C   0  0  0  0  0  0  0  0  0  0  0  0
   40.4510   30.8500   38.5410 C   0  0  0  0  0  0  0  0  0  0  0  0
   39.7010   29.7190   38.2200 C   0  0  0  0  0  0  0  0  0  0  0  0
   40.1920   28.7770   37.3030 C   0  0  0  0  0  0  0  0  0  0  0  0
   41.4420   29.0620   36.7650 N   0  0  0  0  0  0  0  0  0  0  0  0
   42.1380   30.1730   37.1070 C   0  0  0  0  0  0  0  0  0  0  0  0
   41.6460   31.0710   37.9920 N   0  0  0  0  0  0  0  0  0  0  0  0
   38.7390   29.3650   38.5570 H   0  0  0  0  0  0  0  0  0  0  0  0
   39.7060   27.8700   36.9790 H   0  0  0  0  0  0  0  0  0  0  0  0
   43.1070   30.3000   36.6270 H   0  0  0  0  0  0  0  0  0  0  0  0
  1  2  1  0  0  0  0
  1  7  1  1  0  0  0
  2  8  1  6  0  0  0
  2 18  1  0  0  0  0
  3  9  1  0  0  0  0
  3  2  1  0  0  0  0
  3  4  1  0  0  0  0
  4  5  1  0  0  0  0
  4 12  1  0  0  0  0
  5 14  1  0  0  0  0
  6 15  1  0  0  0  0
  6  1  1  0  0  0  0
  6  5  1  0  0  0  0
 10  3  1  0  0  0  0
 11  4  1  0  0  0  0
 13  5  1  0  0  0  0
 16  6  1  0  0  0  0
 17 22  1  6  0  0  0
 17 27  1  0  0  0  0
 17 21  1  0  0  0  0
 18 17  1  0  0  0  0
 18 23  1  1  0  0  0
 18 19  1  0  0  0  0
 19 20  1  0  0  0  0
 20 21  1  0  0  0  0
 20 24  1  0  0  0  0
 21 26  1  1  0  0  0
 25 20  1  0  0  0  0
 28 27  1  0  0  0  0
 29 21  1  0  0  0  0
 29 30  1  0  0  0  0
 30 31  1  0  0  0  0
 31 33  2  0  0  0  0
 31 32  1  0  0  0  0
 34 33  1  0  0  0  0
 35 34  2  0  0  0  0
 36 35  1  0  0  0  0
 37 36  2  0  0  0  0
 38 37  1  0  0  0  0
 38 39  2  0  0  0  0
 39 40  1  0  0  0  0
 40 35  1  0  0  0  0
 40 30  2  0  0  0  0
 41  1  1  0  0  0  0
 42 41  1  0  0  0  0
 42 47  1  0  0  0  0
 43 42  2  0  0  0  0
 44 45  2  0  0  0  0
 44 43  1  0  0  0  0
 45 46  1  0  0  0  0
 46 41  2  0  0  0  0
 48 43  1  0  0  0  0
 49 45  1  0  0  0  0
M  END
>  <minimizedAffinity>
-7.1264348

$$$$

 OpenBabel03242517123D

 49 53  0  0  1  0  0  0  0  0999 V2000
   36.2610   27.5470   38.4760 C   0  0  2  0  0  0  0  0  0  0  0  0
   35.3660   28.5050   39.1790 C   0  0  2  0  0  0  0  0  0  0  0  0
   34.1300   28.8120   38.4170 C   0  0  0  0  0  0  0  0  0  0  0  0
   34.3600   29.2350   36.9920 C   0  0  0  0  0  0  0  0  0  0  0  0
   35.5280   28.5480   36.3280 C   0  0  0  0  0  0  0  0  0  0  0  0
   35.8930   27.2640   37.0450 C   0  0  0  0  0  0  0  0  0  0  0  0
   37.3070   27.9810   38.4670 H   0  0  0  0  0  0  0  0  0  0  0  0
   35.0530   28.0500   40.1390 H   0  0  0  0  0  0  0  0  0  0  0  0
   33.5770   29.6360   38.9090 H   0  0  0  0  0  0  0  0  0  0  0  0
   33.4660   27.9120   38.4090 H   0  0  0  0  0  0  0  0  0  0  0  0
   33.4570   28.9410   36.4000 H   0  0  0  0  0  0  0  0  0  0  0  0
   34.4380   30.3470   36.9130 H   0  0  0  0  0  0  0  0  0  0  0  0
   35.3090   28.3190   35.2750 H   0  0  0  0  0  0  0  0  0  0  0  0
   36.4280   29.1980   36.3680 H   0  0  0  0  0  0  0  0  0  0  0  0
   36.8200   26.8880   36.5440 H   0  0  0  0  0  0  0  0  0  0  0  0
   35.0810   26.5720   36.8760 H   0  0  0  0  0  0  0  0  0  0  0  0
   36.2740   30.0290   40.9770 C   0  0  1  0  0  0  0  0  0  0  0  0
   36.1250   29.7720   39.5130 C   0  0  1  0  0  0  0  0  0  0  0  0
   37.3890   29.6810   38.9400 O   0  0  0  0  0  0  0  0  0  0  0  0
   38.3060   29.4260   39.9560 C   0  0  0  0  0  0  0  0  0  0  0  0
   37.7810   30.3340   41.0610 C   0  0  2  0  0  0  0  0  0  0  0  0
   36.0240   29.1460   41.5640 H   0  0  0  0  0  0  0  0  0  0  0  0
   35.6430   30.6640   39.0600 H   0  0  0  0  0  0  0  0  0  0  0  0
   39.2840   29.8260   39.6050 H   0  0  0  0  0  0  0  0  0  0  0  0
   38.3630   28.3780   40.2630 H   0  0  0  0  0  0  0  0  0  0  0  0
   37.9860   31.3730   40.8010 H   0  0  0  0  0  0  0  0  0  0  0  0
   35.5890   31.1500   41.4090 O   0  0  0  0  0  0  0  0  0  0  0  0
   34.7870   31.3610   40.8660 H   0  0  0  0  0  0  0  0  0  0  0  0
   38.2690   29.9820   42.2920 O   0  0  0  0  0  0  0  0  0  0  0  0
   39.6160   29.9140   42.5570 C   0  0  0  0  0  0  0  0  0  0  0  0
   40.6270   30.8470   42.5290 C   0  0  0  0  0  0  0  0  0  0  0  0
   40.2900   31.8270   42.2410 H   0  0  0  0  0  0  0  0  0  0  0  0
   41.9360   30.5530   42.8390 C   0  0  0  0  0  3  0  0  0  0  0  0
   42.2930   29.2850   43.1980 C   0  0  0  0  0  3  0  0  0  0  0  0
   41.3110   28.3120   43.2410 C   0  0  0  0  0  0  0  0  0  0  0  0
   41.7590   27.0650   43.6120 C   0  0  0  0  0  3  0  0  0  0  0  0
   40.8410   26.0380   43.6790 C   0  0  0  0  0  3  0  0  0  0  0  0
   39.5160   26.2740   43.3790 C   0  0  0  0  0  3  0  0  0  0  0  0
   39.1220   27.5420   43.0130 C   0  0  0  0  0  3  0  0  0  0  0  0
   39.9820   28.6140   42.9250 C   0  0  0  0  0  0  0  0  0  0  0  0
   36.3840   26.2600   39.1890 C   0  0  0  0  0  0  0  0  0  0  0  0
   35.8670   25.1590   38.5070 C   0  0  0  0  0  0  0  0  0  0  0  0
   35.9280   23.8770   39.0760 C   0  0  0  0  0  0  0  0  0  0  0  0
   36.5240   23.8080   40.3310 N   0  0  0  0  0  0  0  0  0  0  0  0
   37.0110   24.9050   40.9590 C   0  0  0  0  0  0  0  0  0  0  0  0
   36.9440   26.1330   40.3930 N   0  0  0  0  0  0  0  0  0  0  0  0
   35.3770   25.0610   37.5510 H   0  0  0  0  0  0  0  0  0  0  0  0
   35.5650   22.9570   38.6470 H   0  0  0  0  0  0  0  0  0  0  0  0
   37.4570   24.7400   41.9390 H   0  0  0  0  0  0  0  0  0  0  0  0
  1  7  1  6  0  0  0
  1  2  1  0  0  0  0
  1 41  1  0  0  0  0
  2 18  1  0  0  0  0
  2  8  1  1  0  0  0
  3  9  1  0  0  0  0
  3  2  1  0  0  0  0
  4  3  1  0  0  0  0
  5 14  1  0  0  0  0
  5  4  1  0  0  0  0
  5  6  1  0  0  0  0
  6  1  1  0  0  0  0
 10  3  1  0  0  0  0
 11  4  1  0  0  0  0
 12  4  1  0  0  0  0
 13  5  1  0  0  0  0
 15  6  1  0  0  0  0
 16  6  1  0  0  0  0
 17 21  1  0  0  0  0
 17 27  1  0  0  0  0
 17 22  1  1  0  0  0
 18 23  1  6  0  0  0
 18 17  1  0  0  0  0
 19 18  1  0  0  0  0
 19 20  1  0  0  0  0
 20 25  1  0  0  0  0
 20 21  1  0  0  0  0
 21 26  1  6  0  0  0
 21 29  1  0  0  0  0
 24 20  1  0  0  0  0
 28 27  1  0  0  0  0
 29 30  1  0  0  0  0
 30 40  1  0  0  0  0
 31 30  2  0  0  0  0
 31 33  1  0  0  0  0
 32 31  1  0  0  0  0
 33 34  2  0  0  0  0
 34 35  1  0  0  0  0
 35 36  1  0  0  0  0
 36 37  2  0  0  0  0
 38 37  1  0  0  0  0
 39 38  2  0  0  0  0
 40 39  1  0  0  0  0
 40 35  2  0  0  0  0
 41 46  1  0  0  0  0
 42 43  1  0  0  0  0
 42 41  2  0  0  0  0
 43 44  2  0  0  0  0
 44 45  1  0  0  0  0
 45 49  1  0  0  0  0
 46 45  2  0  0  0  0
 47 42  1  0  0  0  0
 48 43  1  0  0  0  0
M  END
>  <minimizedAffinity>
-6.92357779

$$$$

 OpenBabel03242517123D

 49 53  0  0  1  0  0  0  0  0999 V2000
   39.7890   31.7030   39.5110 C   0  0  2  0  0  0  0  0  0  0  0  0
   38.3120   31.5330   39.5640 C   0  0  2  0  0  0  0  0  0  0  0  0
   37.5730   32.7250   39.0780 C   0  0  0  0  0  0  0  0  0  0  0  0
   37.9890   34.0240   39.7120 C   0  0  0  0  0  0  0  0  0  0  0  0
   39.4610   34.1050   40.0360 C   0  0  0  0  0  0  0  0  0  0  0  0
   40.2610   33.1030   39.2270 C   0  0  0  0  0  0  0  0  0  0  0  0
   40.2160   31.4110   40.5180 H   0  0  0  0  0  0  0  0  0  0  0  0
   38.0340   30.6860   38.9060 H   0  0  0  0  0  0  0  0  0  0  0  0
   36.4900   32.6060   39.2770 H   0  0  0  0  0  0  0  0  0  0  0  0
   37.7070   32.8200   37.9710 H   0  0  0  0  0  0  0  0  0  0  0  0
   37.7940   34.8420   38.9720 H   0  0  0  0  0  0  0  0  0  0  0  0
   37.3590   34.2530   40.6050 H   0  0  0  0  0  0  0  0  0  0  0  0
   39.8560   35.1140   39.8450 H   0  0  0  0  0  0  0  0  0  0  0  0
   39.6320   33.8550   41.1040 H   0  0  0  0  0  0  0  0  0  0  0  0
   41.3100   33.1710   39.6080 H   0  0  0  0  0  0  0  0  0  0  0  0
   40.2230   33.4330   38.1980 H   0  0  0  0  0  0  0  0  0  0  0  0
   36.6440   30.3350   41.0330 C   0  0  1  0  0  0  0  0  0  0  0  0
   37.8840   31.1660   40.9690 C   0  0  1  0  0  0  0  0  0  0  0  0
   38.9260   30.4670   41.5680 O   0  0  0  0  0  0  0  0  0  0  0  0
   38.5730   29.1210   41.6150 C   0  0  0  0  0  0  0  0  0  0  0  0
   37.1000   29.2170   41.9880 C   0  0  2  0  0  0  0  0  0  0  0  0
   36.3850   29.9290   40.0560 H   0  0  0  0  0  0  0  0  0  0  0  0
   37.7180   32.0700   41.5920 H   0  0  0  0  0  0  0  0  0  0  0  0
   39.1280   28.6810   42.4740 H   0  0  0  0  0  0  0  0  0  0  0  0
   38.7380   28.5770   40.6810 H   0  0  0  0  0  0  0  0  0  0  0  0
   37.0100   29.5300   43.0290 H   0  0  0  0  0  0  0  0  0  0  0  0
   35.5770   30.9890   41.6220 O   0  0  0  0  0  0  0  0  0  0  0  0
   35.6050   31.9740   41.5160 H   0  0  0  0  0  0  0  0  0  0  0  0
   36.4240   28.0560   41.7180 O   0  0  0  0  0  0  0  0  0  0  0  0
   36.5490   27.3940   40.5190 C   0  0  0  0  0  0  0  0  0  0  0  0
   36.3430   27.7710   39.2120 C   0  0  0  0  0  0  0  0  0  0  0  0
   36.0180   28.7920   39.1130 H   0  0  0  0  0  0  0  0  0  0  0  0
   36.5340   26.9260   38.1420 C   0  0  0  0  0  3  0  0  0  0  0  0
   36.9500   25.6410   38.3430 C   0  0  0  0  0  3  0  0  0  0  0  0
   37.1700   25.2160   39.6400 C   0  0  0  0  0  0  0  0  0  0  0  0
   37.5860   23.9080   39.7490 C   0  0  0  0  0  3  0  0  0  0  0  0
   37.8290   23.4070   41.0110 C   0  0  0  0  0  3  0  0  0  0  0  0
   37.6530   24.2070   42.1190 C   0  0  0  0  0  3  0  0  0  0  0  0
   37.2350   25.5090   41.9520 C   0  0  0  0  0  3  0  0  0  0  0  0
   36.9750   26.0760   40.7250 C   0  0  0  0  0  0  0  0  0  0  0  0
   40.4290   30.7900   38.5430 C   0  0  0  0  0  0  0  0  0  0  0  0
   39.6540   29.6910   38.1720 C   0  0  0  0  0  0  0  0  0  0  0  0
   40.1460   28.7510   37.2530 C   0  0  0  0  0  0  0  0  0  0  0  0
   41.4240   29.0050   36.7660 N   0  0  0  0  0  0  0  0  0  0  0  0
   42.1430   30.0850   37.1560 C   0  0  0  0  0  0  0  0  0  0  0  0
   41.6500   30.9810   38.0420 N   0  0  0  0  0  0  0  0  0  0  0  0
   38.6690   29.3640   38.4670 H   0  0  0  0  0  0  0  0  0  0  0  0
   39.6430   27.8680   36.8930 H   0  0  0  0  0  0  0  0  0  0  0  0
   43.1330   30.1890   36.7130 H   0  0  0  0  0  0  0  0  0  0  0  0
  1  2  1  0  0  0  0
  1  7  1  1  0  0  0
  2  8  1  6  0  0  0
  2 18  1  0  0  0  0
  3  9  1  0  0  0  0
  3  2  1  0  0  0  0
  3  4  1  0  0  0  0
  4  5  1  0  0  0  0
  4 12  1  0  0  0  0
  5 14  1  0  0  0  0
  6  1  1  0  0  0  0
  6 15  1  0  0  0  0
  6  5  1  0  0  0  0
 10  3  1  0  0  0  0
 11  4  1  0  0  0  0
 13  5  1  0  0  0  0
 16  6  1  0  0  0  0
 17 22  1  6  0  0  0
 17 27  1  0  0  0  0
 17 21  1  0  0  0  0
 18 17  1  0  0  0  0
 18 19  1  0  0  0  0
 18 23  1  1  0  0  0
 19 20  1  0  0  0  0
 20 21  1  0  0  0  0
 20 24  1  0  0  0  0
 21 26  1  1  0  0  0
 25 20  1  0  0  0  0
 28 27  1  0  0  0  0
 29 21  1  0  0  0  0
 30 40  1  0  0  0  0
 30 29  1  0  0  0  0
 31 30  2  0  0  0  0
 32 31  1  0  0  0  0
 33 34  2  0  0  0  0
 33 31  1  0  0  0  0
 34 35  1  0  0  0  0
 35 36  2  0  0  0  0
 35 40  1  0  0  0  0
 36 37  1  0  0  0  0
 37 38  2  0  0  0  0
 39 38  1  0  0  0  0
 40 39  2  0  0  0  0
 41  1  1  0  0  0  0
 42 47  1  0  0  0  0
 42 41  1  0  0  0  0
 43 42  2  0  0  0  0
 44 45  2  0  0  0  0
 44 43  1  0  0  0  0
 45 46  1  0  0  0  0
 46 41  2  0  0  0  0
 48 43  1  0  0  0  0
 49 45  1  0  0  0  0
M  END
>  <minimizedAffinity>
-6.92163467

$$$$

 OpenBabel03242517123D

 49 53  0  0  1  0  0  0  0  0999 V2000
   38.7520   31.4050   39.0170 C   0  0  2  0  0  0  0  0  0  0  0  0
   38.6920   30.1290   39.7790 C   0  0  2  0  0  0  0  0  0  0  0  0
   38.1520   29.0000   38.9810 C   0  0  0  0  0  0  0  0  0  0  0  0
   36.8410   29.2820   38.3010 C   0  0  0  0  0  0  0  0  0  0  0  0
   36.6900   30.7080   37.8270 C   0  0  0  0  0  0  0  0  0  0  0  0
   38.0360   31.3910   37.6940 C   0  0  0  0  0  0  0  0  0  0  0  0
   38.2680   32.2140   39.6440 H   0  0  0  0  0  0  0  0  0  0  0  0
   39.7220   29.8530   40.0790 H   0  0  0  0  0  0  0  0  0  0  0  0
   37.9890   28.1190   39.6330 H   0  0  0  0  0  0  0  0  0  0  0  0
   38.8950   28.7110   38.1970 H   0  0  0  0  0  0  0  0  0  0  0  0
   36.7920   28.6480   37.3790 H   0  0  0  0  0  0  0  0  0  0  0  0
   35.9820   28.9700   38.9420 H   0  0  0  0  0  0  0  0  0  0  0  0
   36.1700   30.7520   36.8580 H   0  0  0  0  0  0  0  0  0  0  0  0
   36.1100   31.2970   38.5670 H   0  0  0  0  0  0  0  0  0  0  0  0
   37.8130   32.4570   37.4390 H   0  0  0  0  0  0  0  0  0  0  0  0
   38.5450   30.9160   36.8670 H   0  0  0  0  0  0  0  0  0  0  0  0
   37.1750   29.0980   41.5160 C   0  0  1  0  0  0  0  0  0  0  0  0
   37.8940   30.3220   41.0510 C   0  0  1  0  0  0  0  0  0  0  0  0
   38.7700   30.7370   42.0500 O   0  0  0  0  0  0  0  0  0  0  0  0
   38.9850   29.6620   42.9080 C   0  0  0  0  0  0  0  0  0  0  0  0
   37.5840   29.0730   43.0000 C   0  0  2  0  0  0  0  0  0  0  0  0
   37.5310   28.2070   41.0000 H   0  0  0  0  0  0  0  0  0  0  0  0
   37.1450   31.1340   40.9400 H   0  0  0  0  0  0  0  0  0  0  0  0
   39.2510   30.0990   43.8970 H   0  0  0  0  0  0  0  0  0  0  0  0
   39.7240   28.9390   42.5520 H   0  0  0  0  0  0  0  0  0  0  0  0
   36.9520   29.7360   43.5920 H   0  0  0  0  0  0  0  0  0  0  0  0
   35.7980   29.2170   41.4560 O   0  0  0  0  0  0  0  0  0  0  0  0
   35.4810   29.8380   40.7520 H   0  0  0  0  0  0  0  0  0  0  0  0
   37.5960   27.7850   43.4680 O   0  0  0  0  0  0  0  0  0  0  0  0
   38.6700   26.9470   43.2870 C   0  0  0  0  0  0  0  0  0  0  0  0
   39.9870   27.0100   43.6800 C   0  0  0  0  0  0  0  0  0  0  0  0
   40.2180   27.8970   44.2420 H   0  0  0  0  0  0  0  0  0  0  0  0
   40.9120   26.0350   43.3810 C   0  0  0  0  0  3  0  0  0  0  0  0
   40.5470   24.9330   42.6620 C   0  0  0  0  0  3  0  0  0  0  0  0
   39.2330   24.8250   42.2460 C   0  0  0  0  0  0  0  0  0  0  0  0
   38.9540   23.6840   41.5280 C   0  0  0  0  0  3  0  0  0  0  0  0
   37.6640   23.5010   41.0750 C   0  0  0  0  0  3  0  0  0  0  0  0
   36.6960   24.4450   41.3440 C   0  0  0  0  0  3  0  0  0  0  0  0
   37.0300   25.5680   42.0660 C   0  0  0  0  0  3  0  0  0  0  0  0
   38.2950   25.8170   42.5500 C   0  0  0  0  0  0  0  0  0  0  0  0
   40.1360   31.8660   38.7940 C   0  0  0  0  0  0  0  0  0  0  0  0
   40.7250   31.4080   37.6150 C   0  0  0  0  0  0  0  0  0  0  0  0
   42.0370   31.7810   37.2840 C   0  0  0  0  0  0  0  0  0  0  0  0
   42.6710   32.6120   38.2020 N   0  0  0  0  0  0  0  0  0  0  0  0
   42.0620   33.0310   39.3370 C   0  0  0  0  0  0  0  0  0  0  0  0
   40.7950   32.6620   39.6370 N   0  0  0  0  0  0  0  0  0  0  0  0
   40.3670   30.7640   36.8270 H   0  0  0  0  0  0  0  0  0  0  0  0
   42.5930   31.4920   36.4070 H   0  0  0  0  0  0  0  0  0  0  0  0
   42.6490   33.6800   39.9860 H   0  0  0  0  0  0  0  0  0  0  0  0
  1  7  1  1  0  0  0
  1  2  1  0  0  0  0
  2  8  1  1  0  0  0
  2 18  1  0  0  0  0
  3  9  1  0  0  0  0
  3  2  1  0  0  0  0
  4 12  1  0  0  0  0
  4  3  1  0  0  0  0
  5  4  1  0  0  0  0
  5 14  1  0  0  0  0
  6  5  1  0  0  0  0
  6  1  1  0  0  0  0
 10  3  1  0  0  0  0
 11  4  1  0  0  0  0
 13  5  1  0  0  0  0
 15  6  1  0  0  0  0
 16  6  1  0  0  0  0
 17 22  1  6  0  0  0
 17 21  1  0  0  0  0
 18 23  1  6  0  0  0
 18 17  1  0  0  0  0
 18 19  1  0  0  0  0
 19 20  1  0  0  0  0
 20 21  1  0  0  0  0
 20 24  1  0  0  0  0
 21 29  1  0  0  0  0
 21 26  1  1  0  0  0
 25 20  1  0  0  0  0
 27 17  1  0  0  0  0
 28 27  1  0  0  0  0
 30 29  1  0  0  0  0
 30 31  1  0  0  0  0
 31 32  1  0  0  0  0
 33 31  2  0  0  0  0
 34 33  1  0  0  0  0
 35 40  1  0  0  0  0
 35 34  2  0  0  0  0
 36 35  1  0  0  0  0
 37 38  1  0  0  0  0
 37 36  2  0  0  0  0
 38 39  2  0  0  0  0
 39 40  1  0  0  0  0
 40 30  2  0  0  0  0
 41  1  1  0  0  0  0
 41 46  1  0  0  0  0
 42 41  2  0  0  0  0
 43 42  1  0  0  0  0
 43 44  2  0  0  0  0
 44 45  1  0  0  0  0
 45 46  2  0  0  0  0
 45 49  1  0  0  0  0
 47 42  1  0  0  0  0
 48 43  1  0  0  0  0
M  END
>  <minimizedAffinity>
-6.91635656

$$$$

 OpenBabel03242517123D

 49 53  0  0  1  0  0  0  0  0999 V2000
   39.7780   32.4700   40.5450 C   0  0  2  0  0  0  0  0  0  0  0  0
   38.7910   31.4050   40.2210 C   0  0  2  0  0  0  0  0  0  0  0  0
   37.8840   31.7730   39.1060 C   0  0  0  0  0  0  0  0  0  0  0  0
   37.2050   33.1070   39.2630 C   0  0  0  0  0  0  0  0  0  0  0  0
   38.0540   34.1500   39.9480 C   0  0  0  0  0  0  0  0  0  0  0  0
   39.5260   33.7960   39.8810 C   0  0  0  0  0  0  0  0  0  0  0  0
   39.7490   32.6510   41.6630 H   0  0  0  0  0  0  0  0  0  0  0  0
   39.3460   30.4990   39.9050 H   0  0  0  0  0  0  0  0  0  0  0  0
   37.0800   31.0170   39.0060 H   0  0  0  0  0  0  0  0  0  0  0  0
   38.4600   31.7880   38.1480 H   0  0  0  0  0  0  0  0  0  0  0  0
   36.9990   33.5070   38.2380 H   0  0  0  0  0  0  0  0  0  0  0  0
   36.2120   32.9940   39.7610 H   0  0  0  0  0  0  0  0  0  0  0  0
   37.9050   35.1430   39.4980 H   0  0  0  0  0  0  0  0  0  0  0  0
   37.7930   34.2090   41.0260 H   0  0  0  0  0  0  0  0  0  0  0  0
   40.0530   34.5670   40.4960 H   0  0  0  0  0  0  0  0  0  0  0  0
   39.8210   33.8890   38.8460 H   0  0  0  0  0  0  0  0  0  0  0  0
   36.7530   30.2670   41.1840 C   0  0  1  0  0  0  0  0  0  0  0  0
   38.0040   31.0350   41.4600 C   0  0  1  0  0  0  0  0  0  0  0  0
   38.8280   30.2730   42.2820 O   0  0  0  0  0  0  0  0  0  0  0  0
   38.4140   28.9460   42.1980 C   0  0  0  0  0  0  0  0  0  0  0  0
   36.9000   29.1100   42.1890 C   0  0  2  0  0  0  0  0  0  0  0  0
   36.7330   29.8930   40.1610 H   0  0  0  0  0  0  0  0  0  0  0  0
   37.7260   31.9350   42.0480 H   0  0  0  0  0  0  0  0  0  0  0  0
   38.7120   28.4630   43.1550 H   0  0  0  0  0  0  0  0  0  0  0  0
   38.7860   28.4110   41.3190 H   0  0  0  0  0  0  0  0  0  0  0  0
   36.5640   29.4080   43.1820 H   0  0  0  0  0  0  0  0  0  0  0  0
   35.6010   30.9640   41.5040 O   0  0  0  0  0  0  0  0  0  0  0  0
   35.6990   31.9480   41.4390 H   0  0  0  0  0  0  0  0  0  0  0  0
   36.2640   27.9900   41.7210 O   0  0  0  0  0  0  0  0  0  0  0  0
   36.5890   27.4080   40.5190 C   0  0  0  0  0  0  0  0  0  0  0  0
   36.5460   27.8530   39.2180 C   0  0  0  0  0  0  0  0  0  0  0  0
   36.1850   28.8630   39.1280 H   0  0  0  0  0  0  0  0  0  0  0  0
   36.9290   27.0830   38.1420 C   0  0  0  0  0  3  0  0  0  0  0  0
   37.3790   25.8080   38.3310 C   0  0  0  0  0  3  0  0  0  0  0  0
   37.4390   25.3160   39.6220 C   0  0  0  0  0  0  0  0  0  0  0  0
   37.9030   24.0240   39.7200 C   0  0  0  0  0  3  0  0  0  0  0  0
   37.9940   23.4580   40.9740 C   0  0  0  0  0  3  0  0  0  0  0  0
   37.6250   24.1830   42.0870 C   0  0  0  0  0  3  0  0  0  0  0  0
   37.1660   25.4720   41.9330 C   0  0  0  0  0  3  0  0  0  0  0  0
   37.0500   26.1000   40.7130 C   0  0  0  0  0  0  0  0  0  0  0  0
   41.1670   32.0610   40.2570 C   0  0  0  0  0  0  0  0  0  0  0  0
   41.7420   32.6770   39.1460 C   0  0  0  0  0  0  0  0  0  0  0  0
   43.0610   32.3770   38.7700 C   0  0  0  0  0  0  0  0  0  0  0  0
   43.7140   31.4480   39.5720 N   0  0  0  0  0  0  0  0  0  0  0  0
   43.1160   30.8710   40.6420 C   0  0  0  0  0  0  0  0  0  0  0  0
   41.8440   31.1750   40.9900 N   0  0  0  0  0  0  0  0  0  0  0  0
   41.3640   33.3960   38.4370 H   0  0  0  0  0  0  0  0  0  0  0  0
   43.6090   32.7870   37.9370 H   0  0  0  0  0  0  0  0  0  0  0  0
   43.7180   30.1560   41.2020 H   0  0  0  0  0  0  0  0  0  0  0  0
  1  7  1  1  0  0  0
  2  8  1  6  0  0  0
  2  1  1  0  0  0  0
  2 18  1  0  0  0  0
  3  4  1  0  0  0  0
  3  2  1  0  0  0  0
  4 12  1  0  0  0  0
  4  5  1  0  0  0  0
  5 14  1  0  0  0  0
  6  5  1  0  0  0  0
  6 15  1  0  0  0  0
  6  1  1  0  0  0  0
  9  3  1  0  0  0  0
 10  3  1  0  0  0  0
 11  4  1  0  0  0  0
 13  5  1  0  0  0  0
 16  6  1  0  0  0  0
 17 22  1  6  0  0  0
 17 18  1  0  0  0  0
 17 27  1  0  0  0  0
 17 21  1  0  0  0  0
 18 23  1  1  0  0  0
 18 19  1  0  0  0  0
 20 19  1  0  0  0  0
 20 24  1  0  0  0  0
 21 20  1  0  0  0  0
 21 26  1  1  0  0  0
 25 20  1  0  0  0  0
 28 27  1  0  0  0  0
 29 21  1  0  0  0  0
 30 40  1  0  0  0  0
 30 29  1  0  0  0  0
 31 30  2  0  0  0  0
 32 31  1  0  0  0  0
 33 34  2  0  0  0  0
 33 31  1  0  0  0  0
 34 35  1  0  0  0  0
 35 36  2  0  0  0  0
 35 40  1  0  0  0  0
 36 37  1  0  0  0  0
 37 38  2  0  0  0  0
 39 38  1  0  0  0  0
 40 39  2  0  0  0  0
 41  1  1  0  0  0  0
 41 46  1  0  0  0  0
 42 41  2  0  0  0  0
 43 42  1  0  0  0  0
 43 44  2  0  0  0  0
 44 45  1  0  0  0  0
 45 46  2  0  0  0  0
 45 49  1  0  0  0  0
 47 42  1  0  0  0  0
 48 43  1  0  0  0  0
M  END
>  <minimizedAffinity>
-6.82269955

$$$$

 OpenBabel03242517123D

 49 53  0  0  1  0  0  0  0  0999 V2000
   36.6820   27.7400   38.4500 C   0  0  2  0  0  0  0  0  0  0  0  0
   35.6710   28.5480   39.1840 C   0  0  2  0  0  0  0  0  0  0  0  0
   34.3640   28.6200   38.4830 C   0  0  0  0  0  0  0  0  0  0  0  0
   34.4470   29.0410   37.0410 C   0  0  0  0  0  0  0  0  0  0  0  0
   35.6830   28.5470   36.3280 C   0  0  0  0  0  0  0  0  0  0  0  0
   36.2990   27.3630   37.0450 C   0  0  0  0  0  0  0  0  0  0  0  0
   37.6350   28.3460   38.3790 H   0  0  0  0  0  0  0  0  0  0  0  0
   35.4880   28.0700   40.1670 H   0  0  0  0  0  0  0  0  0  0  0  0
   33.7020   29.3490   38.9900 H   0  0  0  0  0  0  0  0  0  0  0  0
   33.8650   27.6190   38.5240 H   0  0  0  0  0  0  0  0  0  0  0  0
   33.5810   28.5820   36.5020 H   0  0  0  0  0  0  0  0  0  0  0  0
   34.3290   30.1470   36.9400 H   0  0  0  0  0  0  0  0  0  0  0  0
   35.4550   28.2580   35.2910 H   0  0  0  0  0  0  0  0  0  0  0  0
   36.4580   29.3420   36.3110 H   0  0  0  0  0  0  0  0  0  0  0  0
   37.2510   27.1390   36.5030 H   0  0  0  0  0  0  0  0  0  0  0  0
   35.6100   26.5380   36.9300 H   0  0  0  0  0  0  0  0  0  0  0  0
   36.4200   30.2370   40.9050 C   0  0  1  0  0  0  0  0  0  0  0  0
   36.2150   29.9340   39.4570 C   0  0  1  0  0  0  0  0  0  0  0  0
   37.4320   30.0570   38.7940 O   0  0  0  0  0  0  0  0  0  0  0  0
   38.4490   29.9850   39.7410 C   0  0  0  0  0  0  0  0  0  0  0  0
   37.8510   30.8040   40.8780 C   0  0  2  0  0  0  0  0  0  0  0  0
   36.3720   29.3330   41.5120 H   0  0  0  0  0  0  0  0  0  0  0  0
   35.5520   30.7200   39.0370 H   0  0  0  0  0  0  0  0  0  0  0  0
   39.3130   30.5450   39.3180 H   0  0  0  0  0  0  0  0  0  0  0  0
   38.7120   28.9680   40.0470 H   0  0  0  0  0  0  0  0  0  0  0  0
   37.8500   31.8580   40.6010 H   0  0  0  0  0  0  0  0  0  0  0  0
   35.5800   31.2270   41.3820 O   0  0  0  0  0  0  0  0  0  0  0  0
   34.7160   31.2840   40.8990 H   0  0  0  0  0  0  0  0  0  0  0  0
   38.4810   30.5640   42.0710 O   0  0  0  0  0  0  0  0  0  0  0  0
   38.5920   29.3010   42.6040 C   0  0  0  0  0  0  0  0  0  0  0  0
   37.6660   28.3490   42.9640 C   0  0  0  0  0  0  0  0  0  0  0  0
   36.6510   28.6610   42.7930 H   0  0  0  0  0  0  0  0  0  0  0  0
   38.0080   27.1230   43.4900 C   0  0  0  0  0  3  0  0  0  0  0  0
   39.3190   26.7940   43.6800 C   0  0  0  0  0  3  0  0  0  0  0  0
   40.2870   27.7200   43.3320 C   0  0  0  0  0  0  0  0  0  0  0  0
   41.5800   27.3060   43.5570 C   0  0  0  0  0  3  0  0  0  0  0  0
   42.6050   28.1710   43.2360 C   0  0  0  0  0  3  0  0  0  0  0  0
   42.3220   29.4120   42.7070 C   0  0  0  0  0  3  0  0  0  0  0  0
   41.0090   29.7760   42.5030 C   0  0  0  0  0  3  0  0  0  0  0  0
   39.9370   28.9640   42.7980 C   0  0  0  0  0  0  0  0  0  0  0  0
   37.0590   26.5120   39.1770 C   0  0  0  0  0  0  0  0  0  0  0  0
   38.3820   26.4710   39.6150 C   0  0  0  0  0  0  0  0  0  0  0  0
   38.8640   25.3600   40.3240 C   0  0  0  0  0  0  0  0  0  0  0  0
   37.9390   24.3430   40.5400 N   0  0  0  0  0  0  0  0  0  0  0  0
   36.6620   24.4230   40.0940 C   0  0  0  0  0  0  0  0  0  0  0  0
   36.2170   25.5050   39.4140 N   0  0  0  0  0  0  0  0  0  0  0  0
   39.2020   27.1660   39.5160 H   0  0  0  0  0  0  0  0  0  0  0  0
   39.8600   25.2160   40.7110 H   0  0  0  0  0  0  0  0  0  0  0  0
   36.0210   23.5710   40.3170 H   0  0  0  0  0  0  0  0  0  0  0  0
  1  7  1  6  0  0  0
  1 41  1  0  0  0  0
  1  2  1  0  0  0  0
  2 18  1  0  0  0  0
  2  8  1  1  0  0  0
  3 10  1  0  0  0  0
  3  9  1  0  0  0  0
  3  2  1  0  0  0  0
  4  3  1  0  0  0  0
  5  4  1  0  0  0  0
  5  6  1  0  0  0  0
  6  1  1  0  0  0  0
 11  4  1  0  0  0  0
 12  4  1  0  0  0  0
 13  5  1  0  0  0  0
 14  5  1  0  0  0  0
 15  6  1  0  0  0  0
 16  6  1  0  0  0  0
 17 27  1  0  0  0  0
 17 22  1  1  0  0  0
 18 23  1  6  0  0  0
 18 17  1  0  0  0  0
 19 18  1  0  0  0  0
 19 20  1  0  0  0  0
 20 25  1  0  0  0  0
 20 21  1  0  0  0  0
 21 26  1  6  0  0  0
 21 17  1  0  0  0  0
 21 29  1  0  0  0  0
 24 20  1  0  0  0  0
 28 27  1  0  0  0  0
 29 30  1  0  0  0  0
 30 40  2  0  0  0  0
 30 31  1  0  0  0  0
 31 33  2  0  0  0  0
 32 31  1  0  0  0  0
 33 34  1  0  0  0  0
 35 36  1  0  0  0  0
 35 34  2  0  0  0  0
 37 36  2  0  0  0  0
 38 37  1  0  0  0  0
 39 38  2  0  0  0  0
 39 40  1  0  0  0  0
 40 35  1  0  0  0  0
 41 46  2  0  0  0  0
 41 42  1  0  0  0  0
 42 43  2  0  0  0  0
 43 44  1  0  0  0  0
 43 48  1  0  0  0  0
 45 49  1  0  0  0  0
 45 44  2  0  0  0  0
 46 45  1  0  0  0  0
 47 42  1  0  0  0  0
M  END
>  <minimizedAffinity>
-6.79381657

$$$$

 OpenBabel03242517123D

 49 53  0  0  1  0  0  0  0  0999 V2000
   36.9690   26.4690   41.4750 C   0  0  2  0  0  0  0  0  0  0  0  0
   37.8800   27.6320   41.2980 C   0  0  2  0  0  0  0  0  0  0  0  0
   38.4830   28.0960   42.5720 C   0  0  0  0  0  0  0  0  0  0  0  0
   37.4970   28.3480   43.6790 C   0  0  0  0  0  0  0  0  0  0  0  0
   36.3190   27.4040   43.6780 C   0  0  0  0  0  0  0  0  0  0  0  0
   36.6260   26.1390   42.9020 C   0  0  0  0  0  0  0  0  0  0  0  0
   35.9940   26.7000   40.9470 H   0  0  0  0  0  0  0  0  0  0  0  0
   38.7130   27.3250   40.6350 H   0  0  0  0  0  0  0  0  0  0  0  0
   39.0290   29.0460   42.4090 H   0  0  0  0  0  0  0  0  0  0  0  0
   39.2220   27.3360   42.9320 H   0  0  0  0  0  0  0  0  0  0  0  0
   38.0240   28.1760   44.6510 H   0  0  0  0  0  0  0  0  0  0  0  0
   37.1670   29.4150   43.6860 H   0  0  0  0  0  0  0  0  0  0  0  0
   36.0270   27.1310   44.7040 H   0  0  0  0  0  0  0  0  0  0  0  0
   35.4490   27.8770   43.1780 H   0  0  0  0  0  0  0  0  0  0  0  0
   35.6700   25.5580   42.8750 H   0  0  0  0  0  0  0  0  0  0  0  0
   37.3670   25.5970   43.4710 H   0  0  0  0  0  0  0  0  0  0  0  0
   37.2250   30.0710   41.3160 C   0  0  1  0  0  0  0  0  0  0  0  0
   37.1500   28.7610   40.6020 C   0  0  1  0  0  0  0  0  0  0  0  0
   37.6960   28.9080   39.3310 O   0  0  0  0  0  0  0  0  0  0  0  0
   38.4890   30.0520   39.3320 C   0  0  0  0  0  0  0  0  0  0  0  0
   37.6340   31.0020   40.1600 C   0  0  2  0  0  0  0  0  0  0  0  0
   37.9890   30.0580   42.0920 H   0  0  0  0  0  0  0  0  0  0  0  0
   36.0760   28.5180   40.4520 H   0  0  0  0  0  0  0  0  0  0  0  0
   38.5100   30.4190   38.2810 H   0  0  0  0  0  0  0  0  0  0  0  0
   39.4880   29.9100   39.7510 H   0  0  0  0  0  0  0  0  0  0  0  0
   36.7650   31.3070   39.5760 H   0  0  0  0  0  0  0  0  0  0  0  0
   36.0030   30.5030   41.7980 O   0  0  0  0  0  0  0  0  0  0  0  0
   35.3750   29.7660   42.0120 H   0  0  0  0  0  0  0  0  0  0  0  0
   38.3580   32.0630   40.6370 O   0  0  0  0  0  0  0  0  0  0  0  0
   39.5760   31.9030   41.2550 C   0  0  0  0  0  0  0  0  0  0  0  0
   39.9860   31.1770   42.3500 C   0  0  0  0  0  0  0  0  0  0  0  0
   39.1880   30.6230   42.8120 H   0  0  0  0  0  0  0  0  0  0  0  0
   41.2860   31.1630   42.8030 C   0  0  0  0  0  3  0  0  0  0  0  0
   42.2490   31.8900   42.1650 C   0  0  0  0  0  3  0  0  0  0  0  0
   41.8840   32.6370   41.0590 C   0  0  0  0  0  0  0  0  0  0  0  0
   42.9160   33.3380   40.4790 C   0  0  0  0  0  3  0  0  0  0  0  0
   42.6360   34.1080   39.3700 C   0  0  0  0  0  3  0  0  0  0  0  0
   41.3520   34.1610   38.8710 C   0  0  0  0  0  3  0  0  0  0  0  0
   40.3560   33.4390   39.4910 C   0  0  0  0  0  3  0  0  0  0  0  0
   40.5630   32.6500   40.6000 C   0  0  0  0  0  0  0  0  0  0  0  0
   37.4790   25.2470   40.8230 C   0  0  0  0  0  0  0  0  0  0  0  0
   38.5790   25.4420   39.9880 C   0  0  0  0  0  0  0  0  0  0  0  0
   39.1620   24.3580   39.3140 C   0  0  0  0  0  0  0  0  0  0  0  0
   38.5670   23.1220   39.5430 N   0  0  0  0  0  0  0  0  0  0  0  0
   37.4970   22.9780   40.3620 C   0  0  0  0  0  0  0  0  0  0  0  0
   36.9500   24.0360   41.0040 N   0  0  0  0  0  0  0  0  0  0  0  0
   39.1330   26.3260   39.7100 H   0  0  0  0  0  0  0  0  0  0  0  0
   40.0090   24.3860   38.6470 H   0  0  0  0  0  0  0  0  0  0  0  0
   37.1080   21.9660   40.4710 H   0  0  0  0  0  0  0  0  0  0  0  0
  1  7  1  6  0  0  0
  1  6  1  0  0  0  0
  2  8  1  6  0  0  0
  2  1  1  0  0  0  0
  2  3  1  0  0  0  0
  3 10  1  0  0  0  0
  3  4  1  0  0  0  0
  4 12  1  0  0  0  0
  4 11  1  0  0  0  0
  5  4  1  0  0  0  0
  5 13  1  0  0  0  0
  6 16  1  0  0  0  0
  6  5  1  0  0  0  0
  9  3  1  0  0  0  0
 14  5  1  0  0  0  0
 15  6  1  0  0  0  0
 17 27  1  0  0  0  0
 17 22  1  1  0  0  0
 18 23  1  6  0  0  0
 18  2  1  0  0  0  0
 18 17  1  0  0  0  0
 19 20  1  0  0  0  0
 19 18  1  0  0  0  0
 20 25  1  0  0  0  0
 20 21  1  0  0  0  0
 21 26  1  6  0  0  0
 21 29  1  0  0  0  0
 21 17  1  0  0  0  0
 24 20  1  0  0  0  0
 27 28  1  0  0  0  0
 29 30  1  0  0  0  0
 30 31  1  0  0  0  0
 31 33  2  0  0  0  0
 31 32  1  0  0  0  0
 34 33  1  0  0  0  0
 35 34  2  0  0  0  0
 36 35  1  0  0  0  0
 37 36  2  0  0  0  0
 38 37  1  0  0  0  0
 38 39  2  0  0  0  0
 39 40  1  0  0  0  0
 40 35  1  0  0  0  0
 40 30  2  0  0  0  0
 41 46  1  0  0  0  0
 41  1  1  0  0  0  0
 42 41  2  0  0  0  0
 43 44  2  0  0  0  0
 43 42  1  0  0  0  0
 44 45  1  0  0  0  0
 45 49  1  0  0  0  0
 45 46  2  0  0  0  0
 47 42  1  0  0  0  0
 48 43  1  0  0  0  0
M  END
>  <minimizedAffinity>
-6.77287006

$$$$

 OpenBabel03242517123D

 49 53  0  0  1  0  0  0  0  0999 V2000
   39.9560   31.4030   38.7970 C   0  0  2  0  0  0  0  0  0  0  0  0
   40.0990   31.9910   40.1560 C   0  0  2  0  0  0  0  0  0  0  0  0
   40.2670   33.4660   40.1370 C   0  0  0  0  0  0  0  0  0  0  0  0
   41.3500   33.9620   39.2190 C   0  0  0  0  0  0  0  0  0  0  0  0
   41.5060   33.1480   37.9570 C   0  0  0  0  0  0  0  0  0  0  0  0
   40.2570   32.3420   37.6610 C   0  0  0  0  0  0  0  0  0  0  0  0
   40.6810   30.5370   38.7080 H   0  0  0  0  0  0  0  0  0  0  0  0
   39.1750   31.7760   40.7280 H   0  0  0  0  0  0  0  0  0  0  0  0
   40.5170   33.8320   41.1520 H   0  0  0  0  0  0  0  0  0  0  0  0
   39.3040   33.9450   39.8290 H   0  0  0  0  0  0  0  0  0  0  0  0
   41.0670   34.9920   38.8830 H   0  0  0  0  0  0  0  0  0  0  0  0
   42.3200   34.0660   39.7630 H   0  0  0  0  0  0  0  0  0  0  0  0
   41.7290   33.7910   37.0930 H   0  0  0  0  0  0  0  0  0  0  0  0
   42.3320   32.4160   38.0740 H   0  0  0  0  0  0  0  0  0  0  0  0
   40.5070   31.7060   36.7770 H   0  0  0  0  0  0  0  0  0  0  0  0
   39.4860   33.0510   37.3950 H   0  0  0  0  0  0  0  0  0  0  0  0
   40.9020   30.8710   42.2720 C   0  0  1  0  0  0  0  0  0  0  0  0
   41.2430   31.3250   40.8910 C   0  0  1  0  0  0  0  0  0  0  0  0
   41.6540   30.2270   40.1430 O   0  0  0  0  0  0  0  0  0  0  0  0
   41.1980   29.0760   40.7800 C   0  0  0  0  0  0  0  0  0  0  0  0
   41.4460   29.4310   42.2410 C   0  0  2  0  0  0  0  0  0  0  0  0
   39.8260   30.8760   42.4390 H   0  0  0  0  0  0  0  0  0  0  0  0
   42.1240   31.9980   40.9630 H   0  0  0  0  0  0  0  0  0  0  0  0
   41.8960   28.2590   40.4910 H   0  0  0  0  0  0  0  0  0  0  0  0
   40.1520   28.8310   40.5780 H   0  0  0  0  0  0  0  0  0  0  0  0
   42.5180   29.4120   42.4390 H   0  0  0  0  0  0  0  0  0  0  0  0
   41.5830   31.5610   43.2590 O   0  0  0  0  0  0  0  0  0  0  0  0
   41.8290   32.4860   43.0020 H   0  0  0  0  0  0  0  0  0  0  0  0
   40.7280   28.6330   43.0930 O   0  0  0  0  0  0  0  0  0  0  0  0
   39.3730   28.4480   42.9610 C   0  0  0  0  0  0  0  0  0  0  0  0
   38.2980   29.3070   43.0050 C   0  0  0  0  0  0  0  0  0  0  0  0
   38.5830   30.3300   43.1780 H   0  0  0  0  0  0  0  0  0  0  0  0
   36.9940   28.8950   42.8440 C   0  0  0  0  0  3  0  0  0  0  0  0
   36.7080   27.5780   42.6260 C   0  0  0  0  0  3  0  0  0  0  0  0
   37.7550   26.6770   42.5740 C   0  0  0  0  0  0  0  0  0  0  0  0
   37.3750   25.3730   42.3510 C   0  0  0  0  0  3  0  0  0  0  0  0
   38.3610   24.4110   42.2850 C   0  0  0  0  0  3  0  0  0  0  0  0
   39.6840   24.7650   42.4400 C   0  0  0  0  0  3  0  0  0  0  0  0
   40.0090   26.0850   42.6610 C   0  0  0  0  0  3  0  0  0  0  0  0
   39.0780   27.0970   42.7380 C   0  0  0  0  0  0  0  0  0  0  0  0
   38.6220   30.8130   38.5730 C   0  0  0  0  0  0  0  0  0  0  0  0
   37.7410   30.9290   39.6480 C   0  0  0  0  0  0  0  0  0  0  0  0
   36.4380   30.4140   39.5600 C   0  0  0  0  0  0  0  0  0  0  0  0
   36.1190   29.8010   38.3530 N   0  0  0  0  0  0  0  0  0  0  0  0
   37.0080   29.7080   37.3340 C   0  0  0  0  0  0  0  0  0  0  0  0
   38.2590   30.2130   37.4390 N   0  0  0  0  0  0  0  0  0  0  0  0
   37.8460   31.3620   40.6310 H   0  0  0  0  0  0  0  0  0  0  0  0
   35.6730   30.4440   40.3190 H   0  0  0  0  0  0  0  0  0  0  0  0
   36.6550   29.2080   36.4330 H   0  0  0  0  0  0  0  0  0  0  0  0
  1  7  1  6  0  0  0
  1  2  1  0  0  0  0
  2  8  1  1  0  0  0
  2 18  1  0  0  0  0
  3  2  1  0  0  0  0
  3  9  1  0  0  0  0
  4 12  1  0  0  0  0
  4  3  1  0  0  0  0
  5 14  1  0  0  0  0
  5  4  1  0  0  0  0
  6  5  1  0  0  0  0
  6  1  1  0  0  0  0
 10  3  1  0  0  0  0
 11  4  1  0  0  0  0
 13  5  1  0  0  0  0
 15  6  1  0  0  0  0
 16  6  1  0  0  0  0
 17 22  1  1  0  0  0
 17 27  1  0  0  0  0
 18 23  1  1  0  0  0
 18 17  1  0  0  0  0
 19 20  1  0  0  0  0
 19 18  1  0  0  0  0
 20 21  1  0  0  0  0
 21 17  1  0  0  0  0
 21 26  1  1  0  0  0
 21 29  1  0  0  0  0
 24 20  1  0  0  0  0
 25 20  1  0  0  0  0
 28 27  1  0  0  0  0
 30 31  1  0  0  0  0
 30 29  1  0  0  0  0
 31 32  1  0  0  0  0
 33 31  2  0  0  0  0
 34 33  1  0  0  0  0
 35 34  2  0  0  0  0
 35 40  1  0  0  0  0
 36 35  1  0  0  0  0
 37 36  2  0  0  0  0
 37 38  1  0  0  0  0
 38 39  2  0  0  0  0
 39 40  1  0  0  0  0
 40 30  2  0  0  0  0
 41  1  1  0  0  0  0
 41 42  1  0  0  0  0
 42 47  1  0  0  0  0
 43 42  2  0  0  0  0
 43 48  1  0  0  0  0
 44 43  1  0  0  0  0
 45 46  1  0  0  0  0
 45 44  2  0  0  0  0
 46 41  2  0  0  0  0
 49 45  1  0  0  0  0
M  END
>  <minimizedAffinity>
-6.52799273

$$$$

 OpenBabel03242517123D

 49 53  0  0  1  0  0  0  0  0999 V2000
   36.5250   28.8800   41.3130 C   0  0  2  0  0  0  0  0  0  0  0  0
   37.9100   29.3690   41.0760 C   0  0  2  0  0  0  0  0  0  0  0  0
   38.9440   28.5190   41.7180 C   0  0  0  0  0  0  0  0  0  0  0  0
   38.7120   28.2430   43.1780 C   0  0  0  0  0  0  0  0  0  0  0  0
   37.2570   28.1080   43.5540 C   0  0  0  0  0  0  0  0  0  0  0  0
   36.4010   27.7910   42.3440 C   0  0  0  0  0  0  0  0  0  0  0  0
   35.8990   29.7500   41.6770 H   0  0  0  0  0  0  0  0  0  0  0  0
   38.1050   29.3520   39.9850 H   0  0  0  0  0  0  0  0  0  0  0  0
   39.9360   29.0060   41.6390 H   0  0  0  0  0  0  0  0  0  0  0  0
   39.0020   27.5380   41.1840 H   0  0  0  0  0  0  0  0  0  0  0  0
   39.1810   27.2550   43.4160 H   0  0  0  0  0  0  0  0  0  0  0  0
   39.2330   28.9990   43.8150 H   0  0  0  0  0  0  0  0  0  0  0  0
   37.1120   27.3220   44.3090 H   0  0  0  0  0  0  0  0  0  0  0  0
   36.8770   29.0670   43.9650 H   0  0  0  0  0  0  0  0  0  0  0  0
   35.3430   27.8110   42.7050 H   0  0  0  0  0  0  0  0  0  0  0  0
   36.6620   26.7900   42.0320 H   0  0  0  0  0  0  0  0  0  0  0  0
   39.3070   31.4720   41.1150 C   0  0  1  0  0  0  0  0  0  0  0  0
   38.0350   30.8080   41.5290 C   0  0  1  0  0  0  0  0  0  0  0  0
   36.9630   31.5200   41.0010 O   0  0  0  0  0  0  0  0  0  0  0  0
   37.4390   32.3030   39.9530 C   0  0  0  0  0  0  0  0  0  0  0  0
   38.7640   32.7860   40.5250 C   0  0  2  0  0  0  0  0  0  0  0  0
   39.8300   30.8930   40.3550 H   0  0  0  0  0  0  0  0  0  0  0  0
   37.9510   30.8950   42.6330 H   0  0  0  0  0  0  0  0  0  0  0  0
   36.7490   33.1740   39.8730 H   0  0  0  0  0  0  0  0  0  0  0  0
   37.5580   31.7690   39.0060 H   0  0  0  0  0  0  0  0  0  0  0  0
   38.5730   33.5190   41.3100 H   0  0  0  0  0  0  0  0  0  0  0  0
   40.1290   31.7920   42.1810 O   0  0  0  0  0  0  0  0  0  0  0  0
   40.0200   31.1920   42.9630 H   0  0  0  0  0  0  0  0  0  0  0  0
   39.6070   33.2540   39.5510 O   0  0  0  0  0  0  0  0  0  0  0  0
   40.9560   33.4140   39.7590 C   0  0  0  0  0  0  0  0  0  0  0  0
   41.6850   34.1480   40.6670 C   0  0  0  0  0  0  0  0  0  0  0  0
   41.0700   34.7070   41.3490 H   0  0  0  0  0  0  0  0  0  0  0  0
   43.0620   34.1610   40.6950 C   0  0  0  0  0  3  0  0  0  0  0  0
   43.7790   33.4240   39.7980 C   0  0  0  0  0  3  0  0  0  0  0  0
   43.0900   32.6700   38.8650 C   0  0  0  0  0  0  0  0  0  0  0  0
   43.8910   31.9600   38.0010 C   0  0  0  0  0  3  0  0  0  0  0  0
   43.2800   31.1820   37.0400 C   0  0  0  0  0  3  0  0  0  0  0  0
   41.9050   31.1300   36.9630 C   0  0  0  0  0  3  0  0  0  0  0  0
   41.1510   31.8610   37.8540 C   0  0  0  0  0  3  0  0  0  0  0  0
   41.6910   32.6580   38.8380 C   0  0  0  0  0  0  0  0  0  0  0  0
   35.8670   28.4240   40.0720 C   0  0  0  0  0  0  0  0  0  0  0  0
   34.7450   29.1630   39.6980 C   0  0  0  0  0  0  0  0  0  0  0  0
   34.0330   28.8350   38.5340 C   0  0  0  0  0  0  0  0  0  0  0  0
   34.5270   27.7500   37.8170 N   0  0  0  0  0  0  0  0  0  0  0  0
   35.6200   27.0580   38.2190 C   0  0  0  0  0  0  0  0  0  0  0  0
   36.2940   27.3920   39.3440 N   0  0  0  0  0  0  0  0  0  0  0  0
   34.2470   30.0080   40.1490 H   0  0  0  0  0  0  0  0  0  0  0  0
   33.1570   29.3300   38.1450 H   0  0  0  0  0  0  0  0  0  0  0  0
   35.9220   26.2260   37.5850 H   0  0  0  0  0  0  0  0  0  0  0  0
  1  7  1  1  0  0  0
  1  6  1  0  0  0  0
  2  8  1  6  0  0  0
  2  1  1  0  0  0  0
  2 18  1  0  0  0  0
  2  3  1  0  0  0  0
  3  4  1  0  0  0  0
  4 11  1  0  0  0  0
  4  5  1  0  0  0  0
  4 12  1  0  0  0  0
  5 14  1  0  0  0  0
  5 13  1  0  0  0  0
  6 15  1  0  0  0  0
  6  5  1  0  0  0  0
  9  3  1  0  0  0  0
 10  3  1  0  0  0  0
 16  6  1  0  0  0  0
 17 22  1  6  0  0  0
 17 18  1  0  0  0  0
 17 27  1  0  0  0  0
 18 23  1  1  0  0  0
 19 18  1  0  0  0  0
 20 21  1  0  0  0  0
 20 19  1  0  0  0  0
 21 17  1  0  0  0  0
 21 26  1  1  0  0  0
 24 20  1  0  0  0  0
 25 20  1  0  0  0  0
 27 28  1  0  0  0  0
 29 30  1  0  0  0  0
 29 21  1  0  0  0  0
 30 31  1  0  0  0  0
 31 33  2  0  0  0  0
 31 32  1  0  0  0  0
 34 33  1  0  0  0  0
 35 34  2  0  0  0  0
 36 35  1  0  0  0  0
 37 36  2  0  0  0  0
 38 37  1  0  0  0  0
 38 39  2  0  0  0  0
 39 40  1  0  0  0  0
 40 35  1  0  0  0  0
 40 30  2  0  0  0  0
 41  1  1  0  0  0  0
 42 41  1  0  0  0  0
 42 47  1  0  0  0  0
 43 42  2  0  0  0  0
 44 45  2  0  0  0  0
 44 43  1  0  0  0  0
 45 46  1  0  0  0  0
 46 41  2  0  0  0  0
 48 43  1  0  0  0  0
 49 45  1  0  0  0  0
M  END
>  <minimizedAffinity>
-6.51735735

$$$$
