
 OpenBabel03242520023D

 32 35  0  0  1  0  0  0  0  0999 V2000
   39.1300   30.2360   42.5530 Br  0  0  0  0  0  0  0  0  0  0  0  0
   37.7730   29.8930   41.2500 C   0  0  0  0  0  0  0  0  0  0  0  0
   37.5830   30.6920   40.1340 C   0  0  0  0  0  0  0  0  0  0  0  0
   36.5720   30.3550   39.2590 C   0  0  0  0  0  0  0  0  0  0  0  0
   35.7500   29.2620   39.4500 C   0  0  0  0  0  0  0  0  0  0  0  0
   35.9400   28.4540   40.5730 C   0  0  0  0  0  0  0  0  0  0  0  0
   36.9540   28.8100   41.4320 C   0  0  0  0  0  0  0  0  0  0  0  0
   36.4350   30.9930   38.3890 H   0  0  0  0  0  0  0  0  0  0  0  0
   34.9750   29.0510   38.7290 H   0  0  0  0  0  0  0  0  0  0  0  0
   35.2830   27.6000   40.7070 H   0  0  0  0  0  0  0  0  0  0  0  0
   39.0840   34.1570   40.2420 C   0  0  0  0  0  0  0  0  0  0  0  0
   38.1850   33.0950   40.4250 C   0  0  0  0  0  0  0  0  0  0  0  0
   38.4750   31.8310   39.9740 C   0  0  0  0  0  0  0  0  0  0  0  0
   39.6770   31.7230   39.3600 N   0  0  0  0  0  0  0  0  0  0  0  0
   40.5410   32.7250   39.1810 C   0  0  0  0  0  0  0  0  0  0  0  0
   40.2420   33.9410   39.6230 N   0  0  0  0  0  0  0  0  0  0  0  0
   38.8510   35.1490   40.5980 H   0  0  0  0  0  0  0  0  0  0  0  0
   37.2490   33.2810   40.9290 H   0  0  0  0  0  0  0  0  0  0  0  0
   41.4530   32.4450   38.6670 H   0  0  0  0  0  0  0  0  0  0  0  0
   37.1350   27.9530   42.5840 C   0  0  1  0  0  3  0  0  0  0  0  0
   36.4780   28.1720   43.6710 O   0  0  0  0  0  1  0  0  0  0  0  0
   38.0480   26.8140   42.5860 C   0  0  0  0  0  0  0  0  0  0  0  0
   39.2090   26.9970   43.3520 C   0  0  0  0  0  0  0  0  0  0  0  0
   39.3820   27.9210   43.9080 H   0  0  0  0  0  0  0  0  0  0  0  0
   40.2070   26.0550   43.4680 C   0  0  0  0  0  3  0  0  0  0  0  0
   40.0870   24.8540   42.8090 C   0  0  0  0  0  3  0  0  0  0  0  0
   38.9490   24.6680   42.0540 C   0  0  0  0  0  0  0  0  0  0  0  0
   38.7230   23.5000   41.3500 C   0  0  0  0  0  3  0  0  0  0  0  0
   37.5860   23.2780   40.5840 C   0  0  0  0  0  3  0  0  0  0  0  0
   36.6080   24.2770   40.5080 C   0  0  0  0  0  3  0  0  0  0  0  0
   36.8030   25.4520   41.1960 C   0  0  0  0  0  3  0  0  0  0  0  0
   37.9450   25.6040   41.9310 C   0  0  0  0  0  0  0  0  0  0  0  0
  2  7  1  0  0  0  0
  2  1  1  0  0  0  0
  3  2  2  0  0  0  0
  4  5  2  0  0  0  0
  4  3  1  0  0  0  0
  5  6  1  0  0  0  0
  6 10  1  0  0  0  0
  6  7  2  0  0  0  0
  7 20  1  0  0  0  0
  8  4  1  0  0  0  0
  9  5  1  0  0  0  0
 11 12  1  0  0  0  0
 11 17  1  0  0  0  0
 12 18  1  0  0  0  0
 13  3  1  0  0  0  0
 13 12  2  0  0  0  0
 14 13  1  0  0  0  0
 15 14  2  0  0  0  0
 15 16  1  0  0  0  0
 16 11  2  0  0  0  0
 19 15  1  0  0  0  0
 20 22  1  0  0  0  0
 20 21  1  6  0  0  0
 22 23  1  0  0  0  0
 23 25  2  0  0  0  0
 23 24  1  0  0  0  0
 26 25  1  0  0  0  0
 27 26  2  0  0  0  0
 28 27  1  0  0  0  0
 29 28  2  0  0  0  0
 30 29  1  0  0  0  0
 30 31  2  0  0  0  0
 31 32  1  0  0  0  0
 32 27  1  0  0  0  0
 32 22  2  0  0  0  0
M  END
>  <minimizedAffinity>
-6.74630022

$$$$

 OpenBabel03242520023D

 32 35  0  0  1  0  0  0  0  0999 V2000
   36.7460   25.7710   40.4320 Br  0  0  0  0  0  0  0  0  0  0  0  0
   38.1850   25.7470   41.6900 C   0  0  0  0  0  0  0  0  0  0  0  0
   39.2340   24.8430   41.6150 C   0  0  0  0  0  0  0  0  0  0  0  0
   40.2200   24.9120   42.5770 C   0  0  0  0  0  0  0  0  0  0  0  0
   40.2030   25.8370   43.6020 C   0  0  0  0  0  0  0  0  0  0  0  0
   39.1480   26.7490   43.6800 C   0  0  0  0  0  0  0  0  0  0  0  0
   38.1760   26.6610   42.7100 C   0  0  0  0  0  0  0  0  0  0  0  0
   41.0340   24.1950   42.5050 H   0  0  0  0  0  0  0  0  0  0  0  0
   41.0040   25.8390   44.3260 H   0  0  0  0  0  0  0  0  0  0  0  0
   39.1510   27.4680   44.4930 H   0  0  0  0  0  0  0  0  0  0  0  0
   39.8370   23.1100   38.3130 C   0  0  0  0  0  0  0  0  0  0  0  0
   39.8970   24.0650   39.3400 C   0  0  0  0  0  0  0  0  0  0  0  0
   39.2100   23.8890   40.5160 C   0  0  0  0  0  0  0  0  0  0  0  0
   38.4980   22.7390   40.5760 N   0  0  0  0  0  0  0  0  0  0  0  0
   38.4330   21.8240   39.6070 C   0  0  0  0  0  0  0  0  0  0  0  0
   39.1040   22.0110   38.4760 N   0  0  0  0  0  0  0  0  0  0  0  0
   40.3790   23.2530   37.3910 H   0  0  0  0  0  0  0  0  0  0  0  0
   40.4950   24.9520   39.1970 H   0  0  0  0  0  0  0  0  0  0  0  0
   37.8110   20.9670   39.8380 H   0  0  0  0  0  0  0  0  0  0  0  0
   37.0990   27.6220   42.8080 C   0  0  1  0  0  3  0  0  0  0  0  0
   36.1590   27.4630   43.6750 O   0  0  0  0  0  1  0  0  0  0  0  0
   37.0120   28.8030   41.9540 C   0  0  0  0  0  0  0  0  0  0  0  0
   35.8800   28.8440   41.1260 C   0  0  0  0  0  0  0  0  0  0  0  0
   35.1290   28.0510   41.1520 H   0  0  0  0  0  0  0  0  0  0  0  0
   35.6210   29.8580   40.2310 C   0  0  0  0  0  3  0  0  0  0  0  0
   36.5030   30.9070   40.1200 C   0  0  0  0  0  3  0  0  0  0  0  0
   37.6180   30.8730   40.9300 C   0  0  0  0  0  0  0  0  0  0  0  0
   38.5700   31.8750   40.9050 C   0  0  0  0  0  3  0  0  0  0  0  0
   39.7020   31.8740   41.7100 C   0  0  0  0  0  3  0  0  0  0  0  0
   39.9050   30.8120   42.6000 C   0  0  0  0  0  3  0  0  0  0  0  0
   38.9770   29.7990   42.6500 C   0  0  0  0  0  3  0  0  0  0  0  0
   37.8860   29.8630   41.8290 C   0  0  0  0  0  0  0  0  0  0  0  0
  1  2  1  0  0  0  0
  2  7  1  0  0  0  0
  3  2  2  0  0  0  0
  3  4  1  0  0  0  0
  4  5  2  0  0  0  0
  5  6  1  0  0  0  0
  5  9  1  0  0  0  0
  6 10  1  0  0  0  0
  7 20  1  0  0  0  0
  7  6  2  0  0  0  0
  8  4  1  0  0  0  0
 11 16  2  0  0  0  0
 11 12  1  0  0  0  0
 12 13  2  0  0  0  0
 13 14  1  0  0  0  0
 13  3  1  0  0  0  0
 15 19  1  0  0  0  0
 15 14  2  0  0  0  0
 16 15  1  0  0  0  0
 17 11  1  0  0  0  0
 18 12  1  0  0  0  0
 20 21  1  1  0  0  0
 22 20  1  0  0  0  0
 23 24  1  0  0  0  0
 23 22  2  0  0  0  0
 25 23  1  0  0  0  0
 26 25  2  0  0  0  0
 26 27  1  0  0  0  0
 27 32  1  0  0  0  0
 28 27  2  0  0  0  0
 28 29  1  0  0  0  0
 29 30  2  0  0  0  0
 30 31  1  0  0  0  0
 32 22  1  0  0  0  0
 32 31  2  0  0  0  0
M  END
>  <minimizedAffinity>
-6.58284378

$$$$

 OpenBabel03242520023D

 32 35  0  0  1  0  0  0  0  0999 V2000
   39.5720   28.9370   38.9040 Br  0  0  0  0  0  0  0  0  0  0  0  0
   38.8520   30.6600   39.3150 C   0  0  0  0  0  0  0  0  0  0  0  0
   39.5730   31.8330   39.1540 C   0  0  0  0  0  0  0  0  0  0  0  0
   38.9570   33.0220   39.4840 C   0  0  0  0  0  0  0  0  0  0  0  0
   37.6640   33.0890   39.9630 C   0  0  0  0  0  0  0  0  0  0  0  0
   36.9360   31.9090   40.1250 C   0  0  0  0  0  0  0  0  0  0  0  0
   37.5700   30.7350   39.7900 C   0  0  0  0  0  0  0  0  0  0  0  0
   39.5370   33.9330   39.3540 H   0  0  0  0  0  0  0  0  0  0  0  0
   37.2380   34.0510   40.2040 H   0  0  0  0  0  0  0  0  0  0  0  0
   35.9200   31.9810   40.5030 H   0  0  0  0  0  0  0  0  0  0  0  0
   42.5830   31.6790   36.8780 C   0  0  0  0  0  0  0  0  0  0  0  0
   41.2540   31.8030   37.3130 C   0  0  0  0  0  0  0  0  0  0  0  0
   40.9300   31.7130   38.6440 C   0  0  0  0  0  0  0  0  0  0  0  0
   41.9900   31.5020   39.4600 N   0  0  0  0  0  0  0  0  0  0  0  0
   43.2570   31.3820   39.0590 C   0  0  0  0  0  0  0  0  0  0  0  0
   43.5520   31.4720   37.7670 N   0  0  0  0  0  0  0  0  0  0  0  0
   42.8330   31.7510   35.8300 H   0  0  0  0  0  0  0  0  0  0  0  0
   40.4770   31.9710   36.5830 H   0  0  0  0  0  0  0  0  0  0  0  0
   43.9690   31.2160   39.8590 H   0  0  0  0  0  0  0  0  0  0  0  0
   36.7910   29.5270   39.9590 C   0  0  1  0  0  3  0  0  0  0  0  0
   35.8970   29.1990   39.0910 O   0  0  0  0  0  1  0  0  0  0  0  0
   36.9660   28.6260   41.0950 C   0  0  0  0  0  0  0  0  0  0  0  0
   37.2360   29.2660   42.3130 C   0  0  0  0  0  0  0  0  0  0  0  0
   37.2870   30.3550   42.3830 H   0  0  0  0  0  0  0  0  0  0  0  0
   37.4550   28.5990   43.4980 C   0  0  0  0  0  3  0  0  0  0  0  0
   37.4120   27.2250   43.5210 C   0  0  0  0  0  3  0  0  0  0  0  0
   37.1480   26.5890   42.3270 C   0  0  0  0  0  0  0  0  0  0  0  0
   37.0780   25.2110   42.2330 C   0  0  0  0  0  3  0  0  0  0  0  0
   36.8100   24.5390   41.0470 C   0  0  0  0  0  3  0  0  0  0  0  0
   36.5960   25.2780   39.8780 C   0  0  0  0  0  3  0  0  0  0  0  0
   36.6590   26.6510   39.9370 C   0  0  0  0  0  3  0  0  0  0  0  0
   36.9270   27.2470   41.1370 C   0  0  0  0  0  0  0  0  0  0  0  0
  1  2  1  0  0  0  0
  2  7  1  0  0  0  0
  3  2  2  0  0  0  0
  3  4  1  0  0  0  0
  4  5  2  0  0  0  0
  5  6  1  0  0  0  0
  5  9  1  0  0  0  0
  6 10  1  0  0  0  0
  7 20  1  0  0  0  0
  7  6  2  0  0  0  0
  8  4  1  0  0  0  0
 11 12  2  0  0  0  0
 11 16  1  0  0  0  0
 12 13  1  0  0  0  0
 13  3  1  0  0  0  0
 13 14  2  0  0  0  0
 15 14  1  0  0  0  0
 15 19  1  0  0  0  0
 16 15  2  0  0  0  0
 17 11  1  0  0  0  0
 18 12  1  0  0  0  0
 20 21  1  6  0  0  0
 20 22  1  0  0  0  0
 22 32  2  0  0  0  0
 22 23  1  0  0  0  0
 23 24  1  0  0  0  0
 23 25  2  0  0  0  0
 25 26  1  0  0  0  0
 27 26  2  0  0  0  0
 28 27  1  0  0  0  0
 29 28  2  0  0  0  0
 30 31  2  0  0  0  0
 30 29  1  0  0  0  0
 31 32  1  0  0  0  0
 32 27  1  0  0  0  0
M  END
>  <minimizedAffinity>
-6.42808437

$$$$

 OpenBabel03242520023D

 32 35  0  0  1  0  0  0  0  0999 V2000
   36.2210   26.6350   38.6850 Br  0  0  0  0  0  0  0  0  0  0  0  0
   36.7110   26.8630   40.5190 C   0  0  0  0  0  0  0  0  0  0  0  0
   37.3840   25.8910   41.2430 C   0  0  0  0  0  0  0  0  0  0  0  0
   37.6860   26.1580   42.5630 C   0  0  0  0  0  0  0  0  0  0  0  0
   37.3470   27.3440   43.1830 C   0  0  0  0  0  0  0  0  0  0  0  0
   36.6700   28.3250   42.4560 C   0  0  0  0  0  0  0  0  0  0  0  0
   36.3790   28.0360   41.1420 C   0  0  0  0  0  0  0  0  0  0  0  0
   38.2130   25.3860   43.1170 H   0  0  0  0  0  0  0  0  0  0  0  0
   37.6110   27.4930   44.2190 H   0  0  0  0  0  0  0  0  0  0  0  0
   36.4110   29.2510   42.9610 H   0  0  0  0  0  0  0  0  0  0  0  0
   37.2750   22.4000   39.8050 C   0  0  0  0  0  0  0  0  0  0  0  0
   36.8960   23.5630   40.4930 C   0  0  0  0  0  0  0  0  0  0  0  0
   37.7220   24.6600   40.5460 C   0  0  0  0  0  0  0  0  0  0  0  0
   38.8940   24.5030   39.8870 N   0  0  0  0  0  0  0  0  0  0  0  0
   39.2660   23.4030   39.2290 C   0  0  0  0  0  0  0  0  0  0  0  0
   38.4540   22.3520   39.1900 N   0  0  0  0  0  0  0  0  0  0  0  0
   36.6230   21.5410   39.7670 H   0  0  0  0  0  0  0  0  0  0  0  0
   35.9380   23.5910   40.9890 H   0  0  0  0  0  0  0  0  0  0  0  0
   40.2410   23.4660   38.7620 H   0  0  0  0  0  0  0  0  0  0  0  0
   35.6840   29.0710   40.4080 C   0  0  1  0  0  3  0  0  0  0  0  0
   34.4070   29.0100   40.2420 O   0  0  0  0  0  1  0  0  0  0  0  0
   36.3660   30.2240   39.8270 C   0  0  0  0  0  0  0  0  0  0  0  0
   36.7440   31.2080   40.7530 C   0  0  0  0  0  0  0  0  0  0  0  0
   36.5480   31.0870   41.8210 H   0  0  0  0  0  0  0  0  0  0  0  0
   37.3780   32.3810   40.4090 C   0  0  0  0  0  3  0  0  0  0  0  0
   37.6720   32.6320   39.0900 C   0  0  0  0  0  3  0  0  0  0  0  0
   37.3040   31.6700   38.1750 C   0  0  0  0  0  0  0  0  0  0  0  0
   37.5520   31.8150   36.8220 C   0  0  0  0  0  3  0  0  0  0  0  0
   37.1970   30.8640   35.8740 C   0  0  0  0  0  3  0  0  0  0  0  0
   36.5550   29.6920   36.2910 C   0  0  0  0  0  3  0  0  0  0  0  0
   36.2930   29.5160   37.6300 C   0  0  0  0  0  3  0  0  0  0  0  0
   36.6690   30.4930   38.5080 C   0  0  0  0  0  0  0  0  0  0  0  0
  1  2  1  0  0  0  0
  2  7  2  0  0  0  0
  2  3  1  0  0  0  0
  3  4  2  0  0  0  0
  4  8  1  0  0  0  0
  4  5  1  0  0  0  0
  5  9  1  0  0  0  0
  6 10  1  0  0  0  0
  6  5  2  0  0  0  0
  7  6  1  0  0  0  0
 11 12  1  0  0  0  0
 12 13  2  0  0  0  0
 12 18  1  0  0  0  0
 13  3  1  0  0  0  0
 14 13  1  0  0  0  0
 15 14  2  0  0  0  0
 16 15  1  0  0  0  0
 16 11  2  0  0  0  0
 17 11  1  0  0  0  0
 19 15  1  0  0  0  0
 20 21  1  1  0  0  0
 20  7  1  0  0  0  0
 22 20  1  0  0  0  0
 22 23  1  0  0  0  0
 23 24  1  0  0  0  0
 25 23  2  0  0  0  0
 26 25  1  0  0  0  0
 27 32  1  0  0  0  0
 27 26  2  0  0  0  0
 28 27  1  0  0  0  0
 29 30  1  0  0  0  0
 29 28  2  0  0  0  0
 30 31  2  0  0  0  0
 31 32  1  0  0  0  0
 32 22  2  0  0  0  0
M  END
>  <minimizedAffinity>
-6.32779026

$$$$

 OpenBabel03242520023D

 32 35  0  0  1  0  0  0  0  0999 V2000
   40.7420   29.4480   40.7380 Br  0  0  0  0  0  0  0  0  0  0  0  0
   39.2280   30.5470   40.3450 C   0  0  0  0  0  0  0  0  0  0  0  0
   39.2710   31.5820   39.4230 C   0  0  0  0  0  0  0  0  0  0  0  0
   38.1200   32.3150   39.2170 C   0  0  0  0  0  0  0  0  0  0  0  0
   36.9400   32.0600   39.8870 C   0  0  0  0  0  0  0  0  0  0  0  0
   36.8940   31.0180   40.8150 C   0  0  0  0  0  0  0  0  0  0  0  0
   38.0530   30.3010   41.0040 C   0  0  0  0  0  0  0  0  0  0  0  0
   38.1700   33.1240   38.4920 H   0  0  0  0  0  0  0  0  0  0  0  0
   36.0730   32.6700   39.6820 H   0  0  0  0  0  0  0  0  0  0  0  0
   35.9580   30.8330   41.3320 H   0  0  0  0  0  0  0  0  0  0  0  0
   42.6820   32.8920   38.4690 C   0  0  0  0  0  0  0  0  0  0  0  0
   41.4790   32.7120   39.1680 C   0  0  0  0  0  0  0  0  0  0  0  0
   40.5350   31.8110   38.7400 C   0  0  0  0  0  0  0  0  0  0  0  0
   40.8790   31.1390   37.6160 N   0  0  0  0  0  0  0  0  0  0  0  0
   42.0190   31.3000   36.9420 C   0  0  0  0  0  0  0  0  0  0  0  0
   42.9200   32.1770   37.3710 N   0  0  0  0  0  0  0  0  0  0  0  0
   43.4210   33.6020   38.8080 H   0  0  0  0  0  0  0  0  0  0  0  0
   41.2970   33.2960   40.0570 H   0  0  0  0  0  0  0  0  0  0  0  0
   42.1160   30.6730   36.0650 H   0  0  0  0  0  0  0  0  0  0  0  0
   37.9780   29.2220   41.9650 C   0  0  1  0  0  3  0  0  0  0  0  0
   38.0460   29.4660   43.2290 O   0  0  0  0  0  1  0  0  0  0  0  0
   37.8210   27.8240   41.5740 C   0  0  0  0  0  0  0  0  0  0  0  0
   36.9050   27.6070   40.5340 C   0  0  0  0  0  0  0  0  0  0  0  0
   36.3790   28.4380   40.0580 H   0  0  0  0  0  0  0  0  0  0  0  0
   36.5950   26.3620   40.0320 C   0  0  0  0  0  3  0  0  0  0  0  0
   37.2020   25.2470   40.5600 C   0  0  0  0  0  3  0  0  0  0  0  0
   38.1020   25.4530   41.5830 C   0  0  0  0  0  0  0  0  0  0  0  0
   38.7730   24.4060   42.1860 C   0  0  0  0  0  3  0  0  0  0  0  0
   39.6900   24.5780   43.2160 C   0  0  0  0  0  3  0  0  0  0  0  0
   39.9600   25.8710   43.6800 C   0  0  0  0  0  3  0  0  0  0  0  0
   39.3090   26.9350   43.1010 C   0  0  0  0  0  3  0  0  0  0  0  0
   38.4200   26.6940   42.0920 C   0  0  0  0  0  0  0  0  0  0  0  0
  2  1  1  0  0  0  0
  2  7  1  0  0  0  0
  3  2  2  0  0  0  0
  4  3  1  0  0  0  0
  4  5  2  0  0  0  0
  5  6  1  0  0  0  0
  6  7  2  0  0  0  0
  6 10  1  0  0  0  0
  7 20  1  0  0  0  0
  8  4  1  0  0  0  0
  9  5  1  0  0  0  0
 11 17  1  0  0  0  0
 11 12  1  0  0  0  0
 12 18  1  0  0  0  0
 13 12  2  0  0  0  0
 13  3  1  0  0  0  0
 14 13  1  0  0  0  0
 15 16  1  0  0  0  0
 15 14  2  0  0  0  0
 16 11  2  0  0  0  0
 19 15  1  0  0  0  0
 20 21  1  1  0  0  0
 22 20  1  0  0  0  0
 22 32  1  0  0  0  0
 23 22  2  0  0  0  0
 24 23  1  0  0  0  0
 25 23  1  0  0  0  0
 25 26  2  0  0  0  0
 26 27  1  0  0  0  0
 27 32  2  0  0  0  0
 27 28  1  0  0  0  0
 28 29  2  0  0  0  0
 29 30  1  0  0  0  0
 31 30  2  0  0  0  0
 32 31  1  0  0  0  0
M  END
>  <minimizedAffinity>
-6.16884041

$$$$

 OpenBabel03242520023D

 32 35  0  0  1  0  0  0  0  0999 V2000
   36.6410   27.0840   39.3320 Br  0  0  0  0  0  0  0  0  0  0  0  0
   36.7660   28.9750   39.5920 C   0  0  0  0  0  0  0  0  0  0  0  0
   36.5750   29.8880   38.5670 C   0  0  0  0  0  0  0  0  0  0  0  0
   36.6920   31.2300   38.8640 C   0  0  0  0  0  0  0  0  0  0  0  0
   36.9890   31.6940   40.1310 C   0  0  0  0  0  0  0  0  0  0  0  0
   37.1810   30.7760   41.1640 C   0  0  0  0  0  0  0  0  0  0  0  0
   37.0600   29.4430   40.8450 C   0  0  0  0  0  0  0  0  0  0  0  0
   36.5400   31.9340   38.0490 H   0  0  0  0  0  0  0  0  0  0  0  0
   37.0680   32.7570   40.2990 H   0  0  0  0  0  0  0  0  0  0  0  0
   37.4150   31.1590   42.1540 H   0  0  0  0  0  0  0  0  0  0  0  0
   34.7400   28.5730   35.5390 C   0  0  0  0  0  0  0  0  0  0  0  0
   34.9840   29.0900   36.8200 C   0  0  0  0  0  0  0  0  0  0  0  0
   36.2610   29.3530   37.2510 C   0  0  0  0  0  0  0  0  0  0  0  0
   37.2230   29.0720   36.3400 N   0  0  0  0  0  0  0  0  0  0  0  0
   37.0040   28.5800   35.1180 C   0  0  0  0  0  0  0  0  0  0  0  0
   35.7620   28.3320   34.7200 N   0  0  0  0  0  0  0  0  0  0  0  0
   33.7350   28.3680   35.2050 H   0  0  0  0  0  0  0  0  0  0  0  0
   34.1480   29.2820   37.4760 H   0  0  0  0  0  0  0  0  0  0  0  0
   37.9000   28.4200   34.5310 H   0  0  0  0  0  0  0  0  0  0  0  0
   37.2570   28.5120   41.9350 C   0  0  1  0  0  3  0  0  0  0  0  0
   36.2470   28.0500   42.5900 O   0  0  0  0  0  1  0  0  0  0  0  0
   38.5770   28.0480   42.3510 C   0  0  0  0  0  0  0  0  0  0  0  0
   39.5190   29.0680   42.5510 C   0  0  0  0  0  0  0  0  0  0  0  0
   39.2540   30.1200   42.4190 H   0  0  0  0  0  0  0  0  0  0  0  0
   40.8260   28.8430   42.9230 C   0  0  0  0  0  3  0  0  0  0  0  0
   41.2640   27.5550   43.1180 C   0  0  0  0  0  3  0  0  0  0  0  0
   40.3440   26.5470   42.9230 C   0  0  0  0  0  0  0  0  0  0  0  0
   40.6720   25.2150   43.0930 C   0  0  0  0  0  3  0  0  0  0  0  0
   39.7690   24.1760   42.9080 C   0  0  0  0  0  3  0  0  0  0  0  0
   38.4540   24.4740   42.5300 C   0  0  0  0  0  3  0  0  0  0  0  0
   38.0950   25.7890   42.3520 C   0  0  0  0  0  3  0  0  0  0  0  0
   39.0340   26.7610   42.5510 C   0  0  0  0  0  0  0  0  0  0  0  0
  1  2  1  0  0  0  0
  2  7  1  0  0  0  0
  3  4  1  0  0  0  0
  3  2  2  0  0  0  0
  4  5  2  0  0  0  0
  5  9  1  0  0  0  0
  5  6  1  0  0  0  0
  6 10  1  0  0  0  0
  7  6  2  0  0  0  0
  7 20  1  0  0  0  0
  8  4  1  0  0  0  0
 11 12  1  0  0  0  0
 12 13  2  0  0  0  0
 12 18  1  0  0  0  0
 13  3  1  0  0  0  0
 14 13  1  0  0  0  0
 15 14  2  0  0  0  0
 16 15  1  0  0  0  0
 16 11  2  0  0  0  0
 17 11  1  0  0  0  0
 19 15  1  0  0  0  0
 20 22  1  0  0  0  0
 20 21  1  6  0  0  0
 22 23  2  0  0  0  0
 22 32  1  0  0  0  0
 23 25  1  0  0  0  0
 24 23  1  0  0  0  0
 25 26  2  0  0  0  0
 27 28  1  0  0  0  0
 27 26  1  0  0  0  0
 29 28  2  0  0  0  0
 30 29  1  0  0  0  0
 31 30  2  0  0  0  0
 31 32  1  0  0  0  0
 32 27  2  0  0  0  0
M  END
>  <minimizedAffinity>
-6.10787725

$$$$

 OpenBabel03242520023D

 32 35  0  0  1  0  0  0  0  0999 V2000
   41.5070   29.7650   40.1480 Br  0  0  0  0  0  0  0  0  0  0  0  0
   40.9030   31.5650   39.9210 C   0  0  0  0  0  0  0  0  0  0  0  0
   41.3900   32.4000   38.9280 C   0  0  0  0  0  0  0  0  0  0  0  0
   40.8870   33.6830   38.8560 C   0  0  0  0  0  0  0  0  0  0  0  0
   39.9260   34.1610   39.7250 C   0  0  0  0  0  0  0  0  0  0  0  0
   39.4350   33.3210   40.7260 C   0  0  0  0  0  0  0  0  0  0  0  0
   39.9510   32.0470   40.7790 C   0  0  0  0  0  0  0  0  0  0  0  0
   41.2790   34.3260   38.0720 H   0  0  0  0  0  0  0  0  0  0  0  0
   39.5730   35.1750   39.6170 H   0  0  0  0  0  0  0  0  0  0  0  0
   38.6800   33.7140   41.4010 H   0  0  0  0  0  0  0  0  0  0  0  0
   44.6700   31.5580   37.2550 C   0  0  0  0  0  0  0  0  0  0  0  0
   43.7410   32.1160   38.1480 C   0  0  0  0  0  0  0  0  0  0  0  0
   42.3980   31.8520   38.0340 C   0  0  0  0  0  0  0  0  0  0  0  0
   42.0800   31.0260   37.0100 N   0  0  0  0  0  0  0  0  0  0  0  0
   42.9530   30.4890   36.1550 C   0  0  0  0  0  0  0  0  0  0  0  0
   44.2480   30.7560   36.2790 N   0  0  0  0  0  0  0  0  0  0  0  0
   45.7240   31.7690   37.3480 H   0  0  0  0  0  0  0  0  0  0  0  0
   44.0940   32.7640   38.9350 H   0  0  0  0  0  0  0  0  0  0  0  0
   42.5090   29.8520   35.3990 H   0  0  0  0  0  0  0  0  0  0  0  0
   39.4190   31.1940   41.8200 C   0  0  1  0  0  3  0  0  0  0  0  0
   39.9450   31.1930   42.9970 O   0  0  0  0  0  1  0  0  0  0  0  0
   38.2810   30.3040   41.6090 C   0  0  0  0  0  0  0  0  0  0  0  0
   37.2210   30.8720   40.8870 C   0  0  0  0  0  0  0  0  0  0  0  0
   37.2770   31.8940   40.5060 H   0  0  0  0  0  0  0  0  0  0  0  0
   36.0480   30.2110   40.5990 C   0  0  0  0  0  3  0  0  0  0  0  0
   35.8740   28.9170   41.0310 C   0  0  0  0  0  3  0  0  0  0  0  0
   36.9110   28.3530   41.7420 C   0  0  0  0  0  0  0  0  0  0  0  0
   36.8480   27.0580   42.2230 C   0  0  0  0  0  3  0  0  0  0  0  0
   37.8760   26.4580   42.9400 C   0  0  0  0  0  3  0  0  0  0  0  0
   39.0430   27.1860   43.1970 C   0  0  0  0  0  3  0  0  0  0  0  0
   39.1390   28.4780   42.7330 C   0  0  0  0  0  3  0  0  0  0  0  0
   38.0890   29.0050   42.0350 C   0  0  0  0  0  0  0  0  0  0  0  0
  2  1  1  0  0  0  0
  2  7  1  0  0  0  0
  3  2  2  0  0  0  0
  4  3  1  0  0  0  0
  4  5  2  0  0  0  0
  5  6  1  0  0  0  0
  6  7  2  0  0  0  0
  6 10  1  0  0  0  0
  7 20  1  0  0  0  0
  8  4  1  0  0  0  0
  9  5  1  0  0  0  0
 11 17  1  0  0  0  0
 11 12  1  0  0  0  0
 12 18  1  0  0  0  0
 13 12  2  0  0  0  0
 13  3  1  0  0  0  0
 14 13  1  0  0  0  0
 15 16  1  0  0  0  0
 15 14  2  0  0  0  0
 16 11  2  0  0  0  0
 19 15  1  0  0  0  0
 20 21  1  1  0  0  0
 22 20  1  0  0  0  0
 22 32  1  0  0  0  0
 23 22  2  0  0  0  0
 24 23  1  0  0  0  0
 25 23  1  0  0  0  0
 25 26  2  0  0  0  0
 26 27  1  0  0  0  0
 27 32  2  0  0  0  0
 27 28  1  0  0  0  0
 28 29  2  0  0  0  0
 29 30  1  0  0  0  0
 31 30  2  0  0  0  0
 32 31  1  0  0  0  0
M  END
>  <minimizedAffinity>
-6.08342266

$$$$

 OpenBabel03242520023D

 32 35  0  0  1  0  0  0  0  0999 V2000
   37.1280   26.5770   39.8410 Br  0  0  0  0  0  0  0  0  0  0  0  0
   36.8850   28.4600   40.0640 C   0  0  0  0  0  0  0  0  0  0  0  0
   36.6040   29.3110   39.0070 C   0  0  0  0  0  0  0  0  0  0  0  0
   36.4500   30.6550   39.2800 C   0  0  0  0  0  0  0  0  0  0  0  0
   36.5640   31.1790   40.5530 C   0  0  0  0  0  0  0  0  0  0  0  0
   36.8470   30.3230   41.6190 C   0  0  0  0  0  0  0  0  0  0  0  0
   36.9970   28.9870   41.3230 C   0  0  0  0  0  0  0  0  0  0  0  0
   36.2310   31.3100   38.4400 H   0  0  0  0  0  0  0  0  0  0  0  0
   36.4340   32.2400   40.7010 H   0  0  0  0  0  0  0  0  0  0  0  0
   36.9340   30.7530   42.6120 H   0  0  0  0  0  0  0  0  0  0  0  0
   35.2460   27.7750   35.8350 C   0  0  0  0  0  0  0  0  0  0  0  0
   35.2950   28.3490   37.1150 C   0  0  0  0  0  0  0  0  0  0  0  0
   36.4900   28.7140   37.6860 C   0  0  0  0  0  0  0  0  0  0  0  0
   37.5730   28.4720   36.9090 N   0  0  0  0  0  0  0  0  0  0  0  0
   37.5390   27.9270   35.6910 C   0  0  0  0  0  0  0  0  0  0  0  0
   36.3740   27.5800   35.1560 N   0  0  0  0  0  0  0  0  0  0  0  0
   34.3040   27.4900   35.3910 H   0  0  0  0  0  0  0  0  0  0  0  0
   34.3750   28.5020   37.6570 H   0  0  0  0  0  0  0  0  0  0  0  0
   38.5090   27.8120   35.2220 H   0  0  0  0  0  0  0  0  0  0  0  0
   37.2810   28.1210   42.4460 C   0  0  1  0  0  3  0  0  0  0  0  0
   36.3260   27.6800   43.1900 O   0  0  0  0  0  1  0  0  0  0  0  0
   38.6340   27.6990   42.7970 C   0  0  0  0  0  0  0  0  0  0  0  0
   38.7550   26.3430   43.1370 C   0  0  0  0  0  0  0  0  0  0  0  0
   37.8930   25.6730   43.1120 H   0  0  0  0  0  0  0  0  0  0  0  0
   39.9380   25.7510   43.5200 C   0  0  0  0  0  3  0  0  0  0  0  0
   41.0860   26.5050   43.5820 C   0  0  0  0  0  3  0  0  0  0  0  0
   40.9750   27.8380   43.2510 C   0  0  0  0  0  0  0  0  0  0  0  0
   42.0630   28.6910   43.2750 C   0  0  0  0  0  3  0  0  0  0  0  0
   41.9870   30.0370   42.9440 C   0  0  0  0  0  3  0  0  0  0  0  0
   40.7530   30.5770   42.5630 C   0  0  0  0  0  3  0  0  0  0  0  0
   39.6490   29.7570   42.5280 C   0  0  0  0  0  3  0  0  0  0  0  0
   39.7960   28.4410   42.8660 C   0  0  0  0  0  0  0  0  0  0  0  0
  1  2  1  0  0  0  0
  2  7  1  0  0  0  0
  3  4  1  0  0  0  0
  3  2  2  0  0  0  0
  4  5  2  0  0  0  0
  5  9  1  0  0  0  0
  5  6  1  0  0  0  0
  6 10  1  0  0  0  0
  7  6  2  0  0  0  0
  7 20  1  0  0  0  0
  8  4  1  0  0  0  0
 11 12  1  0  0  0  0
 12 18  1  0  0  0  0
 12 13  2  0  0  0  0
 13  3  1  0  0  0  0
 14 13  1  0  0  0  0
 15 14  2  0  0  0  0
 16 15  1  0  0  0  0
 16 11  2  0  0  0  0
 17 11  1  0  0  0  0
 19 15  1  0  0  0  0
 20 22  1  0  0  0  0
 20 21  1  6  0  0  0
 22 32  2  0  0  0  0
 22 23  1  0  0  0  0
 23 25  2  0  0  0  0
 24 23  1  0  0  0  0
 25 26  1  0  0  0  0
 27 28  1  0  0  0  0
 27 26  2  0  0  0  0
 29 28  2  0  0  0  0
 30 29  1  0  0  0  0
 31 30  2  0  0  0  0
 31 32  1  0  0  0  0
 32 27  1  0  0  0  0
M  END
>  <minimizedAffinity>
-6.07317829

$$$$

 OpenBabel03242520023D

 32 35  0  0  1  0  0  0  0  0999 V2000
   37.2330   28.5690   40.2160 Br  0  0  0  0  0  0  0  0  0  0  0  0
   36.9390   26.7010   40.5020 C   0  0  0  0  0  0  0  0  0  0  0  0
   36.4620   25.8560   39.5120 C   0  0  0  0  0  0  0  0  0  0  0  0
   36.2830   24.5250   39.8270 C   0  0  0  0  0  0  0  0  0  0  0  0
   36.5590   24.0070   41.0770 C   0  0  0  0  0  0  0  0  0  0  0  0
   37.0400   24.8570   42.0750 C   0  0  0  0  0  0  0  0  0  0  0  0
   37.2100   26.1800   41.7380 C   0  0  0  0  0  0  0  0  0  0  0  0
   35.9070   23.8750   39.0400 H   0  0  0  0  0  0  0  0  0  0  0  0
   36.3980   22.9560   41.2620 H   0  0  0  0  0  0  0  0  0  0  0  0
   37.2510   24.4320   43.0520 H   0  0  0  0  0  0  0  0  0  0  0  0
   36.7590   27.0140   35.9290 C   0  0  0  0  0  0  0  0  0  0  0  0
   37.0780   26.4280   37.1640 C   0  0  0  0  0  0  0  0  0  0  0  0
   36.1880   26.4460   38.2100 C   0  0  0  0  0  0  0  0  0  0  0  0
   35.0160   27.0630   37.9310 N   0  0  0  0  0  0  0  0  0  0  0  0
   34.7010   27.6230   36.7620 C   0  0  0  0  0  0  0  0  0  0  0  0
   35.5750   27.5970   35.7610 N   0  0  0  0  0  0  0  0  0  0  0  0
   37.4620   26.9980   35.1100 H   0  0  0  0  0  0  0  0  0  0  0  0
   38.0410   25.9580   37.2890 H   0  0  0  0  0  0  0  0  0  0  0  0
   33.7150   28.0710   36.7280 H   0  0  0  0  0  0  0  0  0  0  0  0
   37.7170   27.0380   42.7880 C   0  0  1  0  0  3  0  0  0  0  0  0
   36.9060   27.6570   43.5740 O   0  0  0  0  0  1  0  0  0  0  0  0
   39.1430   27.2480   43.0170 C   0  0  0  0  0  0  0  0  0  0  0  0
   39.8520   26.0960   43.3920 C   0  0  0  0  0  0  0  0  0  0  0  0
   39.3550   25.1270   43.4770 H   0  0  0  0  0  0  0  0  0  0  0  0
   41.1990   26.0830   43.6760 C   0  0  0  0  0  3  0  0  0  0  0  0
   41.9210   27.2510   43.5970 C   0  0  0  0  0  3  0  0  0  0  0  0
   41.2310   28.3870   43.2300 C   0  0  0  0  0  0  0  0  0  0  0  0
   41.8550   29.6150   43.1160 C   0  0  0  0  0  3  0  0  0  0  0  0
   41.1910   30.7780   42.7460 C   0  0  0  0  0  3  0  0  0  0  0  0
   39.8200   30.7220   42.4700 C   0  0  0  0  0  3  0  0  0  0  0  0
   39.1690   29.5150   42.5740 C   0  0  0  0  0  3  0  0  0  0  0  0
   39.8840   28.4110   42.9440 C   0  0  0  0  0  0  0  0  0  0  0  0
  1  2  1  0  0  0  0
  2  7  1  0  0  0  0
  3  4  1  0  0  0  0
  3  2  2  0  0  0  0
  4  5  2  0  0  0  0
  5  9  1  0  0  0  0
  5  6  1  0  0  0  0
  6 10  1  0  0  0  0
  7  6  2  0  0  0  0
  7 20  1  0  0  0  0
  8  4  1  0  0  0  0
 11 12  1  0  0  0  0
 12 18  1  0  0  0  0
 12 13  2  0  0  0  0
 13  3  1  0  0  0  0
 14 13  1  0  0  0  0
 15 14  2  0  0  0  0
 16 11  2  0  0  0  0
 16 15  1  0  0  0  0
 17 11  1  0  0  0  0
 19 15  1  0  0  0  0
 20 22  1  0  0  0  0
 20 21  1  1  0  0  0
 22 23  1  0  0  0  0
 23 24  1  0  0  0  0
 23 25  2  0  0  0  0
 26 25  1  0  0  0  0
 27 26  2  0  0  0  0
 28 27  1  0  0  0  0
 29 28  2  0  0  0  0
 30 31  2  0  0  0  0
 30 29  1  0  0  0  0
 31 32  1  0  0  0  0
 32 22  2  0  0  0  0
 32 27  1  0  0  0  0
M  END
>  <minimizedAffinity>
-6.05482197

$$$$
