
 OpenBabel03252502563D

 39 42  0  0  0  0  0  0  0  0999 V2000
   45.5140   30.0800   44.5640 Br  0  0  0  0  0  0  0  0  0  0  0  0
   45.5820   30.4970   46.4390 C   0  0  0  0  0  0  0  0  0  0  0  0
   46.3110   31.6010   46.7790 C   0  0  0  0  0  0  0  0  0  0  0  0
   46.3450   31.8840   48.1460 C   0  0  0  0  0  0  0  0  0  0  0  0
   45.6980   31.1230   49.0980 C   0  0  0  0  0  0  0  0  0  0  0  0
   44.9840   30.0270   48.6780 C   0  0  0  0  0  0  0  0  0  0  0  0
   44.9130   29.6970   47.3450 C   0  0  0  0  0  0  0  0  0  0  0  0
   46.9070   32.7480   48.5020 H   0  0  0  0  0  0  0  0  0  0  0  0
   45.7400   31.3630   50.1490 H   0  0  0  0  0  0  0  0  0  0  0  0
   44.4480   29.3770   49.3620 H   0  0  0  0  0  0  0  0  0  0  0  0
   47.0440   32.4940   45.8880 C   0  0  0  0  0  0  0  0  0  0  0  0
   47.4900   31.8870   45.0610 H   0  0  0  0  0  0  0  0  0  0  0  0
   47.9230   32.9150   46.4460 H   0  0  0  0  0  0  0  0  0  0  0  0
   44.5610   35.2400   45.4930 C   0  0  0  0  0  0  0  0  0  0  0  0
   44.7880   35.6570   44.1710 C   0  0  0  0  0  0  0  0  0  0  0  0
   45.7850   34.9850   43.4530 C   0  0  0  0  0  0  0  0  0  0  0  0
   46.4750   33.9910   44.0320 N   0  0  0  0  0  0  0  0  0  0  0  0
   46.2370   33.5990   45.3280 C   0  0  0  0  0  0  0  0  0  0  0  0
   45.2810   34.2490   46.0040 N   0  0  0  0  0  0  0  0  0  0  0  0
   43.8190   35.6780   46.1500 H   0  0  0  0  0  0  0  0  0  0  0  0
   44.1740   36.4680   43.8050 H   0  0  0  0  0  0  0  0  0  0  0  0
   45.9500   35.3090   42.4520 H   0  0  0  0  0  0  0  0  0  0  0  0
   44.1880   28.5870   46.9240 O   0  0  0  0  0  0  0  0  0  0  0  0
   45.1450   26.5200   45.6950 O   0  0  0  0  0  0  0  0  0  0  0  0
   44.7530   26.9900   47.0960 P   0  0  2  0  0  0  0  0  0  0  0  0
   43.4940   26.0600   47.6930 O   0  0  0  0  0  0  0  0  0  0  0  0
   43.2200   25.3750   47.0440 H   0  0  0  0  0  0  0  0  0  0  0  0
   46.1150   26.9180   48.0800 O   0  0  0  0  0  0  0  0  0  0  0  0
   47.0850   25.9290   47.9580 C   0  0  0  0  0  0  0  0  0  0  0  0
   48.0950   25.9100   47.0190 C   0  0  0  0  0  0  0  0  0  0  0  0
   48.1400   26.7250   46.3230 H   0  0  0  0  0  0  0  0  0  0  0  0
   49.0180   24.8780   46.9760 C   0  0  0  0  0  3  0  0  0  0  0  0
   48.8930   23.8630   47.9080 C   0  0  0  0  0  3  0  0  0  0  0  0
   47.8860   23.8420   48.8750 C   0  0  0  0  0  0  0  0  0  0  0  0
   47.8170   22.7950   49.7800 C   0  0  0  0  0  3  0  0  0  0  0  0
   46.8040   22.7960   50.7370 C   0  0  0  0  0  3  0  0  0  0  0  0
   45.8870   23.8410   50.7640 C   0  0  0  0  0  3  0  0  0  0  0  0
   46.0110   24.8530   49.8350 C   0  0  0  0  0  3  0  0  0  0  0  0
   46.9860   24.8980   48.8780 C   0  0  0  0  0  0  0  0  0  0  0  0
  1  2  1  0  0  0  0
  2  3  2  0  0  0  0
  2  7  1  0  0  0  0
  3  4  1  0  0  0  0
  4  8  1  0  0  0  0
  4  5  2  0  0  0  0
  5  9  1  0  0  0  0
  6  5  1  0  0  0  0
  6 10  1  0  0  0  0
  7  6  2  0  0  0  0
 11 13  1  0  0  0  0
 11  3  1  0  0  0  0
 12 11  1  0  0  0  0
 14 19  1  0  0  0  0
 14 20  1  0  0  0  0
 15 14  2  0  0  0  0
 16 17  2  0  0  0  0
 16 15  1  0  0  0  0
 17 18  1  0  0  0  0
 18 11  1  0  0  0  0
 18 19  2  0  0  0  0
 21 15  1  0  0  0  0
 22 16  1  0  0  0  0
 23 25  1  0  0  0  0
 23  7  1  0  0  0  0
 25 24  2  6  0  0  0
 25 26  1  0  0  0  0
 25 28  1  0  0  0  0
 27 26  1  0  0  0  0
 29 28  1  0  0  0  0
 29 39  1  0  0  0  0
 30 29  2  0  0  0  0
 31 30  1  0  0  0  0
 32 30  1  0  0  0  0
 32 33  2  0  0  0  0
 33 34  1  0  0  0  0
 34 39  2  0  0  0  0
 34 35  1  0  0  0  0
 35 36  2  0  0  0  0
 36 37  1  0  0  0  0
 38 37  2  0  0  0  0
 39 38  1  0  0  0  0
M  END
>  <minimizedAffinity>
-5.5285387

>  <minimizedRMSD>
0.915903986

$$$$
