
     RDKit          3D

 32 34  0  0  0  0  0  0  0  0999 V2000
   45.1906   35.2116   44.0642 C   0  0  0  0  0  0  0  0  0  0  0  0
   46.2131   34.5904   43.3604 C   0  0  0  0  0  0  0  0  0  0  0  0
   46.8923   33.5661   44.0544 C   0  0  0  0  0  0  0  0  0  0  0  0
   46.5243   33.2518   45.3289 N   0  0  0  0  0  0  0  0  0  0  0  0
   45.5118   33.9094   45.9447 C   0  0  0  0  0  0  0  0  0  0  0  0
   44.8442   34.8935   45.3057 N   0  0  0  0  0  0  0  0  0  0  0  0
   46.5613   34.9575   42.0061 C   0  0  1  0  0  0  0  0  0  0  0  0
   48.0585   35.2057   41.9415 C   0  0  0  0  0  0  0  0  0  0  0  0
   44.5989   36.0121   43.6434 H   0  0  0  0  0  0  0  0  0  0  0  0
   47.7119   33.0175   43.5832 H   0  0  0  0  0  0  0  0  0  0  0  0
   45.3909   33.4970   46.9515 H   0  0  0  0  0  0  0  0  0  0  0  0
   46.1270   35.9620   41.7837 H   0  0  0  0  0  0  0  0  0  0  0  0
   48.6378   34.4647   42.5032 H   0  0  0  0  0  0  0  0  0  0  0  0
   48.2881   36.2100   42.4017 H   0  0  0  0  0  0  0  0  0  0  0  0
   48.3872   35.2931   40.8812 H   0  0  0  0  0  0  0  0  0  0  0  0
   46.2205   33.9693   40.9599 C   0  0  0  0  0  0  0  0  0  0  0  0
   45.8038   34.4552   39.7114 C   0  0  0  0  0  0  0  0  0  0  0  0
   45.7305   35.5373   39.5592 H   0  0  0  0  0  0  0  0  0  0  0  0
   45.4699   33.6810   38.6306 C   0  0  0  0  0  0  0  0  0  0  0  0
   45.5457   32.3115   38.7702 C   0  0  0  0  0  0  0  0  0  0  0  0
   45.9475   31.7705   39.9710 C   0  0  0  0  0  0  0  0  0  0  0  0
   46.0228   30.4170   40.1327 C   0  0  0  0  0  0  0  0  0  0  0  0
   46.4204   29.8900   41.3441 C   0  0  0  0  0  0  0  0  0  0  0  0
   46.7470   30.7056   42.4072 C   0  0  0  0  0  0  0  0  0  0  0  0
   46.6644   32.0691   42.2231 C   0  0  0  0  0  0  0  0  0  0  0  0
   46.2716   32.5938   41.0249 C   0  0  0  0  0  0  0  0  0  0  0  0
   45.1573   34.1334   37.7002 H   0  0  0  0  0  0  0  0  0  0  0  0
   45.2899   31.6612   37.9376 H   0  0  0  0  0  0  0  0  0  0  0  0
   45.7635   29.8019   39.2910 H   0  0  0  0  0  0  0  0  0  0  0  0
   46.4574   28.8287   41.4037 H   0  0  0  0  0  0  0  0  0  0  0  0
   47.0460   30.2167   43.3154 H   0  0  0  0  0  0  0  0  0  0  0  0
   46.9113   32.6849   43.0466 H   0  0  0  0  0  0  0  0  0  0  0  0
  1  6  2  0
  2  1  1  0
  2  3  2  0
  3  4  1  0
  4  5  2  0
  6  5  1  0
  7  2  1  0
  8  7  1  0
  1  9  1  0
  3 10  1  0
  5 11  1  0
  7 12  1  6
  8 13  1  0
  8 14  1  0
  8 15  1  0
 16 17  2  0
 17 18  1  0
 17 19  1  0
 19 20  2  0
 20 21  1  0
 21 22  2  0
 22 23  1  0
 23 24  2  0
 24 25  1  0
 25 26  2  0
 26 16  1  0
 26 21  1  0
 19 27  1  0
 20 28  1  0
 22 29  1  0
 23 30  1  0
 24 31  1  0
 25 32  1  0
  7 16  1  0
M  ISO  8   9  14  10  14  11  14  12   8  13   8  14   8  15   8  18  15
M  END
>  <DihAtoms>  (1) 
1,6,15,16

>  <DihDeg>  (1) 
-95.70095803197756

$$$$
