
     RDKit          3D

 51 55  0  0  0  0  0  0  0  0999 V2000
   48.0609   34.5552   41.7376 C   0  0  0  0  0  0  0  0  0  0  0  0
   48.8188   35.8341   41.3715 C   0  0  0  0  0  0  0  0  0  0  0  0
   49.4511   34.7071   42.0572 C   0  0  0  0  0  0  0  0  0  0  0  0
   47.6696   33.7597   40.5378 C   0  0  0  0  0  0  0  0  0  0  0  0
   48.1376   34.3264   39.2088 C   0  0  0  0  0  0  0  0  0  0  0  0
   47.7424   33.2748   38.1635 C   0  0  0  0  0  0  0  0  0  0  0  0
   46.3619   33.4322   37.9777 O   0  0  0  0  0  0  0  0  0  0  0  0
   45.8216   32.8592   39.1547 C   0  0  0  0  0  0  0  0  0  0  0  0
   46.1470   33.7120   40.3576 C   0  0  0  0  0  0  0  0  0  0  0  0
   46.1329   35.7949   42.7876 C   0  0  0  0  0  0  0  0  0  0  0  0
   47.0124   34.7135   42.7947 C   0  0  0  0  0  0  0  0  0  0  0  0
   46.8873   33.7916   43.8298 C   0  0  0  0  0  0  0  0  0  0  0  0
   45.9276   33.9672   44.7880 N   0  0  0  0  0  0  0  0  0  0  0  0
   45.1121   35.0275   44.7261 C   0  0  0  0  0  0  0  0  0  0  0  0
   45.2001   35.9273   43.7570 N   0  0  0  0  0  0  0  0  0  0  0  0
   44.0910   35.2676   45.6816 N   0  0  0  0  0  0  0  0  0  0  0  0
   47.7748   32.6671   43.9994 C   0  0  0  0  0  0  0  0  0  0  0  0
   47.4590   31.4656   44.3525 O   0  0  0  0  0  0  0  0  0  0  0  0
   49.0850   36.0257   40.3167 H   0  0  0  0  0  0  0  0  0  0  0  0
   48.4706   36.7559   41.8828 H   0  0  0  0  0  0  0  0  0  0  0  0
   49.9551   35.0843   42.9495 H   0  0  0  0  0  0  0  0  0  0  0  0
   50.1733   34.0950   41.4360 H   0  0  0  0  0  0  0  0  0  0  0  0
   48.0092   32.7125   40.5707 H   0  0  0  0  0  0  0  0  0  0  0  0
   47.6768   35.2975   38.9912 H   0  0  0  0  0  0  0  0  0  0  0  0
   49.2648   34.3419   39.1763 H   0  0  0  0  0  0  0  0  0  0  0  0
   48.2965   33.4459   37.2228 H   0  0  0  0  0  0  0  0  0  0  0  0
   47.9049   32.2654   38.5402 H   0  0  0  0  0  0  0  0  0  0  0  0
   46.0640   31.8063   39.2661 H   0  0  0  0  0  0  0  0  0  0  0  0
   44.7110   32.9791   39.0039 H   0  0  0  0  0  0  0  0  0  0  0  0
   45.7066   34.7120   40.2072 H   0  0  0  0  0  0  0  0  0  0  0  0
   45.7541   33.1799   41.2384 H   0  0  0  0  0  0  0  0  0  0  0  0
   46.2476   36.4972   41.9763 H   0  0  0  0  0  0  0  0  0  0  0  0
   43.1184   35.1229   45.3030 H   0  0  0  0  0  0  0  0  0  0  0  0
   44.6208   35.5308   46.5241 H   0  0  0  0  0  0  0  0  0  0  0  0
   49.1819   32.3071   43.9103 C   0  0  0  0  0  0  0  0  0  0  0  0
   49.7845   31.8238   45.0623 C   0  0  0  0  0  0  0  0  0  0  0  0
   49.1888   31.7915   45.9864 H   0  0  0  0  0  0  0  0  0  0  0  0
   51.0765   31.3624   45.2076 C   0  0  0  0  0  0  0  0  0  0  0  0
   51.8146   31.4022   44.0638 C   0  0  0  0  0  0  0  0  0  0  0  0
   51.3162   31.8620   42.8670 C   0  0  0  0  0  0  0  0  0  0  0  0
   52.0302   31.9207   41.6819 C   0  0  0  0  0  0  0  0  0  0  0  0
   51.4593   32.3978   40.5150 C   0  0  0  0  0  0  0  0  0  0  0  0
   50.1511   32.8386   40.4752 C   0  0  0  0  0  0  0  0  0  0  0  0
   49.4288   32.7878   41.6395 C   0  0  0  0  0  0  0  0  0  0  0  0
   49.9891   32.3143   42.8041 C   0  0  0  0  0  0  0  0  0  0  0  0
   51.4460   31.0066   46.1545 H   0  0  0  0  0  0  0  0  0  0  0  0
   52.8379   31.0687   44.0524 H   0  0  0  0  0  0  0  0  0  0  0  0
   53.0469   31.5641   41.7701 H   0  0  0  0  0  0  0  0  0  0  0  0
   52.1615   32.3714   39.6879 H   0  0  0  0  0  0  0  0  0  0  0  0
   49.7863   33.1895   39.5439 H   0  0  0  0  0  0  0  0  0  0  0  0
   48.4127   33.1494   41.5655 H   0  0  0  0  0  0  0  0  0  0  0  0
  1  3  1  0
  1 11  1  0
  2  1  1  0
  2  3  1  0
  4  1  1  0
  5  4  1  0
  6  5  1  0
  7  6  1  0
  7  8  1  0
  8  9  1  0
  9  4  1  0
 10 11  2  0
 10 15  1  0
 11 12  1  0
 12 17  1  0
 12 13  2  0
 14 13  1  0
 14 16  1  0
 15 14  2  0
 17 18  2  0
  2 19  1  0
  2 20  1  0
  3 21  1  0
  3 22  1  0
  4 23  1  0
  5 24  1  0
  5 25  1  0
  6 26  1  0
  6 27  1  0
  8 28  1  0
  8 29  1  0
  9 30  1  0
  9 31  1  0
 10 32  1  0
 16 33  1  0
 16 34  1  0
 35 36  2  0
 36 37  1  0
 36 38  1  0
 38 39  2  0
 39 40  1  0
 40 41  2  0
 41 42  1  0
 42 43  2  0
 43 44  1  0
 44 45  2  0
 45 35  1  0
 45 40  1  0
 38 46  1  0
 39 47  1  0
 41 48  1  0
 42 49  1  0
 43 50  1  0
 44 51  1  0
 17 35  1  0
M  ISO  8  19  13  20  13  21  13  22  13  23  13  24  13  25  13  26  13
M  ISO  7  27  13  28  13  29  13  30  13  31  13  32  14  37  15
M  END
>  <DihAtoms>  (1) 
11,16,34,35

>  <DihDeg>  (1) 
60.33408583205941

$$$$
