
 OpenBabel03242523173D

 29 32  0  0  0  0  0  0  0  0999 V2000
   37.4900   28.9980   42.1780 C   0  0  0  0  0  0  0  0  0  0  0  0
   37.0800   29.3630   40.9370 C   0  0  0  0  0  0  0  0  0  0  0  0
   37.8270   30.3780   40.3380 C   0  0  0  0  0  0  0  0  0  0  0  0
   38.8970   30.9180   41.0460 N   0  0  0  0  0  0  0  0  0  0  0  0
   39.2250   30.5070   42.2510 C   0  0  0  0  0  0  0  0  0  0  0  0
   38.5200   29.5050   42.8860 N   0  0  0  0  0  0  0  0  0  0  0  0
   37.6090   30.7600   39.3510 H   0  0  0  0  0  0  0  0  0  0  0  0
   40.0800   31.0450   42.6390 H   0  0  0  0  0  0  0  0  0  0  0  0
   35.9240   28.8720   40.2710 C   0  0  0  0  0  0  0  0  0  0  0  0
   35.3600   29.2710   39.1060 C   0  0  0  0  0  0  0  0  0  0  0  0
   36.1180   27.9630   38.9780 C   0  0  0  0  0  0  0  0  0  0  0  0
   35.4590   28.0370   40.9520 H   0  0  0  0  0  0  0  0  0  0  0  0
   35.8410   30.0560   38.4470 H   0  0  0  0  0  0  0  0  0  0  0  0
   34.2660   29.2160   38.8160 H   0  0  0  0  0  0  0  0  0  0  0  0
   37.1640   27.9610   38.6840 H   0  0  0  0  0  0  0  0  0  0  0  0
   35.5120   27.0820   38.8560 H   0  0  0  0  0  0  0  0  0  0  0  0
   36.9790   27.8810   42.9770 C   0  0  0  0  0  0  0  0  0  0  0  0
   36.1030   27.4020   43.6800 O   0  0  0  0  0  0  0  0  0  0  0  0
   38.0330   26.8200   42.8930 C   0  0  0  0  0  0  0  0  0  0  0  0
   39.2030   26.9010   43.6620 C   0  0  0  0  0  0  0  0  0  0  0  0
   39.3580   27.7690   44.3110 H   0  0  0  0  0  0  0  0  0  0  0  0
   40.2090   25.9620   43.6800 C   0  0  0  0  0  3  0  0  0  0  0  0
   40.0470   24.8670   42.8820 C   0  0  0  0  0  3  0  0  0  0  0  0
   38.9310   24.7260   42.1070 C   0  0  0  0  0  0  0  0  0  0  0  0
   38.8060   23.6180   41.3120 C   0  0  0  0  0  3  0  0  0  0  0  0
   37.7110   23.4220   40.5040 C   0  0  0  0  0  3  0  0  0  0  0  0
   36.7200   24.4100   40.5230 C   0  0  0  0  0  3  0  0  0  0  0  0
   36.8820   25.5010   41.3290 C   0  0  0  0  0  3  0  0  0  0  0  0
   37.9630   25.7050   42.1380 C   0  0  0  0  0  0  0  0  0  0  0  0
  1  6  1  0  0  0  0
  1 17  1  0  0  0  0
  2  1  2  0  0  0  0
  3  2  1  0  0  0  0
  3  4  2  0  0  0  0
  4  5  1  0  0  0  0
  5  8  1  0  0  0  0
  5  6  2  0  0  0  0
  7  3  1  0  0  0  0
  9  2  1  0  0  0  0
  9 12  1  0  0  0  0
 10  9  1  0  0  0  0
 11 10  1  0  0  0  0
 11  9  1  0  0  0  0
 13 10  1  0  0  0  0
 14 10  1  0  0  0  0
 15 11  1  0  0  0  0
 16 11  1  0  0  0  0
 17 18  2  0  0  0  0
 19 17  1  0  0  0  0
 19 20  1  0  0  0  0
 20 22  2  0  0  0  0
 20 21  1  0  0  0  0
 23 22  1  0  0  0  0
 24 29  1  0  0  0  0
 24 23  2  0  0  0  0
 25 24  1  0  0  0  0
 26 27  1  0  0  0  0
 26 25  2  0  0  0  0
 27 28  2  0  0  0  0
 28 29  1  0  0  0  0
 29 19  2  0  0  0  0
M  END
>  <minimizedAffinity>
-6.00940847

$$$$

 OpenBabel03242523173D

 29 32  0  0  0  0  0  0  0  0999 V2000
   36.3840   27.5770   41.0810 C   0  0  0  0  0  0  0  0  0  0  0  0
   36.6990   26.5280   40.2810 C   0  0  0  0  0  0  0  0  0  0  0  0
   36.3960   26.6970   38.9300 C   0  0  0  0  0  0  0  0  0  0  0  0
   35.8090   27.8940   38.5270 N   0  0  0  0  0  0  0  0  0  0  0  0
   35.5320   28.8620   39.3740 C   0  0  0  0  0  0  0  0  0  0  0  0
   35.8140   28.7450   40.7190 N   0  0  0  0  0  0  0  0  0  0  0  0
   36.5980   25.9400   38.1850 H   0  0  0  0  0  0  0  0  0  0  0  0
   35.0780   29.7090   38.8770 H   0  0  0  0  0  0  0  0  0  0  0  0
   37.2050   25.2740   40.7230 C   0  0  0  0  0  0  0  0  0  0  0  0
   36.7930   24.4850   41.7430 C   0  0  0  0  0  0  0  0  0  0  0  0
   36.3780   23.9560   40.3820 C   0  0  0  0  0  0  0  0  0  0  0  0
   38.1380   25.0220   40.0570 H   0  0  0  0  0  0  0  0  0  0  0  0
   35.8710   24.7290   42.3540 H   0  0  0  0  0  0  0  0  0  0  0  0
   37.4220   23.7700   42.3580 H   0  0  0  0  0  0  0  0  0  0  0  0
   35.4140   24.2270   39.9600 H   0  0  0  0  0  0  0  0  0  0  0  0
   36.8990   23.0780   40.0430 H   0  0  0  0  0  0  0  0  0  0  0  0
   36.7090   27.7250   42.5020 C   0  0  0  0  0  0  0  0  0  0  0  0
   36.4100   27.5580   43.6740 O   0  0  0  0  0  0  0  0  0  0  0  0
   38.0410   28.4070   42.5340 C   0  0  0  0  0  0  0  0  0  0  0  0
   38.1670   29.7650   42.2040 C   0  0  0  0  0  0  0  0  0  0  0  0
   37.2790   30.3240   41.8910 H   0  0  0  0  0  0  0  0  0  0  0  0
   39.3390   30.4860   42.2380 C   0  0  0  0  0  3  0  0  0  0  0  0
   40.4650   29.8200   42.6240 C   0  0  0  0  0  3  0  0  0  0  0  0
   40.4130   28.4960   42.9590 C   0  0  0  0  0  0  0  0  0  0  0  0
   41.5650   27.8570   43.3330 C   0  0  0  0  0  3  0  0  0  0  0  0
   41.5790   26.5250   43.6740 C   0  0  0  0  0  3  0  0  0  0  0  0
   40.3600   25.8390   43.6200 C   0  0  0  0  0  3  0  0  0  0  0  0
   39.2340   26.5130   43.2400 C   0  0  0  0  0  3  0  0  0  0  0  0
   39.2060   27.8360   42.9020 C   0  0  0  0  0  0  0  0  0  0  0  0
  1 17  1  0  0  0  0
  2  9  1  0  0  0  0
  2  1  2  0  0  0  0
  3  2  1  0  0  0  0
  4  3  2  0  0  0  0
  4  5  1  0  0  0  0
  5  6  2  0  0  0  0
  6  1  1  0  0  0  0
  7  3  1  0  0  0  0
  8  5  1  0  0  0  0
  9 10  1  0  0  0  0
 10 13  1  0  0  0  0
 10 14  1  0  0  0  0
 11  9  1  0  0  0  0
 11 10  1  0  0  0  0
 12  9  1  0  0  0  0
 15 11  1  0  0  0  0
 16 11  1  0  0  0  0
 17 19  1  0  0  0  0
 17 18  2  0  0  0  0
 19 29  1  0  0  0  0
 20 22  1  0  0  0  0
 20 19  2  0  0  0  0
 21 20  1  0  0  0  0
 22 23  2  0  0  0  0
 23 24  1  0  0  0  0
 24 25  1  0  0  0  0
 25 26  2  0  0  0  0
 27 26  1  0  0  0  0
 28 27  2  0  0  0  0
 29 24  2  0  0  0  0
 29 28  1  0  0  0  0
M  END
>  <minimizedAffinity>
-5.81094694

$$$$

 OpenBabel03242523173D

 29 32  0  0  0  0  0  0  0  0999 V2000
   38.8220   27.4180   43.2540 C   0  0  0  0  0  0  0  0  0  0  0  0
   39.5640   28.5060   42.9260 C   0  0  0  0  0  0  0  0  0  0  0  0
   40.9450   28.3250   42.9850 C   0  0  0  0  0  0  0  0  0  0  0  0
   41.4340   27.0780   43.3680 N   0  0  0  0  0  0  0  0  0  0  0  0
   40.6410   26.0740   43.6750 C   0  0  0  0  0  0  0  0  0  0  0  0
   39.2680   26.2020   43.6300 N   0  0  0  0  0  0  0  0  0  0  0  0
   41.6500   29.1090   42.7460 H   0  0  0  0  0  0  0  0  0  0  0  0
   41.2020   25.1910   43.9490 H   0  0  0  0  0  0  0  0  0  0  0  0
   39.0490   29.8000   42.6350 C   0  0  0  0  0  0  0  0  0  0  0  0
   39.7030   30.9710   42.4520 C   0  0  0  0  0  0  0  0  0  0  0  0
   39.2030   30.3650   41.1540 C   0  0  0  0  0  0  0  0  0  0  0  0
   37.8790   29.7130   42.6240 H   0  0  0  0  0  0  0  0  0  0  0  0
   40.8350   31.0280   42.4350 H   0  0  0  0  0  0  0  0  0  0  0  0
   39.3200   32.0150   42.6680 H   0  0  0  0  0  0  0  0  0  0  0  0
   39.8430   29.7060   40.5740 H   0  0  0  0  0  0  0  0  0  0  0  0
   38.3730   30.8710   40.6920 H   0  0  0  0  0  0  0  0  0  0  0  0
   37.3670   27.2850   43.1500 C   0  0  0  0  0  0  0  0  0  0  0  0
   36.2630   27.3580   43.6670 O   0  0  0  0  0  0  0  0  0  0  0  0
   37.1070   26.8560   41.7400 C   0  0  0  0  0  0  0  0  0  0  0  0
   37.4780   25.5790   41.2930 C   0  0  0  0  0  0  0  0  0  0  0  0
   37.9900   24.8990   41.9820 H   0  0  0  0  0  0  0  0  0  0  0  0
   37.2510   25.0810   40.0300 C   0  0  0  0  0  3  0  0  0  0  0  0
   36.6140   25.9020   39.1470 C   0  0  0  0  0  3  0  0  0  0  0  0
   36.2260   27.1600   39.5170 C   0  0  0  0  0  0  0  0  0  0  0  0
   35.5970   27.9600   38.6010 C   0  0  0  0  0  3  0  0  0  0  0  0
   35.1900   29.2370   38.9090 C   0  0  0  0  0  3  0  0  0  0  0  0
   35.4480   29.6930   40.2070 C   0  0  0  0  0  3  0  0  0  0  0  0
   36.0790   28.8630   41.0910 C   0  0  0  0  0  3  0  0  0  0  0  0
   36.4860   27.5930   40.7980 C   0  0  0  0  0  0  0  0  0  0  0  0
  1  6  1  0  0  0  0
  2  3  1  0  0  0  0
  2  1  2  0  0  0  0
  3  4  2  0  0  0  0
  4  5  1  0  0  0  0
  5  8  1  0  0  0  0
  6  5  2  0  0  0  0
  7  3  1  0  0  0  0
  9  2  1  0  0  0  0
 10  9  1  0  0  0  0
 10 14  1  0  0  0  0
 11 10  1  0  0  0  0
 11  9  1  0  0  0  0
 12  9  1  0  0  0  0
 13 10  1  0  0  0  0
 15 11  1  0  0  0  0
 16 11  1  0  0  0  0
 17  1  1  0  0  0  0
 17 18  2  0  0  0  0
 19 17  1  0  0  0  0
 20 19  1  0  0  0  0
 20 21  1  0  0  0  0
 22 20  2  0  0  0  0
 23 24  2  0  0  0  0
 23 22  1  0  0  0  0
 24 29  1  0  0  0  0
 25 26  2  0  0  0  0
 25 24  1  0  0  0  0
 26 27  1  0  0  0  0
 27 28  2  0  0  0  0
 29 28  1  0  0  0  0
 29 19  2  0  0  0  0
M  END
>  <minimizedAffinity>
-5.79181194

$$$$

 OpenBabel03242523173D

 29 32  0  0  0  0  0  0  0  0999 V2000
   38.4500   30.0160   39.5550 C   0  0  0  0  0  0  0  0  0  0  0  0
   38.9000   31.2890   39.6830 C   0  0  0  0  0  0  0  0  0  0  0  0
   40.2000   31.5100   39.2270 C   0  0  0  0  0  0  0  0  0  0  0  0
   40.9070   30.4350   38.6960 N   0  0  0  0  0  0  0  0  0  0  0  0
   40.3940   29.2260   38.6120 C   0  0  0  0  0  0  0  0  0  0  0  0
   39.1130   28.9570   39.0470 N   0  0  0  0  0  0  0  0  0  0  0  0
   40.6780   32.4790   39.2680 H   0  0  0  0  0  0  0  0  0  0  0  0
   41.0920   28.5250   38.1750 H   0  0  0  0  0  0  0  0  0  0  0  0
   38.2020   32.3520   40.3210 C   0  0  0  0  0  0  0  0  0  0  0  0
   38.4210   33.6870   40.2660 C   0  0  0  0  0  0  0  0  0  0  0  0
   37.2210   33.2510   39.4460 C   0  0  0  0  0  0  0  0  0  0  0  0
   37.3740   31.8680   40.9960 H   0  0  0  0  0  0  0  0  0  0  0  0
   39.2050   34.1380   39.5840 H   0  0  0  0  0  0  0  0  0  0  0  0
   38.1950   34.4550   41.0680 H   0  0  0  0  0  0  0  0  0  0  0  0
   37.3360   33.0040   38.3940 H   0  0  0  0  0  0  0  0  0  0  0  0
   36.2590   33.5250   39.8440 H   0  0  0  0  0  0  0  0  0  0  0  0
   37.0930   29.5340   39.8250 C   0  0  0  0  0  0  0  0  0  0  0  0
   35.9130   29.4810   39.5170 O   0  0  0  0  0  0  0  0  0  0  0  0
   37.2050   28.7170   41.0750 C   0  0  0  0  0  0  0  0  0  0  0  0
   37.4390   29.3240   42.3180 C   0  0  0  0  0  0  0  0  0  0  0  0
   37.5700   30.4100   42.3660 H   0  0  0  0  0  0  0  0  0  0  0  0
   37.5220   28.6640   43.5220 C   0  0  0  0  0  3  0  0  0  0  0  0
   37.3630   27.3090   43.4980 C   0  0  0  0  0  3  0  0  0  0  0  0
   37.1320   26.6540   42.3210 C   0  0  0  0  0  0  0  0  0  0  0  0
   36.9850   25.2930   42.3330 C   0  0  0  0  0  3  0  0  0  0  0  0
   36.7590   24.5760   41.1810 C   0  0  0  0  0  3  0  0  0  0  0  0
   36.6860   25.2970   39.9840 C   0  0  0  0  0  3  0  0  0  0  0  0
   36.8390   26.6550   40.0150 C   0  0  0  0  0  3  0  0  0  0  0  0
   37.0610   27.3780   41.1510 C   0  0  0  0  0  0  0  0  0  0  0  0
  1  2  1  0  0  0  0
  1 17  1  0  0  0  0
  2  9  1  0  0  0  0
  3  7  1  0  0  0  0
  3  2  2  0  0  0  0
  4  3  1  0  0  0  0
  5  4  2  0  0  0  0
  5  6  1  0  0  0  0
  6  1  2  0  0  0  0
  8  5  1  0  0  0  0
  9 12  1  0  0  0  0
 10  9  1  0  0  0  0
 10 14  1  0  0  0  0
 11 16  1  0  0  0  0
 11 10  1  0  0  0  0
 11  9  1  0  0  0  0
 13 10  1  0  0  0  0
 15 11  1  0  0  0  0
 17 19  1  0  0  0  0
 18 17  2  0  0  0  0
 19 29  2  0  0  0  0
 19 20  1  0  0  0  0
 20 21  1  0  0  0  0
 20 22  2  0  0  0  0
 23 22  1  0  0  0  0
 24 25  1  0  0  0  0
 24 23  2  0  0  0  0
 26 25  2  0  0  0  0
 27 28  2  0  0  0  0
 27 26  1  0  0  0  0
 28 29  1  0  0  0  0
 29 24  1  0  0  0  0
M  END
>  <minimizedAffinity>
-5.6613946

$$$$

 OpenBabel03242523173D

 29 32  0  0  0  0  0  0  0  0999 V2000
   36.9940   26.2440   41.5110 C   0  0  0  0  0  0  0  0  0  0  0  0
   36.7180   26.7120   40.2680 C   0  0  0  0  0  0  0  0  0  0  0  0
   36.5730   25.7350   39.2820 C   0  0  0  0  0  0  0  0  0  0  0  0
   36.7220   24.4000   39.6460 N   0  0  0  0  0  0  0  0  0  0  0  0
   36.9940   24.0320   40.8800 C   0  0  0  0  0  0  0  0  0  0  0  0
   37.1450   24.9590   41.8900 N   0  0  0  0  0  0  0  0  0  0  0  0
   36.3490   25.9720   38.2510 H   0  0  0  0  0  0  0  0  0  0  0  0
   37.0750   22.9570   40.9680 H   0  0  0  0  0  0  0  0  0  0  0  0
   36.6690   28.0830   39.8920 C   0  0  0  0  0  0  0  0  0  0  0  0
   35.9900   28.6820   38.8850 C   0  0  0  0  0  0  0  0  0  0  0  0
   35.3630   28.9240   40.2460 C   0  0  0  0  0  0  0  0  0  0  0  0
   37.3990   28.6640   40.6050 H   0  0  0  0  0  0  0  0  0  0  0  0
   35.2660   28.1100   38.2290 H   0  0  0  0  0  0  0  0  0  0  0  0
   36.2800   29.6220   38.3230 H   0  0  0  0  0  0  0  0  0  0  0  0
   34.5880   28.2590   40.6190 H   0  0  0  0  0  0  0  0  0  0  0  0
   35.4670   29.9210   40.6380 H   0  0  0  0  0  0  0  0  0  0  0  0
   37.0640   27.0270   42.7470 C   0  0  0  0  0  0  0  0  0  0  0  0
   36.4990   27.5790   43.6780 O   0  0  0  0  0  0  0  0  0  0  0  0
   38.5230   27.2660   42.9820 C   0  0  0  0  0  0  0  0  0  0  0  0
   39.3550   26.2460   43.4650 C   0  0  0  0  0  0  0  0  0  0  0  0
   38.9210   25.2680   43.7010 H   0  0  0  0  0  0  0  0  0  0  0  0
   40.7100   26.3580   43.6790 C   0  0  0  0  0  3  0  0  0  0  0  0
   41.2830   27.5630   43.3960 C   0  0  0  0  0  3  0  0  0  0  0  0
   40.5310   28.6000   42.9210 C   0  0  0  0  0  0  0  0  0  0  0  0
   41.1380   29.7980   42.6560 C   0  0  0  0  0  3  0  0  0  0  0  0
   40.4350   30.8820   42.1850 C   0  0  0  0  0  3  0  0  0  0  0  0
   39.0590   30.7130   41.9880 C   0  0  0  0  0  3  0  0  0  0  0  0
   38.4910   29.5020   42.2660 C   0  0  0  0  0  3  0  0  0  0  0  0
   39.1790   28.4180   42.7310 C   0  0  0  0  0  0  0  0  0  0  0  0
  1  6  1  0  0  0  0
  1 17  1  0  0  0  0
  2  1  2  0  0  0  0
  3  4  2  0  0  0  0
  3  2  1  0  0  0  0
  4  5  1  0  0  0  0
  5  8  1  0  0  0  0
  5  6  2  0  0  0  0
  7  3  1  0  0  0  0
  9 11  1  0  0  0  0
  9  2  1  0  0  0  0
  9 12  1  0  0  0  0
 10  9  1  0  0  0  0
 10 11  1  0  0  0  0
 11 15  1  0  0  0  0
 11 16  1  0  0  0  0
 13 10  1  0  0  0  0
 14 10  1  0  0  0  0
 17 19  1  0  0  0  0
 17 18  2  0  0  0  0
 19 20  1  0  0  0  0
 20 22  2  0  0  0  0
 20 21  1  0  0  0  0
 23 22  1  0  0  0  0
 24 23  2  0  0  0  0
 25 24  1  0  0  0  0
 26 25  2  0  0  0  0
 27 26  1  0  0  0  0
 27 28  2  0  0  0  0
 28 29  1  0  0  0  0
 29 24  1  0  0  0  0
 29 19  2  0  0  0  0
M  END
>  <minimizedAffinity>
-5.57803822

$$$$

 OpenBabel03242523173D

 29 32  0  0  0  0  0  0  0  0999 V2000
   37.0230   29.3780   39.3810 C   0  0  0  0  0  0  0  0  0  0  0  0
   37.1750   30.6820   39.0390 C   0  0  0  0  0  0  0  0  0  0  0  0
   37.6340   30.9080   37.7410 C   0  0  0  0  0  0  0  0  0  0  0  0
   37.8940   29.8070   36.9300 N   0  0  0  0  0  0  0  0  0  0  0  0
   37.7220   28.5700   37.3440 C   0  0  0  0  0  0  0  0  0  0  0  0
   37.2680   28.2940   38.6160 N   0  0  0  0  0  0  0  0  0  0  0  0
   37.7960   31.8990   37.3420 H   0  0  0  0  0  0  0  0  0  0  0  0
   37.9780   27.8520   36.5760 H   0  0  0  0  0  0  0  0  0  0  0  0
   37.0020   31.7910   39.9130 C   0  0  0  0  0  0  0  0  0  0  0  0
   37.9290   32.5890   40.4940 C   0  0  0  0  0  0  0  0  0  0  0  0
   37.2180   33.2580   39.3330 C   0  0  0  0  0  0  0  0  0  0  0  0
   35.8510   31.8960   40.1170 H   0  0  0  0  0  0  0  0  0  0  0  0
   39.0330   32.4920   40.2600 H   0  0  0  0  0  0  0  0  0  0  0  0
   37.8440   33.1360   41.4820 H   0  0  0  0  0  0  0  0  0  0  0  0
   37.6310   33.2000   38.3290 H   0  0  0  0  0  0  0  0  0  0  0  0
   36.5240   34.0380   39.5960 H   0  0  0  0  0  0  0  0  0  0  0  0
   36.4360   28.8580   40.6180 C   0  0  0  0  0  0  0  0  0  0  0  0
   35.4520   28.6430   41.3080 O   0  0  0  0  0  0  0  0  0  0  0  0
   37.5920   28.3490   41.4210 C   0  0  0  0  0  0  0  0  0  0  0  0
   38.5310   29.2300   41.9780 C   0  0  0  0  0  0  0  0  0  0  0  0
   38.4290   30.3050   41.7960 H   0  0  0  0  0  0  0  0  0  0  0  0
   39.6040   28.8610   42.7570 C   0  0  0  0  0  3  0  0  0  0  0  0
   39.7600   27.5290   43.0040 C   0  0  0  0  0  3  0  0  0  0  0  0
   38.8820   26.6150   42.4920 C   0  0  0  0  0  0  0  0  0  0  0  0
   39.0750   25.2850   42.7530 C   0  0  0  0  0  3  0  0  0  0  0  0
   38.2310   24.3180   42.2600 C   0  0  0  0  0  3  0  0  0  0  0  0
   37.1570   24.7480   41.4710 C   0  0  0  0  0  3  0  0  0  0  0  0
   37.0010   26.0850   41.2340 C   0  0  0  0  0  3  0  0  0  0  0  0
   37.8300   27.0550   41.7190 C   0  0  0  0  0  0  0  0  0  0  0  0
  1 17  1  0  0  0  0
  2  1  1  0  0  0  0
  2  9  1  0  0  0  0
  3  2  2  0  0  0  0
  4  5  2  0  0  0  0
  4  3  1  0  0  0  0
  5  6  1  0  0  0  0
  6  1  2  0  0  0  0
  7  3  1  0  0  0  0
  8  5  1  0  0  0  0
  9 12  1  0  0  0  0
  9 10  1  0  0  0  0
 10 14  1  0  0  0  0
 11 16  1  0  0  0  0
 11  9  1  0  0  0  0
 11 10  1  0  0  0  0
 13 10  1  0  0  0  0
 15 11  1  0  0  0  0
 17 18  2  0  0  0  0
 17 19  1  0  0  0  0
 19 29  2  0  0  0  0
 19 20  1  0  0  0  0
 20 22  2  0  0  0  0
 21 20  1  0  0  0  0
 22 23  1  0  0  0  0
 24 25  1  0  0  0  0
 24 23  2  0  0  0  0
 26 25  2  0  0  0  0
 27 26  1  0  0  0  0
 28 27  2  0  0  0  0
 28 29  1  0  0  0  0
 29 24  1  0  0  0  0
M  END
>  <minimizedAffinity>
-5.54286861

$$$$

 OpenBabel03242523173D

 29 32  0  0  0  0  0  0  0  0999 V2000
   38.7300   26.5760   42.8370 C   0  0  0  0  0  0  0  0  0  0  0  0
   38.7540   25.5060   42.0040 C   0  0  0  0  0  0  0  0  0  0  0  0
   39.9240   24.7480   42.0400 C   0  0  0  0  0  0  0  0  0  0  0  0
   40.9430   25.1450   42.9020 N   0  0  0  0  0  0  0  0  0  0  0  0
   40.8390   26.2030   43.6770 C   0  0  0  0  0  0  0  0  0  0  0  0
   39.7020   26.9830   43.6800 N   0  0  0  0  0  0  0  0  0  0  0  0
   40.0720   23.8690   41.4290 H   0  0  0  0  0  0  0  0  0  0  0  0
   41.7300   26.3520   44.2720 H   0  0  0  0  0  0  0  0  0  0  0  0
   37.7450   25.1730   41.0570 C   0  0  0  0  0  0  0  0  0  0  0  0
   37.5120   24.0040   40.4150 C   0  0  0  0  0  0  0  0  0  0  0  0
   36.5210   24.2730   41.5330 C   0  0  0  0  0  0  0  0  0  0  0  0
   37.1240   26.1480   40.8560 H   0  0  0  0  0  0  0  0  0  0  0  0
   38.1020   23.0660   40.6470 H   0  0  0  0  0  0  0  0  0  0  0  0
   37.0460   23.8620   39.3920 H   0  0  0  0  0  0  0  0  0  0  0  0
   36.7090   23.8960   42.5350 H   0  0  0  0  0  0  0  0  0  0  0  0
   35.5230   24.5300   41.2210 H   0  0  0  0  0  0  0  0  0  0  0  0
   37.5900   27.4580   43.1010 C   0  0  0  0  0  0  0  0  0  0  0  0
   36.5300   27.6680   43.6690 O   0  0  0  0  0  0  0  0  0  0  0  0
   37.8440   28.6880   42.2850 C   0  0  0  0  0  0  0  0  0  0  0  0
   38.8300   29.6130   42.6600 C   0  0  0  0  0  0  0  0  0  0  0  0
   39.4000   29.4450   43.5790 H   0  0  0  0  0  0  0  0  0  0  0  0
   39.1600   30.7510   41.9590 C   0  0  0  0  0  3  0  0  0  0  0  0
   38.4680   30.9910   40.8080 C   0  0  0  0  0  3  0  0  0  0  0  0
   37.4940   30.1300   40.3860 C   0  0  0  0  0  0  0  0  0  0  0  0
   36.8140   30.4080   39.2300 C   0  0  0  0  0  3  0  0  0  0  0  0
   35.8190   29.5850   38.7560 C   0  0  0  0  0  3  0  0  0  0  0  0
   35.5230   28.4430   39.5100 C   0  0  0  0  0  3  0  0  0  0  0  0
   36.2240   28.2030   40.6580 C   0  0  0  0  0  3  0  0  0  0  0  0
   37.2160   29.0100   41.1370 C   0  0  0  0  0  0  0  0  0  0  0  0
  1 17  1  0  0  0  0
  1  6  1  0  0  0  0
  2  3  1  0  0  0  0
  2  1  2  0  0  0  0
  3  4  2  0  0  0  0
  4  5  1  0  0  0  0
  5  6  2  0  0  0  0
  5  8  1  0  0  0  0
  7  3  1  0  0  0  0
  9 11  1  0  0  0  0
  9  2  1  0  0  0  0
 10 13  1  0  0  0  0
 10  9  1  0  0  0  0
 10 11  1  0  0  0  0
 11 15  1  0  0  0  0
 12  9  1  0  0  0  0
 14 10  1  0  0  0  0
 16 11  1  0  0  0  0
 17 18  2  0  0  0  0
 19 20  1  0  0  0  0
 19 17  1  0  0  0  0
 20 21  1  0  0  0  0
 22 20  2  0  0  0  0
 23 22  1  0  0  0  0
 24 23  2  0  0  0  0
 24 29  1  0  0  0  0
 25 24  1  0  0  0  0
 26 25  2  0  0  0  0
 26 27  1  0  0  0  0
 27 28  2  0  0  0  0
 28 29  1  0  0  0  0
 29 19  2  0  0  0  0
M  END
>  <minimizedAffinity>
-5.46222067

$$$$

 OpenBabel03242523173D

 29 32  0  0  0  0  0  0  0  0999 V2000
   37.0050   27.2360   41.1630 C   0  0  0  0  0  0  0  0  0  0  0  0
   36.9810   26.0340   40.5350 C   0  0  0  0  0  0  0  0  0  0  0  0
   37.0240   26.0890   39.1420 C   0  0  0  0  0  0  0  0  0  0  0  0
   37.0830   27.3380   38.5300 N   0  0  0  0  0  0  0  0  0  0  0  0
   37.0990   28.4590   39.2170 C   0  0  0  0  0  0  0  0  0  0  0  0
   37.0600   28.4590   40.5960 N   0  0  0  0  0  0  0  0  0  0  0  0
   37.0130   25.2040   38.5200 H   0  0  0  0  0  0  0  0  0  0  0  0
   37.1440   29.3250   38.5700 H   0  0  0  0  0  0  0  0  0  0  0  0
   36.8180   24.7720   41.1710 C   0  0  0  0  0  0  0  0  0  0  0  0
   36.6470   23.5430   40.6280 C   0  0  0  0  0  0  0  0  0  0  0  0
   38.0460   23.7580   41.1780 C   0  0  0  0  0  0  0  0  0  0  0  0
   36.7990   24.9670   42.3280 H   0  0  0  0  0  0  0  0  0  0  0  0
   36.7000   23.3710   39.5100 H   0  0  0  0  0  0  0  0  0  0  0  0
   36.0910   22.6640   41.0750 H   0  0  0  0  0  0  0  0  0  0  0  0
   38.8360   24.1350   40.5340 H   0  0  0  0  0  0  0  0  0  0  0  0
   38.2810   23.2190   42.0790 H   0  0  0  0  0  0  0  0  0  0  0  0
   37.1040   27.4700   42.6060 C   0  0  0  0  0  0  0  0  0  0  0  0
   36.5600   27.6760   43.6800 O   0  0  0  0  0  0  0  0  0  0  0  0
   38.5690   27.4430   42.9120 C   0  0  0  0  0  0  0  0  0  0  0  0
   39.2110   26.2500   43.2760 C   0  0  0  0  0  0  0  0  0  0  0  0
   38.6220   25.3320   43.3640 H   0  0  0  0  0  0  0  0  0  0  0  0
   40.5550   26.1190   43.5400 C   0  0  0  0  0  3  0  0  0  0  0  0
   41.3190   27.2450   43.4390 C   0  0  0  0  0  3  0  0  0  0  0  0
   40.7570   28.4410   43.0890 C   0  0  0  0  0  0  0  0  0  0  0  0
   41.5530   29.5520   43.0050 C   0  0  0  0  0  3  0  0  0  0  0  0
   41.0460   30.7850   42.6660 C   0  0  0  0  0  3  0  0  0  0  0  0
   39.6720   30.8620   42.4100 C   0  0  0  0  0  3  0  0  0  0  0  0
   38.9130   29.7290   42.5050 C   0  0  0  0  0  3  0  0  0  0  0  0
   39.4040   28.5000   42.8380 C   0  0  0  0  0  0  0  0  0  0  0  0
  1 17  1  0  0  0  0
  2  1  2  0  0  0  0
  2  9  1  0  0  0  0
  3  2  1  0  0  0  0
  4  3  2  0  0  0  0
  4  5  1  0  0  0  0
  5  6  2  0  0  0  0
  6  1  1  0  0  0  0
  7  3  1  0  0  0  0
  8  5  1  0  0  0  0
  9 11  1  0  0  0  0
  9 12  1  0  0  0  0
 10 14  1  0  0  0  0
 10  9  1  0  0  0  0
 10 11  1  0  0  0  0
 11 16  1  0  0  0  0
 13 10  1  0  0  0  0
 15 11  1  0  0  0  0
 17 19  1  0  0  0  0
 17 18  2  0  0  0  0
 19 20  1  0  0  0  0
 20 21  1  0  0  0  0
 20 22  2  0  0  0  0
 23 22  1  0  0  0  0
 24 23  2  0  0  0  0
 25 24  1  0  0  0  0
 26 25  2  0  0  0  0
 27 28  2  0  0  0  0
 27 26  1  0  0  0  0
 28 29  1  0  0  0  0
 29 19  2  0  0  0  0
 29 24  1  0  0  0  0
M  END
>  <minimizedAffinity>
-5.38593483

$$$$

 OpenBabel03242523173D

 29 32  0  0  0  0  0  0  0  0999 V2000
   38.3140   30.0630   41.5750 C   0  0  0  0  0  0  0  0  0  0  0  0
   38.4810   28.7660   41.9360 C   0  0  0  0  0  0  0  0  0  0  0  0
   39.7360   28.4500   42.4580 C   0  0  0  0  0  0  0  0  0  0  0  0
   40.6860   29.4630   42.5580 N   0  0  0  0  0  0  0  0  0  0  0  0
   40.4410   30.6990   42.1800 C   0  0  0  0  0  0  0  0  0  0  0  0
   39.2170   31.0630   41.6600 N   0  0  0  0  0  0  0  0  0  0  0  0
   39.9990   27.4540   42.7860 H   0  0  0  0  0  0  0  0  0  0  0  0
   41.2980   31.3410   42.3320 H   0  0  0  0  0  0  0  0  0  0  0  0
   37.5360   27.7230   41.7330 C   0  0  0  0  0  0  0  0  0  0  0  0
   37.4840   26.4830   42.2730 C   0  0  0  0  0  0  0  0  0  0  0  0
   36.4650   27.4320   42.8750 C   0  0  0  0  0  0  0  0  0  0  0  0
   36.7710   28.1010   40.9260 H   0  0  0  0  0  0  0  0  0  0  0  0
   38.2130   26.1480   43.0730 H   0  0  0  0  0  0  0  0  0  0  0  0
   37.0450   25.5470   41.8090 H   0  0  0  0  0  0  0  0  0  0  0  0
   36.7100   28.0090   43.7640 H   0  0  0  0  0  0  0  0  0  0  0  0
   35.4400   27.2500   42.6040 H   0  0  0  0  0  0  0  0  0  0  0  0
   37.0710   30.6960   41.1290 C   0  0  0  0  0  0  0  0  0  0  0  0
   35.9990   31.2170   41.3960 O   0  0  0  0  0  0  0  0  0  0  0  0
   37.1500   30.7140   39.6340 C   0  0  0  0  0  0  0  0  0  0  0  0
   38.0970   31.5060   38.9690 C   0  0  0  0  0  0  0  0  0  0  0  0
   38.7690   32.1420   39.5550 H   0  0  0  0  0  0  0  0  0  0  0  0
   38.2700   31.5620   37.6050 C   0  0  0  0  0  3  0  0  0  0  0  0
   37.4500   30.7820   36.8450 C   0  0  0  0  0  3  0  0  0  0  0  0
   36.5040   29.9860   37.4280 C   0  0  0  0  0  0  0  0  0  0  0  0
   35.6920   29.2220   36.6330 C   0  0  0  0  0  3  0  0  0  0  0  0
   34.7170   28.4070   37.1590 C   0  0  0  0  0  3  0  0  0  0  0  0
   34.5830   28.3910   38.5530 C   0  0  0  0  0  3  0  0  0  0  0  0
   35.4130   29.1680   39.3100 C   0  0  0  0  0  3  0  0  0  0  0  0
   36.3860   29.9790   38.8010 C   0  0  0  0  0  0  0  0  0  0  0  0
  1  6  2  0  0  0  0
  1  2  1  0  0  0  0
  2  3  2  0  0  0  0
  3  4  1  0  0  0  0
  3  7  1  0  0  0  0
  5  8  1  0  0  0  0
  5  4  2  0  0  0  0
  6  5  1  0  0  0  0
  9  2  1  0  0  0  0
  9 10  1  0  0  0  0
  9 11  1  0  0  0  0
 10 11  1  0  0  0  0
 10 13  1  0  0  0  0
 11 15  1  0  0  0  0
 12  9  1  0  0  0  0
 14 10  1  0  0  0  0
 16 11  1  0  0  0  0
 17 18  2  0  0  0  0
 17  1  1  0  0  0  0
 19 17  1  0  0  0  0
 20 21  1  0  0  0  0
 20 19  1  0  0  0  0
 22 20  2  0  0  0  0
 23 24  2  0  0  0  0
 23 22  1  0  0  0  0
 24 29  1  0  0  0  0
 25 26  2  0  0  0  0
 25 24  1  0  0  0  0
 26 27  1  0  0  0  0
 27 28  2  0  0  0  0
 29 28  1  0  0  0  0
 29 19  2  0  0  0  0
M  END
>  <minimizedAffinity>
-5.37299204

$$$$
