
 OpenBabel03252508003D

 31 34  0  0  1  0  0  0  0  0999 V2000
   46.4310   34.6900   43.2760 C   0  0  0  0  0  0  0  0  0  0  0  0
   45.4190   35.6490   43.5840 C   0  0  0  0  0  0  0  0  0  0  0  0
   44.7240   35.4370   44.7700 C   0  0  0  0  0  0  0  0  0  0  0  0
   45.0380   34.3680   45.5390 N   0  0  0  0  0  0  0  0  0  0  0  0
   46.0270   33.4840   45.1770 C   0  0  0  0  0  0  0  0  0  0  0  0
   46.7230   33.6290   44.0670 N   0  0  0  0  0  0  0  0  0  0  0  0
   45.2400   36.4710   42.9060 H   0  0  0  0  0  0  0  0  0  0  0  0
   43.9470   36.1370   45.0450 H   0  0  0  0  0  0  0  0  0  0  0  0
   46.3200   32.3410   46.0910 C   0  0  1  0  0  0  0  0  0  0  0  0
   47.0500   32.6060   47.3880 C   0  0  0  0  0  0  0  0  0  0  0  0
   45.5640   32.3660   47.3610 C   0  0  1  0  0  0  0  0  0  0  0  0
   46.4840   31.3630   45.6010 H   0  0  0  0  0  0  0  0  0  0  0  0
   47.4540   33.6220   47.4780 H   0  0  0  0  0  0  0  0  0  0  0  0
   47.6680   31.7590   47.7430 H   0  0  0  0  0  0  0  0  0  0  0  0
   45.2060   31.4280   47.8520 H   0  0  0  0  0  0  0  0  0  0  0  0
   44.8110   33.5410   47.7340 N   0  0  0  0  0  0  0  0  0  0  0  0
   43.8270   33.5540   47.5090 H   0  0  0  0  0  0  0  0  0  0  0  0
   45.3300   34.3940   47.8900 H   0  0  0  0  0  0  0  0  0  0  0  0
   47.1540   34.9300   42.0440 C   0  0  0  0  0  0  0  0  0  0  0  0
   48.0930   35.7960   41.9430 O   0  0  0  0  0  0  0  0  0  0  0  0
   46.6380   34.0490   41.0010 C   0  0  0  0  0  0  0  0  0  0  0  0
   45.3230   34.0950   40.5700 C   0  0  0  0  0  0  0  0  0  0  0  0
   44.6500   34.8220   41.0260 H   0  0  0  0  0  0  0  0  0  0  0  0
   44.7840   33.2820   39.5950 C   0  0  0  0  0  3  0  0  0  0  0  0
   45.5880   32.3530   38.9930 C   0  0  0  0  0  3  0  0  0  0  0  0
   46.9110   32.2510   39.3720 C   0  0  0  0  0  0  0  0  0  0  0  0
   47.7560   31.3130   38.7750 C   0  0  0  0  0  3  0  0  0  0  0  0
   49.0730   31.1900   39.1310 C   0  0  0  0  0  3  0  0  0  0  0  0
   49.5870   32.0280   40.1220 C   0  0  0  0  0  3  0  0  0  0  0  0
   48.7170   32.9430   40.6890 C   0  0  0  0  0  3  0  0  0  0  0  0
   47.3900   33.0920   40.3540 C   0  0  0  0  0  0  0  0  0  0  0  0
  1  2  2  0  0  0  0
  1  6  1  0  0  0  0
  2  3  1  0  0  0  0
  3  8  1  0  0  0  0
  3  4  2  0  0  0  0
  5  4  1  0  0  0  0
  5  9  1  0  0  0  0
  6  5  2  0  0  0  0
  7  2  1  0  0  0  0
  9 12  1  6  0  0  0
  9 11  1  0  0  0  0
  9 10  1  0  0  0  0
 10 13  1  0  0  0  0
 10 14  1  0  0  0  0
 11 10  1  0  0  0  0
 11 16  1  0  0  0  0
 11 15  1  1  0  0  0
 16 18  1  0  0  0  0
 17 16  1  0  0  0  0
 19  1  1  0  0  0  0
 20 19  2  0  0  0  0
 21 19  1  0  0  0  0
 22 21  1  0  0  0  0
 22 23  1  0  0  0  0
 24 22  2  0  0  0  0
 25 26  2  0  0  0  0
 25 24  1  0  0  0  0
 26 31  1  0  0  0  0
 27 28  2  0  0  0  0
 27 26  1  0  0  0  0
 28 29  1  0  0  0  0
 29 30  2  0  0  0  0
 31 30  1  0  0  0  0
 31 21  2  0  0  0  0
M  END
>  <minimizedAffinity>
-5.90109396

>  <minimizedRMSD>
1.25774252

$$$$
