
 OpenBabel03242522473D

 43 47  0  0  0  0  0  0  0  0999 V2000
   45.7090   34.7470   44.0710 C   0  0  0  0  0  0  0  0  0  0  0  0
   46.7430   33.9980   43.4890 C   0  0  0  0  0  0  0  0  0  0  0  0
   47.3110   32.9140   44.2180 C   0  0  0  0  0  0  0  0  0  0  0  0
   46.8190   32.6620   45.4490 N   0  0  0  0  0  0  0  0  0  0  0  0
   45.8210   33.4040   45.9860 C   0  0  0  0  0  0  0  0  0  0  0  0
   45.2910   34.4160   45.3030 N   0  0  0  0  0  0  0  0  0  0  0  0
   45.1510   35.7960   43.3370 N   0  0  0  0  0  0  0  0  0  0  0  0
   48.0980   32.3460   43.7670 H   0  0  0  0  0  0  0  0  0  0  0  0
   44.2100   35.5580   42.9000 H   0  0  0  0  0  0  0  0  0  0  0  0
   45.5410   36.7680   43.1710 H   0  0  0  0  0  0  0  0  0  0  0  0
   47.2770   34.2720   42.1730 C   0  0  0  0  0  0  0  0  0  0  0  0
   48.3050   35.1500   41.8420 C   0  0  0  0  0  0  0  0  0  0  0  0
   48.6980   35.3030   40.5260 C   0  0  0  0  0  0  0  0  0  0  0  0
   48.0850   34.5890   39.4870 C   0  0  0  0  0  0  0  0  0  0  0  0
   48.5320   34.8010   38.2450 N   0  0  0  0  0  0  0  0  0  0  0  0
   47.9440   34.1110   37.2110 C   0  0  0  0  0  0  0  0  0  0  0  0
   46.9190   33.2360   37.5410 C   0  0  0  0  0  0  0  0  0  0  0  0
   46.4600   33.0180   38.8180 C   0  0  0  0  0  0  0  0  0  0  0  0
   47.0680   33.7240   39.8360 C   0  0  0  0  0  0  0  0  0  0  0  0
   46.6680   33.5650   41.1550 C   0  0  0  0  0  0  0  0  0  0  0  0
   48.7460   35.6760   42.6750 H   0  0  0  0  0  0  0  0  0  0  0  0
   49.5040   36.0040   40.3520 H   0  0  0  0  0  0  0  0  0  0  0  0
   48.2670   34.2470   36.1920 H   0  0  0  0  0  0  0  0  0  0  0  0
   46.4940   32.7230   36.6910 H   0  0  0  0  0  0  0  0  0  0  0  0
   45.6560   32.3190   39.0040 H   0  0  0  0  0  0  0  0  0  0  0  0
   45.8690   32.8660   41.3100 H   0  0  0  0  0  0  0  0  0  0  0  0
   45.3270   33.0340   47.3550 C   0  0  0  0  0  0  0  0  0  0  0  0
   45.7750   33.6560   48.1320 H   0  0  0  0  0  0  0  0  0  0  0  0
   44.2310   33.1910   47.4060 H   0  0  0  0  0  0  0  0  0  0  0  0
   45.5560   31.5590   47.5850 C   0  0  0  0  0  0  0  0  0  0  0  0
   45.2690   31.0210   46.6510 H   0  0  0  0  0  0  0  0  0  0  0  0
   44.7600   31.2510   48.3260 H   0  0  0  0  0  0  0  0  0  0  0  0
   46.8780   31.1890   48.0680 C   0  0  0  0  0  0  0  0  0  0  0  0
   47.7990   31.9000   48.7730 C   0  0  0  0  0  0  0  0  0  0  0  0
   47.5410   32.9150   49.0360 H   0  0  0  0  0  0  0  0  0  0  0  0
   49.0190   31.4240   49.1920 C   0  0  0  0  0  0  0  0  0  0  0  0
   49.3830   30.1450   48.9040 C   0  0  0  0  0  0  0  0  0  0  0  0
   48.4770   29.3730   48.1850 C   0  0  0  0  0  0  0  0  0  0  0  0
   48.8960   28.0770   47.9280 C   0  0  0  0  0  0  0  0  0  0  0  0
   48.0630   27.2300   47.2280 C   0  0  0  0  0  0  0  0  0  0  0  0
   46.8320   27.6790   46.7940 C   0  0  0  0  0  0  0  0  0  0  0  0
   46.4880   28.9810   47.0890 C   0  0  0  0  0  0  0  0  0  0  0  0
   47.2630   29.8850   47.7810 C   0  0  0  0  0  0  0  0  0  0  0  0
  1  6  1  0  0  0  0
  2  1  2  0  0  0  0
  2  3  1  0  0  0  0
  3  4  2  0  0  0  0
  4  5  1  0  0  0  0
  5 27  1  0  0  0  0
  6  5  2  0  0  0  0
  7  1  1  0  0  0  0
  8  3  1  0  0  0  0
  9  7  1  0  0  0  0
 10  7  1  0  0  0  0
 11  2  1  0  0  0  0
 12 11  1  0  0  0  0
 12 21  1  0  0  0  0
 13 12  2  0  0  0  0
 14 19  1  0  0  0  0
 14 13  1  0  0  0  0
 15 14  2  0  0  0  0
 16 17  2  0  0  0  0
 16 15  1  0  0  0  0
 17 18  1  0  0  0  0
 18 25  1  0  0  0  0
 18 19  2  0  0  0  0
 19 20  1  0  0  0  0
 20 26  1  0  0  0  0
 20 11  2  0  0  0  0
 22 13  1  0  0  0  0
 23 16  1  0  0  0  0
 24 17  1  0  0  0  0
 27 29  1  0  0  0  0
 27 30  1  0  0  0  0
 27 28  1  0  0  0  0
 30 33  1  0  0  0  0
 30 32  1  0  0  0  0
 31 30  1  0  0  0  0
 33 34  1  0  0  0  0
 34 35  1  0  0  0  0
 34 36  2  0  0  0  0
 37 36  1  0  0  0  0
 38 37  2  0  0  0  0
 39 38  1  0  0  0  0
 40 39  2  0  0  0  0
 41 42  2  0  0  0  0
 41 40  1  0  0  0  0
 42 43  1  0  0  0  0
 43 33  2  0  0  0  0
 43 38  1  0  0  0  0
M  END
>  <minimizedAffinity>
-7.10132074

>  <minimizedRMSD>
1.23027754

$$$$
