
 OpenBabel03252504013D

 36 40  0  0  0  0  0  0  0  0999 V2000
   34.0610   29.0270   35.9940 C   0  0  0  0  0  0  0  0  0  0  0  0
   34.9500   29.3850   34.9910 C   0  0  0  0  0  0  0  0  0  0  0  0
   36.2570   29.6560   35.3620 C   0  0  0  0  0  0  0  0  0  0  0  0
   36.5990   29.5600   36.6690 N   0  0  0  0  0  0  0  0  0  0  0  0
   35.6900   29.2040   37.6270 C   0  0  0  0  0  0  0  0  0  0  0  0
   34.4230   28.9390   37.2840 N   0  0  0  0  0  0  0  0  0  0  0  0
   34.7240   29.4740   33.9420 H   0  0  0  0  0  0  0  0  0  0  0  0
   36.9990   29.9400   34.6240 H   0  0  0  0  0  0  0  0  0  0  0  0
   36.2230   30.3070   39.7260 C   0  0  0  0  0  0  0  0  0  0  0  0
   36.0880   29.1090   39.0270 C   0  0  0  0  0  0  0  0  0  0  0  0
   36.3300   27.9240   39.6720 C   0  0  0  0  0  0  0  0  0  0  0  0
   36.7010   27.9400   40.9960 C   0  0  0  0  0  0  0  0  0  0  0  0
   36.9970   26.9530   41.8670 N   0  0  0  0  0  0  0  0  0  0  0  0
   37.3080   27.4600   43.0670 C   0  0  0  0  0  0  0  0  0  0  0  0
   37.2190   28.8240   43.0010 C   0  0  0  0  0  0  0  0  0  0  0  0
   36.8380   29.1290   41.6990 C   0  0  0  0  0  0  0  0  0  0  0  0
   36.5960   30.3250   41.0550 C   0  0  0  0  0  0  0  0  0  0  0  0
   36.0540   31.3040   39.3040 H   0  0  0  0  0  0  0  0  0  0  0  0
   36.2220   27.0040   39.1160 H   0  0  0  0  0  0  0  0  0  0  0  0
   36.9880   25.9250   41.6490 H   0  0  0  0  0  0  0  0  0  0  0  0
   37.5870   26.8930   43.9570 H   0  0  0  0  0  0  0  0  0  0  0  0
   37.3980   29.5800   43.7750 H   0  0  0  0  0  0  0  0  0  0  0  0
   36.7100   31.2380   41.6290 H   0  0  0  0  0  0  0  0  0  0  0  0
   32.6980   28.7540   35.5490 C   0  0  0  0  0  0  0  0  0  0  0  0
   32.2710   27.5770   35.2630 O   0  0  0  0  0  0  0  0  0  0  0  0
   31.9420   30.0020   35.4890 C   0  0  0  0  0  0  0  0  0  0  0  0
   32.0160   30.8460   34.3770 C   0  0  0  0  0  0  0  0  0  0  0  0
   32.6630   30.5630   33.5340 H   0  0  0  0  0  0  0  0  0  0  0  0
   31.3280   32.0330   34.2460 C   0  0  0  0  0  3  0  0  0  0  0  0
   30.5060   32.4300   35.2740 C   0  0  0  0  0  3  0  0  0  0  0  0
   30.3910   31.6400   36.3980 C   0  0  0  0  0  0  0  0  0  0  0  0
   29.5600   32.0640   37.4140 C   0  0  0  0  0  3  0  0  0  0  0  0
   29.4060   31.3140   38.5650 C   0  0  0  0  0  3  0  0  0  0  0  0
   30.1220   30.1400   38.6290 C   0  0  0  0  0  3  0  0  0  0  0  0
   30.9530   29.7190   37.6120 C   0  0  0  0  0  3  0  0  0  0  0  0
   31.1070   30.4640   36.4650 C   0  0  0  0  0  0  0  0  0  0  0  0
  1  6  1  0  0  0  0
  2  3  1  0  0  0  0
  2  1  2  0  0  0  0
  3  4  2  0  0  0  0
  4  5  1  0  0  0  0
  5 10  1  0  0  0  0
  6  5  2  0  0  0  0
  7  2  1  0  0  0  0
  8  3  1  0  0  0  0
  9 17  1  0  0  0  0
 10 11  1  0  0  0  0
 10  9  2  0  0  0  0
 11 12  2  0  0  0  0
 12 16  1  0  0  0  0
 12 13  1  0  0  0  0
 13 14  1  0  0  0  0
 14 21  1  0  0  0  0
 15 14  2  0  0  0  0
 15 22  1  0  0  0  0
 16 15  1  0  0  0  0
 17 23  1  0  0  0  0
 17 16  2  0  0  0  0
 18  9  1  0  0  0  0
 19 11  1  0  0  0  0
 20 13  1  0  0  0  0
 24  1  1  0  0  0  0
 25 24  2  0  0  0  0
 26 24  1  0  0  0  0
 26 36  1  0  0  0  0
 27 26  2  0  0  0  0
 28 27  1  0  0  0  0
 29 27  1  0  0  0  0
 29 30  2  0  0  0  0
 30 31  1  0  0  0  0
 31 36  2  0  0  0  0
 31 32  1  0  0  0  0
 32 33  2  0  0  0  0
 33 34  1  0  0  0  0
 35 34  2  0  0  0  0
 36 35  1  0  0  0  0
M  END
>  <minimizedAffinity>
-7.14711237

$$$$

 OpenBabel03252504013D

 36 40  0  0  1  0  0  0  0  0999 V2000
   33.6460   28.6630   36.5920 C   0  0  0  0  0  0  0  0  0  0  0  0
   34.4170   29.2270   35.5870 C   0  0  0  0  0  0  0  0  0  0  0  0
   35.7480   29.4820   35.8690 C   0  0  0  0  0  0  0  0  0  0  0  0
   36.2280   29.1720   37.0980 N   0  0  0  0  0  0  0  0  0  0  0  0
   35.4330   28.6160   38.0610 C   0  0  0  0  0  0  0  0  0  0  0  0
   34.1430   28.3640   37.8030 N   0  0  0  0  0  0  0  0  0  0  0  0
   34.0800   29.4900   34.5990 H   0  0  0  0  0  0  0  0  0  0  0  0
   36.4030   29.9220   35.1240 H   0  0  0  0  0  0  0  0  0  0  0  0
   36.4130   26.9840   39.5720 C   0  0  0  0  0  0  0  0  0  0  0  0
   35.9770   28.2930   39.3750 C   0  0  0  0  0  0  0  0  0  0  0  0
   36.0760   29.1950   40.4020 C   0  0  0  0  0  0  0  0  0  0  0  0
   36.6050   28.7930   41.6060 C   0  0  0  0  0  0  0  0  0  0  0  0
   36.8200   29.4460   42.7660 N   0  0  0  0  0  0  0  0  0  0  0  0
   37.3640   28.6270   43.6750 C   0  0  0  0  0  0  0  0  0  0  0  0
   37.5180   27.3900   43.1120 C   0  0  0  0  0  0  0  0  0  0  0  0
   37.0410   27.4910   41.8100 C   0  0  0  0  0  0  0  0  0  0  0  0
   36.9430   26.5770   40.7790 C   0  0  0  0  0  0  0  0  0  0  0  0
   36.3770   26.1890   38.8190 H   0  0  0  0  0  0  0  0  0  0  0  0
   35.7340   30.2060   40.2340 H   0  0  0  0  0  0  0  0  0  0  0  0
   36.5980   30.4580   42.9460 H   0  0  0  0  0  0  0  0  0  0  0  0
   37.6430   28.8890   44.6980 H   0  0  0  0  0  0  0  0  0  0  0  0
   37.9260   26.4660   43.5400 H   0  0  0  0  0  0  0  0  0  0  0  0
   37.2920   25.5680   40.9670 H   0  0  0  0  0  0  0  0  0  0  0  0
   32.2510   28.4170   36.2440 C   0  0  2  0  0  3  0  0  0  0  0  0
   31.8410   27.3320   35.6890 O   0  0  0  0  0  1  0  0  0  0  0  0
   31.4390   29.5720   36.6190 C   0  0  0  0  0  0  0  0  0  0  0  0
   31.0130   29.7650   37.9370 C   0  0  0  0  0  0  0  0  0  0  0  0
   31.2920   29.0260   38.7020 H   0  0  0  0  0  0  0  0  0  0  0  0
   30.2520   30.8310   38.3670 C   0  0  0  0  0  3  0  0  0  0  0  0
   29.8770   31.7810   37.4470 C   0  0  0  0  0  3  0  0  0  0  0  0
   30.2680   31.6460   36.1310 C   0  0  0  0  0  0  0  0  0  0  0  0
   29.8770   32.6140   35.2290 C   0  0  0  0  0  3  0  0  0  0  0  0
   30.2360   32.5310   33.8980 C   0  0  0  0  0  3  0  0  0  0  0  0
   30.9970   31.4410   33.5370 C   0  0  0  0  0  3  0  0  0  0  0  0
   31.3860   30.4740   34.4400 C   0  0  0  0  0  3  0  0  0  0  0  0
   31.0290   30.5560   35.7670 C   0  0  0  0  0  0  0  0  0  0  0  0
  1  6  1  0  0  0  0
  2  3  1  0  0  0  0
  2  1  2  0  0  0  0
  3  4  2  0  0  0  0
  4  5  1  0  0  0  0
  5 10  1  0  0  0  0
  6  5  2  0  0  0  0
  7  2  1  0  0  0  0
  8  3  1  0  0  0  0
  9 17  1  0  0  0  0
 10  9  2  0  0  0  0
 10 11  1  0  0  0  0
 11 12  2  0  0  0  0
 12 16  1  0  0  0  0
 12 13  1  0  0  0  0
 13 20  1  0  0  0  0
 13 14  1  0  0  0  0
 14 21  1  0  0  0  0
 15 22  1  0  0  0  0
 15 14  2  0  0  0  0
 16 15  1  0  0  0  0
 17 23  1  0  0  0  0
 17 16  2  0  0  0  0
 18  9  1  0  0  0  0
 19 11  1  0  0  0  0
 24 25  1  6  0  0  0
 24  1  1  0  0  0  0
 24 26  1  0  0  0  0
 26 27  1  0  0  0  0
 27 29  2  0  0  0  0
 27 28  1  0  0  0  0
 30 29  1  0  0  0  0
 31 30  2  0  0  0  0
 32 31  1  0  0  0  0
 33 32  2  0  0  0  0
 34 33  1  0  0  0  0
 34 35  2  0  0  0  0
 35 36  1  0  0  0  0
 36 31  1  0  0  0  0
 36 26  2  0  0  0  0
M  END
>  <minimizedAffinity>
-7.09861374

$$$$

 OpenBabel03252504013D

 36 40  0  0  1  0  0  0  0  0999 V2000
   36.4210   29.5070   39.1610 C   0  0  0  0  0  0  0  0  0  0  0  0
   35.9370   29.1410   37.9140 C   0  0  0  0  0  0  0  0  0  0  0  0
   36.5920   29.6420   36.8020 C   0  0  0  0  0  0  0  0  0  0  0  0
   37.6610   30.4550   36.9830 N   0  0  0  0  0  0  0  0  0  0  0  0
   38.1060   30.7920   38.2310 C   0  0  0  0  0  0  0  0  0  0  0  0
   37.4830   30.3150   39.3160 N   0  0  0  0  0  0  0  0  0  0  0  0
   35.0940   28.5000   37.7230 H   0  0  0  0  0  0  0  0  0  0  0  0
   36.2620   29.3920   35.7990 H   0  0  0  0  0  0  0  0  0  0  0  0
   39.4790   32.1890   39.6690 C   0  0  0  0  0  0  0  0  0  0  0  0
   39.2590   31.6690   38.3950 C   0  0  0  0  0  0  0  0  0  0  0  0
   40.1160   32.0000   37.3770 C   0  0  0  0  0  0  0  0  0  0  0  0
   41.1760   32.8370   37.6330 C   0  0  0  0  0  0  0  0  0  0  0  0
   42.1580   33.3240   36.8460 N   0  0  0  0  0  0  0  0  0  0  0  0
   42.9790   34.1140   37.5500 C   0  0  0  0  0  0  0  0  0  0  0  0
   42.5370   34.1610   38.8440 C   0  0  0  0  0  0  0  0  0  0  0  0
   41.4030   33.3590   38.9000 C   0  0  0  0  0  0  0  0  0  0  0  0
   40.5430   33.0290   39.9280 C   0  0  0  0  0  0  0  0  0  0  0  0
   38.8560   31.9870   40.5470 H   0  0  0  0  0  0  0  0  0  0  0  0
   39.9310   31.5900   36.3950 H   0  0  0  0  0  0  0  0  0  0  0  0
   42.2760   33.1190   35.8220 H   0  0  0  0  0  0  0  0  0  0  0  0
   43.8560   34.6400   37.1690 H   0  0  0  0  0  0  0  0  0  0  0  0
   42.9440   34.6990   39.7080 H   0  0  0  0  0  0  0  0  0  0  0  0
   40.7440   33.4510   40.9070 H   0  0  0  0  0  0  0  0  0  0  0  0
   35.6940   28.9540   40.2980 C   0  0  2  0  0  3  0  0  0  0  0  0
   34.4110   28.9420   40.3790 O   0  0  0  0  0  1  0  0  0  0  0  0
   36.6400   28.4410   41.2850 C   0  0  0  0  0  0  0  0  0  0  0  0
   37.1710   29.2660   42.2820 C   0  0  0  0  0  0  0  0  0  0  0  0
   36.8710   30.3230   42.3170 H   0  0  0  0  0  0  0  0  0  0  0  0
   38.0620   28.8530   43.2490 C   0  0  0  0  0  3  0  0  0  0  0  0
   38.4680   27.5390   43.2470 C   0  0  0  0  0  3  0  0  0  0  0  0
   37.9790   26.6770   42.2880 C   0  0  0  0  0  0  0  0  0  0  0  0
   38.4040   25.3640   42.3100 C   0  0  0  0  0  3  0  0  0  0  0  0
   37.9490   24.4550   41.3740 C   0  0  0  0  0  3  0  0  0  0  0  0
   37.0610   24.9360   40.4370 C   0  0  0  0  0  3  0  0  0  0  0  0
   36.6380   26.2480   40.4180 C   0  0  0  0  0  3  0  0  0  0  0  0
   37.0900   27.1550   41.3500 C   0  0  0  0  0  0  0  0  0  0  0  0
  1  6  1  0  0  0  0
  1 24  1  0  0  0  0
  2  1  2  0  0  0  0
  3  4  2  0  0  0  0
  3  2  1  0  0  0  0
  4  5  1  0  0  0  0
  5 10  1  0  0  0  0
  5  6  2  0  0  0  0
  7  2  1  0  0  0  0
  8  3  1  0  0  0  0
  9 17  1  0  0  0  0
  9 18  1  0  0  0  0
 10  9  2  0  0  0  0
 11 12  2  0  0  0  0
 11 10  1  0  0  0  0
 12 16  1  0  0  0  0
 13 14  1  0  0  0  0
 13 12  1  0  0  0  0
 14 15  2  0  0  0  0
 15 16  1  0  0  0  0
 15 22  1  0  0  0  0
 16 17  2  0  0  0  0
 17 23  1  0  0  0  0
 19 11  1  0  0  0  0
 20 13  1  0  0  0  0
 21 14  1  0  0  0  0
 24 25  1  1  0  0  0
 24 26  1  0  0  0  0
 26 36  2  0  0  0  0
 26 27  1  0  0  0  0
 27 28  1  0  0  0  0
 27 29  2  0  0  0  0
 30 29  1  0  0  0  0
 31 32  1  0  0  0  0
 31 30  2  0  0  0  0
 33 32  2  0  0  0  0
 34 33  1  0  0  0  0
 35 34  2  0  0  0  0
 35 36  1  0  0  0  0
 36 31  1  0  0  0  0
M  END
>  <minimizedAffinity>
-7.04206085

$$$$

 OpenBabel03252504013D

 36 40  0  0  0  0  0  0  0  0999 V2000
   37.0300   26.4240   41.5600 C   0  0  0  0  0  0  0  0  0  0  0  0
   37.0890   25.0390   41.5250 C   0  0  0  0  0  0  0  0  0  0  0  0
   36.8480   24.4180   40.3120 C   0  0  0  0  0  0  0  0  0  0  0  0
   36.5710   25.1840   39.2290 N   0  0  0  0  0  0  0  0  0  0  0  0
   36.5220   26.5480   39.3060 C   0  0  0  0  0  0  0  0  0  0  0  0
   36.7530   27.1630   40.4730 N   0  0  0  0  0  0  0  0  0  0  0  0
   37.3050   24.3910   42.3580 H   0  0  0  0  0  0  0  0  0  0  0  0
   36.8800   23.3370   40.2200 H   0  0  0  0  0  0  0  0  0  0  0  0
   34.9760   27.9720   38.0860 C   0  0  0  0  0  0  0  0  0  0  0  0
   36.2210   27.3470   38.1230 C   0  0  0  0  0  0  0  0  0  0  0  0
   37.0840   27.5060   37.0700 C   0  0  0  0  0  0  0  0  0  0  0  0
   36.7060   28.2790   35.9980 C   0  0  0  0  0  0  0  0  0  0  0  0
   37.3330   28.6070   34.8490 N   0  0  0  0  0  0  0  0  0  0  0  0
   36.5580   29.3980   34.0970 C   0  0  0  0  0  0  0  0  0  0  0  0
   35.3780   29.6090   34.7580 C   0  0  0  0  0  0  0  0  0  0  0  0
   35.4680   28.9070   35.9540 C   0  0  0  0  0  0  0  0  0  0  0  0
   34.5940   28.7500   37.0110 C   0  0  0  0  0  0  0  0  0  0  0  0
   34.2160   27.9090   38.8730 H   0  0  0  0  0  0  0  0  0  0  0  0
   38.0450   27.0130   37.1130 H   0  0  0  0  0  0  0  0  0  0  0  0
   38.2960   28.2920   34.5700 H   0  0  0  0  0  0  0  0  0  0  0  0
   36.8110   29.8120   33.1200 H   0  0  0  0  0  0  0  0  0  0  0  0
   34.5010   30.1980   34.4630 H   0  0  0  0  0  0  0  0  0  0  0  0
   33.6350   29.2510   36.9500 H   0  0  0  0  0  0  0  0  0  0  0  0
   37.2890   27.0270   42.8630 C   0  0  0  0  0  0  0  0  0  0  0  0
   36.3590   27.3730   43.6790 O   0  0  0  0  0  0  0  0  0  0  0  0
   38.7290   27.1610   43.0640 C   0  0  0  0  0  0  0  0  0  0  0  0
   39.5130   26.0740   43.4640 C   0  0  0  0  0  0  0  0  0  0  0  0
   39.0300   25.1010   43.6340 H   0  0  0  0  0  0  0  0  0  0  0  0
   40.8750   26.1220   43.6680 C   0  0  0  0  0  3  0  0  0  0  0  0
   41.5250   27.3180   43.4690 C   0  0  0  0  0  3  0  0  0  0  0  0
   40.8060   28.4260   43.0740 C   0  0  0  0  0  0  0  0  0  0  0  0
   41.4840   29.6120   42.8820 C   0  0  0  0  0  3  0  0  0  0  0  0
   40.8160   30.7560   42.4880 C   0  0  0  0  0  3  0  0  0  0  0  0
   39.4570   30.6360   42.3020 C   0  0  0  0  0  3  0  0  0  0  0  0
   38.7810   29.4490   42.4950 C   0  0  0  0  0  3  0  0  0  0  0  0
   39.4450   28.3090   42.8870 C   0  0  0  0  0  0  0  0  0  0  0  0
  1 24  1  0  0  0  0
  2  1  1  0  0  0  0
  2  7  1  0  0  0  0
  3  2  2  0  0  0  0
  4  5  2  0  0  0  0
  4  3  1  0  0  0  0
  5  6  1  0  0  0  0
  6  1  2  0  0  0  0
  8  3  1  0  0  0  0
  9 10  1  0  0  0  0
  9 18  1  0  0  0  0
 10  5  1  0  0  0  0
 11 19  1  0  0  0  0
 11 10  2  0  0  0  0
 12 11  1  0  0  0  0
 13 12  1  0  0  0  0
 14 15  2  0  0  0  0
 14 13  1  0  0  0  0
 15 16  1  0  0  0  0
 16 12  2  0  0  0  0
 16 17  1  0  0  0  0
 17  9  2  0  0  0  0
 20 13  1  0  0  0  0
 21 14  1  0  0  0  0
 22 15  1  0  0  0  0
 23 17  1  0  0  0  0
 24 26  1  0  0  0  0
 24 25  2  0  0  0  0
 26 27  1  0  0  0  0
 27 28  1  0  0  0  0
 27 29  2  0  0  0  0
 30 29  1  0  0  0  0
 31 30  2  0  0  0  0
 32 31  1  0  0  0  0
 33 32  2  0  0  0  0
 34 33  1  0  0  0  0
 34 35  2  0  0  0  0
 35 36  1  0  0  0  0
 36 26  2  0  0  0  0
 36 31  1  0  0  0  0
M  END
>  <minimizedAffinity>
-6.95744944

$$$$

 OpenBabel03252504013D

 36 40  0  0  1  0  0  0  0  0999 V2000
   37.1910   30.5310   39.9610 C   0  0  0  0  0  0  0  0  0  0  0  0
   36.9870   31.8650   40.2830 C   0  0  0  0  0  0  0  0  0  0  0  0
   37.9080   32.7850   39.8120 C   0  0  0  0  0  0  0  0  0  0  0  0
   38.9510   32.3450   39.0670 N   0  0  0  0  0  0  0  0  0  0  0  0
   39.1150   31.0200   38.7720 C   0  0  0  0  0  0  0  0  0  0  0  0
   38.2330   30.1180   39.2210 N   0  0  0  0  0  0  0  0  0  0  0  0
   36.1750   32.2600   40.8700 H   0  0  0  0  0  0  0  0  0  0  0  0
   37.8020   33.8430   40.0300 H   0  0  0  0  0  0  0  0  0  0  0  0
   40.2440   29.2430   37.5570 C   0  0  0  0  0  0  0  0  0  0  0  0
   40.2480   30.5750   37.9690 C   0  0  0  0  0  0  0  0  0  0  0  0
   41.2930   31.3860   37.6090 C   0  0  0  0  0  0  0  0  0  0  0  0
   42.3160   30.8720   36.8490 C   0  0  0  0  0  0  0  0  0  0  0  0
   43.4460   31.4210   36.3570 N   0  0  0  0  0  0  0  0  0  0  0  0
   44.1490   30.5160   35.6640 C   0  0  0  0  0  0  0  0  0  0  0  0
   43.4730   29.3260   35.6900 C   0  0  0  0  0  0  0  0  0  0  0  0
   42.3200   29.5470   36.4350 C   0  0  0  0  0  0  0  0  0  0  0  0
   41.2710   28.7250   36.7940 C   0  0  0  0  0  0  0  0  0  0  0  0
   39.4600   28.5150   37.7910 H   0  0  0  0  0  0  0  0  0  0  0  0
   41.2810   32.4160   37.9360 H   0  0  0  0  0  0  0  0  0  0  0  0
   43.7460   32.4200   36.4910 H   0  0  0  0  0  0  0  0  0  0  0  0
   45.1010   30.6840   35.1580 H   0  0  0  0  0  0  0  0  0  0  0  0
   43.7300   28.3600   35.2390 H   0  0  0  0  0  0  0  0  0  0  0  0
   41.3000   27.6950   36.4570 H   0  0  0  0  0  0  0  0  0  0  0  0
   36.1940   29.6040   40.4840 C   0  0  2  0  0  3  0  0  0  0  0  0
   34.9610   29.6120   40.1180 O   0  0  0  0  0  1  0  0  0  0  0  0
   36.8160   28.7080   41.4540 C   0  0  0  0  0  0  0  0  0  0  0  0
   37.3080   29.1830   42.6740 C   0  0  0  0  0  0  0  0  0  0  0  0
   37.2270   30.2560   42.9010 H   0  0  0  0  0  0  0  0  0  0  0  0
   37.9010   28.3990   43.6390 C   0  0  0  0  0  3  0  0  0  0  0  0
   38.0260   27.0510   43.4020 C   0  0  0  0  0  3  0  0  0  0  0  0
   37.5600   26.5220   42.2170 C   0  0  0  0  0  0  0  0  0  0  0  0
   37.6990   25.1660   42.0050 C   0  0  0  0  0  3  0  0  0  0  0  0
   37.2530   24.5810   40.8350 C   0  0  0  0  0  3  0  0  0  0  0  0
   36.6700   25.4230   39.9150 C   0  0  0  0  0  3  0  0  0  0  0  0
   36.5320   26.7780   40.1280 C   0  0  0  0  0  3  0  0  0  0  0  0
   36.9760   27.3630   41.2930 C   0  0  0  0  0  0  0  0  0  0  0  0
  1  2  1  0  0  0  0
  1 24  1  0  0  0  0
  2  7  1  0  0  0  0
  3  8  1  0  0  0  0
  3  2  2  0  0  0  0
  4  3  1  0  0  0  0
  5  4  2  0  0  0  0
  5  6  1  0  0  0  0
  6  1  2  0  0  0  0
  9 18  1  0  0  0  0
  9 10  1  0  0  0  0
 10  5  1  0  0  0  0
 11 19  1  0  0  0  0
 11 10  2  0  0  0  0
 12 11  1  0  0  0  0
 13 20  1  0  0  0  0
 13 12  1  0  0  0  0
 14 15  2  0  0  0  0
 14 13  1  0  0  0  0
 15 16  1  0  0  0  0
 16 17  1  0  0  0  0
 16 12  2  0  0  0  0
 17  9  2  0  0  0  0
 21 14  1  0  0  0  0
 22 15  1  0  0  0  0
 23 17  1  0  0  0  0
 24 25  1  1  0  0  0
 24 26  1  0  0  0  0
 26 27  1  0  0  0  0
 27 28  1  0  0  0  0
 27 29  2  0  0  0  0
 30 29  1  0  0  0  0
 31 30  2  0  0  0  0
 32 31  1  0  0  0  0
 33 32  2  0  0  0  0
 34 35  2  0  0  0  0
 34 33  1  0  0  0  0
 35 36  1  0  0  0  0
 36 26  2  0  0  0  0
 36 31  1  0  0  0  0
M  END
>  <minimizedAffinity>
-6.95648384

$$$$

 OpenBabel03252504013D

 36 40  0  0  1  0  0  0  0  0999 V2000
   38.6610   31.1970   41.1120 C   0  0  0  0  0  0  0  0  0  0  0  0
   38.6600   32.5840   41.1500 C   0  0  0  0  0  0  0  0  0  0  0  0
   38.0240   33.2530   40.1180 C   0  0  0  0  0  0  0  0  0  0  0  0
   37.4390   32.5290   39.1330 N   0  0  0  0  0  0  0  0  0  0  0  0
   37.4620   31.1620   39.1330 C   0  0  0  0  0  0  0  0  0  0  0  0
   38.0740   30.5020   40.1240 N   0  0  0  0  0  0  0  0  0  0  0  0
   39.1110   33.1990   41.9110 H   0  0  0  0  0  0  0  0  0  0  0  0
   37.9890   34.3370   40.0920 H   0  0  0  0  0  0  0  0  0  0  0  0
   35.6920   29.6710   38.3930 C   0  0  0  0  0  0  0  0  0  0  0  0
   36.8240   30.4110   38.0580 C   0  0  0  0  0  0  0  0  0  0  0  0
   37.2770   30.3970   36.7640 C   0  0  0  0  0  0  0  0  0  0  0  0
   36.6050   29.6560   35.8210 C   0  0  0  0  0  0  0  0  0  0  0  0
   36.8140   29.4590   34.5030 N   0  0  0  0  0  0  0  0  0  0  0  0
   35.8840   28.6420   33.9940 C   0  0  0  0  0  0  0  0  0  0  0  0
   35.0250   28.2810   34.9960 C   0  0  0  0  0  0  0  0  0  0  0  0
   35.4760   28.9160   36.1470 C   0  0  0  0  0  0  0  0  0  0  0  0
   35.0160   28.9250   37.4480 C   0  0  0  0  0  0  0  0  0  0  0  0
   35.2510   29.6140   39.3940 H   0  0  0  0  0  0  0  0  0  0  0  0
   38.1560   30.9760   36.5200 H   0  0  0  0  0  0  0  0  0  0  0  0
   37.5960   29.8820   33.9410 H   0  0  0  0  0  0  0  0  0  0  0  0
   35.8090   28.3120   32.9560 H   0  0  0  0  0  0  0  0  0  0  0  0
   34.1430   27.6280   34.9670 H   0  0  0  0  0  0  0  0  0  0  0  0
   34.1320   28.3390   37.6740 H   0  0  0  0  0  0  0  0  0  0  0  0
   39.3460   30.5430   42.2210 C   0  0  2  0  0  3  0  0  0  0  0  0
   40.3070   31.0880   42.8780 O   0  0  0  0  0  1  0  0  0  0  0  0
   38.7730   29.2190   42.4410 C   0  0  0  0  0  0  0  0  0  0  0  0
   37.5540   29.0540   43.1080 C   0  0  0  0  0  0  0  0  0  0  0  0
   37.0230   29.9440   43.4760 H   0  0  0  0  0  0  0  0  0  0  0  0
   36.9480   27.8400   43.3460 C   0  0  0  0  0  3  0  0  0  0  0  0
   37.5740   26.6980   42.9040 C   0  0  0  0  0  3  0  0  0  0  0  0
   38.7790   26.7960   42.2400 C   0  0  0  0  0  0  0  0  0  0  0  0
   39.3850   25.6330   41.8090 C   0  0  0  0  0  3  0  0  0  0  0  0
   40.5930   25.6690   41.1400 C   0  0  0  0  0  3  0  0  0  0  0  0
   41.1410   26.9160   40.9340 C   0  0  0  0  0  3  0  0  0  0  0  0
   40.5340   28.0760   41.3670 C   0  0  0  0  0  3  0  0  0  0  0  0
   39.3300   28.0420   42.0340 C   0  0  0  0  0  0  0  0  0  0  0  0
  1  2  1  0  0  0  0
  1 24  1  0  0  0  0
  2  7  1  0  0  0  0
  3  2  2  0  0  0  0
  4  3  1  0  0  0  0
  5  4  2  0  0  0  0
  5  6  1  0  0  0  0
  6  1  2  0  0  0  0
  8  3  1  0  0  0  0
  9 18  1  0  0  0  0
 10  9  1  0  0  0  0
 10  5  1  0  0  0  0
 11 10  2  0  0  0  0
 12 16  2  0  0  0  0
 12 11  1  0  0  0  0
 13 12  1  0  0  0  0
 14 13  1  0  0  0  0
 14 15  2  0  0  0  0
 15 16  1  0  0  0  0
 16 17  1  0  0  0  0
 17 23  1  0  0  0  0
 17  9  2  0  0  0  0
 19 11  1  0  0  0  0
 20 13  1  0  0  0  0
 21 14  1  0  0  0  0
 22 15  1  0  0  0  0
 24 26  1  0  0  0  0
 24 25  1  6  0  0  0
 26 27  1  0  0  0  0
 27 29  2  0  0  0  0
 27 28  1  0  0  0  0
 30 29  1  0  0  0  0
 31 30  2  0  0  0  0
 32 31  1  0  0  0  0
 33 32  2  0  0  0  0
 34 33  1  0  0  0  0
 34 35  2  0  0  0  0
 35 36  1  0  0  0  0
 36 31  1  0  0  0  0
 36 26  2  0  0  0  0
M  END
>  <minimizedAffinity>
-6.61882734

$$$$

 OpenBabel03252504013D

 36 40  0  0  0  0  0  0  0  0999 V2000
   35.6000   28.2400   36.2450 C   0  0  0  0  0  0  0  0  0  0  0  0
   35.6160   27.4010   35.1400 C   0  0  0  0  0  0  0  0  0  0  0  0
   34.4590   27.3150   34.3850 C   0  0  0  0  0  0  0  0  0  0  0  0
   33.3800   28.0460   34.7570 N   0  0  0  0  0  0  0  0  0  0  0  0
   33.4060   28.8610   35.8530 C   0  0  0  0  0  0  0  0  0  0  0  0
   34.5180   28.9550   36.5940 N   0  0  0  0  0  0  0  0  0  0  0  0
   36.4480   26.8030   34.8080 H   0  0  0  0  0  0  0  0  0  0  0  0
   34.4090   26.6760   33.5090 H   0  0  0  0  0  0  0  0  0  0  0  0
   31.6650   30.4430   35.2420 C   0  0  0  0  0  0  0  0  0  0  0  0
   32.2290   29.6360   36.2290 C   0  0  0  0  0  0  0  0  0  0  0  0
   31.6650   29.6090   37.4780 C   0  0  0  0  0  0  0  0  0  0  0  0
   30.5540   30.3760   37.7340 C   0  0  0  0  0  0  0  0  0  0  0  0
   29.8040   30.5470   38.8430 N   0  0  0  0  0  0  0  0  0  0  0  0
   28.8060   31.4090   38.6100 C   0  0  0  0  0  0  0  0  0  0  0  0
   28.8870   31.8300   37.3110 C   0  0  0  0  0  0  0  0  0  0  0  0
   29.9850   31.1830   36.7570 C   0  0  0  0  0  0  0  0  0  0  0  0
   30.5490   31.2150   35.4970 C   0  0  0  0  0  0  0  0  0  0  0  0
   32.0370   30.5360   34.2170 H   0  0  0  0  0  0  0  0  0  0  0  0
   32.1140   28.9780   38.2320 H   0  0  0  0  0  0  0  0  0  0  0  0
   29.9680   30.0730   39.7670 H   0  0  0  0  0  0  0  0  0  0  0  0
   28.0480   31.7310   39.3270 H   0  0  0  0  0  0  0  0  0  0  0  0
   28.2510   32.5310   36.7570 H   0  0  0  0  0  0  0  0  0  0  0  0
   30.0840   31.8530   34.7540 H   0  0  0  0  0  0  0  0  0  0  0  0
   36.8440   28.2920   37.0060 C   0  0  0  0  0  0  0  0  0  0  0  0
   37.9770   27.9110   36.5350 O   0  0  0  0  0  0  0  0  0  0  0  0
   36.5830   28.8290   38.3380 C   0  0  0  0  0  0  0  0  0  0  0  0
   36.0600   28.0260   39.3580 C   0  0  0  0  0  0  0  0  0  0  0  0
   35.8380   26.9700   39.1450 H   0  0  0  0  0  0  0  0  0  0  0  0
   35.7940   28.4590   40.6380 C   0  0  0  0  0  3  0  0  0  0  0  0
   36.0550   29.7720   40.9530 C   0  0  0  0  0  3  0  0  0  0  0  0
   36.5710   30.6130   39.9900 C   0  0  0  0  0  0  0  0  0  0  0  0
   36.8220   31.9260   40.3330 C   0  0  0  0  0  3  0  0  0  0  0  0
   37.3370   32.8150   39.4100 C   0  0  0  0  0  3  0  0  0  0  0  0
   37.5800   32.3150   38.1500 C   0  0  0  0  0  3  0  0  0  0  0  0
   37.3280   31.0030   37.8090 C   0  0  0  0  0  3  0  0  0  0  0  0
   36.8140   30.1160   38.7280 C   0  0  0  0  0  0  0  0  0  0  0  0
  1  6  1  0  0  0  0
  1 24  1  0  0  0  0
  2  1  2  0  0  0  0
  3  4  2  0  0  0  0
  3  2  1  0  0  0  0
  4  5  1  0  0  0  0
  5 10  1  0  0  0  0
  5  6  2  0  0  0  0
  7  2  1  0  0  0  0
  8  3  1  0  0  0  0
  9 17  2  0  0  0  0
  9 10  1  0  0  0  0
 10 11  2  0  0  0  0
 11 12  1  0  0  0  0
 11 19  1  0  0  0  0
 12 13  1  0  0  0  0
 13 20  1  0  0  0  0
 14 13  1  0  0  0  0
 14 21  1  0  0  0  0
 15 14  2  0  0  0  0
 16 15  1  0  0  0  0
 16 12  2  0  0  0  0
 17 16  1  0  0  0  0
 18  9  1  0  0  0  0
 22 15  1  0  0  0  0
 23 17  1  0  0  0  0
 24 26  1  0  0  0  0
 25 24  2  0  0  0  0
 26 36  2  0  0  0  0
 26 27  1  0  0  0  0
 27 29  2  0  0  0  0
 28 27  1  0  0  0  0
 29 30  1  0  0  0  0
 31 32  1  0  0  0  0
 31 30  2  0  0  0  0
 33 32  2  0  0  0  0
 34 33  1  0  0  0  0
 35 34  2  0  0  0  0
 35 36  1  0  0  0  0
 36 31  1  0  0  0  0
M  END
>  <minimizedAffinity>
-6.5379467

$$$$

 OpenBabel03252504013D

 36 40  0  0  0  0  0  0  0  0999 V2000
   37.7070   29.8430   40.9790 C   0  0  0  0  0  0  0  0  0  0  0  0
   36.7310   30.8180   40.8410 C   0  0  0  0  0  0  0  0  0  0  0  0
   36.8910   31.7460   39.8260 C   0  0  0  0  0  0  0  0  0  0  0  0
   37.9810   31.6570   39.0260 N   0  0  0  0  0  0  0  0  0  0  0  0
   38.9220   30.6790   39.1960 C   0  0  0  0  0  0  0  0  0  0  0  0
   38.7800   29.7750   40.1740 N   0  0  0  0  0  0  0  0  0  0  0  0
   35.8500   30.9270   41.4520 H   0  0  0  0  0  0  0  0  0  0  0  0
   36.1610   32.5320   39.6670 H   0  0  0  0  0  0  0  0  0  0  0  0
   40.7000   31.8160   37.9920 C   0  0  0  0  0  0  0  0  0  0  0  0
   40.0850   30.6090   38.3190 C   0  0  0  0  0  0  0  0  0  0  0  0
   40.5890   29.4390   37.8130 C   0  0  0  0  0  0  0  0  0  0  0  0
   41.6920   29.4780   36.9930 C   0  0  0  0  0  0  0  0  0  0  0  0
   42.3900   28.5100   36.3640 N   0  0  0  0  0  0  0  0  0  0  0  0
   43.4030   29.0360   35.6650 C   0  0  0  0  0  0  0  0  0  0  0  0
   43.3860   30.3950   35.8270 C   0  0  0  0  0  0  0  0  0  0  0  0
   42.3110   30.6760   36.6620 C   0  0  0  0  0  0  0  0  0  0  0  0
   41.8070   31.8580   37.1690 C   0  0  0  0  0  0  0  0  0  0  0  0
   40.3770   32.8030   38.3420 H   0  0  0  0  0  0  0  0  0  0  0  0
   40.1000   28.5120   38.0760 H   0  0  0  0  0  0  0  0  0  0  0  0
   42.1790   27.4810   36.4090 H   0  0  0  0  0  0  0  0  0  0  0  0
   44.1280   28.4870   35.0620 H   0  0  0  0  0  0  0  0  0  0  0  0
   44.0520   31.1620   35.4140 H   0  0  0  0  0  0  0  0  0  0  0  0
   42.3110   32.7780   36.8940 H   0  0  0  0  0  0  0  0  0  0  0  0
   37.4900   28.8930   42.0650 C   0  0  0  0  0  0  0  0  0  0  0  0
   37.3370   29.2440   43.2910 O   0  0  0  0  0  0  0  0  0  0  0  0
   37.4800   27.5330   41.5330 C   0  0  0  0  0  0  0  0  0  0  0  0
   36.6610   27.1780   40.4550 C   0  0  0  0  0  0  0  0  0  0  0  0
   36.0100   27.9410   40.0060 H   0  0  0  0  0  0  0  0  0  0  0  0
   36.6020   25.9200   39.8970 C   0  0  0  0  0  3  0  0  0  0  0  0
   37.3980   24.9310   40.4250 C   0  0  0  0  0  3  0  0  0  0  0  0
   38.2270   25.2200   41.4880 C   0  0  0  0  0  0  0  0  0  0  0  0
   39.0140   24.2080   41.9990 C   0  0  0  0  0  3  0  0  0  0  0  0
   39.8630   24.4370   43.0650 C   0  0  0  0  0  3  0  0  0  0  0  0
   39.8720   25.7170   43.5740 C   0  0  0  0  0  3  0  0  0  0  0  0
   39.0840   26.7260   43.0620 C   0  0  0  0  0  3  0  0  0  0  0  0
   38.2380   26.4990   42.0000 C   0  0  0  0  0  0  0  0  0  0  0  0
  1 24  1  0  0  0  0
  2  1  1  0  0  0  0
  2  7  1  0  0  0  0
  3  2  2  0  0  0  0
  4  5  2  0  0  0  0
  4  3  1  0  0  0  0
  5  6  1  0  0  0  0
  6  1  2  0  0  0  0
  8  3  1  0  0  0  0
  9 10  1  0  0  0  0
  9 18  1  0  0  0  0
 10  5  1  0  0  0  0
 11 19  1  0  0  0  0
 11 10  2  0  0  0  0
 12 11  1  0  0  0  0
 13 20  1  0  0  0  0
 13 12  1  0  0  0  0
 14 15  2  0  0  0  0
 14 13  1  0  0  0  0
 15 16  1  0  0  0  0
 16 12  2  0  0  0  0
 16 17  1  0  0  0  0
 17  9  2  0  0  0  0
 21 14  1  0  0  0  0
 22 15  1  0  0  0  0
 23 17  1  0  0  0  0
 24 25  2  0  0  0  0
 26 36  1  0  0  0  0
 26 24  1  0  0  0  0
 27 26  2  0  0  0  0
 28 27  1  0  0  0  0
 29 30  2  0  0  0  0
 29 27  1  0  0  0  0
 30 31  1  0  0  0  0
 31 32  2  0  0  0  0
 31 36  1  0  0  0  0
 32 33  1  0  0  0  0
 33 34  2  0  0  0  0
 35 34  1  0  0  0  0
 36 35  2  0  0  0  0
M  END
>  <minimizedAffinity>
-6.53393316

$$$$

 OpenBabel03252504013D

 36 40  0  0  0  0  0  0  0  0999 V2000
   39.3480   29.6280   40.1500 C   0  0  0  0  0  0  0  0  0  0  0  0
   40.0000   30.8420   39.9920 C   0  0  0  0  0  0  0  0  0  0  0  0
   39.5150   31.7080   39.0270 C   0  0  0  0  0  0  0  0  0  0  0  0
   38.4400   31.3330   38.2920 N   0  0  0  0  0  0  0  0  0  0  0  0
   37.8260   30.1260   38.4810 C   0  0  0  0  0  0  0  0  0  0  0  0
   38.2840   29.2770   39.4100 N   0  0  0  0  0  0  0  0  0  0  0  0
   40.8560   31.1820   40.5510 H   0  0  0  0  0  0  0  0  0  0  0  0
   39.9820   32.6720   38.8550 H   0  0  0  0  0  0  0  0  0  0  0  0
   36.8210   29.8110   36.2900 C   0  0  0  0  0  0  0  0  0  0  0  0
   36.6700   29.7490   37.6750 C   0  0  0  0  0  0  0  0  0  0  0  0
   35.4700   29.3470   38.2020 C   0  0  0  0  0  0  0  0  0  0  0  0
   34.4390   29.0130   37.3580 C   0  0  0  0  0  0  0  0  0  0  0  0
   33.1780   28.5930   37.5870 N   0  0  0  0  0  0  0  0  0  0  0  0
   32.5310   28.3880   36.4330 C   0  0  0  0  0  0  0  0  0  0  0  0
   33.3790   28.6780   35.3990 C   0  0  0  0  0  0  0  0  0  0  0  0
   34.5810   29.0710   35.9770 C   0  0  0  0  0  0  0  0  0  0  0  0
   35.7860   29.4750   35.4400 C   0  0  0  0  0  0  0  0  0  0  0  0
   37.7340   30.1180   35.7700 H   0  0  0  0  0  0  0  0  0  0  0  0
   35.3700   29.3050   39.2780 H   0  0  0  0  0  0  0  0  0  0  0  0
   32.7490   28.4420   38.5350 H   0  0  0  0  0  0  0  0  0  0  0  0
   31.5000   28.0470   36.3200 H   0  0  0  0  0  0  0  0  0  0  0  0
   33.2120   28.6310   34.3160 H   0  0  0  0  0  0  0  0  0  0  0  0
   35.8680   29.5110   34.3590 H   0  0  0  0  0  0  0  0  0  0  0  0
   39.9010   28.7540   41.1790 C   0  0  0  0  0  0  0  0  0  0  0  0
   41.1620   28.5790   41.3550 O   0  0  0  0  0  0  0  0  0  0  0  0
   38.8150   28.1390   41.9370 C   0  0  0  0  0  0  0  0  0  0  0  0
   38.1190   28.8500   42.9200 C   0  0  0  0  0  0  0  0  0  0  0  0
   38.4040   29.8920   43.1260 H   0  0  0  0  0  0  0  0  0  0  0  0
   37.0820   28.3410   43.6700 C   0  0  0  0  0  3  0  0  0  0  0  0
   36.6910   27.0420   43.4490 C   0  0  0  0  0  3  0  0  0  0  0  0
   37.3380   26.2890   42.4930 C   0  0  0  0  0  0  0  0  0  0  0  0
   36.9250   24.9880   42.2920 C   0  0  0  0  0  3  0  0  0  0  0  0
   37.5370   24.1860   41.3490 C   0  0  0  0  0  3  0  0  0  0  0  0
   38.5660   24.7590   40.6350 C   0  0  0  0  0  3  0  0  0  0  0  0
   38.9780   26.0590   40.8370 C   0  0  0  0  0  3  0  0  0  0  0  0
   38.3680   26.8600   41.7770 C   0  0  0  0  0  0  0  0  0  0  0  0
  1 24  1  0  0  0  0
  2  1  1  0  0  0  0
  2  7  1  0  0  0  0
  3  2  2  0  0  0  0
  4  5  2  0  0  0  0
  4  3  1  0  0  0  0
  5  6  1  0  0  0  0
  6  1  2  0  0  0  0
  8  3  1  0  0  0  0
  9 10  1  0  0  0  0
 10 11  2  0  0  0  0
 10  5  1  0  0  0  0
 11 19  1  0  0  0  0
 12 13  1  0  0  0  0
 12 11  1  0  0  0  0
 13 20  1  0  0  0  0
 14 13  1  0  0  0  0
 15 16  1  0  0  0  0
 15 14  2  0  0  0  0
 16 12  2  0  0  0  0
 17 16  1  0  0  0  0
 17  9  2  0  0  0  0
 18  9  1  0  0  0  0
 21 14  1  0  0  0  0
 22 15  1  0  0  0  0
 23 17  1  0  0  0  0
 24 25  2  0  0  0  0
 24 26  1  0  0  0  0
 26 27  1  0  0  0  0
 27 28  1  0  0  0  0
 27 29  2  0  0  0  0
 30 29  1  0  0  0  0
 31 30  2  0  0  0  0
 32 31  1  0  0  0  0
 33 32  2  0  0  0  0
 34 35  2  0  0  0  0
 34 33  1  0  0  0  0
 35 36  1  0  0  0  0
 36 26  2  0  0  0  0
 36 31  1  0  0  0  0
M  END
>  <minimizedAffinity>
-6.50094461

$$$$
