
 OpenBabel03252509003D

 47 50  0  0  1  0  0  0  0  0999 V2000
   47.2270   34.1060   43.0290 N   0  0  0  0  0  0  0  0  0  0  0  0
   46.7500   35.3430   42.5260 C   0  0  0  0  0  0  0  0  0  0  0  0
   45.2740   35.5950   42.7450 C   0  0  0  0  0  0  0  0  0  0  0  0
   44.7230   35.0010   44.0190 C   0  0  0  0  0  0  0  0  0  0  0  0
   45.8110   34.3720   44.8540 C   0  0  0  0  0  0  0  0  0  0  0  0
   46.4590   33.3260   43.8750 C   0  0  2  0  0  0  0  0  0  0  0  0
   47.2670   36.1480   43.1080 H   0  0  0  0  0  0  0  0  0  0  0  0
   46.9740   35.5490   41.4800 H   0  0  0  0  0  0  0  0  0  0  0  0
   44.7260   35.2740   41.8300 H   0  0  0  0  0  0  0  0  0  0  0  0
   45.1000   36.6930   42.8080 H   0  0  0  0  0  0  0  0  0  0  0  0
   44.1000   35.7210   44.6000 H   0  0  0  0  0  0  0  0  0  0  0  0
   44.0410   34.1730   43.7240 H   0  0  0  0  0  0  0  0  0  0  0  0
   46.6030   35.0560   45.1550 H   0  0  0  0  0  0  0  0  0  0  0  0
   45.3240   33.8000   45.6510 H   0  0  0  0  0  0  0  0  0  0  0  0
   45.6170   32.7450   43.4190 H   0  0  0  0  0  0  0  0  0  0  0  0
   48.1930   33.4670   42.1860 C   0  0  0  0  0  0  0  0  0  0  0  0
   48.8350   32.7610   42.7810 H   0  0  0  0  0  0  0  0  0  0  0  0
   48.8130   34.2510   41.7250 H   0  0  0  0  0  0  0  0  0  0  0  0
   47.4800   32.6540   41.1570 C   0  0  0  0  0  0  0  0  0  0  0  0
   47.4900   31.5680   41.3220 H   0  0  0  0  0  0  0  0  0  0  0  0
   46.4010   32.9400   41.1110 H   0  0  0  0  0  0  0  0  0  0  0  0
   49.3540   32.3450   37.9180 C   0  0  0  0  0  0  0  0  0  0  0  0
   48.8320   32.0480   39.1900 C   0  0  0  0  0  0  0  0  0  0  0  0
   48.0290   32.9720   39.8130 C   0  0  0  0  0  0  0  0  0  0  0  0
   47.7800   34.1210   39.1670 N   0  0  0  0  0  0  0  0  0  0  0  0
   48.2910   34.3870   37.9460 C   0  0  0  0  0  0  0  0  0  0  0  0
   49.0780   33.5050   37.3140 N   0  0  0  0  0  0  0  0  0  0  0  0
   49.9760   31.5320   37.5330 H   0  0  0  0  0  0  0  0  0  0  0  0
   49.0390   31.1110   39.7100 H   0  0  0  0  0  0  0  0  0  0  0  0
   48.0830   35.3250   37.4290 H   0  0  0  0  0  0  0  0  0  0  0  0
   47.2400   32.5790   44.7430 O   0  0  0  0  0  0  0  0  0  0  0  0
   47.3130   30.1150   43.7460 O   0  0  0  0  0  0  0  0  0  0  0  0
   46.7320   30.9800   44.8680 P   0  0  2  0  0  0  0  0  0  0  0  0
   45.0450   30.9960   44.5670 O   0  0  0  0  0  0  0  0  0  0  0  0
   44.6880   31.6570   45.2020 H   0  0  0  0  0  0  0  0  0  0  0  0
   46.9740   30.3510   46.3790 O   0  0  0  0  0  0  0  0  0  0  0  0
   47.6780   29.2440   46.7500 C   0  0  0  0  0  0  0  0  0  0  0  0
   49.0550   29.0630   46.7240 C   0  0  0  0  0  0  0  0  0  0  0  0
   49.5950   29.9250   46.3600 H   0  0  0  0  0  0  0  0  0  0  0  0
   49.5880   27.8540   47.1460 C   0  0  0  0  0  3  0  0  0  0  0  0
   48.7770   26.8470   47.5830 C   0  0  0  0  0  3  0  0  0  0  0  0
   47.4200   26.9930   47.6220 C   0  0  0  0  0  0  0  0  0  0  0  0
   46.6470   25.9510   48.0700 C   0  0  0  0  0  3  0  0  0  0  0  0
   45.2770   26.0770   48.1170 C   0  0  0  0  0  3  0  0  0  0  0  0
   44.6950   27.2590   47.7080 C   0  0  0  0  0  3  0  0  0  0  0  0
   45.4900   28.2740   47.2690 C   0  0  0  0  0  3  0  0  0  0  0  0
   46.8760   28.2030   47.1990 C   0  0  0  0  0  0  0  0  0  0  0  0
  1  6  1  0  0  0  0
  2  3  1  0  0  0  0
  2  1  1  0  0  0  0
  2  7  1  0  0  0  0
  3 10  1  0  0  0  0
  3  4  1  0  0  0  0
  4 11  1  0  0  0  0
  4  5  1  0  0  0  0
  5 13  1  0  0  0  0
  5 14  1  0  0  0  0
  6 15  1  6  0  0  0
  6 31  1  0  0  0  0
  6  5  1  0  0  0  0
  8  2  1  0  0  0  0
  9  3  1  0  0  0  0
 12  4  1  0  0  0  0
 16 17  1  0  0  0  0
 16  1  1  0  0  0  0
 18 16  1  0  0  0  0
 19 20  1  0  0  0  0
 19 16  1  0  0  0  0
 21 19  1  0  0  0  0
 22 23  1  0  0  0  0
 23 29  1  0  0  0  0
 23 24  2  0  0  0  0
 24 19  1  0  0  0  0
 25 24  1  0  0  0  0
 26 25  2  0  0  0  0
 27 22  2  0  0  0  0
 27 26  1  0  0  0  0
 28 22  1  0  0  0  0
 30 26  1  0  0  0  0
 31 33  1  0  0  0  0
 33 32  2  6  0  0  0
 33 36  1  0  0  0  0
 34 33  1  0  0  0  0
 34 35  1  0  0  0  0
 36 37  1  0  0  0  0
 37 47  1  0  0  0  0
 38 37  2  0  0  0  0
 38 40  1  0  0  0  0
 39 38  1  0  0  0  0
 40 41  2  0  0  0  0
 41 42  1  0  0  0  0
 42 43  1  0  0  0  0
 43 44  2  0  0  0  0
 45 44  1  0  0  0  0
 46 45  2  0  0  0  0
 47 46  1  0  0  0  0
 47 42  2  0  0  0  0
M  END
>  <minimizedAffinity>
-4.6449275

>  <minimizedRMSD>
1.09993887

$$$$
