REMARK  Name = 
REMARK  4 active torsions:
REMARK  status: ('A' for Active; 'I' for Inactive)
REMARK    1  A    between atoms: C_2  and  N_11
REMARK    2  A    between atoms: C_3  and  C_7
REMARK    3  A    between atoms: C_9  and  C_10
REMARK    4  A    between atoms: C_10  and  C_22
REMARK                            x       y       z     vdW  Elec       q    Type
REMARK                         _______ _______ _______ _____ _____    ______ ____
ROOT
ATOM      1  C   UNL     1      46.584  35.094  41.932  0.00  0.00    +0.000 C 
ATOM      2  C   UNL     1      48.099  35.297  41.916  0.00  0.00    +0.000 C 
ATOM      3  C   UNL     1      47.335  34.077  41.309  0.00  0.00    +0.000 C 
ATOM      4  H   UNL     1      46.057  35.887  41.406  0.00  0.00    +0.000 HD
ATOM      5  H   UNL     1      48.522  35.987  41.147  0.00  0.00    +0.000 HD
ATOM      6  H   UNL     1      48.677  35.160  42.823  0.00  0.00    +0.000 HD
ATOM      7  H   UNL     1      47.657  33.144  41.876  0.00  0.00    +0.000 HD
ENDROOT
BRANCH   1  10
ATOM      8  C   UNL     1      44.673  35.375  45.141  0.00  0.00    +0.000 A 
ATOM      9  C   UNL     1      45.135  35.696  43.835  0.00  0.00    +0.000 A 
ATOM     10  C   UNL     1      46.087  34.852  43.339  0.00  0.00    +0.000 A 
ATOM     11  N   UNL     1      46.555  33.779  44.063  0.00  0.00    +0.000 NA
ATOM     12  C   UNL     1      46.091  33.513  45.293  0.00  0.00    +0.000 A 
ATOM     13  N   UNL     1      45.141  34.320  45.837  0.00  0.00    +0.000 NA
ATOM     14  H   UNL     1      43.915  35.983  45.612  0.00  0.00    +0.000 HD
ATOM     15  H   UNL     1      46.472  32.665  45.851  0.00  0.00    +0.000 HD
BRANCH   9  16
ATOM     16  N   UNL     1      44.656  36.813  43.128  0.00  0.00    +0.000 N 
ATOM     17  H   UNL     1      45.454  37.486  43.030  0.00  0.00    +0.000 HD
ATOM     18  H   UNL     1      43.658  36.932  42.768  0.00  0.00    +0.000 HD
ENDBRANCH   9  16
ENDBRANCH   1  10
BRANCH   3  19
ATOM     19  C   UNL     1      47.401  33.892  39.816  0.00  0.00    +0.000 C 
ATOM     20  H   UNL     1      47.982  32.949  39.614  0.00  0.00    +0.000 HD
ATOM     21  H   UNL     1      47.976  34.761  39.466  0.00  0.00    +0.000 HD
BRANCH  19  22
ATOM     22  C   UNL     1      46.078  33.720  39.214  0.00  0.00    +0.000 A 
ATOM     23  C   UNL     1      45.459  34.923  38.844  0.00  0.00    +0.000 A 
ATOM     24  H   UNL     1      45.851  35.906  39.077  0.00  0.00    +0.000 HD
ATOM     25  C   UNL     1      44.267  34.908  38.129  0.00  0.00    +0.000 A 
ATOM     26  C   UNL     1      43.638  33.738  37.752  0.00  0.00    +0.000 A 
ATOM     27  C   UNL     1      44.227  32.568  38.110  0.00  0.00    +0.000 A 
ATOM     28  C   UNL     1      43.612  31.357  37.799  0.00  0.00    +0.000 A 
ATOM     29  C   UNL     1      44.220  30.194  38.225  0.00  0.00    +0.000 A 
ATOM     30  C   UNL     1      45.404  30.211  38.936  0.00  0.00    +0.000 A 
ATOM     31  C   UNL     1      45.993  31.423  39.227  0.00  0.00    +0.000 A 
ATOM     32  C   UNL     1      45.384  32.604  38.802  0.00  0.00    +0.000 A 
ENDBRANCH  19  22
ENDBRANCH   3  19
TORSDOF 4
