
 OpenBabel03252508003D

 31 34  0  0  1  0  0  0  0  0999 V2000
   46.1690   34.5430   43.4770 C   0  0  0  0  0  0  0  0  0  0  0  0
   45.2320   35.5320   43.9030 C   0  0  0  0  0  0  0  0  0  0  0  0
   44.6960   35.3530   45.1740 C   0  0  0  0  0  0  0  0  0  0  0  0
   45.0830   34.2850   45.9100 N   0  0  0  0  0  0  0  0  0  0  0  0
   45.9920   33.3700   45.4330 C   0  0  0  0  0  0  0  0  0  0  0  0
   46.5360   33.4820   44.2380 N   0  0  0  0  0  0  0  0  0  0  0  0
   44.9850   36.3510   43.2440 H   0  0  0  0  0  0  0  0  0  0  0  0
   43.9820   36.0780   45.5400 H   0  0  0  0  0  0  0  0  0  0  0  0
   46.3750   32.2290   46.3160 C   0  0  1  0  0  0  0  0  0  0  0  0
   47.0730   32.5160   47.6250 C   0  0  0  0  0  0  0  0  0  0  0  0
   45.6130   32.1540   47.5810 C   0  0  1  0  0  0  0  0  0  0  0  0
   46.6220   31.2820   45.8000 H   0  0  0  0  0  0  0  0  0  0  0  0
   47.3920   33.5600   47.7470 H   0  0  0  0  0  0  0  0  0  0  0  0
   47.7580   31.7150   47.9610 H   0  0  0  0  0  0  0  0  0  0  0  0
   45.3320   31.1760   48.0420 H   0  0  0  0  0  0  0  0  0  0  0  0
   44.7620   33.2520   47.9820 N   0  0  0  0  0  0  0  0  0  0  0  0
   43.7820   33.1890   47.7500 H   0  0  0  0  0  0  0  0  0  0  0  0
   45.2080   34.1400   48.1650 H   0  0  0  0  0  0  0  0  0  0  0  0
   46.7260   34.7490   42.1560 C   0  0  0  0  0  0  0  0  0  0  0  0
   47.5820   35.6650   41.8960 O   0  0  0  0  0  0  0  0  0  0  0  0
   46.1580   33.7710   41.2340 C   0  0  0  0  0  0  0  0  0  0  0  0
   46.8250   32.6120   40.8720 C   0  0  0  0  0  0  0  0  0  0  0  0
   47.8120   32.4250   41.2980 H   0  0  0  0  0  0  0  0  0  0  0  0
   46.3360   31.6600   40.0030 C   0  0  0  0  0  3  0  0  0  0  0  0
   45.1030   31.8510   39.4430 C   0  0  0  0  0  3  0  0  0  0  0  0
   44.3800   32.9830   39.7580 C   0  0  0  0  0  0  0  0  0  0  0  0
   43.1170   33.2040   39.2030 C   0  0  0  0  0  3  0  0  0  0  0  0
   42.3790   34.3180   39.5000 C   0  0  0  0  0  3  0  0  0  0  0  0
   42.9020   35.2630   40.3840 C   0  0  0  0  0  3  0  0  0  0  0  0
   44.1560   35.0060   40.9110 C   0  0  0  0  0  3  0  0  0  0  0  0
   44.9240   33.8990   40.6340 C   0  0  0  0  0  0  0  0  0  0  0  0
  1  2  2  0  0  0  0
  1  6  1  0  0  0  0
  2  3  1  0  0  0  0
  3  8  1  0  0  0  0
  3  4  2  0  0  0  0
  5  4  1  0  0  0  0
  5  9  1  0  0  0  0
  6  5  2  0  0  0  0
  7  2  1  0  0  0  0
  9 12  1  6  0  0  0
  9 11  1  0  0  0  0
  9 10  1  0  0  0  0
 10 13  1  0  0  0  0
 10 14  1  0  0  0  0
 11 10  1  0  0  0  0
 11 16  1  0  0  0  0
 11 15  1  1  0  0  0
 16 18  1  0  0  0  0
 17 16  1  0  0  0  0
 19  1  1  0  0  0  0
 20 19  2  0  0  0  0
 21 19  1  0  0  0  0
 22 21  1  0  0  0  0
 22 23  1  0  0  0  0
 24 22  2  0  0  0  0
 25 26  2  0  0  0  0
 25 24  1  0  0  0  0
 26 31  1  0  0  0  0
 27 28  2  0  0  0  0
 27 26  1  0  0  0  0
 28 29  1  0  0  0  0
 29 30  2  0  0  0  0
 31 30  1  0  0  0  0
 31 21  2  0  0  0  0
M  END
>  <minimizedAffinity>
-6.03191566

>  <minimizedRMSD>
1.12137496

$$$$
