
 OpenBabel03252508033D

 44 48  0  0  1  0  0  0  0  0999 V2000
   42.0020   33.3160   41.2280 C   0  0  0  0  0  0  0  0  0  0  0  0
   42.7790   34.4310   41.3280 C   0  0  0  0  0  0  0  0  0  0  0  0
   42.1710   35.6920   41.1970 C   0  0  0  0  0  0  0  0  0  0  0  0
   40.8290   35.8550   40.9710 C   0  0  0  0  0  0  0  0  0  0  0  0
   40.0440   34.7360   40.8700 C   0  0  0  0  0  0  0  0  0  0  0  0
   40.6350   33.5170   40.9980 C   0  0  0  0  0  0  0  0  0  0  0  0
   42.7180   36.6220   41.2540 H   0  0  0  0  0  0  0  0  0  0  0  0
   40.3700   36.8100   40.8720 H   0  0  0  0  0  0  0  0  0  0  0  0
   38.9820   34.7710   40.6940 H   0  0  0  0  0  0  0  0  0  0  0  0
   39.9990   32.6210   40.9150 H   0  0  0  0  0  0  0  0  0  0  0  0
   42.5800   31.7560   41.4900 S   0  0  0  0  0  0  0  0  0  0  0  0
   41.9790   31.0510   40.2280 O   0  0  0  0  0  0  0  0  0  0  0  0
   41.9590   31.0820   42.6400 O   0  0  0  0  0  0  0  0  0  0  0  0
   44.0620   31.0650   41.0480 C   0  0  0  0  0  0  0  0  0  0  0  0
   44.7300   31.0450   39.7970 C   0  0  0  0  0  0  0  0  0  0  0  0
   44.1500   31.6270   39.0430 H   0  0  0  0  0  0  0  0  0  0  0  0
   45.8870   30.4260   39.3620 C   0  0  0  0  0  3  0  0  0  0  0  0
   46.4220   29.7250   40.3840 C   0  0  0  0  0  3  0  0  0  0  0  0
   45.9100   29.6350   41.6540 C   0  0  0  0  0  0  0  0  0  0  0  0
   46.6600   28.8400   42.5240 C   0  0  0  0  0  3  0  0  0  0  0  0
   46.2370   28.6820   43.8220 C   0  0  0  0  0  3  0  0  0  0  0  0
   45.0820   29.3220   44.2140 C   0  0  0  0  0  3  0  0  0  0  0  0
   44.4080   30.0830   43.2920 C   0  0  0  0  0  3  0  0  0  0  0  0
   44.7540   30.2940   41.9770 C   0  0  0  0  0  0  0  0  0  0  0  0
   44.2200   34.3560   41.5630 C   0  0  0  0  0  0  0  0  0  0  0  0
   45.0900   34.2220   40.6520 O   0  0  0  0  0  0  0  0  0  0  0  0
   44.5740   34.4530   42.9520 C   0  0  0  0  0  0  0  0  0  0  0  0
   44.2710   35.7080   43.5900 C   0  0  0  0  0  0  0  0  0  0  0  0
   44.5880   35.8210   44.9340 C   0  0  0  0  0  0  0  0  0  0  0  0
   45.1560   34.7560   45.5580 N   0  0  0  0  0  0  0  0  0  0  0  0
   45.4210   33.5810   44.9010 C   0  0  0  0  0  0  0  0  0  0  0  0
   45.1310   33.4710   43.6530 N   0  0  0  0  0  0  0  0  0  0  0  0
   43.8320   36.5870   43.1770 H   0  0  0  0  0  0  0  0  0  0  0  0
   44.4140   36.7010   45.5230 H   0  0  0  0  0  0  0  0  0  0  0  0
   46.0300   32.4670   45.6650 C   0  0  1  0  0  0  0  0  0  0  0  0
   46.9710   32.7850   46.8060 C   0  0  0  0  0  0  0  0  0  0  0  0
   45.5660   32.3430   47.0650 C   0  0  1  0  0  0  0  0  0  0  0  0
   46.1790   31.5360   45.0990 H   0  0  0  0  0  0  0  0  0  0  0  0
   47.2800   33.8400   46.9430 H   0  0  0  0  0  0  0  0  0  0  0  0
   47.7450   32.0380   47.0600 H   0  0  0  0  0  0  0  0  0  0  0  0
   45.3660   31.3600   47.5370 H   0  0  0  0  0  0  0  0  0  0  0  0
   44.7610   33.4030   47.6610 N   0  0  0  0  0  0  0  0  0  0  0  0
   43.7640   33.1530   47.4170 H   0  0  0  0  0  0  0  0  0  0  0  0
   44.8730   33.3050   48.6890 H   0  0  0  0  0  0  0  0  0  0  0  0
  1  2  1  0  0  0  0
  1 11  1  0  0  0  0
  2 25  1  0  0  0  0
  3  7  1  0  0  0  0
  3  2  2  0  0  0  0
  4  3  1  0  0  0  0
  5  4  2  0  0  0  0
  5  6  1  0  0  0  0
  6  1  2  0  0  0  0
  8  4  1  0  0  0  0
  9  5  1  0  0  0  0
 10  6  1  0  0  0  0
 11 13  2  0  0  0  0
 12 11  2  0  0  0  0
 14 11  1  0  0  0  0
 14 24  1  0  0  0  0
 15 14  2  0  0  0  0
 16 15  1  0  0  0  0
 17 15  1  0  0  0  0
 17 18  2  0  0  0  0
 18 19  1  0  0  0  0
 19 24  2  0  0  0  0
 19 20  1  0  0  0  0
 20 21  2  0  0  0  0
 21 22  1  0  0  0  0
 23 22  2  0  0  0  0
 24 23  1  0  0  0  0
 25 27  1  0  0  0  0
 26 25  2  0  0  0  0
 27 28  2  0  0  0  0
 27 32  1  0  0  0  0
 28 29  1  0  0  0  0
 29 34  1  0  0  0  0
 29 30  2  0  0  0  0
 31 30  1  0  0  0  0
 31 35  1  0  0  0  0
 32 31  2  0  0  0  0
 33 28  1  0  0  0  0
 35 38  1  6  0  0  0
 35 36  1  0  0  0  0
 35 37  1  0  0  0  0
 36 39  1  0  0  0  0
 36 40  1  0  0  0  0
 36 37  1  0  0  0  0
 37 41  1  1  0  0  0
 37 42  1  0  0  0  0
 42 44  1  0  0  0  0
 43 42  1  0  0  0  0
M  END
>  <minimizedAffinity>
-5.96829271

>  <minimizedRMSD>
0.746850848

$$$$
