
 OpenBabel03252502373D

 26 28  0  0  1  0  0  0  0  0999 V2000
   46.2270   35.2030   42.3180 C   0  0  1  0  0  0  0  0  0  0  0  0
   45.9080   36.2680   42.4210 H   0  0  0  0  0  0  0  0  0  0  0  0
   45.5280   34.5260   41.2040 C   0  0  0  0  0  0  0  0  0  0  0  0
   46.2760   33.6590   40.3930 C   0  0  0  0  0  0  0  0  0  0  0  0
   47.3430   33.5250   40.5990 H   0  0  0  0  0  0  0  0  0  0  0  0
   45.7830   32.9410   39.3340 C   0  0  0  0  0  3  0  0  0  0  0  0
   44.4440   33.0740   39.0330 C   0  0  0  0  0  3  0  0  0  0  0  0
   43.6550   33.9100   39.7890 C   0  0  0  0  0  0  0  0  0  0  0  0
   42.3290   34.0620   39.5040 C   0  0  0  0  0  3  0  0  0  0  0  0
   41.5520   34.9090   40.2670 C   0  0  0  0  0  3  0  0  0  0  0  0
   42.0890   35.6140   41.3240 C   0  0  0  0  0  3  0  0  0  0  0  0
   43.4300   35.4470   41.5970 C   0  0  0  0  0  3  0  0  0  0  0  0
   44.2010   34.6090   40.8430 C   0  0  0  0  0  0  0  0  0  0  0  0
   45.1940   34.9440   44.5640 C   0  0  0  0  0  0  0  0  0  0  0  0
   46.1270   34.5620   43.6090 C   0  0  0  0  0  0  0  0  0  0  0  0
   46.9740   33.4960   43.9820 C   0  0  0  0  0  0  0  0  0  0  0  0
   46.8380   32.9200   45.2100 N   0  0  0  0  0  0  0  0  0  0  0  0
   45.8990   33.3540   46.0850 C   0  0  0  0  0  0  0  0  0  0  0  0
   45.0740   34.3720   45.7560 N   0  0  0  0  0  0  0  0  0  0  0  0
   44.4920   35.7490   44.3990 H   0  0  0  0  0  0  0  0  0  0  0  0
   47.7400   33.1230   43.2970 H   0  0  0  0  0  0  0  0  0  0  0  0
   45.9690   32.7540   46.9980 H   0  0  0  0  0  0  0  0  0  0  0  0
   47.6960   35.3160   41.9450 C   0  0  0  0  0  0  0  0  0  0  0  0
   48.2660   34.4120   42.1840 H   0  0  0  0  0  0  0  0  0  0  0  0
   48.1630   36.1570   42.5340 H   0  0  0  0  0  0  0  0  0  0  0  0
   47.7980   35.6190   40.8790 H   0  0  0  0  0  0  0  0  0  0  0  0
  1  2  1  1  0  0  0
  1 15  1  0  0  0  0
  3  1  1  0  0  0  0
  4  5  1  0  0  0  0
  4  3  2  0  0  0  0
  6  4  1  0  0  0  0
  7  6  2  0  0  0  0
  7  8  1  0  0  0  0
  8 13  1  0  0  0  0
  9  8  2  0  0  0  0
  9 10  1  0  0  0  0
 10 11  2  0  0  0  0
 11 12  1  0  0  0  0
 13  3  1  0  0  0  0
 13 12  2  0  0  0  0
 14 19  1  0  0  0  0
 15 16  1  0  0  0  0
 15 14  2  0  0  0  0
 16 17  2  0  0  0  0
 17 18  1  0  0  0  0
 18 22  1  0  0  0  0
 19 18  2  0  0  0  0
 20 14  1  0  0  0  0
 21 16  1  0  0  0  0
 23 24  1  0  0  0  0
 23  1  1  0  0  0  0
 23 25  1  0  0  0  0
 26 23  1  0  0  0  0
M  END
>  <minimizedAffinity>
-5.39711905

>  <minimizedRMSD>
1.44622993

$$$$
