
 OpenBabel03252505133D

 46 50  0  0  1  0  0  0  0  0999 V2000
   39.9460   35.0710   39.9340 C   0  0  0  0  0  0  0  0  0  0  0  0
   38.9390   34.1320   40.2310 C   0  0  0  0  0  0  0  0  0  0  0  0
   39.2580   32.7420   40.0650 C   0  0  0  0  0  0  0  0  0  0  0  0
   40.4930   32.4110   39.6390 N   0  0  0  0  0  0  0  0  0  0  0  0
   41.4270   33.3320   39.3640 C   0  0  0  0  0  0  0  0  0  0  0  0
   41.1610   34.6750   39.5110 N   0  0  0  0  0  0  0  0  0  0  0  0
   39.7310   36.1290   40.0500 H   0  0  0  0  0  0  0  0  0  0  0  0
   37.9660   34.4440   40.5690 H   0  0  0  0  0  0  0  0  0  0  0  0
   42.7680   32.9120   38.8940 C   0  0  2  0  0  0  0  0  0  0  0  0
   43.5500   32.6170   40.1550 C   0  0  0  0  0  0  0  0  0  0  0  0
   44.5520   33.6190   40.5550 C   0  0  0  0  0  0  0  0  0  0  0  0
   45.4630   33.7700   39.3330 C   0  0  0  0  0  0  0  0  0  0  0  0
   44.7770   34.3490   38.1850 C   0  0  0  0  0  0  0  0  0  0  0  0
   43.3770   33.8620   38.0130 C   0  0  0  0  0  0  0  0  0  0  0  0
   42.5870   31.9500   38.3450 H   0  0  0  0  0  0  0  0  0  0  0  0
   42.8980   32.4260   41.0370 H   0  0  0  0  0  0  0  0  0  0  0  0
   44.0840   31.6550   39.9940 H   0  0  0  0  0  0  0  0  0  0  0  0
   45.1920   33.1620   41.3300 H   0  0  0  0  0  0  0  0  0  0  0  0
   44.1920   34.5900   40.8960 H   0  0  0  0  0  0  0  0  0  0  0  0
   46.2110   34.5380   39.6560 H   0  0  0  0  0  0  0  0  0  0  0  0
   46.0180   32.8390   39.1540 H   0  0  0  0  0  0  0  0  0  0  0  0
   45.0790   35.0440   37.4590 H   0  0  0  0  0  0  0  0  0  0  0  0
   42.5740   34.3490   36.9300 N   0  0  0  0  0  0  0  0  0  0  0  0
   42.1470   35.2900   36.6840 H   0  0  0  0  0  0  0  0  0  0  0  0
   42.2560   33.7540   36.1150 H   0  0  0  0  0  0  0  0  0  0  0  0
   38.2390   31.7490   40.3680 C   0  0  0  0  0  0  0  0  0  0  0  0
   37.1510   31.6750   39.5710 C   0  0  0  0  0  0  0  0  0  0  0  0
   36.1970   30.7010   39.9050 C   0  0  0  0  0  0  0  0  0  0  0  0
   36.4650   29.9280   41.0020 C   0  0  0  0  0  0  0  0  0  0  0  0
   37.5670   29.9890   41.8250 C   0  0  0  0  0  0  0  0  0  0  0  0
   38.4500   30.9650   41.4300 N   0  0  0  0  0  0  0  0  0  0  0  0
   37.0530   32.3430   38.7300 H   0  0  0  0  0  0  0  0  0  0  0  0
   35.3260   30.6130   39.2990 H   0  0  0  0  0  0  0  0  0  0  0  0
   35.6840   29.2080   41.2050 H   0  0  0  0  0  0  0  0  0  0  0  0
   37.7870   29.1900   42.9190 O   0  0  0  0  0  0  0  0  0  0  0  0
   38.6570   28.1290   42.8580 C   0  0  0  0  0  0  0  0  0  0  0  0
   39.9850   28.5280   43.0510 C   0  0  0  0  0  0  0  0  0  0  0  0
   40.3110   29.5500   43.2300 H   0  0  0  0  0  0  0  0  0  0  0  0
   41.0220   27.5930   43.0240 C   0  0  0  0  0  3  0  0  0  0  0  0
   40.7900   26.2470   42.8080 C   0  0  0  0  0  3  0  0  0  0  0  0
   39.4730   25.8820   42.6190 C   0  0  0  0  0  0  0  0  0  0  0  0
   39.1250   24.5680   42.3790 C   0  0  0  0  0  3  0  0  0  0  0  0
   37.7940   24.2240   42.1750 C   0  0  0  0  0  3  0  0  0  0  0  0
   36.7730   25.1510   42.2000 C   0  0  0  0  0  3  0  0  0  0  0  0
   37.1130   26.4640   42.4410 C   0  0  0  0  0  3  0  0  0  0  0  0
   38.4350   26.7860   42.6410 C   0  0  0  0  0  0  0  0  0  0  0  0
  1  7  1  0  0  0  0
  1  2  1  0  0  0  0
  2  8  1  0  0  0  0
  3  2  2  0  0  0  0
  3 26  1  0  0  0  0
  4  3  1  0  0  0  0
  5  6  1  0  0  0  0
  5  4  2  0  0  0  0
  6  1  2  0  0  0  0
  9 15  1  6  0  0  0
  9  5  1  0  0  0  0
  9 10  1  0  0  0  0
 10 11  1  0  0  0  0
 10 16  1  0  0  0  0
 11 19  1  0  0  0  0
 11 18  1  0  0  0  0
 12 20  1  0  0  0  0
 12 11  1  0  0  0  0
 13 12  1  0  0  0  0
 14 13  2  0  0  0  0
 14  9  1  0  0  0  0
 17 10  1  0  0  0  0
 21 12  1  0  0  0  0
 22 13  1  0  0  0  0
 23 14  1  0  0  0  0
 24 23  1  0  0  0  0
 25 23  1  0  0  0  0
 26 31  1  0  0  0  0
 27 28  1  0  0  0  0
 27 26  2  0  0  0  0
 28 29  2  0  0  0  0
 29 34  1  0  0  0  0
 29 30  1  0  0  0  0
 30 35  1  0  0  0  0
 31 30  2  0  0  0  0
 32 27  1  0  0  0  0
 33 28  1  0  0  0  0
 36 35  1  0  0  0  0
 36 37  1  0  0  0  0
 37 38  1  0  0  0  0
 39 37  2  0  0  0  0
 40 39  1  0  0  0  0
 41 46  1  0  0  0  0
 41 40  2  0  0  0  0
 42 41  1  0  0  0  0
 43 44  1  0  0  0  0
 43 42  2  0  0  0  0
 44 45  2  0  0  0  0
 45 46  1  0  0  0  0
 46 36  2  0  0  0  0
M  END
>  <minimizedAffinity>
-7.85244513

$$$$

 OpenBabel03252505133D

 46 50  0  0  1  0  0  0  0  0999 V2000
   38.6100   34.3110   40.1830 C   0  0  0  0  0  0  0  0  0  0  0  0
   37.7070   33.2340   40.2790 C   0  0  0  0  0  0  0  0  0  0  0  0
   38.2490   31.9390   40.5820 C   0  0  0  0  0  0  0  0  0  0  0  0
   39.5790   31.8230   40.7570 N   0  0  0  0  0  0  0  0  0  0  0  0
   40.4090   32.8700   40.6570 C   0  0  0  0  0  0  0  0  0  0  0  0
   39.9310   34.1280   40.3690 N   0  0  0  0  0  0  0  0  0  0  0  0
   38.2260   35.3010   39.9550 H   0  0  0  0  0  0  0  0  0  0  0  0
   36.6500   33.3760   40.1310 H   0  0  0  0  0  0  0  0  0  0  0  0
   41.8660   32.6830   40.8560 C   0  0  2  0  0  0  0  0  0  0  0  0
   42.4220   32.4400   39.4700 C   0  0  0  0  0  0  0  0  0  0  0  0
   42.7920   31.0530   39.1460 C   0  0  0  0  0  0  0  0  0  0  0  0
   43.7800   30.6450   40.2420 C   0  0  0  0  0  0  0  0  0  0  0  0
   43.1640   30.5800   41.5610 C   0  0  0  0  0  0  0  0  0  0  0  0
   42.1750   31.6690   41.8180 C   0  0  0  0  0  0  0  0  0  0  0  0
   42.2320   33.6780   41.2260 H   0  0  0  0  0  0  0  0  0  0  0  0
   41.7500   32.8050   38.6610 H   0  0  0  0  0  0  0  0  0  0  0  0
   43.3370   33.0640   39.3680 H   0  0  0  0  0  0  0  0  0  0  0  0
   43.3920   31.0740   38.2190 H   0  0  0  0  0  0  0  0  0  0  0  0
   41.9900   30.3210   39.0510 H   0  0  0  0  0  0  0  0  0  0  0  0
   44.0430   29.5890   39.9800 H   0  0  0  0  0  0  0  0  0  0  0  0
   44.7040   31.2340   40.1620 H   0  0  0  0  0  0  0  0  0  0  0  0
   43.2810   29.9130   42.3630 H   0  0  0  0  0  0  0  0  0  0  0  0
   41.4830   31.7310   43.0710 N   0  0  0  0  0  0  0  0  0  0  0  0
   40.7540   31.1240   43.5490 H   0  0  0  0  0  0  0  0  0  0  0  0
   41.6250   32.4950   43.7890 H   0  0  0  0  0  0  0  0  0  0  0  0
   37.3390   30.8090   40.6920 C   0  0  0  0  0  0  0  0  0  0  0  0
   36.3490   30.6850   39.7820 C   0  0  0  0  0  0  0  0  0  0  0  0
   35.4980   29.5780   39.9310 C   0  0  0  0  0  0  0  0  0  0  0  0
   35.7580   28.7390   40.9800 C   0  0  0  0  0  0  0  0  0  0  0  0
   36.7620   28.8490   41.9160 C   0  0  0  0  0  0  0  0  0  0  0  0
   37.5480   29.9560   41.7000 N   0  0  0  0  0  0  0  0  0  0  0  0
   36.2460   31.4150   38.9950 H   0  0  0  0  0  0  0  0  0  0  0  0
   34.7060   29.4480   39.2320 H   0  0  0  0  0  0  0  0  0  0  0  0
   35.0590   27.9160   41.0390 H   0  0  0  0  0  0  0  0  0  0  0  0
   36.9790   27.9790   42.9560 O   0  0  0  0  0  0  0  0  0  0  0  0
   37.6600   26.8020   42.7640 C   0  0  0  0  0  0  0  0  0  0  0  0
   36.8310   25.7930   42.2580 C   0  0  0  0  0  0  0  0  0  0  0  0
   35.7720   25.9060   42.0370 H   0  0  0  0  0  0  0  0  0  0  0  0
   37.3380   24.5190   41.9960 C   0  0  0  0  0  3  0  0  0  0  0  0
   38.6640   24.1970   42.2190 C   0  0  0  0  0  3  0  0  0  0  0  0
   39.4570   25.2090   42.7180 C   0  0  0  0  0  0  0  0  0  0  0  0
   40.7930   24.9970   42.9940 C   0  0  0  0  0  3  0  0  0  0  0  0
   41.5710   26.0260   43.5120 C   0  0  0  0  0  3  0  0  0  0  0  0
   41.0660   27.2830   43.7730 C   0  0  0  0  0  3  0  0  0  0  0  0
   39.7330   27.5010   43.4980 C   0  0  0  0  0  3  0  0  0  0  0  0
   38.9790   26.4720   42.9850 C   0  0  0  0  0  0  0  0  0  0  0  0
  1  2  2  0  0  0  0
  1  6  1  0  0  0  0
  2  3  1  0  0  0  0
  3 26  1  0  0  0  0
  3  4  2  0  0  0  0
  5  4  1  0  0  0  0
  5  9  1  0  0  0  0
  6  5  2  0  0  0  0
  7  1  1  0  0  0  0
  8  2  1  0  0  0  0
  9 15  1  1  0  0  0
  9 14  1  0  0  0  0
 10  9  1  0  0  0  0
 11 10  1  0  0  0  0
 11 12  1  0  0  0  0
 12 13  1  0  0  0  0
 13 14  2  0  0  0  0
 13 22  1  0  0  0  0
 14 23  1  0  0  0  0
 16 10  1  0  0  0  0
 17 10  1  0  0  0  0
 18 11  1  0  0  0  0
 19 11  1  0  0  0  0
 20 12  1  0  0  0  0
 21 12  1  0  0  0  0
 23 24  1  0  0  0  0
 23 25  1  0  0  0  0
 26 31  1  0  0  0  0
 27 28  1  0  0  0  0
 27 26  2  0  0  0  0
 28 29  2  0  0  0  0
 29 34  1  0  0  0  0
 29 30  1  0  0  0  0
 30 35  1  0  0  0  0
 31 30  2  0  0  0  0
 32 27  1  0  0  0  0
 33 28  1  0  0  0  0
 36 35  1  0  0  0  0
 36 46  1  0  0  0  0
 37 36  2  0  0  0  0
 38 37  1  0  0  0  0
 39 40  2  0  0  0  0
 39 37  1  0  0  0  0
 40 41  1  0  0  0  0
 41 46  2  0  0  0  0
 41 42  1  0  0  0  0
 42 43  2  0  0  0  0
 43 44  1  0  0  0  0
 45 44  2  0  0  0  0
 46 45  1  0  0  0  0
M  END
>  <minimizedAffinity>
-7.49572468

$$$$

 OpenBabel03252505133D

 46 50  0  0  1  0  0  0  0  0999 V2000
   39.8350   35.0460   40.3000 C   0  0  0  0  0  0  0  0  0  0  0  0
   38.8320   34.0660   40.4330 C   0  0  0  0  0  0  0  0  0  0  0  0
   39.2510   32.7160   40.6840 C   0  0  0  0  0  0  0  0  0  0  0  0
   40.5700   32.4590   40.7790 N   0  0  0  0  0  0  0  0  0  0  0  0
   41.4980   33.4170   40.6460 C   0  0  0  0  0  0  0  0  0  0  0  0
   41.1380   34.7230   40.4060 N   0  0  0  0  0  0  0  0  0  0  0  0
   39.5450   36.0750   40.1100 H   0  0  0  0  0  0  0  0  0  0  0  0
   37.7890   34.3200   40.3490 H   0  0  0  0  0  0  0  0  0  0  0  0
   42.9370   33.0760   40.7560 C   0  0  2  0  0  0  0  0  0  0  0  0
   43.3670   33.6230   42.1000 C   0  0  0  0  0  0  0  0  0  0  0  0
   44.1710   34.8560   42.0790 C   0  0  0  0  0  0  0  0  0  0  0  0
   45.3660   34.5280   41.1800 C   0  0  0  0  0  0  0  0  0  0  0  0
   44.9840   34.2950   39.7940 C   0  0  0  0  0  0  0  0  0  0  0  0
   43.7090   33.5360   39.6410 C   0  0  0  0  0  0  0  0  0  0  0  0
   42.9610   31.9550   40.7950 H   0  0  0  0  0  0  0  0  0  0  0  0
   42.5140   33.7910   42.7940 H   0  0  0  0  0  0  0  0  0  0  0  0
   43.9740   32.8350   42.5960 H   0  0  0  0  0  0  0  0  0  0  0  0
   44.6030   34.9910   43.0860 H   0  0  0  0  0  0  0  0  0  0  0  0
   43.6830   35.7760   41.7590 H   0  0  0  0  0  0  0  0  0  0  0  0
   45.9600   35.4770   41.1750 H   0  0  0  0  0  0  0  0  0  0  0  0
   45.9980   33.7610   41.6490 H   0  0  0  0  0  0  0  0  0  0  0  0
   45.4320   34.5630   38.8830 H   0  0  0  0  0  0  0  0  0  0  0  0
   43.2010   33.2370   38.3340 N   0  0  0  0  0  0  0  0  0  0  0  0
   42.8060   33.8190   37.5380 H   0  0  0  0  0  0  0  0  0  0  0  0
   43.1450   32.2620   37.9300 H   0  0  0  0  0  0  0  0  0  0  0  0
   38.2370   31.6840   40.8300 C   0  0  0  0  0  0  0  0  0  0  0  0
   37.2070   31.6620   39.9560 C   0  0  0  0  0  0  0  0  0  0  0  0
   36.2540   30.6470   40.1390 C   0  0  0  0  0  0  0  0  0  0  0  0
   36.4650   29.7860   41.1810 C   0  0  0  0  0  0  0  0  0  0  0  0
   37.5080   29.7930   42.0800 C   0  0  0  0  0  0  0  0  0  0  0  0
   38.3930   30.8140   41.8320 N   0  0  0  0  0  0  0  0  0  0  0  0
   37.1500   32.3990   39.1700 H   0  0  0  0  0  0  0  0  0  0  0  0
   35.4280   30.5980   39.4690 H   0  0  0  0  0  0  0  0  0  0  0  0
   35.6880   29.0380   41.2670 H   0  0  0  0  0  0  0  0  0  0  0  0
   37.6720   28.9050   43.1140 O   0  0  0  0  0  0  0  0  0  0  0  0
   38.0340   27.6020   42.8780 C   0  0  0  0  0  0  0  0  0  0  0  0
   36.9350   26.8070   42.5300 C   0  0  0  0  0  0  0  0  0  0  0  0
   35.9090   27.1580   42.4510 H   0  0  0  0  0  0  0  0  0  0  0  0
   37.0980   25.4480   42.2510 C   0  0  0  0  0  3  0  0  0  0  0  0
   38.3340   24.8320   42.3030 C   0  0  0  0  0  3  0  0  0  0  0  0
   39.3990   25.6380   42.6490 C   0  0  0  0  0  0  0  0  0  0  0  0
   40.6770   25.1270   42.7490 C   0  0  0  0  0  3  0  0  0  0  0  0
   41.7340   25.9530   43.1150 C   0  0  0  0  0  3  0  0  0  0  0  0
   41.5680   27.2940   43.3920 C   0  0  0  0  0  3  0  0  0  0  0  0
   40.2950   27.8110   43.2940 C   0  0  0  0  0  3  0  0  0  0  0  0
   39.2620   26.9790   42.9300 C   0  0  0  0  0  0  0  0  0  0  0  0
  1  6  2  0  0  0  0
  1  2  1  0  0  0  0
  2  3  2  0  0  0  0
  3  4  1  0  0  0  0
  3 26  1  0  0  0  0
  5  9  1  0  0  0  0
  5  4  2  0  0  0  0
  6  5  1  0  0  0  0
  7  1  1  0  0  0  0
  8  2  1  0  0  0  0
  9 15  1  1  0  0  0
  9 10  1  0  0  0  0
 10 17  1  0  0  0  0
 10 16  1  0  0  0  0
 11 10  1  0  0  0  0
 11 18  1  0  0  0  0
 12 21  1  0  0  0  0
 12 11  1  0  0  0  0
 13 12  1  0  0  0  0
 14 13  2  0  0  0  0
 14  9  1  0  0  0  0
 19 11  1  0  0  0  0
 20 12  1  0  0  0  0
 22 13  1  0  0  0  0
 23 14  1  0  0  0  0
 24 23  1  0  0  0  0
 25 23  1  0  0  0  0
 26 31  1  0  0  0  0
 27 28  1  0  0  0  0
 27 26  2  0  0  0  0
 28 29  2  0  0  0  0
 29 34  1  0  0  0  0
 29 30  1  0  0  0  0
 30 35  1  0  0  0  0
 31 30  2  0  0  0  0
 32 27  1  0  0  0  0
 33 28  1  0  0  0  0
 36 46  1  0  0  0  0
 36 35  1  0  0  0  0
 37 36  2  0  0  0  0
 38 37  1  0  0  0  0
 39 40  2  0  0  0  0
 39 37  1  0  0  0  0
 40 41  1  0  0  0  0
 41 42  2  0  0  0  0
 41 46  1  0  0  0  0
 42 43  1  0  0  0  0
 43 44  2  0  0  0  0
 45 44  1  0  0  0  0
 46 45  2  0  0  0  0
M  END
>  <minimizedAffinity>
-7.42210579

$$$$

 OpenBabel03252505133D

 46 50  0  0  1  0  0  0  0  0999 V2000
   38.4560   34.3350   40.1390 C   0  0  0  0  0  0  0  0  0  0  0  0
   37.5740   33.2390   40.0580 C   0  0  0  0  0  0  0  0  0  0  0  0
   38.1180   31.9310   40.2870 C   0  0  0  0  0  0  0  0  0  0  0  0
   39.4320   31.8200   40.5640 N   0  0  0  0  0  0  0  0  0  0  0  0
   40.2430   32.8850   40.6320 C   0  0  0  0  0  0  0  0  0  0  0  0
   39.7600   34.1560   40.4200 N   0  0  0  0  0  0  0  0  0  0  0  0
   38.0700   35.3360   39.9700 H   0  0  0  0  0  0  0  0  0  0  0  0
   36.5300   33.3780   39.8340 H   0  0  0  0  0  0  0  0  0  0  0  0
   41.6820   32.7040   40.9370 C   0  0  2  0  0  0  0  0  0  0  0  0
   42.3640   32.6470   39.5880 C   0  0  0  0  0  0  0  0  0  0  0  0
   42.8030   31.3180   39.1300 C   0  0  0  0  0  0  0  0  0  0  0  0
   43.7030   30.7960   40.2530 C   0  0  0  0  0  0  0  0  0  0  0  0
   42.9770   30.5550   41.4930 C   0  0  0  0  0  0  0  0  0  0  0  0
   41.9370   31.5830   41.7910 C   0  0  0  0  0  0  0  0  0  0  0  0
   41.9830   33.6510   41.4580 H   0  0  0  0  0  0  0  0  0  0  0  0
   41.7540   33.0970   38.7730 H   0  0  0  0  0  0  0  0  0  0  0  0
   43.2650   33.2960   39.6470 H   0  0  0  0  0  0  0  0  0  0  0  0
   43.4810   31.4670   38.2710 H   0  0  0  0  0  0  0  0  0  0  0  0
   42.0350   30.5880   38.8750 H   0  0  0  0  0  0  0  0  0  0  0  0
   44.0210   29.7870   39.8880 H   0  0  0  0  0  0  0  0  0  0  0  0
   44.6130   31.4080   40.3300 H   0  0  0  0  0  0  0  0  0  0  0  0
   43.0440   29.7950   42.2140 H   0  0  0  0  0  0  0  0  0  0  0  0
   41.1360   31.4740   42.9750 N   0  0  0  0  0  0  0  0  0  0  0  0
   40.3870   30.7980   43.3070 H   0  0  0  0  0  0  0  0  0  0  0  0
   41.1920   32.1450   43.7910 H   0  0  0  0  0  0  0  0  0  0  0  0
   37.2300   30.7810   40.2150 C   0  0  0  0  0  0  0  0  0  0  0  0
   36.4760   30.6150   39.1070 C   0  0  0  0  0  0  0  0  0  0  0  0
   35.6360   29.4910   39.0860 C   0  0  0  0  0  0  0  0  0  0  0  0
   35.6660   28.6800   40.1870 C   0  0  0  0  0  0  0  0  0  0  0  0
   36.4270   28.8330   41.3240 C   0  0  0  0  0  0  0  0  0  0  0  0
   37.2190   29.9540   41.2650 N   0  0  0  0  0  0  0  0  0  0  0  0
   36.5410   31.3270   38.2990 H   0  0  0  0  0  0  0  0  0  0  0  0
   35.0260   29.3280   38.2280 H   0  0  0  0  0  0  0  0  0  0  0  0
   34.9870   27.8410   40.1050 H   0  0  0  0  0  0  0  0  0  0  0  0
   36.4170   27.9890   42.4070 O   0  0  0  0  0  0  0  0  0  0  0  0
   37.4550   27.1190   42.6360 C   0  0  0  0  0  0  0  0  0  0  0  0
   38.3990   27.6510   43.5230 C   0  0  0  0  0  0  0  0  0  0  0  0
   38.3380   28.6320   43.9860 H   0  0  0  0  0  0  0  0  0  0  0  0
   39.5310   26.9170   43.8820 C   0  0  0  0  0  3  0  0  0  0  0  0
   39.7710   25.6490   43.3870 C   0  0  0  0  0  3  0  0  0  0  0  0
   38.8260   25.1500   42.5150 C   0  0  0  0  0  0  0  0  0  0  0  0
   38.9700   23.9010   41.9460 C   0  0  0  0  0  3  0  0  0  0  0  0
   38.0140   23.4230   41.0570 C   0  0  0  0  0  3  0  0  0  0  0  0
   36.8980   24.1520   40.7020 C   0  0  0  0  0  3  0  0  0  0  0  0
   36.7480   25.4000   41.2670 C   0  0  0  0  0  3  0  0  0  0  0  0
   37.7030   25.8550   42.1450 C   0  0  0  0  0  0  0  0  0  0  0  0
  1  6  1  0  0  0  0
  2  1  2  0  0  0  0
  2  3  1  0  0  0  0
  3  4  2  0  0  0  0
  4  5  1  0  0  0  0
  5  9  1  0  0  0  0
  6  5  2  0  0  0  0
  7  1  1  0  0  0  0
  8  2  1  0  0  0  0
  9 15  1  1  0  0  0
  9 14  1  0  0  0  0
 10 17  1  0  0  0  0
 10  9  1  0  0  0  0
 11 10  1  0  0  0  0
 11 12  1  0  0  0  0
 12 21  1  0  0  0  0
 12 13  1  0  0  0  0
 13 14  2  0  0  0  0
 13 22  1  0  0  0  0
 14 23  1  0  0  0  0
 16 10  1  0  0  0  0
 18 11  1  0  0  0  0
 19 11  1  0  0  0  0
 20 12  1  0  0  0  0
 23 24  1  0  0  0  0
 23 25  1  0  0  0  0
 26  3  1  0  0  0  0
 26 31  1  0  0  0  0
 27 26  2  0  0  0  0
 28 27  1  0  0  0  0
 28 29  2  0  0  0  0
 29 30  1  0  0  0  0
 30 35  1  0  0  0  0
 31 30  2  0  0  0  0
 32 27  1  0  0  0  0
 33 28  1  0  0  0  0
 34 29  1  0  0  0  0
 35 36  1  0  0  0  0
 36 37  1  0  0  0  0
 37 39  2  0  0  0  0
 37 38  1  0  0  0  0
 40 39  1  0  0  0  0
 41 40  2  0  0  0  0
 42 41  1  0  0  0  0
 43 42  2  0  0  0  0
 44 43  1  0  0  0  0
 44 45  2  0  0  0  0
 45 46  1  0  0  0  0
 46 41  1  0  0  0  0
 46 36  2  0  0  0  0
M  END
>  <minimizedAffinity>
-7.41123438

$$$$

 OpenBabel03252505133D

 46 50  0  0  1  0  0  0  0  0999 V2000
   38.3810   34.2370   40.1740 C   0  0  0  0  0  0  0  0  0  0  0  0
   38.3040   32.9510   40.7460 C   0  0  0  0  0  0  0  0  0  0  0  0
   39.5380   32.2850   41.0500 C   0  0  0  0  0  0  0  0  0  0  0  0
   40.6960   32.9170   40.7750 N   0  0  0  0  0  0  0  0  0  0  0  0
   40.7320   34.1410   40.2300 C   0  0  0  0  0  0  0  0  0  0  0  0
   39.5710   34.8140   39.9240 N   0  0  0  0  0  0  0  0  0  0  0  0
   37.4620   34.7630   39.9350 H   0  0  0  0  0  0  0  0  0  0  0  0
   37.3540   32.4860   40.9480 H   0  0  0  0  0  0  0  0  0  0  0  0
   42.0350   34.7880   39.9450 C   0  0  2  0  0  0  0  0  0  0  0  0
   42.2660   34.5680   38.4660 C   0  0  0  0  0  0  0  0  0  0  0  0
   43.2590   33.5430   38.1030 C   0  0  0  0  0  0  0  0  0  0  0  0
   44.5390   33.9640   38.8300 C   0  0  0  0  0  0  0  0  0  0  0  0
   44.4170   33.8840   40.2800 C   0  0  0  0  0  0  0  0  0  0  0  0
   43.0890   34.3250   40.7980 C   0  0  0  0  0  0  0  0  0  0  0  0
   41.8550   35.8810   40.1270 H   0  0  0  0  0  0  0  0  0  0  0  0
   41.3300   34.3400   37.9090 H   0  0  0  0  0  0  0  0  0  0  0  0
   42.6120   35.5350   38.0400 H   0  0  0  0  0  0  0  0  0  0  0  0
   43.4900   33.6670   37.0300 H   0  0  0  0  0  0  0  0  0  0  0  0
   43.0150   32.5020   38.3130 H   0  0  0  0  0  0  0  0  0  0  0  0
   45.2770   33.1710   38.5450 H   0  0  0  0  0  0  0  0  0  0  0  0
   44.9160   34.9120   38.4230 H   0  0  0  0  0  0  0  0  0  0  0  0
   45.0840   33.5720   41.0290 H   0  0  0  0  0  0  0  0  0  0  0  0
   42.8190   34.2960   42.2050 N   0  0  0  0  0  0  0  0  0  0  0  0
   42.7040   33.5230   42.9240 H   0  0  0  0  0  0  0  0  0  0  0  0
   42.6790   35.1590   42.7990 H   0  0  0  0  0  0  0  0  0  0  0  0
   39.4890   30.9580   41.6450 C   0  0  0  0  0  0  0  0  0  0  0  0
   40.6010   30.4760   42.2410 C   0  0  0  0  0  0  0  0  0  0  0  0
   40.5030   29.1920   42.8000 C   0  0  0  0  0  0  0  0  0  0  0  0
   39.2950   28.5620   42.6850 C   0  0  0  0  0  0  0  0  0  0  0  0
   38.1510   29.0380   42.0830 C   0  0  0  0  0  0  0  0  0  0  0  0
   38.3310   30.2970   41.5630 N   0  0  0  0  0  0  0  0  0  0  0  0
   41.5000   31.0720   42.2680 H   0  0  0  0  0  0  0  0  0  0  0  0
   41.3600   28.7780   43.2780 H   0  0  0  0  0  0  0  0  0  0  0  0
   39.2950   27.5750   43.1290 H   0  0  0  0  0  0  0  0  0  0  0  0
   36.9600   28.3610   41.9910 O   0  0  0  0  0  0  0  0  0  0  0  0
   36.7180   27.4930   40.9560 C   0  0  0  0  0  0  0  0  0  0  0  0
   36.1960   28.1480   39.8340 C   0  0  0  0  0  0  0  0  0  0  0  0
   35.9980   29.2150   39.7680 H   0  0  0  0  0  0  0  0  0  0  0  0
   35.8810   27.4350   38.6750 C   0  0  0  0  0  3  0  0  0  0  0  0
   36.0670   26.0690   38.5800 C   0  0  0  0  0  3  0  0  0  0  0  0
   36.5810   25.4490   39.7000 C   0  0  0  0  0  0  0  0  0  0  0  0
   36.7940   24.0850   39.7260 C   0  0  0  0  0  3  0  0  0  0  0  0
   37.2980   23.4780   40.8700 C   0  0  0  0  0  3  0  0  0  0  0  0
   37.6050   24.1850   42.0150 C   0  0  0  0  0  3  0  0  0  0  0  0
   37.3960   25.5460   41.9950 C   0  0  0  0  0  3  0  0  0  0  0  0
   36.8980   26.1300   40.8540 C   0  0  0  0  0  0  0  0  0  0  0  0
  1  2  1  0  0  0  0
  2  8  1  0  0  0  0
  2  3  2  0  0  0  0
  3 26  1  0  0  0  0
  4  3  1  0  0  0  0
  5  4  2  0  0  0  0
  6  1  2  0  0  0  0
  6  5  1  0  0  0  0
  7  1  1  0  0  0  0
  9 15  1  1  0  0  0
  9  5  1  0  0  0  0
  9 14  1  0  0  0  0
 10  9  1  0  0  0  0
 11 19  1  0  0  0  0
 11 10  1  0  0  0  0
 11 12  1  0  0  0  0
 12 13  1  0  0  0  0
 13 14  2  0  0  0  0
 13 22  1  0  0  0  0
 14 23  1  0  0  0  0
 16 10  1  0  0  0  0
 17 10  1  0  0  0  0
 18 11  1  0  0  0  0
 20 12  1  0  0  0  0
 21 12  1  0  0  0  0
 23 25  1  0  0  0  0
 23 24  1  0  0  0  0
 26 27  1  0  0  0  0
 27 32  1  0  0  0  0
 27 28  2  0  0  0  0
 28 33  1  0  0  0  0
 29 28  1  0  0  0  0
 29 34  1  0  0  0  0
 30 29  2  0  0  0  0
 31 26  2  0  0  0  0
 31 30  1  0  0  0  0
 35 30  1  0  0  0  0
 36 35  1  0  0  0  0
 37 36  2  0  0  0  0
 38 37  1  0  0  0  0
 39 37  1  0  0  0  0
 40 39  2  0  0  0  0
 40 41  1  0  0  0  0
 41 42  2  0  0  0  0
 41 46  1  0  0  0  0
 42 43  1  0  0  0  0
 43 44  2  0  0  0  0
 45 44  1  0  0  0  0
 46 36  1  0  0  0  0
 46 45  2  0  0  0  0
M  END
>  <minimizedAffinity>
-7.36888647

$$$$

 OpenBabel03252505133D

 46 50  0  0  1  0  0  0  0  0999 V2000
   36.1410   29.0720   35.5380 C   0  0  0  0  0  0  0  0  0  0  0  0
   36.6380   29.3410   36.8280 C   0  0  0  0  0  0  0  0  0  0  0  0
   35.6840   29.4830   37.8910 C   0  0  0  0  0  0  0  0  0  0  0  0
   34.3740   29.3510   37.6020 N   0  0  0  0  0  0  0  0  0  0  0  0
   33.9360   29.0960   36.3620 C   0  0  0  0  0  0  0  0  0  0  0  0
   34.8180   28.9530   35.3150 N   0  0  0  0  0  0  0  0  0  0  0  0
   36.8410   28.9610   34.7160 H   0  0  0  0  0  0  0  0  0  0  0  0
   37.6940   29.4380   37.0100 H   0  0  0  0  0  0  0  0  0  0  0  0
   32.4830   28.9650   36.1010 C   0  0  2  0  0  0  0  0  0  0  0  0
   32.2950   29.4500   34.6800 C   0  0  0  0  0  0  0  0  0  0  0  0
   31.6990   30.7860   34.5160 C   0  0  0  0  0  0  0  0  0  0  0  0
   30.3760   30.7200   35.2830 C   0  0  0  0  0  0  0  0  0  0  0  0
   30.5610   30.5560   36.7180 C   0  0  0  0  0  0  0  0  0  0  0  0
   31.6750   29.6300   37.0790 C   0  0  0  0  0  0  0  0  0  0  0  0
   32.2860   27.8610   36.1380 H   0  0  0  0  0  0  0  0  0  0  0  0
   33.2360   29.4270   34.0850 H   0  0  0  0  0  0  0  0  0  0  0  0
   31.6290   28.7210   34.1690 H   0  0  0  0  0  0  0  0  0  0  0  0
   31.4080   30.8950   33.4570 H   0  0  0  0  0  0  0  0  0  0  0  0
   32.2890   31.6480   34.8290 H   0  0  0  0  0  0  0  0  0  0  0  0
   29.9430   31.7440   35.1490 H   0  0  0  0  0  0  0  0  0  0  0  0
   29.6860   30.0180   34.7940 H   0  0  0  0  0  0  0  0  0  0  0  0
   30.0630   30.9660   37.5460 H   0  0  0  0  0  0  0  0  0  0  0  0
   31.9820   29.3750   38.4550 N   0  0  0  0  0  0  0  0  0  0  0  0
   32.3740   29.9590   39.2510 H   0  0  0  0  0  0  0  0  0  0  0  0
   31.8380   28.4410   38.9300 H   0  0  0  0  0  0  0  0  0  0  0  0
   36.1690   29.7560   39.2350 C   0  0  0  0  0  0  0  0  0  0  0  0
   36.6920   30.9730   39.4980 C   0  0  0  0  0  0  0  0  0  0  0  0
   37.1460   31.1880   40.8090 C   0  0  0  0  0  0  0  0  0  0  0  0
   37.0130   30.1460   41.6850 C   0  0  0  0  0  0  0  0  0  0  0  0
   36.4820   28.9000   41.4350 C   0  0  0  0  0  0  0  0  0  0  0  0
   36.0620   28.7720   40.1330 N   0  0  0  0  0  0  0  0  0  0  0  0
   36.7430   31.7180   38.7190 H   0  0  0  0  0  0  0  0  0  0  0  0
   37.5650   32.1360   41.0530 H   0  0  0  0  0  0  0  0  0  0  0  0
   37.3910   30.3790   42.6710 H   0  0  0  0  0  0  0  0  0  0  0  0
   36.3740   27.8840   42.3520 O   0  0  0  0  0  0  0  0  0  0  0  0
   37.4190   27.0230   42.5810 C   0  0  0  0  0  0  0  0  0  0  0  0
   38.3280   27.5400   43.5120 C   0  0  0  0  0  0  0  0  0  0  0  0
   38.2380   28.5040   44.0060 H   0  0  0  0  0  0  0  0  0  0  0  0
   39.4630   26.8130   43.8790 C   0  0  0  0  0  3  0  0  0  0  0  0
   39.7380   25.5660   43.3490 C   0  0  0  0  0  3  0  0  0  0  0  0
   38.8260   25.0820   42.4350 C   0  0  0  0  0  0  0  0  0  0  0  0
   39.0070   23.8550   41.8290 C   0  0  0  0  0  3  0  0  0  0  0  0
   38.0840   23.3920   40.8980 C   0  0  0  0  0  3  0  0  0  0  0  0
   36.9660   24.1150   40.5350 C   0  0  0  0  0  3  0  0  0  0  0  0
   36.7790   25.3400   41.1370 C   0  0  0  0  0  3  0  0  0  0  0  0
   37.7010   25.7810   42.0570 C   0  0  0  0  0  0  0  0  0  0  0  0
  1  2  1  0  0  0  0
  2  8  1  0  0  0  0
  2  3  2  0  0  0  0
  3 26  1  0  0  0  0
  4  3  1  0  0  0  0
  5  4  2  0  0  0  0
  6  1  2  0  0  0  0
  6  5  1  0  0  0  0
  7  1  1  0  0  0  0
  9 15  1  1  0  0  0
  9  5  1  0  0  0  0
  9 14  1  0  0  0  0
 10  9  1  0  0  0  0
 11 10  1  0  0  0  0
 11 19  1  0  0  0  0
 11 12  1  0  0  0  0
 12 13  1  0  0  0  0
 13 14  2  0  0  0  0
 13 22  1  0  0  0  0
 14 23  1  0  0  0  0
 16 10  1  0  0  0  0
 17 10  1  0  0  0  0
 18 11  1  0  0  0  0
 20 12  1  0  0  0  0
 21 12  1  0  0  0  0
 23 25  1  0  0  0  0
 23 24  1  0  0  0  0
 26 27  2  0  0  0  0
 26 31  1  0  0  0  0
 27 28  1  0  0  0  0
 28 33  1  0  0  0  0
 28 29  2  0  0  0  0
 29 34  1  0  0  0  0
 30 29  1  0  0  0  0
 30 35  1  0  0  0  0
 31 30  2  0  0  0  0
 32 27  1  0  0  0  0
 35 36  1  0  0  0  0
 36 37  1  0  0  0  0
 37 39  2  0  0  0  0
 37 38  1  0  0  0  0
 40 39  1  0  0  0  0
 41 40  2  0  0  0  0
 42 41  1  0  0  0  0
 43 42  2  0  0  0  0
 44 43  1  0  0  0  0
 44 45  2  0  0  0  0
 45 46  1  0  0  0  0
 46 41  1  0  0  0  0
 46 36  2  0  0  0  0
M  END
>  <minimizedAffinity>
-7.34396648

$$$$

 OpenBabel03252505133D

 46 50  0  0  1  0  0  0  0  0999 V2000
   33.0830   26.8600   36.1380 C   0  0  0  0  0  0  0  0  0  0  0  0
   34.2650   27.4220   36.6590 C   0  0  0  0  0  0  0  0  0  0  0  0
   34.1970   28.7660   37.1590 C   0  0  0  0  0  0  0  0  0  0  0  0
   33.0170   29.4140   37.1040 N   0  0  0  0  0  0  0  0  0  0  0  0
   31.9120   28.8490   36.6000 C   0  0  0  0  0  0  0  0  0  0  0  0
   31.9340   27.5620   36.1120 N   0  0  0  0  0  0  0  0  0  0  0  0
   33.1070   25.8440   35.7540 H   0  0  0  0  0  0  0  0  0  0  0  0
   35.1850   26.8640   36.6820 H   0  0  0  0  0  0  0  0  0  0  0  0
   30.6410   29.6100   36.5610 C   0  0  2  0  0  0  0  0  0  0  0  0
   30.6600   30.3360   35.2340 C   0  0  0  0  0  0  0  0  0  0  0  0
   30.9460   31.7790   35.2790 C   0  0  0  0  0  0  0  0  0  0  0  0
   29.8990   32.3550   36.2360 C   0  0  0  0  0  0  0  0  0  0  0  0
   30.0660   31.8870   37.6050 C   0  0  0  0  0  0  0  0  0  0  0  0
   30.4550   30.4500   37.7060 C   0  0  0  0  0  0  0  0  0  0  0  0
   29.8390   28.8250   36.5350 H   0  0  0  0  0  0  0  0  0  0  0  0
   31.3590   29.8790   34.4980 H   0  0  0  0  0  0  0  0  0  0  0  0
   29.6560   30.2080   34.7740 H   0  0  0  0  0  0  0  0  0  0  0  0
   30.6910   32.2020   34.2920 H   0  0  0  0  0  0  0  0  0  0  0  0
   31.9510   32.0900   35.5670 H   0  0  0  0  0  0  0  0  0  0  0  0
   30.1370   33.4490   36.2590 H   0  0  0  0  0  0  0  0  0  0  0  0
   28.8930   32.2580   35.8050 H   0  0  0  0  0  0  0  0  0  0  0  0
   29.9690   32.3680   38.5330 H   0  0  0  0  0  0  0  0  0  0  0  0
   30.6620   29.8490   38.9910 N   0  0  0  0  0  0  0  0  0  0  0  0
   31.3830   29.9700   39.7620 H   0  0  0  0  0  0  0  0  0  0  0  0
   30.0380   29.1010   39.4020 H   0  0  0  0  0  0  0  0  0  0  0  0
   35.4010   29.3700   37.7070 C   0  0  0  0  0  0  0  0  0  0  0  0
   36.3420   29.8270   36.8520 C   0  0  0  0  0  0  0  0  0  0  0  0
   37.4850   30.4020   37.4300 C   0  0  0  0  0  0  0  0  0  0  0  0
   37.5300   30.4400   38.7970 C   0  0  0  0  0  0  0  0  0  0  0  0
   36.5820   29.9800   39.6830 C   0  0  0  0  0  0  0  0  0  0  0  0
   35.4980   29.4350   39.0380 N   0  0  0  0  0  0  0  0  0  0  0  0
   36.1910   29.7400   35.7870 H   0  0  0  0  0  0  0  0  0  0  0  0
   38.2490   30.7730   36.7870 H   0  0  0  0  0  0  0  0  0  0  0  0
   38.4420   30.8860   39.1710 H   0  0  0  0  0  0  0  0  0  0  0  0
   36.6780   30.0400   41.0510 O   0  0  0  0  0  0  0  0  0  0  0  0
   37.3490   29.0710   41.7570 C   0  0  0  0  0  0  0  0  0  0  0  0
   36.5130   28.0040   42.1060 C   0  0  0  0  0  0  0  0  0  0  0  0
   35.4570   27.9300   41.8600 H   0  0  0  0  0  0  0  0  0  0  0  0
   37.0100   26.9170   42.8290 C   0  0  0  0  0  3  0  0  0  0  0  0
   38.3310   26.8440   43.2280 C   0  0  0  0  0  3  0  0  0  0  0  0
   39.1310   27.9090   42.8720 C   0  0  0  0  0  0  0  0  0  0  0  0
   40.4640   27.9510   43.2300 C   0  0  0  0  0  3  0  0  0  0  0  0
   41.2490   29.0420   42.8740 C   0  0  0  0  0  3  0  0  0  0  0  0
   40.7540   30.1150   42.1620 C   0  0  0  0  0  3  0  0  0  0  0  0
   39.4250   30.0780   41.8010 C   0  0  0  0  0  3  0  0  0  0  0  0
   38.6640   28.9910   42.1600 C   0  0  0  0  0  0  0  0  0  0  0  0
  1  2  1  0  0  0  0
  2  8  1  0  0  0  0
  2  3  2  0  0  0  0
  3 26  1  0  0  0  0
  4  3  1  0  0  0  0
  5  4  2  0  0  0  0
  6  1  2  0  0  0  0
  6  5  1  0  0  0  0
  7  1  1  0  0  0  0
  9 15  1  6  0  0  0
  9  5  1  0  0  0  0
  9 14  1  0  0  0  0
 10 11  1  0  0  0  0
 10  9  1  0  0  0  0
 11 19  1  0  0  0  0
 11 12  1  0  0  0  0
 12 20  1  0  0  0  0
 12 13  1  0  0  0  0
 13 14  2  0  0  0  0
 13 22  1  0  0  0  0
 14 23  1  0  0  0  0
 16 10  1  0  0  0  0
 17 10  1  0  0  0  0
 18 11  1  0  0  0  0
 21 12  1  0  0  0  0
 23 25  1  0  0  0  0
 23 24  1  0  0  0  0
 26 31  1  0  0  0  0
 27 28  1  0  0  0  0
 27 26  2  0  0  0  0
 28 29  2  0  0  0  0
 29 34  1  0  0  0  0
 29 30  1  0  0  0  0
 30 35  1  0  0  0  0
 31 30  2  0  0  0  0
 32 27  1  0  0  0  0
 33 28  1  0  0  0  0
 35 36  1  0  0  0  0
 36 37  2  0  0  0  0
 36 46  1  0  0  0  0
 37 39  1  0  0  0  0
 38 37  1  0  0  0  0
 39 40  2  0  0  0  0
 41 40  1  0  0  0  0
 41 42  1  0  0  0  0
 43 42  2  0  0  0  0
 44 43  1  0  0  0  0
 45 46  1  0  0  0  0
 45 44  2  0  0  0  0
 46 41  2  0  0  0  0
M  END
>  <minimizedAffinity>
-7.33178854

$$$$

 OpenBabel03252505133D

 46 50  0  0  1  0  0  0  0  0999 V2000
   39.4650   35.4740   40.3930 C   0  0  0  0  0  0  0  0  0  0  0  0
   38.7100   34.3430   40.0210 C   0  0  0  0  0  0  0  0  0  0  0  0
   39.4240   33.1230   39.7670 C   0  0  0  0  0  0  0  0  0  0  0  0
   40.7650   33.1230   39.8960 N   0  0  0  0  0  0  0  0  0  0  0  0
   41.4510   34.2180   40.2500 C   0  0  0  0  0  0  0  0  0  0  0  0
   40.8050   35.4070   40.5030 N   0  0  0  0  0  0  0  0  0  0  0  0
   38.9500   36.4090   40.5900 H   0  0  0  0  0  0  0  0  0  0  0  0
   37.6390   34.3920   39.9320 H   0  0  0  0  0  0  0  0  0  0  0  0
   42.9270   34.1610   40.3730 C   0  0  2  0  0  0  0  0  0  0  0  0
   43.4350   34.0860   38.9500 C   0  0  0  0  0  0  0  0  0  0  0  0
   43.9200   32.7730   38.4950 C   0  0  0  0  0  0  0  0  0  0  0  0
   44.9940   32.3780   39.5120 C   0  0  0  0  0  0  0  0  0  0  0  0
   44.4520   32.1480   40.8450 C   0  0  0  0  0  0  0  0  0  0  0  0
   43.3780   33.1080   41.2330 C   0  0  0  0  0  0  0  0  0  0  0  0
   43.2140   35.1540   40.8110 H   0  0  0  0  0  0  0  0  0  0  0  0
   42.6930   34.4470   38.2040 H   0  0  0  0  0  0  0  0  0  0  0  0
   44.2810   34.8040   38.8650 H   0  0  0  0  0  0  0  0  0  0  0  0
   44.4690   32.9280   37.5490 H   0  0  0  0  0  0  0  0  0  0  0  0
   43.1870   31.9750   38.3710 H   0  0  0  0  0  0  0  0  0  0  0  0
   45.3440   31.3780   39.1510 H   0  0  0  0  0  0  0  0  0  0  0  0
   45.8530   33.0600   39.4440 H   0  0  0  0  0  0  0  0  0  0  0  0
   44.6710   31.4330   41.5820 H   0  0  0  0  0  0  0  0  0  0  0  0
   42.7450   33.0010   42.5140 N   0  0  0  0  0  0  0  0  0  0  0  0
   42.1010   32.2890   42.9680 H   0  0  0  0  0  0  0  0  0  0  0  0
   42.8480   33.7150   43.2870 H   0  0  0  0  0  0  0  0  0  0  0  0
   38.6700   31.9390   39.3870 C   0  0  0  0  0  0  0  0  0  0  0  0
   37.5910   32.0880   38.5880 C   0  0  0  0  0  0  0  0  0  0  0  0
   36.8980   30.9150   38.2490 C   0  0  0  0  0  0  0  0  0  0  0  0
   37.3840   29.7430   38.7610 C   0  0  0  0  0  0  0  0  0  0  0  0
   38.4810   29.5720   39.5750 C   0  0  0  0  0  0  0  0  0  0  0  0
   39.1020   30.7650   39.8580 N   0  0  0  0  0  0  0  0  0  0  0  0
   37.3050   33.0700   38.2460 H   0  0  0  0  0  0  0  0  0  0  0  0
   36.0410   30.9940   37.6220 H   0  0  0  0  0  0  0  0  0  0  0  0
   36.7960   28.8850   38.4670 H   0  0  0  0  0  0  0  0  0  0  0  0
   38.9270   28.3700   40.0660 O   0  0  0  0  0  0  0  0  0  0  0  0
   38.2300   27.7030   41.0430 C   0  0  0  0  0  0  0  0  0  0  0  0
   37.9810   28.5150   42.1570 C   0  0  0  0  0  0  0  0  0  0  0  0
   38.2920   29.5510   42.2570 H   0  0  0  0  0  0  0  0  0  0  0  0
   37.2840   28.0170   43.2600 C   0  0  0  0  0  3  0  0  0  0  0  0
   36.8140   26.7170   43.3050 C   0  0  0  0  0  3  0  0  0  0  0  0
   37.0740   25.9400   42.1960 C   0  0  0  0  0  0  0  0  0  0  0  0
   36.6660   24.6230   42.1370 C   0  0  0  0  0  3  0  0  0  0  0  0
   36.9530   23.8510   41.0160 C   0  0  0  0  0  3  0  0  0  0  0  0
   37.6440   24.3460   39.9290 C   0  0  0  0  0  3  0  0  0  0  0  0
   38.0540   25.6600   39.9820 C   0  0  0  0  0  3  0  0  0  0  0  0
   37.7600   26.4080   41.0970 C   0  0  0  0  0  0  0  0  0  0  0  0
  1  6  1  0  0  0  0
  1  7  1  0  0  0  0
  2  1  2  0  0  0  0
  3  4  2  0  0  0  0
  3  2  1  0  0  0  0
  4  5  1  0  0  0  0
  5  9  1  0  0  0  0
  5  6  2  0  0  0  0
  8  2  1  0  0  0  0
  9 15  1  1  0  0  0
  9 14  1  0  0  0  0
 10  9  1  0  0  0  0
 11 10  1  0  0  0  0
 11 12  1  0  0  0  0
 12 13  1  0  0  0  0
 13 14  2  0  0  0  0
 13 22  1  0  0  0  0
 14 23  1  0  0  0  0
 16 10  1  0  0  0  0
 17 10  1  0  0  0  0
 18 11  1  0  0  0  0
 19 11  1  0  0  0  0
 20 12  1  0  0  0  0
 21 12  1  0  0  0  0
 23 24  1  0  0  0  0
 23 25  1  0  0  0  0
 26  3  1  0  0  0  0
 26 31  1  0  0  0  0
 27 26  2  0  0  0  0
 28 27  1  0  0  0  0
 28 29  2  0  0  0  0
 29 30  1  0  0  0  0
 30 31  2  0  0  0  0
 30 35  1  0  0  0  0
 32 27  1  0  0  0  0
 33 28  1  0  0  0  0
 34 29  1  0  0  0  0
 35 36  1  0  0  0  0
 36 46  2  0  0  0  0
 36 37  1  0  0  0  0
 37 38  1  0  0  0  0
 37 39  2  0  0  0  0
 39 40  1  0  0  0  0
 41 40  2  0  0  0  0
 42 41  1  0  0  0  0
 43 42  2  0  0  0  0
 44 45  2  0  0  0  0
 44 43  1  0  0  0  0
 45 46  1  0  0  0  0
 46 41  1  0  0  0  0
M  END
>  <minimizedAffinity>
-7.22709656

$$$$

 OpenBabel03252505133D

 46 50  0  0  1  0  0  0  0  0999 V2000
   41.5300   26.8450   44.3390 C   0  0  0  0  0  0  0  0  0  0  0  0
   42.1080   28.0630   43.9310 C   0  0  0  0  0  0  0  0  0  0  0  0
   41.3110   28.9350   43.1140 C   0  0  0  0  0  0  0  0  0  0  0  0
   40.0640   28.5470   42.7850 N   0  0  0  0  0  0  0  0  0  0  0  0
   39.5460   27.3790   43.1910 C   0  0  0  0  0  0  0  0  0  0  0  0
   40.2760   26.5150   43.9740 N   0  0  0  0  0  0  0  0  0  0  0  0
   42.1110   26.1670   44.9570 H   0  0  0  0  0  0  0  0  0  0  0  0
   43.1090   28.3310   44.2200 H   0  0  0  0  0  0  0  0  0  0  0  0
   38.1690   27.0010   42.7950 C   0  0  2  0  0  0  0  0  0  0  0  0
   38.3290   26.2500   41.4910 C   0  0  0  0  0  0  0  0  0  0  0  0
   37.9490   26.9740   40.2660 C   0  0  0  0  0  0  0  0  0  0  0  0
   36.5020   27.4130   40.5050 C   0  0  0  0  0  0  0  0  0  0  0  0
   36.3770   28.3870   41.5810 C   0  0  0  0  0  0  0  0  0  0  0  0
   37.2730   28.1170   42.7440 C   0  0  0  0  0  0  0  0  0  0  0  0
   37.8320   26.2830   43.5890 H   0  0  0  0  0  0  0  0  0  0  0  0
   39.3580   25.8540   41.3410 H   0  0  0  0  0  0  0  0  0  0  0  0
   37.6910   25.3410   41.5540 H   0  0  0  0  0  0  0  0  0  0  0  0
   37.8900   26.2360   39.4470 H   0  0  0  0  0  0  0  0  0  0  0  0
   38.5680   27.8180   39.9620 H   0  0  0  0  0  0  0  0  0  0  0  0
   36.2360   27.9640   39.5670 H   0  0  0  0  0  0  0  0  0  0  0  0
   35.8410   26.5370   40.5580 H   0  0  0  0  0  0  0  0  0  0  0  0
   35.7800   29.2430   41.6930 H   0  0  0  0  0  0  0  0  0  0  0  0
   37.2660   28.9950   43.8760 N   0  0  0  0  0  0  0  0  0  0  0  0
   37.5630   30.0020   44.0390 H   0  0  0  0  0  0  0  0  0  0  0  0
   36.9160   28.7210   44.8360 H   0  0  0  0  0  0  0  0  0  0  0  0
   41.8800   30.2020   42.6820 C   0  0  0  0  0  0  0  0  0  0  0  0
   42.8380   30.7740   43.4430 C   0  0  0  0  0  0  0  0  0  0  0  0
   43.3550   31.9950   42.9830 C   0  0  0  0  0  0  0  0  0  0  0  0
   42.8380   32.4810   41.8130 C   0  0  0  0  0  0  0  0  0  0  0  0
   41.8640   31.9110   41.0240 C   0  0  0  0  0  0  0  0  0  0  0  0
   41.4120   30.7220   41.5430 N   0  0  0  0  0  0  0  0  0  0  0  0
   43.1650   30.2920   44.3510 H   0  0  0  0  0  0  0  0  0  0  0  0
   44.1110   32.4770   43.5580 H   0  0  0  0  0  0  0  0  0  0  0  0
   43.2750   33.4270   41.5260 H   0  0  0  0  0  0  0  0  0  0  0  0
   41.3760   32.4430   39.8560 O   0  0  0  0  0  0  0  0  0  0  0  0
   40.0260   32.6010   39.6590 C   0  0  0  0  0  0  0  0  0  0  0  0
   39.5560   33.8050   40.1990 C   0  0  0  0  0  0  0  0  0  0  0  0
   40.1670   34.5400   40.7160 H   0  0  0  0  0  0  0  0  0  0  0  0
   38.2060   34.1490   40.1020 C   0  0  0  0  0  3  0  0  0  0  0  0
   37.2830   33.3300   39.4780 C   0  0  0  0  0  3  0  0  0  0  0  0
   37.7740   32.1520   38.9560 C   0  0  0  0  0  0  0  0  0  0  0  0
   36.9410   31.2500   38.3250 C   0  0  0  0  0  3  0  0  0  0  0  0
   37.4530   30.0600   37.8200 C   0  0  0  0  0  3  0  0  0  0  0  0
   38.7870   29.7220   37.9200 C   0  0  0  0  0  3  0  0  0  0  0  0
   39.6230   30.6180   38.5490 C   0  0  0  0  0  3  0  0  0  0  0  0
   39.1000   31.7900   39.0400 C   0  0  0  0  0  0  0  0  0  0  0  0
  1  7  1  0  0  0  0
  2  8  1  0  0  0  0
  2  1  2  0  0  0  0
  3  2  1  0  0  0  0
  4  3  2  0  0  0  0
  4  5  1  0  0  0  0
  5  6  2  0  0  0  0
  6  1  1  0  0  0  0
  9  5  1  0  0  0  0
  9 15  1  1  0  0  0
 10 17  1  0  0  0  0
 10  9  1  0  0  0  0
 11 12  1  0  0  0  0
 11 10  1  0  0  0  0
 12 21  1  0  0  0  0
 12 13  1  0  0  0  0
 13 22  1  0  0  0  0
 13 14  2  0  0  0  0
 14  9  1  0  0  0  0
 14 23  1  0  0  0  0
 16 10  1  0  0  0  0
 18 11  1  0  0  0  0
 19 11  1  0  0  0  0
 20 12  1  0  0  0  0
 23 24  1  0  0  0  0
 23 25  1  0  0  0  0
 26  3  1  0  0  0  0
 26 27  1  0  0  0  0
 27 32  1  0  0  0  0
 28 27  2  0  0  0  0
 28 33  1  0  0  0  0
 29 28  1  0  0  0  0
 30 31  1  0  0  0  0
 30 29  2  0  0  0  0
 31 26  2  0  0  0  0
 34 29  1  0  0  0  0
 35 30  1  0  0  0  0
 36 35  1  0  0  0  0
 36 37  1  0  0  0  0
 37 38  1  0  0  0  0
 39 37  2  0  0  0  0
 40 39  1  0  0  0  0
 41 46  1  0  0  0  0
 41 40  2  0  0  0  0
 42 41  1  0  0  0  0
 43 44  1  0  0  0  0
 43 42  2  0  0  0  0
 44 45  2  0  0  0  0
 45 46  1  0  0  0  0
 46 36  2  0  0  0  0
M  END
>  <minimizedAffinity>
-7.18463945

$$$$
