
 OpenBabel03242519413D

 31 33  0  0  0  0  0  0  0  0999 V2000
   47.9890   32.8720   41.7710 O   0  0  0  0  0  0  0  0  0  0  0  0
   47.1080   34.0570   41.2930 P   0  0  2  0  0  0  0  0  0  0  0  0
   45.5240   33.8490   41.9210 O   0  0  0  0  0  0  0  0  0  0  0  0
   44.3960   35.9250   44.6920 C   0  0  0  0  0  0  0  0  0  0  0  0
   44.6550   35.4870   43.3730 C   0  0  0  0  0  0  0  0  0  0  0  0
   45.2840   34.2430   43.2190 C   0  0  0  0  0  0  0  0  0  0  0  0
   45.6010   33.5380   44.3230 N   0  0  0  0  0  0  0  0  0  0  0  0
   45.3400   33.9840   45.5710 C   0  0  0  0  0  0  0  0  0  0  0  0
   44.7410   35.1700   45.7660 N   0  0  0  0  0  0  0  0  0  0  0  0
   43.9120   36.8840   44.8190 H   0  0  0  0  0  0  0  0  0  0  0  0
   44.3610   36.1240   42.5620 H   0  0  0  0  0  0  0  0  0  0  0  0
   45.6300   33.3530   46.4190 H   0  0  0  0  0  0  0  0  0  0  0  0
   47.0310   34.0410   39.6360 O   0  0  0  0  0  0  0  0  0  0  0  0
   46.6570   33.0490   38.7860 C   0  0  0  0  0  0  0  0  0  0  0  0
   45.5900   33.2850   37.9830 O   0  0  0  0  0  0  0  0  0  0  0  0
   46.9520   31.6800   38.3030 C   0  0  0  0  0  0  0  0  0  0  0  0
   47.6030   31.4850   37.0630 C   0  0  0  0  0  0  0  0  0  0  0  0
   47.9760   32.4310   36.6020 H   0  0  0  0  0  0  0  0  0  0  0  0
   47.8540   30.3560   36.3290 C   0  0  0  0  0  3  0  0  0  0  0  0
   47.3620   29.2450   36.9680 C   0  0  0  0  0  3  0  0  0  0  0  0
   46.7190   29.3390   38.1760 C   0  0  0  0  0  0  0  0  0  0  0  0
   46.2710   28.2030   38.8150 C   0  0  0  0  0  3  0  0  0  0  0  0
   45.6470   28.1250   40.0440 C   0  0  0  0  0  3  0  0  0  0  0  0
   45.4690   29.3630   40.6770 C   0  0  0  0  0  3  0  0  0  0  0  0
   45.9050   30.5110   40.0640 C   0  0  0  0  0  3  0  0  0  0  0  0
   46.5150   30.5450   38.8430 C   0  0  0  0  0  0  0  0  0  0  0  0
   47.7630   35.4340   41.9440 O   0  0  0  0  0  0  0  0  0  0  0  0
   49.0120   35.7300   41.4160 C   0  0  0  0  0  0  0  0  0  0  0  0
   49.4430   36.9990   41.7570 F   0  0  0  0  0  0  0  0  0  0  0  0
   49.9080   34.7610   41.7340 F   0  0  0  0  0  0  0  0  0  0  0  0
   48.8540   35.7320   40.0310 F   0  0  0  0  0  0  0  0  0  0  0  0
  2  1  2  1  0  0  0
  2  3  1  0  0  0  0
  2 27  1  0  0  0  0
  3  6  1  0  0  0  0
  4 10  1  0  0  0  0
  4  9  1  0  0  0  0
  5  4  2  0  0  0  0
  6  5  1  0  0  0  0
  6  7  2  0  0  0  0
  7  8  1  0  0  0  0
  8  9  2  0  0  0  0
  8 12  1  0  0  0  0
 11  5  1  0  0  0  0
 13  2  1  0  0  0  0
 14 13  1  0  0  0  0
 15 14  2  0  0  0  0
 16 14  1  0  0  0  0
 16 26  1  0  0  0  0
 17 16  2  0  0  0  0
 18 17  1  0  0  0  0
 19 20  2  0  0  0  0
 19 17  1  0  0  0  0
 20 21  1  0  0  0  0
 21 22  2  0  0  0  0
 21 26  1  0  0  0  0
 22 23  1  0  0  0  0
 23 24  2  0  0  0  0
 25 24  1  0  0  0  0
 26 25  2  0  0  0  0
 28 30  1  0  0  0  0
 28 29  1  0  0  0  0
 28 27  1  0  0  0  0
 31 28  1  0  0  0  0
M  END
>  <minimizedAffinity>
-4.86660767

>  <minimizedRMSD>
1.04598439

$$$$
