
     RDKit          3D

 52 56  0  0  0  0  0  0  0  0999 V2000
   44.5642   35.5796   44.6084 C   0  0  0  0  0  0  0  0  0  0  0  0
   45.2200   35.5918   43.3610 C   0  0  0  0  0  0  0  0  0  0  0  0
   46.3157   34.6830   43.1786 C   0  0  0  0  0  0  0  0  0  0  0  0
   46.6573   33.8731   44.2005 N   0  0  0  0  0  0  0  0  0  0  0  0
   46.0108   33.8885   45.3743 C   0  0  0  0  0  0  0  0  0  0  0  0
   44.9547   34.7451   45.5889 N   0  0  0  0  0  0  0  0  0  0  0  0
   46.4325   32.9783   46.4655 C   0  0  2  0  0  0  0  0  0  0  0  0
   46.9626   31.7469   45.7643 C   0  0  0  0  0  0  0  0  0  0  0  0
   46.0949   30.5579   45.7789 C   0  0  0  0  0  0  0  0  0  0  0  0
   45.8109   30.2999   47.2612 C   0  0  0  0  0  0  0  0  0  0  0  0
   45.0234   31.3594   47.8778 C   0  0  0  0  0  0  0  0  0  0  0  0
   45.3935   32.7298   47.4203 C   0  0  0  0  0  0  0  0  0  0  0  0
   44.6995   33.8725   47.9351 N   0  0  0  0  0  0  0  0  0  0  0  0
   47.0094   34.6698   41.9002 C   0  0  0  0  0  0  0  0  0  0  0  0
   48.1492   35.3838   41.7745 C   0  0  0  0  0  0  0  0  0  0  0  0
   48.7800   35.3394   40.5221 C   0  0  0  0  0  0  0  0  0  0  0  0
   48.1783   34.5794   39.5572 C   0  0  0  0  0  0  0  0  0  0  0  0
   47.0180   33.8449   39.6657 C   0  0  0  0  0  0  0  0  0  0  0  0
   46.4648   33.9418   40.9196 N   0  0  0  0  0  0  0  0  0  0  0  0
   46.4522   33.0991   38.6619 O   0  0  0  0  0  0  0  0  0  0  0  0
   43.7319   36.2579   44.7715 H   0  0  0  0  0  0  0  0  0  0  0  0
   44.9108   36.2579   42.5738 H   0  0  0  0  0  0  0  0  0  0  0  0
   47.2855   33.5094   46.9649 H   0  0  0  0  0  0  0  0  0  0  0  0
   47.2503   31.9390   44.7055 H   0  0  0  0  0  0  0  0  0  0  0  0
   47.9183   31.4713   46.2616 H   0  0  0  0  0  0  0  0  0  0  0  0
   46.7032   29.6960   45.4531 H   0  0  0  0  0  0  0  0  0  0  0  0
   45.1692   30.5971   45.2053 H   0  0  0  0  0  0  0  0  0  0  0  0
   45.1478   29.3979   47.2491 H   0  0  0  0  0  0  0  0  0  0  0  0
   46.7345   30.0098   47.7825 H   0  0  0  0  0  0  0  0  0  0  0  0
   44.2431   31.3409   48.5802 H   0  0  0  0  0  0  0  0  0  0  0  0
   43.7093   34.2450   47.8452 H   0  0  0  0  0  0  0  0  0  0  0  0
   45.1421   34.6006   48.5617 H   0  0  0  0  0  0  0  0  0  0  0  0
   48.5266   35.9475   42.6138 H   0  0  0  0  0  0  0  0  0  0  0  0
   49.6810   35.8899   40.3856 H   0  0  0  0  0  0  0  0  0  0  0  0
   48.7129   34.5994   38.6171 H   0  0  0  0  0  0  0  0  0  0  0  0
   47.0663   32.9755   37.4402 C   0  0  0  0  0  0  0  0  0  0  0  0
   46.1689   32.5853   36.4396 C   0  0  0  0  0  0  0  0  0  0  0  0
   45.1083   32.3969   36.5891 H   0  0  0  0  0  0  0  0  0  0  0  0
   46.6026   32.4056   35.1244 C   0  0  0  0  0  0  0  0  0  0  0  0
   47.9195   32.6009   34.7522 C   0  0  0  0  0  0  0  0  0  0  0  0
   48.7822   32.9838   35.7584 C   0  0  0  0  0  0  0  0  0  0  0  0
   50.1228   33.1918   35.5071 C   0  0  0  0  0  0  0  0  0  0  0  0
   50.9788   33.5617   36.5386 C   0  0  0  0  0  0  0  0  0  0  0  0
   50.5477   33.7370   37.8372 C   0  0  0  0  0  0  0  0  0  0  0  0
   49.2098   33.5314   38.0947 C   0  0  0  0  0  0  0  0  0  0  0  0
   48.3779   33.1672   37.0627 C   0  0  0  0  0  0  0  0  0  0  0  0
   45.8992   32.0999   34.3396 H   0  0  0  0  0  0  0  0  0  0  0  0
   48.2591   32.4668   33.7509 H   0  0  0  0  0  0  0  0  0  0  0  0
   50.4568   33.0516   34.4792 H   0  0  0  0  0  0  0  0  0  0  0  0
   52.0013   33.6917   36.2020 H   0  0  0  0  0  0  0  0  0  0  0  0
   51.3062   34.0249   38.5539 H   0  0  0  0  0  0  0  0  0  0  0  0
   48.8790   33.6589   39.1143 H   0  0  0  0  0  0  0  0  0  0  0  0
  1  6  2  0
  2  1  1  0
  3  2  2  0
  3  4  1  0
  4  5  2  0
  5  6  1  0
  5  7  1  0
  7 12  1  0
  8  9  1  0
  8  7  1  0
  9 10  1  0
 10 11  1  0
 12 11  2  0
 12 13  1  0
 14  3  1  0
 15 14  2  0
 16 15  1  0
 17 18  1  0
 17 16  2  0
 18 19  2  0
 19 14  1  0
 20 18  1  0
  1 21  1  0
  2 22  1  0
  7 23  1  1
  8 24  1  0
  8 25  1  0
  9 26  1  0
  9 27  1  0
 10 28  1  0
 10 29  1  0
 11 30  1  0
 13 31  1  0
 13 32  1  0
 15 33  1  0
 16 34  1  0
 17 35  1  0
 36 37  2  0
 37 38  1  0
 37 39  1  0
 39 40  2  0
 40 41  1  0
 41 42  2  0
 42 43  1  0
 43 44  2  0
 44 45  1  0
 45 46  2  0
 46 36  1  0
 46 41  1  0
 39 47  1  0
 40 48  1  0
 42 49  1  0
 43 50  1  0
 44 51  1  0
 45 52  1  0
 20 36  1  0
M  ISO  8  21  14  22  14  23  13  24  13  25  13  26  13  27  13  28  13
M  ISO  6  29  13  30  13  33  14  34  14  35  14  38  15
M  END
>  <DihAtoms>  (1) 
17,19,35,36

>  <DihDeg>  (1) 
-114.78273903703655

$$$$
