REMARK  Name = 
REMARK  6 active torsions:
REMARK  status: ('A' for Active; 'I' for Inactive)
REMARK    1  A    between atoms: C_1  and  C_11
REMARK    2  A    between atoms: C_5  and  C_7
REMARK    3  A    between atoms: C_9  and  N_10
REMARK    4  A    between atoms: C_11  and  C_14
REMARK    5  A    between atoms: C_13  and  S_19
REMARK    6  A    between atoms: S_19  and  C_34
REMARK                            x       y       z     vdW  Elec       q    Type
REMARK                         _______ _______ _______ _____ _____    ______ ____
ROOT
ATOM      1  C   UNL     1      42.001  33.308  41.299  0.00  0.00    +0.000 A 
ATOM      2  C   UNL     1      42.806  34.407  41.307  0.00  0.00    +0.000 A 
ATOM      3  C   UNL     1      42.231  35.668  41.072  0.00  0.00    +0.000 A 
ATOM      4  C   UNL     1      40.893  35.847  40.834  0.00  0.00    +0.000 A 
ATOM      5  C   UNL     1      40.079  34.744  40.825  0.00  0.00    +0.000 A 
ATOM      6  C   UNL     1      40.639  33.525  41.053  0.00  0.00    +0.000 A 
ATOM      7  H   UNL     1      42.802  36.585  41.052  0.00  0.00    +0.000 HD
ATOM      8  H   UNL     1      40.458  36.802  40.656  0.00  0.00    +0.000 HD
ATOM      9  H   UNL     1      39.018  34.792  40.647  0.00  0.00    +0.000 HD
ATOM     10  H   UNL     1      39.980  32.642  41.044  0.00  0.00    +0.000 HD
ENDROOT
BRANCH   1  11
ATOM     11  S   UNL     1      42.539  31.760  41.688  0.00  0.00    +0.000 S 
ATOM     12  O   UNL     1      42.363  31.075  40.291  0.00  0.00    +0.000 OA
ATOM     13  O   UNL     1      41.635  31.031  42.591  0.00  0.00    +0.000 OA
BRANCH  11  14
ATOM     14  C   UNL     1      44.112  31.132  41.688  0.00  0.00    +0.000 A 
ATOM     15  C   UNL     1      45.363  31.789  41.812  0.00  0.00    +0.000 A 
ATOM     16  H   UNL     1      45.209  32.882  41.973  0.00  0.00    +0.000 HD
ATOM     17  C   UNL     1      46.669  31.341  41.730  0.00  0.00    +0.000 A 
ATOM     18  C   UNL     1      46.664  30.014  41.479  0.00  0.00    +0.000 A 
ATOM     19  C   UNL     1      45.550  29.227  41.328  0.00  0.00    +0.000 A 
ATOM     20  C   UNL     1      45.825  27.882  41.071  0.00  0.00    +0.000 A 
ATOM     21  C   UNL     1      44.780  27.004  40.904  0.00  0.00    +0.000 A 
ATOM     22  C   UNL     1      43.496  27.491  41.000  0.00  0.00    +0.000 A 
ATOM     23  C   UNL     1      43.320  28.828  41.255  0.00  0.00    +0.000 A 
ATOM     24  C   UNL     1      44.301  29.777  41.432  0.00  0.00    +0.000 A 
ENDBRANCH  11  14
ENDBRANCH   1  11
BRANCH   2  25
ATOM     25  C   UNL     1      44.245  34.314  41.547  0.00  0.00    +0.000 C 
ATOM     26  O   UNL     1      45.116  34.155  40.640  0.00  0.00    +0.000 OA
BRANCH  25  27
ATOM     27  C   UNL     1      44.597  34.425  42.936  0.00  0.00    +0.000 A 
ATOM     28  C   UNL     1      44.304  35.691  43.557  0.00  0.00    +0.000 A 
ATOM     29  C   UNL     1      44.619  35.818  44.900  0.00  0.00    +0.000 A 
ATOM     30  N   UNL     1      45.175  34.755  45.539  0.00  0.00    +0.000 NA
ATOM     31  C   UNL     1      45.431  33.570  44.897  0.00  0.00    +0.000 A 
ATOM     32  N   UNL     1      45.143  33.447  43.650  0.00  0.00    +0.000 NA
ATOM     33  H   UNL     1      43.875  36.569  43.132  0.00  0.00    +0.000 HD
ATOM     34  H   UNL     1      44.452  36.707  45.478  0.00  0.00    +0.000 HD
BRANCH  31  35
ATOM     35  C   UNL     1      46.027  32.460  45.677  0.00  0.00    +0.000 C 
ATOM     36  C   UNL     1      46.965  32.783  46.818  0.00  0.00    +0.000 C 
ATOM     37  C   UNL     1      45.556  32.355  47.076  0.00  0.00    +0.000 C 
ATOM     38  H   UNL     1      46.171  31.521  45.122  0.00  0.00    +0.000 HD
ATOM     39  H   UNL     1      47.282  33.837  46.945  0.00  0.00    +0.000 HD
ATOM     40  H   UNL     1      47.732  32.033  47.085  0.00  0.00    +0.000 HD
ATOM     41  H   UNL     1      45.346  31.380  47.558  0.00  0.00    +0.000 HD
BRANCH  37  42
ATOM     42  N   UNL     1      44.757  33.429  47.656  0.00  0.00    +0.000 NA
ATOM     43  H   UNL     1      43.759  33.184  47.411  0.00  0.00    +0.000 HD
ATOM     44  H   UNL     1      44.863  33.342  48.686  0.00  0.00    +0.000 HD
ENDBRANCH  37  42
ENDBRANCH  31  35
ENDBRANCH  25  27
ENDBRANCH   2  25
TORSDOF 6
