
     RDKit          3D

 32 34  0  0  0  0  0  0  0  0999 V2000
   45.1906   35.2116   44.0642 C   0  0  0  0  0  0  0  0  0  0  0  0
   46.2131   34.5904   43.3604 C   0  0  0  0  0  0  0  0  0  0  0  0
   46.8923   33.5661   44.0544 C   0  0  0  0  0  0  0  0  0  0  0  0
   46.5243   33.2518   45.3289 N   0  0  0  0  0  0  0  0  0  0  0  0
   45.5118   33.9094   45.9447 C   0  0  0  0  0  0  0  0  0  0  0  0
   44.8442   34.8935   45.3057 N   0  0  0  0  0  0  0  0  0  0  0  0
   46.5613   34.9575   42.0061 C   0  0  1  0  0  0  0  0  0  0  0  0
   48.0585   35.2057   41.9415 C   0  0  0  0  0  0  0  0  0  0  0  0
   44.5989   36.0121   43.6434 H   0  0  0  0  0  0  0  0  0  0  0  0
   47.7119   33.0175   43.5832 H   0  0  0  0  0  0  0  0  0  0  0  0
   45.3909   33.4970   46.9515 H   0  0  0  0  0  0  0  0  0  0  0  0
   46.1270   35.9620   41.7837 H   0  0  0  0  0  0  0  0  0  0  0  0
   48.6378   34.4647   42.5032 H   0  0  0  0  0  0  0  0  0  0  0  0
   48.2881   36.2100   42.4017 H   0  0  0  0  0  0  0  0  0  0  0  0
   48.3872   35.2931   40.8812 H   0  0  0  0  0  0  0  0  0  0  0  0
   46.2205   33.9693   40.9599 C   0  0  0  0  0  0  0  0  0  0  0  0
   45.2505   34.3279   40.0118 C   0  0  0  0  0  0  0  0  0  0  0  0
   44.7718   35.3103   40.0859 H   0  0  0  0  0  0  0  0  0  0  0  0
   44.8321   33.5422   38.9694 C   0  0  0  0  0  0  0  0  0  0  0  0
   45.4041   32.2954   38.8315 C   0  0  0  0  0  0  0  0  0  0  0  0
   46.3625   31.8827   39.7298 C   0  0  0  0  0  0  0  0  0  0  0  0
   46.9367   30.6494   39.6155 C   0  0  0  0  0  0  0  0  0  0  0  0
   47.8905   30.2474   40.5276 C   0  0  0  0  0  0  0  0  0  0  0  0
   48.2824   31.0696   41.5632 C   0  0  0  0  0  0  0  0  0  0  0  0
   47.6906   32.3106   41.6606 C   0  0  0  0  0  0  0  0  0  0  0  0
   46.7464   32.7115   40.7590 C   0  0  0  0  0  0  0  0  0  0  0  0
   44.0773   33.8924   38.2796 H   0  0  0  0  0  0  0  0  0  0  0  0
   45.1010   31.6409   38.0183 H   0  0  0  0  0  0  0  0  0  0  0  0
   46.6155   30.0265   38.8013 H   0  0  0  0  0  0  0  0  0  0  0  0
   48.2975   29.2756   40.3822 H   0  0  0  0  0  0  0  0  0  0  0  0
   49.0295   30.6818   42.2300 H   0  0  0  0  0  0  0  0  0  0  0  0
   47.9942   32.9304   42.4619 H   0  0  0  0  0  0  0  0  0  0  0  0
  1  6  2  0
  2  1  1  0
  2  3  2  0
  3  4  1  0
  4  5  2  0
  6  5  1  0
  7  2  1  0
  8  7  1  0
  1  9  1  0
  3 10  1  0
  5 11  1  0
  7 12  1  6
  8 13  1  0
  8 14  1  0
  8 15  1  0
 16 17  2  0
 17 18  1  0
 17 19  1  0
 19 20  2  0
 20 21  1  0
 21 22  2  0
 22 23  1  0
 23 24  2  0
 24 25  1  0
 25 26  2  0
 26 16  1  0
 26 21  1  0
 19 27  1  0
 20 28  1  0
 22 29  1  0
 23 30  1  0
 24 31  1  0
 25 32  1  0
  7 16  1  0
M  ISO  8   9  14  10  14  11  14  12   8  13   8  14   8  15   8  18  15
M  END
>  <DihAtoms>  (1) 
1,6,15,16

>  <DihDeg>  (1) 
-95.70095803197756

$$$$
