
     RDKit          3D

 43 45  0  0  0  0  0  0  0  0999 V2000
   42.5418   35.2812   40.8769 O   0  0  0  0  0  0  0  0  0  0  0  0
   41.2765   35.7320   41.1640 C   0  0  0  0  0  0  0  0  0  0  0  0
   40.2810   33.5767   41.6124 C   0  0  0  0  0  0  0  0  0  0  0  0
   40.2099   34.7489   40.8379 C   0  0  0  0  0  0  0  0  0  0  0  0
   39.2100   34.8628   39.9218 C   0  0  0  0  0  0  0  0  0  0  0  0
   38.3520   33.8269   39.8275 N   0  0  0  0  0  0  0  0  0  0  0  0
   38.4085   32.7171   40.5523 C   0  0  0  0  0  0  0  0  0  0  0  0
   39.4035   32.5441   41.4996 N   0  0  0  0  0  0  0  0  0  0  0  0
   43.7397   35.6609   41.4662 C   0  0  0  0  0  0  0  0  0  0  0  0
   43.9449   35.2781   42.7319 C   0  0  0  0  0  0  0  0  0  0  0  0
   45.1826   35.5819   43.5493 C   0  0  0  0  0  0  0  0  0  0  0  0
   45.0491   34.9365   44.7505 O   0  0  0  0  0  0  0  0  0  0  0  0
   45.5390   32.3436   44.4233 O   0  0  0  0  0  0  0  0  0  0  0  0
   46.1465   33.6255   44.8986 P   0  0  1  0  0  0  0  0  0  0  0  0
   47.5172   33.9746   43.9322 O   0  0  0  0  0  0  0  0  0  0  0  0
   46.6658   33.5444   46.4697 O   0  0  0  0  0  0  0  0  0  0  0  0
   41.2212   35.7967   42.2998 H   0  0  0  0  0  0  0  0  0  0  0  0
   41.0105   36.7362   40.8013 H   0  0  0  0  0  0  0  0  0  0  0  0
   41.0291   33.3708   42.3705 H   0  0  0  0  0  0  0  0  0  0  0  0
   39.2111   35.7692   39.3697 H   0  0  0  0  0  0  0  0  0  0  0  0
   37.6830   31.9235   40.4227 H   0  0  0  0  0  0  0  0  0  0  0  0
   44.5262   36.2309   41.0190 H   0  0  0  0  0  0  0  0  0  0  0  0
   43.1120   34.6941   43.1563 H   0  0  0  0  0  0  0  0  0  0  0  0
   46.0133   35.1281   42.9986 H   0  0  0  0  0  0  0  0  0  0  0  0
   45.2772   36.6738   43.6832 H   0  0  0  0  0  0  0  0  0  0  0  0
   47.8332   34.8778   44.2238 H   0  0  0  0  0  0  0  0  0  0  0  0
   47.4859   32.8622   47.2113 C   0  0  0  0  0  0  0  0  0  0  0  0
   47.1071   33.1659   48.5421 C   0  0  0  0  0  0  0  0  0  0  0  0
   46.3167   33.8158   48.9491 H   0  0  0  0  0  0  0  0  0  0  0  0
   47.7393   32.6361   49.6675 C   0  0  0  0  0  0  0  0  0  0  0  0
   48.8005   31.7614   49.4415 C   0  0  0  0  0  0  0  0  0  0  0  0
   49.2273   31.4176   48.1797 C   0  0  0  0  0  0  0  0  0  0  0  0
   50.2639   30.5637   47.8759 C   0  0  0  0  0  0  0  0  0  0  0  0
   50.6323   30.2685   46.5772 C   0  0  0  0  0  0  0  0  0  0  0  0
   49.9098   30.8721   45.5402 C   0  0  0  0  0  0  0  0  0  0  0  0
   48.8808   31.7197   45.8633 C   0  0  0  0  0  0  0  0  0  0  0  0
   48.5388   31.9931   47.1608 C   0  0  0  0  0  0  0  0  0  0  0  0
   47.5632   32.7745   50.7052 H   0  0  0  0  0  0  0  0  0  0  0  0
   49.3679   31.2875   50.2411 H   0  0  0  0  0  0  0  0  0  0  0  0
   50.7820   30.1301   48.7304 H   0  0  0  0  0  0  0  0  0  0  0  0
   51.4612   29.5848   46.4639 H   0  0  0  0  0  0  0  0  0  0  0  0
   50.2242   30.6195   44.5267 H   0  0  0  0  0  0  0  0  0  0  0  0
   48.4019   32.1210   45.0079 H   0  0  0  0  0  0  0  0  0  0  0  0
  1  2  1  0
  1  9  1  0
  4  2  1  0
  4  3  2  0
  5  4  1  0
  6  5  2  0
  6  7  1  0
  7  8  2  0
  8  3  1  0
  9 10  2  0
 10 11  1  0
 11 12  1  0
 14 12  1  1
 13 14  2  0
 14 16  1  0
 15 14  1  0
  2 17  1  0
  2 18  1  0
  3 19  1  0
  5 20  1  0
  7 21  1  0
  9 22  1  0
 10 23  1  0
 11 24  1  0
 11 25  1  0
 15 26  1  0
 27 28  2  0
 28 29  1  0
 28 30  1  0
 30 31  2  0
 31 32  1  0
 32 33  2  0
 33 34  1  0
 34 35  2  0
 35 36  1  0
 36 37  2  0
 37 27  1  0
 37 32  1  0
 30 38  1  0
 31 39  1  0
 33 40  1  0
 34 41  1  0
 35 42  1  0
 36 43  1  0
 16 27  1  0
M  ISO  8  17   8  18   8  19  14  20  14  21  14  24   8  25   8  26   3
M  ISO  1  29  15
M  END
>  <DihAtoms>  (1) 
13,15,26,27

>  <DihDeg>  (1) 
-179.99011713610423

$$$$
