
 OpenBabel03242519413D

 31 33  0  0  0  0  0  0  0  0999 V2000
   48.0690   32.8280   41.6260 O   0  0  0  0  0  0  0  0  0  0  0  0
   47.1270   33.9970   41.2340 P   0  0  2  0  0  0  0  0  0  0  0  0
   45.5760   33.6990   41.9070 O   0  0  0  0  0  0  0  0  0  0  0  0
   44.4080   35.8410   44.6120 C   0  0  0  0  0  0  0  0  0  0  0  0
   44.6720   35.3630   43.3060 C   0  0  0  0  0  0  0  0  0  0  0  0
   45.3330   34.1320   43.1930 C   0  0  0  0  0  0  0  0  0  0  0  0
   45.6760   33.4760   44.3180 N   0  0  0  0  0  0  0  0  0  0  0  0
   45.4100   33.9570   45.5520 C   0  0  0  0  0  0  0  0  0  0  0  0
   44.7800   35.1330   45.7090 N   0  0  0  0  0  0  0  0  0  0  0  0
   43.8990   36.7900   44.7080 H   0  0  0  0  0  0  0  0  0  0  0  0
   44.3560   35.9630   42.4760 H   0  0  0  0  0  0  0  0  0  0  0  0
   45.7210   33.3650   46.4200 H   0  0  0  0  0  0  0  0  0  0  0  0
   46.9900   34.0510   39.5820 O   0  0  0  0  0  0  0  0  0  0  0  0
   46.7330   33.0570   38.6910 C   0  0  0  0  0  0  0  0  0  0  0  0
   45.6730   33.2220   37.8620 O   0  0  0  0  0  0  0  0  0  0  0  0
   47.1670   31.7370   38.1770 C   0  0  0  0  0  0  0  0  0  0  0  0
   46.2280   30.6960   37.9990 C   0  0  0  0  0  0  0  0  0  0  0  0
   45.1700   31.0210   38.1370 H   0  0  0  0  0  0  0  0  0  0  0  0
   46.3810   29.3700   37.6910 C   0  0  0  0  0  3  0  0  0  0  0  0
   47.7090   29.0580   37.5410 C   0  0  0  0  0  3  0  0  0  0  0  0
   48.6900   30.0060   37.6930 C   0  0  0  0  0  0  0  0  0  0  0  0
   50.0140   29.6750   37.4960 C   0  0  0  0  0  3  0  0  0  0  0  0
   51.1050   30.5140   37.5720 C   0  0  0  0  0  3  0  0  0  0  0  0
   50.7880   31.8430   37.8850 C   0  0  0  0  0  3  0  0  0  0  0  0
   49.4790   32.2020   38.0870 C   0  0  0  0  0  3  0  0  0  0  0  0
   48.4250   31.3370   38.0080 C   0  0  0  0  0  0  0  0  0  0  0  0
   47.7530   35.3680   41.9240 O   0  0  0  0  0  0  0  0  0  0  0  0
   49.0010   35.6980   41.4150 C   0  0  0  0  0  0  0  0  0  0  0  0
   49.3900   36.9810   41.7550 F   0  0  0  0  0  0  0  0  0  0  0  0
   49.9200   34.7570   41.7530 F   0  0  0  0  0  0  0  0  0  0  0  0
   48.8670   35.6880   40.0280 F   0  0  0  0  0  0  0  0  0  0  0  0
  2  1  2  1  0  0  0
  2  3  1  0  0  0  0
  2 27  1  0  0  0  0
  3  6  1  0  0  0  0
  4 10  1  0  0  0  0
  4  9  1  0  0  0  0
  5  4  2  0  0  0  0
  6  5  1  0  0  0  0
  6  7  2  0  0  0  0
  7  8  1  0  0  0  0
  8  9  2  0  0  0  0
  8 12  1  0  0  0  0
 11  5  1  0  0  0  0
 13  2  1  0  0  0  0
 14 13  1  0  0  0  0
 15 14  2  0  0  0  0
 16 14  1  0  0  0  0
 17 18  1  0  0  0  0
 17 16  2  0  0  0  0
 19 17  1  0  0  0  0
 20 19  2  0  0  0  0
 20 21  1  0  0  0  0
 21 26  1  0  0  0  0
 22 23  1  0  0  0  0
 22 21  2  0  0  0  0
 23 24  2  0  0  0  0
 24 25  1  0  0  0  0
 26 25  2  0  0  0  0
 26 16  1  0  0  0  0
 28 30  1  0  0  0  0
 28 29  1  0  0  0  0
 28 27  1  0  0  0  0
 31 28  1  0  0  0  0
M  END
>  <minimizedAffinity>
-5.1669569

>  <minimizedRMSD>
2.40087104

$$$$
