
 OpenBabel03242520543D

 33 35  0  0  0  0  0  0  0  0999 V2000
   35.5850   29.9790   40.6430 C   0  0  0  0  0  0  0  0  0  0  0  0
   34.6980   30.3800   41.2210 H   0  0  0  0  0  0  0  0  0  0  0  0
   35.2090   29.8280   39.6370 H   0  0  0  0  0  0  0  0  0  0  0  0
   36.7180   27.9160   40.5240 C   0  0  0  0  0  0  0  0  0  0  0  0
   37.0790   27.9570   39.3250 O   0  0  0  0  0  0  0  0  0  0  0  0
   35.9870   28.7910   41.3540 N   0  0  0  0  0  0  0  0  0  0  0  0
   35.8030   28.5430   42.3350 H   0  0  0  0  0  0  0  0  0  0  0  0
   37.2030   26.6430   41.1260 C   0  0  0  0  0  0  0  0  0  0  0  0
   36.6600   25.4280   40.8500 C   0  0  0  0  0  0  0  0  0  0  0  0
   35.8380   25.3560   40.1680 H   0  0  0  0  0  0  0  0  0  0  0  0
   37.1830   24.3090   41.4590 C   0  0  0  0  0  3  0  0  0  0  0  0
   38.2260   24.3290   42.3360 C   0  0  0  0  0  3  0  0  0  0  0  0
   38.7900   25.5620   42.6290 C   0  0  0  0  0  0  0  0  0  0  0  0
   39.8470   25.6030   43.5140 C   0  0  0  0  0  3  0  0  0  0  0  0
   40.4290   26.8280   43.8230 C   0  0  0  0  0  3  0  0  0  0  0  0
   39.9370   27.9550   43.2390 C   0  0  0  0  0  3  0  0  0  0  0  0
   38.8850   27.8840   42.3610 C   0  0  0  0  0  3  0  0  0  0  0  0
   38.2640   26.6970   42.0150 C   0  0  0  0  0  0  0  0  0  0  0  0
   37.1880   31.5210   39.6780 C   0  0  0  0  0  3  0  0  0  0  0  0
   36.6000   31.0390   40.7280 C   0  0  0  0  0  3  0  0  0  0  0  0
   38.7630   34.7680   40.2230 C   0  0  0  0  0  0  0  0  0  0  0  0
   40.0850   34.5330   39.8480 C   0  0  0  0  0  0  0  0  0  0  0  0
   40.4410   33.2550   39.4060 C   0  0  0  0  0  0  0  0  0  0  0  0
   39.4690   32.3200   39.3690 N   0  0  0  0  0  0  0  0  0  0  0  0
   38.2010   32.5770   39.7370 C   0  0  0  0  0  0  0  0  0  0  0  0
   37.8380   33.8040   40.1670 N   0  0  0  0  0  0  0  0  0  0  0  0
   38.6180   35.7880   40.5440 H   0  0  0  0  0  0  0  0  0  0  0  0
   40.9100   35.2230   39.8500 H   0  0  0  0  0  0  0  0  0  0  0  0
   41.6990   32.8830   39.0070 O   0  0  0  0  0  0  0  0  0  0  0  0
   42.0100   33.0260   37.6140 C   0  0  0  0  0  0  0  0  0  0  0  0
   42.0330   34.3900   37.2850 F   0  0  0  0  0  0  0  0  0  0  0  0
   43.2830   32.4850   37.4120 F   0  0  0  0  0  0  0  0  0  0  0  0
   41.0980   32.3410   36.8020 F   0  0  0  0  0  0  0  0  0  0  0  0
  1 20  1  0  0  0  0
  1  2  1  0  0  0  0
  1  6  1  0  0  0  0
  3  1  1  0  0  0  0
  4  8  1  0  0  0  0
  4  6  1  0  0  0  0
  5  4  2  0  0  0  0
  6  7  1  0  0  0  0
  8 18  1  0  0  0  0
  9  8  2  0  0  0  0
  9 11  1  0  0  0  0
 10  9  1  0  0  0  0
 11 12  2  0  0  0  0
 12 13  1  0  0  0  0
 13 14  1  0  0  0  0
 14 15  2  0  0  0  0
 16 15  1  0  0  0  0
 17 16  2  0  0  0  0
 18 17  1  0  0  0  0
 18 13  2  0  0  0  0
 19 25  1  0  0  0  0
 19 20  2  0  0  0  0
 21 27  1  0  0  0  0
 22 28  1  0  0  0  0
 22 21  2  0  0  0  0
 23 22  1  0  0  0  0
 24 23  2  0  0  0  0
 24 25  1  0  0  0  0
 25 26  2  0  0  0  0
 26 21  1  0  0  0  0
 29 23  1  0  0  0  0
 30 29  1  0  0  0  0
 31 30  1  0  0  0  0
 32 30  1  0  0  0  0
 33 30  1  0  0  0  0
M  END
>  <minimizedAffinity>
-6.54631233

$$$$

 OpenBabel03242520543D

 33 35  0  0  0  0  0  0  0  0999 V2000
   37.5670   30.5120   40.6530 C   0  0  0  0  0  0  0  0  0  0  0  0
   38.3800   31.2680   40.4320 H   0  0  0  0  0  0  0  0  0  0  0  0
   37.0230   30.9330   41.4920 H   0  0  0  0  0  0  0  0  0  0  0  0
   37.9050   28.7260   42.1540 C   0  0  0  0  0  0  0  0  0  0  0  0
   37.1210   29.0820   43.0650 O   0  0  0  0  0  0  0  0  0  0  0  0
   38.2660   29.2770   40.9070 N   0  0  0  0  0  0  0  0  0  0  0  0
   38.9520   28.7980   40.3080 H   0  0  0  0  0  0  0  0  0  0  0  0
   38.5480   27.4440   42.5520 C   0  0  0  0  0  0  0  0  0  0  0  0
   39.5420   27.3570   43.4740 C   0  0  0  0  0  0  0  0  0  0  0  0
   39.9010   28.2450   43.9540 H   0  0  0  0  0  0  0  0  0  0  0  0
   40.0710   26.1210   43.7730 C   0  0  0  0  0  3  0  0  0  0  0  0
   39.6630   24.9530   43.2010 C   0  0  0  0  0  3  0  0  0  0  0  0
   38.6510   25.0250   42.2560 C   0  0  0  0  0  0  0  0  0  0  0  0
   38.2230   23.8540   41.6660 C   0  0  0  0  0  3  0  0  0  0  0  0
   37.2080   23.9000   40.7160 C   0  0  0  0  0  3  0  0  0  0  0  0
   36.6630   25.1060   40.3970 C   0  0  0  0  0  3  0  0  0  0  0  0
   37.1070   26.2560   41.0010 C   0  0  0  0  0  3  0  0  0  0  0  0
   38.1120   26.2740   41.9510 C   0  0  0  0  0  0  0  0  0  0  0  0
   36.7240   29.3840   38.6800 C   0  0  0  0  0  3  0  0  0  0  0  0
   36.7690   30.4460   39.4210 C   0  0  0  0  0  3  0  0  0  0  0  0
   33.9370   28.7870   36.4000 C   0  0  0  0  0  0  0  0  0  0  0  0
   34.4760   29.1310   35.1620 C   0  0  0  0  0  0  0  0  0  0  0  0
   35.8020   29.5710   35.1050 C   0  0  0  0  0  0  0  0  0  0  0  0
   36.4830   29.6340   36.2680 N   0  0  0  0  0  0  0  0  0  0  0  0
   35.9360   29.2940   37.4490 C   0  0  0  0  0  0  0  0  0  0  0  0
   34.6580   28.8670   37.5240 N   0  0  0  0  0  0  0  0  0  0  0  0
   32.9110   28.4650   36.3100 H   0  0  0  0  0  0  0  0  0  0  0  0
   33.9980   29.1070   34.1980 H   0  0  0  0  0  0  0  0  0  0  0  0
   36.4600   29.9410   33.9610 O   0  0  0  0  0  0  0  0  0  0  0  0
   36.4050   31.3280   33.5970 C   0  0  0  0  0  0  0  0  0  0  0  0
   36.9870   32.0950   34.6180 F   0  0  0  0  0  0  0  0  0  0  0  0
   37.1530   31.4830   32.4260 F   0  0  0  0  0  0  0  0  0  0  0  0
   35.0950   31.7520   33.3500 F   0  0  0  0  0  0  0  0  0  0  0  0
  1  6  1  0  0  0  0
  1  3  1  0  0  0  0
  2  1  1  0  0  0  0
  4  8  1  0  0  0  0
  4  5  2  0  0  0  0
  6  4  1  0  0  0  0
  7  6  1  0  0  0  0
  8  9  1  0  0  0  0
  9 11  2  0  0  0  0
  9 10  1  0  0  0  0
 12 11  1  0  0  0  0
 13 12  2  0  0  0  0
 14 13  1  0  0  0  0
 15 14  2  0  0  0  0
 16 15  1  0  0  0  0
 16 17  2  0  0  0  0
 17 18  1  0  0  0  0
 18 13  1  0  0  0  0
 18  8  2  0  0  0  0
 19 20  2  0  0  0  0
 20  1  1  0  0  0  0
 21 26  1  0  0  0  0
 22 21  2  0  0  0  0
 23 22  1  0  0  0  0
 23 24  2  0  0  0  0
 24 25  1  0  0  0  0
 25 26  2  0  0  0  0
 25 19  1  0  0  0  0
 27 21  1  0  0  0  0
 28 22  1  0  0  0  0
 29 23  1  0  0  0  0
 30 29  1  0  0  0  0
 30 31  1  0  0  0  0
 32 30  1  0  0  0  0
 33 30  1  0  0  0  0
M  END
>  <minimizedAffinity>
-6.37536907

$$$$

 OpenBabel03242520543D

 33 35  0  0  0  0  0  0  0  0999 V2000
   37.0130   30.0450   37.3270 C   0  0  0  0  0  0  0  0  0  0  0  0
   35.9000   30.1600   37.4970 H   0  0  0  0  0  0  0  0  0  0  0  0
   37.1090   29.8570   36.2630 H   0  0  0  0  0  0  0  0  0  0  0  0
   36.3050   28.3830   38.8420 C   0  0  0  0  0  0  0  0  0  0  0  0
   35.0710   28.6010   38.8120 O   0  0  0  0  0  0  0  0  0  0  0  0
   37.4150   28.9690   38.1990 N   0  0  0  0  0  0  0  0  0  0  0  0
   38.3650   28.6180   38.3810 H   0  0  0  0  0  0  0  0  0  0  0  0
   36.5690   27.2540   39.7750 C   0  0  0  0  0  0  0  0  0  0  0  0
   36.4810   25.9470   39.4150 C   0  0  0  0  0  0  0  0  0  0  0  0
   36.2060   25.6880   38.4130 H   0  0  0  0  0  0  0  0  0  0  0  0
   36.7470   24.9760   40.3550 C   0  0  0  0  0  3  0  0  0  0  0  0
   37.0990   25.2330   41.6470 C   0  0  0  0  0  3  0  0  0  0  0  0
   37.1910   26.5620   42.0300 C   0  0  0  0  0  0  0  0  0  0  0  0
   37.5470   26.8440   43.3320 C   0  0  0  0  0  3  0  0  0  0  0  0
   37.6470   28.1700   43.7400 C   0  0  0  0  0  3  0  0  0  0  0  0
   37.3910   29.1550   42.8360 C   0  0  0  0  0  3  0  0  0  0  0  0
   37.0400   28.8470   41.5460 C   0  0  0  0  0  3  0  0  0  0  0  0
   36.9230   27.5480   41.0820 C   0  0  0  0  0  0  0  0  0  0  0  0
   38.2430   31.4730   38.8530 C   0  0  0  0  0  3  0  0  0  0  0  0
   37.5920   31.3310   37.7410 C   0  0  0  0  0  3  0  0  0  0  0  0
   38.5610   34.8280   40.2530 C   0  0  0  0  0  0  0  0  0  0  0  0
   39.9190   35.0990   40.0930 C   0  0  0  0  0  0  0  0  0  0  0  0
   40.7320   34.1270   39.5020 C   0  0  0  0  0  0  0  0  0  0  0  0
   40.1420   32.9760   39.1190 N   0  0  0  0  0  0  0  0  0  0  0  0
   38.8280   32.7430   39.2870 C   0  0  0  0  0  0  0  0  0  0  0  0
   38.0270   33.6680   39.8560 N   0  0  0  0  0  0  0  0  0  0  0  0
   38.0450   35.6530   40.7210 H   0  0  0  0  0  0  0  0  0  0  0  0
   40.4570   35.9870   40.3710 H   0  0  0  0  0  0  0  0  0  0  0  0
   42.0790   34.2570   39.2810 O   0  0  0  0  0  0  0  0  0  0  0  0
   42.9570   33.6110   40.2130 C   0  0  0  0  0  0  0  0  0  0  0  0
   42.2950   33.4600   41.4410 F   0  0  0  0  0  0  0  0  0  0  0  0
   43.2570   32.3460   39.6980 F   0  0  0  0  0  0  0  0  0  0  0  0
   44.1510   34.3200   40.3830 F   0  0  0  0  0  0  0  0  0  0  0  0
  1  2  1  0  0  0  0
  1 20  1  0  0  0  0
  1  6  1  0  0  0  0
  3  1  1  0  0  0  0
  4  8  1  0  0  0  0
  5  4  2  0  0  0  0
  6  7  1  0  0  0  0
  6  4  1  0  0  0  0
  8 18  1  0  0  0  0
  9  8  2  0  0  0  0
  9 11  1  0  0  0  0
 10  9  1  0  0  0  0
 11 12  2  0  0  0  0
 12 13  1  0  0  0  0
 13 14  1  0  0  0  0
 14 15  2  0  0  0  0
 16 15  1  0  0  0  0
 17 16  2  0  0  0  0
 18 17  1  0  0  0  0
 18 13  2  0  0  0  0
 19 25  1  0  0  0  0
 20 19  2  0  0  0  0
 21 27  1  0  0  0  0
 22 21  1  0  0  0  0
 22 28  1  0  0  0  0
 23 22  2  0  0  0  0
 24 25  2  0  0  0  0
 24 23  1  0  0  0  0
 25 26  1  0  0  0  0
 26 21  2  0  0  0  0
 29 23  1  0  0  0  0
 29 30  1  0  0  0  0
 30 33  1  0  0  0  0
 30 31  1  0  0  0  0
 32 30  1  0  0  0  0
M  END
>  <minimizedAffinity>
-6.1666832

$$$$

 OpenBabel03242520543D

 33 35  0  0  0  0  0  0  0  0999 V2000
   34.9520   28.0880   36.6260 C   0  0  0  0  0  0  0  0  0  0  0  0
   35.7120   28.0340   35.7900 H   0  0  0  0  0  0  0  0  0  0  0  0
   34.4120   27.1490   36.5660 H   0  0  0  0  0  0  0  0  0  0  0  0
   32.8970   28.9640   35.8720 C   0  0  0  0  0  0  0  0  0  0  0  0
   32.2990   27.8900   35.6320 O   0  0  0  0  0  0  0  0  0  0  0  0
   34.1840   29.2790   36.3570 N   0  0  0  0  0  0  0  0  0  0  0  0
   34.4680   30.2600   36.4750 H   0  0  0  0  0  0  0  0  0  0  0  0
   31.9880   30.0990   35.5500 C   0  0  0  0  0  0  0  0  0  0  0  0
   32.0170   30.7720   34.3700 C   0  0  0  0  0  0  0  0  0  0  0  0
   32.7240   30.4930   33.6160 H   0  0  0  0  0  0  0  0  0  0  0  0
   31.1310   31.8070   34.1700 C   0  0  0  0  0  3  0  0  0  0  0  0
   30.2080   32.2160   35.0860 C   0  0  0  0  0  3  0  0  0  0  0  0
   30.1670   31.5400   36.2960 C   0  0  0  0  0  0  0  0  0  0  0  0
   29.2390   31.9370   37.2360 C   0  0  0  0  0  3  0  0  0  0  0  0
   29.1790   31.2730   38.4560 C   0  0  0  0  0  3  0  0  0  0  0  0
   30.0400   30.2450   38.6880 C   0  0  0  0  0  3  0  0  0  0  0  0
   30.9520   29.8690   37.7340 C   0  0  0  0  0  3  0  0  0  0  0  0
   31.0620   30.4910   36.5020 C   0  0  0  0  0  0  0  0  0  0  0  0
   35.2370   28.6160   38.9760 C   0  0  0  0  0  3  0  0  0  0  0  0
   35.7500   28.2180   37.8540 C   0  0  0  0  0  3  0  0  0  0  0  0
   37.0880   30.1120   41.7420 C   0  0  0  0  0  0  0  0  0  0  0  0
   37.4480   29.0030   42.5050 C   0  0  0  0  0  0  0  0  0  0  0  0
   37.0550   27.7330   42.0700 C   0  0  0  0  0  0  0  0  0  0  0  0
   36.3450   27.6630   40.9260 N   0  0  0  0  0  0  0  0  0  0  0  0
   36.0120   28.7520   40.2110 C   0  0  0  0  0  0  0  0  0  0  0  0
   36.3820   29.9870   40.6140 N   0  0  0  0  0  0  0  0  0  0  0  0
   37.4480   31.0300   42.1830 H   0  0  0  0  0  0  0  0  0  0  0  0
   38.0100   28.9800   43.4220 H   0  0  0  0  0  0  0  0  0  0  0  0
   37.3380   26.5580   42.7180 O   0  0  0  0  0  0  0  0  0  0  0  0
   38.7180   26.1720   42.7930 C   0  0  0  0  0  0  0  0  0  0  0  0
   38.8030   24.7720   42.8230 F   0  0  0  0  0  0  0  0  0  0  0  0
   39.3490   26.6440   41.6380 F   0  0  0  0  0  0  0  0  0  0  0  0
   39.3550   26.7260   43.9090 F   0  0  0  0  0  0  0  0  0  0  0  0
  1 20  1  0  0  0  0
  2  1  1  0  0  0  0
  3  1  1  0  0  0  0
  4  6  1  0  0  0  0
  5  4  2  0  0  0  0
  6  7  1  0  0  0  0
  6  1  1  0  0  0  0
  8  4  1  0  0  0  0
  8 18  1  0  0  0  0
  9  8  2  0  0  0  0
 10  9  1  0  0  0  0
 11  9  1  0  0  0  0
 11 12  2  0  0  0  0
 12 13  1  0  0  0  0
 13 18  2  0  0  0  0
 13 14  1  0  0  0  0
 14 15  2  0  0  0  0
 15 16  1  0  0  0  0
 17 16  2  0  0  0  0
 18 17  1  0  0  0  0
 19 25  1  0  0  0  0
 20 19  2  0  0  0  0
 21 27  1  0  0  0  0
 21 22  1  0  0  0  0
 22 28  1  0  0  0  0
 23 22  2  0  0  0  0
 23 29  1  0  0  0  0
 24 23  1  0  0  0  0
 25 26  1  0  0  0  0
 25 24  2  0  0  0  0
 26 21  2  0  0  0  0
 29 30  1  0  0  0  0
 30 31  1  0  0  0  0
 30 33  1  0  0  0  0
 32 30  1  0  0  0  0
M  END
>  <minimizedAffinity>
-6.04017353

$$$$

 OpenBabel03242520543D

 33 35  0  0  0  0  0  0  0  0999 V2000
   35.0150   28.1010   36.7620 C   0  0  0  0  0  0  0  0  0  0  0  0
   34.8610   27.1380   36.1880 H   0  0  0  0  0  0  0  0  0  0  0  0
   35.9270   28.5210   36.3510 H   0  0  0  0  0  0  0  0  0  0  0  0
   36.3440   27.9360   38.7020 C   0  0  0  0  0  0  0  0  0  0  0  0
   37.4150   28.4000   38.2480 O   0  0  0  0  0  0  0  0  0  0  0  0
   35.0680   27.7060   38.1470 N   0  0  0  0  0  0  0  0  0  0  0  0
   34.3170   27.3020   38.7230 H   0  0  0  0  0  0  0  0  0  0  0  0
   36.5470   27.5750   40.1320 C   0  0  0  0  0  0  0  0  0  0  0  0
   36.4580   28.4690   41.1510 C   0  0  0  0  0  0  0  0  0  0  0  0
   36.2340   29.4950   40.9400 H   0  0  0  0  0  0  0  0  0  0  0  0
   36.6620   28.0340   42.4410 C   0  0  0  0  0  3  0  0  0  0  0  0
   36.9530   26.7460   42.7810 C   0  0  0  0  0  3  0  0  0  0  0  0
   37.0480   25.8210   41.7510 C   0  0  0  0  0  0  0  0  0  0  0  0
   37.3400   24.5130   42.0730 C   0  0  0  0  0  3  0  0  0  0  0  0
   37.4400   23.5670   41.0580 C   0  0  0  0  0  3  0  0  0  0  0  0
   37.2440   23.9640   39.7700 C   0  0  0  0  0  3  0  0  0  0  0  0
   36.9540   25.2720   39.4790 C   0  0  0  0  0  3  0  0  0  0  0  0
   36.8420   26.2580   40.4440 C   0  0  0  0  0  0  0  0  0  0  0  0
   32.8160   28.9820   37.2810 C   0  0  0  0  0  3  0  0  0  0  0  0
   33.8230   28.9090   36.4670 C   0  0  0  0  0  3  0  0  0  0  0  0
   29.7890   30.9510   37.8060 C   0  0  0  0  0  0  0  0  0  0  0  0
   29.3990   31.2640   36.5050 C   0  0  0  0  0  0  0  0  0  0  0  0
   30.1760   30.7980   35.4400 C   0  0  0  0  0  0  0  0  0  0  0  0
   31.2670   30.0660   35.7440 N   0  0  0  0  0  0  0  0  0  0  0  0
   31.6190   29.7800   37.0100 C   0  0  0  0  0  0  0  0  0  0  0  0
   30.8820   30.2200   38.0520 N   0  0  0  0  0  0  0  0  0  0  0  0
   29.1100   31.3680   38.5340 H   0  0  0  0  0  0  0  0  0  0  0  0
   28.5470   31.8380   36.1860 H   0  0  0  0  0  0  0  0  0  0  0  0
   29.9120   31.0280   34.1140 O   0  0  0  0  0  0  0  0  0  0  0  0
   30.0350   32.3800   33.6500 C   0  0  0  0  0  0  0  0  0  0  0  0
   31.2340   32.9260   34.1340 F   0  0  0  0  0  0  0  0  0  0  0  0
   30.0820   32.3400   32.2530 F   0  0  0  0  0  0  0  0  0  0  0  0
   28.9460   33.1670   34.0390 F   0  0  0  0  0  0  0  0  0  0  0  0
  1  6  1  0  0  0  0
  2  1  1  0  0  0  0
  3  1  1  0  0  0  0
  4  8  1  0  0  0  0
  5  4  2  0  0  0  0
  6  4  1  0  0  0  0
  6  7  1  0  0  0  0
  8 18  2  0  0  0  0
  8  9  1  0  0  0  0
  9 11  2  0  0  0  0
 10  9  1  0  0  0  0
 11 12  1  0  0  0  0
 13 14  1  0  0  0  0
 13 12  2  0  0  0  0
 15 14  2  0  0  0  0
 16 15  1  0  0  0  0
 17 16  2  0  0  0  0
 17 18  1  0  0  0  0
 18 13  1  0  0  0  0
 20  1  1  0  0  0  0
 20 19  2  0  0  0  0
 21 26  1  0  0  0  0
 21 27  1  0  0  0  0
 22 21  2  0  0  0  0
 23 24  2  0  0  0  0
 23 22  1  0  0  0  0
 24 25  1  0  0  0  0
 25 19  1  0  0  0  0
 25 26  2  0  0  0  0
 28 22  1  0  0  0  0
 29 23  1  0  0  0  0
 30 33  1  0  0  0  0
 30 29  1  0  0  0  0
 30 31  1  0  0  0  0
 32 30  1  0  0  0  0
M  END
>  <minimizedAffinity>
-6.00725889

$$$$

 OpenBabel03242520543D

 33 35  0  0  0  0  0  0  0  0999 V2000
   35.5800   29.8770   40.6860 C   0  0  0  0  0  0  0  0  0  0  0  0
   35.5570   29.7750   39.5590 H   0  0  0  0  0  0  0  0  0  0  0  0
   34.5350   29.9000   40.9790 H   0  0  0  0  0  0  0  0  0  0  0  0
   37.0230   31.5070   39.7840 C   0  0  0  0  0  0  0  0  0  0  0  0
   37.1130   31.0670   38.6140 O   0  0  0  0  0  0  0  0  0  0  0  0
   36.3350   31.0790   40.9380 N   0  0  0  0  0  0  0  0  0  0  0  0
   36.4110   31.6110   41.8150 H   0  0  0  0  0  0  0  0  0  0  0  0
   37.8470   32.7430   39.8940 C   0  0  0  0  0  0  0  0  0  0  0  0
   37.3620   33.9910   39.6690 C   0  0  0  0  0  0  0  0  0  0  0  0
   36.3350   34.1210   39.3930 H   0  0  0  0  0  0  0  0  0  0  0  0
   38.2070   35.0700   39.7990 C   0  0  0  0  0  3  0  0  0  0  0  0
   39.5230   34.9780   40.1440 C   0  0  0  0  0  3  0  0  0  0  0  0
   40.0340   33.7100   40.3760 C   0  0  0  0  0  0  0  0  0  0  0  0
   41.3630   33.5950   40.7280 C   0  0  0  0  0  3  0  0  0  0  0  0
   41.8970   32.3340   40.9670 C   0  0  0  0  0  3  0  0  0  0  0  0
   41.0890   31.2450   40.8470 C   0  0  0  0  0  3  0  0  0  0  0  0
   39.7700   31.3880   40.4970 C   0  0  0  0  0  3  0  0  0  0  0  0
   39.1810   32.6150   40.2460 C   0  0  0  0  0  0  0  0  0  0  0  0
   37.3510   28.7450   41.8940 C   0  0  0  0  0  3  0  0  0  0  0  0
   36.2860   28.6770   41.1580 C   0  0  0  0  0  3  0  0  0  0  0  0
   39.8410   26.6640   43.5640 C   0  0  0  0  0  0  0  0  0  0  0  0
   39.4060   25.3730   43.2720 C   0  0  0  0  0  0  0  0  0  0  0  0
   38.2520   25.2120   42.4990 C   0  0  0  0  0  0  0  0  0  0  0  0
   37.6280   26.3310   42.0790 N   0  0  0  0  0  0  0  0  0  0  0  0
   38.0720   27.5650   42.3770 C   0  0  0  0  0  0  0  0  0  0  0  0
   39.1830   27.7410   43.1220 N   0  0  0  0  0  0  0  0  0  0  0  0
   40.7370   26.6540   44.1670 H   0  0  0  0  0  0  0  0  0  0  0  0
   39.8480   24.4390   43.5690 H   0  0  0  0  0  0  0  0  0  0  0  0
   37.7120   24.0050   42.1350 O   0  0  0  0  0  0  0  0  0  0  0  0
   37.8550   23.6140   40.7620 C   0  0  0  0  0  0  0  0  0  0  0  0
   37.8870   22.2140   40.6830 F   0  0  0  0  0  0  0  0  0  0  0  0
   36.7320   24.0850   40.0740 F   0  0  0  0  0  0  0  0  0  0  0  0
   39.0010   24.1650   40.1790 F   0  0  0  0  0  0  0  0  0  0  0  0
  1  6  1  0  0  0  0
  1  3  1  0  0  0  0
  1 20  1  0  0  0  0
  2  1  1  0  0  0  0
  4  8  1  0  0  0  0
  4  6  1  0  0  0  0
  5  4  2  0  0  0  0
  6  7  1  0  0  0  0
  8 18  1  0  0  0  0
  9 11  1  0  0  0  0
  9  8  2  0  0  0  0
 10  9  1  0  0  0  0
 11 12  2  0  0  0  0
 12 13  1  0  0  0  0
 13 14  1  0  0  0  0
 14 15  2  0  0  0  0
 16 15  1  0  0  0  0
 17 16  2  0  0  0  0
 18 13  2  0  0  0  0
 18 17  1  0  0  0  0
 19 25  1  0  0  0  0
 20 19  2  0  0  0  0
 21 27  1  0  0  0  0
 22 21  1  0  0  0  0
 22 28  1  0  0  0  0
 23 22  2  0  0  0  0
 24 25  2  0  0  0  0
 24 23  1  0  0  0  0
 25 26  1  0  0  0  0
 26 21  2  0  0  0  0
 29 23  1  0  0  0  0
 30 29  1  0  0  0  0
 31 30  1  0  0  0  0
 32 30  1  0  0  0  0
 33 30  1  0  0  0  0
M  END
>  <minimizedAffinity>
-5.99199724

$$$$

 OpenBabel03242520543D

 33 35  0  0  0  0  0  0  0  0999 V2000
   34.9340   27.5110   36.6110 C   0  0  0  0  0  0  0  0  0  0  0  0
   34.9330   26.6660   35.8590 H   0  0  0  0  0  0  0  0  0  0  0  0
   35.7900   28.1190   36.3370 H   0  0  0  0  0  0  0  0  0  0  0  0
   36.3380   26.6340   38.2900 C   0  0  0  0  0  0  0  0  0  0  0  0
   37.4490   26.8680   37.7610 O   0  0  0  0  0  0  0  0  0  0  0  0
   35.0020   26.8650   37.8980 N   0  0  0  0  0  0  0  0  0  0  0  0
   34.2260   26.5780   38.5090 H   0  0  0  0  0  0  0  0  0  0  0  0
   36.5640   25.9720   39.6040 C   0  0  0  0  0  0  0  0  0  0  0  0
   36.5760   24.6240   39.7730 C   0  0  0  0  0  0  0  0  0  0  0  0
   36.4140   23.9810   38.9320 H   0  0  0  0  0  0  0  0  0  0  0  0
   36.7950   24.1100   41.0320 C   0  0  0  0  0  3  0  0  0  0  0  0
   37.0060   24.8680   42.1450 C   0  0  0  0  0  3  0  0  0  0  0  0
   36.9960   26.2460   41.9890 C   0  0  0  0  0  0  0  0  0  0  0  0
   37.2080   27.0320   43.1030 C   0  0  0  0  0  3  0  0  0  0  0  0
   37.2020   28.4160   42.9710 C   0  0  0  0  0  3  0  0  0  0  0  0
   36.9880   28.9580   41.7410 C   0  0  0  0  0  3  0  0  0  0  0  0
   36.7810   28.1530   40.6490 C   0  0  0  0  0  3  0  0  0  0  0  0
   36.7740   26.7700   40.7170 C   0  0  0  0  0  0  0  0  0  0  0  0
   33.1320   28.9760   37.3060 C   0  0  0  0  0  3  0  0  0  0  0  0
   33.6500   28.1960   36.4090 C   0  0  0  0  0  3  0  0  0  0  0  0
   29.9300   30.5600   38.0540 C   0  0  0  0  0  0  0  0  0  0  0  0
   29.4850   30.9590   36.7940 C   0  0  0  0  0  0  0  0  0  0  0  0
   30.2850   30.6850   35.6810 C   0  0  0  0  0  0  0  0  0  0  0  0
   31.4510   30.0430   35.9000 N   0  0  0  0  0  0  0  0  0  0  0  0
   31.8550   29.6700   37.1280 C   0  0  0  0  0  0  0  0  0  0  0  0
   31.0960   29.9250   38.2150 N   0  0  0  0  0  0  0  0  0  0  0  0
   29.2260   30.8290   38.8260 H   0  0  0  0  0  0  0  0  0  0  0  0
   28.5730   31.4710   36.5430 H   0  0  0  0  0  0  0  0  0  0  0  0
   29.9740   31.0180   34.3880 O   0  0  0  0  0  0  0  0  0  0  0  0
   30.1270   32.3940   34.0150 C   0  0  0  0  0  0  0  0  0  0  0  0
   30.2440   32.4830   32.6190 F   0  0  0  0  0  0  0  0  0  0  0  0
   28.9700   33.0680   34.4200 F   0  0  0  0  0  0  0  0  0  0  0  0
   31.2310   32.9850   34.6380 F   0  0  0  0  0  0  0  0  0  0  0  0
  1  6  1  0  0  0  0
  2  1  1  0  0  0  0
  3  1  1  0  0  0  0
  4  8  1  0  0  0  0
  5  4  2  0  0  0  0
  6  4  1  0  0  0  0
  6  7  1  0  0  0  0
  8  9  2  0  0  0  0
  8 18  1  0  0  0  0
  9 11  1  0  0  0  0
 10  9  1  0  0  0  0
 11 12  2  0  0  0  0
 13 12  1  0  0  0  0
 13 14  1  0  0  0  0
 15 14  2  0  0  0  0
 16 15  1  0  0  0  0
 17 18  1  0  0  0  0
 17 16  2  0  0  0  0
 18 13  2  0  0  0  0
 20  1  1  0  0  0  0
 20 19  2  0  0  0  0
 21 26  1  0  0  0  0
 21 27  1  0  0  0  0
 22 21  2  0  0  0  0
 23 24  2  0  0  0  0
 23 22  1  0  0  0  0
 24 25  1  0  0  0  0
 25 19  1  0  0  0  0
 25 26  2  0  0  0  0
 28 22  1  0  0  0  0
 29 23  1  0  0  0  0
 30 29  1  0  0  0  0
 30 32  1  0  0  0  0
 30 33  1  0  0  0  0
 31 30  1  0  0  0  0
M  END
>  <minimizedAffinity>
-5.89143467

$$$$

 OpenBabel03242520543D

 33 35  0  0  0  0  0  0  0  0999 V2000
   35.4060   29.9390   40.5830 C   0  0  0  0  0  0  0  0  0  0  0  0
   35.2940   29.9950   39.4590 H   0  0  0  0  0  0  0  0  0  0  0  0
   34.3930   30.0170   40.9640 H   0  0  0  0  0  0  0  0  0  0  0  0
   36.9680   31.5150   39.7860 C   0  0  0  0  0  0  0  0  0  0  0  0
   36.9540   31.2110   38.5700 O   0  0  0  0  0  0  0  0  0  0  0  0
   36.2950   31.0220   40.9230 N   0  0  0  0  0  0  0  0  0  0  0  0
   36.4710   31.4360   41.8490 H   0  0  0  0  0  0  0  0  0  0  0  0
   37.9220   32.6400   39.9850 C   0  0  0  0  0  0  0  0  0  0  0  0
   37.5780   33.9480   39.8560 C   0  0  0  0  0  0  0  0  0  0  0  0
   36.5720   34.2100   39.5950 H   0  0  0  0  0  0  0  0  0  0  0  0
   38.5360   34.9150   40.0640 C   0  0  0  0  0  3  0  0  0  0  0  0
   39.8320   34.6540   40.3960 C   0  0  0  0  0  3  0  0  0  0  0  0
   40.2000   33.3230   40.5300 C   0  0  0  0  0  0  0  0  0  0  0  0
   41.5060   33.0370   40.8660 C   0  0  0  0  0  3  0  0  0  0  0  0
   41.8990   31.7100   41.0070 C   0  0  0  0  0  3  0  0  0  0  0  0
   40.9760   30.7290   40.8090 C   0  0  0  0  0  3  0  0  0  0  0  0
   39.6830   31.0420   40.4760 C   0  0  0  0  0  3  0  0  0  0  0  0
   39.2330   32.3410   40.3210 C   0  0  0  0  0  0  0  0  0  0  0  0
   36.9390   28.4530   41.7320 C   0  0  0  0  0  3  0  0  0  0  0  0
   36.0200   28.6280   40.8350 C   0  0  0  0  0  3  0  0  0  0  0  0
   37.6820   24.8830   41.5910 C   0  0  0  0  0  0  0  0  0  0  0  0
   38.7290   24.7520   42.5030 C   0  0  0  0  0  0  0  0  0  0  0  0
   39.1840   25.8930   43.1710 C   0  0  0  0  0  0  0  0  0  0  0  0
   38.5720   27.0610   42.8870 N   0  0  0  0  0  0  0  0  0  0  0  0
   37.5640   27.1570   42.0020 C   0  0  0  0  0  0  0  0  0  0  0  0
   37.1110   26.0670   41.3470 N   0  0  0  0  0  0  0  0  0  0  0  0
   37.4260   23.9350   41.1430 H   0  0  0  0  0  0  0  0  0  0  0  0
   39.2620   23.8600   42.7800 H   0  0  0  0  0  0  0  0  0  0  0  0
   40.2000   25.9120   44.0910 O   0  0  0  0  0  0  0  0  0  0  0  0
   41.4650   26.4270   43.6530 C   0  0  0  0  0  0  0  0  0  0  0  0
   41.6520   26.1020   42.3010 F   0  0  0  0  0  0  0  0  0  0  0  0
   41.4200   27.8180   43.7870 F   0  0  0  0  0  0  0  0  0  0  0  0
   42.5240   25.9380   44.4260 F   0  0  0  0  0  0  0  0  0  0  0  0
  1 20  1  0  0  0  0
  1  6  1  0  0  0  0
  1  3  1  0  0  0  0
  2  1  1  0  0  0  0
  4  8  1  0  0  0  0
  4  6  1  0  0  0  0
  5  4  2  0  0  0  0
  6  7  1  0  0  0  0
  8 18  1  0  0  0  0
  9  8  2  0  0  0  0
  9 11  1  0  0  0  0
 10  9  1  0  0  0  0
 11 12  2  0  0  0  0
 12 13  1  0  0  0  0
 13 14  1  0  0  0  0
 14 15  2  0  0  0  0
 16 15  1  0  0  0  0
 17 16  2  0  0  0  0
 18 17  1  0  0  0  0
 18 13  2  0  0  0  0
 19 25  1  0  0  0  0
 20 19  2  0  0  0  0
 21 22  1  0  0  0  0
 22 28  1  0  0  0  0
 22 23  2  0  0  0  0
 23 29  1  0  0  0  0
 24 23  1  0  0  0  0
 25 24  2  0  0  0  0
 26 21  2  0  0  0  0
 26 25  1  0  0  0  0
 27 21  1  0  0  0  0
 30 32  1  0  0  0  0
 30 29  1  0  0  0  0
 30 33  1  0  0  0  0
 31 30  1  0  0  0  0
M  END
>  <minimizedAffinity>
-5.87034369

$$$$

 OpenBabel03242520543D

 33 35  0  0  0  0  0  0  0  0999 V2000
   38.1890   30.6200   39.9660 C   0  0  0  0  0  0  0  0  0  0  0  0
   39.0590   31.2690   39.6480 H   0  0  0  0  0  0  0  0  0  0  0  0
   37.6560   31.2170   40.6980 H   0  0  0  0  0  0  0  0  0  0  0  0
   38.2610   29.0370   41.7120 C   0  0  0  0  0  0  0  0  0  0  0  0
   37.3980   29.5380   42.4690 O   0  0  0  0  0  0  0  0  0  0  0  0
   38.7910   29.4050   40.4580 N   0  0  0  0  0  0  0  0  0  0  0  0
   39.5160   28.8270   40.0110 H   0  0  0  0  0  0  0  0  0  0  0  0
   38.7890   27.7970   42.3440 C   0  0  0  0  0  0  0  0  0  0  0  0
   39.7810   27.7910   43.2720 C   0  0  0  0  0  0  0  0  0  0  0  0
   40.2260   28.7150   43.5810 H   0  0  0  0  0  0  0  0  0  0  0  0
   40.1980   26.5880   43.7980 C   0  0  0  0  0  3  0  0  0  0  0  0
   39.6780   25.3770   43.4490 C   0  0  0  0  0  3  0  0  0  0  0  0
   38.6660   25.3660   42.5020 C   0  0  0  0  0  0  0  0  0  0  0  0
   38.1260   24.1500   42.1370 C   0  0  0  0  0  3  0  0  0  0  0  0
   37.1080   24.1140   41.1890 C   0  0  0  0  0  3  0  0  0  0  0  0
   36.6730   25.2850   40.6490 C   0  0  0  0  0  3  0  0  0  0  0  0
   37.2270   26.4800   41.0320 C   0  0  0  0  0  3  0  0  0  0  0  0
   38.2410   26.5810   41.9680 C   0  0  0  0  0  0  0  0  0  0  0  0
   36.3410   29.6720   38.7160 C   0  0  0  0  0  3  0  0  0  0  0  0
   37.4190   30.3910   38.7350 C   0  0  0  0  0  3  0  0  0  0  0  0
   35.4510   29.3180   35.1950 C   0  0  0  0  0  0  0  0  0  0  0  0
   34.1000   28.9790   35.2530 C   0  0  0  0  0  0  0  0  0  0  0  0
   33.4890   28.8710   36.5060 C   0  0  0  0  0  0  0  0  0  0  0  0
   34.2550   29.1050   37.5910 N   0  0  0  0  0  0  0  0  0  0  0  0
   35.5570   29.4310   37.5030 C   0  0  0  0  0  0  0  0  0  0  0  0
   36.1650   29.5400   36.3030 N   0  0  0  0  0  0  0  0  0  0  0  0
   35.8030   29.3680   34.1750 H   0  0  0  0  0  0  0  0  0  0  0  0
   33.4280   28.7790   34.4370 H   0  0  0  0  0  0  0  0  0  0  0  0
   32.1720   28.5470   36.7130 O   0  0  0  0  0  0  0  0  0  0  0  0
   31.2980   29.6060   37.1270 C   0  0  0  0  0  0  0  0  0  0  0  0
   31.6180   30.7720   36.4150 F   0  0  0  0  0  0  0  0  0  0  0  0
   29.9930   29.2200   36.8070 F   0  0  0  0  0  0  0  0  0  0  0  0
   31.3720   29.8370   38.5050 F   0  0  0  0  0  0  0  0  0  0  0  0
  1  6  1  0  0  0  0
  1  3  1  0  0  0  0
  2  1  1  0  0  0  0
  4  8  1  0  0  0  0
  4  5  2  0  0  0  0
  6  4  1  0  0  0  0
  7  6  1  0  0  0  0
  8  9  1  0  0  0  0
  9 10  1  0  0  0  0
  9 11  2  0  0  0  0
 12 11  1  0  0  0  0
 13 12  2  0  0  0  0
 14 13  1  0  0  0  0
 15 14  2  0  0  0  0
 16 17  2  0  0  0  0
 16 15  1  0  0  0  0
 17 18  1  0  0  0  0
 18  8  2  0  0  0  0
 18 13  1  0  0  0  0
 19 20  2  0  0  0  0
 20  1  1  0  0  0  0
 21 22  2  0  0  0  0
 21 26  1  0  0  0  0
 22 23  1  0  0  0  0
 23 29  1  0  0  0  0
 23 24  2  0  0  0  0
 25 24  1  0  0  0  0
 25 19  1  0  0  0  0
 26 25  2  0  0  0  0
 27 21  1  0  0  0  0
 28 22  1  0  0  0  0
 29 30  1  0  0  0  0
 30 33  1  0  0  0  0
 31 30  1  0  0  0  0
 32 30  1  0  0  0  0
M  END
>  <minimizedAffinity>
-5.84854507

$$$$
