
     RDKit          3D

 32 34  0  0  0  0  0  0  0  0999 V2000
   45.1906   35.2116   44.0642 C   0  0  0  0  0  0  0  0  0  0  0  0
   46.2131   34.5904   43.3604 C   0  0  0  0  0  0  0  0  0  0  0  0
   46.8923   33.5661   44.0544 C   0  0  0  0  0  0  0  0  0  0  0  0
   46.5243   33.2518   45.3289 N   0  0  0  0  0  0  0  0  0  0  0  0
   45.5118   33.9094   45.9447 C   0  0  0  0  0  0  0  0  0  0  0  0
   44.8442   34.8935   45.3057 N   0  0  0  0  0  0  0  0  0  0  0  0
   46.5613   34.9575   42.0061 C   0  0  1  0  0  0  0  0  0  0  0  0
   48.0585   35.2057   41.9415 C   0  0  0  0  0  0  0  0  0  0  0  0
   44.5989   36.0121   43.6434 H   0  0  0  0  0  0  0  0  0  0  0  0
   47.7119   33.0175   43.5832 H   0  0  0  0  0  0  0  0  0  0  0  0
   45.3909   33.4970   46.9515 H   0  0  0  0  0  0  0  0  0  0  0  0
   46.1270   35.9620   41.7837 H   0  0  0  0  0  0  0  0  0  0  0  0
   48.6378   34.4647   42.5032 H   0  0  0  0  0  0  0  0  0  0  0  0
   48.2881   36.2100   42.4017 H   0  0  0  0  0  0  0  0  0  0  0  0
   48.3872   35.2931   40.8812 H   0  0  0  0  0  0  0  0  0  0  0  0
   46.2205   33.9693   40.9599 C   0  0  0  0  0  0  0  0  0  0  0  0
   46.4284   34.3350   39.6214 C   0  0  0  0  0  0  0  0  0  0  0  0
   46.8170   35.3342   39.3972 H   0  0  0  0  0  0  0  0  0  0  0  0
   46.1845   33.5365   38.5343 C   0  0  0  0  0  0  0  0  0  0  0  0
   45.6944   32.2682   38.7626 C   0  0  0  0  0  0  0  0  0  0  0  0
   45.4678   31.8479   40.0541 C   0  0  0  0  0  0  0  0  0  0  0  0
   44.9765   30.5986   40.3020 C   0  0  0  0  0  0  0  0  0  0  0  0
   44.7480   30.1945   41.6012 C   0  0  0  0  0  0  0  0  0  0  0  0
   45.0065   31.0307   42.6671 C   0  0  0  0  0  0  0  0  0  0  0  0
   45.5023   32.2877   42.3951 C   0  0  0  0  0  0  0  0  0  0  0  0
   45.7299   32.6904   41.1101 C   0  0  0  0  0  0  0  0  0  0  0  0
   46.3715   33.8934   37.5314 H   0  0  0  0  0  0  0  0  0  0  0  0
   45.4877   31.6027   37.9284 H   0  0  0  0  0  0  0  0  0  0  0  0
   44.7826   29.9652   39.4563 H   0  0  0  0  0  0  0  0  0  0  0  0
   44.3645   29.2103   41.7250 H   0  0  0  0  0  0  0  0  0  0  0  0
   44.8010   30.6407   43.6463 H   0  0  0  0  0  0  0  0  0  0  0  0
   45.6913   32.9226   43.2195 H   0  0  0  0  0  0  0  0  0  0  0  0
  1  6  2  0
  2  1  1  0
  2  3  2  0
  3  4  1  0
  4  5  2  0
  6  5  1  0
  7  2  1  0
  8  7  1  0
  1  9  1  0
  3 10  1  0
  5 11  1  0
  7 12  1  6
  8 13  1  0
  8 14  1  0
  8 15  1  0
 16 17  2  0
 17 18  1  0
 17 19  1  0
 19 20  2  0
 20 21  1  0
 21 22  2  0
 22 23  1  0
 23 24  2  0
 24 25  1  0
 25 26  2  0
 26 16  1  0
 26 21  1  0
 19 27  1  0
 20 28  1  0
 22 29  1  0
 23 30  1  0
 24 31  1  0
 25 32  1  0
  7 16  1  0
M  ISO  8   9  14  10  14  11  14  12   8  13   8  14   8  15   8  18  15
M  END
>  <DihAtoms>  (1) 
1,6,15,16

>  <DihDeg>  (1) 
-95.70095803197756

$$$$
