
 OpenBabel03242519413D

 31 33  0  0  0  0  0  0  0  0999 V2000
   47.2220   32.4740   41.3740 O   0  0  0  0  0  0  0  0  0  0  0  0
   46.4280   33.7320   40.9310 P   0  0  2  0  0  0  0  0  0  0  0  0
   44.9260   33.7510   41.7630 O   0  0  0  0  0  0  0  0  0  0  0  0
   44.3760   35.9230   44.6340 C   0  0  0  0  0  0  0  0  0  0  0  0
   44.3990   35.4560   43.2990 C   0  0  0  0  0  0  0  0  0  0  0  0
   44.9170   34.1720   43.0750 C   0  0  0  0  0  0  0  0  0  0  0  0
   45.3580   33.4600   44.1290 N   0  0  0  0  0  0  0  0  0  0  0  0
   45.3230   33.9330   45.3950 C   0  0  0  0  0  0  0  0  0  0  0  0
   44.8360   35.1570   45.6560 N   0  0  0  0  0  0  0  0  0  0  0  0
   43.9780   36.9120   44.8160 H   0  0  0  0  0  0  0  0  0  0  0  0
   44.0210   36.1030   42.5320 H   0  0  0  0  0  0  0  0  0  0  0  0
   45.7010   33.2940   46.1990 H   0  0  0  0  0  0  0  0  0  0  0  0
   46.1340   33.6400   39.3010 O   0  0  0  0  0  0  0  0  0  0  0  0
   45.1960   32.9340   38.6190 C   0  0  0  0  0  0  0  0  0  0  0  0
   45.5980   32.2780   37.5030 O   0  0  0  0  0  0  0  0  0  0  0  0
   43.7730   32.5230   38.5730 C   0  0  0  0  0  0  0  0  0  0  0  0
   43.4270   31.1540   38.4970 C   0  0  0  0  0  0  0  0  0  0  0  0
   44.2970   30.4670   38.6240 H   0  0  0  0  0  0  0  0  0  0  0  0
   42.2290   30.5220   38.2960 C   0  0  0  0  0  3  0  0  0  0  0  0
   41.2180   31.4400   38.1480 C   0  0  0  0  0  3  0  0  0  0  0  0
   41.4600   32.7900   38.2090 C   0  0  0  0  0  0  0  0  0  0  0  0
   40.4210   33.6880   38.1000 C   0  0  0  0  0  3  0  0  0  0  0  0
   40.4930   35.0640   38.1800 C   0  0  0  0  0  3  0  0  0  0  0  0
   41.7850   35.5600   38.4000 C   0  0  0  0  0  3  0  0  0  0  0  0
   42.8400   34.6880   38.5120 C   0  0  0  0  0  3  0  0  0  0  0  0
   42.7270   33.3310   38.4220 C   0  0  0  0  0  0  0  0  0  0  0  0
   47.3160   35.0500   41.4040 O   0  0  0  0  0  0  0  0  0  0  0  0
   48.5640   35.0960   40.7970 C   0  0  0  0  0  0  0  0  0  0  0  0
   49.1770   36.3270   40.9430 F   0  0  0  0  0  0  0  0  0  0  0  0
   49.3390   34.0630   41.2160 F   0  0  0  0  0  0  0  0  0  0  0  0
   48.3350   34.9350   39.4320 F   0  0  0  0  0  0  0  0  0  0  0  0
  2  1  2  1  0  0  0
  2 27  1  0  0  0  0
  2  3  1  0  0  0  0
  3  6  1  0  0  0  0
  4 10  1  0  0  0  0
  4  9  1  0  0  0  0
  5  4  2  0  0  0  0
  6  5  1  0  0  0  0
  6  7  2  0  0  0  0
  7  8  1  0  0  0  0
  8  9  2  0  0  0  0
  8 12  1  0  0  0  0
 11  5  1  0  0  0  0
 13  2  1  0  0  0  0
 14 13  1  0  0  0  0
 15 14  2  0  0  0  0
 16 14  1  0  0  0  0
 17 16  1  0  0  0  0
 17 18  1  0  0  0  0
 19 17  2  0  0  0  0
 20 21  2  0  0  0  0
 20 19  1  0  0  0  0
 21 26  1  0  0  0  0
 22 23  2  0  0  0  0
 22 21  1  0  0  0  0
 23 24  1  0  0  0  0
 24 25  2  0  0  0  0
 26 25  1  0  0  0  0
 26 16  2  0  0  0  0
 28 29  1  0  0  0  0
 28 30  1  0  0  0  0
 28 27  1  0  0  0  0
 31 28  1  0  0  0  0
M  END
>  <minimizedAffinity>
-5.90669632

>  <minimizedRMSD>
2.79439116

$$$$
