
 OpenBabel03252502563D

 39 42  0  0  0  0  0  0  0  0999 V2000
   45.6680   29.7930   44.8510 Br  0  0  0  0  0  0  0  0  0  0  0  0
   45.6800   30.4250   46.6660 C   0  0  0  0  0  0  0  0  0  0  0  0
   46.3440   31.5980   46.8860 C   0  0  0  0  0  0  0  0  0  0  0  0
   46.3380   32.0370   48.2110 C   0  0  0  0  0  0  0  0  0  0  0  0
   45.7160   31.3550   49.2370 C   0  0  0  0  0  0  0  0  0  0  0  0
   45.0680   30.1820   48.9370 C   0  0  0  0  0  0  0  0  0  0  0  0
   45.0390   29.6970   47.6510 C   0  0  0  0  0  0  0  0  0  0  0  0
   46.8470   32.9660   48.4720 H   0  0  0  0  0  0  0  0  0  0  0  0
   45.7270   31.7150   50.2540 H   0  0  0  0  0  0  0  0  0  0  0  0
   44.5560   29.5860   49.6850 H   0  0  0  0  0  0  0  0  0  0  0  0
   47.0430   32.4220   45.9060 C   0  0  0  0  0  0  0  0  0  0  0  0
   47.4090   31.7630   45.0800 H   0  0  0  0  0  0  0  0  0  0  0  0
   47.9750   32.8320   46.3820 H   0  0  0  0  0  0  0  0  0  0  0  0
   44.5800   35.1890   45.5330 C   0  0  0  0  0  0  0  0  0  0  0  0
   44.7950   35.5990   44.2060 C   0  0  0  0  0  0  0  0  0  0  0  0
   45.7780   34.9170   43.4780 C   0  0  0  0  0  0  0  0  0  0  0  0
   46.4660   33.9190   44.0530 N   0  0  0  0  0  0  0  0  0  0  0  0
   46.2400   33.5320   45.3520 C   0  0  0  0  0  0  0  0  0  0  0  0
   45.2970   34.1930   46.0370 N   0  0  0  0  0  0  0  0  0  0  0  0
   43.8500   35.6350   46.1970 H   0  0  0  0  0  0  0  0  0  0  0  0
   44.1830   36.4150   43.8450 H   0  0  0  0  0  0  0  0  0  0  0  0
   45.9330   35.2360   42.4750 H   0  0  0  0  0  0  0  0  0  0  0  0
   44.3810   28.5090   47.3510 O   0  0  0  0  0  0  0  0  0  0  0  0
   44.0060   25.9480   47.2970 O   0  0  0  0  0  0  0  0  0  0  0  0
   44.8040   27.0140   48.0480 P   0  0  2  0  0  0  0  0  0  0  0  0
   44.3550   27.0510   49.6610 O   0  0  0  0  0  0  0  0  0  0  0  0
   43.6550   26.3880   49.8500 H   0  0  0  0  0  0  0  0  0  0  0  0
   46.4430   26.6830   47.8540 O   0  0  0  0  0  0  0  0  0  0  0  0
   46.9140   25.5180   47.2580 C   0  0  0  0  0  0  0  0  0  0  0  0
   47.1590   25.3510   45.9100 C   0  0  0  0  0  0  0  0  0  0  0  0
   46.9720   26.1890   45.2660 H   0  0  0  0  0  0  0  0  0  0  0  0
   47.6290   24.1500   45.4080 C   0  0  0  0  0  3  0  0  0  0  0  0
   47.8450   23.1170   46.3040 C   0  0  0  0  0  3  0  0  0  0  0  0
   47.6100   23.2420   47.6760 C   0  0  0  0  0  0  0  0  0  0  0  0
   47.8470   22.1690   48.5190 C   0  0  0  0  0  3  0  0  0  0  0  0
   47.6060   22.3180   49.8830 C   0  0  0  0  0  3  0  0  0  0  0  0
   47.1330   23.5320   50.3690 C   0  0  0  0  0  3  0  0  0  0  0  0
   46.9180   24.5620   49.4750 C   0  0  0  0  0  3  0  0  0  0  0  0
   47.1400   24.4670   48.1300 C   0  0  0  0  0  0  0  0  0  0  0  0
  1  2  1  0  0  0  0
  2  3  2  0  0  0  0
  2  7  1  0  0  0  0
  3  4  1  0  0  0  0
  4  8  1  0  0  0  0
  4  5  2  0  0  0  0
  5  9  1  0  0  0  0
  6  5  1  0  0  0  0
  6 10  1  0  0  0  0
  7  6  2  0  0  0  0
 11 13  1  0  0  0  0
 11  3  1  0  0  0  0
 12 11  1  0  0  0  0
 14 19  1  0  0  0  0
 14 20  1  0  0  0  0
 15 14  2  0  0  0  0
 16 17  2  0  0  0  0
 16 15  1  0  0  0  0
 17 18  1  0  0  0  0
 18 11  1  0  0  0  0
 18 19  2  0  0  0  0
 21 15  1  0  0  0  0
 22 16  1  0  0  0  0
 23  7  1  0  0  0  0
 23 25  1  0  0  0  0
 25 24  2  6  0  0  0
 25 26  1  0  0  0  0
 26 27  1  0  0  0  0
 28 25  1  0  0  0  0
 29 28  1  0  0  0  0
 29 39  1  0  0  0  0
 30 29  2  0  0  0  0
 31 30  1  0  0  0  0
 32 30  1  0  0  0  0
 32 33  2  0  0  0  0
 33 34  1  0  0  0  0
 34 39  2  0  0  0  0
 34 35  1  0  0  0  0
 35 36  2  0  0  0  0
 36 37  1  0  0  0  0
 38 37  2  0  0  0  0
 39 38  1  0  0  0  0
M  END
>  <minimizedAffinity>
-5.59628248

>  <minimizedRMSD>
1.15364027

$$$$
