
 OpenBabel03252508003D

 31 34  0  0  1  0  0  0  0  0999 V2000
   46.2190   34.7300   43.3450 C   0  0  0  0  0  0  0  0  0  0  0  0
   45.2580   35.7000   43.7610 C   0  0  0  0  0  0  0  0  0  0  0  0
   44.6660   35.4760   45.0000 C   0  0  0  0  0  0  0  0  0  0  0  0
   45.0250   34.3850   45.7160 N   0  0  0  0  0  0  0  0  0  0  0  0
   45.9600   33.4910   45.2500 C   0  0  0  0  0  0  0  0  0  0  0  0
   46.5570   33.6460   44.0850 N   0  0  0  0  0  0  0  0  0  0  0  0
   45.0360   36.5410   43.1190 H   0  0  0  0  0  0  0  0  0  0  0  0
   43.9310   36.1850   45.3570 H   0  0  0  0  0  0  0  0  0  0  0  0
   46.3100   32.3220   46.1110 C   0  0  1  0  0  0  0  0  0  0  0  0
   47.0620   32.5590   47.4000 C   0  0  0  0  0  0  0  0  0  0  0  0
   45.5840   32.2740   47.3980 C   0  0  1  0  0  0  0  0  0  0  0  0
   46.4900   31.3690   45.5790 H   0  0  0  0  0  0  0  0  0  0  0  0
   47.4390   33.5830   47.5210 H   0  0  0  0  0  0  0  0  0  0  0  0
   47.7140   31.7190   47.7070 H   0  0  0  0  0  0  0  0  0  0  0  0
   45.2660   31.3080   47.8600 H   0  0  0  0  0  0  0  0  0  0  0  0
   44.8050   33.4110   47.8350 N   0  0  0  0  0  0  0  0  0  0  0  0
   43.8160   33.4020   47.6340 H   0  0  0  0  0  0  0  0  0  0  0  0
   45.3020   34.2730   48.0120 H   0  0  0  0  0  0  0  0  0  0  0  0
   46.8340   34.9830   42.0580 C   0  0  0  0  0  0  0  0  0  0  0  0
   47.9170   35.6520   41.9230 O   0  0  0  0  0  0  0  0  0  0  0  0
   46.0290   34.3660   41.0090 C   0  0  0  0  0  0  0  0  0  0  0  0
   44.6510   34.4900   40.9560 C   0  0  0  0  0  0  0  0  0  0  0  0
   44.1510   35.0760   41.7270 H   0  0  0  0  0  0  0  0  0  0  0  0
   43.8450   33.9230   39.9910 C   0  0  0  0  0  3  0  0  0  0  0  0
   44.4260   33.1780   39.0010 C   0  0  0  0  0  3  0  0  0  0  0  0
   45.7960   33.0110   38.9910 C   0  0  0  0  0  0  0  0  0  0  0  0
   46.4170   32.2570   37.9930 C   0  0  0  0  0  3  0  0  0  0  0  0
   47.7750   32.0770   37.9570 C   0  0  0  0  0  3  0  0  0  0  0  0
   48.5630   32.6640   38.9490 C   0  0  0  0  0  3  0  0  0  0  0  0
   47.9080   33.4030   39.9190 C   0  0  0  0  0  3  0  0  0  0  0  0
   46.5480   33.6040   39.9840 C   0  0  0  0  0  0  0  0  0  0  0  0
  1  2  2  0  0  0  0
  1  6  1  0  0  0  0
  2  3  1  0  0  0  0
  3  8  1  0  0  0  0
  3  4  2  0  0  0  0
  5  4  1  0  0  0  0
  5  9  1  0  0  0  0
  6  5  2  0  0  0  0
  7  2  1  0  0  0  0
  9 12  1  6  0  0  0
  9 11  1  0  0  0  0
  9 10  1  0  0  0  0
 10 13  1  0  0  0  0
 10 14  1  0  0  0  0
 11 10  1  0  0  0  0
 11 16  1  0  0  0  0
 11 15  1  1  0  0  0
 16 18  1  0  0  0  0
 17 16  1  0  0  0  0
 19  1  1  0  0  0  0
 20 19  2  0  0  0  0
 21 19  1  0  0  0  0
 22 21  1  0  0  0  0
 22 23  1  0  0  0  0
 24 22  2  0  0  0  0
 25 24  1  0  0  0  0
 26 25  2  0  0  0  0
 26 31  1  0  0  0  0
 27 26  1  0  0  0  0
 28 27  2  0  0  0  0
 28 29  1  0  0  0  0
 29 30  2  0  0  0  0
 30 31  1  0  0  0  0
 31 21  2  0  0  0  0
M  END
>  <minimizedAffinity>
-6.32256126

>  <minimizedRMSD>
0.390078634

$$$$
