
 OpenBabel03242517583D

 45 48  0  0  0  0  0  0  0  0999 V2000
   39.3170   32.0700   40.9300 C   0  0  0  0  0  0  0  0  0  0  0  0
   37.9840   32.1580   40.6710 C   0  0  0  0  0  0  0  0  0  0  0  0
   37.4940   33.2910   40.0550 C   0  0  0  0  0  0  0  0  0  0  0  0
   38.3020   34.3480   39.6850 C   0  0  0  0  0  0  0  0  0  0  0  0
   39.6590   34.2630   39.9450 C   0  0  0  0  0  0  0  0  0  0  0  0
   40.1500   33.1200   40.5660 C   0  0  0  0  0  0  0  0  0  0  0  0
   36.4520   33.4460   39.8130 H   0  0  0  0  0  0  0  0  0  0  0  0
   37.9770   35.2480   39.2060 H   0  0  0  0  0  0  0  0  0  0  0  0
   40.4030   35.0190   39.7060 H   0  0  0  0  0  0  0  0  0  0  0  0
   41.1930   32.9790   40.8010 H   0  0  0  0  0  0  0  0  0  0  0  0
   39.8580   30.6630   41.7780 S   0  0  0  0  0  0  0  0  0  0  0  0
   39.6120   30.7660   43.2590 O   0  0  0  0  0  0  0  0  0  0  0  0
   41.3900   30.6480   41.6280 O   0  0  0  0  0  0  0  0  0  0  0  0
   39.3680   29.1460   41.1260 C   0  0  0  0  0  0  0  0  0  0  0  0
   39.8140   28.6670   39.8880 C   0  0  0  0  0  0  0  0  0  0  0  0
   40.5520   29.2960   39.3720 H   0  0  0  0  0  0  0  0  0  0  0  0
   39.4320   27.5020   39.2570 C   0  0  0  0  0  3  0  0  0  0  0  0
   38.5060   26.7200   39.9150 C   0  0  0  0  0  3  0  0  0  0  0  0
   38.0050   27.1010   41.1410 C   0  0  0  0  0  0  0  0  0  0  0  0
   37.1100   26.2690   41.7830 C   0  0  0  0  0  3  0  0  0  0  0  0
   36.6150   26.6030   43.0420 C   0  0  0  0  0  3  0  0  0  0  0  0
   37.0260   27.7910   43.6620 C   0  0  0  0  0  3  0  0  0  0  0  0
   37.9100   28.5660   42.9690 C   0  0  0  0  0  3  0  0  0  0  0  0
   38.4420   28.2830   41.7020 C   0  0  0  0  0  0  0  0  0  0  0  0
   37.0060   31.2210   40.9460 O   0  0  0  0  0  0  0  0  0  0  0  0
   34.5560   29.0220   39.6540 C   0  0  0  0  0  0  0  0  0  0  0  0
   35.0280   28.7810   38.3550 C   0  0  0  0  0  0  0  0  0  0  0  0
   36.1860   29.3800   37.9400 C   0  0  0  0  0  0  0  0  0  0  0  0
   36.7940   30.1680   38.8280 N   0  0  0  0  0  0  0  0  0  0  0  0
   36.3710   30.4060   40.0430 C   0  0  0  0  0  0  0  0  0  0  0  0
   35.2300   29.8230   40.4670 N   0  0  0  0  0  0  0  0  0  0  0  0
   33.6340   28.5470   39.9890 H   0  0  0  0  0  0  0  0  0  0  0  0
   34.4440   28.1270   37.7490 H   0  0  0  0  0  0  0  0  0  0  0  0
   36.7570   29.1820   36.6040 C   0  0  0  0  0  0  0  0  0  0  0  0
   37.5460   29.9350   36.4200 H   0  0  0  0  0  0  0  0  0  0  0  0
   37.2520   28.1880   36.5660 H   0  0  0  0  0  0  0  0  0  0  0  0
   35.7460   29.2200   35.4980 C   0  0  0  0  0  0  0  0  0  0  0  0
   35.2560   28.2970   35.2400 H   0  0  0  0  0  0  0  0  0  0  0  0
   34.9070   29.8700   35.9020 H   0  0  0  0  0  0  0  0  0  0  0  0
   36.2040   29.9410   34.3070 C   0  0  0  0  0  3  0  0  0  0  0  0
   35.9340   31.0080   33.5690 C   0  0  0  0  0  3  0  0  0  0  0  0
   36.6040   31.3920   32.2610 C   0  0  0  0  0  0  0  0  0  0  0  0
   35.8610   31.4800   31.4480 H   0  0  0  0  0  0  0  0  0  0  0  0
   37.1770   32.3120   32.4570 H   0  0  0  0  0  0  0  0  0  0  0  0
   37.2560   30.5280   32.0020 H   0  0  0  0  0  0  0  0  0  0  0  0
  1 11  1  0  0  0  0
  2  1  1  0  0  0  0
  2 25  1  0  0  0  0
  3  2  2  0  0  0  0
  4  5  2  0  0  0  0
  4  3  1  0  0  0  0
  5  6  1  0  0  0  0
  6 10  1  0  0  0  0
  6  1  2  0  0  0  0
  7  3  1  0  0  0  0
  8  4  1  0  0  0  0
  9  5  1  0  0  0  0
 11 12  2  0  0  0  0
 13 11  2  0  0  0  0
 14 24  1  0  0  0  0
 14 11  1  0  0  0  0
 15 14  2  0  0  0  0
 16 15  1  0  0  0  0
 17 15  1  0  0  0  0
 17 18  2  0  0  0  0
 18 19  1  0  0  0  0
 19 24  2  0  0  0  0
 19 20  1  0  0  0  0
 20 21  2  0  0  0  0
 21 22  1  0  0  0  0
 23 22  2  0  0  0  0
 24 23  1  0  0  0  0
 26 32  1  0  0  0  0
 26 31  1  0  0  0  0
 27 26  2  0  0  0  0
 28 27  1  0  0  0  0
 28 29  2  0  0  0  0
 29 30  1  0  0  0  0
 30 31  2  0  0  0  0
 30 25  1  0  0  0  0
 33 27  1  0  0  0  0
 34 28  1  0  0  0  0
 35 34  1  0  0  0  0
 36 34  1  0  0  0  0
 37 39  1  0  0  0  0
 37 34  1  0  0  0  0
 38 37  1  0  0  0  0
 40 37  1  0  0  0  0
 41 40  2  0  0  0  0
 42 44  1  0  0  0  0
 42 41  1  0  0  0  0
 43 42  1  0  0  0  0
 45 42  1  0  0  0  0
M  END
>  <minimizedAffinity>
-6.46787596

$$$$

 OpenBabel03242517583D

 45 48  0  0  0  0  0  0  0  0999 V2000
   38.9150   30.9870   39.6890 C   0  0  0  0  0  0  0  0  0  0  0  0
   38.1580   31.1100   38.5650 C   0  0  0  0  0  0  0  0  0  0  0  0
   37.3730   32.2330   38.4060 C   0  0  0  0  0  0  0  0  0  0  0  0
   37.3230   33.2480   39.3410 C   0  0  0  0  0  0  0  0  0  0  0  0
   38.0940   33.1290   40.4840 C   0  0  0  0  0  0  0  0  0  0  0  0
   38.8830   31.9960   40.6430 C   0  0  0  0  0  0  0  0  0  0  0  0
   36.7400   32.4130   37.5470 H   0  0  0  0  0  0  0  0  0  0  0  0
   36.7340   34.1390   39.2690 H   0  0  0  0  0  0  0  0  0  0  0  0
   38.1480   33.8510   41.2950 H   0  0  0  0  0  0  0  0  0  0  0  0
   39.5100   31.8300   41.5050 H   0  0  0  0  0  0  0  0  0  0  0  0
   39.8130   29.5200   39.8710 S   0  0  0  0  0  0  0  0  0  0  0  0
   40.9530   29.6710   40.8410 O   0  0  0  0  0  0  0  0  0  0  0  0
   40.4790   29.2650   38.5070 O   0  0  0  0  0  0  0  0  0  0  0  0
   38.8880   28.0920   40.1480 C   0  0  0  0  0  0  0  0  0  0  0  0
   38.7620   27.0680   39.2000 C   0  0  0  0  0  0  0  0  0  0  0  0
   39.3400   27.2010   38.2770 H   0  0  0  0  0  0  0  0  0  0  0  0
   37.9990   25.9250   39.3040 C   0  0  0  0  0  3  0  0  0  0  0  0
   37.2770   25.7690   40.4690 C   0  0  0  0  0  3  0  0  0  0  0  0
   37.3340   26.7200   41.4660 C   0  0  0  0  0  0  0  0  0  0  0  0
   36.6280   26.5050   42.6320 C   0  0  0  0  0  3  0  0  0  0  0  0
   36.6950   27.4240   43.6770 C   0  0  0  0  0  3  0  0  0  0  0  0
   37.4840   28.5750   43.5450 C   0  0  0  0  0  3  0  0  0  0  0  0
   38.1530   28.7230   42.3660 C   0  0  0  0  0  3  0  0  0  0  0  0
   38.1240   27.8350   41.2810 C   0  0  0  0  0  0  0  0  0  0  0  0
   38.0660   30.2260   37.5070 O   0  0  0  0  0  0  0  0  0  0  0  0
   35.9110   29.2880   34.8640 C   0  0  0  0  0  0  0  0  0  0  0  0
   34.7190   28.9910   35.5440 C   0  0  0  0  0  0  0  0  0  0  0  0
   34.6730   29.1180   36.9050 C   0  0  0  0  0  0  0  0  0  0  0  0
   35.7970   29.5260   37.4970 N   0  0  0  0  0  0  0  0  0  0  0  0
   36.9170   29.8070   36.8840 C   0  0  0  0  0  0  0  0  0  0  0  0
   36.9780   29.6870   35.5410 N   0  0  0  0  0  0  0  0  0  0  0  0
   35.9510   29.1880   33.7800 H   0  0  0  0  0  0  0  0  0  0  0  0
   33.8950   28.6760   34.9460 H   0  0  0  0  0  0  0  0  0  0  0  0
   33.4720   28.8350   37.6970 C   0  0  0  0  0  0  0  0  0  0  0  0
   33.5990   27.8800   38.2390 H   0  0  0  0  0  0  0  0  0  0  0  0
   33.3530   29.6250   38.4680 H   0  0  0  0  0  0  0  0  0  0  0  0
   32.2070   28.8030   36.8930 C   0  0  0  0  0  0  0  0  0  0  0  0
   32.2960   28.6510   35.8310 H   0  0  0  0  0  0  0  0  0  0  0  0
   31.6630   27.8750   37.2560 H   0  0  0  0  0  0  0  0  0  0  0  0
   31.2820   29.8950   37.2080 C   0  0  0  0  0  3  0  0  0  0  0  0
   30.5360   30.3760   38.1930 C   0  0  0  0  0  3  0  0  0  0  0  0
   29.5640   31.5400   38.1020 C   0  0  0  0  0  0  0  0  0  0  0  0
   28.5460   31.2260   38.3920 H   0  0  0  0  0  0  0  0  0  0  0  0
   29.9840   32.3510   38.7170 H   0  0  0  0  0  0  0  0  0  0  0  0
   29.5200   31.7990   37.0210 H   0  0  0  0  0  0  0  0  0  0  0  0
  1 11  1  0  0  0  0
  1  6  1  0  0  0  0
  2  1  2  0  0  0  0
  3  2  1  0  0  0  0
  3  4  2  0  0  0  0
  4  5  1  0  0  0  0
  5  6  2  0  0  0  0
  5  9  1  0  0  0  0
  6 10  1  0  0  0  0
  7  3  1  0  0  0  0
  8  4  1  0  0  0  0
 11 14  1  0  0  0  0
 11 12  2  0  0  0  0
 13 11  2  0  0  0  0
 14 24  1  0  0  0  0
 15 17  1  0  0  0  0
 15 14  2  0  0  0  0
 16 15  1  0  0  0  0
 17 18  2  0  0  0  0
 18 19  1  0  0  0  0
 19 20  1  0  0  0  0
 20 21  2  0  0  0  0
 22 21  1  0  0  0  0
 23 22  2  0  0  0  0
 24 19  2  0  0  0  0
 24 23  1  0  0  0  0
 25  2  1  0  0  0  0
 26 31  2  0  0  0  0
 26 27  1  0  0  0  0
 27 28  2  0  0  0  0
 28 29  1  0  0  0  0
 28 34  1  0  0  0  0
 30 29  2  0  0  0  0
 30 25  1  0  0  0  0
 31 30  1  0  0  0  0
 32 26  1  0  0  0  0
 33 27  1  0  0  0  0
 34 35  1  0  0  0  0
 34 36  1  0  0  0  0
 37 40  1  0  0  0  0
 37 39  1  0  0  0  0
 37 34  1  0  0  0  0
 38 37  1  0  0  0  0
 40 41  2  0  0  0  0
 42 41  1  0  0  0  0
 42 43  1  0  0  0  0
 42 44  1  0  0  0  0
 45 42  1  0  0  0  0
M  END
>  <minimizedAffinity>
-6.27531624

$$$$

 OpenBabel03242517583D

 45 48  0  0  0  0  0  0  0  0999 V2000
   37.9830   31.1230   39.8530 C   0  0  0  0  0  0  0  0  0  0  0  0
   39.3350   31.2510   39.9420 C   0  0  0  0  0  0  0  0  0  0  0  0
   39.8850   32.5130   40.0210 C   0  0  0  0  0  0  0  0  0  0  0  0
   39.1200   33.6630   40.0170 C   0  0  0  0  0  0  0  0  0  0  0  0
   37.7450   33.5380   39.9300 C   0  0  0  0  0  0  0  0  0  0  0  0
   37.1920   32.2650   39.8500 C   0  0  0  0  0  0  0  0  0  0  0  0
   40.9470   32.7070   40.0920 H   0  0  0  0  0  0  0  0  0  0  0  0
   39.4930   34.6640   40.0770 H   0  0  0  0  0  0  0  0  0  0  0  0
   37.0290   34.3570   39.9180 H   0  0  0  0  0  0  0  0  0  0  0  0
   36.1320   32.0850   39.7790 H   0  0  0  0  0  0  0  0  0  0  0  0
   37.3590   29.5200   39.6720 S   0  0  0  0  0  0  0  0  0  0  0  0
   38.0470   28.7670   38.5660 O   0  0  0  0  0  0  0  0  0  0  0  0
   35.9050   29.6900   39.1960 O   0  0  0  0  0  0  0  0  0  0  0  0
   37.2110   28.5930   41.1170 C   0  0  0  0  0  0  0  0  0  0  0  0
   37.2740   29.1590   42.3970 C   0  0  0  0  0  0  0  0  0  0  0  0
   37.3670   30.2520   42.4300 H   0  0  0  0  0  0  0  0  0  0  0  0
   37.2290   28.4960   43.6050 C   0  0  0  0  0  3  0  0  0  0  0  0
   37.1110   27.1230   43.5510 C   0  0  0  0  0  3  0  0  0  0  0  0
   37.0400   26.4680   42.3400 C   0  0  0  0  0  0  0  0  0  0  0  0
   36.8810   25.0980   42.3310 C   0  0  0  0  0  3  0  0  0  0  0  0
   36.7640   24.4090   41.1260 C   0  0  0  0  0  3  0  0  0  0  0  0
   36.8070   25.1090   39.9130 C   0  0  0  0  0  3  0  0  0  0  0  0
   36.9670   26.4620   39.9970 C   0  0  0  0  0  3  0  0  0  0  0  0
   37.0910   27.2090   41.1770 C   0  0  0  0  0  0  0  0  0  0  0  0
   40.2790   30.2410   39.9700 O   0  0  0  0  0  0  0  0  0  0  0  0
   42.8070   29.9680   42.4280 C   0  0  0  0  0  0  0  0  0  0  0  0
   42.3330   28.9160   43.2260 C   0  0  0  0  0  0  0  0  0  0  0  0
   41.1480   28.3130   42.9080 C   0  0  0  0  0  0  0  0  0  0  0  0
   40.5170   28.7860   41.8310 N   0  0  0  0  0  0  0  0  0  0  0  0
   40.9400   29.7650   41.0750 C   0  0  0  0  0  0  0  0  0  0  0  0
   42.1080   30.3700   41.3760 N   0  0  0  0  0  0  0  0  0  0  0  0
   43.7520   30.4510   42.6790 H   0  0  0  0  0  0  0  0  0  0  0  0
   42.9400   28.6370   44.0570 H   0  0  0  0  0  0  0  0  0  0  0  0
   40.5780   27.2050   43.6800 C   0  0  0  0  0  0  0  0  0  0  0  0
   40.6680   27.4190   44.7610 H   0  0  0  0  0  0  0  0  0  0  0  0
   39.4920   27.1300   43.4590 H   0  0  0  0  0  0  0  0  0  0  0  0
   41.1880   25.8710   43.3700 C   0  0  0  0  0  0  0  0  0  0  0  0
   42.2490   25.7620   43.5190 H   0  0  0  0  0  0  0  0  0  0  0  0
   40.7330   25.1660   44.1340 H   0  0  0  0  0  0  0  0  0  0  0  0
   40.7620   25.3140   42.0830 C   0  0  0  0  0  3  0  0  0  0  0  0
   41.0650   25.3230   40.7930 C   0  0  0  0  0  3  0  0  0  0  0  0
   40.2740   24.6660   39.6760 C   0  0  0  0  0  0  0  0  0  0  0  0
   39.9710   25.4090   38.9170 H   0  0  0  0  0  0  0  0  0  0  0  0
   40.8970   23.8450   39.2870 H   0  0  0  0  0  0  0  0  0  0  0  0
   39.3380   24.3030   40.1560 H   0  0  0  0  0  0  0  0  0  0  0  0
  1  2  1  0  0  0  0
  2 25  1  0  0  0  0
  2  3  2  0  0  0  0
  3  7  1  0  0  0  0
  4  3  1  0  0  0  0
  4  8  1  0  0  0  0
  5  4  2  0  0  0  0
  6  1  2  0  0  0  0
  6  5  1  0  0  0  0
  9  5  1  0  0  0  0
 10  6  1  0  0  0  0
 11  1  1  0  0  0  0
 11 14  1  0  0  0  0
 12 11  2  0  0  0  0
 13 11  2  0  0  0  0
 14 24  2  0  0  0  0
 14 15  1  0  0  0  0
 15 16  1  0  0  0  0
 15 17  2  0  0  0  0
 18 17  1  0  0  0  0
 19 18  2  0  0  0  0
 20 19  1  0  0  0  0
 21 20  2  0  0  0  0
 22 23  2  0  0  0  0
 22 21  1  0  0  0  0
 23 24  1  0  0  0  0
 24 19  1  0  0  0  0
 25 30  1  0  0  0  0
 26 32  1  0  0  0  0
 26 27  1  0  0  0  0
 27 33  1  0  0  0  0
 28 27  2  0  0  0  0
 28 34  1  0  0  0  0
 29 28  1  0  0  0  0
 30 31  1  0  0  0  0
 30 29  2  0  0  0  0
 31 26  2  0  0  0  0
 34 35  1  0  0  0  0
 36 34  1  0  0  0  0
 37 38  1  0  0  0  0
 37 34  1  0  0  0  0
 37 39  1  0  0  0  0
 40 37  1  0  0  0  0
 41 40  2  0  0  0  0
 42 45  1  0  0  0  0
 42 41  1  0  0  0  0
 43 42  1  0  0  0  0
 44 42  1  0  0  0  0
M  END
>  <minimizedAffinity>
-6.18123245

$$$$

 OpenBabel03242517583D

 45 48  0  0  0  0  0  0  0  0999 V2000
   37.8670   31.2340   39.8400 C   0  0  0  0  0  0  0  0  0  0  0  0
   39.1360   31.4670   40.2710 C   0  0  0  0  0  0  0  0  0  0  0  0
   39.5770   32.7690   40.3830 C   0  0  0  0  0  0  0  0  0  0  0  0
   38.7820   33.8560   40.0760 C   0  0  0  0  0  0  0  0  0  0  0  0
   37.4900   33.6240   39.6390 C   0  0  0  0  0  0  0  0  0  0  0  0
   37.0470   32.3110   39.5270 C   0  0  0  0  0  0  0  0  0  0  0  0
   40.5680   33.0460   40.7160 H   0  0  0  0  0  0  0  0  0  0  0  0
   39.0720   34.8840   40.1450 H   0  0  0  0  0  0  0  0  0  0  0  0
   36.7630   34.3850   39.3670 H   0  0  0  0  0  0  0  0  0  0  0  0
   36.0560   32.0490   39.1930 H   0  0  0  0  0  0  0  0  0  0  0  0
   37.3990   29.5800   39.6400 S   0  0  0  0  0  0  0  0  0  0  0  0
   38.1930   28.8940   38.5630 O   0  0  0  0  0  0  0  0  0  0  0  0
   35.9540   29.6160   39.1120 O   0  0  0  0  0  0  0  0  0  0  0  0
   37.2850   28.6430   41.0820 C   0  0  0  0  0  0  0  0  0  0  0  0
   37.4080   29.1950   42.3630 C   0  0  0  0  0  0  0  0  0  0  0  0
   37.5260   30.2850   42.4020 H   0  0  0  0  0  0  0  0  0  0  0  0
   37.3930   28.5220   43.5660 C   0  0  0  0  0  3  0  0  0  0  0  0
   37.2430   27.1520   43.5050 C   0  0  0  0  0  3  0  0  0  0  0  0
   37.1120   26.5110   42.2910 C   0  0  0  0  0  0  0  0  0  0  0  0
   36.9230   25.1440   42.2760 C   0  0  0  0  0  3  0  0  0  0  0  0
   36.7450   24.4690   41.0710 C   0  0  0  0  0  3  0  0  0  0  0  0
   36.7590   25.1810   39.8630 C   0  0  0  0  0  3  0  0  0  0  0  0
   36.9510   26.5280   39.9530 C   0  0  0  0  0  3  0  0  0  0  0  0
   37.1360   27.2610   41.1340 C   0  0  0  0  0  0  0  0  0  0  0  0
   40.0880   30.5350   40.6370 O   0  0  0  0  0  0  0  0  0  0  0  0
   42.6270   28.2980   39.6080 C   0  0  0  0  0  0  0  0  0  0  0  0
   42.9340   28.7690   38.3220 C   0  0  0  0  0  0  0  0  0  0  0  0
   42.2620   29.8510   37.8250 C   0  0  0  0  0  0  0  0  0  0  0  0
   41.3410   30.3920   38.6250 N   0  0  0  0  0  0  0  0  0  0  0  0
   41.0390   29.9690   39.8250 C   0  0  0  0  0  0  0  0  0  0  0  0
   41.6940   28.9020   40.3300 N   0  0  0  0  0  0  0  0  0  0  0  0
   43.1610   27.4360   40.0080 H   0  0  0  0  0  0  0  0  0  0  0  0
   43.6950   28.2440   37.7910 H   0  0  0  0  0  0  0  0  0  0  0  0
   42.5190   30.4150   36.4970 C   0  0  0  0  0  0  0  0  0  0  0  0
   42.3450   29.6430   35.7240 H   0  0  0  0  0  0  0  0  0  0  0  0
   41.7900   31.2300   36.3020 H   0  0  0  0  0  0  0  0  0  0  0  0
   43.8910   30.9970   36.3370 C   0  0  0  0  0  0  0  0  0  0  0  0
   44.7220   30.3130   36.3140 H   0  0  0  0  0  0  0  0  0  0  0  0
   43.8860   31.4550   35.2980 H   0  0  0  0  0  0  0  0  0  0  0  0
   44.1530   32.1370   37.2210 C   0  0  0  0  0  3  0  0  0  0  0  0
   45.0140   33.1250   37.4180 C   0  0  0  0  0  3  0  0  0  0  0  0
   45.0130   34.1040   38.5790 C   0  0  0  0  0  0  0  0  0  0  0  0
   45.9700   34.0640   39.1290 H   0  0  0  0  0  0  0  0  0  0  0  0
   44.7690   35.0920   38.1590 H   0  0  0  0  0  0  0  0  0  0  0  0
   44.2310   33.7290   39.2760 H   0  0  0  0  0  0  0  0  0  0  0  0
  1  2  1  0  0  0  0
  2  3  2  0  0  0  0
  2 25  1  0  0  0  0
  3  7  1  0  0  0  0
  4  8  1  0  0  0  0
  4  3  1  0  0  0  0
  5  4  2  0  0  0  0
  6  5  1  0  0  0  0
  6  1  2  0  0  0  0
  9  5  1  0  0  0  0
 10  6  1  0  0  0  0
 11  1  1  0  0  0  0
 11 14  1  0  0  0  0
 12 11  2  0  0  0  0
 13 11  2  0  0  0  0
 14 24  2  0  0  0  0
 14 15  1  0  0  0  0
 15 16  1  0  0  0  0
 15 17  2  0  0  0  0
 18 17  1  0  0  0  0
 19 18  2  0  0  0  0
 20 19  1  0  0  0  0
 21 20  2  0  0  0  0
 22 23  2  0  0  0  0
 22 21  1  0  0  0  0
 23 24  1  0  0  0  0
 24 19  1  0  0  0  0
 26 32  1  0  0  0  0
 26 31  1  0  0  0  0
 27 26  2  0  0  0  0
 28 27  1  0  0  0  0
 28 29  2  0  0  0  0
 29 30  1  0  0  0  0
 30 31  2  0  0  0  0
 30 25  1  0  0  0  0
 33 27  1  0  0  0  0
 34 28  1  0  0  0  0
 35 34  1  0  0  0  0
 36 34  1  0  0  0  0
 37 34  1  0  0  0  0
 37 40  1  0  0  0  0
 38 37  1  0  0  0  0
 39 37  1  0  0  0  0
 40 41  2  0  0  0  0
 41 42  1  0  0  0  0
 42 43  1  0  0  0  0
 42 45  1  0  0  0  0
 44 42  1  0  0  0  0
M  END
>  <minimizedAffinity>
-6.14487886

$$$$

 OpenBabel03242517583D

 45 48  0  0  0  0  0  0  0  0999 V2000
   41.4290   28.1150   40.5810 C   0  0  0  0  0  0  0  0  0  0  0  0
   41.3030   29.4040   40.1660 C   0  0  0  0  0  0  0  0  0  0  0  0
   41.6650   29.7320   38.8760 C   0  0  0  0  0  0  0  0  0  0  0  0
   42.1520   28.8030   37.9780 C   0  0  0  0  0  0  0  0  0  0  0  0
   42.2800   27.4890   38.3950 C   0  0  0  0  0  0  0  0  0  0  0  0
   41.9150   27.1610   39.6950 C   0  0  0  0  0  0  0  0  0  0  0  0
   41.5990   30.7300   38.4640 H   0  0  0  0  0  0  0  0  0  0  0  0
   42.4460   29.0010   36.9690 H   0  0  0  0  0  0  0  0  0  0  0  0
   42.6470   26.6620   37.7920 H   0  0  0  0  0  0  0  0  0  0  0  0
   41.9860   26.1620   40.0940 H   0  0  0  0  0  0  0  0  0  0  0  0
   41.0390   27.7820   42.2330 S   0  0  0  0  0  0  0  0  0  0  0  0
   41.6880   28.7590   43.1750 O   0  0  0  0  0  0  0  0  0  0  0  0
   41.6920   26.4250   42.5510 O   0  0  0  0  0  0  0  0  0  0  0  0
   39.3720   27.5260   42.5840 C   0  0  0  0  0  0  0  0  0  0  0  0
   38.5920   28.4440   43.2980 C   0  0  0  0  0  0  0  0  0  0  0  0
   39.0950   29.3790   43.5790 H   0  0  0  0  0  0  0  0  0  0  0  0
   37.2750   28.3010   43.6800 C   0  0  0  0  0  3  0  0  0  0  0  0
   36.6530   27.1240   43.3210 C   0  0  0  0  0  3  0  0  0  0  0  0
   37.3320   26.1540   42.6140 C   0  0  0  0  0  0  0  0  0  0  0  0
   36.6610   25.0080   42.2400 C   0  0  0  0  0  3  0  0  0  0  0  0
   37.3050   24.0270   41.4890 C   0  0  0  0  0  3  0  0  0  0  0  0
   38.6430   24.2020   41.1110 C   0  0  0  0  0  3  0  0  0  0  0  0
   39.2440   25.3580   41.5160 C   0  0  0  0  0  3  0  0  0  0  0  0
   38.6500   26.3790   42.2710 C   0  0  0  0  0  0  0  0  0  0  0  0
   40.8330   30.4830   40.8910 O   0  0  0  0  0  0  0  0  0  0  0  0
   38.7020   33.2920   40.6130 C   0  0  0  0  0  0  0  0  0  0  0  0
   37.4900   32.7080   40.2160 C   0  0  0  0  0  0  0  0  0  0  0  0
   37.4220   31.3520   40.0490 C   0  0  0  0  0  0  0  0  0  0  0  0
   38.5450   30.6720   40.2840 N   0  0  0  0  0  0  0  0  0  0  0  0
   39.6850   31.1960   40.6530 C   0  0  0  0  0  0  0  0  0  0  0  0
   39.7680   32.5320   40.8230 N   0  0  0  0  0  0  0  0  0  0  0  0
   38.7610   34.3730   40.7480 H   0  0  0  0  0  0  0  0  0  0  0  0
   36.6690   33.3700   40.0640 H   0  0  0  0  0  0  0  0  0  0  0  0
   36.1980   30.6550   39.6420 C   0  0  0  0  0  0  0  0  0  0  0  0
   35.3680   31.3800   39.5510 H   0  0  0  0  0  0  0  0  0  0  0  0
   36.3500   30.2160   38.6330 H   0  0  0  0  0  0  0  0  0  0  0  0
   35.8020   29.5370   40.5580 C   0  0  0  0  0  0  0  0  0  0  0  0
   36.2520   29.5110   41.5360 H   0  0  0  0  0  0  0  0  0  0  0  0
   34.7010   29.7200   40.7710 H   0  0  0  0  0  0  0  0  0  0  0  0
   35.8190   28.2170   39.9190 C   0  0  0  0  0  3  0  0  0  0  0  0
   36.6260   27.3790   39.2840 C   0  0  0  0  0  3  0  0  0  0  0  0
   36.2280   26.0670   38.6290 C   0  0  0  0  0  0  0  0  0  0  0  0
   36.4930   26.0670   37.5570 H   0  0  0  0  0  0  0  0  0  0  0  0
   36.7010   25.2650   39.2160 H   0  0  0  0  0  0  0  0  0  0  0  0
   35.1170   26.0400   38.6820 H   0  0  0  0  0  0  0  0  0  0  0  0
  1 11  1  0  0  0  0
  2  1  1  0  0  0  0
  2 25  1  0  0  0  0
  3  2  2  0  0  0  0
  4  5  2  0  0  0  0
  4  3  1  0  0  0  0
  5  6  1  0  0  0  0
  6 10  1  0  0  0  0
  6  1  2  0  0  0  0
  7  3  1  0  0  0  0
  8  4  1  0  0  0  0
  9  5  1  0  0  0  0
 11 13  2  0  0  0  0
 11 14  1  0  0  0  0
 11 12  2  0  0  0  0
 14 15  1  0  0  0  0
 15 16  1  0  0  0  0
 15 17  2  0  0  0  0
 18 17  1  0  0  0  0
 19 18  2  0  0  0  0
 20 19  1  0  0  0  0
 21 20  2  0  0  0  0
 22 21  1  0  0  0  0
 22 23  2  0  0  0  0
 23 24  1  0  0  0  0
 24 14  2  0  0  0  0
 24 19  1  0  0  0  0
 26 32  1  0  0  0  0
 26 31  1  0  0  0  0
 27 26  2  0  0  0  0
 28 27  1  0  0  0  0
 28 29  2  0  0  0  0
 29 30  1  0  0  0  0
 30 31  2  0  0  0  0
 30 25  1  0  0  0  0
 33 27  1  0  0  0  0
 34 28  1  0  0  0  0
 34 37  1  0  0  0  0
 35 34  1  0  0  0  0
 36 34  1  0  0  0  0
 37 39  1  0  0  0  0
 37 38  1  0  0  0  0
 40 37  1  0  0  0  0
 41 40  2  0  0  0  0
 42 45  1  0  0  0  0
 42 44  1  0  0  0  0
 42 41  1  0  0  0  0
 43 42  1  0  0  0  0
M  END
>  <minimizedAffinity>
-5.9856472

$$$$

 OpenBabel03242517583D

 45 48  0  0  0  0  0  0  0  0999 V2000
   38.5790   28.3650   41.4850 C   0  0  0  0  0  0  0  0  0  0  0  0
   38.2930   27.0360   41.4620 C   0  0  0  0  0  0  0  0  0  0  0  0
   37.5210   26.4990   42.4710 C   0  0  0  0  0  0  0  0  0  0  0  0
   37.0180   27.2570   43.5100 C   0  0  0  0  0  0  0  0  0  0  0  0
   37.3040   28.6110   43.5360 C   0  0  0  0  0  0  0  0  0  0  0  0
   38.0830   29.1490   42.5190 C   0  0  0  0  0  0  0  0  0  0  0  0
   37.2460   25.4550   42.5330 H   0  0  0  0  0  0  0  0  0  0  0  0
   36.4150   26.8940   44.3160 H   0  0  0  0  0  0  0  0  0  0  0  0
   36.9720   29.3180   44.2920 H   0  0  0  0  0  0  0  0  0  0  0  0
   38.3500   30.1930   42.4690 H   0  0  0  0  0  0  0  0  0  0  0  0
   39.6220   28.9630   40.2400 S   0  0  0  0  0  0  0  0  0  0  0  0
   39.1190   28.6130   38.8660 O   0  0  0  0  0  0  0  0  0  0  0  0
   40.9420   28.1880   40.3930 O   0  0  0  0  0  0  0  0  0  0  0  0
   40.0970   30.6140   40.3740 C   0  0  0  0  0  0  0  0  0  0  0  0
   41.3760   31.0090   40.7890 C   0  0  0  0  0  0  0  0  0  0  0  0
   42.0890   30.1950   40.9720 H   0  0  0  0  0  0  0  0  0  0  0  0
   41.8270   32.2960   40.9860 C   0  0  0  0  0  3  0  0  0  0  0  0
   40.9230   33.3100   40.7510 C   0  0  0  0  0  3  0  0  0  0  0  0
   39.6380   33.0280   40.3380 C   0  0  0  0  0  0  0  0  0  0  0  0
   38.7770   34.0740   40.0750 C   0  0  0  0  0  3  0  0  0  0  0  0
   37.4860   33.8260   39.6160 C   0  0  0  0  0  3  0  0  0  0  0  0
   37.0550   32.5070   39.4190 C   0  0  0  0  0  3  0  0  0  0  0  0
   37.9580   31.5230   39.7000 C   0  0  0  0  0  3  0  0  0  0  0  0
   39.2680   31.7100   40.1640 C   0  0  0  0  0  0  0  0  0  0  0  0
   38.6840   26.1030   40.5200 O   0  0  0  0  0  0  0  0  0  0  0  0
   38.3460   22.5860   40.3710 C   0  0  0  0  0  0  0  0  0  0  0  0
   37.0560   22.4330   39.8410 C   0  0  0  0  0  0  0  0  0  0  0  0
   36.3170   23.5450   39.5420 C   0  0  0  0  0  0  0  0  0  0  0  0
   36.8990   24.7210   39.7830 N   0  0  0  0  0  0  0  0  0  0  0  0
   38.0990   24.8860   40.2760 C   0  0  0  0  0  0  0  0  0  0  0  0
   38.8400   23.7990   40.5760 N   0  0  0  0  0  0  0  0  0  0  0  0
   38.9380   21.7020   40.6100 H   0  0  0  0  0  0  0  0  0  0  0  0
   36.7140   21.4340   39.6970 H   0  0  0  0  0  0  0  0  0  0  0  0
   34.9640   23.4820   38.9810 C   0  0  0  0  0  0  0  0  0  0  0  0
   34.3240   24.2420   39.4660 H   0  0  0  0  0  0  0  0  0  0  0  0
   35.0070   23.7440   37.9030 H   0  0  0  0  0  0  0  0  0  0  0  0
   34.3240   22.1310   39.0870 C   0  0  0  0  0  0  0  0  0  0  0  0
   34.6600   21.3670   38.4070 H   0  0  0  0  0  0  0  0  0  0  0  0
   34.6390   21.7460   40.1070 H   0  0  0  0  0  0  0  0  0  0  0  0
   32.8610   22.1780   39.1690 C   0  0  0  0  0  3  0  0  0  0  0  0
   31.8640   22.9720   39.5320 C   0  0  0  0  0  3  0  0  0  0  0  0
   30.3900   22.6060   39.5780 C   0  0  0  0  0  0  0  0  0  0  0  0
   29.9800   22.7520   40.5930 H   0  0  0  0  0  0  0  0  0  0  0  0
   29.8930   23.1990   38.7950 H   0  0  0  0  0  0  0  0  0  0  0  0
   30.3550   21.5130   39.3760 H   0  0  0  0  0  0  0  0  0  0  0  0
  1  6  1  0  0  0  0
  2  1  2  0  0  0  0
  2  3  1  0  0  0  0
  3  7  1  0  0  0  0
  3  4  2  0  0  0  0
  4  5  1  0  0  0  0
  4  8  1  0  0  0  0
  5  9  1  0  0  0  0
  6  5  2  0  0  0  0
 10  6  1  0  0  0  0
 11 14  1  0  0  0  0
 11 13  2  0  0  0  0
 11  1  1  0  0  0  0
 12 11  2  0  0  0  0
 14 15  1  0  0  0  0
 15 16  1  0  0  0  0
 15 17  2  0  0  0  0
 18 17  1  0  0  0  0
 19 18  2  0  0  0  0
 20 19  1  0  0  0  0
 21 20  2  0  0  0  0
 22 21  1  0  0  0  0
 22 23  2  0  0  0  0
 23 24  1  0  0  0  0
 24 19  1  0  0  0  0
 24 14  2  0  0  0  0
 25  2  1  0  0  0  0
 26 31  1  0  0  0  0
 26 32  1  0  0  0  0
 27 26  2  0  0  0  0
 28 29  2  0  0  0  0
 28 27  1  0  0  0  0
 29 30  1  0  0  0  0
 30 25  1  0  0  0  0
 30 31  2  0  0  0  0
 33 27  1  0  0  0  0
 34 37  1  0  0  0  0
 34 35  1  0  0  0  0
 34 28  1  0  0  0  0
 36 34  1  0  0  0  0
 37 40  1  0  0  0  0
 37 39  1  0  0  0  0
 38 37  1  0  0  0  0
 40 41  2  0  0  0  0
 41 42  1  0  0  0  0
 42 43  1  0  0  0  0
 44 42  1  0  0  0  0
 45 42  1  0  0  0  0
M  END
>  <minimizedAffinity>
-5.92877626

$$$$

 OpenBabel03242517583D

 45 48  0  0  0  0  0  0  0  0999 V2000
   38.3930   26.8640   41.8390 C   0  0  0  0  0  0  0  0  0  0  0  0
   39.0720   28.0050   42.1320 C   0  0  0  0  0  0  0  0  0  0  0  0
   38.5340   28.8900   43.0430 C   0  0  0  0  0  0  0  0  0  0  0  0
   37.3290   28.6660   43.6800 C   0  0  0  0  0  0  0  0  0  0  0  0
   36.6360   27.5050   43.3870 C   0  0  0  0  0  0  0  0  0  0  0  0
   37.1790   26.6150   42.4670 C   0  0  0  0  0  0  0  0  0  0  0  0
   39.0040   29.8200   43.3340 H   0  0  0  0  0  0  0  0  0  0  0  0
   36.8670   29.3160   44.3930 H   0  0  0  0  0  0  0  0  0  0  0  0
   35.6820   27.2060   43.8150 H   0  0  0  0  0  0  0  0  0  0  0  0
   36.7000   25.6910   42.1870 H   0  0  0  0  0  0  0  0  0  0  0  0
   39.0760   25.8350   40.6270 S   0  0  0  0  0  0  0  0  0  0  0  0
   40.4840   25.4260   40.9620 O   0  0  0  0  0  0  0  0  0  0  0  0
   39.2020   26.7050   39.3640 O   0  0  0  0  0  0  0  0  0  0  0  0
   38.1010   24.5100   40.1160 C   0  0  0  0  0  0  0  0  0  0  0  0
   38.3800   23.1800   40.4580 C   0  0  0  0  0  0  0  0  0  0  0  0
   39.2370   23.0310   41.1280 H   0  0  0  0  0  0  0  0  0  0  0  0
   37.6990   22.0540   40.0480 C   0  0  0  0  0  3  0  0  0  0  0  0
   36.6240   22.2540   39.2080 C   0  0  0  0  0  3  0  0  0  0  0  0
   36.2650   23.5250   38.8130 C   0  0  0  0  0  0  0  0  0  0  0  0
   35.1590   23.6840   38.0040 C   0  0  0  0  0  3  0  0  0  0  0  0
   34.7420   24.9570   37.6200 C   0  0  0  0  0  3  0  0  0  0  0  0
   35.4500   26.0850   38.0560 C   0  0  0  0  0  3  0  0  0  0  0  0
   36.5340   25.8530   38.8520 C   0  0  0  0  0  3  0  0  0  0  0  0
   37.0010   24.5990   39.2700 C   0  0  0  0  0  0  0  0  0  0  0  0
   40.2880   28.4200   41.6220 O   0  0  0  0  0  0  0  0  0  0  0  0
   42.1090   30.8380   39.7930 C   0  0  0  0  0  0  0  0  0  0  0  0
   41.0870   31.6260   39.2430 C   0  0  0  0  0  0  0  0  0  0  0  0
   39.7820   31.3150   39.5100 C   0  0  0  0  0  0  0  0  0  0  0  0
   39.5770   30.2560   40.2950 N   0  0  0  0  0  0  0  0  0  0  0  0
   40.5140   29.5080   40.8160 C   0  0  0  0  0  0  0  0  0  0  0  0
   41.8060   29.8020   40.5630 N   0  0  0  0  0  0  0  0  0  0  0  0
   43.1500   31.0830   39.5830 H   0  0  0  0  0  0  0  0  0  0  0  0
   41.3920   32.4460   38.6340 H   0  0  0  0  0  0  0  0  0  0  0  0
   38.6500   32.0840   38.9850 C   0  0  0  0  0  0  0  0  0  0  0  0
   38.9960   33.0840   38.6630 H   0  0  0  0  0  0  0  0  0  0  0  0
   38.2580   31.5770   38.0780 H   0  0  0  0  0  0  0  0  0  0  0  0
   37.5090   32.2230   39.9460 C   0  0  0  0  0  0  0  0  0  0  0  0
   37.7410   32.5220   40.9550 H   0  0  0  0  0  0  0  0  0  0  0  0
   36.8980   33.0890   39.5400 H   0  0  0  0  0  0  0  0  0  0  0  0
   36.5750   31.0930   39.9180 C   0  0  0  0  0  3  0  0  0  0  0  0
   35.8900   30.2890   40.7190 C   0  0  0  0  0  3  0  0  0  0  0  0
   35.0630   29.0870   40.2960 C   0  0  0  0  0  0  0  0  0  0  0  0
   35.4190   28.1690   40.7960 H   0  0  0  0  0  0  0  0  0  0  0  0
   34.0110   29.3390   40.5010 H   0  0  0  0  0  0  0  0  0  0  0  0
   35.2700   28.9580   39.2110 H   0  0  0  0  0  0  0  0  0  0  0  0
  1  2  2  0  0  0  0
  1  6  1  0  0  0  0
  2  3  1  0  0  0  0
  3  7  1  0  0  0  0
  3  4  2  0  0  0  0
  4  8  1  0  0  0  0
  5  4  1  0  0  0  0
  5  9  1  0  0  0  0
  6  5  2  0  0  0  0
 10  6  1  0  0  0  0
 11 12  2  0  0  0  0
 11  1  1  0  0  0  0
 13 11  2  0  0  0  0
 14 15  1  0  0  0  0
 14 11  1  0  0  0  0
 15 16  1  0  0  0  0
 17 15  2  0  0  0  0
 18 17  1  0  0  0  0
 19 18  2  0  0  0  0
 19 24  1  0  0  0  0
 20 19  1  0  0  0  0
 21 20  2  0  0  0  0
 21 22  1  0  0  0  0
 22 23  2  0  0  0  0
 23 24  1  0  0  0  0
 24 14  2  0  0  0  0
 25  2  1  0  0  0  0
 26 31  1  0  0  0  0
 27 28  1  0  0  0  0
 27 26  2  0  0  0  0
 28 29  2  0  0  0  0
 29 30  1  0  0  0  0
 30 25  1  0  0  0  0
 31 30  2  0  0  0  0
 32 26  1  0  0  0  0
 33 27  1  0  0  0  0
 34 28  1  0  0  0  0
 34 37  1  0  0  0  0
 35 34  1  0  0  0  0
 36 34  1  0  0  0  0
 37 38  1  0  0  0  0
 39 37  1  0  0  0  0
 40 37  1  0  0  0  0
 40 41  2  0  0  0  0
 42 44  1  0  0  0  0
 42 41  1  0  0  0  0
 42 43  1  0  0  0  0
 45 42  1  0  0  0  0
M  END
>  <minimizedAffinity>
-5.8559556

$$$$

 OpenBabel03242517583D

 45 48  0  0  0  0  0  0  0  0999 V2000
   37.5940   30.4420   40.6840 C   0  0  0  0  0  0  0  0  0  0  0  0
   37.4150   29.4650   41.6130 C   0  0  0  0  0  0  0  0  0  0  0  0
   36.2570   28.7170   41.5840 C   0  0  0  0  0  0  0  0  0  0  0  0
   35.2630   28.9160   40.6460 C   0  0  0  0  0  0  0  0  0  0  0  0
   35.4420   29.9070   39.6970 C   0  0  0  0  0  0  0  0  0  0  0  0
   36.6100   30.6600   39.7280 C   0  0  0  0  0  0  0  0  0  0  0  0
   36.0310   27.9230   42.2830 H   0  0  0  0  0  0  0  0  0  0  0  0
   34.3470   28.3660   40.5770 H   0  0  0  0  0  0  0  0  0  0  0  0
   34.7420   30.1660   38.9050 H   0  0  0  0  0  0  0  0  0  0  0  0
   36.8220   31.4490   39.0250 H   0  0  0  0  0  0  0  0  0  0  0  0
   39.0280   31.4010   40.8220 S   0  0  0  0  0  0  0  0  0  0  0  0
   39.7770   31.1160   42.0950 O   0  0  0  0  0  0  0  0  0  0  0  0
   38.5460   32.8560   40.9590 O   0  0  0  0  0  0  0  0  0  0  0  0
   40.0550   31.4380   39.4390 C   0  0  0  0  0  0  0  0  0  0  0  0
   40.5030   32.6280   38.8520 C   0  0  0  0  0  0  0  0  0  0  0  0
   40.2060   33.5520   39.3650 H   0  0  0  0  0  0  0  0  0  0  0  0
   41.2710   32.7600   37.7150 C   0  0  0  0  0  3  0  0  0  0  0  0
   41.6380   31.5920   37.0800 C   0  0  0  0  0  3  0  0  0  0  0  0
   41.2500   30.3660   37.5780 C   0  0  0  0  0  0  0  0  0  0  0  0
   41.6730   29.2210   36.9350 C   0  0  0  0  0  3  0  0  0  0  0  0
   41.3330   27.9660   37.4340 C   0  0  0  0  0  3  0  0  0  0  0  0
   40.5570   27.8620   38.5960 C   0  0  0  0  0  3  0  0  0  0  0  0
   40.1730   29.0350   39.1780 C   0  0  0  0  0  3  0  0  0  0  0  0
   40.4820   30.3250   38.7230 C   0  0  0  0  0  0  0  0  0  0  0  0
   38.2780   29.0950   42.6270 O   0  0  0  0  0  0  0  0  0  0  0  0
   40.6800   26.6890   43.6010 C   0  0  0  0  0  0  0  0  0  0  0  0
   40.0580   25.4850   43.2390 C   0  0  0  0  0  0  0  0  0  0  0  0
   38.8180   25.5170   42.6630 C   0  0  0  0  0  0  0  0  0  0  0  0
   38.2820   26.7250   42.4850 N   0  0  0  0  0  0  0  0  0  0  0  0
   38.8430   27.8590   42.8160 C   0  0  0  0  0  0  0  0  0  0  0  0
   40.0670   27.8440   43.3840 N   0  0  0  0  0  0  0  0  0  0  0  0
   41.6690   26.6680   44.0600 H   0  0  0  0  0  0  0  0  0  0  0  0
   40.6020   24.5890   43.4360 H   0  0  0  0  0  0  0  0  0  0  0  0
   38.0960   24.3110   42.2480 C   0  0  0  0  0  0  0  0  0  0  0  0
   38.7830   23.6300   41.7110 H   0  0  0  0  0  0  0  0  0  0  0  0
   37.7510   23.7660   43.1520 H   0  0  0  0  0  0  0  0  0  0  0  0
   36.8870   24.5850   41.4060 C   0  0  0  0  0  0  0  0  0  0  0  0
   36.0890   23.8620   41.4290 H   0  0  0  0  0  0  0  0  0  0  0  0
   36.4250   25.5150   41.8660 H   0  0  0  0  0  0  0  0  0  0  0  0
   37.2050   24.9960   40.0350 C   0  0  0  0  0  3  0  0  0  0  0  0
   36.9620   25.9540   39.1520 C   0  0  0  0  0  3  0  0  0  0  0  0
   37.4110   25.9790   37.7010 C   0  0  0  0  0  0  0  0  0  0  0  0
   36.5440   26.0670   37.0220 H   0  0  0  0  0  0  0  0  0  0  0  0
   38.1450   26.7940   37.6110 H   0  0  0  0  0  0  0  0  0  0  0  0
   37.8570   24.9760   37.5170 H   0  0  0  0  0  0  0  0  0  0  0  0
  1 11  1  0  0  0  0
  1  2  1  0  0  0  0
  2 25  1  0  0  0  0
  3  2  2  0  0  0  0
  3  7  1  0  0  0  0
  4  3  1  0  0  0  0
  5  6  1  0  0  0  0
  5  4  2  0  0  0  0
  6  1  2  0  0  0  0
  8  4  1  0  0  0  0
  9  5  1  0  0  0  0
 10  6  1  0  0  0  0
 11 13  2  0  0  0  0
 11 12  2  0  0  0  0
 14 11  1  0  0  0  0
 15 16  1  0  0  0  0
 15 14  1  0  0  0  0
 17 15  2  0  0  0  0
 18 19  2  0  0  0  0
 18 17  1  0  0  0  0
 19 24  1  0  0  0  0
 20 21  2  0  0  0  0
 20 19  1  0  0  0  0
 21 22  1  0  0  0  0
 22 23  2  0  0  0  0
 24 23  1  0  0  0  0
 24 14  2  0  0  0  0
 25 30  1  0  0  0  0
 26 32  1  0  0  0  0
 27 33  1  0  0  0  0
 27 26  2  0  0  0  0
 28 27  1  0  0  0  0
 29 28  2  0  0  0  0
 29 30  1  0  0  0  0
 30 31  2  0  0  0  0
 31 26  1  0  0  0  0
 34 28  1  0  0  0  0
 34 36  1  0  0  0  0
 35 34  1  0  0  0  0
 37 38  1  0  0  0  0
 37 39  1  0  0  0  0
 37 34  1  0  0  0  0
 40 37  1  0  0  0  0
 41 40  2  0  0  0  0
 42 41  1  0  0  0  0
 43 42  1  0  0  0  0
 44 42  1  0  0  0  0
 45 42  1  0  0  0  0
M  END
>  <minimizedAffinity>
-5.85533857

$$$$

 OpenBabel03242517583D

 45 48  0  0  0  0  0  0  0  0999 V2000
   39.5360   30.5890   38.9170 C   0  0  0  0  0  0  0  0  0  0  0  0
   39.6720   29.2460   39.0860 C   0  0  0  0  0  0  0  0  0  0  0  0
   40.7990   28.6190   38.5960 C   0  0  0  0  0  0  0  0  0  0  0  0
   41.8050   29.3000   37.9390 C   0  0  0  0  0  0  0  0  0  0  0  0
   41.6720   30.6670   37.7670 C   0  0  0  0  0  0  0  0  0  0  0  0
   40.5350   31.2960   38.2600 C   0  0  0  0  0  0  0  0  0  0  0  0
   40.9890   27.5580   38.6840 H   0  0  0  0  0  0  0  0  0  0  0  0
   42.6990   28.8660   37.5400 H   0  0  0  0  0  0  0  0  0  0  0  0
   42.3870   31.3200   37.2710 H   0  0  0  0  0  0  0  0  0  0  0  0
   40.3590   32.3550   38.1650 H   0  0  0  0  0  0  0  0  0  0  0  0
   38.0630   31.3020   39.4780 S   0  0  0  0  0  0  0  0  0  0  0  0
   37.9490   32.7490   39.0800 O   0  0  0  0  0  0  0  0  0  0  0  0
   38.1640   31.3160   41.0130 O   0  0  0  0  0  0  0  0  0  0  0  0
   36.6210   30.4120   39.1700 C   0  0  0  0  0  0  0  0  0  0  0  0
   35.7520   29.9900   40.1850 C   0  0  0  0  0  0  0  0  0  0  0  0
   36.0150   30.3130   41.2000 H   0  0  0  0  0  0  0  0  0  0  0  0
   34.6140   29.2250   40.0440 C   0  0  0  0  0  3  0  0  0  0  0  0
   34.2940   28.8260   38.7640 C   0  0  0  0  0  3  0  0  0  0  0  0
   35.0830   29.1890   37.6930 C   0  0  0  0  0  0  0  0  0  0  0  0
   34.7040   28.8030   36.4240 C   0  0  0  0  0  3  0  0  0  0  0  0
   35.4550   29.1870   35.3160 C   0  0  0  0  0  3  0  0  0  0  0  0
   36.6040   29.9710   35.4880 C   0  0  0  0  0  3  0  0  0  0  0  0
   36.9200   30.3150   36.7700 C   0  0  0  0  0  3  0  0  0  0  0  0
   36.2050   29.9580   37.9220 C   0  0  0  0  0  0  0  0  0  0  0  0
   38.7980   28.3800   39.7160 O   0  0  0  0  0  0  0  0  0  0  0  0
   39.8770   27.8280   43.0390 C   0  0  0  0  0  0  0  0  0  0  0  0
   39.4890   26.4970   43.2600 C   0  0  0  0  0  0  0  0  0  0  0  0
   38.8610   25.8070   42.2600 C   0  0  0  0  0  0  0  0  0  0  0  0
   38.6600   26.4710   41.1210 N   0  0  0  0  0  0  0  0  0  0  0  0
   39.0120   27.7100   40.8940 C   0  0  0  0  0  0  0  0  0  0  0  0
   39.6330   28.4040   41.8700 N   0  0  0  0  0  0  0  0  0  0  0  0
   40.3780   28.3820   43.8330 H   0  0  0  0  0  0  0  0  0  0  0  0
   39.7140   26.0880   44.2180 H   0  0  0  0  0  0  0  0  0  0  0  0
   38.4260   24.4140   42.3990 C   0  0  0  0  0  0  0  0  0  0  0  0
   38.9810   23.9300   43.2240 H   0  0  0  0  0  0  0  0  0  0  0  0
   37.3530   24.3960   42.6850 H   0  0  0  0  0  0  0  0  0  0  0  0
   38.5660   23.6050   41.1450 C   0  0  0  0  0  0  0  0  0  0  0  0
   39.2990   23.9260   40.4250 H   0  0  0  0  0  0  0  0  0  0  0  0
   38.9550   22.5980   41.4980 H   0  0  0  0  0  0  0  0  0  0  0  0
   37.2860   23.2810   40.5080 C   0  0  0  0  0  3  0  0  0  0  0  0
   36.1170   23.8170   40.1880 C   0  0  0  0  0  3  0  0  0  0  0  0
   34.9230   23.0900   39.5960 C   0  0  0  0  0  0  0  0  0  0  0  0
   34.0330   23.2020   40.2400 H   0  0  0  0  0  0  0  0  0  0  0  0
   34.7950   23.4740   38.5710 H   0  0  0  0  0  0  0  0  0  0  0  0
   35.1970   22.0120   39.6190 H   0  0  0  0  0  0  0  0  0  0  0  0
  1  2  1  0  0  0  0
  1 11  1  0  0  0  0
  2 25  1  0  0  0  0
  3  7  1  0  0  0  0
  3  2  2  0  0  0  0
  4  3  1  0  0  0  0
  5  4  2  0  0  0  0
  5  6  1  0  0  0  0
  6  1  2  0  0  0  0
  8  4  1  0  0  0  0
  9  5  1  0  0  0  0
 10  6  1  0  0  0  0
 11 13  2  0  0  0  0
 12 11  2  0  0  0  0
 14 11  1  0  0  0  0
 14 15  1  0  0  0  0
 15 16  1  0  0  0  0
 17 15  2  0  0  0  0
 18 17  1  0  0  0  0
 19 24  1  0  0  0  0
 19 18  2  0  0  0  0
 20 19  1  0  0  0  0
 21 22  1  0  0  0  0
 21 20  2  0  0  0  0
 22 23  2  0  0  0  0
 23 24  1  0  0  0  0
 24 14  2  0  0  0  0
 25 30  1  0  0  0  0
 26 27  1  0  0  0  0
 26 32  1  0  0  0  0
 27 33  1  0  0  0  0
 28 34  1  0  0  0  0
 28 27  2  0  0  0  0
 29 28  1  0  0  0  0
 30 29  2  0  0  0  0
 30 31  1  0  0  0  0
 31 26  2  0  0  0  0
 34 36  1  0  0  0  0
 34 35  1  0  0  0  0
 37 39  1  0  0  0  0
 37 34  1  0  0  0  0
 38 37  1  0  0  0  0
 40 37  1  0  0  0  0
 41 40  2  0  0  0  0
 42 45  1  0  0  0  0
 42 41  1  0  0  0  0
 42 43  1  0  0  0  0
 44 42  1  0  0  0  0
M  END
>  <minimizedAffinity>
-5.85341167

$$$$
