REMARK  Name = 
REMARK  3 active torsions:
REMARK  status: ('A' for Active; 'I' for Inactive)
REMARK    1  A    between atoms: C_2  and  N_12
REMARK    2  A    between atoms: C_11  and  S_13
REMARK    3  A    between atoms: S_13  and  C_25
REMARK                            x       y       z     vdW  Elec       q    Type
REMARK                         _______ _______ _______ _____ _____    ______ ____
ROOT
ATOM      1  C   UNL     1      44.474  35.738  44.999  0.00  0.00    +0.000 A 
ATOM      2  C   UNL     1      45.119  35.712  43.751  0.00  0.00    +0.000 A 
ATOM      3  C   UNL     1      46.023  34.726  43.494  0.00  0.00    +0.000 A 
ATOM      4  N   UNL     1      46.241  33.823  44.479  0.00  0.00    +0.000 NA
ATOM      5  C   UNL     1      45.631  33.849  45.657  0.00  0.00    +0.000 A 
ATOM      6  N   UNL     1      44.733  34.808  45.943  0.00  0.00    +0.000 NA
ATOM      7  N   UNL     1      45.952  32.842  46.600  0.00  0.00    +0.000 N 
ATOM      8  C   UNL     1      45.169  32.571  47.812  0.00  0.00    +0.000 C 
ATOM      9  C   UNL     1      46.256  32.242  48.814  0.00  0.00    +0.000 C 
ATOM     10  C   UNL     1      47.529  32.061  48.035  0.00  0.00    +0.000 C 
ATOM     11  C   UNL     1      47.028  31.902  46.625  0.00  0.00    +0.000 C 
ATOM     12  H   UNL     1      43.747  36.490  45.269  0.00  0.00    +0.000 HD
ATOM     13  H   UNL     1      46.517  34.709  42.533  0.00  0.00    +0.000 HD
ATOM     14  H   UNL     1      44.618  33.497  48.091  0.00  0.00    +0.000 HD
ATOM     15  H   UNL     1      44.476  31.717  47.639  0.00  0.00    +0.000 HD
ATOM     16  H   UNL     1      46.383  33.151  49.461  0.00  0.00    +0.000 HD
ATOM     17  H   UNL     1      46.020  31.406  49.474  0.00  0.00    +0.000 HD
ATOM     18  H   UNL     1      48.155  32.996  48.065  0.00  0.00    +0.000 HD
ATOM     19  H   UNL     1      48.141  31.209  48.346  0.00  0.00    +0.000 HD
ATOM     20  H   UNL     1      47.783  32.209  45.871  0.00  0.00    +0.000 HD
ENDROOT
BRANCH   2  21
ATOM     21  N   UNL     1      44.764  36.750  42.827  0.00  0.00    +0.000 N 
ATOM     22  H   UNL     1      43.998  36.315  42.264  0.00  0.00    +0.000 HD
ATOM     23  H   UNL     1      45.164  37.691  42.740  0.00  0.00    +0.000 HD
ENDBRANCH   2  21
BRANCH  11  24
ATOM     24  S   UNL     1      46.463  30.200  46.377  0.00  0.00    +0.000 S 
BRANCH  24  25
ATOM     25  C   UNL     1      47.835  29.076  46.416  0.00  0.00    +0.000 A 
ATOM     26  C   UNL     1      48.829  29.280  45.455  0.00  0.00    +0.000 A 
ATOM     27  H   UNL     1      48.842  30.061  44.685  0.00  0.00    +0.000 HD
ATOM     28  C   UNL     1      49.932  28.428  45.436  0.00  0.00    +0.000 A 
ATOM     29  C   UNL     1      50.068  27.397  46.335  0.00  0.00    +0.000 A 
ATOM     30  C   UNL     1      49.065  27.213  47.284  0.00  0.00    +0.000 A 
ATOM     31  C   UNL     1      49.189  26.173  48.200  0.00  0.00    +0.000 A 
ATOM     32  C   UNL     1      48.157  26.048  49.114  0.00  0.00    +0.000 A 
ATOM     33  C   UNL     1      47.040  26.861  49.181  0.00  0.00    +0.000 A 
ATOM     34  C   UNL     1      46.999  27.860  48.242  0.00  0.00    +0.000 A 
ATOM     35  C   UNL     1      47.976  28.040  47.316  0.00  0.00    +0.000 A 
ENDBRANCH  24  25
ENDBRANCH  11  24
TORSDOF 3
