
 OpenBabel03242519413D

 31 33  0  0  0  0  0  0  0  0999 V2000
   48.0900   32.7160   41.6530 O   0  0  0  0  0  0  0  0  0  0  0  0
   47.0890   33.8530   41.3140 P   0  0  2  0  0  0  0  0  0  0  0  0
   45.5810   33.4910   42.0500 O   0  0  0  0  0  0  0  0  0  0  0  0
   44.3510   35.8810   44.5080 C   0  0  0  0  0  0  0  0  0  0  0  0
   44.6440   35.2800   43.2610 C   0  0  0  0  0  0  0  0  0  0  0  0
   45.3100   34.0460   43.2820 C   0  0  0  0  0  0  0  0  0  0  0  0
   45.6310   33.5040   44.4720 N   0  0  0  0  0  0  0  0  0  0  0  0
   45.3380   34.1030   45.6480 C   0  0  0  0  0  0  0  0  0  0  0  0
   44.7020   35.2860   45.6760 N   0  0  0  0  0  0  0  0  0  0  0  0
   43.8380   36.8330   44.5000 H   0  0  0  0  0  0  0  0  0  0  0  0
   44.3430   35.7940   42.3700 H   0  0  0  0  0  0  0  0  0  0  0  0
   45.6340   33.6000   46.5750 H   0  0  0  0  0  0  0  0  0  0  0  0
   46.8790   33.9170   39.6700 O   0  0  0  0  0  0  0  0  0  0  0  0
   45.9460   33.3210   38.8820 C   0  0  0  0  0  0  0  0  0  0  0  0
   46.2760   33.0950   37.5870 O   0  0  0  0  0  0  0  0  0  0  0  0
   44.5840   32.7410   38.8300 C   0  0  0  0  0  0  0  0  0  0  0  0
   44.3720   31.4650   38.2580 C   0  0  0  0  0  0  0  0  0  0  0  0
   45.3160   30.9250   38.0110 H   0  0  0  0  0  0  0  0  0  0  0  0
   43.2270   30.7780   37.9550 C   0  0  0  0  0  3  0  0  0  0  0  0
   42.1180   31.5150   38.2890 C   0  0  0  0  0  3  0  0  0  0  0  0
   42.2280   32.7620   38.8500 C   0  0  0  0  0  0  0  0  0  0  0  0
   41.0980   33.4630   39.2150 C   0  0  0  0  0  3  0  0  0  0  0  0
   41.0420   34.7000   39.8220 C   0  0  0  0  0  3  0  0  0  0  0  0
   42.2950   35.2710   40.0790 C   0  0  0  0  0  3  0  0  0  0  0  0
   43.4370   34.5980   39.7260 C   0  0  0  0  0  3  0  0  0  0  0  0
   43.4500   33.3740   39.1210 C   0  0  0  0  0  0  0  0  0  0  0  0
   47.6930   35.2410   41.9920 O   0  0  0  0  0  0  0  0  0  0  0  0
   48.9200   35.6050   41.4540 C   0  0  0  0  0  0  0  0  0  0  0  0
   49.2920   36.8890   41.8070 F   0  0  0  0  0  0  0  0  0  0  0  0
   49.8660   34.6770   41.7500 F   0  0  0  0  0  0  0  0  0  0  0  0
   48.7470   35.6170   40.0720 F   0  0  0  0  0  0  0  0  0  0  0  0
  2  1  2  1  0  0  0
  2 27  1  0  0  0  0
  2  3  1  0  0  0  0
  3  6  1  0  0  0  0
  4  9  1  0  0  0  0
  5  6  1  0  0  0  0
  5  4  2  0  0  0  0
  6  7  2  0  0  0  0
  7  8  1  0  0  0  0
  8  9  2  0  0  0  0
  8 12  1  0  0  0  0
 10  4  1  0  0  0  0
 11  5  1  0  0  0  0
 13  2  1  0  0  0  0
 14 13  1  0  0  0  0
 15 14  2  0  0  0  0
 16 14  1  0  0  0  0
 16 26  1  0  0  0  0
 17 16  2  0  0  0  0
 18 17  1  0  0  0  0
 19 17  1  0  0  0  0
 19 20  2  0  0  0  0
 20 21  1  0  0  0  0
 21 26  2  0  0  0  0
 21 22  1  0  0  0  0
 22 23  2  0  0  0  0
 23 24  1  0  0  0  0
 25 24  2  0  0  0  0
 26 25  1  0  0  0  0
 28 30  1  0  0  0  0
 28 29  1  0  0  0  0
 28 27  1  0  0  0  0
 31 28  1  0  0  0  0
M  END
>  <minimizedAffinity>
-5.83442259

>  <minimizedRMSD>
2.39852452

$$$$
