
 OpenBabel03242519363D

 26 28  0  0  0  0  0  0  0  0999 V2000
   48.3110   35.0120   40.1460 O   0  0  0  0  0  0  0  0  0  0  0  0
   48.3800   33.7570   40.9900 P   0  0  1  0  0  0  0  0  0  0  0  0
   49.8110   32.9150   40.7290 O   0  0  0  0  0  0  0  0  0  0  0  0
   50.1890   33.1940   39.8560 H   0  0  0  0  0  0  0  0  0  0  0  0
   48.3360   34.2070   42.6530 O   0  0  0  0  0  0  0  0  0  0  0  0
   45.3990   34.0610   44.8120 C   0  0  0  0  0  0  0  0  0  0  0  0
   46.6360   33.7170   44.2260 C   0  0  0  0  0  0  0  0  0  0  0  0
   47.1250   34.5550   43.2200 C   0  0  0  0  0  0  0  0  0  0  0  0
   46.3960   35.6440   42.8620 N   0  0  0  0  0  0  0  0  0  0  0  0
   45.2220   35.9370   43.4460 C   0  0  0  0  0  0  0  0  0  0  0  0
   44.7140   35.1500   44.4240 N   0  0  0  0  0  0  0  0  0  0  0  0
   45.0740   33.3630   45.5930 H   0  0  0  0  0  0  0  0  0  0  0  0
   47.1800   32.8420   44.5430 H   0  0  0  0  0  0  0  0  0  0  0  0
   44.6530   36.8240   43.1380 H   0  0  0  0  0  0  0  0  0  0  0  0
   47.0190   32.8050   40.6920 O   0  0  0  0  0  0  0  0  0  0  0  0
   46.2860   32.7540   39.5350 C   0  0  0  0  0  0  0  0  0  0  0  0
   46.7220   32.2230   38.3390 C   0  0  0  0  0  0  0  0  0  0  0  0
   47.7190   31.8090   38.2970 H   0  0  0  0  0  0  0  0  0  0  0  0
   45.9720   32.1780   37.1800 C   0  0  0  0  0  0  0  0  0  0  0  0
   44.6770   32.7060   37.2040 C   0  0  0  0  0  0  0  0  0  0  0  0
   44.2410   33.2410   38.4130 C   0  0  0  0  0  0  0  0  0  0  0  0
   42.9500   33.7440   38.3610 C   0  0  0  0  0  0  0  0  0  0  0  0
   42.3780   34.3120   39.4950 C   0  0  0  0  0  0  0  0  0  0  0  0
   43.1540   34.3420   40.6400 C   0  0  0  0  0  0  0  0  0  0  0  0
   44.4420   33.8410   40.6940 C   0  0  0  0  0  0  0  0  0  0  0  0
   45.0040   33.2770   39.5580 C   0  0  0  0  0  0  0  0  0  0  0  0
  2  1  2  6  0  0  0
  2  5  1  0  0  0  0
  3  2  1  0  0  0  0
  4  3  1  0  0  0  0
  5  8  1  0  0  0  0
  6 12  1  0  0  0  0
  7 13  1  0  0  0  0
  7  6  2  0  0  0  0
  8  7  1  0  0  0  0
  9  8  2  0  0  0  0
  9 10  1  0  0  0  0
 10 11  2  0  0  0  0
 11  6  1  0  0  0  0
 14 10  1  0  0  0  0
 15  2  1  0  0  0  0
 16 26  1  0  0  0  0
 16 15  1  0  0  0  0
 17 16  2  0  0  0  0
 18 17  1  0  0  0  0
 19 20  2  0  0  0  0
 19 17  1  0  0  0  0
 20 21  1  0  0  0  0
 21 26  1  0  0  0  0
 22 21  2  0  0  0  0
 22 23  1  0  0  0  0
 23 24  2  0  0  0  0
 24 25  1  0  0  0  0
 26 25  2  0  0  0  0
M  END
>  <minimizedAffinity>
-4.57010078

>  <minimizedRMSD>
6.19701862

$$$$
