
 OpenBabel03252501043D

 33 36  0  0  1  0  0  0  0  0999 V2000
   36.8200   29.5160   39.3050 O   0  0  0  0  0  0  0  0  0  0  0  0
   37.3380   31.5510   38.1140 C   0  0  1  0  0  0  0  0  0  0  0  0
   37.6300   30.4800   37.1290 C   0  0  0  0  0  0  0  0  0  0  0  0
   36.5960   30.2880   38.2310 C   0  0  1  0  0  0  0  0  0  0  0  0
   36.7480   32.4440   37.8460 H   0  0  0  0  0  0  0  0  0  0  0  0
   37.2410   30.6690   36.0850 H   0  0  0  0  0  0  0  0  0  0  0  0
   38.4480   29.7670   37.2110 H   0  0  0  0  0  0  0  0  0  0  0  0
   35.5610   30.2600   37.8360 H   0  0  0  0  0  0  0  0  0  0  0  0
   40.6810   31.5030   39.8850 C   0  0  0  0  0  0  0  0  0  0  0  0
   39.7090   31.2590   38.9120 C   0  0  0  0  0  0  0  0  0  0  0  0
   38.4260   31.7830   39.1170 C   0  0  0  0  0  0  0  0  0  0  0  0
   38.1740   32.5030   40.2460 N   0  0  0  0  0  0  0  0  0  0  0  0
   39.1340   32.7270   41.1760 C   0  0  0  0  0  0  0  0  0  0  0  0
   40.3850   32.2230   40.9870 N   0  0  0  0  0  0  0  0  0  0  0  0
   41.6600   31.1070   39.7340 H   0  0  0  0  0  0  0  0  0  0  0  0
   39.9770   30.6930   38.0590 H   0  0  0  0  0  0  0  0  0  0  0  0
   38.8690   33.3070   42.0500 H   0  0  0  0  0  0  0  0  0  0  0  0
   34.3380   29.1220   40.1540 O   0  0  0  0  0  0  0  0  0  0  0  0
   35.7410   29.5310   40.5430 P   0  0  2  0  0  0  0  0  0  0  0  0
   35.6000   31.0270   41.3160 O   0  0  0  0  0  0  0  0  0  0  0  0
   35.2850   31.6820   40.6220 H   0  0  0  0  0  0  0  0  0  0  0  0
   36.2170   28.4140   41.7180 O   0  0  0  0  0  0  0  0  0  0  0  0
   37.5290   28.2630   42.1400 C   0  0  0  0  0  0  0  0  0  0  0  0
   38.3980   29.2920   42.4220 C   0  0  0  0  0  0  0  0  0  0  0  0
   38.0380   30.3000   42.3080 H   0  0  0  0  0  0  0  0  0  0  0  0
   39.6900   29.0110   42.8370 C   0  0  0  0  0  3  0  0  0  0  0  0
   40.1010   27.6960   42.9660 C   0  0  0  0  0  3  0  0  0  0  0  0
   39.2200   26.6670   42.6810 C   0  0  0  0  0  0  0  0  0  0  0  0
   39.6920   25.3730   42.8300 C   0  0  0  0  0  3  0  0  0  0  0  0
   38.8300   24.3100   42.5500 C   0  0  0  0  0  3  0  0  0  0  0  0
   37.5310   24.5580   42.1320 C   0  0  0  0  0  3  0  0  0  0  0  0
   37.0770   25.8610   41.9900 C   0  0  0  0  0  3  0  0  0  0  0  0
   37.9260   26.9320   42.2650 C   0  0  0  0  0  0  0  0  0  0  0  0
  1 19  1  0  0  0  0
  2  5  1  6  0  0  0
  2  4  1  0  0  0  0
  2 11  1  0  0  0  0
  3  7  1  0  0  0  0
  3  2  1  0  0  0  0
  3  4  1  0  0  0  0
  4  8  1  6  0  0  0
  4  1  1  0  0  0  0
  6  3  1  0  0  0  0
  9 14  1  0  0  0  0
 10 11  1  0  0  0  0
 10  9  2  0  0  0  0
 11 12  2  0  0  0  0
 12 13  1  0  0  0  0
 13 17  1  0  0  0  0
 14 13  2  0  0  0  0
 15  9  1  0  0  0  0
 16 10  1  0  0  0  0
 19 18  2  6  0  0  0
 19 20  1  0  0  0  0
 19 22  1  0  0  0  0
 21 20  1  0  0  0  0
 22 23  1  0  0  0  0
 23 33  2  0  0  0  0
 23 24  1  0  0  0  0
 24 26  2  0  0  0  0
 25 24  1  0  0  0  0
 26 27  1  0  0  0  0
 28 29  1  0  0  0  0
 28 27  2  0  0  0  0
 30 29  2  0  0  0  0
 31 30  1  0  0  0  0
 32 31  2  0  0  0  0
 32 33  1  0  0  0  0
 33 28  1  0  0  0  0
M  END
>  <minimizedAffinity>
-6.40328312

$$$$

 OpenBabel03252501043D

 33 36  0  0  1  0  0  0  0  0999 V2000
   37.6730   29.8820   39.9480 O   0  0  0  0  0  0  0  0  0  0  0  0
   37.4530   31.5330   38.2020 C   0  0  1  0  0  0  0  0  0  0  0  0
   38.0990   30.3830   37.5220 C   0  0  0  0  0  0  0  0  0  0  0  0
   37.1960   30.1880   38.7330 C   0  0  1  0  0  0  0  0  0  0  0  0
   36.5900   32.0610   37.7610 H   0  0  0  0  0  0  0  0  0  0  0  0
   37.6680   30.1210   36.5100 H   0  0  0  0  0  0  0  0  0  0  0  0
   39.1140   30.0390   37.7130 H   0  0  0  0  0  0  0  0  0  0  0  0
   36.2350   29.7040   38.4670 H   0  0  0  0  0  0  0  0  0  0  0  0
   38.8250   34.0720   40.6480 C   0  0  0  0  0  0  0  0  0  0  0  0
   37.9030   33.2910   39.9490 C   0  0  0  0  0  0  0  0  0  0  0  0
   38.3920   32.3950   38.9890 C   0  0  0  0  0  0  0  0  0  0  0  0
   39.7360   32.3180   38.7740 N   0  0  0  0  0  0  0  0  0  0  0  0
   40.6110   33.0870   39.4660 C   0  0  0  0  0  0  0  0  0  0  0  0
   40.1480   33.9610   40.4010 N   0  0  0  0  0  0  0  0  0  0  0  0
   38.4590   34.7560   41.3800 H   0  0  0  0  0  0  0  0  0  0  0  0
   36.8750   33.4010   40.1700 H   0  0  0  0  0  0  0  0  0  0  0  0
   41.6660   32.9770   39.2470 H   0  0  0  0  0  0  0  0  0  0  0  0
   35.7890   28.4800   41.1830 O   0  0  0  0  0  0  0  0  0  0  0  0
   36.6290   29.7380   41.2070 P   0  0  2  0  0  0  0  0  0  0  0  0
   35.5460   31.0270   41.3550 O   0  0  0  0  0  0  0  0  0  0  0  0
   35.0080   31.0500   40.5070 H   0  0  0  0  0  0  0  0  0  0  0  0
   37.4980   29.6590   42.6540 O   0  0  0  0  0  0  0  0  0  0  0  0
   38.5100   28.7390   42.8870 C   0  0  0  0  0  0  0  0  0  0  0  0
   38.3240   27.4030   43.1530 C   0  0  0  0  0  0  0  0  0  0  0  0
   37.3140   27.0320   43.1850 H   0  0  0  0  0  0  0  0  0  0  0  0
   39.4200   26.5820   43.3690 C   0  0  0  0  0  3  0  0  0  0  0  0
   40.6980   27.1130   43.3170 C   0  0  0  0  0  3  0  0  0  0  0  0
   40.8750   28.4590   43.0480 C   0  0  0  0  0  0  0  0  0  0  0  0
   42.1780   28.9270   43.0080 C   0  0  0  0  0  3  0  0  0  0  0  0
   42.3940   30.2820   42.7400 C   0  0  0  0  0  3  0  0  0  0  0  0
   41.3180   31.1280   42.5200 C   0  0  0  0  0  3  0  0  0  0  0  0
   40.0220   30.6390   42.5630 C   0  0  0  0  0  3  0  0  0  0  0  0
   39.7900   29.2910   42.8300 C   0  0  0  0  0  0  0  0  0  0  0  0
  1 19  1  0  0  0  0
  2  5  1  6  0  0  0
  2  4  1  0  0  0  0
  2 11  1  0  0  0  0
  3  7  1  0  0  0  0
  3  2  1  0  0  0  0
  3  4  1  0  0  0  0
  4  8  1  6  0  0  0
  4  1  1  0  0  0  0
  6  3  1  0  0  0  0
  9 15  1  0  0  0  0
 10 16  1  0  0  0  0
 10  9  2  0  0  0  0
 11 10  1  0  0  0  0
 12 11  2  0  0  0  0
 12 13  1  0  0  0  0
 13 14  2  0  0  0  0
 14  9  1  0  0  0  0
 17 13  1  0  0  0  0
 19 18  2  6  0  0  0
 19 20  1  0  0  0  0
 19 22  1  0  0  0  0
 21 20  1  0  0  0  0
 22 23  1  0  0  0  0
 23 24  1  0  0  0  0
 24 25  1  0  0  0  0
 24 26  2  0  0  0  0
 27 26  1  0  0  0  0
 28 27  2  0  0  0  0
 29 28  1  0  0  0  0
 30 29  2  0  0  0  0
 31 32  2  0  0  0  0
 31 30  1  0  0  0  0
 32 33  1  0  0  0  0
 33 23  2  0  0  0  0
 33 28  1  0  0  0  0
M  END
>  <minimizedAffinity>
-6.37688351

$$$$

 OpenBabel03252501043D

 33 36  0  0  1  0  0  0  0  0999 V2000
   37.5670   29.6830   39.7950 O   0  0  0  0  0  0  0  0  0  0  0  0
   37.2850   31.3490   38.0720 C   0  0  1  0  0  0  0  0  0  0  0  0
   37.9410   30.2190   37.3680 C   0  0  0  0  0  0  0  0  0  0  0  0
   37.0630   29.9930   38.5920 C   0  0  1  0  0  0  0  0  0  0  0  0
   36.4050   31.8640   37.6520 H   0  0  0  0  0  0  0  0  0  0  0  0
   37.4990   29.9590   36.3610 H   0  0  0  0  0  0  0  0  0  0  0  0
   38.9660   29.8930   37.5380 H   0  0  0  0  0  0  0  0  0  0  0  0
   36.1070   29.4930   38.3360 H   0  0  0  0  0  0  0  0  0  0  0  0
   40.4270   32.9880   39.3970 C   0  0  0  0  0  0  0  0  0  0  0  0
   39.6030   32.1570   38.6340 C   0  0  0  0  0  0  0  0  0  0  0  0
   38.2210   32.2190   38.8530 C   0  0  0  0  0  0  0  0  0  0  0  0
   37.7340   33.0780   39.7920 N   0  0  0  0  0  0  0  0  0  0  0  0
   38.5530   33.8760   40.5200 C   0  0  0  0  0  0  0  0  0  0  0  0
   39.8980   33.8240   40.3160 N   0  0  0  0  0  0  0  0  0  0  0  0
   41.4810   32.9450   39.2350 H   0  0  0  0  0  0  0  0  0  0  0  0
   40.0510   31.5160   37.9220 H   0  0  0  0  0  0  0  0  0  0  0  0
   38.1020   34.5360   41.2500 H   0  0  0  0  0  0  0  0  0  0  0  0
   35.4990   28.6210   41.0750 O   0  0  0  0  0  0  0  0  0  0  0  0
   36.5750   29.6840   41.1050 P   0  0  2  0  0  0  0  0  0  0  0  0
   35.7820   31.1530   41.3670 O   0  0  0  0  0  0  0  0  0  0  0  0
   35.2210   31.3270   40.5530 H   0  0  0  0  0  0  0  0  0  0  0  0
   37.4780   29.3580   42.4950 O   0  0  0  0  0  0  0  0  0  0  0  0
   38.8450   29.5730   42.5850 C   0  0  0  0  0  0  0  0  0  0  0  0
   39.4790   30.7700   42.3470 C   0  0  0  0  0  0  0  0  0  0  0  0
   38.8720   31.6150   42.0660 H   0  0  0  0  0  0  0  0  0  0  0  0
   40.8570   30.8600   42.4700 C   0  0  0  0  0  3  0  0  0  0  0  0
   41.5890   29.7420   42.8320 C   0  0  0  0  0  3  0  0  0  0  0  0
   40.9430   28.5420   43.0700 C   0  0  0  0  0  0  0  0  0  0  0  0
   41.7320   27.4610   43.4300 C   0  0  0  0  0  3  0  0  0  0  0  0
   41.1120   26.2330   43.6770 C   0  0  0  0  0  3  0  0  0  0  0  0
   39.7360   26.1120   43.5620 C   0  0  0  0  0  3  0  0  0  0  0  0
   38.9640   27.2060   43.2020 C   0  0  0  0  0  3  0  0  0  0  0  0
   39.5670   28.4370   42.9510 C   0  0  0  0  0  0  0  0  0  0  0  0
  1 19  1  0  0  0  0
  2  5  1  6  0  0  0
  2  4  1  0  0  0  0
  2 11  1  0  0  0  0
  3  7  1  0  0  0  0
  3  2  1  0  0  0  0
  3  4  1  0  0  0  0
  4  8  1  6  0  0  0
  4  1  1  0  0  0  0
  6  3  1  0  0  0  0
  9 14  1  0  0  0  0
 10 11  1  0  0  0  0
 10  9  2  0  0  0  0
 11 12  2  0  0  0  0
 12 13  1  0  0  0  0
 13 17  1  0  0  0  0
 14 13  2  0  0  0  0
 15  9  1  0  0  0  0
 16 10  1  0  0  0  0
 19 18  2  6  0  0  0
 19 20  1  0  0  0  0
 19 22  1  0  0  0  0
 21 20  1  0  0  0  0
 22 23  1  0  0  0  0
 23 33  1  0  0  0  0
 24 26  1  0  0  0  0
 24 23  2  0  0  0  0
 25 24  1  0  0  0  0
 26 27  2  0  0  0  0
 27 28  1  0  0  0  0
 28 29  1  0  0  0  0
 29 30  2  0  0  0  0
 31 30  1  0  0  0  0
 32 31  2  0  0  0  0
 33 28  2  0  0  0  0
 33 32  1  0  0  0  0
M  END
>  <minimizedAffinity>
-6.30169535

$$$$

 OpenBabel03252501043D

 33 36  0  0  1  0  0  0  0  0999 V2000
   37.8160   31.2700   41.0530 O   0  0  0  0  0  0  0  0  0  0  0  0
   37.6650   33.2150   39.6320 C   0  0  1  0  0  0  0  0  0  0  0  0
   37.1180   32.1200   38.7930 C   0  0  0  0  0  0  0  0  0  0  0  0
   37.0380   32.0740   40.3130 C   0  0  1  0  0  0  0  0  0  0  0  0
   37.1520   34.1870   39.7290 H   0  0  0  0  0  0  0  0  0  0  0  0
   36.1680   32.3720   38.2340 H   0  0  0  0  0  0  0  0  0  0  0  0
   37.7020   31.2940   38.3910 H   0  0  0  0  0  0  0  0  0  0  0  0
   36.0020   32.2010   40.6840 H   0  0  0  0  0  0  0  0  0  0  0  0
   41.2120   34.1610   40.5450 C   0  0  0  0  0  0  0  0  0  0  0  0
   39.8160   34.1420   40.5570 C   0  0  0  0  0  0  0  0  0  0  0  0
   39.1610   33.2770   39.6710 C   0  0  0  0  0  0  0  0  0  0  0  0
   39.9010   32.4940   38.8370 N   0  0  0  0  0  0  0  0  0  0  0  0
   41.2560   32.5290   38.8430 C   0  0  0  0  0  0  0  0  0  0  0  0
   41.9030   33.3660   39.7000 N   0  0  0  0  0  0  0  0  0  0  0  0
   41.7170   34.8180   41.2180 H   0  0  0  0  0  0  0  0  0  0  0  0
   39.3070   34.7760   41.2340 H   0  0  0  0  0  0  0  0  0  0  0  0
   41.7840   31.8820   38.1560 H   0  0  0  0  0  0  0  0  0  0  0  0
   35.9110   29.4290   40.8960 O   0  0  0  0  0  0  0  0  0  0  0  0
   37.2430   29.8000   41.5100 P   0  0  2  0  0  0  0  0  0  0  0  0
   37.0620   29.6190   43.1800 O   0  0  0  0  0  0  0  0  0  0  0  0
   36.4000   30.3150   43.4750 H   0  0  0  0  0  0  0  0  0  0  0  0
   38.3140   28.5960   41.0000 O   0  0  0  0  0  0  0  0  0  0  0  0
   38.7900   27.5950   41.8340 C   0  0  0  0  0  0  0  0  0  0  0  0
   39.7270   27.7650   42.8250 C   0  0  0  0  0  0  0  0  0  0  0  0
   40.1310   28.7530   42.9730 H   0  0  0  0  0  0  0  0  0  0  0  0
   40.1240   26.6830   43.5950 C   0  0  0  0  0  3  0  0  0  0  0  0
   39.5740   25.4340   43.3610 C   0  0  0  0  0  3  0  0  0  0  0  0
   38.6310   25.2720   42.3620 C   0  0  0  0  0  0  0  0  0  0  0  0
   38.1190   23.9980   42.1780 C   0  0  0  0  0  3  0  0  0  0  0  0
   37.1650   23.7990   41.1770 C   0  0  0  0  0  3  0  0  0  0  0  0
   36.7480   24.8610   40.3900 C   0  0  0  0  0  3  0  0  0  0  0  0
   37.2720   26.1290   40.5900 C   0  0  0  0  0  3  0  0  0  0  0  0
   38.2250   26.3440   41.5840 C   0  0  0  0  0  0  0  0  0  0  0  0
  1 19  1  0  0  0  0
  2 11  1  0  0  0  0
  2  5  1  1  0  0  0
  2  4  1  0  0  0  0
  3  2  1  0  0  0  0
  3  4  1  0  0  0  0
  4  8  1  1  0  0  0
  4  1  1  0  0  0  0
  6  3  1  0  0  0  0
  7  3  1  0  0  0  0
  9 10  1  0  0  0  0
  9 15  1  0  0  0  0
 10 16  1  0  0  0  0
 11 10  2  0  0  0  0
 12 13  2  0  0  0  0
 12 11  1  0  0  0  0
 13 14  1  0  0  0  0
 14  9  2  0  0  0  0
 17 13  1  0  0  0  0
 19 18  2  6  0  0  0
 19 20  1  0  0  0  0
 20 21  1  0  0  0  0
 22 19  1  0  0  0  0
 22 23  1  0  0  0  0
 23 24  1  0  0  0  0
 24 25  1  0  0  0  0
 24 26  2  0  0  0  0
 27 26  1  0  0  0  0
 28 27  2  0  0  0  0
 29 28  1  0  0  0  0
 30 29  2  0  0  0  0
 31 32  2  0  0  0  0
 31 30  1  0  0  0  0
 32 33  1  0  0  0  0
 33 23  2  0  0  0  0
 33 28  1  0  0  0  0
M  END
>  <minimizedAffinity>
-6.15753937

$$$$

 OpenBabel03252501043D

 33 36  0  0  1  0  0  0  0  0999 V2000
   36.8430   29.5660   39.1940 O   0  0  0  0  0  0  0  0  0  0  0  0
   37.2370   31.6290   38.0030 C   0  0  1  0  0  0  0  0  0  0  0  0
   37.6150   30.5790   37.0260 C   0  0  0  0  0  0  0  0  0  0  0  0
   36.5820   30.3190   38.1140 C   0  0  1  0  0  0  0  0  0  0  0  0
   36.5910   32.4790   37.7250 H   0  0  0  0  0  0  0  0  0  0  0  0
   37.2290   30.7390   35.9760 H   0  0  0  0  0  0  0  0  0  0  0  0
   38.4790   29.9240   37.1210 H   0  0  0  0  0  0  0  0  0  0  0  0
   35.5570   30.2190   37.7050 H   0  0  0  0  0  0  0  0  0  0  0  0
   40.5660   31.8850   39.7830 C   0  0  0  0  0  0  0  0  0  0  0  0
   39.6280   31.5770   38.7960 C   0  0  0  0  0  0  0  0  0  0  0  0
   38.2920   31.9370   39.0210 C   0  0  0  0  0  0  0  0  0  0  0  0
   37.9600   32.5670   40.1830 N   0  0  0  0  0  0  0  0  0  0  0  0
   38.8890   32.8550   41.1260 C   0  0  0  0  0  0  0  0  0  0  0  0
   40.1900   32.5110   40.9180 N   0  0  0  0  0  0  0  0  0  0  0  0
   41.5840   31.6140   39.6170 H   0  0  0  0  0  0  0  0  0  0  0  0
   39.9580   31.0890   37.9170 H   0  0  0  0  0  0  0  0  0  0  0  0
   38.5600   33.3570   42.0270 H   0  0  0  0  0  0  0  0  0  0  0  0
   34.3020   29.2170   39.8720 O   0  0  0  0  0  0  0  0  0  0  0  0
   35.7110   29.4400   40.3760 P   0  0  2  0  0  0  0  0  0  0  0  0
   35.6380   30.7770   41.4070 O   0  0  0  0  0  0  0  0  0  0  0  0
   35.4030   31.5690   40.8350 H   0  0  0  0  0  0  0  0  0  0  0  0
   36.0520   28.0950   41.3410 O   0  0  0  0  0  0  0  0  0  0  0  0
   36.8170   27.0220   40.9100 C   0  0  0  0  0  0  0  0  0  0  0  0
   36.5740   26.2730   39.7820 C   0  0  0  0  0  0  0  0  0  0  0  0
   35.7220   26.5340   39.1790 H   0  0  0  0  0  0  0  0  0  0  0  0
   37.4150   25.2200   39.4570 C   0  0  0  0  0  3  0  0  0  0  0  0
   38.4970   24.9280   40.2690 C   0  0  0  0  0  3  0  0  0  0  0  0
   38.7340   25.6870   41.4020 C   0  0  0  0  0  0  0  0  0  0  0  0
   39.8330   25.3430   42.1720 C   0  0  0  0  0  3  0  0  0  0  0  0
   40.1020   26.0880   43.3240 C   0  0  0  0  0  3  0  0  0  0  0  0
   39.2790   27.1470   43.6760 C   0  0  0  0  0  3  0  0  0  0  0  0
   38.1850   27.4750   42.8910 C   0  0  0  0  0  3  0  0  0  0  0  0
   37.9030   26.7410   41.7400 C   0  0  0  0  0  0  0  0  0  0  0  0
  1 19  1  0  0  0  0
  2  5  1  6  0  0  0
  2  4  1  0  0  0  0
  2 11  1  0  0  0  0
  3  7  1  0  0  0  0
  3  2  1  0  0  0  0
  3  4  1  0  0  0  0
  4  8  1  6  0  0  0
  4  1  1  0  0  0  0
  6  3  1  0  0  0  0
  9 14  1  0  0  0  0
 10 11  1  0  0  0  0
 10  9  2  0  0  0  0
 11 12  2  0  0  0  0
 12 13  1  0  0  0  0
 13 17  1  0  0  0  0
 14 13  2  0  0  0  0
 15  9  1  0  0  0  0
 16 10  1  0  0  0  0
 19 18  2  6  0  0  0
 19 22  1  0  0  0  0
 19 20  1  0  0  0  0
 21 20  1  0  0  0  0
 23 22  1  0  0  0  0
 23 33  1  0  0  0  0
 24 23  2  0  0  0  0
 25 24  1  0  0  0  0
 26 24  1  0  0  0  0
 26 27  2  0  0  0  0
 27 28  1  0  0  0  0
 28 33  2  0  0  0  0
 28 29  1  0  0  0  0
 29 30  2  0  0  0  0
 30 31  1  0  0  0  0
 32 31  2  0  0  0  0
 33 32  1  0  0  0  0
M  END
>  <minimizedAffinity>
-5.91414356

$$$$

 OpenBabel03252501043D

 33 36  0  0  1  0  0  0  0  0999 V2000
   37.7160   30.8160   40.9670 O   0  0  0  0  0  0  0  0  0  0  0  0
   37.6720   32.7820   39.5670 C   0  0  1  0  0  0  0  0  0  0  0  0
   37.0480   31.7320   38.7240 C   0  0  0  0  0  0  0  0  0  0  0  0
   36.9830   31.6750   40.2440 C   0  0  1  0  0  0  0  0  0  0  0  0
   37.2220   33.7830   39.6800 H   0  0  0  0  0  0  0  0  0  0  0  0
   36.1100   32.0500   38.1790 H   0  0  0  0  0  0  0  0  0  0  0  0
   37.5750   30.8760   38.3070 H   0  0  0  0  0  0  0  0  0  0  0  0
   35.9600   31.8630   40.6280 H   0  0  0  0  0  0  0  0  0  0  0  0
   41.2770   32.0380   38.6920 C   0  0  0  0  0  0  0  0  0  0  0  0
   39.8820   32.0370   38.6160 C   0  0  0  0  0  0  0  0  0  0  0  0
   39.1700   32.7500   39.5890 C   0  0  0  0  0  0  0  0  0  0  0  0
   39.8540   33.4110   40.5640 N   0  0  0  0  0  0  0  0  0  0  0  0
   41.2080   33.3980   40.6160 C   0  0  0  0  0  0  0  0  0  0  0  0
   41.9120   32.7090   39.6760 N   0  0  0  0  0  0  0  0  0  0  0  0
   41.8250   31.4970   37.9530 H   0  0  0  0  0  0  0  0  0  0  0  0
   39.4180   31.5020   37.8310 H   0  0  0  0  0  0  0  0  0  0  0  0
   41.6910   33.9440   41.4160 H   0  0  0  0  0  0  0  0  0  0  0  0
   35.5900   29.2320   41.0690 O   0  0  0  0  0  0  0  0  0  0  0  0
   37.0220   29.4320   41.5150 P   0  0  2  0  0  0  0  0  0  0  0  0
   37.0190   29.2810   43.1980 O   0  0  0  0  0  0  0  0  0  0  0  0
   36.4900   30.0560   43.5560 H   0  0  0  0  0  0  0  0  0  0  0  0
   37.8630   28.1000   40.9040 O   0  0  0  0  0  0  0  0  0  0  0  0
   37.4330   26.7910   41.0550 C   0  0  0  0  0  0  0  0  0  0  0  0
   37.4920   26.0640   42.2200 C   0  0  0  0  0  0  0  0  0  0  0  0
   37.9050   26.5420   43.0920 H   0  0  0  0  0  0  0  0  0  0  0  0
   37.0280   24.7570   42.2450 C   0  0  0  0  0  3  0  0  0  0  0  0
   36.5070   24.1910   41.0940 C   0  0  0  0  0  3  0  0  0  0  0  0
   36.4510   24.9310   39.9260 C   0  0  0  0  0  0  0  0  0  0  0  0
   35.9180   24.3070   38.8090 C   0  0  0  0  0  3  0  0  0  0  0  0
   35.8470   25.0240   37.6120 C   0  0  0  0  0  3  0  0  0  0  0  0
   36.3030   26.3320   37.5560 C   0  0  0  0  0  3  0  0  0  0  0  0
   36.8330   26.9390   38.6850 C   0  0  0  0  0  3  0  0  0  0  0  0
   36.9110   26.2360   39.8860 C   0  0  0  0  0  0  0  0  0  0  0  0
  1 19  1  0  0  0  0
  2 11  1  0  0  0  0
  2  5  1  1  0  0  0
  2  4  1  0  0  0  0
  3  2  1  0  0  0  0
  3  4  1  0  0  0  0
  4  8  1  1  0  0  0
  4  1  1  0  0  0  0
  6  3  1  0  0  0  0
  7  3  1  0  0  0  0
  9 14  1  0  0  0  0
 10  9  2  0  0  0  0
 10 11  1  0  0  0  0
 11 12  2  0  0  0  0
 12 13  1  0  0  0  0
 13 17  1  0  0  0  0
 14 13  2  0  0  0  0
 15  9  1  0  0  0  0
 16 10  1  0  0  0  0
 19 18  2  6  0  0  0
 19 20  1  0  0  0  0
 20 21  1  0  0  0  0
 22 23  1  0  0  0  0
 22 19  1  0  0  0  0
 23 24  1  0  0  0  0
 24 26  2  0  0  0  0
 24 25  1  0  0  0  0
 27 26  1  0  0  0  0
 28 27  2  0  0  0  0
 29 28  1  0  0  0  0
 30 29  2  0  0  0  0
 31 30  1  0  0  0  0
 31 32  2  0  0  0  0
 32 33  1  0  0  0  0
 33 28  1  0  0  0  0
 33 23  2  0  0  0  0
M  END
>  <minimizedAffinity>
-5.83047199

$$$$

 OpenBabel03252501043D

 33 36  0  0  1  0  0  0  0  0999 V2000
   38.1300   31.2420   38.5700 O   0  0  0  0  0  0  0  0  0  0  0  0
   37.7590   32.6230   40.5140 C   0  0  1  0  0  0  0  0  0  0  0  0
   37.2150   33.4330   39.3960 C   0  0  0  0  0  0  0  0  0  0  0  0
   37.2530   31.9120   39.3330 C   0  0  1  0  0  0  0  0  0  0  0  0
   37.1980   32.4760   41.4530 H   0  0  0  0  0  0  0  0  0  0  0  0
   36.2130   33.9160   39.5960 H   0  0  0  0  0  0  0  0  0  0  0  0
   37.8160   33.8870   38.6090 H   0  0  0  0  0  0  0  0  0  0  0  0
   36.2410   31.4640   39.3950 H   0  0  0  0  0  0  0  0  0  0  0  0
   41.3170   31.8790   41.5620 C   0  0  0  0  0  0  0  0  0  0  0  0
   39.9300   31.7590   41.4530 C   0  0  0  0  0  0  0  0  0  0  0  0
   39.2480   32.6950   40.6650 C   0  0  0  0  0  0  0  0  0  0  0  0
   39.9530   33.6780   40.0390 N   0  0  0  0  0  0  0  0  0  0  0  0
   41.2990   33.7740   40.1590 C   0  0  0  0  0  0  0  0  0  0  0  0
   41.9740   32.8700   40.9220 N   0  0  0  0  0  0  0  0  0  0  0  0
   41.8430   31.1700   42.1610 H   0  0  0  0  0  0  0  0  0  0  0  0
   39.4480   30.9690   41.9660 H   0  0  0  0  0  0  0  0  0  0  0  0
   41.8000   34.5780   39.6350 H   0  0  0  0  0  0  0  0  0  0  0  0
   39.4100   29.0280   39.2740 O   0  0  0  0  0  0  0  0  0  0  0  0
   38.1630   29.6010   38.6390 P   0  0  2  0  0  0  0  0  0  0  0  0
   38.0060   28.8450   37.1360 O   0  0  0  0  0  0  0  0  0  0  0  0
   38.7840   29.1480   36.5780 H   0  0  0  0  0  0  0  0  0  0  0  0
   36.8870   29.0520   39.6010 O   0  0  0  0  0  0  0  0  0  0  0  0
   37.0600   28.5310   40.8740 C   0  0  0  0  0  0  0  0  0  0  0  0
   37.3250   29.2670   42.0050 C   0  0  0  0  0  0  0  0  0  0  0  0
   37.4060   30.3360   41.9040 H   0  0  0  0  0  0  0  0  0  0  0  0
   37.4780   28.6280   43.2260 C   0  0  0  0  0  3  0  0  0  0  0  0
   37.3640   27.2500   43.3000 C   0  0  0  0  0  3  0  0  0  0  0  0
   37.0970   26.5180   42.1560 C   0  0  0  0  0  0  0  0  0  0  0  0
   36.9950   25.1440   42.2970 C   0  0  0  0  0  3  0  0  0  0  0  0
   36.7270   24.3730   41.1630 C   0  0  0  0  0  3  0  0  0  0  0  0
   36.5690   24.9830   39.9280 C   0  0  0  0  0  3  0  0  0  0  0  0
   36.6740   26.3600   39.8080 C   0  0  0  0  0  3  0  0  0  0  0  0
   36.9420   27.1420   40.9300 C   0  0  0  0  0  0  0  0  0  0  0  0
  1 19  1  0  0  0  0
  1  4  1  0  0  0  0
  2 11  1  0  0  0  0
  2  5  1  1  0  0  0
  3  6  1  0  0  0  0
  3  2  1  0  0  0  0
  4  8  1  1  0  0  0
  4  3  1  0  0  0  0
  4  2  1  0  0  0  0
  7  3  1  0  0  0  0
  9 15  1  0  0  0  0
 10  9  1  0  0  0  0
 10 16  1  0  0  0  0
 11 10  2  0  0  0  0
 12 13  2  0  0  0  0
 12 11  1  0  0  0  0
 13 14  1  0  0  0  0
 14  9  2  0  0  0  0
 17 13  1  0  0  0  0
 19 18  2  1  0  0  0
 19 22  1  0  0  0  0
 20 19  1  0  0  0  0
 21 20  1  0  0  0  0
 22 23  1  0  0  0  0
 23 33  2  0  0  0  0
 23 24  1  0  0  0  0
 24 26  2  0  0  0  0
 25 24  1  0  0  0  0
 26 27  1  0  0  0  0
 28 29  1  0  0  0  0
 28 27  2  0  0  0  0
 30 29  2  0  0  0  0
 31 30  1  0  0  0  0
 32 31  2  0  0  0  0
 32 33  1  0  0  0  0
 33 28  1  0  0  0  0
M  END
>  <minimizedAffinity>
-5.79560852

$$$$

 OpenBabel03252501043D

 33 36  0  0  1  0  0  0  0  0999 V2000
   36.8820   29.5380   39.3340 O   0  0  0  0  0  0  0  0  0  0  0  0
   39.1050   30.3330   38.8260 C   0  0  1  0  0  0  0  0  0  0  0  0
   38.2400   31.0610   37.8650 C   0  0  0  0  0  0  0  0  0  0  0  0
   37.7100   30.5870   39.2120 C   0  0  1  0  0  0  0  0  0  0  0  0
   39.8790   30.8470   39.4200 H   0  0  0  0  0  0  0  0  0  0  0  0
   38.4640   32.1640   37.7580 H   0  0  0  0  0  0  0  0  0  0  0  0
   37.7100   30.5990   37.0340 H   0  0  0  0  0  0  0  0  0  0  0  0
   37.5120   31.4280   39.9050 H   0  0  0  0  0  0  0  0  0  0  0  0
   40.2380   26.7240   38.9180 C   0  0  0  0  0  0  0  0  0  0  0  0
   39.9370   28.0150   39.3570 C   0  0  0  0  0  0  0  0  0  0  0  0
   39.4410   28.9310   38.4190 C   0  0  0  0  0  0  0  0  0  0  0  0
   39.2720   28.5340   37.1270 N   0  0  0  0  0  0  0  0  0  0  0  0
   39.5710   27.2750   36.7250 C   0  0  0  0  0  0  0  0  0  0  0  0
   40.0530   26.3760   37.6260 N   0  0  0  0  0  0  0  0  0  0  0  0
   40.6170   26.0230   39.6270 H   0  0  0  0  0  0  0  0  0  0  0  0
   40.0910   28.2530   40.3760 H   0  0  0  0  0  0  0  0  0  0  0  0
   39.4130   27.0230   35.6840 H   0  0  0  0  0  0  0  0  0  0  0  0
   34.3600   29.1590   40.0620 O   0  0  0  0  0  0  0  0  0  0  0  0
   35.7480   29.5460   40.5210 P   0  0  2  0  0  0  0  0  0  0  0  0
   35.5880   31.0310   41.3120 O   0  0  0  0  0  0  0  0  0  0  0  0
   35.3130   31.7000   40.6150 H   0  0  0  0  0  0  0  0  0  0  0  0
   36.1570   28.4050   41.6980 O   0  0  0  0  0  0  0  0  0  0  0  0
   37.4470   28.2280   42.1740 C   0  0  0  0  0  0  0  0  0  0  0  0
   38.3020   29.2390   42.5490 C   0  0  0  0  0  0  0  0  0  0  0  0
   37.9490   30.2530   42.4680 H   0  0  0  0  0  0  0  0  0  0  0  0
   39.5730   28.9340   43.0100 C   0  0  0  0  0  3  0  0  0  0  0  0
   39.9760   27.6120   43.0920 C   0  0  0  0  0  3  0  0  0  0  0  0
   39.1090   26.6020   42.7140 C   0  0  0  0  0  0  0  0  0  0  0  0
   39.5720   25.3010   42.8210 C   0  0  0  0  0  3  0  0  0  0  0  0
   38.7230   24.2560   42.4460 C   0  0  0  0  0  3  0  0  0  0  0  0
   37.4460   24.5290   41.9800 C   0  0  0  0  0  3  0  0  0  0  0  0
   37.0010   25.8380   41.8820 C   0  0  0  0  0  3  0  0  0  0  0  0
   37.8370   26.8910   42.2510 C   0  0  0  0  0  0  0  0  0  0  0  0
  1 19  1  0  0  0  0
  2  4  1  0  0  0  0
  2  5  1  1  0  0  0
  3  2  1  0  0  0  0
  3  4  1  0  0  0  0
  4  1  1  0  0  0  0
  4  8  1  1  0  0  0
  6  3  1  0  0  0  0
  7  3  1  0  0  0  0
  9 10  1  0  0  0  0
  9 15  1  0  0  0  0
 10 16  1  0  0  0  0
 11  2  1  0  0  0  0
 11 10  2  0  0  0  0
 12 11  1  0  0  0  0
 13 12  2  0  0  0  0
 13 14  1  0  0  0  0
 14  9  2  0  0  0  0
 17 13  1  0  0  0  0
 19 18  2  6  0  0  0
 19 20  1  0  0  0  0
 19 22  1  0  0  0  0
 21 20  1  0  0  0  0
 22 23  1  0  0  0  0
 23 33  2  0  0  0  0
 23 24  1  0  0  0  0
 24 26  2  0  0  0  0
 25 24  1  0  0  0  0
 26 27  1  0  0  0  0
 28 29  1  0  0  0  0
 28 27  2  0  0  0  0
 30 29  2  0  0  0  0
 31 30  1  0  0  0  0
 32 31  2  0  0  0  0
 32 33  1  0  0  0  0
 33 28  1  0  0  0  0
M  END
>  <minimizedAffinity>
-5.66777515

$$$$

 OpenBabel03252501043D

 33 36  0  0  1  0  0  0  0  0999 V2000
   37.5340   29.8460   39.5170 O   0  0  0  0  0  0  0  0  0  0  0  0
   38.1990   31.2260   37.6510 C   0  0  1  0  0  0  0  0  0  0  0  0
   38.3730   29.8420   37.1470 C   0  0  0  0  0  0  0  0  0  0  0  0
   37.3530   30.1730   38.2280 C   0  0  1  0  0  0  0  0  0  0  0  0
   37.6820   32.0020   37.0600 H   0  0  0  0  0  0  0  0  0  0  0  0
   37.9770   29.6580   36.1040 H   0  0  0  0  0  0  0  0  0  0  0  0
   39.1280   29.1430   37.5010 H   0  0  0  0  0  0  0  0  0  0  0  0
   36.3100   30.0900   37.8620 H   0  0  0  0  0  0  0  0  0  0  0  0
   41.5750   31.5690   39.3230 C   0  0  0  0  0  0  0  0  0  0  0  0
   40.5640   31.0660   38.5020 C   0  0  0  0  0  0  0  0  0  0  0  0
   39.3260   31.7220   38.5050 C   0  0  0  0  0  0  0  0  0  0  0  0
   39.1540   32.8160   39.2990 N   0  0  0  0  0  0  0  0  0  0  0  0
   40.1510   33.2860   40.0860 C   0  0  0  0  0  0  0  0  0  0  0  0
   41.3590   32.6570   40.0920 N   0  0  0  0  0  0  0  0  0  0  0  0
   42.5200   31.0740   39.3250 H   0  0  0  0  0  0  0  0  0  0  0  0
   40.7690   30.2130   37.9100 H   0  0  0  0  0  0  0  0  0  0  0  0
   39.9500   34.1590   40.6930 H   0  0  0  0  0  0  0  0  0  0  0  0
   35.1210   29.9680   40.6100 O   0  0  0  0  0  0  0  0  0  0  0  0
   36.5400   30.4890   40.6550 P   0  0  2  0  0  0  0  0  0  0  0  0
   36.4270   32.1740   40.6000 O   0  0  0  0  0  0  0  0  0  0  0  0
   36.0570   32.4090   39.6960 H   0  0  0  0  0  0  0  0  0  0  0  0
   37.1100   30.0850   42.1930 O   0  0  0  0  0  0  0  0  0  0  0  0
   37.6800   28.8580   42.4980 C   0  0  0  0  0  0  0  0  0  0  0  0
   36.9930   27.6750   42.6390 C   0  0  0  0  0  0  0  0  0  0  0  0
   35.9250   27.6930   42.5050 H   0  0  0  0  0  0  0  0  0  0  0  0
   37.6790   26.5100   42.9470 C   0  0  0  0  0  3  0  0  0  0  0  0
   39.0530   26.5430   43.1100 C   0  0  0  0  0  3  0  0  0  0  0  0
   39.7360   27.7380   42.9640 C   0  0  0  0  0  0  0  0  0  0  0  0
   41.1100   27.7040   43.1390 C   0  0  0  0  0  3  0  0  0  0  0  0
   41.8310   28.8930   43.0010 C   0  0  0  0  0  3  0  0  0  0  0  0
   41.1740   30.0740   42.6940 C   0  0  0  0  0  3  0  0  0  0  0  0
   39.7980   30.0870   42.5220 C   0  0  0  0  0  3  0  0  0  0  0  0
   39.0650   28.9100   42.6580 C   0  0  0  0  0  0  0  0  0  0  0  0
  1 19  1  0  0  0  0
  2  5  1  6  0  0  0
  2  4  1  0  0  0  0
  2 11  1  0  0  0  0
  3  7  1  0  0  0  0
  3  2  1  0  0  0  0
  3  4  1  0  0  0  0
  4  8  1  6  0  0  0
  4  1  1  0  0  0  0
  6  3  1  0  0  0  0
  9 15  1  0  0  0  0
  9 14  1  0  0  0  0
 10 11  1  0  0  0  0
 10  9  2  0  0  0  0
 11 12  2  0  0  0  0
 12 13  1  0  0  0  0
 13 14  2  0  0  0  0
 13 17  1  0  0  0  0
 16 10  1  0  0  0  0
 19 18  2  6  0  0  0
 19 22  1  0  0  0  0
 20 19  1  0  0  0  0
 21 20  1  0  0  0  0
 22 23  1  0  0  0  0
 23 24  2  0  0  0  0
 23 33  1  0  0  0  0
 24 26  1  0  0  0  0
 25 24  1  0  0  0  0
 26 27  2  0  0  0  0
 28 27  1  0  0  0  0
 28 29  1  0  0  0  0
 30 29  2  0  0  0  0
 31 30  1  0  0  0  0
 32 33  1  0  0  0  0
 32 31  2  0  0  0  0
 33 28  2  0  0  0  0
M  END
>  <minimizedAffinity>
-5.58359623

$$$$
