
     RDKit          3D

 46 49  0  0  0  0  0  0  0  0999 V2000
   46.8128   34.1170   43.0581 C   0  0  0  0  0  0  0  0  0  0  0  0
   45.6347   33.7109   42.4280 C   0  0  0  0  0  0  0  0  0  0  0  0
   44.9181   32.6608   43.0286 C   0  0  0  0  0  0  0  0  0  0  0  0
   45.3774   32.0967   44.1611 N   0  0  0  0  0  0  0  0  0  0  0  0
   46.5102   32.5150   44.7351 C   0  0  0  0  0  0  0  0  0  0  0  0
   47.2339   33.5223   44.1925 N   0  0  0  0  0  0  0  0  0  0  0  0
   47.6763   29.9329   44.8239 F   0  0  0  0  0  0  0  0  0  0  0  0
   47.5952   30.6584   45.9857 C   0  0  0  0  0  0  0  0  0  0  0  0
   47.0286   31.9184   45.9730 C   0  0  0  0  0  0  0  0  0  0  0  0
   46.9923   32.5733   47.1926 C   0  0  0  0  0  0  0  0  0  0  0  0
   47.4915   31.9972   48.3370 C   0  0  0  0  0  0  0  0  0  0  0  0
   48.0467   30.7327   48.2831 C   0  0  0  0  0  0  0  0  0  0  0  0
   48.1121   30.0249   47.0921 C   0  0  0  0  0  0  0  0  0  0  0  0
   48.6985   28.6482   47.0221 C   0  0  0  0  0  0  0  0  0  0  0  0
   45.2032   34.3797   41.1952 C   0  0  0  0  0  0  0  0  0  0  0  0
   44.9075   35.7097   41.4493 F   0  0  0  0  0  0  0  0  0  0  0  0
   46.2708   34.3708   40.3099 F   0  0  0  0  0  0  0  0  0  0  0  0
   44.1360   33.8215   40.5787 F   0  0  0  0  0  0  0  0  0  0  0  0
   47.5104   35.1228   42.4862 O   0  0  0  0  0  0  0  0  0  0  0  0
   48.8152   35.0568   41.9565 C   0  0  0  0  0  0  0  0  0  0  0  0
   49.6926   35.2859   42.9959 F   0  0  0  0  0  0  0  0  0  0  0  0
   49.0026   33.8378   41.3517 F   0  0  0  0  0  0  0  0  0  0  0  0
   49.0064   36.1032   41.0817 F   0  0  0  0  0  0  0  0  0  0  0  0
   44.0200   32.3706   42.5232 H   0  0  0  0  0  0  0  0  0  0  0  0
   46.5476   33.5586   47.1789 H   0  0  0  0  0  0  0  0  0  0  0  0
   47.4370   32.5554   49.2676 H   0  0  0  0  0  0  0  0  0  0  0  0
   48.4440   30.2592   49.1651 H   0  0  0  0  0  0  0  0  0  0  0  0
   48.7409   28.1737   47.9994 H   0  0  0  0  0  0  0  0  0  0  0  0
   47.9620   28.0864   46.3742 H   0  0  0  0  0  0  0  0  0  0  0  0
   50.0095   28.6771   46.3058 C   0  0  0  0  0  0  0  0  0  0  0  0
   50.0155   29.1086   44.9966 C   0  0  0  0  0  0  0  0  0  0  0  0
   49.1019   29.4584   44.5105 H   0  0  0  0  0  0  0  0  0  0  0  0
   51.2051   29.0880   44.3143 C   0  0  0  0  0  0  0  0  0  0  0  0
   52.4064   28.6655   44.8393 C   0  0  0  0  0  0  0  0  0  0  0  0
   52.3675   28.2379   46.1620 C   0  0  0  0  0  0  0  0  0  0  0  0
   53.5364   27.8112   46.7544 C   0  0  0  0  0  0  0  0  0  0  0  0
   53.5988   27.3710   48.0819 C   0  0  0  0  0  0  0  0  0  0  0  0
   52.3713   27.4186   48.7105 C   0  0  0  0  0  0  0  0  0  0  0  0
   51.1611   27.8250   48.2051 C   0  0  0  0  0  0  0  0  0  0  0  0
   51.1909   28.2431   46.8834 C   0  0  0  0  0  0  0  0  0  0  0  0
   51.2749   29.4155   43.2741 H   0  0  0  0  0  0  0  0  0  0  0  0
   53.3221   28.6559   44.2837 H   0  0  0  0  0  0  0  0  0  0  0  0
   54.4530   27.8101   46.1786 H   0  0  0  0  0  0  0  0  0  0  0  0
   54.5061   27.0322   48.5526 H   0  0  0  0  0  0  0  0  0  0  0  0
   52.3620   27.0884   49.7607 H   0  0  0  0  0  0  0  0  0  0  0  0
   50.2830   27.8039   48.8294 H   0  0  0  0  0  0  0  0  0  0  0  0
  1  6  2  0
  2  3  2  0
  2  1  1  0
  3  4  1  0
  4  5  2  0
  5  9  1  0
  6  5  1  0
  7  8  1  0
  8 13  2  0
  9  8  1  0
  9 10  2  0
 10 11  1  0
 12 11  2  0
 13 12  1  0
 14 13  1  0
 15 16  1  0
 15  2  1  0
 17 15  1  0
 18 15  1  0
 19  1  1  0
 20 19  1  0
 20 21  1  0
 22 20  1  0
 23 20  1  0
  3 24  1  0
 10 25  1  0
 11 26  1  0
 12 27  1  0
 14 28  1  0
 14 29  1  0
 30 31  2  0
 31 32  1  0
 31 33  1  0
 33 34  2  0
 34 35  1  0
 35 36  2  0
 36 37  1  0
 37 38  2  0
 38 39  1  0
 39 40  2  0
 40 30  1  0
 40 35  1  0
 33 41  1  0
 34 42  1  0
 36 43  1  0
 37 44  1  0
 38 45  1  0
 39 46  1  0
 14 30  1  0
M  ISO  7  24  14  25  14  26  14  27  14  28   8  29   8  32  15
M  END
>  <DihAtoms>  (1) 
12,13,29,30

>  <DihDeg>  (1) 
29.091650076394323

$$$$
