REMARK  Name = 
REMARK  12 active torsions:
REMARK  status: ('A' for Active; 'I' for Inactive)
REMARK    1  A    between atoms: C_1  and  C_2
REMARK    2  A    between atoms: C_1  and  C_12
REMARK    3  A    between atoms: C_3  and  S_8
REMARK    4  A    between atoms: S_8  and  C_9
REMARK    5  A    between atoms: C_9  and  C_10
REMARK    6  A    between atoms: C_10  and  N_11
REMARK    7  A    between atoms: C_12  and  C_13
REMARK    8  A    between atoms: C_16  and  O_18
REMARK    9  A    between atoms: O_18  and  P_20
REMARK   10  A    between atoms: P_20  and  O_21
REMARK   11  A    between atoms: P_20  and  O_22
REMARK   12  A    between atoms: O_22  and  C_37
REMARK                            x       y       z     vdW  Elec       q    Type
REMARK                         _______ _______ _______ _____ _____    ______ ____
ROOT
ATOM      1  C   UNL     1      46.751  34.942  41.948  0.00  0.00    +0.000 C 
ATOM      2  H   UNL     1      46.949  34.273  42.832  0.00  0.00    +0.000 HD
ATOM      3  H   UNL     1      47.077  35.960  42.275  0.00  0.00    +0.000 HD
ENDROOT
BRANCH   1   4
ATOM      4  C   UNL     1      45.288  34.936  41.754  0.00  0.00    +0.000 A 
ATOM      5  C   UNL     1      44.435  35.601  42.680  0.00  0.00    +0.000 A 
ATOM      6  S   UNL     1      42.760  35.309  42.016  0.00  0.00    +0.000 S 
ATOM      7  C   UNL     1      43.483  34.313  40.559  0.00  0.00    +0.000 A 
ATOM      8  N   UNL     1      44.598  34.383  40.809  0.00  0.00    +0.000 NA
ATOM      9  H   UNL     1      44.774  36.161  43.593  0.00  0.00    +0.000 HD
BRANCH   7  10
ATOM     10  O   UNL     1      42.698  33.740  39.570  0.00  0.00    +0.000 OA
BRANCH  10  12
ATOM     11  O   UNL     1      40.755  33.983  37.788  0.00  0.00    +0.000 OA
ATOM     12  P   UNL     1      41.775  34.792  38.604  0.00  0.00    +0.000 P 
BRANCH  12  13
ATOM     13  O   UNL     1      40.933  35.831  39.642  0.00  0.00    +0.000 OA
ATOM     14  H   UNL     1      40.437  35.291  40.312  0.00  0.00    +0.000 HD
ENDBRANCH  12  13
BRANCH  12  15
ATOM     15  O   UNL     1      42.786  35.700  37.608  0.00  0.00    +0.000 OA
BRANCH  15  16
ATOM     16  C   UNL     1      42.229  36.730  36.861  0.00  0.00    +0.000 A 
ATOM     17  C   UNL     1      40.874  36.876  36.647  0.00  0.00    +0.000 A 
ATOM     18  H   UNL     1      40.191  36.157  37.078  0.00  0.00    +0.000 HD
ATOM     19  C   UNL     1      40.469  37.953  35.881  0.00  0.00    +0.000 A 
ATOM     20  C   UNL     1      41.356  38.868  35.334  0.00  0.00    +0.000 A 
ATOM     21  C   UNL     1      42.707  38.676  35.579  0.00  0.00    +0.000 A 
ATOM     22  C   UNL     1      43.606  39.585  35.037  0.00  0.00    +0.000 A 
ATOM     23  C   UNL     1      44.968  39.400  35.279  0.00  0.00    +0.000 A 
ATOM     24  C   UNL     1      45.461  38.351  36.033  0.00  0.00    +0.000 A 
ATOM     25  C   UNL     1      44.521  37.480  36.546  0.00  0.00    +0.000 A 
ATOM     26  C   UNL     1      43.160  37.622  36.334  0.00  0.00    +0.000 A 
ENDBRANCH  15  16
ENDBRANCH  12  15
ENDBRANCH  10  12
ENDBRANCH   7  10
ENDBRANCH   1   4
BRANCH   1  27
ATOM     27  C   UNL     1      47.529  34.445  40.774  0.00  0.00    +0.000 C 
ATOM     28  H   UNL     1      47.794  35.343  40.154  0.00  0.00    +0.000 HD
ATOM     29  H   UNL     1      46.859  33.804  40.166  0.00  0.00    +0.000 HD
BRANCH  27  30
ATOM     30  C   UNL     1      48.784  33.765  41.127  0.00  0.00    +0.000 A 
ATOM     31  C   UNL     1      49.107  32.626  40.416  0.00  0.00    +0.000 A 
ATOM     32  C   UNL     1      50.262  31.923  40.676  0.00  0.00    +0.000 A 
ATOM     33  N   UNL     1      51.073  32.419  41.682  0.00  0.00    +0.000 NA
ATOM     34  C   UNL     1      50.716  33.549  42.361  0.00  0.00    +0.000 A 
ATOM     35  N   UNL     1      49.588  34.204  42.081  0.00  0.00    +0.000 NA
ATOM     36  H   UNL     1      50.556  31.028  40.147  0.00  0.00    +0.000 HD
ATOM     37  H   UNL     1      51.362  33.929  43.150  0.00  0.00    +0.000 HD
BRANCH  31  38
ATOM     38  S   UNL     1      48.008  32.041  39.125  0.00  0.00    +0.000 S 
BRANCH  38  39
ATOM     39  C   UNL     1      48.828  32.163  37.519  0.00  0.00    +0.000 C 
ATOM     40  H   UNL     1      49.917  32.050  37.706  0.00  0.00    +0.000 HD
ATOM     41  H   UNL     1      48.549  31.301  36.859  0.00  0.00    +0.000 HD
BRANCH  39  42
ATOM     42  C   UNL     1      48.483  33.495  36.898  0.00  0.00    +0.000 C 
ATOM     43  H   UNL     1      49.366  34.158  37.005  0.00  0.00    +0.000 HD
ATOM     44  H   UNL     1      47.638  33.986  37.411  0.00  0.00    +0.000 HD
BRANCH  42  45
ATOM     45  N   UNL     1      48.193  33.292  35.515  0.00  0.00    +0.000 NA
ATOM     46  H   UNL     1      49.029  32.928  35.008  0.00  0.00    +0.000 HD
ATOM     47  H   UNL     1      47.799  34.137  35.038  0.00  0.00    +0.000 HD
ENDBRANCH  42  45
ENDBRANCH  39  42
ENDBRANCH  38  39
ENDBRANCH  31  38
ENDBRANCH  27  30
ENDBRANCH   1  27
TORSDOF 12
