REMARK  Name = 
REMARK  3 active torsions:
REMARK  status: ('A' for Active; 'I' for Inactive)
REMARK    1  A    between atoms: C_1  and  S_17
REMARK    2  A    between atoms: C_11  and  N_16
REMARK    3  A    between atoms: S_17  and  C_24
REMARK                            x       y       z     vdW  Elec       q    Type
REMARK                         _______ _______ _______ _____ _____    ______ ____
ROOT
ATOM      1  C   UNL     1      47.698  33.484  40.134  0.00  0.00    +0.000 A 
ATOM      2  C   UNL     1      49.038  33.219  40.379  0.00  0.00    +0.000 A 
ATOM      3  C   UNL     1      49.516  33.305  41.719  0.00  0.00    +0.000 A 
ATOM      4  N   UNL     1      48.596  33.649  42.666  0.00  0.00    +0.000 NA
ATOM      5  C   UNL     1      47.300  33.898  42.378  0.00  0.00    +0.000 A 
ATOM      6  N   UNL     1      46.853  33.817  41.120  0.00  0.00    +0.000 NA
ATOM      7  N   UNL     1      46.414  34.253  43.452  0.00  0.00    +0.000 N 
ATOM      8  C   UNL     1      45.509  35.241  43.445  0.00  0.00    +0.000 A 
ATOM      9  N   UNL     1      44.875  35.246  44.650  0.00  0.00    +0.000 NA
ATOM     10  C   UNL     1      45.408  34.260  45.369  0.00  0.00    +0.000 A 
ATOM     11  C   UNL     1      45.196  33.774  46.631  0.00  0.00    +0.000 A 
ATOM     12  N   UNL     1      45.881  32.743  47.135  0.00  0.00    +0.000 NA
ATOM     13  C   UNL     1      46.832  32.110  46.428  0.00  0.00    +0.000 A 
ATOM     14  N   UNL     1      47.045  32.584  45.185  0.00  0.00    +0.000 NA
ATOM     15  C   UNL     1      46.385  33.613  44.635  0.00  0.00    +0.000 A 
ATOM     16  H   UNL     1      49.742  32.950  39.615  0.00  0.00    +0.000 HD
ATOM     17  H   UNL     1      50.541  33.111  41.972  0.00  0.00    +0.000 HD
ATOM     18  H   UNL     1      45.340  35.901  42.603  0.00  0.00    +0.000 HD
ATOM     19  H   UNL     1      47.386  31.279  46.831  0.00  0.00    +0.000 HD
ENDROOT
BRANCH  11  20
ATOM     20  N   UNL     1      44.225  34.340  47.493  0.00  0.00    +0.000 N 
ATOM     21  H   UNL     1      44.261  34.269  48.534  0.00  0.00    +0.000 HD
ATOM     22  H   UNL     1      43.410  34.869  47.061  0.00  0.00    +0.000 HD
ENDBRANCH  11  20
BRANCH   1  23
ATOM     23  S   UNL     1      47.223  33.341  38.404  0.00  0.00    +0.000 S 
BRANCH  23  24
ATOM     24  C   UNL     1      45.482  33.702  38.193  0.00  0.00    +0.000 A 
ATOM     25  C   UNL     1      44.599  32.885  38.883  0.00  0.00    +0.000 A 
ATOM     26  H   UNL     1      44.938  32.078  39.511  0.00  0.00    +0.000 HD
ATOM     27  C   UNL     1      43.224  33.112  38.763  0.00  0.00    +0.000 A 
ATOM     28  C   UNL     1      42.855  34.146  37.954  0.00  0.00    +0.000 A 
ATOM     29  C   UNL     1      43.685  34.993  37.243  0.00  0.00    +0.000 A 
ATOM     30  C   UNL     1      43.196  36.013  36.452  0.00  0.00    +0.000 A 
ATOM     31  C   UNL     1      44.156  36.774  35.803  0.00  0.00    +0.000 A 
ATOM     32  C   UNL     1      45.517  36.563  35.911  0.00  0.00    +0.000 A 
ATOM     33  C   UNL     1      45.975  35.536  36.709  0.00  0.00    +0.000 A 
ATOM     34  C   UNL     1      45.050  34.744  37.382  0.00  0.00    +0.000 A 
ENDBRANCH  23  24
ENDBRANCH   1  23
TORSDOF 3
