
     RDKit          3D

 32 34  0  0  0  0  0  0  0  0999 V2000
   45.1906   35.2116   44.0642 C   0  0  0  0  0  0  0  0  0  0  0  0
   46.2131   34.5904   43.3604 C   0  0  0  0  0  0  0  0  0  0  0  0
   46.8923   33.5661   44.0544 C   0  0  0  0  0  0  0  0  0  0  0  0
   46.5243   33.2518   45.3289 N   0  0  0  0  0  0  0  0  0  0  0  0
   45.5118   33.9094   45.9447 C   0  0  0  0  0  0  0  0  0  0  0  0
   44.8442   34.8935   45.3057 N   0  0  0  0  0  0  0  0  0  0  0  0
   46.5613   34.9575   42.0061 C   0  0  1  0  0  0  0  0  0  0  0  0
   48.0585   35.2057   41.9415 C   0  0  0  0  0  0  0  0  0  0  0  0
   44.5989   36.0121   43.6434 H   0  0  0  0  0  0  0  0  0  0  0  0
   47.7119   33.0175   43.5832 H   0  0  0  0  0  0  0  0  0  0  0  0
   45.3909   33.4970   46.9515 H   0  0  0  0  0  0  0  0  0  0  0  0
   46.1270   35.9620   41.7837 H   0  0  0  0  0  0  0  0  0  0  0  0
   48.6378   34.4647   42.5032 H   0  0  0  0  0  0  0  0  0  0  0  0
   48.2881   36.2100   42.4017 H   0  0  0  0  0  0  0  0  0  0  0  0
   48.3872   35.2931   40.8812 H   0  0  0  0  0  0  0  0  0  0  0  0
   46.2205   33.9693   40.9599 C   0  0  0  0  0  0  0  0  0  0  0  0
   47.1387   33.7777   39.9165 C   0  0  0  0  0  0  0  0  0  0  0  0
   48.0596   34.3705   39.9027 H   0  0  0  0  0  0  0  0  0  0  0  0
   46.9887   32.8920   38.8811 C   0  0  0  0  0  0  0  0  0  0  0  0
   45.8460   32.1212   38.8521 C   0  0  0  0  0  0  0  0  0  0  0  0
   44.9045   32.2614   39.8470 C   0  0  0  0  0  0  0  0  0  0  0  0
   43.7628   31.5130   39.8337 C   0  0  0  0  0  0  0  0  0  0  0  0
   42.8256   31.6699   40.8339 C   0  0  0  0  0  0  0  0  0  0  0  0
   43.0156   32.5741   41.8578 C   0  0  0  0  0  0  0  0  0  0  0  0
   44.1749   33.3197   41.8527 C   0  0  0  0  0  0  0  0  0  0  0  0
   45.1048   33.1662   40.8643 C   0  0  0  0  0  0  0  0  0  0  0  0
   47.7444   32.8037   38.1135 H   0  0  0  0  0  0  0  0  0  0  0  0
   45.6880   31.4062   38.0487 H   0  0  0  0  0  0  0  0  0  0  0  0
   43.6366   30.8156   39.0263 H   0  0  0  0  0  0  0  0  0  0  0  0
   41.9591   31.0571   40.7641 H   0  0  0  0  0  0  0  0  0  0  0  0
   42.2385   32.6360   42.5963 H   0  0  0  0  0  0  0  0  0  0  0  0
   44.3076   34.0141   42.6392 H   0  0  0  0  0  0  0  0  0  0  0  0
  1  6  2  0
  2  1  1  0
  2  3  2  0
  3  4  1  0
  4  5  2  0
  6  5  1  0
  7  2  1  0
  8  7  1  0
  1  9  1  0
  3 10  1  0
  5 11  1  0
  7 12  1  6
  8 13  1  0
  8 14  1  0
  8 15  1  0
 16 17  2  0
 17 18  1  0
 17 19  1  0
 19 20  2  0
 20 21  1  0
 21 22  2  0
 22 23  1  0
 23 24  2  0
 24 25  1  0
 25 26  2  0
 26 16  1  0
 26 21  1  0
 19 27  1  0
 20 28  1  0
 22 29  1  0
 23 30  1  0
 24 31  1  0
 25 32  1  0
  7 16  1  0
M  ISO  8   9  14  10  14  11  14  12   8  13   8  14   8  15   8  18  15
M  END
>  <DihAtoms>  (1) 
1,6,15,16

>  <DihDeg>  (1) 
-95.70095803197756

$$$$
