
 OpenBabel03242519413D

 31 33  0  0  0  0  0  0  0  0999 V2000
   47.9760   32.8700   41.6770 O   0  0  0  0  0  0  0  0  0  0  0  0
   47.1160   34.0900   41.2510 P   0  0  2  0  0  0  0  0  0  0  0  0
   45.5290   33.8840   41.8750 O   0  0  0  0  0  0  0  0  0  0  0  0
   44.3990   35.9170   44.6770 C   0  0  0  0  0  0  0  0  0  0  0  0
   44.6570   35.4980   43.3510 C   0  0  0  0  0  0  0  0  0  0  0  0
   45.2910   34.2590   43.1790 C   0  0  0  0  0  0  0  0  0  0  0  0
   45.6150   33.5410   44.2720 N   0  0  0  0  0  0  0  0  0  0  0  0
   45.3540   33.9670   45.5270 C   0  0  0  0  0  0  0  0  0  0  0  0
   44.7500   35.1480   45.7400 N   0  0  0  0  0  0  0  0  0  0  0  0
   43.9110   36.8710   44.8180 H   0  0  0  0  0  0  0  0  0  0  0  0
   44.3570   36.1450   42.5500 H   0  0  0  0  0  0  0  0  0  0  0  0
   45.6490   33.3270   46.3650 H   0  0  0  0  0  0  0  0  0  0  0  0
   47.0360   34.1450   39.5950 O   0  0  0  0  0  0  0  0  0  0  0  0
   47.0020   33.1360   38.6860 C   0  0  0  0  0  0  0  0  0  0  0  0
   46.4530   33.4050   37.4760 O   0  0  0  0  0  0  0  0  0  0  0  0
   47.3540   31.7220   38.4190 C   0  0  0  0  0  0  0  0  0  0  0  0
   46.3430   30.7690   38.1580 C   0  0  0  0  0  0  0  0  0  0  0  0
   45.3290   31.2180   38.0360 H   0  0  0  0  0  0  0  0  0  0  0  0
   46.3810   29.4060   38.0320 C   0  0  0  0  0  3  0  0  0  0  0  0
   47.6610   28.9410   38.1990 C   0  0  0  0  0  3  0  0  0  0  0  0
   48.7070   29.7930   38.4530 C   0  0  0  0  0  0  0  0  0  0  0  0
   49.9900   29.3030   38.5740 C   0  0  0  0  0  3  0  0  0  0  0  0
   51.1440   30.0260   38.7870 C   0  0  0  0  0  3  0  0  0  0  0  0
   50.9450   31.4100   38.8840 C   0  0  0  0  0  3  0  0  0  0  0  0
   49.6790   31.9260   38.7680 C   0  0  0  0  0  3  0  0  0  0  0  0
   48.5590   31.1730   38.5610 C   0  0  0  0  0  0  0  0  0  0  0  0
   47.7970   35.4260   41.9580 O   0  0  0  0  0  0  0  0  0  0  0  0
   49.0400   35.7340   41.4250 C   0  0  0  0  0  0  0  0  0  0  0  0
   49.4570   37.0100   41.7580 F   0  0  0  0  0  0  0  0  0  0  0  0
   49.9490   34.7780   41.7450 F   0  0  0  0  0  0  0  0  0  0  0  0
   48.8790   35.7280   40.0410 F   0  0  0  0  0  0  0  0  0  0  0  0
  2  1  2  1  0  0  0
  2  3  1  0  0  0  0
  2 27  1  0  0  0  0
  3  6  1  0  0  0  0
  4 10  1  0  0  0  0
  4  9  1  0  0  0  0
  5  4  2  0  0  0  0
  6  5  1  0  0  0  0
  6  7  2  0  0  0  0
  7  8  1  0  0  0  0
  8  9  2  0  0  0  0
  8 12  1  0  0  0  0
 11  5  1  0  0  0  0
 13  2  1  0  0  0  0
 14 13  1  0  0  0  0
 15 14  2  0  0  0  0
 16 26  1  0  0  0  0
 16 14  1  0  0  0  0
 17 16  2  0  0  0  0
 18 17  1  0  0  0  0
 19 17  1  0  0  0  0
 19 20  2  0  0  0  0
 20 21  1  0  0  0  0
 21 26  2  0  0  0  0
 21 22  1  0  0  0  0
 22 23  2  0  0  0  0
 23 24  1  0  0  0  0
 25 24  2  0  0  0  0
 26 25  1  0  0  0  0
 28 30  1  0  0  0  0
 28 29  1  0  0  0  0
 28 27  1  0  0  0  0
 31 28  1  0  0  0  0
M  END
>  <minimizedAffinity>
-5.14220428

>  <minimizedRMSD>
1.31072736

$$$$
