
 OpenBabel03252507553D

 46 50  0  0  1  0  0  0  0  0999 V2000
   49.1240   32.1860   40.5940 C   0  0  2  0  0  0  0  0  0  0  0  0
   49.9790   31.6620   41.6500 C   0  0  0  0  0  0  0  0  0  0  0  0
   50.5080   31.8510   40.2640 C   0  0  1  0  0  0  0  0  0  0  0  0
   48.3360   31.5210   40.1950 H   0  0  0  0  0  0  0  0  0  0  0  0
   50.4210   32.3810   42.3840 H   0  0  0  0  0  0  0  0  0  0  0  0
   49.9310   30.6220   42.0340 H   0  0  0  0  0  0  0  0  0  0  0  0
   51.1200   32.6910   39.9280 H   0  0  0  0  0  0  0  0  0  0  0  0
   47.1010   34.8270   41.9760 C   0  0  2  0  0  0  0  0  0  0  0  0
   46.3370   34.2210   40.7950 C   0  0  0  0  0  0  0  0  0  0  0  0
   47.5440   34.0190   39.8530 C   0  0  0  0  0  0  0  0  0  0  0  0
   48.6710   33.6190   40.7570 C   0  0  1  0  0  0  0  0  0  0  0  0
   48.1510   33.7660   42.1550 C   0  0  0  0  0  0  0  0  0  0  0  0
   47.5740   35.7730   41.6760 H   0  0  0  0  0  0  0  0  0  0  0  0
   45.9510   33.2540   41.1320 H   0  0  0  0  0  0  0  0  0  0  0  0
   45.6100   34.9070   40.3580 H   0  0  0  0  0  0  0  0  0  0  0  0
   47.2930   33.2490   39.1000 H   0  0  0  0  0  0  0  0  0  0  0  0
   47.7910   34.9840   39.3790 H   0  0  0  0  0  0  0  0  0  0  0  0
   49.5640   34.2800   40.6460 H   0  0  0  0  0  0  0  0  0  0  0  0
   47.6810   32.8230   42.4960 H   0  0  0  0  0  0  0  0  0  0  0  0
   48.9330   34.0360   42.8950 H   0  0  0  0  0  0  0  0  0  0  0  0
   44.5490   36.0110   44.4770 C   0  0  0  0  0  0  0  0  0  0  0  0
   45.2970   35.9900   43.3070 C   0  0  0  0  0  0  0  0  0  0  0  0
   46.2190   34.9530   43.1690 C   0  0  0  0  0  0  0  0  0  0  0  0
   46.3620   33.9930   44.1780 N   0  0  0  0  0  0  0  0  0  0  0  0
   45.5990   34.0700   45.3000 C   0  0  0  0  0  0  0  0  0  0  0  0
   44.6970   35.0760   45.4450 N   0  0  0  0  0  0  0  0  0  0  0  0
   43.8280   36.8090   44.6000 H   0  0  0  0  0  0  0  0  0  0  0  0
   45.2080   36.7160   42.5130 H   0  0  0  0  0  0  0  0  0  0  0  0
   45.7930   33.2800   46.0110 H   0  0  0  0  0  0  0  0  0  0  0  0
   50.7260   30.6840   39.4890 O   0  0  0  0  0  0  0  0  0  0  0  0
   51.9830   29.9930   37.3100 O   0  0  0  0  0  0  0  0  0  0  0  0
   52.0100   30.9830   38.4470 P   0  0  1  0  0  0  0  0  0  0  0  0
   51.8650   32.5530   37.7730 O   0  0  0  0  0  0  0  0  0  0  0  0
   51.3960   32.5000   36.9100 H   0  0  0  0  0  0  0  0  0  0  0  0
   53.5060   30.9110   39.1730 O   0  0  0  0  0  0  0  0  0  0  0  0
   54.5990   30.4860   38.4320 C   0  0  0  0  0  0  0  0  0  0  0  0
   55.0300   30.9930   37.2240 C   0  0  0  0  0  0  0  0  0  0  0  0
   54.4480   31.8050   36.8200 H   0  0  0  0  0  0  0  0  0  0  0  0
   56.1360   30.4860   36.5800 C   0  0  0  0  0  3  0  0  0  0  0  0
   56.8690   29.4320   37.1300 C   0  0  0  0  0  3  0  0  0  0  0  0
   56.4530   28.9120   38.3380 C   0  0  0  0  0  0  0  0  0  0  0  0
   57.1670   27.8630   38.9040 C   0  0  0  0  0  3  0  0  0  0  0  0
   56.7780   27.3100   40.1240 C   0  0  0  0  0  3  0  0  0  0  0  0
   55.6590   27.8260   40.7710 C   0  0  0  0  0  3  0  0  0  0  0  0
   54.9930   28.8610   40.1670 C   0  0  0  0  0  3  0  0  0  0  0  0
   55.3360   29.4400   38.9650 C   0  0  0  0  0  0  0  0  0  0  0  0
  1  4  1  6  0  0  0
  1 11  1  0  0  0  0
  1  2  1  0  0  0  0
  2  6  1  0  0  0  0
  2  5  1  0  0  0  0
  3  7  1  6  0  0  0
  3  1  1  0  0  0  0
  3  2  1  0  0  0  0
  8 13  1  6  0  0  0
  8 12  1  0  0  0  0
  8 23  1  0  0  0  0
  9 14  1  0  0  0  0
  9  8  1  0  0  0  0
 10 11  1  0  0  0  0
 10  9  1  0  0  0  0
 11 18  1  6  0  0  0
 11 12  1  0  0  0  0
 12 19  1  0  0  0  0
 12 20  1  0  0  0  0
 15  9  1  0  0  0  0
 16 10  1  0  0  0  0
 17 10  1  0  0  0  0
 21 27  1  0  0  0  0
 21 26  1  0  0  0  0
 22 21  2  0  0  0  0
 23 22  1  0  0  0  0
 23 24  2  0  0  0  0
 24 25  1  0  0  0  0
 25 26  2  0  0  0  0
 25 29  1  0  0  0  0
 28 22  1  0  0  0  0
 30  3  1  0  0  0  0
 32 31  2  6  0  0  0
 32 35  1  0  0  0  0
 32 30  1  0  0  0  0
 33 32  1  0  0  0  0
 34 33  1  0  0  0  0
 36 46  1  0  0  0  0
 36 35  1  0  0  0  0
 37 36  2  0  0  0  0
 38 37  1  0  0  0  0
 39 40  2  0  0  0  0
 39 37  1  0  0  0  0
 40 41  1  0  0  0  0
 41 42  2  0  0  0  0
 41 46  1  0  0  0  0
 42 43  1  0  0  0  0
 43 44  2  0  0  0  0
 45 44  1  0  0  0  0
 46 45  2  0  0  0  0
M  END
>  <minimizedAffinity>
-5.73564148

>  <minimizedRMSD>
2.53855634

$$$$
