
 OpenBabel03242516533D

 47 51  0  0  1  0  0  0  0  0999 V2000
   47.8300   32.8440   41.7100 C   0  0  1  0  0  0  0  0  0  0  0  0
   47.4480   32.1750   40.4630 C   0  0  0  0  0  0  0  0  0  0  0  0
   48.4550   32.6210   39.4060 C   0  0  0  0  0  0  0  0  0  0  0  0
   48.1650   34.0840   39.1250 C   0  0  0  0  0  0  0  0  0  0  0  0
   48.1650   34.9480   40.3550 C   0  0  0  0  0  0  0  0  0  0  0  0
   47.6790   34.3660   41.6110 C   0  0  1  0  0  0  0  0  0  0  0  0
   48.9460   32.7230   41.8550 H   0  0  0  0  0  0  0  0  0  0  0  0
   47.5780   31.0770   40.5850 H   0  0  0  0  0  0  0  0  0  0  0  0
   46.4380   32.4080   40.0910 H   0  0  0  0  0  0  0  0  0  0  0  0
   48.3280   32.0800   38.4650 H   0  0  0  0  0  0  0  0  0  0  0  0
   49.4750   32.5390   39.8410 H   0  0  0  0  0  0  0  0  0  0  0  0
   47.1450   34.1520   38.6760 H   0  0  0  0  0  0  0  0  0  0  0  0
   48.9320   34.4410   38.4120 H   0  0  0  0  0  0  0  0  0  0  0  0
   49.2130   35.3370   40.4660 H   0  0  0  0  0  0  0  0  0  0  0  0
   47.5490   35.8530   40.1070 H   0  0  0  0  0  0  0  0  0  0  0  0
   48.3150   34.7640   42.4560 H   0  0  0  0  0  0  0  0  0  0  0  0
   45.4180   31.0190   43.9850 C   0  0  0  0  0  0  0  0  0  0  0  0
   46.0860   31.5110   42.8610 C   0  0  0  0  0  0  0  0  0  0  0  0
   47.1900   32.3670   42.9180 C   0  0  0  0  0  0  0  0  0  0  0  0
   47.5920   32.7090   44.1500 N   0  0  0  0  0  0  0  0  0  0  0  0
   46.9510   32.2390   45.2560 C   0  0  0  0  0  0  0  0  0  0  0  0
   45.9030   31.4250   45.1890 N   0  0  0  0  0  0  0  0  0  0  0  0
   44.5800   30.3660   43.8290 H   0  0  0  0  0  0  0  0  0  0  0  0
   45.7470   31.2240   41.8740 H   0  0  0  0  0  0  0  0  0  0  0  0
   47.2580   32.5020   46.2600 H   0  0  0  0  0  0  0  0  0  0  0  0
   46.3230   34.7980   41.9460 C   0  0  0  0  0  0  0  0  0  0  0  0
   45.9470   35.5470   43.0630 C   0  0  0  0  0  0  0  0  0  0  0  0
   44.5930   35.8590   43.1680 C   0  0  0  0  0  0  0  0  0  0  0  0
   43.7440   35.4110   42.1780 C   0  0  0  0  0  0  0  0  0  0  0  0
   44.1340   34.6670   41.0750 C   0  0  0  0  0  0  0  0  0  0  0  0
   45.4560   34.3720   40.9870 N   0  0  0  0  0  0  0  0  0  0  0  0
   46.7170   35.8130   43.7320 H   0  0  0  0  0  0  0  0  0  0  0  0
   44.2910   36.4270   44.0110 H   0  0  0  0  0  0  0  0  0  0  0  0
   42.6920   35.6620   42.2750 H   0  0  0  0  0  0  0  0  0  0  0  0
   43.1530   34.2410   40.0860 C   0  0  0  0  0  0  0  0  0  0  0  0
   42.3970   35.0980   39.5830 O   0  0  0  0  0  0  0  0  0  0  0  0
   42.8190   32.9540   39.5010 C   0  0  0  0  0  0  0  0  0  0  0  0
   42.8480   32.6980   38.1470 C   0  0  0  0  0  0  0  0  0  0  0  0
   43.1470   33.4620   37.4640 H   0  0  0  0  0  0  0  0  0  0  0  0
   42.5020   31.5050   37.5470 C   0  0  0  0  0  3  0  0  0  0  0  0
   42.0900   30.4710   38.3630 C   0  0  0  0  0  3  0  0  0  0  0  0
   42.0380   30.6570   39.7280 C   0  0  0  0  0  0  0  0  0  0  0  0
   41.6330   29.5970   40.4810 C   0  0  0  0  0  3  0  0  0  0  0  0
   41.5640   29.7040   41.8550 C   0  0  0  0  0  3  0  0  0  0  0  0
   41.9220   30.9220   42.4400 C   0  0  0  0  0  3  0  0  0  0  0  0
   42.3220   31.9510   41.6240 C   0  0  0  0  0  3  0  0  0  0  0  0
   42.4010   31.8780   40.2530 C   0  0  0  0  0  0  0  0  0  0  0  0
  1  7  1  1  0  0  0
  1 19  1  0  0  0  0
  2  8  1  0  0  0  0
  2  1  1  0  0  0  0
  3 11  1  0  0  0  0
  3  2  1  0  0  0  0
  4  3  1  0  0  0  0
  4  5  1  0  0  0  0
  5 14  1  0  0  0  0
  5  6  1  0  0  0  0
  6  1  1  0  0  0  0
  6 26  1  0  0  0  0
  6 16  1  1  0  0  0
  9  2  1  0  0  0  0
 10  3  1  0  0  0  0
 12  4  1  0  0  0  0
 13  4  1  0  0  0  0
 15  5  1  0  0  0  0
 17 22  1  0  0  0  0
 18 19  1  0  0  0  0
 18 17  2  0  0  0  0
 19 20  2  0  0  0  0
 20 21  1  0  0  0  0
 21 25  1  0  0  0  0
 22 21  2  0  0  0  0
 23 17  1  0  0  0  0
 24 18  1  0  0  0  0
 26 27  1  0  0  0  0
 27 28  2  0  0  0  0
 27 32  1  0  0  0  0
 28 33  1  0  0  0  0
 29 34  1  0  0  0  0
 29 28  1  0  0  0  0
 30 29  2  0  0  0  0
 31 30  1  0  0  0  0
 31 26  2  0  0  0  0
 35 30  1  0  0  0  0
 36 35  2  0  0  0  0
 37 35  1  0  0  0  0
 37 47  1  0  0  0  0
 38 37  2  0  0  0  0
 39 38  1  0  0  0  0
 40 38  1  0  0  0  0
 40 41  2  0  0  0  0
 41 42  1  0  0  0  0
 42 47  2  0  0  0  0
 42 43  1  0  0  0  0
 43 44  2  0  0  0  0
 44 45  1  0  0  0  0
 46 45  2  0  0  0  0
 47 46  1  0  0  0  0
M  END
>  <minimizedAffinity>
-5.7346282

>  <minimizedRMSD>
0.824917018

$$$$
