
 OpenBabel03242519413D

 31 33  0  0  0  0  0  0  0  0999 V2000
   48.0160   32.8640   41.6860 O   0  0  0  0  0  0  0  0  0  0  0  0
   47.1140   34.0500   41.2540 P   0  0  2  0  0  0  0  0  0  0  0  0
   45.5420   33.8050   41.8990 O   0  0  0  0  0  0  0  0  0  0  0  0
   44.3990   35.8930   44.6560 C   0  0  0  0  0  0  0  0  0  0  0  0
   44.6590   35.4460   43.3390 C   0  0  0  0  0  0  0  0  0  0  0  0
   45.3020   34.2080   43.1950 C   0  0  0  0  0  0  0  0  0  0  0  0
   45.6330   33.5180   44.3030 N   0  0  0  0  0  0  0  0  0  0  0  0
   45.3710   33.9710   45.5490 C   0  0  0  0  0  0  0  0  0  0  0  0
   44.7580   35.1520   45.7350 N   0  0  0  0  0  0  0  0  0  0  0  0
   43.9050   36.8470   44.7760 H   0  0  0  0  0  0  0  0  0  0  0  0
   44.3530   36.0720   42.5240 H   0  0  0  0  0  0  0  0  0  0  0  0
   45.6720   33.3520   46.4010 H   0  0  0  0  0  0  0  0  0  0  0  0
   47.0130   34.0780   39.5980 O   0  0  0  0  0  0  0  0  0  0  0  0
   46.8030   33.0660   38.7160 C   0  0  0  0  0  0  0  0  0  0  0  0
   45.8680   33.2600   37.7550 O   0  0  0  0  0  0  0  0  0  0  0  0
   47.2100   31.7020   38.3060 C   0  0  0  0  0  0  0  0  0  0  0  0
   47.9970   31.5100   37.1480 C   0  0  0  0  0  0  0  0  0  0  0  0
   48.3740   32.4600   36.7010 H   0  0  0  0  0  0  0  0  0  0  0  0
   48.3770   30.3770   36.4770 C   0  0  0  0  0  3  0  0  0  0  0  0
   47.8690   29.2590   37.0910 C   0  0  0  0  0  3  0  0  0  0  0  0
   47.0970   29.3500   38.2220 C   0  0  0  0  0  0  0  0  0  0  0  0
   46.6350   28.2090   38.8430 C   0  0  0  0  0  3  0  0  0  0  0  0
   45.8870   28.1310   39.9990 C   0  0  0  0  0  3  0  0  0  0  0  0
   45.5880   29.3730   40.5740 C   0  0  0  0  0  3  0  0  0  0  0  0
   46.0330   30.5260   39.9780 C   0  0  0  0  0  3  0  0  0  0  0  0
   46.7690   30.5610   38.8280 C   0  0  0  0  0  0  0  0  0  0  0  0
   47.7610   35.4170   41.9330 O   0  0  0  0  0  0  0  0  0  0  0  0
   49.0120   35.7250   41.4170 C   0  0  0  0  0  0  0  0  0  0  0  0
   49.4290   36.9970   41.7650 F   0  0  0  0  0  0  0  0  0  0  0  0
   49.9150   34.7640   41.7420 F   0  0  0  0  0  0  0  0  0  0  0  0
   48.8680   35.7290   40.0310 F   0  0  0  0  0  0  0  0  0  0  0  0
  2  1  2  1  0  0  0
  2  3  1  0  0  0  0
  2 27  1  0  0  0  0
  3  6  1  0  0  0  0
  4 10  1  0  0  0  0
  4  9  1  0  0  0  0
  5  4  2  0  0  0  0
  6  5  1  0  0  0  0
  6  7  2  0  0  0  0
  7  8  1  0  0  0  0
  8  9  2  0  0  0  0
  8 12  1  0  0  0  0
 11  5  1  0  0  0  0
 13  2  1  0  0  0  0
 14 13  1  0  0  0  0
 15 14  2  0  0  0  0
 16 14  1  0  0  0  0
 16 26  1  0  0  0  0
 17 16  2  0  0  0  0
 18 17  1  0  0  0  0
 19 20  2  0  0  0  0
 19 17  1  0  0  0  0
 20 21  1  0  0  0  0
 21 26  2  0  0  0  0
 21 22  1  0  0  0  0
 22 23  2  0  0  0  0
 23 24  1  0  0  0  0
 25 24  2  0  0  0  0
 26 25  1  0  0  0  0
 28 30  1  0  0  0  0
 28 29  1  0  0  0  0
 28 27  1  0  0  0  0
 31 28  1  0  0  0  0
M  END
>  <minimizedAffinity>
-4.86386108

>  <minimizedRMSD>
1.16787255

$$$$
