REMARK  Name = 
REMARK  9 active torsions:
REMARK  status: ('A' for Active; 'I' for Inactive)
REMARK    1  A    between atoms: C_1  and  C_2
REMARK    2  A    between atoms: C_1  and  C_12
REMARK    3  A    between atoms: C_5  and  O_7
REMARK    4  A    between atoms: O_7  and  P_9
REMARK    5  A    between atoms: P_9  and  O_10
REMARK    6  A    between atoms: P_9  and  O_11
REMARK    7  A    between atoms: C_12  and  C_13
REMARK    8  A    between atoms: C_14  and  S_19
REMARK    9  A    between atoms: S_19  and  C_29
REMARK                            x       y       z     vdW  Elec       q    Type
REMARK                         _______ _______ _______ _____ _____    ______ ____
ROOT
ATOM      1  C   UNL     1      48.467  33.907  41.283  0.00  0.00    +0.000 A 
ATOM      2  C   UNL     1      48.929  32.698  40.791  0.00  0.00    +0.000 A 
ATOM      3  C   UNL     1      50.181  32.217  41.151  0.00  0.00    +0.000 A 
ATOM      4  N   UNL     1      50.920  33.003  42.014  0.00  0.00    +0.000 NA
ATOM      5  C   UNL     1      50.433  34.174  42.471  0.00  0.00    +0.000 A 
ATOM      6  N   UNL     1      49.234  34.611  42.111  0.00  0.00    +0.000 NA
ATOM      7  H   UNL     1      50.552  31.274  40.773  0.00  0.00    +0.000 HD
ATOM      8  H   UNL     1      51.107  34.704  43.144  0.00  0.00    +0.000 HD
ENDROOT
BRANCH   1   9
ATOM      9  C   UNL     1      47.126  34.333  40.841  0.00  0.00    +0.000 C 
ATOM     10  H   UNL     1      47.213  35.032  39.961  0.00  0.00    +0.000 HD
ATOM     11  H   UNL     1      46.525  33.488  40.474  0.00  0.00    +0.000 HD
BRANCH   9  12
ATOM     12  C   UNL     1      46.326  35.000  41.914  0.00  0.00    +0.000 C 
ATOM     13  H   UNL     1      46.630  36.044  42.001  0.00  0.00    +0.000 HD
ATOM     14  H   UNL     1      46.553  34.517  42.907  0.00  0.00    +0.000 HD
BRANCH  12  15
ATOM     15  C   UNL     1      44.860  34.939  41.693  0.00  0.00    +0.000 A 
ATOM     16  C   UNL     1      43.971  35.427  42.712  0.00  0.00    +0.000 A 
ATOM     17  S   UNL     1      42.313  35.133  41.967  0.00  0.00    +0.000 S 
ATOM     18  C   UNL     1      43.106  34.401  40.406  0.00  0.00    +0.000 A 
ATOM     19  N   UNL     1      44.215  34.485  40.655  0.00  0.00    +0.000 NA
ATOM     20  H   UNL     1      44.251  35.854  43.667  0.00  0.00    +0.000 HD
BRANCH  18  21
ATOM     21  O   UNL     1      42.357  33.934  39.334  0.00  0.00    +0.000 OA
BRANCH  21  23
ATOM     22  O   UNL     1      40.406  34.397  37.592  0.00  0.00    +0.000 OA
ATOM     23  P   UNL     1      41.494  35.092  38.417  0.00  0.00    +0.000 P 
BRANCH  23  24
ATOM     24  O   UNL     1      40.762  36.169  39.504  0.00  0.00    +0.000 OA
ATOM     25  H   UNL     1      39.871  35.812  39.724  0.00  0.00    +0.000 HD
ENDBRANCH  23  24
BRANCH  23  26
ATOM     26  O   UNL     1      42.563  35.944  37.424  0.00  0.00    +0.000 OA
ATOM     27  H   UNL     1      42.665  36.885  37.686  0.00  0.00    +0.000 HD
ENDBRANCH  23  26
ENDBRANCH  21  23
ENDBRANCH  18  21
ENDBRANCH  12  15
ENDBRANCH   9  12
ENDBRANCH   1   9
BRANCH   2  28
ATOM     28  S   UNL     1      47.918  31.724  39.676  0.00  0.00    +0.000 S 
BRANCH  28  29
ATOM     29  C   UNL     1      48.202  32.128  37.984  0.00  0.00    +0.000 A 
ATOM     30  C   UNL     1      47.174  32.307  37.080  0.00  0.00    +0.000 A 
ATOM     31  H   UNL     1      46.154  32.195  37.429  0.00  0.00    +0.000 HD
ATOM     32  C   UNL     1      47.450  32.618  35.783  0.00  0.00    +0.000 A 
ATOM     33  C   UNL     1      48.766  32.761  35.344  0.00  0.00    +0.000 A 
ATOM     34  C   UNL     1      49.789  32.576  36.271  0.00  0.00    +0.000 A 
ATOM     35  C   UNL     1      51.103  32.716  35.843  0.00  0.00    +0.000 A 
ATOM     36  C   UNL     1      52.152  32.543  36.719  0.00  0.00    +0.000 A 
ATOM     37  C   UNL     1      51.897  32.224  38.055  0.00  0.00    +0.000 A 
ATOM     38  C   UNL     1      50.573  32.087  38.468  0.00  0.00    +0.000 A 
ATOM     39  C   UNL     1      49.521  32.257  37.604  0.00  0.00    +0.000 A 
ENDBRANCH  28  29
ENDBRANCH   2  28
TORSDOF 9
