
 OpenBabel03252502493D

 47 51  0  0  1  0  0  0  0  0999 V2000
   35.3800   28.8420   39.5800 C   0  0  0  0  0  0  0  0  0  0  0  0
   34.2640   28.8520   39.6730 H   0  0  0  0  0  0  0  0  0  0  0  0
   35.7590   28.1440   40.3550 H   0  0  0  0  0  0  0  0  0  0  0  0
   35.9990   30.1810   39.7910 C   0  0  1  0  0  0  0  0  0  0  0  0
   36.3280   30.5780   41.2000 C   0  0  0  0  0  0  0  0  0  0  0  0
   37.3910   30.2350   40.2190 C   0  0  2  0  0  0  0  0  0  0  0  0
   35.5470   30.9700   39.1980 H   0  0  0  0  0  0  0  0  0  0  0  0
   36.1480   31.6270   41.5230 H   0  0  0  0  0  0  0  0  0  0  0  0
   36.0120   29.8540   41.9890 H   0  0  0  0  0  0  0  0  0  0  0  0
   37.9940   29.3890   40.5290 H   0  0  0  0  0  0  0  0  0  0  0  0
   38.1030   31.4060   39.7170 N   0  0  0  0  0  0  0  0  0  0  0  0
   39.0590   31.9450   40.5820 C   0  0  0  0  0  0  0  0  0  0  0  0
   39.6440   33.1430   39.8500 C   0  0  0  0  0  0  0  0  0  0  0  0
   38.6800   34.1610   39.6430 N   0  0  0  0  0  0  0  0  0  0  0  0
   37.3260   33.6590   39.5280 C   0  0  0  0  0  0  0  0  0  0  0  0
   37.3440   32.2650   38.8960 C   0  0  0  0  0  0  0  0  0  0  0  0
   39.9200   31.2360   40.7230 H   0  0  0  0  0  0  0  0  0  0  0  0
   38.6940   32.2130   41.5810 H   0  0  0  0  0  0  0  0  0  0  0  0
   40.5290   33.5570   40.3910 H   0  0  0  0  0  0  0  0  0  0  0  0
   40.0640   32.7500   38.8900 H   0  0  0  0  0  0  0  0  0  0  0  0
   38.9690   34.7660   38.8650 H   0  0  0  0  0  0  0  0  0  0  0  0
   36.6970   34.3340   38.9380 H   0  0  0  0  0  0  0  0  0  0  0  0
   36.9050   33.5730   40.5670 H   0  0  0  0  0  0  0  0  0  0  0  0
   37.8190   32.3950   37.8900 H   0  0  0  0  0  0  0  0  0  0  0  0
   36.3070   31.9200   38.7910 H   0  0  0  0  0  0  0  0  0  0  0  0
   35.8390   28.3810   38.2130 C   0  0  0  0  0  0  0  0  0  0  0  0
   36.2230   29.3000   37.6900 H   0  0  0  0  0  0  0  0  0  0  0  0
   36.6560   27.6740   38.1970 H   0  0  0  0  0  0  0  0  0  0  0  0
   33.2410   26.3440   36.4500 C   0  0  0  0  0  0  0  0  0  0  0  0
   34.3930   26.6710   37.1950 C   0  0  0  0  0  0  0  0  0  0  0  0
   34.6310   27.9860   37.4310 C   0  0  0  0  0  0  0  0  0  0  0  0
   33.7590   28.8940   36.9460 N   0  0  0  0  0  0  0  0  0  0  0  0
   32.6720   28.5970   36.2430 C   0  0  0  0  0  0  0  0  0  0  0  0
   32.4250   27.3140   36.0030 N   0  0  0  0  0  0  0  0  0  0  0  0
   32.9820   25.3220   36.2200 H   0  0  0  0  0  0  0  0  0  0  0  0
   35.0160   25.8610   37.5310 H   0  0  0  0  0  0  0  0  0  0  0  0
   31.9410   29.8020   35.8690 C   0  0  0  0  0  0  0  0  0  0  0  0
   32.1490   30.4530   34.6720 C   0  0  0  0  0  0  0  0  0  0  0  0
   32.8880   30.0770   33.9460 H   0  0  0  0  0  0  0  0  0  0  0  0
   31.4930   31.5870   34.2620 C   0  0  0  0  0  3  0  0  0  0  0  0
   30.5480   32.1540   35.0750 C   0  0  0  0  0  3  0  0  0  0  0  0
   30.2880   31.5610   36.2810 C   0  0  0  0  0  0  0  0  0  0  0  0
   29.3350   32.1340   37.0960 C   0  0  0  0  0  3  0  0  0  0  0  0
   29.0230   31.5840   38.3260 C   0  0  0  0  0  3  0  0  0  0  0  0
   29.7160   30.4400   38.6870 C   0  0  0  0  0  3  0  0  0  0  0  0
   30.6530   29.9100   37.8430 C   0  0  0  0  0  3  0  0  0  0  0  0
   30.9830   30.4270   36.6260 C   0  0  0  0  0  0  0  0  0  0  0  0
  1  2  1  0  0  0  0
  1  4  1  0  0  0  0
  1  3  1  0  0  0  0
  4  7  1  6  0  0  0
  4  6  1  0  0  0  0
  4  5  1  0  0  0  0
  5  8  1  0  0  0  0
  5  9  1  0  0  0  0
  6 10  1  1  0  0  0
  6  5  1  0  0  0  0
 11  6  1  0  0  0  0
 11 12  1  0  0  0  0
 12 17  1  0  0  0  0
 12 18  1  0  0  0  0
 13 19  1  0  0  0  0
 13 12  1  0  0  0  0
 14 13  1  0  0  0  0
 15 14  1  0  0  0  0
 15 23  1  0  0  0  0
 16 15  1  0  0  0  0
 16 11  1  0  0  0  0
 20 13  1  0  0  0  0
 21 14  1  0  0  0  0
 22 15  1  0  0  0  0
 24 16  1  0  0  0  0
 25 16  1  0  0  0  0
 26  1  1  0  0  0  0
 27 26  1  0  0  0  0
 28 26  1  0  0  0  0
 29 30  1  0  0  0  0
 30 31  2  0  0  0  0
 30 36  1  0  0  0  0
 31 26  1  0  0  0  0
 32 31  1  0  0  0  0
 33 32  2  0  0  0  0
 34 33  1  0  0  0  0
 34 29  2  0  0  0  0
 35 29  1  0  0  0  0
 37 33  1  0  0  0  0
 37 47  1  0  0  0  0
 38 37  2  0  0  0  0
 39 38  1  0  0  0  0
 40 38  1  0  0  0  0
 40 41  2  0  0  0  0
 41 42  1  0  0  0  0
 42 47  2  0  0  0  0
 42 43  1  0  0  0  0
 43 44  2  0  0  0  0
 44 45  1  0  0  0  0
 46 45  2  0  0  0  0
 47 46  1  0  0  0  0
M  END
>  <minimizedAffinity>
-6.4849987

$$$$

 OpenBabel03252502493D

 47 51  0  0  1  0  0  0  0  0999 V2000
   35.8250   29.5390   38.2210 C   0  0  0  0  0  0  0  0  0  0  0  0
   36.2310   29.9690   37.2700 H   0  0  0  0  0  0  0  0  0  0  0  0
   34.8330   30.0080   38.3860 H   0  0  0  0  0  0  0  0  0  0  0  0
   36.6890   29.8090   39.4040 C   0  0  1  0  0  0  0  0  0  0  0  0
   36.5940   31.1660   40.0360 C   0  0  0  0  0  0  0  0  0  0  0  0
   36.0480   29.9560   40.7050 C   0  0  2  0  0  0  0  0  0  0  0  0
   37.7030   29.4350   39.3000 H   0  0  0  0  0  0  0  0  0  0  0  0
   37.5220   31.6630   40.3950 H   0  0  0  0  0  0  0  0  0  0  0  0
   35.9250   31.8930   39.5160 H   0  0  0  0  0  0  0  0  0  0  0  0
   34.9810   30.0180   40.8830 H   0  0  0  0  0  0  0  0  0  0  0  0
   36.8790   29.4920   41.8120 N   0  0  0  0  0  0  0  0  0  0  0  0
   38.1640   30.0380   41.8680 C   0  0  0  0  0  0  0  0  0  0  0  0
   38.8270   29.4000   43.0800 C   0  0  0  0  0  0  0  0  0  0  0  0
   38.9970   28.0020   42.9170 N   0  0  0  0  0  0  0  0  0  0  0  0
   37.9980   27.3940   42.0630 C   0  0  0  0  0  0  0  0  0  0  0  0
   36.6730   28.1510   42.1970 C   0  0  0  0  0  0  0  0  0  0  0  0
   38.1260   31.1370   42.0970 H   0  0  0  0  0  0  0  0  0  0  0  0
   38.7670   29.9170   40.9600 H   0  0  0  0  0  0  0  0  0  0  0  0
   39.8080   29.8820   43.3070 H   0  0  0  0  0  0  0  0  0  0  0  0
   38.1820   29.6520   43.9590 H   0  0  0  0  0  0  0  0  0  0  0  0
   39.0930   27.5500   43.8340 H   0  0  0  0  0  0  0  0  0  0  0  0
   37.8530   26.3360   42.3040 H   0  0  0  0  0  0  0  0  0  0  0  0
   38.3540   27.4870   41.0000 H   0  0  0  0  0  0  0  0  0  0  0  0
   36.3900   28.0750   43.2770 H   0  0  0  0  0  0  0  0  0  0  0  0
   35.9250   27.6550   41.5660 H   0  0  0  0  0  0  0  0  0  0  0  0
   35.6710   28.0350   38.1510 C   0  0  0  0  0  0  0  0  0  0  0  0
   36.5250   27.6660   37.5170 H   0  0  0  0  0  0  0  0  0  0  0  0
   35.7530   27.5030   39.0870 H   0  0  0  0  0  0  0  0  0  0  0  0
   32.9900   26.2060   36.2860 C   0  0  0  0  0  0  0  0  0  0  0  0
   34.1490   26.4430   37.0530 C   0  0  0  0  0  0  0  0  0  0  0  0
   34.4520   27.7340   37.3440 C   0  0  0  0  0  0  0  0  0  0  0  0
   33.6330   28.7040   36.8880 N   0  0  0  0  0  0  0  0  0  0  0  0
   32.5390   28.4920   36.1660 C   0  0  0  0  0  0  0  0  0  0  0  0
   32.2300   27.2330   35.8720 N   0  0  0  0  0  0  0  0  0  0  0  0
   32.6820   25.2080   36.0140 H   0  0  0  0  0  0  0  0  0  0  0  0
   34.7270   25.5900   37.3630 H   0  0  0  0  0  0  0  0  0  0  0  0
   31.8750   29.7460   35.8330 C   0  0  0  0  0  0  0  0  0  0  0  0
   32.1120   30.4210   34.6550 C   0  0  0  0  0  0  0  0  0  0  0  0
   32.8230   30.0260   33.9120 H   0  0  0  0  0  0  0  0  0  0  0  0
   31.5170   31.6020   34.2850 C   0  0  0  0  0  3  0  0  0  0  0  0
   30.6110   32.1960   35.1220 C   0  0  0  0  0  3  0  0  0  0  0  0
   30.3260   31.5820   36.3110 C   0  0  0  0  0  0  0  0  0  0  0  0
   29.4120   32.1820   37.1510 C   0  0  0  0  0  3  0  0  0  0  0  0
   29.0780   31.6140   38.3670 C   0  0  0  0  0  3  0  0  0  0  0  0
   29.7080   30.4220   38.6870 C   0  0  0  0  0  3  0  0  0  0  0  0
   30.6080   29.8660   37.8200 C   0  0  0  0  0  3  0  0  0  0  0  0
   30.9590   30.4010   36.6170 C   0  0  0  0  0  0  0  0  0  0  0  0
  1  3  1  0  0  0  0
  1  4  1  0  0  0  0
  2  1  1  0  0  0  0
  4  7  1  6  0  0  0
  4  5  1  0  0  0  0
  4  6  1  0  0  0  0
  5  8  1  0  0  0  0
  5  6  1  0  0  0  0
  6 10  1  1  0  0  0
  6 11  1  0  0  0  0
  9  5  1  0  0  0  0
 11 12  1  0  0  0  0
 11 16  1  0  0  0  0
 12 17  1  0  0  0  0
 12 13  1  0  0  0  0
 13 19  1  0  0  0  0
 13 20  1  0  0  0  0
 14 13  1  0  0  0  0
 14 21  1  0  0  0  0
 15 16  1  0  0  0  0
 15 22  1  0  0  0  0
 15 14  1  0  0  0  0
 16 24  1  0  0  0  0
 18 12  1  0  0  0  0
 23 15  1  0  0  0  0
 25 16  1  0  0  0  0
 26  1  1  0  0  0  0
 26 28  1  0  0  0  0
 27 26  1  0  0  0  0
 29 30  1  0  0  0  0
 30 31  2  0  0  0  0
 30 36  1  0  0  0  0
 31 26  1  0  0  0  0
 32 31  1  0  0  0  0
 33 32  2  0  0  0  0
 34 33  1  0  0  0  0
 34 29  2  0  0  0  0
 35 29  1  0  0  0  0
 37 33  1  0  0  0  0
 37 47  1  0  0  0  0
 38 37  2  0  0  0  0
 39 38  1  0  0  0  0
 40 38  1  0  0  0  0
 40 41  2  0  0  0  0
 41 42  1  0  0  0  0
 42 47  2  0  0  0  0
 42 43  1  0  0  0  0
 43 44  2  0  0  0  0
 44 45  1  0  0  0  0
 46 45  2  0  0  0  0
 47 46  1  0  0  0  0
M  END
>  <minimizedAffinity>
-6.38425303

$$$$

 OpenBabel03252502493D

 47 51  0  0  1  0  0  0  0  0999 V2000
   36.0300   29.8640   38.3490 C   0  0  0  0  0  0  0  0  0  0  0  0
   36.4470   30.0720   37.3300 H   0  0  0  0  0  0  0  0  0  0  0  0
   35.1060   30.4700   38.4460 H   0  0  0  0  0  0  0  0  0  0  0  0
   36.9640   30.2280   39.4510 C   0  0  1  0  0  0  0  0  0  0  0  0
   36.8320   31.5990   40.0470 C   0  0  0  0  0  0  0  0  0  0  0  0
   36.4160   30.3820   40.7930 C   0  0  2  0  0  0  0  0  0  0  0  0
   37.9880   29.9130   39.2790 H   0  0  0  0  0  0  0  0  0  0  0  0
   37.7520   32.1630   40.3160 H   0  0  0  0  0  0  0  0  0  0  0  0
   36.0800   32.2650   39.5590 H   0  0  0  0  0  0  0  0  0  0  0  0
   35.3650   30.3860   41.0540 H   0  0  0  0  0  0  0  0  0  0  0  0
   37.3570   30.0090   41.8450 N   0  0  0  0  0  0  0  0  0  0  0  0
   38.6640   30.4760   41.6750 C   0  0  0  0  0  0  0  0  0  0  0  0
   39.4430   29.9540   42.8740 C   0  0  0  0  0  0  0  0  0  0  0  0
   39.5260   28.5400   42.8770 N   0  0  0  0  0  0  0  0  0  0  0  0
   38.4000   27.8930   42.2350 C   0  0  0  0  0  0  0  0  0  0  0  0
   37.1400   28.7420   42.4250 C   0  0  0  0  0  0  0  0  0  0  0  0
   38.7050   31.5950   41.7610 H   0  0  0  0  0  0  0  0  0  0  0  0
   39.1410   30.2060   40.7260 H   0  0  0  0  0  0  0  0  0  0  0  0
   40.4660   30.3990   42.9170 H   0  0  0  0  0  0  0  0  0  0  0  0
   38.9270   30.3540   43.7820 H   0  0  0  0  0  0  0  0  0  0  0  0
   39.7160   28.2000   43.8280 H   0  0  0  0  0  0  0  0  0  0  0  0
   38.2380   26.8840   42.6290 H   0  0  0  0  0  0  0  0  0  0  0  0
   38.6240   27.8300   41.1350 H   0  0  0  0  0  0  0  0  0  0  0  0
   36.9920   28.8190   43.5320 H   0  0  0  0  0  0  0  0  0  0  0  0
   36.2960   28.2180   41.9580 H   0  0  0  0  0  0  0  0  0  0  0  0
   35.7010   28.4000   38.5470 C   0  0  0  0  0  0  0  0  0  0  0  0
   36.5340   27.8270   38.0530 H   0  0  0  0  0  0  0  0  0  0  0  0
   35.6730   28.0510   39.5680 H   0  0  0  0  0  0  0  0  0  0  0  0
   33.2940   26.6650   36.2650 C   0  0  0  0  0  0  0  0  0  0  0  0
   34.4520   26.9210   37.0290 C   0  0  0  0  0  0  0  0  0  0  0  0
   34.4950   28.0840   37.7260 C   0  0  0  0  0  0  0  0  0  0  0  0
   33.4370   28.9180   37.6500 N   0  0  0  0  0  0  0  0  0  0  0  0
   32.3430   28.6870   36.9340 C   0  0  0  0  0  0  0  0  0  0  0  0
   32.2860   27.5530   36.2450 N   0  0  0  0  0  0  0  0  0  0  0  0
   33.1840   25.7630   35.6830 H   0  0  0  0  0  0  0  0  0  0  0  0
   35.2330   26.1820   37.0140 H   0  0  0  0  0  0  0  0  0  0  0  0
   31.3870   29.7800   37.0650 C   0  0  0  0  0  0  0  0  0  0  0  0
   30.6800   30.0130   38.2250 C   0  0  0  0  0  0  0  0  0  0  0  0
   30.8180   29.3680   39.1080 H   0  0  0  0  0  0  0  0  0  0  0  0
   29.7700   31.0240   38.4100 C   0  0  0  0  0  3  0  0  0  0  0  0
   29.5090   31.8950   37.3860 C   0  0  0  0  0  3  0  0  0  0  0  0
   30.1740   31.7260   36.2030 C   0  0  0  0  0  0  0  0  0  0  0  0
   29.9100   32.6060   35.1750 C   0  0  0  0  0  3  0  0  0  0  0  0
   30.5490   32.4920   33.9540 C   0  0  0  0  0  3  0  0  0  0  0  0
   31.4580   31.4540   33.8250 C   0  0  0  0  0  3  0  0  0  0  0  0
   31.6850   30.6060   34.8750 C   0  0  0  0  0  3  0  0  0  0  0  0
   31.0730   30.6920   36.0880 C   0  0  0  0  0  0  0  0  0  0  0  0
  1  3  1  0  0  0  0
  1 26  1  0  0  0  0
  1  4  1  0  0  0  0
  2  1  1  0  0  0  0
  4  7  1  6  0  0  0
  4  5  1  0  0  0  0
  4  6  1  0  0  0  0
  5  8  1  0  0  0  0
  5  6  1  0  0  0  0
  6 10  1  1  0  0  0
  6 11  1  0  0  0  0
  9  5  1  0  0  0  0
 11 16  1  0  0  0  0
 12 17  1  0  0  0  0
 12 11  1  0  0  0  0
 12 13  1  0  0  0  0
 13 14  1  0  0  0  0
 13 19  1  0  0  0  0
 13 20  1  0  0  0  0
 14 21  1  0  0  0  0
 15 16  1  0  0  0  0
 15 22  1  0  0  0  0
 15 14  1  0  0  0  0
 16 24  1  0  0  0  0
 18 12  1  0  0  0  0
 23 15  1  0  0  0  0
 25 16  1  0  0  0  0
 26 28  1  0  0  0  0
 27 26  1  0  0  0  0
 29 30  1  0  0  0  0
 30 31  2  0  0  0  0
 31 26  1  0  0  0  0
 32 31  1  0  0  0  0
 33 37  1  0  0  0  0
 33 32  2  0  0  0  0
 34 29  2  0  0  0  0
 34 33  1  0  0  0  0
 35 29  1  0  0  0  0
 36 30  1  0  0  0  0
 37 38  1  0  0  0  0
 38 40  2  0  0  0  0
 38 39  1  0  0  0  0
 41 40  1  0  0  0  0
 42 41  2  0  0  0  0
 43 42  1  0  0  0  0
 44 43  2  0  0  0  0
 45 44  1  0  0  0  0
 45 46  2  0  0  0  0
 46 47  1  0  0  0  0
 47 42  1  0  0  0  0
 47 37  2  0  0  0  0
M  END
>  <minimizedAffinity>
-6.32111311

$$$$

 OpenBabel03252502493D

 47 51  0  0  1  0  0  0  0  0999 V2000
   43.1360   31.1930   40.4200 C   0  0  0  0  0  0  0  0  0  0  0  0
   43.9180   31.2070   41.2220 H   0  0  0  0  0  0  0  0  0  0  0  0
   43.5890   31.6620   39.5230 H   0  0  0  0  0  0  0  0  0  0  0  0
   41.9030   31.9440   40.7870 C   0  0  1  0  0  0  0  0  0  0  0  0
   41.6450   33.2400   40.0770 C   0  0  0  0  0  0  0  0  0  0  0  0
   40.8300   32.0280   39.8040 C   0  0  2  0  0  0  0  0  0  0  0  0
   41.7100   31.9730   41.8550 H   0  0  0  0  0  0  0  0  0  0  0  0
   41.2360   34.1010   40.6530 H   0  0  0  0  0  0  0  0  0  0  0  0
   42.4460   33.5720   39.3740 H   0  0  0  0  0  0  0  0  0  0  0  0
   40.8880   31.7040   38.7720 H   0  0  0  0  0  0  0  0  0  0  0  0
   39.5010   32.0850   40.4060 N   0  0  0  0  0  0  0  0  0  0  0  0
   38.6090   31.0930   39.9880 C   0  0  0  0  0  0  0  0  0  0  0  0
   37.3120   31.3690   40.7340 C   0  0  0  0  0  0  0  0  0  0  0  0
   36.7340   32.6060   40.3530 N   0  0  0  0  0  0  0  0  0  0  0  0
   37.7070   33.5900   39.9240 C   0  0  0  0  0  0  0  0  0  0  0  0
   39.0210   33.3820   40.6820 C   0  0  0  0  0  0  0  0  0  0  0  0
   38.9410   30.0790   40.3400 H   0  0  0  0  0  0  0  0  0  0  0  0
   38.4530   31.0250   38.9050 H   0  0  0  0  0  0  0  0  0  0  0  0
   36.5770   30.5420   40.5900 H   0  0  0  0  0  0  0  0  0  0  0  0
   37.5620   31.3320   41.8240 H   0  0  0  0  0  0  0  0  0  0  0  0
   36.1000   32.9400   41.0890 H   0  0  0  0  0  0  0  0  0  0  0  0
   37.3410   34.6110   40.0790 H   0  0  0  0  0  0  0  0  0  0  0  0
   37.8980   33.4260   38.8280 H   0  0  0  0  0  0  0  0  0  0  0  0
   38.7680   33.5020   41.7660 H   0  0  0  0  0  0  0  0  0  0  0  0
   39.7310   34.1570   40.3640 H   0  0  0  0  0  0  0  0  0  0  0  0
   42.6830   29.7880   40.0840 C   0  0  0  0  0  0  0  0  0  0  0  0
   41.6790   29.8970   39.5890 H   0  0  0  0  0  0  0  0  0  0  0  0
   43.2960   29.2430   39.3810 H   0  0  0  0  0  0  0  0  0  0  0  0
   43.0800   28.1590   43.4310 C   0  0  0  0  0  0  0  0  0  0  0  0
   43.4030   28.8320   42.2340 C   0  0  0  0  0  0  0  0  0  0  0  0
   42.3900   29.0800   41.3650 C   0  0  0  0  0  0  0  0  0  0  0  0
   41.1470   28.6750   41.6960 N   0  0  0  0  0  0  0  0  0  0  0  0
   40.8320   28.0410   42.8190 C   0  0  0  0  0  0  0  0  0  0  0  0
   41.8130   27.7900   43.6800 N   0  0  0  0  0  0  0  0  0  0  0  0
   43.8290   27.9250   44.1720 H   0  0  0  0  0  0  0  0  0  0  0  0
   44.4300   29.1080   42.0780 H   0  0  0  0  0  0  0  0  0  0  0  0
   39.4060   27.7430   42.8750 C   0  0  0  0  0  0  0  0  0  0  0  0
   38.4710   28.6670   43.2890 C   0  0  0  0  0  0  0  0  0  0  0  0
   38.7770   29.6800   43.5960 H   0  0  0  0  0  0  0  0  0  0  0  0
   37.1180   28.4480   43.3610 C   0  0  0  0  0  3  0  0  0  0  0  0
   36.6100   27.2270   43.0060 C   0  0  0  0  0  3  0  0  0  0  0  0
   37.4800   26.2590   42.5840 C   0  0  0  0  0  0  0  0  0  0  0  0
   36.9640   25.0310   42.2260 C   0  0  0  0  0  3  0  0  0  0  0  0
   37.7880   24.0100   41.7900 C   0  0  0  0  0  3  0  0  0  0  0  0
   39.1440   24.2880   41.7360 C   0  0  0  0  0  3  0  0  0  0  0  0
   39.6070   25.5220   42.1030 C   0  0  0  0  0  3  0  0  0  0  0  0
   38.8230   26.5480   42.5360 C   0  0  0  0  0  0  0  0  0  0  0  0
  1  4  1  0  0  0  0
  1  2  1  0  0  0  0
  3  1  1  0  0  0  0
  4  7  1  1  0  0  0
  5  8  1  0  0  0  0
  5  4  1  0  0  0  0
  6 10  1  6  0  0  0
  6  5  1  0  0  0  0
  6 11  1  0  0  0  0
  6  4  1  0  0  0  0
  9  5  1  0  0  0  0
 11 16  1  0  0  0  0
 12 17  1  0  0  0  0
 12 11  1  0  0  0  0
 12 13  1  0  0  0  0
 13 20  1  0  0  0  0
 14 13  1  0  0  0  0
 14 21  1  0  0  0  0
 15 22  1  0  0  0  0
 15 14  1  0  0  0  0
 15 16  1  0  0  0  0
 16 24  1  0  0  0  0
 18 12  1  0  0  0  0
 19 13  1  0  0  0  0
 23 15  1  0  0  0  0
 25 16  1  0  0  0  0
 26  1  1  0  0  0  0
 26 31  1  0  0  0  0
 27 26  1  0  0  0  0
 28 26  1  0  0  0  0
 29 34  1  0  0  0  0
 29 35  1  0  0  0  0
 30 29  2  0  0  0  0
 31 32  2  0  0  0  0
 31 30  1  0  0  0  0
 32 33  1  0  0  0  0
 33 37  1  0  0  0  0
 33 34  2  0  0  0  0
 36 30  1  0  0  0  0
 37 38  1  0  0  0  0
 38 40  2  0  0  0  0
 38 39  1  0  0  0  0
 41 40  1  0  0  0  0
 42 41  2  0  0  0  0
 43 42  1  0  0  0  0
 44 43  2  0  0  0  0
 45 44  1  0  0  0  0
 45 46  2  0  0  0  0
 46 47  1  0  0  0  0
 47 42  1  0  0  0  0
 47 37  2  0  0  0  0
M  END
>  <minimizedAffinity>
-6.26385069

$$$$

 OpenBabel03252502493D

 47 51  0  0  1  0  0  0  0  0999 V2000
   36.5180   30.4960   38.3950 C   0  0  0  0  0  0  0  0  0  0  0  0
   35.4070   30.6390   38.3900 H   0  0  0  0  0  0  0  0  0  0  0  0
   36.7420   29.7560   39.1910 H   0  0  0  0  0  0  0  0  0  0  0  0
   37.2700   31.7510   38.6780 C   0  0  1  0  0  0  0  0  0  0  0  0
   37.3190   32.2240   40.1010 C   0  0  0  0  0  0  0  0  0  0  0  0
   38.5150   31.6520   39.4290 C   0  0  2  0  0  0  0  0  0  0  0  0
   37.0960   32.5390   37.9510 H   0  0  0  0  0  0  0  0  0  0  0  0
   37.2320   33.3120   40.3130 H   0  0  0  0  0  0  0  0  0  0  0  0
   36.7200   31.6240   40.8270 H   0  0  0  0  0  0  0  0  0  0  0  0
   38.8910   30.7630   39.9210 H   0  0  0  0  0  0  0  0  0  0  0  0
   39.4970   32.6650   39.0520 N   0  0  0  0  0  0  0  0  0  0  0  0
   40.5630   32.2070   38.2730 C   0  0  0  0  0  0  0  0  0  0  0  0
   41.4400   33.4250   38.0260 C   0  0  0  0  0  0  0  0  0  0  0  0
   42.0110   33.9200   39.2250 N   0  0  0  0  0  0  0  0  0  0  0  0
   41.1990   33.6680   40.3980 C   0  0  0  0  0  0  0  0  0  0  0  0
   39.7170   33.6750   40.0120 C   0  0  0  0  0  0  0  0  0  0  0  0
   40.2100   31.8870   37.2560 H   0  0  0  0  0  0  0  0  0  0  0  0
   41.1310   31.3710   38.6970 H   0  0  0  0  0  0  0  0  0  0  0  0
   42.2430   33.2030   37.2820 H   0  0  0  0  0  0  0  0  0  0  0  0
   40.7920   34.1820   37.5170 H   0  0  0  0  0  0  0  0  0  0  0  0
   42.2790   34.9050   39.1070 H   0  0  0  0  0  0  0  0  0  0  0  0
   41.3870   34.4080   41.1830 H   0  0  0  0  0  0  0  0  0  0  0  0
   41.4630   32.6450   40.7820 H   0  0  0  0  0  0  0  0  0  0  0  0
   39.5200   34.6920   39.5880 H   0  0  0  0  0  0  0  0  0  0  0  0
   39.1230   33.5130   40.9200 H   0  0  0  0  0  0  0  0  0  0  0  0
   37.0380   29.9880   37.0670 C   0  0  0  0  0  0  0  0  0  0  0  0
   36.1280   29.7380   36.4550 H   0  0  0  0  0  0  0  0  0  0  0  0
   37.6030   30.6920   36.4760 H   0  0  0  0  0  0  0  0  0  0  0  0
   39.1430   26.9230   36.6340 C   0  0  0  0  0  0  0  0  0  0  0  0
   38.5430   28.1720   36.3680 C   0  0  0  0  0  0  0  0  0  0  0  0
   37.6980   28.6710   37.3060 C   0  0  0  0  0  0  0  0  0  0  0  0
   37.4850   27.9510   38.4260 N   0  0  0  0  0  0  0  0  0  0  0  0
   38.0440   26.7750   38.6870 C   0  0  0  0  0  0  0  0  0  0  0  0
   38.8730   26.2730   37.7790 N   0  0  0  0  0  0  0  0  0  0  0  0
   39.8260   26.4600   35.9390 H   0  0  0  0  0  0  0  0  0  0  0  0
   38.7890   28.6550   35.4400 H   0  0  0  0  0  0  0  0  0  0  0  0
   37.6110   26.2600   39.9800 C   0  0  0  0  0  0  0  0  0  0  0  0
   37.2060   24.9550   40.1600 C   0  0  0  0  0  0  0  0  0  0  0  0
   37.1970   24.2450   39.3170 H   0  0  0  0  0  0  0  0  0  0  0  0
   36.7890   24.4110   41.3510 C   0  0  0  0  0  3  0  0  0  0  0  0
   36.7560   25.1900   42.4760 C   0  0  0  0  0  3  0  0  0  0  0  0
   37.1450   26.4980   42.3730 C   0  0  0  0  0  0  0  0  0  0  0  0
   37.1110   27.2790   43.5090 C   0  0  0  0  0  3  0  0  0  0  0  0
   37.4920   28.6080   43.4740 C   0  0  0  0  0  3  0  0  0  0  0  0
   37.9030   29.1020   42.2470 C   0  0  0  0  0  3  0  0  0  0  0  0
   37.9190   28.2870   41.1480 C   0  0  0  0  0  3  0  0  0  0  0  0
   37.5500   26.9760   41.1490 C   0  0  0  0  0  0  0  0  0  0  0  0
  1  4  1  0  0  0  0
  1  3  1  0  0  0  0
  2  1  1  0  0  0  0
  4  7  1  6  0  0  0
  4  6  1  0  0  0  0
  4  5  1  0  0  0  0
  5  8  1  0  0  0  0
  5  9  1  0  0  0  0
  6 10  1  1  0  0  0
  6  5  1  0  0  0  0
 11  6  1  0  0  0  0
 11 16  1  0  0  0  0
 12 18  1  0  0  0  0
 12 11  1  0  0  0  0
 13 12  1  0  0  0  0
 13 14  1  0  0  0  0
 14 15  1  0  0  0  0
 15 23  1  0  0  0  0
 15 22  1  0  0  0  0
 16 15  1  0  0  0  0
 16 25  1  0  0  0  0
 17 12  1  0  0  0  0
 19 13  1  0  0  0  0
 20 13  1  0  0  0  0
 21 14  1  0  0  0  0
 24 16  1  0  0  0  0
 26 31  1  0  0  0  0
 26  1  1  0  0  0  0
 27 26  1  0  0  0  0
 28 26  1  0  0  0  0
 29 34  1  0  0  0  0
 30 29  2  0  0  0  0
 30 31  1  0  0  0  0
 31 32  2  0  0  0  0
 32 33  1  0  0  0  0
 33 37  1  0  0  0  0
 34 33  2  0  0  0  0
 35 29  1  0  0  0  0
 36 30  1  0  0  0  0
 37 38  2  0  0  0  0
 37 47  1  0  0  0  0
 38 40  1  0  0  0  0
 39 38  1  0  0  0  0
 40 41  2  0  0  0  0
 42 41  1  0  0  0  0
 42 43  1  0  0  0  0
 44 43  2  0  0  0  0
 45 44  1  0  0  0  0
 46 47  1  0  0  0  0
 46 45  2  0  0  0  0
 47 42  2  0  0  0  0
M  END
>  <minimizedAffinity>
-6.23355961

$$$$

 OpenBabel03252502493D

 47 51  0  0  1  0  0  0  0  0999 V2000
   39.0660   29.0560   37.5620 C   0  0  0  0  0  0  0  0  0  0  0  0
   39.2960   28.0810   38.0630 H   0  0  0  0  0  0  0  0  0  0  0  0
   39.5700   29.0350   36.5740 H   0  0  0  0  0  0  0  0  0  0  0  0
   39.5510   30.2380   38.3280 C   0  0  1  0  0  0  0  0  0  0  0  0
   40.7970   30.9160   37.8390 C   0  0  0  0  0  0  0  0  0  0  0  0
   39.4600   31.5500   37.6980 C   0  0  2  0  0  0  0  0  0  0  0  0
   39.5050   30.1120   39.4050 H   0  0  0  0  0  0  0  0  0  0  0  0
   41.5420   31.2810   38.5800 H   0  0  0  0  0  0  0  0  0  0  0  0
   41.3020   30.4270   36.9710 H   0  0  0  0  0  0  0  0  0  0  0  0
   39.1910   31.7420   36.6670 H   0  0  0  0  0  0  0  0  0  0  0  0
   39.2390   32.6320   38.6530 N   0  0  0  0  0  0  0  0  0  0  0  0
   40.3440   32.9770   39.4360 C   0  0  0  0  0  0  0  0  0  0  0  0
   39.8660   34.1010   40.3440 C   0  0  0  0  0  0  0  0  0  0  0  0
   38.8630   33.6650   41.2450 N   0  0  0  0  0  0  0  0  0  0  0  0
   38.0610   32.5720   40.7320 C   0  0  0  0  0  0  0  0  0  0  0  0
   37.9440   32.6870   39.2100 C   0  0  0  0  0  0  0  0  0  0  0  0
   41.1570   33.4310   38.8080 H   0  0  0  0  0  0  0  0  0  0  0  0
   40.7940   32.1550   40.0040 H   0  0  0  0  0  0  0  0  0  0  0  0
   40.7150   34.5570   40.9070 H   0  0  0  0  0  0  0  0  0  0  0  0
   39.5080   34.9190   39.6700 H   0  0  0  0  0  0  0  0  0  0  0  0
   38.3130   34.4670   41.5750 H   0  0  0  0  0  0  0  0  0  0  0  0
   37.0640   32.5580   41.1870 H   0  0  0  0  0  0  0  0  0  0  0  0
   38.5940   31.6130   40.9770 H   0  0  0  0  0  0  0  0  0  0  0  0
   37.4590   33.6770   39.0180 H   0  0  0  0  0  0  0  0  0  0  0  0
   37.3090   31.8690   38.8490 H   0  0  0  0  0  0  0  0  0  0  0  0
   37.5790   29.2660   37.3690 C   0  0  0  0  0  0  0  0  0  0  0  0
   37.4410   30.3730   37.2190 H   0  0  0  0  0  0  0  0  0  0  0  0
   37.1390   28.7980   36.5020 H   0  0  0  0  0  0  0  0  0  0  0  0
   35.2320   29.4320   40.2800 C   0  0  0  0  0  0  0  0  0  0  0  0
   35.8390   29.7360   39.0440 C   0  0  0  0  0  0  0  0  0  0  0  0
   36.9020   28.9800   38.6680 C   0  0  0  0  0  0  0  0  0  0  0  0
   37.3090   27.9910   39.4900 N   0  0  0  0  0  0  0  0  0  0  0  0
   36.7450   27.6960   40.6550 C   0  0  0  0  0  0  0  0  0  0  0  0
   35.7040   28.4280   41.0370 N   0  0  0  0  0  0  0  0  0  0  0  0
   34.3820   29.9860   40.6480 H   0  0  0  0  0  0  0  0  0  0  0  0
   35.4270   30.5480   38.4720 H   0  0  0  0  0  0  0  0  0  0  0  0
   37.4190   26.5750   41.2990 C   0  0  0  0  0  0  0  0  0  0  0  0
   36.9780   25.2750   41.1750 C   0  0  0  0  0  0  0  0  0  0  0  0
   36.0850   25.0370   40.5750 H   0  0  0  0  0  0  0  0  0  0  0  0
   37.5690   24.1790   41.7540 C   0  0  0  0  0  3  0  0  0  0  0  0
   38.6870   24.3420   42.5260 C   0  0  0  0  0  3  0  0  0  0  0  0
   39.1830   25.6060   42.6940 C   0  0  0  0  0  0  0  0  0  0  0  0
   40.3110   25.7660   43.4710 C   0  0  0  0  0  3  0  0  0  0  0  0
   40.8640   27.0160   43.6790 C   0  0  0  0  0  3  0  0  0  0  0  0
   40.2270   28.0850   43.0700 C   0  0  0  0  0  3  0  0  0  0  0  0
   39.1100   27.8750   42.3080 C   0  0  0  0  0  3  0  0  0  0  0  0
   38.5410   26.6580   42.0850 C   0  0  0  0  0  0  0  0  0  0  0  0
  1  2  1  0  0  0  0
  1  4  1  0  0  0  0
  3  1  1  0  0  0  0
  4  7  1  1  0  0  0
  5  4  1  0  0  0  0
  5  8  1  0  0  0  0
  6 10  1  6  0  0  0
  6  5  1  0  0  0  0
  6  4  1  0  0  0  0
  6 11  1  0  0  0  0
  9  5  1  0  0  0  0
 11 16  1  0  0  0  0
 11 12  1  0  0  0  0
 12 18  1  0  0  0  0
 12 13  1  0  0  0  0
 13 19  1  0  0  0  0
 13 14  1  0  0  0  0
 14 21  1  0  0  0  0
 15 23  1  0  0  0  0
 15 22  1  0  0  0  0
 15 14  1  0  0  0  0
 16 15  1  0  0  0  0
 17 12  1  0  0  0  0
 20 13  1  0  0  0  0
 24 16  1  0  0  0  0
 25 16  1  0  0  0  0
 26  1  1  0  0  0  0
 26 31  1  0  0  0  0
 27 26  1  0  0  0  0
 28 26  1  0  0  0  0
 29 35  1  0  0  0  0
 29 34  1  0  0  0  0
 30 29  2  0  0  0  0
 31 30  1  0  0  0  0
 31 32  2  0  0  0  0
 32 33  1  0  0  0  0
 33 34  2  0  0  0  0
 33 37  1  0  0  0  0
 36 30  1  0  0  0  0
 37 47  1  0  0  0  0
 38 37  2  0  0  0  0
 38 40  1  0  0  0  0
 39 38  1  0  0  0  0
 40 41  2  0  0  0  0
 41 42  1  0  0  0  0
 42 43  1  0  0  0  0
 43 44  2  0  0  0  0
 45 44  1  0  0  0  0
 46 45  2  0  0  0  0
 47 46  1  0  0  0  0
 47 42  2  0  0  0  0
M  END
>  <minimizedAffinity>
-6.22265434

$$$$

 OpenBabel03252502493D

 47 51  0  0  1  0  0  0  0  0999 V2000
   38.5490   31.5200   37.5480 C   0  0  0  0  0  0  0  0  0  0  0  0
   38.7540   31.6900   36.4600 H   0  0  0  0  0  0  0  0  0  0  0  0
   37.7780   32.2600   37.8480 H   0  0  0  0  0  0  0  0  0  0  0  0
   39.7520   31.7010   38.4080 C   0  0  1  0  0  0  0  0  0  0  0  0
   40.9790   32.2830   37.7690 C   0  0  0  0  0  0  0  0  0  0  0  0
   40.1630   33.0600   38.7390 C   0  0  2  0  0  0  0  0  0  0  0  0
   39.9480   30.8630   39.0690 H   0  0  0  0  0  0  0  0  0  0  0  0
   41.9770   31.8740   38.0410 H   0  0  0  0  0  0  0  0  0  0  0  0
   40.9060   32.4690   36.6710 H   0  0  0  0  0  0  0  0  0  0  0  0
   39.7540   33.9680   38.3140 H   0  0  0  0  0  0  0  0  0  0  0  0
   40.7890   33.1680   40.0540 N   0  0  0  0  0  0  0  0  0  0  0  0
   42.1850   33.2410   40.0490 C   0  0  0  0  0  0  0  0  0  0  0  0
   42.5940   33.3340   41.5120 C   0  0  0  0  0  0  0  0  0  0  0  0
   42.2610   32.1590   42.2310 N   0  0  0  0  0  0  0  0  0  0  0  0
   41.1040   31.4660   41.7030 C   0  0  0  0  0  0  0  0  0  0  0  0
   40.1300   32.4790   41.0920 C   0  0  0  0  0  0  0  0  0  0  0  0
   42.5370   34.2010   39.5840 H   0  0  0  0  0  0  0  0  0  0  0  0
   42.6980   32.4230   39.5310 H   0  0  0  0  0  0  0  0  0  0  0  0
   43.6840   33.5520   41.6160 H   0  0  0  0  0  0  0  0  0  0  0  0
   42.0870   34.2430   41.9230 H   0  0  0  0  0  0  0  0  0  0  0  0
   42.2020   32.3650   43.2350 H   0  0  0  0  0  0  0  0  0  0  0  0
   40.5990   30.8780   42.4770 H   0  0  0  0  0  0  0  0  0  0  0  0
   41.4600   30.7780   40.8880 H   0  0  0  0  0  0  0  0  0  0  0  0
   39.8490   33.1690   41.9270 H   0  0  0  0  0  0  0  0  0  0  0  0
   39.2490   31.9350   40.7280 H   0  0  0  0  0  0  0  0  0  0  0  0
   38.0440   30.1210   37.8270 C   0  0  0  0  0  0  0  0  0  0  0  0
   37.0900   30.0140   37.2400 H   0  0  0  0  0  0  0  0  0  0  0  0
   38.6790   29.3110   37.5000 H   0  0  0  0  0  0  0  0  0  0  0  0
   36.2830   30.8380   41.0510 C   0  0  0  0  0  0  0  0  0  0  0  0
   36.6600   30.9260   39.6950 C   0  0  0  0  0  0  0  0  0  0  0  0
   37.6100   30.0630   39.2540 C   0  0  0  0  0  0  0  0  0  0  0  0
   38.1320   29.1800   40.1300 N   0  0  0  0  0  0  0  0  0  0  0  0
   37.7840   29.0880   41.4080 C   0  0  0  0  0  0  0  0  0  0  0  0
   36.8550   29.9260   41.8550 N   0  0  0  0  0  0  0  0  0  0  0  0
   35.5340   31.4880   41.4770 H   0  0  0  0  0  0  0  0  0  0  0  0
   36.1750   31.6700   39.0890 H   0  0  0  0  0  0  0  0  0  0  0  0
   38.5300   28.0330   42.0840 C   0  0  0  0  0  0  0  0  0  0  0  0
   39.6100   28.2940   42.8980 C   0  0  0  0  0  0  0  0  0  0  0  0
   39.9520   29.3280   43.0690 H   0  0  0  0  0  0  0  0  0  0  0  0
   40.3500   27.3460   43.5610 C   0  0  0  0  0  3  0  0  0  0  0  0
   40.0260   26.0220   43.4320 C   0  0  0  0  0  3  0  0  0  0  0  0
   38.9630   25.6870   42.6390 C   0  0  0  0  0  0  0  0  0  0  0  0
   38.6390   24.3530   42.5120 C   0  0  0  0  0  3  0  0  0  0  0  0
   37.5760   23.9470   41.7270 C   0  0  0  0  0  3  0  0  0  0  0  0
   36.8650   24.9460   41.0820 C   0  0  0  0  0  3  0  0  0  0  0  0
   37.2260   26.2570   41.2390 C   0  0  0  0  0  3  0  0  0  0  0  0
   38.2670   26.6890   42.0040 C   0  0  0  0  0  0  0  0  0  0  0  0
  1 26  1  0  0  0  0
  1  3  1  0  0  0  0
  1  4  1  0  0  0  0
  2  1  1  0  0  0  0
  4  6  1  0  0  0  0
  4  7  1  1  0  0  0
  5  8  1  0  0  0  0
  5  4  1  0  0  0  0
  5  6  1  0  0  0  0
  6 10  1  6  0  0  0
  6 11  1  0  0  0  0
  9  5  1  0  0  0  0
 11 16  1  0  0  0  0
 12 11  1  0  0  0  0
 12 13  1  0  0  0  0
 13 19  1  0  0  0  0
 13 20  1  0  0  0  0
 13 14  1  0  0  0  0
 14 21  1  0  0  0  0
 15 14  1  0  0  0  0
 15 22  1  0  0  0  0
 16 15  1  0  0  0  0
 16 24  1  0  0  0  0
 17 12  1  0  0  0  0
 18 12  1  0  0  0  0
 23 15  1  0  0  0  0
 25 16  1  0  0  0  0
 26 31  1  0  0  0  0
 27 26  1  0  0  0  0
 28 26  1  0  0  0  0
 29 35  1  0  0  0  0
 29 34  1  0  0  0  0
 30 29  2  0  0  0  0
 31 30  1  0  0  0  0
 31 32  2  0  0  0  0
 32 33  1  0  0  0  0
 33 34  2  0  0  0  0
 33 37  1  0  0  0  0
 36 30  1  0  0  0  0
 37 38  1  0  0  0  0
 38 39  1  0  0  0  0
 38 40  2  0  0  0  0
 41 40  1  0  0  0  0
 42 41  2  0  0  0  0
 43 42  1  0  0  0  0
 44 43  2  0  0  0  0
 45 46  2  0  0  0  0
 45 44  1  0  0  0  0
 46 47  1  0  0  0  0
 47 37  2  0  0  0  0
 47 42  1  0  0  0  0
M  END
>  <minimizedAffinity>
-6.18641663

$$$$

 OpenBabel03252502493D

 47 51  0  0  1  0  0  0  0  0999 V2000
   38.9170   31.8890   37.8700 C   0  0  0  0  0  0  0  0  0  0  0  0
   38.2460   32.2020   37.0300 H   0  0  0  0  0  0  0  0  0  0  0  0
   38.5730   32.4320   38.7740 H   0  0  0  0  0  0  0  0  0  0  0  0
   40.3520   32.2120   37.6280 C   0  0  1  0  0  0  0  0  0  0  0  0
   41.0050   33.1960   38.5530 C   0  0  0  0  0  0  0  0  0  0  0  0
   41.3340   31.7480   38.5990 C   0  0  2  0  0  0  0  0  0  0  0  0
   40.5980   32.3520   36.5800 H   0  0  0  0  0  0  0  0  0  0  0  0
   41.7150   33.9440   38.1350 H   0  0  0  0  0  0  0  0  0  0  0  0
   40.3320   33.6630   39.3120 H   0  0  0  0  0  0  0  0  0  0  0  0
   41.1140   31.2960   39.5590 H   0  0  0  0  0  0  0  0  0  0  0  0
   42.6310   31.4380   38.0040 N   0  0  0  0  0  0  0  0  0  0  0  0
   43.3260   32.5310   37.4780 C   0  0  0  0  0  0  0  0  0  0  0  0
   44.6180   31.9590   36.9130 C   0  0  0  0  0  0  0  0  0  0  0  0
   44.3790   31.0820   35.8260 N   0  0  0  0  0  0  0  0  0  0  0  0
   43.0990   30.4080   35.8970 C   0  0  0  0  0  0  0  0  0  0  0  0
   42.7140   30.1850   37.3620 C   0  0  0  0  0  0  0  0  0  0  0  0
   43.6470   33.2340   38.2930 H   0  0  0  0  0  0  0  0  0  0  0  0
   42.7800   33.1240   36.7350 H   0  0  0  0  0  0  0  0  0  0  0  0
   45.3200   32.7700   36.6050 H   0  0  0  0  0  0  0  0  0  0  0  0
   45.1360   31.4510   37.7650 H   0  0  0  0  0  0  0  0  0  0  0  0
   45.1780   30.4480   35.7020 H   0  0  0  0  0  0  0  0  0  0  0  0
   43.1170   29.4530   35.3620 H   0  0  0  0  0  0  0  0  0  0  0  0
   42.3310   31.0820   35.4270 H   0  0  0  0  0  0  0  0  0  0  0  0
   43.5320   29.5570   37.7970 H   0  0  0  0  0  0  0  0  0  0  0  0
   41.7580   29.6470   37.3910 H   0  0  0  0  0  0  0  0  0  0  0  0
   38.8630   30.3970   38.1220 C   0  0  0  0  0  0  0  0  0  0  0  0
   38.1500   29.9800   37.3580 H   0  0  0  0  0  0  0  0  0  0  0  0
   39.7870   29.8560   37.9840 H   0  0  0  0  0  0  0  0  0  0  0  0
   36.5500   30.7600   41.0420 C   0  0  0  0  0  0  0  0  0  0  0  0
   37.1680   31.0050   39.7990 C   0  0  0  0  0  0  0  0  0  0  0  0
   38.1770   30.1760   39.4290 C   0  0  0  0  0  0  0  0  0  0  0  0
   38.5240   29.1750   40.2640 N   0  0  0  0  0  0  0  0  0  0  0  0
   37.9490   28.9350   41.4370 C   0  0  0  0  0  0  0  0  0  0  0  0
   36.9600   29.7390   41.8130 N   0  0  0  0  0  0  0  0  0  0  0  0
   35.7410   31.3750   41.4070 H   0  0  0  0  0  0  0  0  0  0  0  0
   36.8060   31.8330   39.2160 H   0  0  0  0  0  0  0  0  0  0  0  0
   38.5520   27.7830   42.0950 C   0  0  0  0  0  0  0  0  0  0  0  0
   39.5680   27.9040   43.0180 C   0  0  0  0  0  0  0  0  0  0  0  0
   39.9650   28.8940   43.2950 H   0  0  0  0  0  0  0  0  0  0  0  0
   40.1740   26.8590   43.6720 C   0  0  0  0  0  3  0  0  0  0  0  0
   39.7710   25.5760   43.4170 C   0  0  0  0  0  3  0  0  0  0  0  0
   38.7650   25.3780   42.5100 C   0  0  0  0  0  0  0  0  0  0  0  0
   38.3610   24.0850   42.2570 C   0  0  0  0  0  3  0  0  0  0  0  0
   37.3490   23.8160   41.3530 C   0  0  0  0  0  3  0  0  0  0  0  0
   36.7740   24.9090   40.7250 C   0  0  0  0  0  3  0  0  0  0  0  0
   37.2110   26.1730   41.0100 C   0  0  0  0  0  3  0  0  0  0  0  0
   38.2040   26.4710   41.8930 C   0  0  0  0  0  0  0  0  0  0  0  0
  1 26  1  0  0  0  0
  1  3  1  0  0  0  0
  2  1  1  0  0  0  0
  4  7  1  6  0  0  0
  4  1  1  0  0  0  0
  4  5  1  0  0  0  0
  4  6  1  0  0  0  0
  5  6  1  0  0  0  0
  5  9  1  0  0  0  0
  6 10  1  1  0  0  0
  8  5  1  0  0  0  0
 11  6  1  0  0  0  0
 12 11  1  0  0  0  0
 12 17  1  0  0  0  0
 13 12  1  0  0  0  0
 13 20  1  0  0  0  0
 14 15  1  0  0  0  0
 14 13  1  0  0  0  0
 15 16  1  0  0  0  0
 16 25  1  0  0  0  0
 16 24  1  0  0  0  0
 16 11  1  0  0  0  0
 18 12  1  0  0  0  0
 19 13  1  0  0  0  0
 21 14  1  0  0  0  0
 22 15  1  0  0  0  0
 23 15  1  0  0  0  0
 26 31  1  0  0  0  0
 27 26  1  0  0  0  0
 28 26  1  0  0  0  0
 29 35  1  0  0  0  0
 29 34  1  0  0  0  0
 30 29  2  0  0  0  0
 31 30  1  0  0  0  0
 31 32  2  0  0  0  0
 32 33  1  0  0  0  0
 33 34  2  0  0  0  0
 33 37  1  0  0  0  0
 36 30  1  0  0  0  0
 37 38  1  0  0  0  0
 38 39  1  0  0  0  0
 38 40  2  0  0  0  0
 41 40  1  0  0  0  0
 42 41  2  0  0  0  0
 43 42  1  0  0  0  0
 44 43  2  0  0  0  0
 45 46  2  0  0  0  0
 45 44  1  0  0  0  0
 46 47  1  0  0  0  0
 47 37  2  0  0  0  0
 47 42  1  0  0  0  0
M  END
>  <minimizedAffinity>
-6.15823793

$$$$

 OpenBabel03252502493D

 47 51  0  0  1  0  0  0  0  0999 V2000
   39.0440   28.5230   43.0680 C   0  0  0  0  0  0  0  0  0  0  0  0
   39.5710   28.4210   44.0510 H   0  0  0  0  0  0  0  0  0  0  0  0
   39.5960   27.8920   42.3420 H   0  0  0  0  0  0  0  0  0  0  0  0
   39.0110   29.9250   42.5620 C   0  0  1  0  0  0  0  0  0  0  0  0
   40.2970   30.6980   42.5810 C   0  0  0  0  0  0  0  0  0  0  0  0
   39.6950   30.2200   41.3090 C   0  0  2  0  0  0  0  0  0  0  0  0
   38.1450   30.4890   42.8930 H   0  0  0  0  0  0  0  0  0  0  0  0
   40.2780   31.7730   42.8680 H   0  0  0  0  0  0  0  0  0  0  0  0
   41.1660   30.1740   43.0440 H   0  0  0  0  0  0  0  0  0  0  0  0
   40.3420   29.5430   40.7640 H   0  0  0  0  0  0  0  0  0  0  0  0
   39.0570   31.2860   40.5420 N   0  0  0  0  0  0  0  0  0  0  0  0
   39.0590   32.5450   41.1490 C   0  0  0  0  0  0  0  0  0  0  0  0
   38.3390   33.4680   40.1770 C   0  0  0  0  0  0  0  0  0  0  0  0
   36.9770   33.1100   40.0150 N   0  0  0  0  0  0  0  0  0  0  0  0
   36.7260   31.6960   40.2070 C   0  0  0  0  0  0  0  0  0  0  0  0
   37.9500   30.8890   39.7650 C   0  0  0  0  0  0  0  0  0  0  0  0
   40.1030   32.9540   41.2250 H   0  0  0  0  0  0  0  0  0  0  0  0
   38.6210   32.5850   42.1540 H   0  0  0  0  0  0  0  0  0  0  0  0
   38.4190   34.5350   40.4960 H   0  0  0  0  0  0  0  0  0  0  0  0
   38.9100   33.4200   39.2170 H   0  0  0  0  0  0  0  0  0  0  0  0
   36.6190   33.4810   39.1270 H   0  0  0  0  0  0  0  0  0  0  0  0
   35.8380   31.3670   39.6550 H   0  0  0  0  0  0  0  0  0  0  0  0
   36.5640   31.5240   41.3060 H   0  0  0  0  0  0  0  0  0  0  0  0
   38.1000   31.1350   38.6830 H   0  0  0  0  0  0  0  0  0  0  0  0
   37.7240   29.8220   39.8900 H   0  0  0  0  0  0  0  0  0  0  0  0
   37.6010   28.0720   43.1390 C   0  0  0  0  0  0  0  0  0  0  0  0
   37.5100   27.4770   44.0900 H   0  0  0  0  0  0  0  0  0  0  0  0
   36.8590   28.8530   43.2120 H   0  0  0  0  0  0  0  0  0  0  0  0
   36.9370   24.8670   41.3220 C   0  0  0  0  0  0  0  0  0  0  0  0
   37.1400   25.7770   42.3800 C   0  0  0  0  0  0  0  0  0  0  0  0
   37.3780   27.0730   42.0530 C   0  0  0  0  0  0  0  0  0  0  0  0
   37.4040   27.4100   40.7470 N   0  0  0  0  0  0  0  0  0  0  0  0
   37.2140   26.5620   39.7430 C   0  0  0  0  0  0  0  0  0  0  0  0
   36.9810   25.2900   40.0470 N   0  0  0  0  0  0  0  0  0  0  0  0
   36.7430   23.8210   41.5000 H   0  0  0  0  0  0  0  0  0  0  0  0
   37.0960   25.3930   43.3840 H   0  0  0  0  0  0  0  0  0  0  0  0
   37.3030   27.2400   38.4550 C   0  0  0  0  0  0  0  0  0  0  0  0
   38.4820   27.3350   37.7480 C   0  0  0  0  0  0  0  0  0  0  0  0
   39.4120   26.8930   38.1390 H   0  0  0  0  0  0  0  0  0  0  0  0
   38.6290   27.9580   36.5320 C   0  0  0  0  0  3  0  0  0  0  0  0
   37.5450   28.5470   35.9380 C   0  0  0  0  0  3  0  0  0  0  0  0
   36.3400   28.4920   36.5830 C   0  0  0  0  0  0  0  0  0  0  0  0
   35.2510   29.0850   35.9810 C   0  0  0  0  0  3  0  0  0  0  0  0
   34.0040   29.0640   36.5790 C   0  0  0  0  0  3  0  0  0  0  0  0
   33.9150   28.4220   37.8030 C   0  0  0  0  0  3  0  0  0  0  0  0
   35.0250   27.8490   38.3600 C   0  0  0  0  0  3  0  0  0  0  0  0
   36.2660   27.8520   37.7980 C   0  0  0  0  0  0  0  0  0  0  0  0
  1 26  1  0  0  0  0
  1  2  1  0  0  0  0
  3  1  1  0  0  0  0
  4  5  1  0  0  0  0
  4  7  1  1  0  0  0
  4  1  1  0  0  0  0
  5  8  1  0  0  0  0
  5  9  1  0  0  0  0
  6 10  1  6  0  0  0
  6  4  1  0  0  0  0
  6  5  1  0  0  0  0
 11 12  1  0  0  0  0
 11  6  1  0  0  0  0
 12 17  1  0  0  0  0
 12 18  1  0  0  0  0
 13 19  1  0  0  0  0
 13 12  1  0  0  0  0
 14 13  1  0  0  0  0
 14 15  1  0  0  0  0
 15 23  1  0  0  0  0
 16 25  1  0  0  0  0
 16 15  1  0  0  0  0
 16 11  1  0  0  0  0
 20 13  1  0  0  0  0
 21 14  1  0  0  0  0
 22 15  1  0  0  0  0
 24 16  1  0  0  0  0
 26 28  1  0  0  0  0
 26 27  1  0  0  0  0
 29 35  1  0  0  0  0
 29 30  1  0  0  0  0
 30 36  1  0  0  0  0
 31 30  2  0  0  0  0
 31 26  1  0  0  0  0
 32 31  1  0  0  0  0
 33 34  1  0  0  0  0
 33 32  2  0  0  0  0
 34 29  2  0  0  0  0
 37 33  1  0  0  0  0
 38 39  1  0  0  0  0
 38 37  2  0  0  0  0
 40 38  1  0  0  0  0
 41 40  2  0  0  0  0
 41 42  1  0  0  0  0
 42 47  1  0  0  0  0
 43 44  1  0  0  0  0
 43 42  2  0  0  0  0
 44 45  2  0  0  0  0
 45 46  1  0  0  0  0
 47 46  2  0  0  0  0
 47 37  1  0  0  0  0
M  END
>  <minimizedAffinity>
-6.09343576

$$$$
