
 OpenBabel03252503133D

 36 40  0  0  0  0  0  0  0  0999 V2000
   46.9960   34.7680   41.8470 C   0  0  0  0  0  0  0  0  0  0  0  0
   48.2000   35.1390   41.9610 O   0  0  0  0  0  0  0  0  0  0  0  0
   45.5450   36.1920   43.2230 C   0  0  0  0  0  0  0  0  0  0  0  0
   46.1800   34.9530   42.9990 C   0  0  0  0  0  0  0  0  0  0  0  0
   45.9370   33.9910   43.9590 C   0  0  0  0  0  0  0  0  0  0  0  0
   45.1500   34.2200   45.0320 N   0  0  0  0  0  0  0  0  0  0  0  0
   44.5590   35.4260   45.2080 C   0  0  0  0  0  0  0  0  0  0  0  0
   44.7580   36.4080   44.3040 N   0  0  0  0  0  0  0  0  0  0  0  0
   45.6800   37.0140   42.5160 H   0  0  0  0  0  0  0  0  0  0  0  0
   43.9300   35.6090   46.0650 H   0  0  0  0  0  0  0  0  0  0  0  0
   46.5360   32.7290   43.8160 C   0  0  0  0  0  0  0  0  0  0  0  0
   47.7730   32.2160   44.0760 C   0  0  0  0  0  0  0  0  0  0  0  0
   48.1130   30.9600   43.8580 C   0  0  0  0  0  0  0  0  0  0  0  0
   47.1330   30.1630   43.3380 C   0  0  0  0  0  0  0  0  0  0  0  0
   45.6870   31.3040   43.1750 S   0  0  0  0  0  0  0  0  0  0  0  0
   48.4890   32.9520   44.4970 H   0  0  0  0  0  0  0  0  0  0  0  0
   49.0680   30.4920   44.0400 H   0  0  0  0  0  0  0  0  0  0  0  0
   47.1330   29.0860   43.0570 H   0  0  0  0  0  0  0  0  0  0  0  0
   46.4160   34.1700   40.6100 C   0  0  0  0  0  0  0  0  0  0  0  0
   45.1030   33.8670   40.3730 C   0  0  0  0  0  0  0  0  0  0  0  0
   45.0630   33.3500   39.1360 N   0  0  0  0  0  0  0  0  0  0  0  0
   46.3120   33.3280   38.6140 C   0  0  0  0  0  0  0  0  0  0  0  0
   47.1150   33.8330   39.5340 N   0  0  0  0  0  0  0  0  0  0  0  0
   44.3540   34.0580   41.1150 H   0  0  0  0  0  0  0  0  0  0  0  0
   44.1400   33.0590   38.7790 H   0  0  0  0  0  0  0  0  0  0  0  0
   46.4620   32.7970   37.2670 C   0  0  0  0  0  0  0  0  0  0  0  0
   45.4280   32.7960   36.3560 C   0  0  0  0  0  0  0  0  0  0  0  0
   44.4490   33.1880   36.5920 H   0  0  0  0  0  0  0  0  0  0  0  0
   45.5190   32.3060   35.0710 C   0  0  0  0  0  3  0  0  0  0  0  0
   46.7030   31.7750   34.6290 C   0  0  0  0  0  3  0  0  0  0  0  0
   47.7670   31.7460   35.4860 C   0  0  0  0  0  0  0  0  0  0  0  0
   48.9560   31.2100   35.0360 C   0  0  0  0  0  3  0  0  0  0  0  0
   50.0610   31.1540   35.8480 C   0  0  0  0  0  3  0  0  0  0  0  0
   49.9520   31.6550   37.1470 C   0  0  0  0  0  3  0  0  0  0  0  0
   48.7380   32.1760   37.5340 C   0  0  0  0  0  3  0  0  0  0  0  0
   47.6130   32.2490   36.7510 C   0  0  0  0  0  0  0  0  0  0  0  0
  1  2  2  0  0  0  0
  1  4  1  0  0  0  0
  3  8  1  0  0  0  0
  4  3  2  0  0  0  0
  4  5  1  0  0  0  0
  5  6  2  0  0  0  0
  6  7  1  0  0  0  0
  7 10  1  0  0  0  0
  8  7  2  0  0  0  0
  9  3  1  0  0  0  0
 11  5  1  0  0  0  0
 11 12  2  0  0  0  0
 12 16  1  0  0  0  0
 13 17  1  0  0  0  0
 13 12  1  0  0  0  0
 14 13  2  0  0  0  0
 15 14  1  0  0  0  0
 15 11  1  0  0  0  0
 18 14  1  0  0  0  0
 19  1  1  0  0  0  0
 20 19  2  0  0  0  0
 20 24  1  0  0  0  0
 21 20  1  0  0  0  0
 22 21  1  0  0  0  0
 22 23  2  0  0  0  0
 23 19  1  0  0  0  0
 25 21  1  0  0  0  0
 26 22  1  0  0  0  0
 27 28  1  0  0  0  0
 27 26  2  0  0  0  0
 29 27  1  0  0  0  0
 30 29  2  0  0  0  0
 30 31  1  0  0  0  0
 31 36  1  0  0  0  0
 32 31  2  0  0  0  0
 32 33  1  0  0  0  0
 33 34  2  0  0  0  0
 34 35  1  0  0  0  0
 36 26  1  0  0  0  0
 36 35  2  0  0  0  0
M  END
>  <minimizedAffinity>
-5.51831007

>  <minimizedRMSD>
1.17923546

$$$$
