
 OpenBabel03252504333D

 42 45  0  0  0  0  0  0  0  0999 V2000
   41.6190   35.6650   41.1810 C   0  0  0  0  0  0  0  0  0  0  0  0
   41.5370   35.8100   42.2840 H   0  0  0  0  0  0  0  0  0  0  0  0
   41.1370   36.5520   40.7170 H   0  0  0  0  0  0  0  0  0  0  0  0
   41.2710   33.2550   41.1910 C   0  0  0  0  0  0  0  0  0  0  0  0
   40.7050   34.5140   40.9010 C   0  0  0  0  0  0  0  0  0  0  0  0
   39.4430   34.5360   40.4130 C   0  0  0  0  0  0  0  0  0  0  0  0
   38.8370   33.3490   40.2450 N   0  0  0  0  0  0  0  0  0  0  0  0
   39.3550   32.1760   40.5120 C   0  0  0  0  0  0  0  0  0  0  0  0
   40.6250   32.1090   41.0070 N   0  0  0  0  0  0  0  0  0  0  0  0
   42.2750   33.1360   41.5860 H   0  0  0  0  0  0  0  0  0  0  0  0
   39.0490   35.5070   40.2060 H   0  0  0  0  0  0  0  0  0  0  0  0
   38.4750   31.0600   40.2290 C   0  0  0  0  0  0  0  0  0  0  0  0
   37.5860   30.6470   41.1660 C   0  0  0  0  0  0  0  0  0  0  0  0
   37.4810   31.1070   42.1530 H   0  0  0  0  0  0  0  0  0  0  0  0
   36.6930   29.5890   41.0060 C   0  0  0  0  0  3  0  0  0  0  0  0
   36.6750   28.8830   39.8240 C   0  0  0  0  0  3  0  0  0  0  0  0
   37.5590   29.2610   38.8380 C   0  0  0  0  0  0  0  0  0  0  0  0
   37.5590   28.5690   37.6490 C   0  0  0  0  0  3  0  0  0  0  0  0
   38.4230   28.8990   36.6150 C   0  0  0  0  0  3  0  0  0  0  0  0
   39.2800   29.9580   36.8470 C   0  0  0  0  0  3  0  0  0  0  0  0
   39.2540   30.6300   38.0480 C   0  0  0  0  0  3  0  0  0  0  0  0
   38.4050   30.3160   39.0800 C   0  0  0  0  0  0  0  0  0  0  0  0
   42.8730   35.4910   40.6650 O   0  0  0  0  0  0  0  0  0  0  0  0
   44.0810   35.4170   41.3370 C   0  0  0  0  0  3  0  0  0  0  0  0
   44.0280   35.6200   42.6500 C   0  0  0  0  0  3  0  0  0  0  0  0
   45.2010   35.5910   43.6080 C   0  0  0  0  0  0  0  0  0  0  0  0
   45.3920   36.5710   44.0600 H   0  0  0  0  0  0  0  0  0  0  0  0
   46.0700   35.3050   42.9630 H   0  0  0  0  0  0  0  0  0  0  0  0
   44.9440   34.5930   44.5350 O   0  0  0  0  0  0  0  0  0  0  0  0
   45.6060   32.4900   43.0600 O   0  0  0  0  0  0  0  0  0  0  0  0
   45.9680   33.2740   44.2980 P   0  0  1  0  0  0  0  0  0  0  0  0
   47.5760   33.7920   44.1050 O   0  0  0  0  0  0  0  0  0  0  0  0
   47.6960   34.5210   44.7470 H   0  0  0  0  0  0  0  0  0  0  0  0
   45.9180   32.2730   45.6570 O   0  0  0  0  0  0  0  0  0  0  0  0
   46.2180   32.9560   46.8180 C   0  0  0  0  0  0  0  0  0  0  0  0
   47.0640   32.3060   47.8660 C   0  0  0  0  0  0  0  0  0  0  0  0
   45.5590   32.4130   48.0680 C   0  0  0  0  0  0  0  0  0  0  0  0
   46.4290   34.0230   46.6890 H   0  0  0  0  0  0  0  0  0  0  0  0
   47.7360   32.9070   48.4860 H   0  0  0  0  0  0  0  0  0  0  0  0
   47.4030   31.2850   47.5840 H   0  0  0  0  0  0  0  0  0  0  0  0
   45.2660   33.2100   48.8030 H   0  0  0  0  0  0  0  0  0  0  0  0
   44.9230   31.5210   47.9940 H   0  0  0  0  0  0  0  0  0  0  0  0
  1  2  1  0  0  0  0
  3  1  1  0  0  0  0
  4 10  1  0  0  0  0
  5  1  1  0  0  0  0
  5  4  2  0  0  0  0
  6  5  1  0  0  0  0
  7  6  2  0  0  0  0
  7  8  1  0  0  0  0
  8  9  2  0  0  0  0
  9  4  1  0  0  0  0
 11  6  1  0  0  0  0
 12  8  1  0  0  0  0
 12 13  1  0  0  0  0
 13 14  1  0  0  0  0
 15 13  2  0  0  0  0
 16 15  1  0  0  0  0
 17 22  1  0  0  0  0
 17 16  2  0  0  0  0
 18 17  1  0  0  0  0
 19 20  1  0  0  0  0
 19 18  2  0  0  0  0
 20 21  2  0  0  0  0
 21 22  1  0  0  0  0
 22 12  2  0  0  0  0
 23  1  1  0  0  0  0
 23 24  1  0  0  0  0
 24 25  2  0  0  0  0
 25 26  1  0  0  0  0
 26 27  1  0  0  0  0
 26 29  1  0  0  0  0
 28 26  1  0  0  0  0
 31 30  2  6  0  0  0
 31 29  1  0  0  0  0
 31 34  1  0  0  0  0
 32 31  1  0  0  0  0
 32 33  1  0  0  0  0
 34 35  1  0  0  0  0
 35 36  1  0  0  0  0
 35 37  1  0  0  0  0
 36 37  1  0  0  0  0
 36 39  1  0  0  0  0
 37 41  1  0  0  0  0
 38 35  1  0  0  0  0
 40 36  1  0  0  0  0
 42 37  1  0  0  0  0
M  END
>  <minimizedAffinity>
-5.7235589

>  <minimizedRMSD>
1.06854033

$$$$
