REMARK  Name = 
REMARK  2 active torsions:
REMARK  status: ('A' for Active; 'I' for Inactive)
REMARK    1  A    between atoms: C_3  and  C_9
REMARK    2  A    between atoms: C_13  and  C_20
REMARK                            x       y       z     vdW  Elec       q    Type
REMARK                         _______ _______ _______ _____ _____    ______ ____
ROOT
ATOM      1 BR   UNL     1      44.543  33.091  41.302  0.00  0.00    +0.000 Br
ATOM      2  C   UNL     1      46.217  33.982  41.099  0.00  0.00    +0.000 A 
ATOM      3  C   UNL     1      46.791  34.738  42.104  0.00  0.00    +0.000 A 
ATOM      4  C   UNL     1      48.003  35.342  41.858  0.00  0.00    +0.000 A 
ATOM      5  C   UNL     1      48.670  35.224  40.655  0.00  0.00    +0.000 A 
ATOM      6  C   UNL     1      48.109  34.466  39.630  0.00  0.00    +0.000 A 
ATOM      7  C   UNL     1      46.896  33.873  39.899  0.00  0.00    +0.000 A 
ATOM      8  H   UNL     1      48.433  35.930  42.663  0.00  0.00    +0.000 HD
ATOM      9  H   UNL     1      49.620  35.708  40.488  0.00  0.00    +0.000 HD
ATOM     10  H   UNL     1      48.613  34.361  38.680  0.00  0.00    +0.000 HD
ENDROOT
BRANCH   7  11
ATOM     11  C   UNL     1      46.334  33.078  38.785  0.00  0.00    +0.000 A 
ATOM     12  C   UNL     1      47.104  32.199  38.049  0.00  0.00    +0.000 A 
ATOM     13  H   UNL     1      48.160  32.074  38.282  0.00  0.00    +0.000 HD
ATOM     14  C   UNL     1      46.493  31.502  37.030  0.00  0.00    +0.000 A 
ATOM     15  C   UNL     1      45.137  31.698  36.773  0.00  0.00    +0.000 A 
ATOM     16  C   UNL     1      44.396  32.594  37.539  0.00  0.00    +0.000 A 
ATOM     17  C   UNL     1      43.044  32.755  37.243  0.00  0.00    +0.000 A 
ATOM     18  C   UNL     1      42.311  33.653  38.014  0.00  0.00    +0.000 A 
ATOM     19  C   UNL     1      42.877  34.375  39.047  0.00  0.00    +0.000 A 
ATOM     20  C   UNL     1      44.210  34.166  39.280  0.00  0.00    +0.000 A 
ATOM     21  C   UNL     1      44.991  33.308  38.572  0.00  0.00    +0.000 A 
ENDBRANCH   7  11
BRANCH   3  24
ATOM     22  C   UNL     1      44.462  35.956  44.843  0.00  0.00    +0.000 A 
ATOM     23  C   UNL     1      45.157  35.875  43.626  0.00  0.00    +0.000 A 
ATOM     24  C   UNL     1      46.055  34.841  43.370  0.00  0.00    +0.000 A 
ATOM     25  N   UNL     1      46.209  33.934  44.360  0.00  0.00    +0.000 NA
ATOM     26  C   UNL     1      45.535  34.023  45.528  0.00  0.00    +0.000 A 
ATOM     27  N   UNL     1      44.679  35.013  45.766  0.00  0.00    +0.000 NA
ATOM     28  H   UNL     1      43.780  36.799  44.954  0.00  0.00    +0.000 HD
ATOM     29  H   UNL     1      45.054  36.584  42.815  0.00  0.00    +0.000 HD
ATOM     30  H   UNL     1      45.738  33.241  46.249  0.00  0.00    +0.000 HD
ENDBRANCH   3  24
TORSDOF 2
