
 OpenBabel03242518393D

 41 45  0  0  1  0  0  0  0  0999 V2000
   47.2980   34.7420   42.0740 C   0  0  0  0  0  0  0  0  0  0  0  0
   48.2000   35.5650   41.7630 O   0  0  0  0  0  0  0  0  0  0  0  0
   46.3850   34.8400   43.1690 C   0  0  0  0  0  0  0  0  0  0  0  0
   45.4770   35.8390   43.1170 C   0  0  0  0  0  0  0  0  0  0  0  0
   44.5920   35.9450   44.1810 C   0  0  0  0  0  0  0  0  0  0  0  0
   44.6650   35.0820   45.1930 N   0  0  0  0  0  0  0  0  0  0  0  0
   45.5620   34.1010   45.2370 C   0  0  0  0  0  0  0  0  0  0  0  0
   46.3730   34.0510   44.2010 N   0  0  0  0  0  0  0  0  0  0  0  0
   45.3440   36.5740   42.3510 H   0  0  0  0  0  0  0  0  0  0  0  0
   43.8250   36.7090   44.2400 H   0  0  0  0  0  0  0  0  0  0  0  0
   45.8170   33.0510   46.2340 C   0  0  0  0  0  0  0  0  0  0  0  0
   45.2980   33.1030   47.5360 C   0  0  0  0  0  0  0  0  0  0  0  0
   44.6870   33.9610   47.7970 H   0  0  0  0  0  0  0  0  0  0  0  0
   45.5240   32.1410   48.4760 C   0  0  0  0  0  3  0  0  0  0  0  0
   46.2950   31.0430   48.1780 C   0  0  0  0  0  3  0  0  0  0  0  0
   46.8270   30.9460   46.9120 C   0  0  0  0  0  0  0  0  0  0  0  0
   47.5920   29.8280   46.6630 C   0  0  0  0  0  3  0  0  0  0  0  0
   48.1610   29.6570   45.4190 C   0  0  0  0  0  3  0  0  0  0  0  0
   47.9190   30.6530   44.4670 C   0  0  0  0  0  3  0  0  0  0  0  0
   47.1490   31.7350   44.7880 C   0  0  0  0  0  3  0  0  0  0  0  0
   46.5670   31.9430   46.0090 C   0  0  0  0  0  0  0  0  0  0  0  0
   47.1830   33.6060   41.2550 O   0  0  0  0  0  0  0  0  0  0  0  0
   47.3570   33.7500   39.8570 C   0  0  0  0  0  0  0  0  0  0  0  0
   48.3490   34.3800   39.1060 C   0  0  0  0  0  0  0  0  0  0  0  0
   48.0530   34.2340   37.7670 C   0  0  0  0  0  0  0  0  0  0  0  0
   46.8970   33.5220   37.7600 C   0  0  0  0  0  0  0  0  0  0  0  0
   46.4970   33.2410   38.9870 O   0  0  0  0  0  0  0  0  0  0  0  0
   49.1820   34.8810   39.5970 H   0  0  0  0  0  0  0  0  0  0  0  0
   48.6570   34.6270   36.9650 H   0  0  0  0  0  0  0  0  0  0  0  0
   46.1580   33.1000   36.5460 C   0  0  2  0  0  0  0  0  0  0  0  0
   45.7580   31.7050   36.3650 C   0  0  0  0  0  0  0  0  0  0  0  0
   46.9730   32.1490   35.6330 C   0  0  1  0  0  0  0  0  0  0  0  0
   45.5760   33.8850   36.0330 H   0  0  0  0  0  0  0  0  0  0  0  0
   44.8830   31.4150   35.7660 H   0  0  0  0  0  0  0  0  0  0  0  0
   45.9550   30.9630   37.1900 H   0  0  0  0  0  0  0  0  0  0  0  0
   47.9880   31.9020   35.9570 H   0  0  0  0  0  0  0  0  0  0  0  0
   47.9460   32.5210   33.3820 C   0  0  0  0  0  0  0  0  0  0  0  0
   49.1280   32.3760   33.8120 O   0  0  0  0  0  0  0  0  0  0  0  0
   46.8010   32.4530   34.2180 N   0  0  0  0  0  0  0  0  0  0  0  0
   47.8880   32.7030   32.3160 H   0  0  0  0  0  0  0  0  0  0  0  0
   45.8510   32.6170   33.8220 H   0  0  0  0  0  0  0  0  0  0  0  0
  1  3  1  0  0  0  0
  2  1  2  0  0  0  0
  3  8  1  0  0  0  0
  4  3  2  0  0  0  0
  4  5  1  0  0  0  0
  5 10  1  0  0  0  0
  5  6  2  0  0  0  0
  6  7  1  0  0  0  0
  7 11  1  0  0  0  0
  8  7  2  0  0  0  0
  9  4  1  0  0  0  0
 11 12  1  0  0  0  0
 12 13  1  0  0  0  0
 12 14  2  0  0  0  0
 15 14  1  0  0  0  0
 16 15  2  0  0  0  0
 17 16  1  0  0  0  0
 18 17  2  0  0  0  0
 19 20  2  0  0  0  0
 19 18  1  0  0  0  0
 20 21  1  0  0  0  0
 21 11  2  0  0  0  0
 21 16  1  0  0  0  0
 22  1  1  0  0  0  0
 23 22  1  0  0  0  0
 24 28  1  0  0  0  0
 24 23  2  0  0  0  0
 25 24  1  0  0  0  0
 26 25  2  0  0  0  0
 26 27  1  0  0  0  0
 27 23  1  0  0  0  0
 29 25  1  0  0  0  0
 30 33  1  6  0  0  0
 30 26  1  0  0  0  0
 31 30  1  0  0  0  0
 31 35  1  0  0  0  0
 32 36  1  1  0  0  0
 32 31  1  0  0  0  0
 32 30  1  0  0  0  0
 34 31  1  0  0  0  0
 37 38  2  0  0  0  0
 37 39  1  0  0  0  0
 39 32  1  0  0  0  0
 40 37  1  0  0  0  0
 41 39  1  0  0  0  0
M  END
>  <minimizedAffinity>
-6.78030205

>  <minimizedRMSD>
0.55279243

$$$$
