
 OpenBabel03242523093D

 47 52  0  0  1  0  0  0  0  0999 V2000
   35.9100   29.8860   40.4620 C   0  0  0  0  0  0  0  0  0  0  0  0
   36.9170   30.2710   39.5510 C   0  0  0  0  0  0  0  0  0  0  0  0
   36.5100   30.0040   38.2570 C   0  0  0  0  0  0  0  0  0  0  0  0
   35.3340   29.4540   37.8660 C   0  0  0  0  0  0  0  0  0  0  0  0
   34.4100   29.1010   38.8300 C   0  0  0  0  0  0  0  0  0  0  0  0
   34.6900   29.3170   40.1410 C   0  0  0  0  0  0  0  0  0  0  0  0
   33.3510   28.5670   38.1290 O   0  0  0  0  0  0  0  0  0  0  0  0
   33.5590   28.7140   36.7240 C   0  0  2  0  0  0  0  0  0  0  0  0
   34.8850   29.1800   36.5960 O   0  0  0  0  0  0  0  0  0  0  0  0
   35.8900   29.9660   41.5710 H   0  0  0  0  0  0  0  0  0  0  0  0
   37.2500   30.2780   37.5760 H   0  0  0  0  0  0  0  0  0  0  0  0
   33.9190   29.0190   40.8000 H   0  0  0  0  0  0  0  0  0  0  0  0
   33.5530   27.7180   36.2200 H   0  0  0  0  0  0  0  0  0  0  0  0
   32.5000   29.6010   36.2450 C   0  0  0  0  0  0  0  0  0  0  0  0
   32.6670   30.0210   34.9110 C   0  0  0  0  0  0  0  0  0  0  0  0
   33.5260   29.7190   34.3040 H   0  0  0  0  0  0  0  0  0  0  0  0
   31.7990   30.8340   34.2400 C   0  0  0  0  0  3  0  0  0  0  0  0
   30.6650   31.3060   34.8610 C   0  0  0  0  0  3  0  0  0  0  0  0
   30.4520   30.9260   36.1670 C   0  0  0  0  0  0  0  0  0  0  0  0
   29.3600   31.3440   36.8890 C   0  0  0  0  0  3  0  0  0  0  0  0
   29.1080   30.9930   38.2140 C   0  0  0  0  0  3  0  0  0  0  0  0
   30.0630   30.1590   38.8080 C   0  0  0  0  0  3  0  0  0  0  0  0
   31.1570   29.7390   38.0870 C   0  0  0  0  0  3  0  0  0  0  0  0
   31.3610   30.1080   36.7860 C   0  0  0  0  0  0  0  0  0  0  0  0
   39.9800   30.9960   41.5570 C   0  0  0  0  0  0  0  0  0  0  0  0
   38.8770   30.2460   41.1630 C   0  0  0  0  0  0  0  0  0  0  0  0
   38.0820   30.7560   40.1750 C   0  0  0  0  0  0  0  0  0  0  0  0
   38.3950   31.9670   39.6200 N   0  0  0  0  0  0  0  0  0  0  0  0
   39.4700   32.6710   40.0220 C   0  0  0  0  0  0  0  0  0  0  0  0
   40.2490   32.1840   40.9800 N   0  0  0  0  0  0  0  0  0  0  0  0
   40.6200   30.6150   42.3300 H   0  0  0  0  0  0  0  0  0  0  0  0
   39.7880   33.6320   39.6390 H   0  0  0  0  0  0  0  0  0  0  0  0
   38.6370   29.0320   41.8080 N   0  0  0  0  0  0  0  0  0  0  0  0
   38.1160   28.9470   43.1170 C   0  0  0  0  0  0  0  0  0  0  0  0
   37.7790   27.5550   43.5830 C   0  0  0  0  0  0  0  0  0  0  0  0
   37.2010   26.7130   42.6130 N   0  0  0  0  0  0  0  0  0  0  0  0
   37.7160   26.7990   41.3180 C   0  0  0  0  0  0  0  0  0  0  0  0
   38.8930   27.7510   41.2320 C   0  0  0  0  0  0  0  0  0  0  0  0
   38.9000   29.3370   43.8060 H   0  0  0  0  0  0  0  0  0  0  0  0
   37.2190   29.5740   43.3180 H   0  0  0  0  0  0  0  0  0  0  0  0
   37.1220   27.6360   44.4870 H   0  0  0  0  0  0  0  0  0  0  0  0
   38.7210   27.0710   43.9520 H   0  0  0  0  0  0  0  0  0  0  0  0
   36.1640   26.8840   42.5950 H   0  0  0  0  0  0  0  0  0  0  0  0
   37.0060   27.0150   40.4980 H   0  0  0  0  0  0  0  0  0  0  0  0
   38.1390   25.7870   41.0450 H   0  0  0  0  0  0  0  0  0  0  0  0
   39.6990   27.2700   41.8360 H   0  0  0  0  0  0  0  0  0  0  0  0
   39.2680   27.8060   40.1900 H   0  0  0  0  0  0  0  0  0  0  0  0
  1 10  1  0  0  0  0
  2 27  1  0  0  0  0
  2  1  2  0  0  0  0
  3  2  1  0  0  0  0
  4  3  2  0  0  0  0
  4  5  1  0  0  0  0
  5  6  2  0  0  0  0
  6  1  1  0  0  0  0
  6 12  1  0  0  0  0
  7  5  1  0  0  0  0
  8 13  1  6  0  0  0
  8  7  1  0  0  0  0
  9  8  1  0  0  0  0
  9  4  1  0  0  0  0
 11  3  1  0  0  0  0
 14  8  1  0  0  0  0
 14 24  1  0  0  0  0
 15 14  2  0  0  0  0
 16 15  1  0  0  0  0
 17 18  2  0  0  0  0
 17 15  1  0  0  0  0
 18 19  1  0  0  0  0
 19 24  2  0  0  0  0
 19 20  1  0  0  0  0
 20 21  2  0  0  0  0
 21 22  1  0  0  0  0
 23 22  2  0  0  0  0
 24 23  1  0  0  0  0
 25 31  1  0  0  0  0
 26 25  1  0  0  0  0
 26 33  1  0  0  0  0
 27 26  2  0  0  0  0
 28 29  2  0  0  0  0
 28 27  1  0  0  0  0
 29 30  1  0  0  0  0
 30 25  2  0  0  0  0
 32 29  1  0  0  0  0
 33 34  1  0  0  0  0
 34 40  1  0  0  0  0
 34 35  1  0  0  0  0
 34 39  1  0  0  0  0
 35 42  1  0  0  0  0
 35 41  1  0  0  0  0
 36 35  1  0  0  0  0
 37 36  1  0  0  0  0
 38 37  1  0  0  0  0
 38 33  1  0  0  0  0
 38 46  1  0  0  0  0
 43 36  1  0  0  0  0
 44 37  1  0  0  0  0
 45 37  1  0  0  0  0
 47 38  1  0  0  0  0
M  END
>  <minimizedAffinity>
-7.4142828

$$$$

 OpenBabel03242523093D

 47 52  0  0  1  0  0  0  0  0999 V2000
   36.6280   28.0420   38.3120 C   0  0  0  0  0  0  0  0  0  0  0  0
   37.2540   28.9000   37.3810 C   0  0  0  0  0  0  0  0  0  0  0  0
   36.3440   29.2970   36.4190 C   0  0  0  0  0  0  0  0  0  0  0  0
   35.0370   28.9440   36.3320 C   0  0  0  0  0  0  0  0  0  0  0  0
   34.5130   28.0920   37.2850 C   0  0  0  0  0  0  0  0  0  0  0  0
   35.3050   27.6350   38.2880 C   0  0  0  0  0  0  0  0  0  0  0  0
   33.1960   27.9180   36.9190 O   0  0  0  0  0  0  0  0  0  0  0  0
   32.8680   28.7680   35.8190 C   0  0  2  0  0  0  0  0  0  0  0  0
   34.0980   29.3200   35.4020 O   0  0  0  0  0  0  0  0  0  0  0  0
   37.0490   27.5500   39.2150 H   0  0  0  0  0  0  0  0  0  0  0  0
   36.7980   29.9260   35.7220 H   0  0  0  0  0  0  0  0  0  0  0  0
   34.8110   26.9950   38.9680 H   0  0  0  0  0  0  0  0  0  0  0  0
   32.5140   28.1650   34.9490 H   0  0  0  0  0  0  0  0  0  0  0  0
   31.8590   29.7030   36.3130 C   0  0  0  0  0  0  0  0  0  0  0  0
   31.5650   29.5520   37.6830 C   0  0  0  0  0  0  0  0  0  0  0  0
   32.0420   28.7890   38.3050 H   0  0  0  0  0  0  0  0  0  0  0  0
   30.6720   30.3220   38.3730 C   0  0  0  0  0  3  0  0  0  0  0  0
   29.9830   31.3300   37.7370 C   0  0  0  0  0  3  0  0  0  0  0  0
   30.2320   31.5200   36.3960 C   0  0  0  0  0  0  0  0  0  0  0  0
   29.5970   32.4890   35.6580 C   0  0  0  0  0  3  0  0  0  0  0  0
   29.8090   32.7120   34.2990 C   0  0  0  0  0  3  0  0  0  0  0  0
   30.7420   31.8650   33.6880 C   0  0  0  0  0  3  0  0  0  0  0  0
   31.3800   30.8950   34.4260 C   0  0  0  0  0  3  0  0  0  0  0  0
   31.1400   30.7140   35.7600 C   0  0  0  0  0  0  0  0  0  0  0  0
   40.7040   29.8320   38.4570 C   0  0  0  0  0  0  0  0  0  0  0  0
   39.3160   29.9070   38.4650 C   0  0  0  0  0  0  0  0  0  0  0  0
   38.6300   29.0790   37.6210 C   0  0  0  0  0  0  0  0  0  0  0  0
   39.3240   28.2210   36.8120 N   0  0  0  0  0  0  0  0  0  0  0  0
   40.6690   28.1700   36.8260 C   0  0  0  0  0  0  0  0  0  0  0  0
   41.3450   28.9690   37.6430 N   0  0  0  0  0  0  0  0  0  0  0  0
   41.2650   30.4710   39.1130 H   0  0  0  0  0  0  0  0  0  0  0  0
   41.2930   27.5250   36.2220 H   0  0  0  0  0  0  0  0  0  0  0  0
   38.7070   30.8310   39.3150 N   0  0  0  0  0  0  0  0  0  0  0  0
   38.5650   32.1980   38.9900 C   0  0  0  0  0  0  0  0  0  0  0  0
   37.7450   33.0050   39.9620 C   0  0  0  0  0  0  0  0  0  0  0  0
   36.6110   32.3550   40.4870 N   0  0  0  0  0  0  0  0  0  0  0  0
   36.7520   31.0030   40.8060 C   0  0  0  0  0  0  0  0  0  0  0  0
   38.1720   30.5110   40.5990 C   0  0  0  0  0  0  0  0  0  0  0  0
   39.5880   32.6390   38.9860 H   0  0  0  0  0  0  0  0  0  0  0  0
   38.1550   32.4090   37.9770 H   0  0  0  0  0  0  0  0  0  0  0  0
   37.4620   33.9690   39.4670 H   0  0  0  0  0  0  0  0  0  0  0  0
   38.4060   33.3010   40.8170 H   0  0  0  0  0  0  0  0  0  0  0  0
   35.8120   32.4800   39.8150 H   0  0  0  0  0  0  0  0  0  0  0  0
   36.0430   30.2910   40.3440 H   0  0  0  0  0  0  0  0  0  0  0  0
   36.5620   30.8870   41.9140 H   0  0  0  0  0  0  0  0  0  0  0  0
   38.7800   31.0570   41.3600 H   0  0  0  0  0  0  0  0  0  0  0  0
   38.2450   29.4330   40.8490 H   0  0  0  0  0  0  0  0  0  0  0  0
  1 10  1  0  0  0  0
  2 27  1  0  0  0  0
  2  1  2  0  0  0  0
  3  2  1  0  0  0  0
  4  3  2  0  0  0  0
  4  5  1  0  0  0  0
  5  6  2  0  0  0  0
  6  1  1  0  0  0  0
  6 12  1  0  0  0  0
  7  5  1  0  0  0  0
  8 13  1  6  0  0  0
  8 14  1  0  0  0  0
  8  7  1  0  0  0  0
  9  8  1  0  0  0  0
  9  4  1  0  0  0  0
 11  3  1  0  0  0  0
 14 15  1  0  0  0  0
 15 16  1  0  0  0  0
 15 17  2  0  0  0  0
 18 17  1  0  0  0  0
 19 18  2  0  0  0  0
 20 19  1  0  0  0  0
 21 20  2  0  0  0  0
 22 21  1  0  0  0  0
 22 23  2  0  0  0  0
 23 24  1  0  0  0  0
 24 14  2  0  0  0  0
 24 19  1  0  0  0  0
 25 26  1  0  0  0  0
 25 31  1  0  0  0  0
 26 33  1  0  0  0  0
 27 26  2  0  0  0  0
 28 29  2  0  0  0  0
 28 27  1  0  0  0  0
 29 30  1  0  0  0  0
 30 25  2  0  0  0  0
 32 29  1  0  0  0  0
 33 38  1  0  0  0  0
 34 33  1  0  0  0  0
 34 35  1  0  0  0  0
 35 36  1  0  0  0  0
 35 42  1  0  0  0  0
 36 37  1  0  0  0  0
 37 45  1  0  0  0  0
 38 37  1  0  0  0  0
 38 47  1  0  0  0  0
 38 46  1  0  0  0  0
 39 34  1  0  0  0  0
 40 34  1  0  0  0  0
 41 35  1  0  0  0  0
 43 36  1  0  0  0  0
 44 37  1  0  0  0  0
M  END
>  <minimizedAffinity>
-7.18014336

$$$$

 OpenBabel03242523093D

 47 52  0  0  1  0  0  0  0  0999 V2000
   35.6980   27.3990   37.7150 C   0  0  0  0  0  0  0  0  0  0  0  0
   36.5170   28.3580   37.0810 C   0  0  0  0  0  0  0  0  0  0  0  0
   35.7830   29.0550   36.1390 C   0  0  0  0  0  0  0  0  0  0  0  0
   34.4740   28.8830   35.8280 C   0  0  0  0  0  0  0  0  0  0  0  0
   33.7530   27.9130   36.4980 C   0  0  0  0  0  0  0  0  0  0  0  0
   34.3600   27.1620   37.4520 C   0  0  0  0  0  0  0  0  0  0  0  0
   32.4880   27.9740   35.9570 O   0  0  0  0  0  0  0  0  0  0  0  0
   32.3870   29.0730   35.0490 C   0  0  2  0  0  0  0  0  0  0  0  0
   33.7050   29.5560   34.9100 O   0  0  0  0  0  0  0  0  0  0  0  0
   35.9490   26.6790   38.5240 H   0  0  0  0  0  0  0  0  0  0  0  0
   36.3800   29.7630   35.6580 H   0  0  0  0  0  0  0  0  0  0  0  0
   33.7240   26.4520   37.9090 H   0  0  0  0  0  0  0  0  0  0  0  0
   32.1010   28.7160   34.0310 H   0  0  0  0  0  0  0  0  0  0  0  0
   31.4060   29.9900   35.6280 C   0  0  0  0  0  0  0  0  0  0  0  0
   31.2710   29.8730   37.0250 C   0  0  0  0  0  0  0  0  0  0  0  0
   31.8420   29.1460   37.6110 H   0  0  0  0  0  0  0  0  0  0  0  0
   30.4340   30.6350   37.7900 C   0  0  0  0  0  3  0  0  0  0  0  0
   29.6440   31.5990   37.2080 C   0  0  0  0  0  3  0  0  0  0  0  0
   29.7350   31.7560   35.8420 C   0  0  0  0  0  0  0  0  0  0  0  0
   28.9870   32.6800   35.1540 C   0  0  0  0  0  3  0  0  0  0  0  0
   29.0390   32.8670   33.7740 C   0  0  0  0  0  3  0  0  0  0  0  0
   29.9280   32.0320   33.0850 C   0  0  0  0  0  3  0  0  0  0  0  0
   30.6780   31.1060   33.7730 C   0  0  0  0  0  3  0  0  0  0  0  0
   30.5940   30.9600   35.1310 C   0  0  0  0  0  0  0  0  0  0  0  0
   39.8510   28.5980   38.7400 C   0  0  0  0  0  0  0  0  0  0  0  0
   38.4820   28.8120   38.6200 C   0  0  0  0  0  0  0  0  0  0  0  0
   37.8580   28.3220   37.5070 C   0  0  0  0  0  0  0  0  0  0  0  0
   38.5910   27.6510   36.5670 N   0  0  0  0  0  0  0  0  0  0  0  0
   39.9160   27.4590   36.7100 C   0  0  0  0  0  0  0  0  0  0  0  0
   40.5320   27.9300   37.7870 N   0  0  0  0  0  0  0  0  0  0  0  0
   40.3640   28.9720   39.6060 H   0  0  0  0  0  0  0  0  0  0  0  0
   40.5680   26.9420   36.0180 H   0  0  0  0  0  0  0  0  0  0  0  0
   37.8330   29.5260   39.6280 N   0  0  0  0  0  0  0  0  0  0  0  0
   37.6810   30.9290   39.5990 C   0  0  0  0  0  0  0  0  0  0  0  0
   36.8180   31.5010   40.6930 C   0  0  0  0  0  0  0  0  0  0  0  0
   35.6770   30.7450   41.0260 N   0  0  0  0  0  0  0  0  0  0  0  0
   35.8290   29.3570   41.0510 C   0  0  0  0  0  0  0  0  0  0  0  0
   37.2610   28.9320   40.7930 C   0  0  0  0  0  0  0  0  0  0  0  0
   38.6960   31.3690   39.7270 H   0  0  0  0  0  0  0  0  0  0  0  0
   37.3010   31.3510   38.6420 H   0  0  0  0  0  0  0  0  0  0  0  0
   36.5360   32.5470   40.4080 H   0  0  0  0  0  0  0  0  0  0  0  0
   37.4460   31.6120   41.6150 H   0  0  0  0  0  0  0  0  0  0  0  0
   34.8990   31.0060   40.3690 H   0  0  0  0  0  0  0  0  0  0  0  0
   35.1460   28.7560   40.4220 H   0  0  0  0  0  0  0  0  0  0  0  0
   35.6040   29.0030   42.1010 H   0  0  0  0  0  0  0  0  0  0  0  0
   37.8360   29.3060   41.6740 H   0  0  0  0  0  0  0  0  0  0  0  0
   37.3420   27.8270   40.8070 H   0  0  0  0  0  0  0  0  0  0  0  0
  1 10  1  0  0  0  0
  2 27  1  0  0  0  0
  2  1  2  0  0  0  0
  3  2  1  0  0  0  0
  4  3  2  0  0  0  0
  4  5  1  0  0  0  0
  5  6  2  0  0  0  0
  6  1  1  0  0  0  0
  6 12  1  0  0  0  0
  7  5  1  0  0  0  0
  8 13  1  6  0  0  0
  8 14  1  0  0  0  0
  8  7  1  0  0  0  0
  9  8  1  0  0  0  0
  9  4  1  0  0  0  0
 11  3  1  0  0  0  0
 14 15  1  0  0  0  0
 15 16  1  0  0  0  0
 15 17  2  0  0  0  0
 18 17  1  0  0  0  0
 19 18  2  0  0  0  0
 20 19  1  0  0  0  0
 21 20  2  0  0  0  0
 22 23  2  0  0  0  0
 22 21  1  0  0  0  0
 23 24  1  0  0  0  0
 24 14  2  0  0  0  0
 24 19  1  0  0  0  0
 25 31  1  0  0  0  0
 26 25  1  0  0  0  0
 26 33  1  0  0  0  0
 27 26  2  0  0  0  0
 28 29  2  0  0  0  0
 28 27  1  0  0  0  0
 29 30  1  0  0  0  0
 30 25  2  0  0  0  0
 32 29  1  0  0  0  0
 33 38  1  0  0  0  0
 34 33  1  0  0  0  0
 34 39  1  0  0  0  0
 34 35  1  0  0  0  0
 35 36  1  0  0  0  0
 35 42  1  0  0  0  0
 36 37  1  0  0  0  0
 37 45  1  0  0  0  0
 38 47  1  0  0  0  0
 38 37  1  0  0  0  0
 38 46  1  0  0  0  0
 40 34  1  0  0  0  0
 41 35  1  0  0  0  0
 43 36  1  0  0  0  0
 44 37  1  0  0  0  0
M  END
>  <minimizedAffinity>
-6.95180607

$$$$

 OpenBabel03242523093D

 47 52  0  0  1  0  0  0  0  0999 V2000
   40.1540   32.7740   40.8060 C   0  0  0  0  0  0  0  0  0  0  0  0
   41.2970   32.0150   41.1410 C   0  0  0  0  0  0  0  0  0  0  0  0
   40.9150   30.7770   41.6240 C   0  0  0  0  0  0  0  0  0  0  0  0
   39.6510   30.3110   41.7760 C   0  0  0  0  0  0  0  0  0  0  0  0
   38.5930   31.1280   41.4280 C   0  0  0  0  0  0  0  0  0  0  0  0
   38.8370   32.3700   40.9360 C   0  0  0  0  0  0  0  0  0  0  0  0
   37.4650   30.3890   41.7080 O   0  0  0  0  0  0  0  0  0  0  0  0
   37.8240   29.0630   42.1010 C   0  0  2  0  0  0  0  0  0  0  0  0
   39.2280   29.0890   42.2420 O   0  0  0  0  0  0  0  0  0  0  0  0
   40.0850   33.7980   40.3810 H   0  0  0  0  0  0  0  0  0  0  0  0
   41.7520   30.2100   41.8820 H   0  0  0  0  0  0  0  0  0  0  0  0
   37.9640   32.9150   40.6940 H   0  0  0  0  0  0  0  0  0  0  0  0
   37.4360   28.8380   43.1230 H   0  0  0  0  0  0  0  0  0  0  0  0
   37.2810   28.1730   41.0760 C   0  0  0  0  0  0  0  0  0  0  0  0
   36.8730   28.8370   39.9020 C   0  0  0  0  0  0  0  0  0  0  0  0
   36.9450   29.9230   39.7880 H   0  0  0  0  0  0  0  0  0  0  0  0
   36.3530   28.2180   38.8010 C   0  0  0  0  0  3  0  0  0  0  0  0
   36.1950   26.8510   38.7810 C   0  0  0  0  0  3  0  0  0  0  0  0
   36.5770   26.1510   39.9040 C   0  0  0  0  0  0  0  0  0  0  0  0
   36.4560   24.7860   40.0000 C   0  0  0  0  0  3  0  0  0  0  0  0
   36.8200   24.0370   41.1170 C   0  0  0  0  0  3  0  0  0  0  0  0
   37.3390   24.7720   42.1910 C   0  0  0  0  0  3  0  0  0  0  0  0
   37.4620   26.1390   42.0970 C   0  0  0  0  0  3  0  0  0  0  0  0
   37.0920   26.8310   40.9770 C   0  0  0  0  0  0  0  0  0  0  0  0
   44.4320   33.7130   40.0400 C   0  0  0  0  0  0  0  0  0  0  0  0
   43.2680   32.9730   39.8630 C   0  0  0  0  0  0  0  0  0  0  0  0
   42.5050   32.7150   40.9680 C   0  0  0  0  0  0  0  0  0  0  0  0
   42.9100   33.1860   42.1870 N   0  0  0  0  0  0  0  0  0  0  0  0
   44.0430   33.9000   42.3280 C   0  0  0  0  0  0  0  0  0  0  0  0
   44.7900   34.1560   41.2610 N   0  0  0  0  0  0  0  0  0  0  0  0
   45.0470   33.9300   39.1860 H   0  0  0  0  0  0  0  0  0  0  0  0
   44.4340   34.3070   43.2510 H   0  0  0  0  0  0  0  0  0  0  0  0
   42.9570   32.5240   38.5790 N   0  0  0  0  0  0  0  0  0  0  0  0
   43.5960   31.4190   37.9750 C   0  0  0  0  0  0  0  0  0  0  0  0
   43.0180   30.9900   36.6530 C   0  0  0  0  0  0  0  0  0  0  0  0
   41.6140   31.0430   36.5560 N   0  0  0  0  0  0  0  0  0  0  0  0
   40.9840   32.1350   37.1550 C   0  0  0  0  0  0  0  0  0  0  0  0
   41.9770   33.1240   37.7330 C   0  0  0  0  0  0  0  0  0  0  0  0
   44.6520   31.7180   37.7840 H   0  0  0  0  0  0  0  0  0  0  0  0
   43.6640   30.5030   38.6040 H   0  0  0  0  0  0  0  0  0  0  0  0
   43.3970   29.9620   36.4190 H   0  0  0  0  0  0  0  0  0  0  0  0
   43.4490   31.6460   35.8520 H   0  0  0  0  0  0  0  0  0  0  0  0
   41.2170   30.1490   36.9420 H   0  0  0  0  0  0  0  0  0  0  0  0
   40.1950   31.9250   37.9020 H   0  0  0  0  0  0  0  0  0  0  0  0
   40.4390   32.7070   36.3470 H   0  0  0  0  0  0  0  0  0  0  0  0
   42.5130   33.5450   36.8480 H   0  0  0  0  0  0  0  0  0  0  0  0
   41.4440   33.9710   38.2100 H   0  0  0  0  0  0  0  0  0  0  0  0
  1  6  2  0  0  0  0
  1  2  1  0  0  0  0
  2  3  2  0  0  0  0
  3  4  1  0  0  0  0
  3 11  1  0  0  0  0
  4  9  1  0  0  0  0
  5  7  1  0  0  0  0
  5  4  2  0  0  0  0
  6  5  1  0  0  0  0
  7  8  1  0  0  0  0
  8  9  1  0  0  0  0
  8 13  1  1  0  0  0
 10  1  1  0  0  0  0
 12  6  1  0  0  0  0
 14  8  1  0  0  0  0
 15 14  2  0  0  0  0
 16 15  1  0  0  0  0
 17 15  1  0  0  0  0
 18 17  2  0  0  0  0
 18 19  1  0  0  0  0
 19 20  2  0  0  0  0
 19 24  1  0  0  0  0
 20 21  1  0  0  0  0
 21 22  2  0  0  0  0
 23 22  1  0  0  0  0
 24 14  1  0  0  0  0
 24 23  2  0  0  0  0
 25 30  1  0  0  0  0
 26 25  2  0  0  0  0
 26 27  1  0  0  0  0
 27  2  1  0  0  0  0
 27 28  2  0  0  0  0
 28 29  1  0  0  0  0
 29 32  1  0  0  0  0
 30 29  2  0  0  0  0
 31 25  1  0  0  0  0
 33 26  1  0  0  0  0
 34 33  1  0  0  0  0
 34 40  1  0  0  0  0
 35 34  1  0  0  0  0
 36 35  1  0  0  0  0
 36 43  1  0  0  0  0
 36 37  1  0  0  0  0
 37 38  1  0  0  0  0
 37 44  1  0  0  0  0
 38 47  1  0  0  0  0
 38 33  1  0  0  0  0
 39 34  1  0  0  0  0
 41 35  1  0  0  0  0
 42 35  1  0  0  0  0
 45 37  1  0  0  0  0
 46 38  1  0  0  0  0
M  END
>  <minimizedAffinity>
-6.949862

$$$$

 OpenBabel03242523093D

 47 52  0  0  1  0  0  0  0  0999 V2000
   35.8320   28.1780   39.7110 C   0  0  0  0  0  0  0  0  0  0  0  0
   36.9030   27.3080   39.4110 C   0  0  0  0  0  0  0  0  0  0  0  0
   37.8910   27.9950   38.7300 C   0  0  0  0  0  0  0  0  0  0  0  0
   37.8840   29.3030   38.3750 C   0  0  0  0  0  0  0  0  0  0  0  0
   36.7880   30.0770   38.7060 C   0  0  0  0  0  0  0  0  0  0  0  0
   35.7510   29.5200   39.3810 C   0  0  0  0  0  0  0  0  0  0  0  0
   37.0730   31.3280   38.2050 O   0  0  0  0  0  0  0  0  0  0  0  0
   38.4030   31.3660   37.6840 C   0  0  2  0  0  0  0  0  0  0  0  0
   38.8440   30.0260   37.7080 O   0  0  0  0  0  0  0  0  0  0  0  0
   34.8860   27.9730   40.2570 H   0  0  0  0  0  0  0  0  0  0  0  0
   38.6850   27.3590   38.4960 H   0  0  0  0  0  0  0  0  0  0  0  0
   34.9640   30.1930   39.5920 H   0  0  0  0  0  0  0  0  0  0  0  0
   38.3930   31.6480   36.6050 H   0  0  0  0  0  0  0  0  0  0  0  0
   39.1380   32.3170   38.5160 C   0  0  0  0  0  0  0  0  0  0  0  0
   38.4070   32.7920   39.6230 C   0  0  0  0  0  0  0  0  0  0  0  0
   37.3770   32.4820   39.8210 H   0  0  0  0  0  0  0  0  0  0  0  0
   38.8890   33.6710   40.5510 C   0  0  0  0  0  3  0  0  0  0  0  0
   40.1710   34.1600   40.4470 C   0  0  0  0  0  3  0  0  0  0  0  0
   40.9300   33.7300   39.3820 C   0  0  0  0  0  0  0  0  0  0  0  0
   42.2190   34.1580   39.1730 C   0  0  0  0  0  3  0  0  0  0  0  0
   43.0210   33.7580   38.1060 C   0  0  0  0  0  3  0  0  0  0  0  0
   42.4280   32.8580   37.2120 C   0  0  0  0  0  3  0  0  0  0  0  0
   41.1390   32.4260   37.4200 C   0  0  0  0  0  3  0  0  0  0  0  0
   40.3900   32.8470   38.4840 C   0  0  0  0  0  0  0  0  0  0  0  0
   36.5890   23.9640   41.0380 C   0  0  0  0  0  0  0  0  0  0  0  0
   36.9590   25.3030   40.9650 C   0  0  0  0  0  0  0  0  0  0  0  0
   36.6740   25.9780   39.8110 C   0  0  0  0  0  0  0  0  0  0  0  0
   36.0470   25.3220   38.7870 N   0  0  0  0  0  0  0  0  0  0  0  0
   35.7000   24.0250   38.8870 C   0  0  0  0  0  0  0  0  0  0  0  0
   35.9710   23.3600   40.0040 N   0  0  0  0  0  0  0  0  0  0  0  0
   36.8010   23.4130   41.9360 H   0  0  0  0  0  0  0  0  0  0  0  0
   35.2030   23.4330   38.1300 H   0  0  0  0  0  0  0  0  0  0  0  0
   37.6130   25.8710   42.0590 N   0  0  0  0  0  0  0  0  0  0  0  0
   38.9580   25.5870   42.3830 C   0  0  0  0  0  0  0  0  0  0  0  0
   39.5330   26.4120   43.5030 C   0  0  0  0  0  0  0  0  0  0  0  0
   39.1480   27.7670   43.5210 N   0  0  0  0  0  0  0  0  0  0  0  0
   37.8180   28.0460   43.1980 C   0  0  0  0  0  0  0  0  0  0  0  0
   37.0070   26.7850   42.9710 C   0  0  0  0  0  0  0  0  0  0  0  0
   38.9950   24.5230   42.7140 H   0  0  0  0  0  0  0  0  0  0  0  0
   39.6780   25.6520   41.5380 H   0  0  0  0  0  0  0  0  0  0  0  0
   40.6490   26.3140   43.4760 H   0  0  0  0  0  0  0  0  0  0  0  0
   39.2250   25.9480   44.4760 H   0  0  0  0  0  0  0  0  0  0  0  0
   39.7880   28.3060   42.8850 H   0  0  0  0  0  0  0  0  0  0  0  0
   37.6300   28.7590   42.3730 H   0  0  0  0  0  0  0  0  0  0  0  0
   37.3410   28.5430   44.0940 H   0  0  0  0  0  0  0  0  0  0  0  0
   36.9670   26.2850   43.9680 H   0  0  0  0  0  0  0  0  0  0  0  0
   35.9620   27.0440   42.7050 H   0  0  0  0  0  0  0  0  0  0  0  0
  1 10  1  0  0  0  0
  2  1  1  0  0  0  0
  2 27  1  0  0  0  0
  3  2  2  0  0  0  0
  4  5  2  0  0  0  0
  4  3  1  0  0  0  0
  5  6  1  0  0  0  0
  6 12  1  0  0  0  0
  6  1  2  0  0  0  0
  7  5  1  0  0  0  0
  8 13  1  6  0  0  0
  8  9  1  0  0  0  0
  8  7  1  0  0  0  0
  8 14  1  0  0  0  0
  9  4  1  0  0  0  0
 11  3  1  0  0  0  0
 14 15  1  0  0  0  0
 15 16  1  0  0  0  0
 15 17  2  0  0  0  0
 18 17  1  0  0  0  0
 19 18  2  0  0  0  0
 20 19  1  0  0  0  0
 21 20  2  0  0  0  0
 22 23  2  0  0  0  0
 22 21  1  0  0  0  0
 23 24  1  0  0  0  0
 24 14  2  0  0  0  0
 24 19  1  0  0  0  0
 25 31  1  0  0  0  0
 26 25  1  0  0  0  0
 26 33  1  0  0  0  0
 27 26  2  0  0  0  0
 28 29  2  0  0  0  0
 28 27  1  0  0  0  0
 29 30  1  0  0  0  0
 30 25  2  0  0  0  0
 32 29  1  0  0  0  0
 33 34  1  0  0  0  0
 33 38  1  0  0  0  0
 34 39  1  0  0  0  0
 34 35  1  0  0  0  0
 35 36  1  0  0  0  0
 35 42  1  0  0  0  0
 37 36  1  0  0  0  0
 37 45  1  0  0  0  0
 38 37  1  0  0  0  0
 38 46  1  0  0  0  0
 40 34  1  0  0  0  0
 41 35  1  0  0  0  0
 43 36  1  0  0  0  0
 44 37  1  0  0  0  0
 47 38  1  0  0  0  0
M  END
>  <minimizedAffinity>
-6.80958748

$$$$

 OpenBabel03242523093D

 47 52  0  0  1  0  0  0  0  0999 V2000
   41.4660   29.1580   37.3670 C   0  0  0  0  0  0  0  0  0  0  0  0
   41.7580   30.3800   38.0110 C   0  0  0  0  0  0  0  0  0  0  0  0
   40.7060   30.7430   38.8330 C   0  0  0  0  0  0  0  0  0  0  0  0
   39.5470   30.0660   39.0260 C   0  0  0  0  0  0  0  0  0  0  0  0
   39.3460   28.8810   38.3460 C   0  0  0  0  0  0  0  0  0  0  0  0
   40.3080   28.4140   37.5100 C   0  0  0  0  0  0  0  0  0  0  0  0
   38.0960   28.4550   38.7360 O   0  0  0  0  0  0  0  0  0  0  0  0
   37.5770   29.3040   39.7620 C   0  0  2  0  0  0  0  0  0  0  0  0
   38.4830   30.3840   39.8360 O   0  0  0  0  0  0  0  0  0  0  0  0
   42.0830   28.5690   36.6550 H   0  0  0  0  0  0  0  0  0  0  0  0
   40.9080   31.6490   39.3080 H   0  0  0  0  0  0  0  0  0  0  0  0
   40.0630   27.4980   37.0420 H   0  0  0  0  0  0  0  0  0  0  0  0
   36.6100   29.7600   39.4420 H   0  0  0  0  0  0  0  0  0  0  0  0
   37.4480   28.4700   40.9550 C   0  0  0  0  0  0  0  0  0  0  0  0
   37.6080   29.1740   42.1640 C   0  0  0  0  0  0  0  0  0  0  0  0
   37.8270   30.2460   42.1940 H   0  0  0  0  0  0  0  0  0  0  0  0
   37.5110   28.6140   43.4060 C   0  0  0  0  0  3  0  0  0  0  0  0
   37.2400   27.2730   43.5460 C   0  0  0  0  0  3  0  0  0  0  0  0
   37.0750   26.5350   42.3950 C   0  0  0  0  0  0  0  0  0  0  0  0
   36.8100   25.1870   42.4140 C   0  0  0  0  0  3  0  0  0  0  0  0
   36.6450   24.3990   41.2770 C   0  0  0  0  0  3  0  0  0  0  0  0
   36.7670   25.0720   40.0550 C   0  0  0  0  0  3  0  0  0  0  0  0
   37.0310   26.4220   40.0330 C   0  0  0  0  0  3  0  0  0  0  0  0
   37.1840   27.1550   41.1780 C   0  0  0  0  0  0  0  0  0  0  0  0
   44.9740   32.2110   37.5340 C   0  0  0  0  0  0  0  0  0  0  0  0
   43.8060   31.8660   38.2040 C   0  0  0  0  0  0  0  0  0  0  0  0
   42.9860   30.9440   37.6160 C   0  0  0  0  0  0  0  0  0  0  0  0
   43.3380   30.4050   36.4080 N   0  0  0  0  0  0  0  0  0  0  0  0
   44.4770   30.7590   35.7820 C   0  0  0  0  0  0  0  0  0  0  0  0
   45.2810   31.6530   36.3450 N   0  0  0  0  0  0  0  0  0  0  0  0
   45.6360   32.9320   37.9770 H   0  0  0  0  0  0  0  0  0  0  0  0
   44.8290   30.3840   34.8310 H   0  0  0  0  0  0  0  0  0  0  0  0
   43.5310   32.4890   39.4210 N   0  0  0  0  0  0  0  0  0  0  0  0
   42.8510   33.7230   39.5160 C   0  0  0  0  0  0  0  0  0  0  0  0
   42.5100   34.1590   40.9160 C   0  0  0  0  0  0  0  0  0  0  0  0
   42.0920   33.1350   41.7880 N   0  0  0  0  0  0  0  0  0  0  0  0
   42.7630   31.9150   41.6910 C   0  0  0  0  0  0  0  0  0  0  0  0
   43.9060   31.9670   40.6950 C   0  0  0  0  0  0  0  0  0  0  0  0
   43.5270   34.5010   39.0920 H   0  0  0  0  0  0  0  0  0  0  0  0
   41.9130   33.8010   38.9220 H   0  0  0  0  0  0  0  0  0  0  0  0
   41.7410   34.9710   40.8550 H   0  0  0  0  0  0  0  0  0  0  0  0
   43.4140   34.6500   41.3620 H   0  0  0  0  0  0  0  0  0  0  0  0
   41.0590   32.9830   41.6570 H   0  0  0  0  0  0  0  0  0  0  0  0
   42.1560   31.0080   41.5090 H   0  0  0  0  0  0  0  0  0  0  0  0
   43.2550   31.7100   42.6880 H   0  0  0  0  0  0  0  0  0  0  0  0
   44.6460   32.6740   41.1410 H   0  0  0  0  0  0  0  0  0  0  0  0
   44.4080   30.9800   40.6340 H   0  0  0  0  0  0  0  0  0  0  0  0
  1  6  2  0  0  0  0
  1  2  1  0  0  0  0
  2  3  2  0  0  0  0
  3  4  1  0  0  0  0
  3 11  1  0  0  0  0
  4  9  1  0  0  0  0
  5  7  1  0  0  0  0
  5  4  2  0  0  0  0
  6  5  1  0  0  0  0
  7  8  1  0  0  0  0
  8 13  1  6  0  0  0
  8  9  1  0  0  0  0
  8 14  1  0  0  0  0
 10  1  1  0  0  0  0
 12  6  1  0  0  0  0
 14 24  2  0  0  0  0
 14 15  1  0  0  0  0
 15 16  1  0  0  0  0
 15 17  2  0  0  0  0
 17 18  1  0  0  0  0
 19 20  1  0  0  0  0
 19 18  2  0  0  0  0
 21 20  2  0  0  0  0
 22 21  1  0  0  0  0
 23 22  2  0  0  0  0
 23 24  1  0  0  0  0
 24 19  1  0  0  0  0
 25 31  1  0  0  0  0
 25 26  1  0  0  0  0
 26 33  1  0  0  0  0
 27  2  1  0  0  0  0
 27 26  2  0  0  0  0
 28 27  1  0  0  0  0
 29 30  1  0  0  0  0
 29 28  2  0  0  0  0
 30 25  2  0  0  0  0
 32 29  1  0  0  0  0
 33 34  1  0  0  0  0
 33 38  1  0  0  0  0
 34 35  1  0  0  0  0
 35 42  1  0  0  0  0
 35 36  1  0  0  0  0
 37 36  1  0  0  0  0
 37 45  1  0  0  0  0
 38 46  1  0  0  0  0
 38 37  1  0  0  0  0
 39 34  1  0  0  0  0
 40 34  1  0  0  0  0
 41 35  1  0  0  0  0
 43 36  1  0  0  0  0
 44 37  1  0  0  0  0
 47 38  1  0  0  0  0
M  END
>  <minimizedAffinity>
-6.79789257

$$$$

 OpenBabel03242523093D

 47 52  0  0  1  0  0  0  0  0999 V2000
   36.9260   26.7960   41.6870 C   0  0  0  0  0  0  0  0  0  0  0  0
   37.1630   26.3000   40.3860 C   0  0  0  0  0  0  0  0  0  0  0  0
   37.1070   27.3350   39.4700 C   0  0  0  0  0  0  0  0  0  0  0  0
   36.8630   28.6440   39.7270 C   0  0  0  0  0  0  0  0  0  0  0  0
   36.6340   29.0360   41.0320 C   0  0  0  0  0  0  0  0  0  0  0  0
   36.6670   28.1120   42.0260 C   0  0  0  0  0  0  0  0  0  0  0  0
   36.4070   30.3920   40.9610 O   0  0  0  0  0  0  0  0  0  0  0  0
   36.6300   30.8660   39.6320 C   0  0  2  0  0  0  0  0  0  0  0  0
   36.8070   29.7030   38.8530 O   0  0  0  0  0  0  0  0  0  0  0  0
   36.9090   26.2550   42.6570 H   0  0  0  0  0  0  0  0  0  0  0  0
   37.2740   26.9790   38.5040 H   0  0  0  0  0  0  0  0  0  0  0  0
   36.4850   28.5100   42.9880 H   0  0  0  0  0  0  0  0  0  0  0  0
   35.7080   31.3470   39.2270 H   0  0  0  0  0  0  0  0  0  0  0  0
   37.7640   31.7850   39.7120 C   0  0  0  0  0  0  0  0  0  0  0  0
   37.3970   33.1260   39.9370 C   0  0  0  0  0  0  0  0  0  0  0  0
   36.3530   33.4420   40.0240 H   0  0  0  0  0  0  0  0  0  0  0  0
   38.2800   34.1600   40.0680 C   0  0  0  0  0  3  0  0  0  0  0  0
   39.6350   33.9340   39.9830 C   0  0  0  0  0  3  0  0  0  0  0  0
   40.0500   32.6400   39.7630 C   0  0  0  0  0  0  0  0  0  0  0  0
   41.3760   32.2990   39.6510 C   0  0  0  0  0  3  0  0  0  0  0  0
   41.8420   31.0060   39.4190 C   0  0  0  0  0  3  0  0  0  0  0  0
   40.8530   30.0220   39.2980 C   0  0  0  0  0  3  0  0  0  0  0  0
   39.5240   30.3610   39.4100 C   0  0  0  0  0  3  0  0  0  0  0  0
   39.1150   31.6460   39.6400 C   0  0  0  0  0  0  0  0  0  0  0  0
   38.1530   22.7090   40.6060 C   0  0  0  0  0  0  0  0  0  0  0  0
   38.2960   24.0740   40.8310 C   0  0  0  0  0  0  0  0  0  0  0  0
   37.3270   24.9030   40.3390 C   0  0  0  0  0  0  0  0  0  0  0  0
   36.2710   24.3690   39.6520 N   0  0  0  0  0  0  0  0  0  0  0  0
   36.1590   23.0420   39.4500 C   0  0  0  0  0  0  0  0  0  0  0  0
   37.0940   22.2280   39.9250 N   0  0  0  0  0  0  0  0  0  0  0  0
   38.9010   22.0370   40.9850 H   0  0  0  0  0  0  0  0  0  0  0  0
   35.3620   22.5380   38.9210 H   0  0  0  0  0  0  0  0  0  0  0  0
   39.4210   24.5170   41.5270 N   0  0  0  0  0  0  0  0  0  0  0  0
   40.5250   25.1280   40.8920 C   0  0  0  0  0  0  0  0  0  0  0  0
   41.5730   25.6790   41.8230 C   0  0  0  0  0  0  0  0  0  0  0  0
   41.0850   26.3020   42.9880 N   0  0  0  0  0  0  0  0  0  0  0  0
   39.9920   25.6980   43.6130 C   0  0  0  0  0  0  0  0  0  0  0  0
   39.5920   24.4000   42.9390 C   0  0  0  0  0  0  0  0  0  0  0  0
   41.0210   24.3440   40.2760 H   0  0  0  0  0  0  0  0  0  0  0  0
   40.2760   25.9430   40.1770 H   0  0  0  0  0  0  0  0  0  0  0  0
   42.2290   26.3760   41.2410 H   0  0  0  0  0  0  0  0  0  0  0  0
   42.2460   24.8370   42.1320 H   0  0  0  0  0  0  0  0  0  0  0  0
   40.8560   27.3030   42.7630 H   0  0  0  0  0  0  0  0  0  0  0  0
   39.0920   26.3180   43.7830 H   0  0  0  0  0  0  0  0  0  0  0  0
   40.3100   25.3980   44.6550 H   0  0  0  0  0  0  0  0  0  0  0  0
   40.4500   23.7070   43.1140 H   0  0  0  0  0  0  0  0  0  0  0  0
   38.7150   23.9550   43.4510 H   0  0  0  0  0  0  0  0  0  0  0  0
  1  6  1  0  0  0  0
  1 10  1  0  0  0  0
  2  1  2  0  0  0  0
  3  4  2  0  0  0  0
  3  2  1  0  0  0  0
  4  5  1  0  0  0  0
  5  6  2  0  0  0  0
  6 12  1  0  0  0  0
  7  5  1  0  0  0  0
  8 13  1  6  0  0  0
  8 14  1  0  0  0  0
  8  7  1  0  0  0  0
  9  8  1  0  0  0  0
  9  4  1  0  0  0  0
 11  3  1  0  0  0  0
 14 15  1  0  0  0  0
 15 16  1  0  0  0  0
 15 17  2  0  0  0  0
 18 17  1  0  0  0  0
 19 18  2  0  0  0  0
 20 19  1  0  0  0  0
 21 20  2  0  0  0  0
 22 23  2  0  0  0  0
 22 21  1  0  0  0  0
 23 24  1  0  0  0  0
 24 14  2  0  0  0  0
 24 19  1  0  0  0  0
 25 26  1  0  0  0  0
 25 31  1  0  0  0  0
 26 33  1  0  0  0  0
 27  2  1  0  0  0  0
 27 26  2  0  0  0  0
 28 27  1  0  0  0  0
 29 28  2  0  0  0  0
 29 30  1  0  0  0  0
 30 25  2  0  0  0  0
 32 29  1  0  0  0  0
 33 38  1  0  0  0  0
 34 33  1  0  0  0  0
 34 35  1  0  0  0  0
 35 42  1  0  0  0  0
 35 36  1  0  0  0  0
 36 37  1  0  0  0  0
 37 44  1  0  0  0  0
 37 45  1  0  0  0  0
 38 46  1  0  0  0  0
 38 47  1  0  0  0  0
 38 37  1  0  0  0  0
 39 34  1  0  0  0  0
 40 34  1  0  0  0  0
 41 35  1  0  0  0  0
 43 36  1  0  0  0  0
M  END
>  <minimizedAffinity>
-6.75652361

$$$$

 OpenBabel03242523093D

 47 52  0  0  1  0  0  0  0  0999 V2000
   35.4480   27.6350   38.3140 C   0  0  0  0  0  0  0  0  0  0  0  0
   36.4740   28.4270   37.7530 C   0  0  0  0  0  0  0  0  0  0  0  0
   36.0080   29.0670   36.6190 C   0  0  0  0  0  0  0  0  0  0  0  0
   34.7660   28.9800   36.0820 C   0  0  0  0  0  0  0  0  0  0  0  0
   33.8290   28.1730   36.6960 C   0  0  0  0  0  0  0  0  0  0  0  0
   34.1630   27.4930   37.8230 C   0  0  0  0  0  0  0  0  0  0  0  0
   32.6990   28.2840   35.9170 O   0  0  0  0  0  0  0  0  0  0  0  0
   32.8910   29.2660   34.8970 C   0  0  2  0  0  0  0  0  0  0  0  0
   34.2600   29.6030   34.9660 O   0  0  0  0  0  0  0  0  0  0  0  0
   35.4640   27.0010   39.2270 H   0  0  0  0  0  0  0  0  0  0  0  0
   36.7600   29.6500   36.1930 H   0  0  0  0  0  0  0  0  0  0  0  0
   33.3770   26.9080   38.2200 H   0  0  0  0  0  0  0  0  0  0  0  0
   32.7560   28.8140   33.8860 H   0  0  0  0  0  0  0  0  0  0  0  0
   31.9340   30.3350   35.1760 C   0  0  0  0  0  0  0  0  0  0  0  0
   31.7730   31.2480   34.1150 C   0  0  0  0  0  0  0  0  0  0  0  0
   32.3340   31.1630   33.1790 H   0  0  0  0  0  0  0  0  0  0  0  0
   30.9220   32.3160   34.1330 C   0  0  0  0  0  3  0  0  0  0  0  0
   30.1430   32.5670   35.2390 C   0  0  0  0  0  3  0  0  0  0  0  0
   30.2610   31.7060   36.3070 C   0  0  0  0  0  0  0  0  0  0  0  0
   29.5400   31.8640   37.4660 C   0  0  0  0  0  3  0  0  0  0  0  0
   29.6330   31.0240   38.5740 C   0  0  0  0  0  3  0  0  0  0  0  0
   30.5370   29.9620   38.4510 C   0  0  0  0  0  3  0  0  0  0  0  0
   31.2590   29.8010   37.2920 C   0  0  0  0  0  3  0  0  0  0  0  0
   31.1330   30.6520   36.2270 C   0  0  0  0  0  0  0  0  0  0  0  0
   39.7140   28.8050   39.5650 C   0  0  0  0  0  0  0  0  0  0  0  0
   38.5610   29.2570   38.9340 C   0  0  0  0  0  0  0  0  0  0  0  0
   37.7020   28.3190   38.4330 C   0  0  0  0  0  0  0  0  0  0  0  0
   38.0050   26.9920   38.5670 N   0  0  0  0  0  0  0  0  0  0  0  0
   39.1300   26.5830   39.1830 C   0  0  0  0  0  0  0  0  0  0  0  0
   39.9710   27.4850   39.6750 N   0  0  0  0  0  0  0  0  0  0  0  0
   40.4040   29.5220   39.9690 H   0  0  0  0  0  0  0  0  0  0  0  0
   39.4450   25.5590   39.3310 H   0  0  0  0  0  0  0  0  0  0  0  0
   38.3570   30.6340   38.8340 N   0  0  0  0  0  0  0  0  0  0  0  0
   37.3790   31.3220   39.5860 C   0  0  0  0  0  0  0  0  0  0  0  0
   37.4140   32.8220   39.4580 C   0  0  0  0  0  0  0  0  0  0  0  0
   38.6970   33.3990   39.4050 N   0  0  0  0  0  0  0  0  0  0  0  0
   39.6630   32.7160   38.6630 C   0  0  0  0  0  0  0  0  0  0  0  0
   39.0930   31.4950   37.9670 C   0  0  0  0  0  0  0  0  0  0  0  0
   36.3850   30.9890   39.2100 H   0  0  0  0  0  0  0  0  0  0  0  0
   37.3660   31.0970   40.6750 H   0  0  0  0  0  0  0  0  0  0  0  0
   36.8120   33.2610   40.2940 H   0  0  0  0  0  0  0  0  0  0  0  0
   36.8620   33.1080   38.5240 H   0  0  0  0  0  0  0  0  0  0  0  0
   39.0410   33.5430   40.3880 H   0  0  0  0  0  0  0  0  0  0  0  0
   40.6050   32.4430   39.1750 H   0  0  0  0  0  0  0  0  0  0  0  0
   40.0030   33.3960   37.8260 H   0  0  0  0  0  0  0  0  0  0  0  0
   38.3770   31.9000   37.2120 H   0  0  0  0  0  0  0  0  0  0  0  0
   39.8880   30.9700   37.3990 H   0  0  0  0  0  0  0  0  0  0  0  0
  1 10  1  0  0  0  0
  2  1  2  0  0  0  0
  2 27  1  0  0  0  0
  3  2  1  0  0  0  0
  4  3  2  0  0  0  0
  4  5  1  0  0  0  0
  5  6  2  0  0  0  0
  6 12  1  0  0  0  0
  6  1  1  0  0  0  0
  7  5  1  0  0  0  0
  8 13  1  6  0  0  0
  8  9  1  0  0  0  0
  8 14  1  0  0  0  0
  8  7  1  0  0  0  0
  9  4  1  0  0  0  0
 11  3  1  0  0  0  0
 14 24  1  0  0  0  0
 15 17  1  0  0  0  0
 15 14  2  0  0  0  0
 16 15  1  0  0  0  0
 17 18  2  0  0  0  0
 18 19  1  0  0  0  0
 19 20  1  0  0  0  0
 20 21  2  0  0  0  0
 22 21  1  0  0  0  0
 23 22  2  0  0  0  0
 24 19  2  0  0  0  0
 24 23  1  0  0  0  0
 25 30  1  0  0  0  0
 25 31  1  0  0  0  0
 26 25  2  0  0  0  0
 27 28  2  0  0  0  0
 27 26  1  0  0  0  0
 28 29  1  0  0  0  0
 29 32  1  0  0  0  0
 29 30  2  0  0  0  0
 33 26  1  0  0  0  0
 33 34  1  0  0  0  0
 34 40  1  0  0  0  0
 35 34  1  0  0  0  0
 35 41  1  0  0  0  0
 36 35  1  0  0  0  0
 36 43  1  0  0  0  0
 37 44  1  0  0  0  0
 37 36  1  0  0  0  0
 38 37  1  0  0  0  0
 38 33  1  0  0  0  0
 39 34  1  0  0  0  0
 42 35  1  0  0  0  0
 45 37  1  0  0  0  0
 46 38  1  0  0  0  0
 47 38  1  0  0  0  0
M  END
>  <minimizedAffinity>
-6.73752451

$$$$

 OpenBabel03242523093D

 47 52  0  0  1  0  0  0  0  0999 V2000
   39.4010   30.6590   42.4250 C   0  0  0  0  0  0  0  0  0  0  0  0
   40.5990   30.5940   41.6800 C   0  0  0  0  0  0  0  0  0  0  0  0
   41.0230   29.2810   41.5830 C   0  0  0  0  0  0  0  0  0  0  0  0
   40.4210   28.1850   42.1070 C   0  0  0  0  0  0  0  0  0  0  0  0
   39.2550   28.3470   42.8290 C   0  0  0  0  0  0  0  0  0  0  0  0
   38.7320   29.5890   42.9920 C   0  0  0  0  0  0  0  0  0  0  0  0
   38.9070   27.0760   43.2320 O   0  0  0  0  0  0  0  0  0  0  0  0
   39.7820   26.1110   42.6460 C   0  0  2  0  0  0  0  0  0  0  0  0
   40.8010   26.8670   42.0290 O   0  0  0  0  0  0  0  0  0  0  0  0
   38.7780   31.5410   42.6860 H   0  0  0  0  0  0  0  0  0  0  0  0
   41.9120   29.2220   41.0400 H   0  0  0  0  0  0  0  0  0  0  0  0
   37.8370   29.6080   43.5540 H   0  0  0  0  0  0  0  0  0  0  0  0
   40.3010   25.5190   43.4370 H   0  0  0  0  0  0  0  0  0  0  0  0
   38.9500   25.2870   41.7710 C   0  0  0  0  0  0  0  0  0  0  0  0
   37.6360   25.1000   42.2430 C   0  0  0  0  0  0  0  0  0  0  0  0
   37.2880   25.5240   43.1900 H   0  0  0  0  0  0  0  0  0  0  0  0
   36.6720   24.3860   41.5900 C   0  0  0  0  0  3  0  0  0  0  0  0
   36.9470   23.7850   40.3830 C   0  0  0  0  0  3  0  0  0  0  0  0
   38.2190   23.9350   39.8750 C   0  0  0  0  0  0  0  0  0  0  0  0
   38.6090   23.3720   38.6840 C   0  0  0  0  0  3  0  0  0  0  0  0
   39.8840   23.4890   38.1360 C   0  0  0  0  0  3  0  0  0  0  0  0
   40.7970   24.2390   38.8880 C   0  0  0  0  0  3  0  0  0  0  0  0
   40.4080   24.8040   40.0800 C   0  0  0  0  0  3  0  0  0  0  0  0
   39.1420   24.6640   40.5780 C   0  0  0  0  0  0  0  0  0  0  0  0
   41.3570   33.9530   40.2410 C   0  0  0  0  0  0  0  0  0  0  0  0
   40.6240   32.7820   40.3940 C   0  0  0  0  0  0  0  0  0  0  0  0
   41.0850   31.8550   41.2880 C   0  0  0  0  0  0  0  0  0  0  0  0
   42.2340   32.1100   41.9860 N   0  0  0  0  0  0  0  0  0  0  0  0
   42.9240   33.2540   41.8170 C   0  0  0  0  0  0  0  0  0  0  0  0
   42.4840   34.1610   40.9520 N   0  0  0  0  0  0  0  0  0  0  0  0
   41.0140   34.6970   39.5470 H   0  0  0  0  0  0  0  0  0  0  0  0
   43.8360   33.5340   42.3250 H   0  0  0  0  0  0  0  0  0  0  0  0
   39.4760   32.6120   39.6190 N   0  0  0  0  0  0  0  0  0  0  0  0
   39.4720   31.9030   38.3980 C   0  0  0  0  0  0  0  0  0  0  0  0
   38.1120   31.6940   37.7850 C   0  0  0  0  0  0  0  0  0  0  0  0
   37.0740   31.4040   38.6920 N   0  0  0  0  0  0  0  0  0  0  0  0
   37.0810   32.1050   39.8990 C   0  0  0  0  0  0  0  0  0  0  0  0
   38.1920   33.1350   39.9580 C   0  0  0  0  0  0  0  0  0  0  0  0
   40.0640   32.5030   37.6700 H   0  0  0  0  0  0  0  0  0  0  0  0
   39.9660   30.9070   38.4200 H   0  0  0  0  0  0  0  0  0  0  0  0
   38.1970   30.8940   37.0050 H   0  0  0  0  0  0  0  0  0  0  0  0
   37.8350   32.6210   37.2200 H   0  0  0  0  0  0  0  0  0  0  0  0
   37.0730   30.3700   38.8810 H   0  0  0  0  0  0  0  0  0  0  0  0
   37.0760   31.5140   40.8350 H   0  0  0  0  0  0  0  0  0  0  0  0
   36.1250   32.7040   39.9580 H   0  0  0  0  0  0  0  0  0  0  0  0
   37.9250   33.8920   39.1820 H   0  0  0  0  0  0  0  0  0  0  0  0
   38.1770   33.6630   40.9330 H   0  0  0  0  0  0  0  0  0  0  0  0
  1 10  1  0  0  0  0
  1  6  1  0  0  0  0
  2  1  2  0  0  0  0
  3  2  1  0  0  0  0
  3  4  2  0  0  0  0
  4  5  1  0  0  0  0
  5  6  2  0  0  0  0
  5  7  1  0  0  0  0
  6 12  1  0  0  0  0
  8  7  1  0  0  0  0
  8 13  1  1  0  0  0
  9  4  1  0  0  0  0
  9  8  1  0  0  0  0
 11  3  1  0  0  0  0
 14 15  1  0  0  0  0
 14  8  1  0  0  0  0
 15 16  1  0  0  0  0
 17 15  2  0  0  0  0
 18 17  1  0  0  0  0
 19 18  2  0  0  0  0
 19 24  1  0  0  0  0
 20 19  1  0  0  0  0
 21 20  2  0  0  0  0
 21 22  1  0  0  0  0
 22 23  2  0  0  0  0
 23 24  1  0  0  0  0
 24 14  2  0  0  0  0
 25 26  2  0  0  0  0
 25 30  1  0  0  0  0
 26 27  1  0  0  0  0
 27  2  1  0  0  0  0
 27 28  2  0  0  0  0
 29 28  1  0  0  0  0
 29 32  1  0  0  0  0
 30 29  2  0  0  0  0
 31 25  1  0  0  0  0
 33 38  1  0  0  0  0
 33 26  1  0  0  0  0
 34 40  1  0  0  0  0
 34 33  1  0  0  0  0
 35 34  1  0  0  0  0
 35 36  1  0  0  0  0
 36 43  1  0  0  0  0
 36 37  1  0  0  0  0
 37 38  1  0  0  0  0
 37 45  1  0  0  0  0
 37 44  1  0  0  0  0
 38 47  1  0  0  0  0
 39 34  1  0  0  0  0
 41 35  1  0  0  0  0
 42 35  1  0  0  0  0
 46 38  1  0  0  0  0
M  END
>  <minimizedAffinity>
-6.7227726

$$$$
