
 OpenBabel03252504163D

 37 40  0  0  0  0  0  0  0  0999 V2000
   41.5420   31.7770   41.3550 F   0  0  0  0  0  0  0  0  0  0  0  0
   40.6530   32.7410   40.9450 C   0  0  0  0  0  0  0  0  0  0  0  0
   39.2930   32.4830   41.0050 C   0  0  0  0  0  0  0  0  0  0  0  0
   38.4520   33.5000   40.5760 C   0  0  0  0  0  0  0  0  0  0  0  0
   38.9570   34.7010   40.1170 C   0  0  0  0  0  0  0  0  0  0  0  0
   40.3320   34.9010   40.0810 C   0  0  0  0  0  0  0  0  0  0  0  0
   41.2120   33.9190   40.4970 C   0  0  0  0  0  0  0  0  0  0  0  0
   37.3800   33.3670   40.5950 H   0  0  0  0  0  0  0  0  0  0  0  0
   38.2600   35.4620   39.7940 H   0  0  0  0  0  0  0  0  0  0  0  0
   40.7300   35.8420   39.7210 H   0  0  0  0  0  0  0  0  0  0  0  0
   42.6700   34.0980   40.4720 C   0  0  0  0  0  0  0  0  0  0  0  0
   43.1970   34.6910   41.6110 C   0  0  0  0  0  0  0  0  0  0  0  0
   42.6020   35.0130   42.4750 H   0  0  0  0  0  0  0  0  0  0  0  0
   44.5680   34.9110   41.7010 C   0  0  0  0  0  3  0  0  0  0  0  0
   45.3990   34.5370   40.6570 C   0  0  0  0  0  3  0  0  0  0  0  0
   44.8560   33.9450   39.5260 C   0  0  0  0  0  0  0  0  0  0  0  0
   45.6200   33.5520   38.4610 C   0  0  0  0  0  3  0  0  0  0  0  0
   45.0660   32.9670   37.3490 C   0  0  0  0  0  3  0  0  0  0  0  0
   43.6890   32.7560   37.2800 C   0  0  0  0  0  3  0  0  0  0  0  0
   42.8880   33.1400   38.3370 C   0  0  0  0  0  3  0  0  0  0  0  0
   43.4950   33.7230   39.4300 C   0  0  0  0  0  0  0  0  0  0  0  0
   37.0040   29.6930   41.5300 C   0  0  0  0  0  0  0  0  0  0  0  0
   37.7030   28.8320   42.3530 C   0  0  0  0  0  0  0  0  0  0  0  0
   39.0120   29.2230   42.7420 C   0  0  0  0  0  0  0  0  0  0  0  0
   39.5030   30.4020   42.2970 N   0  0  0  0  0  0  0  0  0  0  0  0
   38.7740   31.2030   41.4950 C   0  0  0  0  0  0  0  0  0  0  0  0
   37.5280   30.8470   41.1150 N   0  0  0  0  0  0  0  0  0  0  0  0
   39.5790   28.5700   43.3830 H   0  0  0  0  0  0  0  0  0  0  0  0
   37.0970   27.5560   42.8000 C   0  0  0  0  0  0  0  0  0  0  0  0
   36.9920   26.6950   41.7130 F   0  0  0  0  0  0  0  0  0  0  0  0
   37.9810   26.9660   43.6920 F   0  0  0  0  0  0  0  0  0  0  0  0
   35.8900   27.6630   43.3910 F   0  0  0  0  0  0  0  0  0  0  0  0
   35.7460   29.3130   41.1580 O   0  0  0  0  0  0  0  0  0  0  0  0
   35.2650   29.1330   39.8510 C   0  0  0  0  0  0  0  0  0  0  0  0
   35.7250   27.8900   39.4240 F   0  0  0  0  0  0  0  0  0  0  0  0
   33.8950   29.2320   39.8360 F   0  0  0  0  0  0  0  0  0  0  0  0
   35.8640   30.0370   39.0040 F   0  0  0  0  0  0  0  0  0  0  0  0
  2  3  1  0  0  0  0
  2  1  1  0  0  0  0
  3 26  1  0  0  0  0
  4  8  1  0  0  0  0
  4  3  2  0  0  0  0
  5  4  1  0  0  0  0
  6  5  2  0  0  0  0
  6  7  1  0  0  0  0
  7  2  2  0  0  0  0
  9  5  1  0  0  0  0
 10  6  1  0  0  0  0
 11  7  1  0  0  0  0
 11 12  1  0  0  0  0
 12 14  2  0  0  0  0
 12 13  1  0  0  0  0
 15 14  1  0  0  0  0
 16 15  2  0  0  0  0
 17 16  1  0  0  0  0
 18 17  2  0  0  0  0
 19 18  1  0  0  0  0
 19 20  2  0  0  0  0
 20 21  1  0  0  0  0
 21 16  1  0  0  0  0
 21 11  2  0  0  0  0
 22 23  1  0  0  0  0
 23 24  2  0  0  0  0
 23 29  1  0  0  0  0
 24 28  1  0  0  0  0
 25 24  1  0  0  0  0
 26 25  2  0  0  0  0
 27 26  1  0  0  0  0
 27 22  2  0  0  0  0
 29 32  1  0  0  0  0
 29 31  1  0  0  0  0
 30 29  1  0  0  0  0
 33 22  1  0  0  0  0
 34 33  1  0  0  0  0
 35 34  1  0  0  0  0
 36 34  1  0  0  0  0
 37 34  1  0  0  0  0
M  END
>  <minimizedAffinity>
-7.38476753

$$$$

 OpenBabel03252504163D

 37 40  0  0  0  0  0  0  0  0999 V2000
   41.5570   31.6080   40.6150 F   0  0  0  0  0  0  0  0  0  0  0  0
   40.6670   32.6460   40.4820 C   0  0  0  0  0  0  0  0  0  0  0  0
   39.3380   32.4500   40.8220 C   0  0  0  0  0  0  0  0  0  0  0  0
   38.4940   33.5410   40.6630 C   0  0  0  0  0  0  0  0  0  0  0  0
   38.9670   34.7500   40.1910 C   0  0  0  0  0  0  0  0  0  0  0  0
   40.3120   34.8840   39.8670 C   0  0  0  0  0  0  0  0  0  0  0  0
   41.1930   33.8280   40.0060 C   0  0  0  0  0  0  0  0  0  0  0  0
   37.4450   33.4600   40.9100 H   0  0  0  0  0  0  0  0  0  0  0  0
   38.2690   35.5690   40.0860 H   0  0  0  0  0  0  0  0  0  0  0  0
   40.6840   35.8310   39.4970 H   0  0  0  0  0  0  0  0  0  0  0  0
   42.6200   33.9360   39.6730 C   0  0  0  0  0  0  0  0  0  0  0  0
   42.9220   33.6800   38.3430 C   0  0  0  0  0  0  0  0  0  0  0  0
   42.1810   33.4150   37.5780 H   0  0  0  0  0  0  0  0  0  0  0  0
   44.2430   33.7530   37.9110 C   0  0  0  0  0  3  0  0  0  0  0  0
   45.2480   34.0800   38.8080 C   0  0  0  0  0  3  0  0  0  0  0  0
   44.9280   34.3340   40.1340 C   0  0  0  0  0  0  0  0  0  0  0  0
   45.8700   34.6620   41.0690 C   0  0  0  0  0  3  0  0  0  0  0  0
   45.5370   34.9100   42.3780 C   0  0  0  0  0  3  0  0  0  0  0  0
   44.2060   34.8320   42.7890 C   0  0  0  0  0  3  0  0  0  0  0  0
   43.2290   34.5030   41.8720 C   0  0  0  0  0  3  0  0  0  0  0  0
   43.6180   34.2630   40.5700 C   0  0  0  0  0  0  0  0  0  0  0  0
   37.6020   29.2450   40.9030 C   0  0  0  0  0  0  0  0  0  0  0  0
   37.8900   28.7350   42.1530 C   0  0  0  0  0  0  0  0  0  0  0  0
   38.7130   29.5220   43.0020 C   0  0  0  0  0  0  0  0  0  0  0  0
   39.1680   30.7140   42.5530 N   0  0  0  0  0  0  0  0  0  0  0  0
   38.8530   31.1610   41.3220 C   0  0  0  0  0  0  0  0  0  0  0  0
   38.0730   30.4260   40.5010 N   0  0  0  0  0  0  0  0  0  0  0  0
   38.9540   29.1480   43.9820 H   0  0  0  0  0  0  0  0  0  0  0  0
   37.3550   27.4190   42.5740 C   0  0  0  0  0  0  0  0  0  0  0  0
   37.6400   26.4760   41.5940 F   0  0  0  0  0  0  0  0  0  0  0  0
   38.0490   27.0330   43.7120 F   0  0  0  0  0  0  0  0  0  0  0  0
   36.0330   27.3890   42.8400 F   0  0  0  0  0  0  0  0  0  0  0  0
   36.8100   28.4850   40.0890 O   0  0  0  0  0  0  0  0  0  0  0  0
   35.5150   28.7890   39.6400 C   0  0  0  0  0  0  0  0  0  0  0  0
   35.1060   27.7200   38.8470 F   0  0  0  0  0  0  0  0  0  0  0  0
   34.6850   29.0100   40.7120 F   0  0  0  0  0  0  0  0  0  0  0  0
   35.5580   29.8650   38.7820 F   0  0  0  0  0  0  0  0  0  0  0  0
  2  1  1  0  0  0  0
  2  3  1  0  0  0  0
  3 26  1  0  0  0  0
  4  3  2  0  0  0  0
  4  8  1  0  0  0  0
  5  4  1  0  0  0  0
  6  7  1  0  0  0  0
  6  5  2  0  0  0  0
  7  2  2  0  0  0  0
  9  5  1  0  0  0  0
 10  6  1  0  0  0  0
 11  7  1  0  0  0  0
 11 21  1  0  0  0  0
 12 11  2  0  0  0  0
 13 12  1  0  0  0  0
 14 12  1  0  0  0  0
 14 15  2  0  0  0  0
 15 16  1  0  0  0  0
 16 21  2  0  0  0  0
 16 17  1  0  0  0  0
 17 18  2  0  0  0  0
 18 19  1  0  0  0  0
 20 19  2  0  0  0  0
 21 20  1  0  0  0  0
 22 23  1  0  0  0  0
 23 29  1  0  0  0  0
 23 24  2  0  0  0  0
 24 28  1  0  0  0  0
 25 24  1  0  0  0  0
 26 25  2  0  0  0  0
 27 22  2  0  0  0  0
 27 26  1  0  0  0  0
 29 32  1  0  0  0  0
 29 31  1  0  0  0  0
 30 29  1  0  0  0  0
 33 22  1  0  0  0  0
 34 33  1  0  0  0  0
 34 36  1  0  0  0  0
 35 34  1  0  0  0  0
 37 34  1  0  0  0  0
M  END
>  <minimizedAffinity>
-7.13195181

$$$$

 OpenBabel03252504163D

 37 40  0  0  0  0  0  0  0  0999 V2000
   38.8010   30.2660   40.2700 F   0  0  0  0  0  0  0  0  0  0  0  0
   38.1930   30.3200   39.0390 C   0  0  0  0  0  0  0  0  0  0  0  0
   37.5420   29.1990   38.5520 C   0  0  0  0  0  0  0  0  0  0  0  0
   36.9500   29.3240   37.3030 C   0  0  0  0  0  0  0  0  0  0  0  0
   37.0130   30.5090   36.5950 C   0  0  0  0  0  0  0  0  0  0  0  0
   37.6800   31.6000   37.1380 C   0  0  0  0  0  0  0  0  0  0  0  0
   38.2880   31.5270   38.3780 C   0  0  0  0  0  0  0  0  0  0  0  0
   36.4250   28.4890   36.8600 H   0  0  0  0  0  0  0  0  0  0  0  0
   36.5340   30.5550   35.6260 H   0  0  0  0  0  0  0  0  0  0  0  0
   37.7310   32.5290   36.5850 H   0  0  0  0  0  0  0  0  0  0  0  0
   39.0010   32.6610   38.9810 C   0  0  0  0  0  0  0  0  0  0  0  0
   38.2650   33.3700   39.9190 C   0  0  0  0  0  0  0  0  0  0  0  0
   37.2340   33.1320   40.2100 H   0  0  0  0  0  0  0  0  0  0  0  0
   38.8380   34.4670   40.5580 C   0  0  0  0  0  3  0  0  0  0  0  0
   40.1370   34.8430   40.2540 C   0  0  0  0  0  3  0  0  0  0  0  0
   40.8580   34.1220   39.3140 C   0  0  0  0  0  0  0  0  0  0  0  0
   42.1430   34.4400   38.9690 C   0  0  0  0  0  3  0  0  0  0  0  0
   42.8430   33.7150   38.0360 C   0  0  0  0  0  3  0  0  0  0  0  0
   42.2490   32.6210   37.4090 C   0  0  0  0  0  3  0  0  0  0  0  0
   40.9540   32.2710   37.7330 C   0  0  0  0  0  3  0  0  0  0  0  0
   40.2950   33.0320   38.6760 C   0  0  0  0  0  0  0  0  0  0  0  0
   38.3670   26.6730   41.0480 C   0  0  0  0  0  0  0  0  0  0  0  0
   37.4680   25.6520   40.8080 C   0  0  0  0  0  0  0  0  0  0  0  0
   36.5410   25.8390   39.7480 C   0  0  0  0  0  0  0  0  0  0  0  0
   36.5840   26.9880   39.0350 N   0  0  0  0  0  0  0  0  0  0  0  0
   37.4850   27.9490   39.3150 C   0  0  0  0  0  0  0  0  0  0  0  0
   38.3720   27.7890   40.3200 N   0  0  0  0  0  0  0  0  0  0  0  0
   35.8290   25.0600   39.5390 H   0  0  0  0  0  0  0  0  0  0  0  0
   37.4830   24.4220   41.6330 C   0  0  0  0  0  0  0  0  0  0  0  0
   36.7460   24.6400   42.7920 F   0  0  0  0  0  0  0  0  0  0  0  0
   36.8190   23.4340   40.9200 F   0  0  0  0  0  0  0  0  0  0  0  0
   38.7050   23.9650   41.9720 F   0  0  0  0  0  0  0  0  0  0  0  0
   39.2560   26.4890   42.0690 O   0  0  0  0  0  0  0  0  0  0  0  0
   39.1940   27.0420   43.3590 C   0  0  0  0  0  0  0  0  0  0  0  0
   39.5960   26.0420   44.2410 F   0  0  0  0  0  0  0  0  0  0  0  0
   39.9810   28.1660   43.4270 F   0  0  0  0  0  0  0  0  0  0  0  0
   37.8840   27.3000   43.6950 F   0  0  0  0  0  0  0  0  0  0  0  0
  2  1  1  0  0  0  0
  3  2  1  0  0  0  0
  3 26  1  0  0  0  0
  4  3  2  0  0  0  0
  5  6  2  0  0  0  0
  5  4  1  0  0  0  0
  6  7  1  0  0  0  0
  7 11  1  0  0  0  0
  7  2  2  0  0  0  0
  8  4  1  0  0  0  0
  9  5  1  0  0  0  0
 10  6  1  0  0  0  0
 11 12  1  0  0  0  0
 12 13  1  0  0  0  0
 12 14  2  0  0  0  0
 15 14  1  0  0  0  0
 16 15  2  0  0  0  0
 17 16  1  0  0  0  0
 18 17  2  0  0  0  0
 19 20  2  0  0  0  0
 19 18  1  0  0  0  0
 20 21  1  0  0  0  0
 21 11  2  0  0  0  0
 21 16  1  0  0  0  0
 22 33  1  0  0  0  0
 23 22  1  0  0  0  0
 23 29  1  0  0  0  0
 24 23  2  0  0  0  0
 25 26  2  0  0  0  0
 25 24  1  0  0  0  0
 26 27  1  0  0  0  0
 27 22  2  0  0  0  0
 28 24  1  0  0  0  0
 29 32  1  0  0  0  0
 29 30  1  0  0  0  0
 31 29  1  0  0  0  0
 33 34  1  0  0  0  0
 34 36  1  0  0  0  0
 34 37  1  0  0  0  0
 34 35  1  0  0  0  0
M  END
>  <minimizedAffinity>
-7.12397432

$$$$

 OpenBabel03252504163D

 37 40  0  0  0  0  0  0  0  0999 V2000
   33.4310   29.6920   39.2940 F   0  0  0  0  0  0  0  0  0  0  0  0
   33.6880   28.8690   38.2250 C   0  0  0  0  0  0  0  0  0  0  0  0
   34.8280   28.0800   38.2330 C   0  0  0  0  0  0  0  0  0  0  0  0
   35.0260   27.2720   37.1230 C   0  0  0  0  0  0  0  0  0  0  0  0
   34.1280   27.2630   36.0730 C   0  0  0  0  0  0  0  0  0  0  0  0
   33.0030   28.0770   36.1230 C   0  0  0  0  0  0  0  0  0  0  0  0
   32.7600   28.9010   37.2070 C   0  0  0  0  0  0  0  0  0  0  0  0
   35.8940   26.6310   37.0610 H   0  0  0  0  0  0  0  0  0  0  0  0
   34.3290   26.6160   35.2300 H   0  0  0  0  0  0  0  0  0  0  0  0
   32.2980   28.0720   35.3010 H   0  0  0  0  0  0  0  0  0  0  0  0
   31.5800   29.7730   37.2920 C   0  0  0  0  0  0  0  0  0  0  0  0
   30.8620   29.6560   38.4730 C   0  0  0  0  0  0  0  0  0  0  0  0
   31.1250   28.9780   39.2960 H   0  0  0  0  0  0  0  0  0  0  0  0
   29.7240   30.4340   38.6670 C   0  0  0  0  0  3  0  0  0  0  0  0
   29.3150   31.3180   37.6820 C   0  0  0  0  0  3  0  0  0  0  0  0
   30.0450   31.4230   36.5070 C   0  0  0  0  0  0  0  0  0  0  0  0
   29.6960   32.2760   35.4970 C   0  0  0  0  0  3  0  0  0  0  0  0
   30.4310   32.3680   34.3390 C   0  0  0  0  0  3  0  0  0  0  0  0
   31.5670   31.5790   34.1670 C   0  0  0  0  0  3  0  0  0  0  0  0
   31.9490   30.7070   35.1670 C   0  0  0  0  0  3  0  0  0  0  0  0
   31.1760   30.6540   36.3080 C   0  0  0  0  0  0  0  0  0  0  0  0
   36.9560   29.3840   40.8920 C   0  0  0  0  0  0  0  0  0  0  0  0
   37.5240   28.2580   41.4540 C   0  0  0  0  0  0  0  0  0  0  0  0
   37.1620   27.0020   40.8990 C   0  0  0  0  0  0  0  0  0  0  0  0
   36.2930   26.9680   39.8640 N   0  0  0  0  0  0  0  0  0  0  0  0
   35.7700   28.1010   39.3550 C   0  0  0  0  0  0  0  0  0  0  0  0
   36.1030   29.3040   39.8700 N   0  0  0  0  0  0  0  0  0  0  0  0
   37.5900   26.1080   41.3180 H   0  0  0  0  0  0  0  0  0  0  0  0
   38.4690   28.3750   42.5890 C   0  0  0  0  0  0  0  0  0  0  0  0
   38.7330   27.1080   43.0950 F   0  0  0  0  0  0  0  0  0  0  0  0
   39.6680   28.8590   42.0840 F   0  0  0  0  0  0  0  0  0  0  0  0
   38.0680   29.1750   43.5970 F   0  0  0  0  0  0  0  0  0  0  0  0
   37.3070   30.5910   41.4280 O   0  0  0  0  0  0  0  0  0  0  0  0
   38.1080   31.5820   40.8380 C   0  0  0  0  0  0  0  0  0  0  0  0
   38.7690   30.9770   39.7710 F   0  0  0  0  0  0  0  0  0  0  0  0
   37.3310   32.6470   40.4540 F   0  0  0  0  0  0  0  0  0  0  0  0
   39.1100   31.9520   41.7060 F   0  0  0  0  0  0  0  0  0  0  0  0
  2  3  1  0  0  0  0
  2  1  1  0  0  0  0
  3 26  1  0  0  0  0
  4  3  2  0  0  0  0
  5  6  2  0  0  0  0
  5  4  1  0  0  0  0
  6  7  1  0  0  0  0
  7 11  1  0  0  0  0
  7  2  2  0  0  0  0
  8  4  1  0  0  0  0
  9  5  1  0  0  0  0
 10  6  1  0  0  0  0
 11 12  1  0  0  0  0
 12 14  2  0  0  0  0
 12 13  1  0  0  0  0
 15 14  1  0  0  0  0
 16 15  2  0  0  0  0
 17 16  1  0  0  0  0
 18 17  2  0  0  0  0
 19 18  1  0  0  0  0
 19 20  2  0  0  0  0
 20 21  1  0  0  0  0
 21 16  1  0  0  0  0
 21 11  2  0  0  0  0
 22 33  1  0  0  0  0
 22 23  1  0  0  0  0
 23 29  1  0  0  0  0
 24 28  1  0  0  0  0
 24 23  2  0  0  0  0
 25 24  1  0  0  0  0
 26 25  2  0  0  0  0
 26 27  1  0  0  0  0
 27 22  2  0  0  0  0
 29 30  1  0  0  0  0
 29 32  1  0  0  0  0
 31 29  1  0  0  0  0
 34 33  1  0  0  0  0
 34 37  1  0  0  0  0
 35 34  1  0  0  0  0
 36 34  1  0  0  0  0
M  END
>  <minimizedAffinity>
-6.94225931

$$$$

 OpenBabel03252504163D

 37 40  0  0  0  0  0  0  0  0999 V2000
   34.5240   29.8500   37.6400 F   0  0  0  0  0  0  0  0  0  0  0  0
   34.2120   28.5440   37.3530 C   0  0  0  0  0  0  0  0  0  0  0  0
   35.0130   27.5280   37.8490 C   0  0  0  0  0  0  0  0  0  0  0  0
   34.6400   26.2320   37.5210 C   0  0  0  0  0  0  0  0  0  0  0  0
   33.5270   25.9830   36.7400 C   0  0  0  0  0  0  0  0  0  0  0  0
   32.7630   27.0450   36.2720 C   0  0  0  0  0  0  0  0  0  0  0  0
   33.0930   28.3540   36.5700 C   0  0  0  0  0  0  0  0  0  0  0  0
   35.2190   25.3900   37.8740 H   0  0  0  0  0  0  0  0  0  0  0  0
   33.2790   24.9550   36.5130 H   0  0  0  0  0  0  0  0  0  0  0  0
   31.8910   26.8510   35.6600 H   0  0  0  0  0  0  0  0  0  0  0  0
   32.3070   29.4990   36.0920 C   0  0  0  0  0  0  0  0  0  0  0  0
   32.6380   29.9330   34.8170 C   0  0  0  0  0  0  0  0  0  0  0  0
   33.4180   29.4810   34.1900 H   0  0  0  0  0  0  0  0  0  0  0  0
   31.9590   31.0120   34.2580 C   0  0  0  0  0  3  0  0  0  0  0  0
   30.9580   31.6460   34.9770 C   0  0  0  0  0  3  0  0  0  0  0  0
   30.6390   31.1990   36.2510 C   0  0  0  0  0  0  0  0  0  0  0  0
   29.6620   31.7800   37.0120 C   0  0  0  0  0  3  0  0  0  0  0  0
   29.3590   31.3250   38.2720 C   0  0  0  0  0  3  0  0  0  0  0  0
   30.0520   30.2420   38.8110 C   0  0  0  0  0  3  0  0  0  0  0  0
   31.0440   29.6320   38.0710 C   0  0  0  0  0  3  0  0  0  0  0  0
   31.3100   30.1280   36.8110 C   0  0  0  0  0  0  0  0  0  0  0  0
   37.0440   28.1420   40.8140 C   0  0  0  0  0  0  0  0  0  0  0  0
   38.3190   28.3320   40.3180 C   0  0  0  0  0  0  0  0  0  0  0  0
   38.4880   28.2450   38.9110 C   0  0  0  0  0  0  0  0  0  0  0  0
   37.4110   27.9860   38.1360 N   0  0  0  0  0  0  0  0  0  0  0  0
   36.1890   27.8100   38.6770 C   0  0  0  0  0  0  0  0  0  0  0  0
   36.0100   27.8880   40.0120 N   0  0  0  0  0  0  0  0  0  0  0  0
   39.4710   28.3890   38.4970 H   0  0  0  0  0  0  0  0  0  0  0  0
   39.4510   28.6130   41.2320 C   0  0  0  0  0  0  0  0  0  0  0  0
   39.8840   27.4210   41.8010 F   0  0  0  0  0  0  0  0  0  0  0  0
   40.5010   29.0890   40.4590 F   0  0  0  0  0  0  0  0  0  0  0  0
   39.1980   29.5010   42.2140 F   0  0  0  0  0  0  0  0  0  0  0  0
   36.8860   28.2270   42.1690 O   0  0  0  0  0  0  0  0  0  0  0  0
   36.8690   27.1650   43.0890 C   0  0  0  0  0  0  0  0  0  0  0  0
   35.7330   27.3380   43.8760 F   0  0  0  0  0  0  0  0  0  0  0  0
   36.8820   25.9650   42.4220 F   0  0  0  0  0  0  0  0  0  0  0  0
   37.9240   27.2880   43.9650 F   0  0  0  0  0  0  0  0  0  0  0  0
  2  1  1  0  0  0  0
  2  3  1  0  0  0  0
  3 26  1  0  0  0  0
  4  3  2  0  0  0  0
  4  8  1  0  0  0  0
  5  4  1  0  0  0  0
  6  7  1  0  0  0  0
  6  5  2  0  0  0  0
  7  2  2  0  0  0  0
  9  5  1  0  0  0  0
 10  6  1  0  0  0  0
 11  7  1  0  0  0  0
 11 21  1  0  0  0  0
 12 11  2  0  0  0  0
 13 12  1  0  0  0  0
 14 12  1  0  0  0  0
 14 15  2  0  0  0  0
 15 16  1  0  0  0  0
 16 21  2  0  0  0  0
 16 17  1  0  0  0  0
 17 18  2  0  0  0  0
 18 19  1  0  0  0  0
 20 19  2  0  0  0  0
 21 20  1  0  0  0  0
 22 33  1  0  0  0  0
 23 22  1  0  0  0  0
 23 29  1  0  0  0  0
 24 23  2  0  0  0  0
 25 26  2  0  0  0  0
 25 24  1  0  0  0  0
 26 27  1  0  0  0  0
 27 22  2  0  0  0  0
 28 24  1  0  0  0  0
 29 30  1  0  0  0  0
 29 32  1  0  0  0  0
 31 29  1  0  0  0  0
 33 34  1  0  0  0  0
 34 35  1  0  0  0  0
 34 37  1  0  0  0  0
 36 34  1  0  0  0  0
M  END
>  <minimizedAffinity>
-6.928967

$$$$

 OpenBabel03252504163D

 37 40  0  0  0  0  0  0  0  0999 V2000
   39.1580   27.5510   40.5950 F   0  0  0  0  0  0  0  0  0  0  0  0
   38.4150   27.7330   41.7360 C   0  0  0  0  0  0  0  0  0  0  0  0
   38.6170   28.8670   42.5060 C   0  0  0  0  0  0  0  0  0  0  0  0
   37.8320   28.9880   43.6440 C   0  0  0  0  0  0  0  0  0  0  0  0
   36.9030   28.0220   43.9800 C   0  0  0  0  0  0  0  0  0  0  0  0
   36.7470   26.9050   43.1670 C   0  0  0  0  0  0  0  0  0  0  0  0
   37.5040   26.7380   42.0220 C   0  0  0  0  0  0  0  0  0  0  0  0
   37.9360   29.8470   44.2910 H   0  0  0  0  0  0  0  0  0  0  0  0
   36.3160   28.1630   44.8770 H   0  0  0  0  0  0  0  0  0  0  0  0
   36.0190   26.1470   43.4280 H   0  0  0  0  0  0  0  0  0  0  0  0
   37.3640   25.5710   41.1410 C   0  0  0  0  0  0  0  0  0  0  0  0
   37.9000   24.3970   41.6500 C   0  0  0  0  0  0  0  0  0  0  0  0
   38.3950   24.3120   42.6250 H   0  0  0  0  0  0  0  0  0  0  0  0
   37.8250   23.2250   40.9020 C   0  0  0  0  0  3  0  0  0  0  0  0
   37.2170   23.2370   39.6570 C   0  0  0  0  0  3  0  0  0  0  0  0
   36.6860   24.4200   39.1630 C   0  0  0  0  0  0  0  0  0  0  0  0
   36.0730   24.4990   37.9430 C   0  0  0  0  0  3  0  0  0  0  0  0
   35.5520   25.6780   37.4690 C   0  0  0  0  0  3  0  0  0  0  0  0
   35.6380   26.8400   38.2350 C   0  0  0  0  0  3  0  0  0  0  0  0
   36.2500   26.7960   39.4720 C   0  0  0  0  0  3  0  0  0  0  0  0
   36.7570   25.5870   39.9000 C   0  0  0  0  0  0  0  0  0  0  0  0
   40.0980   31.7590   40.8500 C   0  0  0  0  0  0  0  0  0  0  0  0
   41.3760   31.8280   41.3680 C   0  0  0  0  0  0  0  0  0  0  0  0
   41.7440   30.8450   42.3240 C   0  0  0  0  0  0  0  0  0  0  0  0
   40.8400   29.9020   42.6750 N   0  0  0  0  0  0  0  0  0  0  0  0
   39.6060   29.8830   42.1350 C   0  0  0  0  0  0  0  0  0  0  0  0
   39.2390   30.8110   41.2250 N   0  0  0  0  0  0  0  0  0  0  0  0
   42.7340   30.8760   42.7450 H   0  0  0  0  0  0  0  0  0  0  0  0
   42.3100   32.8930   40.9340 C   0  0  0  0  0  0  0  0  0  0  0  0
   43.5550   32.6720   41.5130 F   0  0  0  0  0  0  0  0  0  0  0  0
   42.4800   32.7640   39.5630 F   0  0  0  0  0  0  0  0  0  0  0  0
   41.9190   34.1540   41.2060 F   0  0  0  0  0  0  0  0  0  0  0  0
   39.7480   32.7070   39.9310 O   0  0  0  0  0  0  0  0  0  0  0  0
   38.8620   33.7820   40.1150 C   0  0  0  0  0  0  0  0  0  0  0  0
   39.4870   34.9090   39.5870 F   0  0  0  0  0  0  0  0  0  0  0  0
   37.6570   33.5060   39.5150 F   0  0  0  0  0  0  0  0  0  0  0  0
   38.7270   34.0530   41.4570 F   0  0  0  0  0  0  0  0  0  0  0  0
  1  2  1  0  0  0  0
  2  7  2  0  0  0  0
  2  3  1  0  0  0  0
  3  4  2  0  0  0  0
  4  5  1  0  0  0  0
  4  8  1  0  0  0  0
  5  9  1  0  0  0  0
  6 10  1  0  0  0  0
  6  5  2  0  0  0  0
  7  6  1  0  0  0  0
 11 12  1  0  0  0  0
 11  7  1  0  0  0  0
 12 13  1  0  0  0  0
 14 12  2  0  0  0  0
 15 14  1  0  0  0  0
 16 15  2  0  0  0  0
 16 21  1  0  0  0  0
 17 16  1  0  0  0  0
 18 17  2  0  0  0  0
 18 19  1  0  0  0  0
 19 20  2  0  0  0  0
 20 21  1  0  0  0  0
 21 11  2  0  0  0  0
 22 27  2  0  0  0  0
 22 23  1  0  0  0  0
 23 24  2  0  0  0  0
 24 25  1  0  0  0  0
 24 28  1  0  0  0  0
 26  3  1  0  0  0  0
 26 25  2  0  0  0  0
 27 26  1  0  0  0  0
 29 32  1  0  0  0  0
 29 23  1  0  0  0  0
 29 30  1  0  0  0  0
 31 29  1  0  0  0  0
 33 34  1  0  0  0  0
 33 22  1  0  0  0  0
 34 37  1  0  0  0  0
 35 34  1  0  0  0  0
 36 34  1  0  0  0  0
M  END
>  <minimizedAffinity>
-6.86395931

$$$$

 OpenBabel03252504163D

 37 40  0  0  0  0  0  0  0  0999 V2000
   33.7950   29.6460   38.8260 F   0  0  0  0  0  0  0  0  0  0  0  0
   33.7400   28.6240   37.9100 C   0  0  0  0  0  0  0  0  0  0  0  0
   34.7520   27.6780   37.8840 C   0  0  0  0  0  0  0  0  0  0  0  0
   34.6340   26.6740   36.9340 C   0  0  0  0  0  0  0  0  0  0  0  0
   33.5590   26.6310   36.0670 C   0  0  0  0  0  0  0  0  0  0  0  0
   32.5750   27.6090   36.1420 C   0  0  0  0  0  0  0  0  0  0  0  0
   32.6470   28.6310   37.0700 C   0  0  0  0  0  0  0  0  0  0  0  0
   35.3870   25.9020   36.8570 H   0  0  0  0  0  0  0  0  0  0  0  0
   33.5130   25.8270   35.3440 H   0  0  0  0  0  0  0  0  0  0  0  0
   31.7320   27.5770   35.4630 H   0  0  0  0  0  0  0  0  0  0  0  0
   31.6240   29.6800   37.1770 C   0  0  0  0  0  0  0  0  0  0  0  0
   30.9370   29.6950   38.3820 C   0  0  0  0  0  0  0  0  0  0  0  0
   31.1170   28.9950   39.2080 H   0  0  0  0  0  0  0  0  0  0  0  0
   29.9440   30.6460   38.5970 C   0  0  0  0  0  3  0  0  0  0  0  0
   29.6460   31.5710   37.6090 C   0  0  0  0  0  3  0  0  0  0  0  0
   30.3430   31.5430   36.4100 C   0  0  0  0  0  0  0  0  0  0  0  0
   30.0990   32.4270   35.3950 C   0  0  0  0  0  3  0  0  0  0  0  0
   30.7980   32.3840   34.2140 C   0  0  0  0  0  3  0  0  0  0  0  0
   31.7890   31.4230   34.0200 C   0  0  0  0  0  3  0  0  0  0  0  0
   32.0620   30.5150   35.0230 C   0  0  0  0  0  3  0  0  0  0  0  0
   31.3300   30.6010   36.1900 C   0  0  0  0  0  0  0  0  0  0  0  0
   37.2950   26.5800   40.2550 C   0  0  0  0  0  0  0  0  0  0  0  0
   37.9910   27.7330   40.5640 C   0  0  0  0  0  0  0  0  0  0  0  0
   37.5710   28.9340   39.9330 C   0  0  0  0  0  0  0  0  0  0  0  0
   36.5270   28.8930   39.0750 N   0  0  0  0  0  0  0  0  0  0  0  0
   35.8850   27.7380   38.8120 C   0  0  0  0  0  0  0  0  0  0  0  0
   36.2710   26.5860   39.4020 N   0  0  0  0  0  0  0  0  0  0  0  0
   38.0950   29.8470   40.1560 H   0  0  0  0  0  0  0  0  0  0  0  0
   39.1260   27.6980   41.5160 C   0  0  0  0  0  0  0  0  0  0  0  0
   40.0690   26.7800   41.0680 F   0  0  0  0  0  0  0  0  0  0  0  0
   39.7360   28.9440   41.4800 F   0  0  0  0  0  0  0  0  0  0  0  0
   38.8050   27.4080   42.7920 F   0  0  0  0  0  0  0  0  0  0  0  0
   37.7030   25.4270   40.8640 O   0  0  0  0  0  0  0  0  0  0  0  0
   37.0850   24.7720   41.9430 C   0  0  0  0  0  0  0  0  0  0  0  0
   36.0640   23.9940   41.4050 F   0  0  0  0  0  0  0  0  0  0  0  0
   38.0130   24.0350   42.6380 F   0  0  0  0  0  0  0  0  0  0  0  0
   36.4430   25.6910   42.7420 F   0  0  0  0  0  0  0  0  0  0  0  0
  2  1  1  0  0  0  0
  3  2  1  0  0  0  0
  3 26  1  0  0  0  0
  4  3  2  0  0  0  0
  5  6  2  0  0  0  0
  5  4  1  0  0  0  0
  6  7  1  0  0  0  0
  7 11  1  0  0  0  0
  7  2  2  0  0  0  0
  8  4  1  0  0  0  0
  9  5  1  0  0  0  0
 10  6  1  0  0  0  0
 11 12  1  0  0  0  0
 12 14  2  0  0  0  0
 12 13  1  0  0  0  0
 15 14  1  0  0  0  0
 16 15  2  0  0  0  0
 17 16  1  0  0  0  0
 18 17  2  0  0  0  0
 19 18  1  0  0  0  0
 19 20  2  0  0  0  0
 20 21  1  0  0  0  0
 21 16  1  0  0  0  0
 21 11  2  0  0  0  0
 22 23  1  0  0  0  0
 22 33  1  0  0  0  0
 23 29  1  0  0  0  0
 24 28  1  0  0  0  0
 24 23  2  0  0  0  0
 25 24  1  0  0  0  0
 26 25  2  0  0  0  0
 26 27  1  0  0  0  0
 27 22  2  0  0  0  0
 29 32  1  0  0  0  0
 30 29  1  0  0  0  0
 31 29  1  0  0  0  0
 33 34  1  0  0  0  0
 34 36  1  0  0  0  0
 34 37  1  0  0  0  0
 35 34  1  0  0  0  0
M  END
>  <minimizedAffinity>
-6.80450964

$$$$

 OpenBabel03252504163D

 37 40  0  0  0  0  0  0  0  0999 V2000
   39.4310   28.6860   39.9530 F   0  0  0  0  0  0  0  0  0  0  0  0
   38.2340   29.2900   40.2530 C   0  0  0  0  0  0  0  0  0  0  0  0
   38.1130   30.6630   40.1180 C   0  0  0  0  0  0  0  0  0  0  0  0
   36.8770   31.2080   40.4390 C   0  0  0  0  0  0  0  0  0  0  0  0
   35.8330   30.4110   40.8670 C   0  0  0  0  0  0  0  0  0  0  0  0
   36.0160   29.0380   40.9820 C   0  0  0  0  0  0  0  0  0  0  0  0
   37.2280   28.4470   40.6760 C   0  0  0  0  0  0  0  0  0  0  0  0
   36.7110   32.2730   40.3570 H   0  0  0  0  0  0  0  0  0  0  0  0
   34.8900   30.8840   41.1040 H   0  0  0  0  0  0  0  0  0  0  0  0
   35.1990   28.4130   41.3180 H   0  0  0  0  0  0  0  0  0  0  0  0
   37.4550   27.0000   40.7860 C   0  0  0  0  0  0  0  0  0  0  0  0
   36.8230   26.2420   39.8110 C   0  0  0  0  0  0  0  0  0  0  0  0
   36.1970   26.6570   39.0100 H   0  0  0  0  0  0  0  0  0  0  0  0
   36.9670   24.8570   39.8140 C   0  0  0  0  0  3  0  0  0  0  0  0
   37.7390   24.2450   40.7880 C   0  0  0  0  0  3  0  0  0  0  0  0
   38.3650   25.0180   41.7550 C   0  0  0  0  0  0  0  0  0  0  0  0
   39.1400   24.4760   42.7430 C   0  0  0  0  0  3  0  0  0  0  0  0
   39.7530   25.2560   43.6930 C   0  0  0  0  0  3  0  0  0  0  0  0
   39.5950   26.6410   43.6700 C   0  0  0  0  0  3  0  0  0  0  0  0
   38.8190   27.2220   42.6880 C   0  0  0  0  0  3  0  0  0  0  0  0
   38.2260   26.3930   41.7580 C   0  0  0  0  0  0  0  0  0  0  0  0
   40.8710   31.8550   38.0520 C   0  0  0  0  0  0  0  0  0  0  0  0
   41.3330   32.9740   38.7160 C   0  0  0  0  0  0  0  0  0  0  0  0
   40.6720   33.3340   39.9210 C   0  0  0  0  0  0  0  0  0  0  0  0
   39.6390   32.5760   40.3530 N   0  0  0  0  0  0  0  0  0  0  0  0
   39.2310   31.4940   39.6620 C   0  0  0  0  0  0  0  0  0  0  0  0
   39.8470   31.1370   38.5150 N   0  0  0  0  0  0  0  0  0  0  0  0
   41.0120   34.2020   40.4590 H   0  0  0  0  0  0  0  0  0  0  0  0
   42.4720   33.7540   38.1790 C   0  0  0  0  0  0  0  0  0  0  0  0
   42.1760   34.1610   36.8830 F   0  0  0  0  0  0  0  0  0  0  0  0
   42.5830   34.9080   38.9430 F   0  0  0  0  0  0  0  0  0  0  0  0
   43.6620   33.1190   38.1770 F   0  0  0  0  0  0  0  0  0  0  0  0
   41.5090   31.5120   36.8930 O   0  0  0  0  0  0  0  0  0  0  0  0
   42.3950   30.4400   36.6970 C   0  0  0  0  0  0  0  0  0  0  0  0
   41.6150   29.3320   36.3770 F   0  0  0  0  0  0  0  0  0  0  0  0
   43.3060   30.7560   35.7190 F   0  0  0  0  0  0  0  0  0  0  0  0
   43.0000   30.1090   37.8880 F   0  0  0  0  0  0  0  0  0  0  0  0
  1  2  1  0  0  0  0
  2  7  1  0  0  0  0
  3  2  2  0  0  0  0
  3  4  1  0  0  0  0
  4  5  2  0  0  0  0
  5  6  1  0  0  0  0
  5  9  1  0  0  0  0
  6 10  1  0  0  0  0
  7 11  1  0  0  0  0
  7  6  2  0  0  0  0
  8  4  1  0  0  0  0
 11 21  1  0  0  0  0
 12 14  1  0  0  0  0
 12 11  2  0  0  0  0
 13 12  1  0  0  0  0
 14 15  2  0  0  0  0
 15 16  1  0  0  0  0
 16 21  2  0  0  0  0
 16 17  1  0  0  0  0
 17 18  2  0  0  0  0
 19 18  1  0  0  0  0
 20 19  2  0  0  0  0
 21 20  1  0  0  0  0
 22 27  2  0  0  0  0
 22 23  1  0  0  0  0
 23 24  2  0  0  0  0
 24 25  1  0  0  0  0
 24 28  1  0  0  0  0
 26  3  1  0  0  0  0
 26 25  2  0  0  0  0
 27 26  1  0  0  0  0
 29 23  1  0  0  0  0
 29 31  1  0  0  0  0
 30 29  1  0  0  0  0
 32 29  1  0  0  0  0
 33 22  1  0  0  0  0
 34 33  1  0  0  0  0
 34 37  1  0  0  0  0
 35 34  1  0  0  0  0
 36 34  1  0  0  0  0
M  END
>  <minimizedAffinity>
-6.76265717

$$$$

 OpenBabel03252504163D

 37 40  0  0  0  0  0  0  0  0999 V2000
   40.2090   30.4110   39.9520 F   0  0  0  0  0  0  0  0  0  0  0  0
   39.2640   31.4040   39.8720 C   0  0  0  0  0  0  0  0  0  0  0  0
   39.6710   32.7260   39.7910 C   0  0  0  0  0  0  0  0  0  0  0  0
   38.6640   33.6770   39.7130 C   0  0  0  0  0  0  0  0  0  0  0  0
   37.3310   33.3130   39.7160 C   0  0  0  0  0  0  0  0  0  0  0  0
   36.9860   31.9690   39.8000 C   0  0  0  0  0  0  0  0  0  0  0  0
   37.9510   30.9820   39.8810 C   0  0  0  0  0  0  0  0  0  0  0  0
   38.9080   34.7280   39.6460 H   0  0  0  0  0  0  0  0  0  0  0  0
   36.5850   34.0920   39.6530 H   0  0  0  0  0  0  0  0  0  0  0  0
   35.9420   31.6810   39.8030 H   0  0  0  0  0  0  0  0  0  0  0  0
   37.6200   29.5540   39.9700 C   0  0  0  0  0  0  0  0  0  0  0  0
   37.4150   28.9330   38.7460 C   0  0  0  0  0  0  0  0  0  0  0  0
   37.4850   29.4370   37.7740 H   0  0  0  0  0  0  0  0  0  0  0  0
   37.0960   27.5780   38.7070 C   0  0  0  0  0  3  0  0  0  0  0  0
   36.9860   26.8590   39.8860 C   0  0  0  0  0  3  0  0  0  0  0  0
   37.1940   27.4960   41.1000 C   0  0  0  0  0  0  0  0  0  0  0  0
   37.1010   26.8440   42.2990 C   0  0  0  0  0  3  0  0  0  0  0  0
   37.3110   27.4890   43.4930 C   0  0  0  0  0  3  0  0  0  0  0  0
   37.6300   28.8460   43.5090 C   0  0  0  0  0  3  0  0  0  0  0  0
   37.7320   29.5350   42.3180 C   0  0  0  0  0  3  0  0  0  0  0  0
   37.5110   28.8400   41.1470 C   0  0  0  0  0  0  0  0  0  0  0  0
   43.0890   33.1700   38.6020 C   0  0  0  0  0  0  0  0  0  0  0  0
   43.7470   33.7460   39.6700 C   0  0  0  0  0  0  0  0  0  0  0  0
   42.9880   33.9930   40.8450 C   0  0  0  0  0  0  0  0  0  0  0  0
   41.6780   33.6570   40.8610 N   0  0  0  0  0  0  0  0  0  0  0  0
   41.0890   33.0960   39.7870 C   0  0  0  0  0  0  0  0  0  0  0  0
   41.7950   32.8540   38.6620 N   0  0  0  0  0  0  0  0  0  0  0  0
   43.4760   34.4420   41.6920 H   0  0  0  0  0  0  0  0  0  0  0  0
   45.1860   34.0880   39.5760 C   0  0  0  0  0  0  0  0  0  0  0  0
   45.5590   34.8080   40.7060 F   0  0  0  0  0  0  0  0  0  0  0  0
   45.8990   32.8980   39.6100 F   0  0  0  0  0  0  0  0  0  0  0  0
   45.5480   34.7800   38.4770 F   0  0  0  0  0  0  0  0  0  0  0  0
   43.8230   32.9340   37.4740 O   0  0  0  0  0  0  0  0  0  0  0  0
   44.2180   31.6870   36.9630 C   0  0  0  0  0  0  0  0  0  0  0  0
   45.3400   31.9170   36.1710 F   0  0  0  0  0  0  0  0  0  0  0  0
   44.4590   30.8120   37.9940 F   0  0  0  0  0  0  0  0  0  0  0  0
   43.2640   31.2160   36.0900 F   0  0  0  0  0  0  0  0  0  0  0  0
  2  7  1  0  0  0  0
  2  1  1  0  0  0  0
  3  2  2  0  0  0  0
  4  5  2  0  0  0  0
  4  3  1  0  0  0  0
  5  6  1  0  0  0  0
  6 10  1  0  0  0  0
  6  7  2  0  0  0  0
  7 11  1  0  0  0  0
  8  4  1  0  0  0  0
  9  5  1  0  0  0  0
 11 21  1  0  0  0  0
 12 11  2  0  0  0  0
 13 12  1  0  0  0  0
 14 12  1  0  0  0  0
 14 15  2  0  0  0  0
 15 16  1  0  0  0  0
 16 21  2  0  0  0  0
 16 17  1  0  0  0  0
 17 18  2  0  0  0  0
 18 19  1  0  0  0  0
 20 19  2  0  0  0  0
 21 20  1  0  0  0  0
 22 27  2  0  0  0  0
 22 23  1  0  0  0  0
 23 24  2  0  0  0  0
 24 25  1  0  0  0  0
 24 28  1  0  0  0  0
 26  3  1  0  0  0  0
 26 25  2  0  0  0  0
 27 26  1  0  0  0  0
 29 31  1  0  0  0  0
 29 23  1  0  0  0  0
 29 30  1  0  0  0  0
 32 29  1  0  0  0  0
 33 22  1  0  0  0  0
 34 33  1  0  0  0  0
 34 36  1  0  0  0  0
 35 34  1  0  0  0  0
 37 34  1  0  0  0  0
M  END
>  <minimizedAffinity>
-6.74272156

$$$$
