
 OpenBabel03252508263D

 43 48  0  0  1  0  0  0  0  0999 V2000
   46.3670   32.4050   46.1770 C   0  0  1  0  0  0  0  0  0  0  0  0
   46.8170   32.5830   47.5640 C   0  0  0  0  0  0  0  0  0  0  0  0
   45.4390   31.9150   47.1760 C   0  0  2  0  0  0  0  0  0  0  0  0
   47.1950   31.7880   45.6730 H   0  0  0  0  0  0  0  0  0  0  0  0
   46.7590   33.5740   48.0160 H   0  0  0  0  0  0  0  0  0  0  0  0
   47.4580   31.8770   48.1140 H   0  0  0  0  0  0  0  0  0  0  0  0
   44.6930   32.5730   47.7240 H   0  0  0  0  0  0  0  0  0  0  0  0
   45.2000   30.5060   47.4920 C   0  0  0  0  0  0  0  0  0  0  0  0
   45.0790   29.9440   48.7270 C   0  0  0  0  0  0  0  0  0  0  0  0
   44.9800   28.5860   48.9960 C   0  0  0  0  0  0  0  0  0  0  0  0
   45.0110   27.7260   47.8790 C   0  0  0  0  0  0  0  0  0  0  0  0
   45.1310   28.2820   46.6160 C   0  0  0  0  0  0  0  0  0  0  0  0
   45.0980   27.4030   45.5520 C   0  0  0  0  0  0  0  0  0  0  0  0
   45.1500   27.9050   44.2470 C   0  0  0  0  0  0  0  0  0  0  0  0
   45.2290   29.2630   44.0260 C   0  0  0  0  0  0  0  0  0  0  0  0
   45.2590   30.0910   45.1230 C   0  0  0  0  0  0  0  0  0  0  0  0
   45.2200   29.6370   46.4290 C   0  0  0  0  0  0  0  0  0  0  0  0
   45.0620   30.6620   49.5540 H   0  0  0  0  0  0  0  0  0  0  0  0
   44.8850   28.2300   50.0140 H   0  0  0  0  0  0  0  0  0  0  0  0
   44.9360   26.6660   48.0860 H   0  0  0  0  0  0  0  0  0  0  0  0
   45.0340   26.3350   45.7430 H   0  0  0  0  0  0  0  0  0  0  0  0
   45.1200   27.1130   43.4830 H   0  0  0  0  0  0  0  0  0  0  0  0
   45.2550   29.4540   42.9770 H   0  0  0  0  0  0  0  0  0  0  0  0
   45.2340   31.0570   44.7060 H   0  0  0  0  0  0  0  0  0  0  0  0
   44.6610   35.4630   45.0110 C   0  0  0  0  0  0  0  0  0  0  0  0
   45.2490   35.6770   43.7250 C   0  0  0  0  0  0  0  0  0  0  0  0
   46.2300   34.7620   43.2980 C   0  0  0  0  0  0  0  0  0  0  0  0
   46.5520   33.7570   44.1160 N   0  0  0  0  0  0  0  0  0  0  0  0
   45.9810   33.5730   45.3340 C   0  0  0  0  0  0  0  0  0  0  0  0
   45.0530   34.4160   45.7650 N   0  0  0  0  0  0  0  0  0  0  0  0
   43.9100   36.1800   45.3110 H   0  0  0  0  0  0  0  0  0  0  0  0
   44.9490   36.5370   43.1760 H   0  0  0  0  0  0  0  0  0  0  0  0
   47.0030   34.8220   42.0820 C   0  0  0  0  0  0  0  0  0  0  0  0
   48.1870   35.5710   42.1230 C   0  0  0  0  0  0  0  0  0  0  0  0
   48.4670   36.0810   43.0580 H   0  0  0  0  0  0  0  0  0  0  0  0
   49.0590   35.7350   41.0730 C   0  0  0  0  0  3  0  0  0  0  0  0
   48.7690   35.1230   39.8750 C   0  0  0  0  0  3  0  0  0  0  0  0
   47.6240   34.3670   39.7600 C   0  0  0  0  0  0  0  0  0  0  0  0
   47.3320   33.7160   38.5810 C   0  0  0  0  0  3  0  0  0  0  0  0
   46.2050   32.9090   38.4300 C   0  0  0  0  0  3  0  0  0  0  0  0
   45.3910   32.8070   39.5650 C   0  0  0  0  0  3  0  0  0  0  0  0
   45.7070   33.4690   40.7280 C   0  0  0  0  0  3  0  0  0  0  0  0
   46.8060   34.2520   40.8530 C   0  0  0  0  0  0  0  0  0  0  0  0
  1  4  1  6  0  0  0
  1  3  1  0  0  0  0
  1  2  1  0  0  0  0
  2  5  1  0  0  0  0
  2  6  1  0  0  0  0
  3  8  1  0  0  0  0
  3  2  1  0  0  0  0
  3  7  1  1  0  0  0
  8  9  1  0  0  0  0
  9 10  2  0  0  0  0
  9 18  1  0  0  0  0
 10 19  1  0  0  0  0
 11 20  1  0  0  0  0
 11 10  1  0  0  0  0
 12 11  2  0  0  0  0
 13 21  1  0  0  0  0
 13 12  1  0  0  0  0
 14 13  2  0  0  0  0
 15 14  1  0  0  0  0
 15 16  2  0  0  0  0
 16 17  1  0  0  0  0
 17 12  1  0  0  0  0
 17  8  2  0  0  0  0
 22 14  1  0  0  0  0
 23 15  1  0  0  0  0
 24 16  1  0  0  0  0
 25 31  1  0  0  0  0
 25 30  1  0  0  0  0
 26 25  2  0  0  0  0
 27 26  1  0  0  0  0
 27 28  2  0  0  0  0
 28 29  1  0  0  0  0
 29 30  2  0  0  0  0
 29  1  1  0  0  0  0
 32 26  1  0  0  0  0
 33 34  1  0  0  0  0
 33 27  1  0  0  0  0
 34 35  1  0  0  0  0
 36 34  2  0  0  0  0
 37 36  1  0  0  0  0
 38 37  2  0  0  0  0
 38 43  1  0  0  0  0
 39 38  1  0  0  0  0
 40 39  2  0  0  0  0
 40 41  1  0  0  0  0
 41 42  2  0  0  0  0
 42 43  1  0  0  0  0
 43 33  2  0  0  0  0
M  END
>  <minimizedAffinity>
-6.94391298

>  <minimizedRMSD>
1.13570046

$$$$
