
 OpenBabel03242518233D

 34 37  0  0  0  0  0  0  0  0999 V2000
   44.3940   34.2600   41.8180 C   0  0  0  0  0  0  0  0  0  0  0  0
   45.4070   33.9280   40.9270 C   0  0  0  0  0  0  0  0  0  0  0  0
   45.0430   33.5570   39.6470 C   0  0  0  0  0  0  0  0  0  0  0  0
   43.7360   33.5320   39.3150 N   0  0  0  0  0  0  0  0  0  0  0  0
   42.7650   33.8500   40.1670 C   0  0  0  0  0  0  0  0  0  0  0  0
   43.1110   34.2040   41.3910 N   0  0  0  0  0  0  0  0  0  0  0  0
   44.5170   34.5730   42.8690 H   0  0  0  0  0  0  0  0  0  0  0  0
   45.7970   33.3000   38.9520 H   0  0  0  0  0  0  0  0  0  0  0  0
   46.7420   34.0020   41.4110 N   0  0  0  0  0  0  0  0  0  0  0  0
   47.6260   32.9000   41.1520 C   0  0  0  0  0  0  0  0  0  0  0  0
   49.0090   33.1000   41.6590 C   0  0  0  0  0  0  0  0  0  0  0  0
   49.5530   34.4020   41.4700 N   0  0  0  0  0  0  0  0  0  0  0  0
   48.6690   35.4930   41.5600 C   0  0  0  0  0  0  0  0  0  0  0  0
   47.3260   35.0800   42.1490 C   0  0  0  0  0  0  0  0  0  0  0  0
   47.1860   31.9940   41.6160 H   0  0  0  0  0  0  0  0  0  0  0  0
   47.6190   32.7020   40.0400 H   0  0  0  0  0  0  0  0  0  0  0  0
   48.9920   32.8630   42.7540 H   0  0  0  0  0  0  0  0  0  0  0  0
   49.6740   32.3410   41.2060 H   0  0  0  0  0  0  0  0  0  0  0  0
   50.2960   34.4790   40.7590 H   0  0  0  0  0  0  0  0  0  0  0  0
   48.4270   35.8750   40.5340 H   0  0  0  0  0  0  0  0  0  0  0  0
   49.0390   36.3380   42.1780 H   0  0  0  0  0  0  0  0  0  0  0  0
   46.7520   35.9920   42.2480 H   0  0  0  0  0  0  0  0  0  0  0  0
   47.5920   34.6500   43.1560 H   0  0  0  0  0  0  0  0  0  0  0  0
   41.3120   33.8730   39.9620 C   0  0  0  0  0  0  0  0  0  0  0  0
   40.5490   35.0200   40.1390 C   0  0  0  0  0  0  0  0  0  0  0  0
   41.0430   35.9470   40.4430 H   0  0  0  0  0  0  0  0  0  0  0  0
   39.1920   35.0890   39.9590 C   0  0  0  0  0  0  0  0  0  0  0  0
   38.5060   33.9730   39.5800 C   0  0  0  0  0  0  0  0  0  0  0  0
   39.2100   32.8090   39.3910 C   0  0  0  0  0  0  0  0  0  0  0  0
   38.4730   31.7110   39.0080 C   0  0  0  0  0  0  0  0  0  0  0  0
   39.0830   30.4940   38.7910 C   0  0  0  0  0  0  0  0  0  0  0  0
   40.4480   30.4590   38.9800 C   0  0  0  0  0  0  0  0  0  0  0  0
   41.1370   31.5840   39.3620 C   0  0  0  0  0  0  0  0  0  0  0  0
   40.5540   32.8080   39.5850 C   0  0  0  0  0  0  0  0  0  0  0  0
  1  7  1  0  0  0  0
  2  9  1  0  0  0  0
  2  1  2  0  0  0  0
  3  2  1  0  0  0  0
  4  3  2  0  0  0  0
  4  5  1  0  0  0  0
  5  6  2  0  0  0  0
  6  1  1  0  0  0  0
  8  3  1  0  0  0  0
  9 14  1  0  0  0  0
 10  9  1  0  0  0  0
 10 15  1  0  0  0  0
 10 11  1  0  0  0  0
 11 17  1  0  0  0  0
 12 13  1  0  0  0  0
 12 11  1  0  0  0  0
 13 14  1  0  0  0  0
 13 21  1  0  0  0  0
 14 22  1  0  0  0  0
 14 23  1  0  0  0  0
 16 10  1  0  0  0  0
 18 11  1  0  0  0  0
 19 12  1  0  0  0  0
 20 13  1  0  0  0  0
 24 25  1  0  0  0  0
 24  5  1  0  0  0  0
 25 26  1  0  0  0  0
 27 25  2  0  0  0  0
 28 27  1  0  0  0  0
 29 28  2  0  0  0  0
 29 34  1  0  0  0  0
 30 29  1  0  0  0  0
 31 32  1  0  0  0  0
 31 30  2  0  0  0  0
 32 33  2  0  0  0  0
 33 34  1  0  0  0  0
 34 24  2  0  0  0  0
M  END
>  <minimizedAffinity>
-5.61858845

>  <minimizedRMSD>
8.79494953

$$$$
