
     RDKit          3D

 57 61  0  0  0  0  0  0  0  0999 V2000
   47.5588   31.9645   46.4107 C   0  0  2  0  0  0  0  0  0  0  0  0
   47.3004   30.4976   45.9582 C   0  0  0  0  0  0  0  0  0  0  0  0
   48.1005   29.5656   46.7988 C   0  0  0  0  0  0  0  0  0  0  0  0
   48.1151   29.8471   48.2636 C   0  0  0  0  0  0  0  0  0  0  0  0
   48.1232   31.2477   48.6076 C   0  0  0  0  0  0  0  0  0  0  0  0
   47.1279   32.0976   47.7887 C   0  0  2  0  0  0  0  0  0  0  0  0
   46.9130   32.9140   45.5277 C   0  0  0  0  0  0  0  0  0  0  0  0
   45.7968   33.5859   46.0137 C   0  0  0  0  0  0  0  0  0  0  0  0
   45.1191   34.5046   45.1813 C   0  0  0  0  0  0  0  0  0  0  0  0
   45.6388   34.6750   43.8977 N   0  0  0  0  0  0  0  0  0  0  0  0
   46.7135   34.0012   43.4970 C   0  0  0  0  0  0  0  0  0  0  0  0
   47.3480   33.1324   44.2884 N   0  0  0  0  0  0  0  0  0  0  0  0
   47.2208   34.2482   42.1429 C   0  0  0  0  0  0  0  0  0  0  0  0
   48.1865   35.1637   41.8891 C   0  0  0  0  0  0  0  0  0  0  0  0
   48.6930   35.4308   40.6334 C   0  0  0  0  0  0  0  0  0  0  0  0
   48.1499   34.6948   39.6128 C   0  0  0  0  0  0  0  0  0  0  0  0
   47.1707   33.7554   39.8300 C   0  0  0  0  0  0  0  0  0  0  0  0
   46.7291   33.5588   41.1052 N   0  0  0  0  0  0  0  0  0  0  0  0
   45.7871   31.5305   47.9522 N   0  0  0  0  0  0  0  0  0  0  0  0
   45.1890   30.8472   49.0250 C   0  0  0  0  0  0  0  0  0  0  0  0
   44.7566   31.4404   50.0780 O   0  0  0  0  0  0  0  0  0  0  0  0
   45.0903   29.4338   48.8509 N   0  0  0  0  0  0  0  0  0  0  0  0
   48.6648   32.0496   46.2938 H   0  0  0  0  0  0  0  0  0  0  0  0
   46.2407   30.2578   45.9328 H   0  0  0  0  0  0  0  0  0  0  0  0
   47.6568   30.4744   44.9081 H   0  0  0  0  0  0  0  0  0  0  0  0
   47.6060   28.5552   46.6852 H   0  0  0  0  0  0  0  0  0  0  0  0
   49.0787   29.4386   46.3021 H   0  0  0  0  0  0  0  0  0  0  0  0
   47.7496   29.0728   48.9399 H   0  0  0  0  0  0  0  0  0  0  0  0
   49.2295   29.5974   48.4852 H   0  0  0  0  0  0  0  0  0  0  0  0
   49.0761   31.8198   48.5365 H   0  0  0  0  0  0  0  0  0  0  0  0
   47.7799   31.3733   49.6683 H   0  0  0  0  0  0  0  0  0  0  0  0
   47.2344   33.0696   48.2723 H   0  0  0  0  0  0  0  0  0  0  0  0
   45.2679   33.6364   46.9367 H   0  0  0  0  0  0  0  0  0  0  0  0
   44.2645   35.0981   45.3714 H   0  0  0  0  0  0  0  0  0  0  0  0
   48.5723   35.7094   42.7367 H   0  0  0  0  0  0  0  0  0  0  0  0
   49.4558   36.1604   40.4657 H   0  0  0  0  0  0  0  0  0  0  0  0
   48.5099   34.9407   38.6329 H   0  0  0  0  0  0  0  0  0  0  0  0
   45.0592   31.5247   47.1419 H   0  0  0  0  0  0  0  0  0  0  0  0
   44.6786   28.8933   48.0558 H   0  0  0  0  0  0  0  0  0  0  0  0
   45.4516   28.7384   49.5638 H   0  0  0  0  0  0  0  0  0  0  0  0
   46.4490   32.9485   38.8703 C   0  0  0  0  0  0  0  0  0  0  0  0
   47.0464   31.7706   38.3954 C   0  0  0  0  0  0  0  0  0  0  0  0
   48.0382   31.4866   38.7742 H   0  0  0  0  0  0  0  0  0  0  0  0
   46.4939   30.9112   37.4740 C   0  0  0  0  0  0  0  0  0  0  0  0
   45.2541   31.2024   36.9546 C   0  0  0  0  0  0  0  0  0  0  0  0
   44.6088   32.3442   37.3721 C   0  0  0  0  0  0  0  0  0  0  0  0
   43.3827   32.6660   36.8309 C   0  0  0  0  0  0  0  0  0  0  0  0
   42.7024   33.8159   37.1767 C   0  0  0  0  0  0  0  0  0  0  0  0
   43.3321   34.6438   38.1136 C   0  0  0  0  0  0  0  0  0  0  0  0
   44.5538   34.2847   38.6287 C   0  0  0  0  0  0  0  0  0  0  0  0
   45.2259   33.1486   38.2922 C   0  0  0  0  0  0  0  0  0  0  0  0
   47.0276   30.0232   37.1654 H   0  0  0  0  0  0  0  0  0  0  0  0
   44.8549   30.5028   36.2363 H   0  0  0  0  0  0  0  0  0  0  0  0
   42.9599   31.9584   36.1000 H   0  0  0  0  0  0  0  0  0  0  0  0
   41.7510   33.9494   36.6806 H   0  0  0  0  0  0  0  0  0  0  0  0
   42.7650   35.5367   38.3559 H   0  0  0  0  0  0  0  0  0  0  0  0
   44.9175   35.0383   39.2941 H   0  0  0  0  0  0  0  0  0  0  0  0
  1  6  1  0
  2  1  1  0
  2  3  1  0
  3  4  1  0
  4  5  1  0
  6 19  1  0
  6  5  1  0
  7  8  2  0
  7  1  1  0
  9  8  1  0
 10  9  2  0
 11 10  1  0
 11 12  2  0
 12  7  1  0
 13 11  1  0
 14 13  2  0
 15 14  1  0
 16 17  1  0
 16 15  2  0
 17 18  2  0
 18 13  1  0
 19 20  1  0
 20 21  2  0
 22 20  1  0
  1 23  1  1
  2 24  1  0
  2 25  1  0
  3 26  1  0
  3 27  1  0
  4 28  1  0
  4 29  1  0
  5 30  1  0
  5 31  1  0
  6 32  1  1
  8 33  1  0
  9 34  1  0
 14 35  1  0
 15 36  1  0
 16 37  1  0
 19 38  1  0
 22 39  1  0
 22 40  1  0
 41 42  2  0
 42 43  1  0
 42 44  1  0
 44 45  2  0
 45 46  1  0
 46 47  2  0
 47 48  1  0
 48 49  2  0
 49 50  1  0
 50 51  2  0
 51 41  1  0
 51 46  1  0
 44 52  1  0
 45 53  1  0
 47 54  1  0
 48 55  1  0
 49 56  1  0
 50 57  1  0
 17 41  1  0
M  ISO  8  23  13  24  13  25  13  26  13  27  13  28  13  29  13  30  13
M  ISO  8  31  13  32  13  33  14  34  14  35  14  36  14  37  14  43  15
M  END
>  <DihAtoms>  (1) 
15,16,40,41

>  <DihDeg>  (1) 
-142.30859315115185

$$$$
