
 OpenBabel03252506423D

 42 46  0  0  1  0  0  0  0  0999 V2000
   49.5390   33.4410   41.4150 N   0  0  1  0  0  0  0  0  0  0  0  0
   50.6730   32.9960   42.1460 C   0  0  0  0  0  0  0  0  0  0  0  0
   51.1930   31.6500   41.8160 C   0  0  0  0  0  0  0  0  0  0  0  0
   50.1460   30.6130   42.0940 C   0  0  0  0  0  0  0  0  0  0  0  0
   48.7870   31.1470   41.7590 C   0  0  0  0  0  0  0  0  0  0  0  0
   48.8010   32.3180   40.8740 C   0  0  2  0  0  0  0  0  0  0  0  0
   50.4270   32.9800   43.2450 H   0  0  0  0  0  0  0  0  0  0  0  0
   51.4780   33.7750   42.0650 H   0  0  0  0  0  0  0  0  0  0  0  0
   51.9990   31.4520   42.6070 H   0  0  0  0  0  0  0  0  0  0  0  0
   51.7330   31.5110   40.8880 H   0  0  0  0  0  0  0  0  0  0  0  0
   50.1350   30.4150   43.1910 H   0  0  0  0  0  0  0  0  0  0  0  0
   50.3840   29.6290   41.6370 H   0  0  0  0  0  0  0  0  0  0  0  0
   48.2550   30.2800   41.3360 H   0  0  0  0  0  0  0  0  0  0  0  0
   48.1890   31.4080   42.6830 H   0  0  0  0  0  0  0  0  0  0  0  0
   47.7490   32.7680   40.9660 H   0  0  0  0  0  0  0  0  0  0  0  0
   48.9620   32.1290   39.4270 C   0  0  0  0  0  0  0  0  0  0  0  0
   50.0950   31.7460   38.7350 C   0  0  0  0  0  0  0  0  0  0  0  0
   50.9890   31.5590   39.3100 H   0  0  0  0  0  0  0  0  0  0  0  0
   50.2210   31.5940   37.3940 C   0  0  0  0  0  3  0  0  0  0  0  0
   49.1450   31.8330   36.5980 C   0  0  0  0  0  3  0  0  0  0  0  0
   47.9610   32.2220   37.1890 C   0  0  0  0  0  0  0  0  0  0  0  0
   46.9070   32.4520   36.3310 C   0  0  0  0  0  3  0  0  0  0  0  0
   45.6950   32.8460   36.8470 C   0  0  0  0  0  3  0  0  0  0  0  0
   45.5560   33.0030   38.2100 C   0  0  0  0  0  3  0  0  0  0  0  0
   46.6520   32.7570   39.0090 C   0  0  0  0  0  3  0  0  0  0  0  0
   47.8900   32.3610   38.5590 C   0  0  0  0  0  0  0  0  0  0  0  0
   47.3610   34.7200   41.9430 C   0  0  1  0  0  0  0  0  0  0  0  0
   48.4460   35.6470   41.7080 C   0  0  0  0  0  0  0  0  0  0  0  0
   48.7860   34.3060   42.2820 C   0  0  2  0  0  0  0  0  0  0  0  0
   46.9340   34.1020   41.1400 H   0  0  0  0  0  0  0  0  0  0  0  0
   48.7130   35.8500   40.6360 H   0  0  0  0  0  0  0  0  0  0  0  0
   48.5700   36.5610   42.3320 H   0  0  0  0  0  0  0  0  0  0  0  0
   49.0980   34.3300   43.3420 H   0  0  0  0  0  0  0  0  0  0  0  0
   45.5720   36.0360   43.1350 C   0  0  0  0  0  0  0  0  0  0  0  0
   46.4060   34.8980   43.0780 C   0  0  0  0  0  0  0  0  0  0  0  0
   46.3070   33.9740   44.1000 C   0  0  0  0  0  0  0  0  0  0  0  0
   45.4080   34.2240   45.0930 N   0  0  0  0  0  0  0  0  0  0  0  0
   44.6220   35.3150   45.1240 C   0  0  0  0  0  0  0  0  0  0  0  0
   44.6940   36.2360   44.1460 N   0  0  0  0  0  0  0  0  0  0  0  0
   45.6570   36.7590   42.3270 H   0  0  0  0  0  0  0  0  0  0  0  0
   46.9130   33.0940   44.1100 H   0  0  0  0  0  0  0  0  0  0  0  0
   43.9200   35.4740   45.9340 H   0  0  0  0  0  0  0  0  0  0  0  0
  1  2  1  1  0  0  0
  1 29  1  0  0  0  0
  2  7  1  0  0  0  0
  3  4  1  0  0  0  0
  3  2  1  0  0  0  0
  3  9  1  0  0  0  0
  4 11  1  0  0  0  0
  5  4  1  0  0  0  0
  5 14  1  0  0  0  0
  6 15  1  1  0  0  0
  6  1  1  0  0  0  0
  6  5  1  0  0  0  0
  8  2  1  0  0  0  0
 10  3  1  0  0  0  0
 12  4  1  0  0  0  0
 13  5  1  0  0  0  0
 16  6  1  0  0  0  0
 17 18  1  0  0  0  0
 17 16  1  0  0  0  0
 19 17  2  0  0  0  0
 20 21  2  0  0  0  0
 20 19  1  0  0  0  0
 21 26  1  0  0  0  0
 22 23  2  0  0  0  0
 22 21  1  0  0  0  0
 23 24  1  0  0  0  0
 24 25  2  0  0  0  0
 26 25  1  0  0  0  0
 26 16  2  0  0  0  0
 27 30  1  6  0  0  0
 27 29  1  0  0  0  0
 27 35  1  0  0  0  0
 28 27  1  0  0  0  0
 28 29  1  0  0  0  0
 28 32  1  0  0  0  0
 29 33  1  1  0  0  0
 31 28  1  0  0  0  0
 34 39  1  0  0  0  0
 35 34  2  0  0  0  0
 35 36  1  0  0  0  0
 36 41  1  0  0  0  0
 36 37  2  0  0  0  0
 37 38  1  0  0  0  0
 38 42  1  0  0  0  0
 39 38  2  0  0  0  0
 40 34  1  0  0  0  0
M  END
>  <minimizedAffinity>
-5.75625181

>  <minimizedRMSD>
2.79909682

$$$$
