
 OpenBabel03242514503D

 46 50  0  0  1  0  0  0  0  0999 V2000
   46.0340   35.1200   42.1520 C   0  0  0  0  0  0  0  0  0  0  0  0
   46.8780   35.0840   41.4920 H   0  0  0  0  0  0  0  0  0  0  0  0
   45.9790   36.2050   42.4800 H   0  0  0  0  0  0  0  0  0  0  0  0
   45.5910   32.7660   40.5700 F   0  0  0  0  0  0  0  0  0  0  0  0
   44.6400   33.6820   40.6880 C   0  0  0  0  0  0  0  0  0  0  0  0
   44.7770   34.8210   41.4380 C   0  0  0  0  0  0  0  0  0  0  0  0
   43.7310   35.7230   41.5390 C   0  0  0  0  0  0  0  0  0  0  0  0
   42.5750   35.4110   40.8580 C   0  0  0  0  0  0  0  0  0  0  0  0
   42.3660   34.2800   40.0810 C   0  0  0  0  0  0  0  0  0  0  0  0
   43.4440   33.3900   40.0000 C   0  0  0  0  0  0  0  0  0  0  0  0
   43.8100   36.6210   42.1170 H   0  0  0  0  0  0  0  0  0  0  0  0
   41.7240   36.0810   40.9040 H   0  0  0  0  0  0  0  0  0  0  0  0
   41.4470   34.0890   39.5720 H   0  0  0  0  0  0  0  0  0  0  0  0
   43.2900   32.1800   39.1970 C   0  0  0  0  0  0  0  0  0  0  0  0
   42.4880   31.1430   39.6570 C   0  0  0  0  0  0  0  0  0  0  0  0
   41.9710   31.2030   40.5970 H   0  0  0  0  0  0  0  0  0  0  0  0
   42.3330   29.9830   38.9000 C   0  0  0  0  0  0  0  0  0  0  0  0
   42.9920   29.8710   37.6730 C   0  0  0  0  0  0  0  0  0  0  0  0
   43.7940   30.8990   37.2020 C   0  0  0  0  0  0  0  0  0  0  0  0
   44.4340   30.7740   35.9960 C   0  0  0  0  0  0  0  0  0  0  0  0
   45.2270   31.8390   35.5740 C   0  0  0  0  0  0  0  0  0  0  0  0
   45.3970   33.0010   36.3080 C   0  0  0  0  0  0  0  0  0  0  0  0
   44.7300   33.0830   37.5230 C   0  0  0  0  0  0  0  0  0  0  0  0
   43.9360   32.0390   37.9650 C   0  0  0  0  0  0  0  0  0  0  0  0
   46.1570   34.3880   43.4390 C   0  0  0  0  0  0  0  0  0  0  0  0
   47.1320   33.4070   43.5200 C   0  0  0  0  0  0  0  0  0  0  0  0
   47.2460   32.7310   44.7510 C   0  0  0  0  0  0  0  0  0  0  0  0
   46.4160   33.0660   45.7720 N   0  0  0  0  0  0  0  0  0  0  0  0
   45.4900   34.0260   45.6360 C   0  0  0  0  0  0  0  0  0  0  0  0
   45.3720   34.6660   44.4880 N   0  0  0  0  0  0  0  0  0  0  0  0
   47.9940   31.9450   44.8840 H   0  0  0  0  0  0  0  0  0  0  0  0
   44.8950   34.1960   46.5230 H   0  0  0  0  0  0  0  0  0  0  0  0
   49.2080   33.9770   42.2620 C   0  0  2  0  0  0  0  0  0  0  0  0
   48.0010   33.0030   42.3820 C   0  0  1  0  0  0  0  0  0  0  0  0
   48.4580   31.7440   42.4000 O   0  0  0  0  0  0  0  0  0  0  0  0
   49.8120   31.7210   42.6020 C   0  0  0  0  0  0  0  0  0  0  0  0
   50.3020   32.9470   41.8910 C   0  0  1  0  0  0  0  0  0  0  0  0
   49.1900   34.6560   41.4250 H   0  0  0  0  0  0  0  0  0  0  0  0
   47.6820   33.2130   41.4030 H   0  0  0  0  0  0  0  0  0  0  0  0
   50.2510   30.7910   42.1530 H   0  0  0  0  0  0  0  0  0  0  0  0
   50.1380   31.7340   43.6500 H   0  0  0  0  0  0  0  0  0  0  0  0
   51.2690   33.2800   42.2700 H   0  0  0  0  0  0  0  0  0  0  0  0
   49.5320   34.6240   43.3840 O   0  0  0  0  0  0  0  0  0  0  0  0
   50.4810   34.5600   43.6170 H   0  0  0  0  0  0  0  0  0  0  0  0
   50.2840   32.6560   40.5460 O   0  0  0  0  0  0  0  0  0  0  0  0
   49.5710   32.0390   40.3030 H   0  0  0  0  0  0  0  0  0  0  0  0
  1  3  1  0  0  0  0
  1 25  1  0  0  0  0
  2  1  1  0  0  0  0
  4  5  1  0  0  0  0
  5  6  1  0  0  0  0
  6  7  2  0  0  0  0
  6  1  1  0  0  0  0
  7 11  1  0  0  0  0
  8 12  1  0  0  0  0
  8  7  1  0  0  0  0
  9  8  2  0  0  0  0
 10  9  1  0  0  0  0
 10  5  2  0  0  0  0
 13  9  1  0  0  0  0
 14 15  1  0  0  0  0
 14 10  1  0  0  0  0
 15 16  1  0  0  0  0
 17 15  2  0  0  0  0
 18 17  1  0  0  0  0
 19 18  2  0  0  0  0
 19 24  1  0  0  0  0
 20 19  1  0  0  0  0
 21 20  2  0  0  0  0
 21 22  1  0  0  0  0
 22 23  2  0  0  0  0
 23 24  1  0  0  0  0
 24 14  2  0  0  0  0
 25 26  2  0  0  0  0
 25 30  1  0  0  0  0
 26 27  1  0  0  0  0
 27 31  1  0  0  0  0
 27 28  2  0  0  0  0
 29 28  1  0  0  0  0
 29 32  1  0  0  0  0
 30 29  2  0  0  0  0
 33 38  1  6  0  0  0
 33 34  1  0  0  0  0
 33 43  1  0  0  0  0
 34 39  1  6  0  0  0
 34 35  1  0  0  0  0
 34 26  1  0  0  0  0
 35 36  1  0  0  0  0
 36 41  1  0  0  0  0
 37 33  1  0  0  0  0
 37 42  1  1  0  0  0
 37 36  1  0  0  0  0
 40 36  1  0  0  0  0
 43 44  1  0  0  0  0
 45 37  1  0  0  0  0
 46 45  1  0  0  0  0
M  END
>  <minimizedAffinity>
-6.35602331

>  <minimizedRMSD>
0.7370978

$$$$
