REMARK  Name = 
REMARK  3 active torsions:
REMARK  status: ('A' for Active; 'I' for Inactive)
REMARK    1  A    between atoms: C_1  and  C_7
REMARK    2  A    between atoms: C_7  and  C_8
REMARK    3  A    between atoms: C_8  and  C_16
REMARK                            x       y       z     vdW  Elec       q    Type
REMARK                         _______ _______ _______ _____ _____    ______ ____
ROOT
ATOM      1  C   UNL     1      49.503  34.820  42.575  0.00  0.00    +0.000 C 
ATOM      2  H   UNL     1      49.551  35.448  43.484  0.00  0.00    +0.000 HD
ATOM      3  H   UNL     1      49.071  35.418  41.756  0.00  0.00    +0.000 HD
ENDROOT
BRANCH   1   4
ATOM      4  C   UNL     1      50.846  34.368  42.161  0.00  0.00    +0.000 A 
ATOM      5  C   UNL     1      51.939  35.187  42.058  0.00  0.00    +0.000 A 
ATOM      6  H   UNL     1      51.836  36.244  42.299  0.00  0.00    +0.000 HD
ATOM      7  C   UNL     1      53.180  34.724  41.657  0.00  0.00    +0.000 A 
ATOM      8  C   UNL     1      53.393  33.421  41.339  0.00  0.00    +0.000 A 
ATOM      9  C   UNL     1      52.293  32.583  41.440  0.00  0.00    +0.000 A 
ATOM     10  C   UNL     1      52.499  31.239  41.121  0.00  0.00    +0.000 A 
ATOM     11  C   UNL     1      51.473  30.320  41.193  0.00  0.00    +0.000 A 
ATOM     12  C   UNL     1      50.222  30.754  41.591  0.00  0.00    +0.000 A 
ATOM     13  C   UNL     1      50.074  32.091  41.895  0.00  0.00    +0.000 A 
ATOM     14  C   UNL     1      51.064  33.045  41.839  0.00  0.00    +0.000 A 
ENDBRANCH   1   4
BRANCH   1  15
ATOM     15  C   UNL     1      48.572  33.658  42.876  0.00  0.00    +0.000 C 
ATOM     16  H   UNL     1      48.972  32.910  43.541  0.00  0.00    +0.000 HD
ATOM     17  H   UNL     1      48.455  33.132  41.878  0.00  0.00    +0.000 HD
BRANCH  15  18
ATOM     18  C   UNL     1      47.270  34.199  43.286  0.00  0.00    +0.000 A 
ATOM     19  C   UNL     1      46.620  35.182  42.558  0.00  0.00    +0.000 A 
ATOM     20  C   UNL     1      45.369  35.637  43.038  0.00  0.00    +0.000 A 
ATOM     21  N   UNL     1      44.897  35.080  44.175  0.00  0.00    +0.000 NA
ATOM     22  C   UNL     1      45.563  34.129  44.847  0.00  0.00    +0.000 A 
ATOM     23  N   UNL     1      46.739  33.691  44.408  0.00  0.00    +0.000 NA
ATOM     24  H   UNL     1      47.040  35.595  41.655  0.00  0.00    +0.000 HD
ATOM     25  H   UNL     1      44.808  36.403  42.518  0.00  0.00    +0.000 HD
ATOM     26  H   UNL     1      45.161  33.687  45.773  0.00  0.00    +0.000 HD
ENDBRANCH  15  18
ENDBRANCH   1  15
TORSDOF 3
