
 OpenBabel03252503133D

 36 40  0  0  0  0  0  0  0  0999 V2000
   46.5070   34.7930   41.8940 C   0  0  0  0  0  0  0  0  0  0  0  0
   47.7160   35.1610   41.8420 O   0  0  0  0  0  0  0  0  0  0  0  0
   45.2290   36.1370   43.5020 C   0  0  0  0  0  0  0  0  0  0  0  0
   45.8720   34.9290   43.1610 C   0  0  0  0  0  0  0  0  0  0  0  0
   45.8210   33.9470   44.1300 C   0  0  0  0  0  0  0  0  0  0  0  0
   45.2010   34.1290   45.3150 N   0  0  0  0  0  0  0  0  0  0  0  0
   44.5950   35.3070   45.6020 C   0  0  0  0  0  0  0  0  0  0  0  0
   44.6110   36.3060   44.6950 N   0  0  0  0  0  0  0  0  0  0  0  0
   45.2190   36.9710   42.7980 H   0  0  0  0  0  0  0  0  0  0  0  0
   44.0990   35.4530   46.5480 H   0  0  0  0  0  0  0  0  0  0  0  0
   46.4420   32.7140   43.8740 C   0  0  0  0  0  0  0  0  0  0  0  0
   47.7000   32.2170   44.0450 C   0  0  0  0  0  0  0  0  0  0  0  0
   48.0600   30.9880   43.7250 C   0  0  0  0  0  0  0  0  0  0  0  0
   47.0760   30.2030   43.1930 C   0  0  0  0  0  0  0  0  0  0  0  0
   45.5980   31.3140   43.1720 S   0  0  0  0  0  0  0  0  0  0  0  0
   48.4180   32.9410   44.4840 H   0  0  0  0  0  0  0  0  0  0  0  0
   49.0330   30.5330   43.8340 H   0  0  0  0  0  0  0  0  0  0  0  0
   47.0880   29.1480   42.8390 H   0  0  0  0  0  0  0  0  0  0  0  0
   45.7470   34.2440   40.7340 C   0  0  0  0  0  0  0  0  0  0  0  0
   44.3990   34.3240   40.5140 C   0  0  0  0  0  0  0  0  0  0  0  0
   44.1780   33.6890   39.3530 N   0  0  0  0  0  0  0  0  0  0  0  0
   45.3500   33.2230   38.8610 C   0  0  0  0  0  0  0  0  0  0  0  0
   46.2890   33.5760   39.7240 N   0  0  0  0  0  0  0  0  0  0  0  0
   43.7590   34.8260   41.2110 H   0  0  0  0  0  0  0  0  0  0  0  0
   43.2030   33.6470   39.0190 H   0  0  0  0  0  0  0  0  0  0  0  0
   45.3040   32.5030   37.5970 C   0  0  0  0  0  0  0  0  0  0  0  0
   44.2090   31.7620   37.2110 C   0  0  0  0  0  0  0  0  0  0  0  0
   43.3240   31.6760   37.8260 H   0  0  0  0  0  0  0  0  0  0  0  0
   44.1140   31.0640   36.0270 C   0  0  0  0  0  3  0  0  0  0  0  0
   45.1630   31.0800   35.1440 C   0  0  0  0  0  3  0  0  0  0  0  0
   46.2800   31.7970   35.4690 C   0  0  0  0  0  0  0  0  0  0  0  0
   47.3320   31.8110   34.5780 C   0  0  0  0  0  3  0  0  0  0  0  0
   48.4820   32.5120   34.8460 C   0  0  0  0  0  3  0  0  0  0  0  0
   48.5590   33.2140   36.0500 C   0  0  0  0  0  3  0  0  0  0  0  0
   47.4750   33.1600   36.8960 C   0  0  0  0  0  3  0  0  0  0  0  0
   46.3110   32.4710   36.6620 C   0  0  0  0  0  0  0  0  0  0  0  0
  1  4  1  0  0  0  0
  2  1  2  0  0  0  0
  3  8  1  0  0  0  0
  4  3  2  0  0  0  0
  4  5  1  0  0  0  0
  5  6  2  0  0  0  0
  6  7  1  0  0  0  0
  7 10  1  0  0  0  0
  8  7  2  0  0  0  0
  9  3  1  0  0  0  0
 11 12  2  0  0  0  0
 11  5  1  0  0  0  0
 12 16  1  0  0  0  0
 13 17  1  0  0  0  0
 13 12  1  0  0  0  0
 14 13  2  0  0  0  0
 15 14  1  0  0  0  0
 15 11  1  0  0  0  0
 18 14  1  0  0  0  0
 19  1  1  0  0  0  0
 20 19  2  0  0  0  0
 20 24  1  0  0  0  0
 21 20  1  0  0  0  0
 22 21  1  0  0  0  0
 22 23  2  0  0  0  0
 23 19  1  0  0  0  0
 25 21  1  0  0  0  0
 26 22  1  0  0  0  0
 27 26  1  0  0  0  0
 27 28  1  0  0  0  0
 29 27  2  0  0  0  0
 30 31  2  0  0  0  0
 30 29  1  0  0  0  0
 31 36  1  0  0  0  0
 32 33  2  0  0  0  0
 32 31  1  0  0  0  0
 33 34  1  0  0  0  0
 34 35  2  0  0  0  0
 36 35  1  0  0  0  0
 36 26  2  0  0  0  0
M  END
>  <minimizedAffinity>
-5.71495628

>  <minimizedRMSD>
0.288957894

$$$$
