
     RDKit          3D

 35 38  0  0  0  0  0  0  0  0999 V2000
   44.6249   35.4736   45.1316 C   0  0  0  0  0  0  0  0  0  0  0  0
   45.1017   35.7094   43.8062 C   0  0  0  0  0  0  0  0  0  0  0  0
   46.0402   34.8218   43.3520 C   0  0  0  0  0  0  0  0  0  0  0  0
   46.4845   33.7742   44.1423 N   0  0  0  0  0  0  0  0  0  0  0  0
   46.0118   33.5884   45.3806 C   0  0  0  0  0  0  0  0  0  0  0  0
   45.0806   34.4360   45.8806 N   0  0  0  0  0  0  0  0  0  0  0  0
   46.5384   34.9760   41.9310 C   0  0  1  0  0  0  0  0  0  0  0  0
   48.0611   35.2780   41.9370 C   0  0  0  0  0  0  0  0  0  0  0  0
   47.3950   33.9753   41.4050 C   0  0  2  0  0  0  0  0  0  0  0  0
   44.6447   36.8083   43.0218 N   0  0  0  0  0  0  0  0  0  0  0  0
   43.8817   36.1962   45.4579 H   0  0  0  0  0  0  0  0  0  0  0  0
   46.3455   32.7779   46.0109 H   0  0  0  0  0  0  0  0  0  0  0  0
   45.9584   35.7202   41.3530 H   0  0  0  0  0  0  0  0  0  0  0  0
   48.6350   35.1321   42.8464 H   0  0  0  0  0  0  0  0  0  0  0  0
   48.4351   35.9806   41.1506 H   0  0  0  0  0  0  0  0  0  0  0  0
   47.5539   33.0486   42.0311 H   0  0  0  0  0  0  0  0  0  0  0  0
   43.6453   37.0827   42.7920 H   0  0  0  0  0  0  0  0  0  0  0  0
   45.3984   37.4338   42.6144 H   0  0  0  0  0  0  0  0  0  0  0  0
   47.5578   33.6597   39.9654 C   0  0  0  0  0  0  0  0  0  0  0  0
   46.5952   34.1593   39.1114 C   0  0  0  0  0  0  0  0  0  0  0  0
   45.7629   34.7541   39.4885 H   0  0  0  0  0  0  0  0  0  0  0  0
   46.7491   33.8634   37.7665 C   0  0  0  0  0  0  0  0  0  0  0  0
   47.7859   33.1229   37.3001 C   0  0  0  0  0  0  0  0  0  0  0  0
   48.7450   32.6274   38.1668 C   0  0  0  0  0  0  0  0  0  0  0  0
   49.8225   31.8645   37.7269 C   0  0  0  0  0  0  0  0  0  0  0  0
   50.7326   31.4112   38.6659 C   0  0  0  0  0  0  0  0  0  0  0  0
   50.6452   31.6625   39.9999 C   0  0  0  0  0  0  0  0  0  0  0  0
   49.5654   32.4255   40.4290 C   0  0  0  0  0  0  0  0  0  0  0  0
   48.6372   32.8945   39.5178 C   0  0  0  0  0  0  0  0  0  0  0  0
   46.0095   34.2422   37.0759 H   0  0  0  0  0  0  0  0  0  0  0  0
   47.8868   32.9037   36.2459 H   0  0  0  0  0  0  0  0  0  0  0  0
   49.9144   31.6502   36.6667 H   0  0  0  0  0  0  0  0  0  0  0  0
   51.5461   30.8249   38.2633 H   0  0  0  0  0  0  0  0  0  0  0  0
   51.3789   31.2885   40.6985 H   0  0  0  0  0  0  0  0  0  0  0  0
   49.4986   32.6244   41.4963 H   0  0  0  0  0  0  0  0  0  0  0  0
  1  6  2  0
  2  1  1  0
  3  2  2  0
  3  4  1  0
  4  5  2  0
  5  6  1  0
  7  3  1  0
  8  7  1  0
  9  8  1  0
  9  7  1  0
 10  2  1  0
  1 11  1  0
  5 12  1  0
  7 13  1  6
  8 14  1  0
  8 15  1  0
  9 16  1  1
 10 17  1  0
 10 18  1  0
 19 20  2  0
 20 21  1  0
 20 22  1  0
 22 23  2  0
 23 24  1  0
 24 25  2  0
 25 26  1  0
 26 27  2  0
 27 28  1  0
 28 29  2  0
 29 19  1  0
 29 24  1  0
 22 30  1  0
 23 31  1  0
 25 32  1  0
 26 33  1  0
 27 34  1  0
 28 35  1  0
  9 19  1  0
M  ISO  7  11  14  12  14  13  13  14  13  15  13  16  13  21  15
M  END
>  <DihAtoms>  (1) 
7,8,18,19

>  <DihDeg>  (1) 
-89.99731628290188

$$$$
