
 OpenBabel03252502093D

 50 55  0  0  0  0  0  0  0  0999 V2000
   45.6600   33.8400   45.4570 C   0  0  0  0  0  0  0  0  0  0  0  0
   44.7590   34.7510   45.8350 N   0  0  0  0  0  0  0  0  0  0  0  0
   44.4110   35.8200   45.1290 C   0  0  0  0  0  0  0  0  0  0  0  0
   44.9830   36.0500   43.9280 N   0  0  0  0  0  0  0  0  0  0  0  0
   45.9050   35.2100   43.4320 C   0  0  0  0  0  0  0  0  0  0  0  0
   46.5130   35.4370   42.2060 C   0  0  0  0  0  0  0  0  0  0  0  0
   47.4590   34.5990   41.7050 C   0  0  0  0  0  0  0  0  0  0  0  0
   47.7940   33.5070   42.4620 C   0  0  0  0  0  0  0  0  0  0  0  0
   47.1600   33.3120   43.6870 C   0  0  0  0  0  0  0  0  0  0  0  0
   46.2190   34.1220   44.2160 C   0  0  0  0  0  0  0  0  0  0  0  0
   43.6690   36.5280   45.4900 H   0  0  0  0  0  0  0  0  0  0  0  0
   46.2280   36.3090   41.6260 H   0  0  0  0  0  0  0  0  0  0  0  0
   47.8970   34.8210   40.7530 H   0  0  0  0  0  0  0  0  0  0  0  0
   47.5660   32.0230   47.9420 C   0  0  0  0  0  0  0  0  0  0  0  0
   47.0780   30.7110   47.9310 C   0  0  0  0  0  0  0  0  0  0  0  0
   46.0530   30.4410   47.0610 C   0  0  0  0  0  0  0  0  0  0  0  0
   45.5760   31.4130   46.2750 N   0  0  0  0  0  0  0  0  0  0  0  0
   46.0270   32.6550   46.2690 C   0  0  0  0  0  0  0  0  0  0  0  0
   47.0320   32.9390   47.1220 N   0  0  0  0  0  0  0  0  0  0  0  0
   45.5040   29.1800   47.0190 N   0  0  0  0  0  0  0  0  0  0  0  0
   44.2860   28.8250   46.2370 C   0  0  0  0  0  0  0  0  0  0  0  0
   44.2090   27.3260   46.2530 C   0  0  0  0  0  0  0  0  0  0  0  0
   44.9040   26.9710   47.5310 C   0  0  0  0  0  0  0  0  0  0  0  0
   45.9630   28.0070   47.6930 C   0  0  0  0  0  0  0  0  0  0  0  0
   48.3790   32.2830   48.6220 H   0  0  0  0  0  0  0  0  0  0  0  0
   43.4020   29.3300   46.6270 H   0  0  0  0  0  0  0  0  0  0  0  0
   44.5420   29.1290   45.1910 H   0  0  0  0  0  0  0  0  0  0  0  0
   43.1480   26.9800   46.3010 H   0  0  0  0  0  0  0  0  0  0  0  0
   44.7550   26.8460   45.4280 H   0  0  0  0  0  0  0  0  0  0  0  0
   45.3000   25.9340   47.5610 H   0  0  0  0  0  0  0  0  0  0  0  0
   44.1330   27.0050   48.3290 H   0  0  0  0  0  0  0  0  0  0  0  0
   45.9630   28.2020   48.8090 H   0  0  0  0  0  0  0  0  0  0  0  0
   46.9020   27.5860   47.3300 H   0  0  0  0  0  0  0  0  0  0  0  0
   47.6940   29.7910   48.7280 N   0  0  0  0  0  0  0  0  0  0  0  0
   48.3930   29.0450   48.5170 H   0  0  0  0  0  0  0  0  0  0  0  0
   47.2900   29.9970   49.6880 H   0  0  0  0  0  0  0  0  0  0  0  0
   48.8140   32.6230   41.9010 C   0  0  0  0  0  0  0  0  0  0  0  0
   50.1620   32.8980   42.1500 C   0  0  0  0  0  0  0  0  0  0  0  0
   50.4690   33.7560   42.7550 H   0  0  0  0  0  0  0  0  0  0  0  0
   51.1390   32.0730   41.6280 C   0  0  0  0  0  3  0  0  0  0  0  0
   50.8530   30.9770   40.8610 C   0  0  0  0  0  3  0  0  0  0  0  0
   49.5230   30.7180   40.6240 C   0  0  0  0  0  0  0  0  0  0  0  0
   49.1740   29.6280   39.8590 C   0  0  0  0  0  3  0  0  0  0  0  0
   47.8550   29.3310   39.5950 C   0  0  0  0  0  3  0  0  0  0  0  0
   46.8440   30.1200   40.0910 C   0  0  0  0  0  3  0  0  0  0  0  0
   47.2010   31.2200   40.8640 C   0  0  0  0  0  3  0  0  0  0  0  0
   48.5110   31.5140   41.1240 C   0  0  0  0  0  0  0  0  0  0  0  0
   47.6280   32.1080   44.3070 N   0  0  0  0  0  0  0  0  0  0  0  0
   48.3620   31.8650   44.9850 H   0  0  0  0  0  0  0  0  0  0  0  0
   47.0040   31.3620   43.8940 H   0  0  0  0  0  0  0  0  0  0  0  0
  1  2  1  0  0  0  0
  1 18  1  0  0  0  0
  3 11  1  0  0  0  0
  3  2  2  0  0  0  0
  4  3  1  0  0  0  0
  5  4  2  0  0  0  0
  5 10  1  0  0  0  0
  6  5  1  0  0  0  0
  7  6  2  0  0  0  0
  7  8  1  0  0  0  0
  8  9  2  0  0  0  0
  9 10  1  0  0  0  0
  9 48  1  0  0  0  0
 10  1  2  0  0  0  0
 12  6  1  0  0  0  0
 13  7  1  0  0  0  0
 14 25  1  0  0  0  0
 15 14  1  0  0  0  0
 15 34  1  0  0  0  0
 16 15  2  0  0  0  0
 17 16  1  0  0  0  0
 18 17  2  0  0  0  0
 18 19  1  0  0  0  0
 19 14  2  0  0  0  0
 20 16  1  0  0  0  0
 20 24  1  0  0  0  0
 21 22  1  0  0  0  0
 21 26  1  0  0  0  0
 21 20  1  0  0  0  0
 22 28  1  0  0  0  0
 22 23  1  0  0  0  0
 23 30  1  0  0  0  0
 23 24  1  0  0  0  0
 23 31  1  0  0  0  0
 24 32  1  0  0  0  0
 27 21  1  0  0  0  0
 29 22  1  0  0  0  0
 33 24  1  0  0  0  0
 34 36  1  0  0  0  0
 35 34  1  0  0  0  0
 37 38  1  0  0  0  0
 37  8  1  0  0  0  0
 38 39  1  0  0  0  0
 40 38  2  0  0  0  0
 41 40  1  0  0  0  0
 42 41  2  0  0  0  0
 42 47  1  0  0  0  0
 43 42  1  0  0  0  0
 44 43  2  0  0  0  0
 44 45  1  0  0  0  0
 45 46  2  0  0  0  0
 46 47  1  0  0  0  0
 47 37  2  0  0  0  0
 48 49  1  0  0  0  0
 50 48  1  0  0  0  0
M  END
>  <minimizedAffinity>
-7.32357359

>  <minimizedRMSD>
1.56940734

$$$$
