
 OpenBabel03242515233D

 23 25  0  0  0  0  0  0  0  0999 V2000
   43.9940   35.6860   41.5240 C   0  0  0  0  0  0  0  0  0  0  0  0
   44.8240   35.4600   40.7950 H   0  0  0  0  0  0  0  0  0  0  0  0
   43.9270   36.7610   41.5920 H   0  0  0  0  0  0  0  0  0  0  0  0
   42.7120   35.0930   41.1310 C   0  0  0  0  0  0  0  0  0  0  0  0
   41.5250   35.4060   41.7630 C   0  0  0  0  0  0  0  0  0  0  0  0
   41.5220   36.1440   42.5770 H   0  0  0  0  0  0  0  0  0  0  0  0
   40.2960   34.8400   41.4310 C   0  0  0  0  0  3  0  0  0  0  0  0
   40.2500   33.8970   40.3960 C   0  0  0  0  0  3  0  0  0  0  0  0
   41.4050   33.5480   39.7310 C   0  0  0  0  0  0  0  0  0  0  0  0
   41.3580   32.6190   38.6940 C   0  0  0  0  0  3  0  0  0  0  0  0
   42.5360   32.3190   38.0630 C   0  0  0  0  0  3  0  0  0  0  0  0
   43.7680   32.8720   38.3800 C   0  0  0  0  0  3  0  0  0  0  0  0
   43.7580   33.7970   39.4250 C   0  0  0  0  0  3  0  0  0  0  0  0
   42.5960   34.1550   40.1180 C   0  0  0  0  0  0  0  0  0  0  0  0
   44.3900   35.9200   43.9080 C   0  0  0  0  0  0  0  0  0  0  0  0
   44.4550   35.0530   42.7950 C   0  0  0  0  0  0  0  0  0  0  0  0
   44.9190   33.7710   42.9890 C   0  0  0  0  0  0  0  0  0  0  0  0
   45.2820   33.4280   44.2380 N   0  0  0  0  0  0  0  0  0  0  0  0
   45.2200   34.2500   45.2940 C   0  0  0  0  0  0  0  0  0  0  0  0
   44.7670   35.5260   45.1450 N   0  0  0  0  0  0  0  0  0  0  0  0
   44.0310   36.9530   43.8270 H   0  0  0  0  0  0  0  0  0  0  0  0
   44.9430   33.1610   42.1070 H   0  0  0  0  0  0  0  0  0  0  0  0
   45.5180   33.9520   46.2900 H   0  0  0  0  0  0  0  0  0  0  0  0
  1  3  1  0  0  0  0
  1 16  1  0  0  0  0
  2  1  1  0  0  0  0
  4  1  1  0  0  0  0
  4  5  1  0  0  0  0
  5  6  1  0  0  0  0
  7  5  2  0  0  0  0
  8  7  1  0  0  0  0
  9 14  1  0  0  0  0
  9  8  2  0  0  0  0
 10  9  1  0  0  0  0
 11 12  1  0  0  0  0
 11 10  2  0  0  0  0
 12 13  2  0  0  0  0
 13 14  1  0  0  0  0
 14  4  2  0  0  0  0
 15 20  1  0  0  0  0
 16 17  1  0  0  0  0
 16 15  2  0  0  0  0
 17 18  2  0  0  0  0
 18 19  1  0  0  0  0
 19 23  1  0  0  0  0
 20 19  2  0  0  0  0
 21 15  1  0  0  0  0
 22 17  1  0  0  0  0
M  END
>  <minimizedAffinity>
-4.83918762

>  <minimizedRMSD>
1.03178525

$$$$
