
 OpenBabel03252507273D

 29 32  0  0  0  0  0  0  0  0999 V2000
   45.9370   33.0820   45.2270 C   0  0  0  0  0  0  0  0  0  0  0  0
   45.1020   34.0810   45.7320 C   0  0  0  0  0  0  0  0  0  0  0  0
   44.9320   35.2400   44.9780 C   0  0  0  0  0  0  0  0  0  0  0  0
   45.5900   35.3430   43.7780 N   0  0  0  0  0  0  0  0  0  0  0  0
   46.3770   34.3730   43.3210 C   0  0  0  0  0  0  0  0  0  0  0  0
   46.5320   33.2770   44.0450 N   0  0  0  0  0  0  0  0  0  0  0  0
   44.5490   34.0160   46.6280 H   0  0  0  0  0  0  0  0  0  0  0  0
   44.2980   36.0280   45.3420 H   0  0  0  0  0  0  0  0  0  0  0  0
   46.1880   31.7810   45.8130 C   0  0  0  0  0  0  0  0  0  0  0  0
   45.6720   30.6590   45.1490 C   0  0  0  0  0  0  0  0  0  0  0  0
   45.0940   30.7820   44.2330 H   0  0  0  0  0  0  0  0  0  0  0  0
   45.8310   29.3560   45.5600 C   0  0  0  0  0  3  0  0  0  0  0  0
   46.5450   29.0910   46.7050 C   0  0  0  0  0  3  0  0  0  0  0  0
   47.0790   30.1390   47.4000 C   0  0  0  0  0  0  0  0  0  0  0  0
   47.8330   29.9170   48.5310 C   0  0  0  0  0  3  0  0  0  0  0  0
   48.4400   30.9430   49.2630 C   0  0  0  0  0  3  0  0  0  0  0  0
   48.2220   32.2310   48.7570 C   0  0  0  0  0  3  0  0  0  0  0  0
   47.4750   32.4230   47.6420 C   0  0  0  0  0  3  0  0  0  0  0  0
   46.8820   31.4120   46.9320 C   0  0  0  0  0  0  0  0  0  0  0  0
   47.0590   34.5200   42.0360 C   0  0  0  0  0  0  0  0  0  0  0  0
   48.1390   35.3550   41.9270 C   0  0  0  0  0  0  0  0  0  0  0  0
   48.8500   35.5650   40.7580 C   0  0  0  0  0  0  0  0  0  0  0  0
   48.3760   34.8460   39.6680 C   0  0  0  0  0  0  0  0  0  0  0  0
   47.2820   33.9970   39.7650 C   0  0  0  0  0  0  0  0  0  0  0  0
   46.6410   33.8500   40.9580 N   0  0  0  0  0  0  0  0  0  0  0  0
   48.4610   35.8910   42.8260 H   0  0  0  0  0  0  0  0  0  0  0  0
   49.6990   36.2170   40.6570 H   0  0  0  0  0  0  0  0  0  0  0  0
   48.8730   34.9480   38.7030 H   0  0  0  0  0  0  0  0  0  0  0  0
   46.9730   33.4700   38.8660 H   0  0  0  0  0  0  0  0  0  0  0  0
  1  2  1  0  0  0  0
  1  9  1  0  0  0  0
  2  7  1  0  0  0  0
  3  8  1  0  0  0  0
  3  2  2  0  0  0  0
  4  3  1  0  0  0  0
  5  4  2  0  0  0  0
  5  6  1  0  0  0  0
  6  1  2  0  0  0  0
  9 19  1  0  0  0  0
 10 12  1  0  0  0  0
 10  9  2  0  0  0  0
 11 10  1  0  0  0  0
 12 13  2  0  0  0  0
 13 14  1  0  0  0  0
 14 15  1  0  0  0  0
 15 16  2  0  0  0  0
 17 16  1  0  0  0  0
 18 17  2  0  0  0  0
 19 14  2  0  0  0  0
 19 18  1  0  0  0  0
 20  5  1  0  0  0  0
 21 20  1  0  0  0  0
 21 26  1  0  0  0  0
 22 21  2  0  0  0  0
 23 24  2  0  0  0  0
 23 22  1  0  0  0  0
 24 25  1  0  0  0  0
 25 20  2  0  0  0  0
 27 22  1  0  0  0  0
 28 23  1  0  0  0  0
 29 24  1  0  0  0  0
M  END
>  <minimizedAffinity>
-5.8054328

>  <minimizedRMSD>
1.34287524

$$$$
