
 OpenBabel03252503063D

 22 24  0  0  0  0  0  0  0  0999 V2000
   45.8420   35.8610   43.0510 C   0  0  0  0  0  0  0  0  0  0  0  0
   46.3440   34.5620   43.2290 C   0  0  0  0  0  0  0  0  0  0  0  0
   45.9050   33.8040   44.3080 C   0  0  0  0  0  0  0  0  0  0  0  0
   44.9900   34.3760   45.1540 N   0  0  0  0  0  0  0  0  0  0  0  0
   44.5180   35.6290   44.9670 C   0  0  0  0  0  0  0  0  0  0  0  0
   44.9490   36.3630   43.9160 N   0  0  0  0  0  0  0  0  0  0  0  0
   46.1670   36.4650   42.2250 H   0  0  0  0  0  0  0  0  0  0  0  0
   43.7970   36.0040   45.6840 H   0  0  0  0  0  0  0  0  0  0  0  0
   46.4150   32.4610   44.5140 C   0  0  0  0  0  0  0  0  0  0  0  0
   46.4690   31.5050   43.5250 C   0  0  0  0  0  0  0  0  0  0  0  0
   46.1140   31.7410   42.5290 H   0  0  0  0  0  0  0  0  0  0  0  0
   46.9410   30.2160   43.6690 C   0  0  0  0  0  0  0  0  0  0  0  0
   47.4050   29.8430   44.9190 C   0  0  0  0  0  0  0  0  0  0  0  0
   47.3860   30.7400   45.9690 C   0  0  0  0  0  0  0  0  0  0  0  0
   47.8590   30.2970   47.1660 C   0  0  0  0  0  0  0  0  0  0  0  0
   47.8590   31.1660   48.2490 C   0  0  0  0  0  0  0  0  0  0  0  0
   47.3760   32.4490   48.0560 C   0  0  0  0  0  0  0  0  0  0  0  0
   46.9020   32.8660   46.8220 C   0  0  0  0  0  0  0  0  0  0  0  0
   46.8980   32.0150   45.7490 C   0  0  0  0  0  0  0  0  0  0  0  0
   47.3030   34.0470   42.2910 C   0  0  0  0  0  0  0  0  0  0  0  0
   47.6430   34.7670   41.3310 O   0  0  0  0  0  0  0  0  0  0  0  0
   47.6570   33.0420   42.5110 H   0  0  0  0  0  0  0  0  0  0  0  0
  1  2  2  0  0  0  0
  1  6  1  0  0  0  0
  2  3  1  0  0  0  0
  3  9  1  0  0  0  0
  3  4  2  0  0  0  0
  5  4  1  0  0  0  0
  5  8  1  0  0  0  0
  6  5  2  0  0  0  0
  7  1  1  0  0  0  0
  9 19  1  0  0  0  0
 10 12  1  0  0  0  0
 10  9  2  0  0  0  0
 11 10  1  0  0  0  0
 12 13  2  0  0  0  0
 13 14  1  0  0  0  0
 14 15  1  0  0  0  0
 15 16  2  0  0  0  0
 17 16  1  0  0  0  0
 18 17  2  0  0  0  0
 19 14  2  0  0  0  0
 19 18  1  0  0  0  0
 20 22  1  0  0  0  0
 20  2  1  0  0  0  0
 21 20  2  0  0  0  0
M  END
>  <minimizedAffinity>
-4.71635914

>  <minimizedRMSD>
1.28244102

$$$$
