REMARK  Name = 
REMARK  4 active torsions:
REMARK  status: ('A' for Active; 'I' for Inactive)
REMARK    1  A    between atoms: C_2  and  N_12
REMARK    2  A    between atoms: C_11  and  S_13
REMARK    3  A    between atoms: S_13  and  C_16
REMARK    4  A    between atoms: N_19  and  C_36
REMARK                            x       y       z     vdW  Elec       q    Type
REMARK                         _______ _______ _______ _____ _____    ______ ____
ROOT
ATOM      1  C   UNL     1      44.505  35.535  45.114  0.00  0.00    +0.000 A 
ATOM      2  C   UNL     1      45.166  35.507  43.878  0.00  0.00    +0.000 A 
ATOM      3  C   UNL     1      46.086  34.544  43.641  0.00  0.00    +0.000 A 
ATOM      4  N   UNL     1      46.315  33.649  44.635  0.00  0.00    +0.000 NA
ATOM      5  C   UNL     1      45.688  33.679  45.801  0.00  0.00    +0.000 A 
ATOM      6  N   UNL     1      44.777  34.616  46.062  0.00  0.00    +0.000 NA
ATOM      7  N   UNL     1      46.012  32.681  46.785  0.00  0.00    +0.000 N 
ATOM      8  C   UNL     1      45.265  32.450  47.970  0.00  0.00    +0.000 C 
ATOM      9  C   UNL     1      46.337  32.119  48.993  0.00  0.00    +0.000 C 
ATOM     10  C   UNL     1      47.621  32.004  48.232  0.00  0.00    +0.000 C 
ATOM     11  C   UNL     1      47.132  31.770  46.804  0.00  0.00    +0.000 C 
ATOM     12  H   UNL     1      43.756  36.281  45.368  0.00  0.00    +0.000 HD
ATOM     13  H   UNL     1      46.596  34.508  42.710  0.00  0.00    +0.000 HD
ATOM     14  H   UNL     1      44.908  33.476  48.312  0.00  0.00    +0.000 HD
ATOM     15  H   UNL     1      44.429  31.831  48.051  0.00  0.00    +0.000 HD
ATOM     16  H   UNL     1      46.358  32.767  49.865  0.00  0.00    +0.000 HD
ATOM     17  H   UNL     1      46.094  31.093  49.380  0.00  0.00    +0.000 HD
ATOM     18  H   UNL     1      48.258  31.166  48.580  0.00  0.00    +0.000 HD
ATOM     19  H   UNL     1      48.148  32.981  48.254  0.00  0.00    +0.000 HD
ATOM     20  H   UNL     1      47.941  32.047  46.105  0.00  0.00    +0.000 HD
ENDROOT
BRANCH   2  21
ATOM     21  N   UNL     1      44.808  36.529  42.932  0.00  0.00    +0.000 N 
ATOM     22  H   UNL     1      44.011  36.109  42.410  0.00  0.00    +0.000 HD
ATOM     23  H   UNL     1      45.300  37.452  42.863  0.00  0.00    +0.000 HD
ENDBRANCH   2  21
BRANCH  11  24
ATOM     24  S   UNL     1      46.620  30.075  46.641  0.00  0.00    +0.000 S 
BRANCH  24  27
ATOM     25  O   UNL     1      45.616  30.510  43.489  0.00  0.00    +0.000 OA
ATOM     26  C   UNL     1      44.983  29.986  44.419  0.00  0.00    +0.000 C 
ATOM     27  C   UNL     1      45.076  29.782  45.885  0.00  0.00    +0.000 C 
ATOM     28  C   UNL     1      44.532  28.383  46.040  0.00  0.00    +0.000 C 
ATOM     29  C   UNL     1      43.220  28.586  45.273  0.00  0.00    +0.000 C 
ATOM     30  N   UNL     1      43.737  29.325  44.128  0.00  0.00    +0.000 N 
ATOM     31  H   UNL     1      44.192  30.394  46.218  0.00  0.00    +0.000 HD
ATOM     32  H   UNL     1      44.289  28.171  47.095  0.00  0.00    +0.000 HD
ATOM     33  H   UNL     1      45.136  27.618  45.550  0.00  0.00    +0.000 HD
ATOM     34  H   UNL     1      42.489  29.142  45.868  0.00  0.00    +0.000 HD
ATOM     35  H   UNL     1      42.870  27.574  44.975  0.00  0.00    +0.000 HD
BRANCH  30  36
ATOM     36  C   UNL     1      42.958  29.290  42.916  0.00  0.00    +0.000 A 
ATOM     37  C   UNL     1      43.727  29.068  41.779  0.00  0.00    +0.000 A 
ATOM     38  H   UNL     1      44.798  28.933  41.771  0.00  0.00    +0.000 HD
ATOM     39  C   UNL     1      43.148  29.001  40.511  0.00  0.00    +0.000 A 
ATOM     40  C   UNL     1      41.773  29.166  40.442  0.00  0.00    +0.000 A 
ATOM     41  C   UNL     1      41.018  29.385  41.566  0.00  0.00    +0.000 A 
ATOM     42  C   UNL     1      39.642  29.553  41.532  0.00  0.00    +0.000 A 
ATOM     43  C   UNL     1      38.935  29.768  42.678  0.00  0.00    +0.000 A 
ATOM     44  C   UNL     1      39.543  29.830  43.933  0.00  0.00    +0.000 A 
ATOM     45  C   UNL     1      40.925  29.664  44.000  0.00  0.00    +0.000 A 
ATOM     46  C   UNL     1      41.597  29.451  42.835  0.00  0.00    +0.000 A 
ENDBRANCH  30  36
ENDBRANCH  24  27
ENDBRANCH  11  24
TORSDOF 4
