
 OpenBabel03242523483D

 21 23  0  0  0  0  0  0  0  0999 V2000
   37.4380   26.6300   40.8900 C   0  0  0  0  0  0  0  0  0  0  0  0
   36.7080   25.6070   40.2970 C   0  0  0  0  0  0  0  0  0  0  0  0
   35.9210   25.8320   39.5710 H   0  0  0  0  0  0  0  0  0  0  0  0
   36.8770   24.2640   40.5360 C   0  0  0  0  0  3  0  0  0  0  0  0
   37.8420   23.8760   41.4350 C   0  0  0  0  0  3  0  0  0  0  0  0
   38.5990   24.8180   42.0620 C   0  0  0  0  0  0  0  0  0  0  0  0
   39.5260   24.4260   42.9740 C   0  0  0  0  0  3  0  0  0  0  0  0
   40.3040   25.3500   43.6750 C   0  0  0  0  0  3  0  0  0  0  0  0
   40.0650   26.6950   43.3790 C   0  0  0  0  0  3  0  0  0  0  0  0
   39.1280   27.0380   42.4600 C   0  0  0  0  0  3  0  0  0  0  0  0
   38.3650   26.1360   41.7670 C   0  0  0  0  0  0  0  0  0  0  0  0
   36.2610   30.2520   40.6910 C   0  0  0  0  0  0  0  0  0  0  0  0
   36.4200   28.9670   41.2040 C   0  0  0  0  0  0  0  0  0  0  0  0
   37.1050   27.9750   40.5180 C   0  0  0  0  0  0  0  0  0  0  0  0
   37.5970   28.3790   39.3230 N   0  0  0  0  0  0  0  0  0  0  0  0
   37.4560   29.6060   38.8180 C   0  0  0  0  0  0  0  0  0  0  0  0
   36.7910   30.5240   39.5070 N   0  0  0  0  0  0  0  0  0  0  0  0
   36.0360   28.7860   42.1600 H   0  0  0  0  0  0  0  0  0  0  0  0
   37.8840   29.8540   37.8460 H   0  0  0  0  0  0  0  0  0  0  0  0
   35.5730   31.1600   41.4310 O   0  0  0  0  0  0  0  0  0  0  0  0
   35.5940   31.2170   42.4460 H   0  0  0  0  0  0  0  0  0  0  0  0
  1 11  1  0  0  0  0
  2  4  1  0  0  0  0
  2  1  2  0  0  0  0
  3  2  1  0  0  0  0
  4  5  2  0  0  0  0
  5  6  1  0  0  0  0
  6  7  1  0  0  0  0
  7  8  2  0  0  0  0
  9  8  1  0  0  0  0
 10  9  2  0  0  0  0
 11  6  2  0  0  0  0
 11 10  1  0  0  0  0
 12 13  1  0  0  0  0
 12 20  1  0  0  0  0
 13 18  1  0  0  0  0
 14  1  1  0  0  0  0
 14 13  2  0  0  0  0
 15 14  1  0  0  0  0
 16 15  2  0  0  0  0
 16 17  1  0  0  0  0
 17 12  2  0  0  0  0
 19 16  1  0  0  0  0
 20 21  1  0  0  0  0
M  END
>  <minimizedAffinity>
-5.73054123

$$$$

 OpenBabel03242523483D

 21 23  0  0  0  0  0  0  0  0999 V2000
   38.5710   27.3860   42.1020 C   0  0  0  0  0  0  0  0  0  0  0  0
   39.5420   27.3660   43.0970 C   0  0  0  0  0  0  0  0  0  0  0  0
   39.9610   28.2990   43.4850 H   0  0  0  0  0  0  0  0  0  0  0  0
   40.0630   26.2360   43.6800 C   0  0  0  0  0  3  0  0  0  0  0  0
   39.6020   25.0100   43.2590 C   0  0  0  0  0  3  0  0  0  0  0  0
   38.6520   24.9440   42.2860 C   0  0  0  0  0  0  0  0  0  0  0  0
   38.2280   23.7280   41.8530 C   0  0  0  0  0  3  0  0  0  0  0  0
   37.2840   23.6000   40.8320 C   0  0  0  0  0  3  0  0  0  0  0  0
   36.8100   24.7970   40.2880 C   0  0  0  0  0  3  0  0  0  0  0  0
   37.2630   25.9870   40.7530 C   0  0  0  0  0  3  0  0  0  0  0  0
   38.1860   26.1190   41.7570 C   0  0  0  0  0  0  0  0  0  0  0  0
   36.7850   30.6430   41.2400 C   0  0  0  0  0  0  0  0  0  0  0  0
   36.9620   29.3550   41.7360 C   0  0  0  0  0  0  0  0  0  0  0  0
   38.1620   28.6710   41.6110 C   0  0  0  0  0  0  0  0  0  0  0  0
   39.1260   29.3740   40.9710 N   0  0  0  0  0  0  0  0  0  0  0  0
   38.9740   30.6090   40.4910 C   0  0  0  0  0  0  0  0  0  0  0  0
   37.8080   31.2270   40.6320 N   0  0  0  0  0  0  0  0  0  0  0  0
   36.1590   28.9300   42.2550 H   0  0  0  0  0  0  0  0  0  0  0  0
   39.8010   31.1110   39.9870 H   0  0  0  0  0  0  0  0  0  0  0  0
   35.5740   31.2360   41.4070 O   0  0  0  0  0  0  0  0  0  0  0  0
   34.9770   31.1190   42.2220 H   0  0  0  0  0  0  0  0  0  0  0  0
  1  2  1  0  0  0  0
  2  3  1  0  0  0  0
  2  4  2  0  0  0  0
  5  4  1  0  0  0  0
  6  5  2  0  0  0  0
  7  6  1  0  0  0  0
  8  7  2  0  0  0  0
  9 10  2  0  0  0  0
  9  8  1  0  0  0  0
 10 11  1  0  0  0  0
 11  1  2  0  0  0  0
 11  6  1  0  0  0  0
 12 20  1  0  0  0  0
 12 13  1  0  0  0  0
 13 18  1  0  0  0  0
 14 13  2  0  0  0  0
 14  1  1  0  0  0  0
 15 14  1  0  0  0  0
 16 17  1  0  0  0  0
 16 15  2  0  0  0  0
 17 12  2  0  0  0  0
 19 16  1  0  0  0  0
 20 21  1  0  0  0  0
M  END
>  <minimizedAffinity>
-5.72112131

$$$$

 OpenBabel03242523483D

 21 23  0  0  0  0  0  0  0  0999 V2000
   39.6550   30.0390   41.9800 C   0  0  0  0  0  0  0  0  0  0  0  0
   40.9710   29.7950   42.3560 C   0  0  0  0  0  0  0  0  0  0  0  0
   41.7570   30.5250   42.1410 H   0  0  0  0  0  0  0  0  0  0  0  0
   41.4190   28.6700   43.0060 C   0  0  0  0  0  3  0  0  0  0  0  0
   40.5080   27.6890   43.3200 C   0  0  0  0  0  3  0  0  0  0  0  0
   39.1990   27.8500   42.9830 C   0  0  0  0  0  0  0  0  0  0  0  0
   38.3130   26.8610   43.2670 C   0  0  0  0  0  3  0  0  0  0  0  0
   36.9650   26.9570   42.9120 C   0  0  0  0  0  3  0  0  0  0  0  0
   36.5930   28.1290   42.2470 C   0  0  0  0  0  3  0  0  0  0  0  0
   37.5140   29.0900   41.9860 C   0  0  0  0  0  3  0  0  0  0  0  0
   38.8350   29.0030   42.3360 C   0  0  0  0  0  0  0  0  0  0  0  0
   38.1350   33.1040   40.2950 C   0  0  0  0  0  0  0  0  0  0  0  0
   38.1920   31.8450   40.8880 C   0  0  0  0  0  0  0  0  0  0  0  0
   39.3860   31.2720   41.2970 C   0  0  0  0  0  0  0  0  0  0  0  0
   40.4710   32.0490   41.0680 N   0  0  0  0  0  0  0  0  0  0  0  0
   40.4340   33.2580   40.5030 C   0  0  0  0  0  0  0  0  0  0  0  0
   39.2690   33.7680   40.1250 N   0  0  0  0  0  0  0  0  0  0  0  0
   37.2810   31.3580   41.0570 H   0  0  0  0  0  0  0  0  0  0  0  0
   41.3540   33.8240   40.3520 H   0  0  0  0  0  0  0  0  0  0  0  0
   36.9200   33.5860   39.9240 O   0  0  0  0  0  0  0  0  0  0  0  0
   36.0530   33.4280   40.4310 H   0  0  0  0  0  0  0  0  0  0  0  0
  1 11  2  0  0  0  0
  1  2  1  0  0  0  0
  2  4  2  0  0  0  0
  3  2  1  0  0  0  0
  4  5  1  0  0  0  0
  6  7  1  0  0  0  0
  6  5  2  0  0  0  0
  8  7  2  0  0  0  0
  9  8  1  0  0  0  0
 10  9  2  0  0  0  0
 10 11  1  0  0  0  0
 11  6  1  0  0  0  0
 12 13  1  0  0  0  0
 13 18  1  0  0  0  0
 13 14  2  0  0  0  0
 14  1  1  0  0  0  0
 15 14  1  0  0  0  0
 16 15  2  0  0  0  0
 17 12  2  0  0  0  0
 17 16  1  0  0  0  0
 19 16  1  0  0  0  0
 20 12  1  0  0  0  0
 20 21  1  0  0  0  0
M  END
>  <minimizedAffinity>
-5.7127924

$$$$

 OpenBabel03242523483D

 21 23  0  0  0  0  0  0  0  0999 V2000
   37.7420   29.3120   41.6660 C   0  0  0  0  0  0  0  0  0  0  0  0
   37.7040   29.1250   43.0430 C   0  0  0  0  0  0  0  0  0  0  0  0
   37.9030   29.9580   43.7240 H   0  0  0  0  0  0  0  0  0  0  0  0
   37.4280   27.9390   43.6790 C   0  0  0  0  0  3  0  0  0  0  0  0
   37.1660   26.8290   42.9110 C   0  0  0  0  0  3  0  0  0  0  0  0
   37.1860   26.9280   41.5540 C   0  0  0  0  0  0  0  0  0  0  0  0
   36.9590   25.8190   40.8030 C   0  0  0  0  0  3  0  0  0  0  0  0
   37.0050   25.8530   39.4070 C   0  0  0  0  0  3  0  0  0  0  0  0
   37.2990   27.0960   38.8390 C   0  0  0  0  0  3  0  0  0  0  0  0
   37.5180   28.1760   39.6300 C   0  0  0  0  0  3  0  0  0  0  0  0
   37.4700   28.1480   40.9980 C   0  0  0  0  0  0  0  0  0  0  0  0
   37.7540   32.8770   40.3140 C   0  0  0  0  0  0  0  0  0  0  0  0
   37.2570   31.6220   40.6530 C   0  0  0  0  0  0  0  0  0  0  0  0
   38.0600   30.6280   41.1900 C   0  0  0  0  0  0  0  0  0  0  0  0
   39.3530   30.9980   41.3520 N   0  0  0  0  0  0  0  0  0  0  0  0
   39.8440   32.1980   41.0350 C   0  0  0  0  0  0  0  0  0  0  0  0
   39.0400   33.1190   40.5210 N   0  0  0  0  0  0  0  0  0  0  0  0
   36.2300   31.4670   40.5270 H   0  0  0  0  0  0  0  0  0  0  0  0
   40.9000   32.4210   41.1960 H   0  0  0  0  0  0  0  0  0  0  0  0
   36.8940   33.7900   39.7900 O   0  0  0  0  0  0  0  0  0  0  0  0
   35.9190   33.8900   40.0600 H   0  0  0  0  0  0  0  0  0  0  0  0
  1  2  1  0  0  0  0
  2  4  2  0  0  0  0
  2  3  1  0  0  0  0
  5  4  1  0  0  0  0
  6  5  2  0  0  0  0
  7  6  1  0  0  0  0
  8  7  2  0  0  0  0
  9  8  1  0  0  0  0
  9 10  2  0  0  0  0
 10 11  1  0  0  0  0
 11  6  1  0  0  0  0
 11  1  2  0  0  0  0
 12 17  2  0  0  0  0
 12 13  1  0  0  0  0
 13 14  2  0  0  0  0
 14 15  1  0  0  0  0
 14  1  1  0  0  0  0
 16 19  1  0  0  0  0
 16 15  2  0  0  0  0
 17 16  1  0  0  0  0
 18 13  1  0  0  0  0
 20 21  1  0  0  0  0
 20 12  1  0  0  0  0
M  END
>  <minimizedAffinity>
-5.66905165

$$$$

 OpenBabel03242523483D

 21 23  0  0  0  0  0  0  0  0999 V2000
   37.7080   29.1670   41.4450 C   0  0  0  0  0  0  0  0  0  0  0  0
   36.5870   28.4550   41.8560 C   0  0  0  0  0  0  0  0  0  0  0  0
   35.5990   28.6870   41.4490 H   0  0  0  0  0  0  0  0  0  0  0  0
   36.5860   27.4290   42.7710 C   0  0  0  0  0  3  0  0  0  0  0  0
   37.7810   27.0600   43.3430 C   0  0  0  0  0  3  0  0  0  0  0  0
   38.9250   27.7110   42.9960 C   0  0  0  0  0  0  0  0  0  0  0  0
   40.0940   27.3620   43.5910 C   0  0  0  0  0  3  0  0  0  0  0  0
   41.2920   28.0200   43.3010 C   0  0  0  0  0  3  0  0  0  0  0  0
   41.2060   29.0550   42.3660 C   0  0  0  0  0  3  0  0  0  0  0  0
   40.0150   29.3670   41.7980 C   0  0  0  0  0  3  0  0  0  0  0  0
   38.8390   28.7230   42.0750 C   0  0  0  0  0  0  0  0  0  0  0  0
   37.1710   32.4460   39.5740 C   0  0  0  0  0  0  0  0  0  0  0  0
   37.2700   31.5700   40.6520 C   0  0  0  0  0  0  0  0  0  0  0  0
   37.5050   30.2140   40.4850 C   0  0  0  0  0  0  0  0  0  0  0  0
   37.6290   29.8370   39.1900 N   0  0  0  0  0  0  0  0  0  0  0  0
   37.5380   30.6630   38.1470 C   0  0  0  0  0  0  0  0  0  0  0  0
   37.3100   31.9540   38.3520 N   0  0  0  0  0  0  0  0  0  0  0  0
   37.2040   31.9860   41.6100 H   0  0  0  0  0  0  0  0  0  0  0  0
   37.6500   30.2820   37.1310 H   0  0  0  0  0  0  0  0  0  0  0  0
   36.9370   33.7590   39.8320 O   0  0  0  0  0  0  0  0  0  0  0  0
   37.3070   34.2700   40.6300 H   0  0  0  0  0  0  0  0  0  0  0  0
  1  2  2  0  0  0  0
  1 11  1  0  0  0  0
  2  4  1  0  0  0  0
  3  2  1  0  0  0  0
  4  5  2  0  0  0  0
  6  5  1  0  0  0  0
  6  7  1  0  0  0  0
  8  7  2  0  0  0  0
  9  8  1  0  0  0  0
 10 11  1  0  0  0  0
 10  9  2  0  0  0  0
 11  6  2  0  0  0  0
 12 20  1  0  0  0  0
 12 13  1  0  0  0  0
 13 18  1  0  0  0  0
 14 13  2  0  0  0  0
 14  1  1  0  0  0  0
 15 14  1  0  0  0  0
 16 17  1  0  0  0  0
 16 15  2  0  0  0  0
 17 12  2  0  0  0  0
 19 16  1  0  0  0  0
 20 21  1  0  0  0  0
M  END
>  <minimizedAffinity>
-5.63358831

$$$$

 OpenBabel03242523483D

 21 23  0  0  0  0  0  0  0  0999 V2000
   37.0930   26.4900   40.9270 C   0  0  0  0  0  0  0  0  0  0  0  0
   37.5290   25.7790   42.0390 C   0  0  0  0  0  0  0  0  0  0  0  0
   37.9390   26.3000   42.9080 H   0  0  0  0  0  0  0  0  0  0  0  0
   37.5000   24.4110   42.1720 C   0  0  0  0  0  3  0  0  0  0  0  0
   37.0030   23.6620   41.1310 C   0  0  0  0  0  3  0  0  0  0  0  0
   36.5580   24.2830   40.0050 C   0  0  0  0  0  0  0  0  0  0  0  0
   36.1020   23.5330   38.9690 C   0  0  0  0  0  3  0  0  0  0  0  0
   35.6680   24.1140   37.7750 C   0  0  0  0  0  3  0  0  0  0  0  0
   35.7360   25.5090   37.7180 C   0  0  0  0  0  3  0  0  0  0  0  0
   36.2000   26.2160   38.7790 C   0  0  0  0  0  3  0  0  0  0  0  0
   36.6230   25.6510   39.9530 C   0  0  0  0  0  0  0  0  0  0  0  0
   36.6010   30.2580   41.2450 C   0  0  0  0  0  0  0  0  0  0  0  0
   36.2640   28.9100   41.1600 C   0  0  0  0  0  0  0  0  0  0  0  0
   37.2160   27.9190   40.9720 C   0  0  0  0  0  0  0  0  0  0  0  0
   38.4830   28.3880   40.8860 N   0  0  0  0  0  0  0  0  0  0  0  0
   38.8230   29.6760   40.9670 C   0  0  0  0  0  0  0  0  0  0  0  0
   37.8800   30.5920   41.1450 N   0  0  0  0  0  0  0  0  0  0  0  0
   35.2560   28.6630   41.2890 H   0  0  0  0  0  0  0  0  0  0  0  0
   39.8690   29.9750   40.8880 H   0  0  0  0  0  0  0  0  0  0  0  0
   35.6020   31.1600   41.4280 O   0  0  0  0  0  0  0  0  0  0  0  0
   34.7690   31.0000   41.9890 H   0  0  0  0  0  0  0  0  0  0  0  0
  1 14  1  0  0  0  0
  1  2  1  0  0  0  0
  2  4  2  0  0  0  0
  2  3  1  0  0  0  0
  5  4  1  0  0  0  0
  6  5  2  0  0  0  0
  7  6  1  0  0  0  0
  8  7  2  0  0  0  0
  9  8  1  0  0  0  0
  9 10  2  0  0  0  0
 10 11  1  0  0  0  0
 11  6  1  0  0  0  0
 11  1  2  0  0  0  0
 12 20  1  0  0  0  0
 13 12  1  0  0  0  0
 13 18  1  0  0  0  0
 14 13  2  0  0  0  0
 15 16  2  0  0  0  0
 15 14  1  0  0  0  0
 16 17  1  0  0  0  0
 17 12  2  0  0  0  0
 19 16  1  0  0  0  0
 20 21  1  0  0  0  0
M  END
>  <minimizedAffinity>
-5.43725348

$$$$

 OpenBabel03242523483D

 21 23  0  0  0  0  0  0  0  0999 V2000
   37.5230   30.7100   40.3110 C   0  0  0  0  0  0  0  0  0  0  0  0
   36.4820   30.5800   39.3990 C   0  0  0  0  0  0  0  0  0  0  0  0
   36.3930   31.2670   38.5530 H   0  0  0  0  0  0  0  0  0  0  0  0
   35.4950   29.6240   39.4470 C   0  0  0  0  0  3  0  0  0  0  0  0
   35.5180   28.7110   40.4760 C   0  0  0  0  0  3  0  0  0  0  0  0
   36.5030   28.7730   41.4120 C   0  0  0  0  0  0  0  0  0  0  0  0
   36.4970   27.8890   42.4430 C   0  0  0  0  0  3  0  0  0  0  0  0
   37.4620   27.9290   43.4530 C   0  0  0  0  0  3  0  0  0  0  0  0
   38.4250   28.9350   43.3330 C   0  0  0  0  0  3  0  0  0  0  0  0
   38.3900   29.7960   42.2860 C   0  0  0  0  0  3  0  0  0  0  0  0
   37.4490   29.7580   41.2910 C   0  0  0  0  0  0  0  0  0  0  0  0
   40.3930   32.9930   39.2640 C   0  0  0  0  0  0  0  0  0  0  0  0
   39.6650   31.8170   39.4250 C   0  0  0  0  0  0  0  0  0  0  0  0
   38.4520   31.7830   40.0970 C   0  0  0  0  0  0  0  0  0  0  0  0
   38.0550   32.9880   40.5680 N   0  0  0  0  0  0  0  0  0  0  0  0
   38.7400   34.1240   40.4220 C   0  0  0  0  0  0  0  0  0  0  0  0
   39.8970   34.1120   39.7730 N   0  0  0  0  0  0  0  0  0  0  0  0
   40.0490   30.9550   38.9750 H   0  0  0  0  0  0  0  0  0  0  0  0
   38.3520   35.0580   40.8310 H   0  0  0  0  0  0  0  0  0  0  0  0
   41.5730   32.9320   38.5940 O   0  0  0  0  0  0  0  0  0  0  0  0
   41.7590   32.3260   37.7980 H   0  0  0  0  0  0  0  0  0  0  0  0
  1 11  1  0  0  0  0
  2  4  1  0  0  0  0
  2  1  2  0  0  0  0
  3  2  1  0  0  0  0
  4  5  2  0  0  0  0
  5  6  1  0  0  0  0
  6  7  1  0  0  0  0
  7  8  2  0  0  0  0
  9  8  1  0  0  0  0
 10  9  2  0  0  0  0
 11  6  2  0  0  0  0
 11 10  1  0  0  0  0
 12 13  2  0  0  0  0
 12 17  1  0  0  0  0
 13 14  1  0  0  0  0
 14  1  1  0  0  0  0
 14 15  2  0  0  0  0
 16 15  1  0  0  0  0
 16 19  1  0  0  0  0
 17 16  2  0  0  0  0
 18 13  1  0  0  0  0
 20 12  1  0  0  0  0
 21 20  1  0  0  0  0
M  END
>  <minimizedAffinity>
-5.41045856

$$$$

 OpenBabel03242523483D

 21 23  0  0  0  0  0  0  0  0999 V2000
   36.4430   30.2940   39.3680 C   0  0  0  0  0  0  0  0  0  0  0  0
   35.4950   29.7770   40.2440 C   0  0  0  0  0  0  0  0  0  0  0  0
   35.5860   29.9400   41.3210 H   0  0  0  0  0  0  0  0  0  0  0  0
   34.3920   29.0410   39.8820 C   0  0  0  0  0  3  0  0  0  0  0  0
   34.1880   28.7800   38.5470 C   0  0  0  0  0  3  0  0  0  0  0  0
   35.0730   29.2480   37.6250 C   0  0  0  0  0  0  0  0  0  0  0  0
   34.8820   28.9560   36.3130 C   0  0  0  0  0  3  0  0  0  0  0  0
   35.7770   29.3780   35.3270 C   0  0  0  0  0  3  0  0  0  0  0  0
   36.8760   30.1150   35.7790 C   0  0  0  0  0  3  0  0  0  0  0  0
   37.0240   30.3820   37.1000 C   0  0  0  0  0  3  0  0  0  0  0  0
   36.1470   29.9740   38.0700 C   0  0  0  0  0  0  0  0  0  0  0  0
   38.7680   32.8570   40.9690 C   0  0  0  0  0  0  0  0  0  0  0  0
   37.6230   32.3460   40.3640 C   0  0  0  0  0  0  0  0  0  0  0  0
   37.5340   31.0290   39.9400 C   0  0  0  0  0  0  0  0  0  0  0  0
   38.6540   30.3040   40.1740 N   0  0  0  0  0  0  0  0  0  0  0  0
   39.7580   30.7780   40.7540 C   0  0  0  0  0  0  0  0  0  0  0  0
   39.8010   32.0450   41.1420 N   0  0  0  0  0  0  0  0  0  0  0  0
   36.8020   32.9890   40.2790 H   0  0  0  0  0  0  0  0  0  0  0  0
   40.6210   30.1280   40.9080 H   0  0  0  0  0  0  0  0  0  0  0  0
   38.7660   34.1610   41.3500 O   0  0  0  0  0  0  0  0  0  0  0  0
   37.9580   34.6580   41.7160 H   0  0  0  0  0  0  0  0  0  0  0  0
  1 14  1  0  0  0  0
  1  2  1  0  0  0  0
  2  3  1  0  0  0  0
  4  2  2  0  0  0  0
  5  4  1  0  0  0  0
  6 11  1  0  0  0  0
  6  5  2  0  0  0  0
  7  6  1  0  0  0  0
  8  9  1  0  0  0  0
  8  7  2  0  0  0  0
  9 10  2  0  0  0  0
 10 11  1  0  0  0  0
 11  1  2  0  0  0  0
 12 17  1  0  0  0  0
 12 20  1  0  0  0  0
 13 12  2  0  0  0  0
 14 15  2  0  0  0  0
 14 13  1  0  0  0  0
 15 16  1  0  0  0  0
 16 19  1  0  0  0  0
 16 17  2  0  0  0  0
 18 13  1  0  0  0  0
 20 21  1  0  0  0  0
M  END
>  <minimizedAffinity>
-5.3979497

$$$$

 OpenBabel03242523483D

 21 23  0  0  0  0  0  0  0  0999 V2000
   37.7120   28.7410   41.0820 C   0  0  0  0  0  0  0  0  0  0  0  0
   37.8230   29.3480   42.3280 C   0  0  0  0  0  0  0  0  0  0  0  0
   38.0790   30.4080   42.4100 H   0  0  0  0  0  0  0  0  0  0  0  0
   37.6340   28.7250   43.5380 C   0  0  0  0  0  3  0  0  0  0  0  0
   37.3100   27.3880   43.5430 C   0  0  0  0  0  3  0  0  0  0  0  0
   37.1850   26.7200   42.3640 C   0  0  0  0  0  0  0  0  0  0  0  0
   36.8980   25.3930   42.3800 C   0  0  0  0  0  3  0  0  0  0  0  0
   36.7960   24.6480   41.2020 C   0  0  0  0  0  3  0  0  0  0  0  0
   37.0090   25.3550   40.0150 C   0  0  0  0  0  3  0  0  0  0  0  0
   37.2930   26.6810   40.0500 C   0  0  0  0  0  3  0  0  0  0  0  0
   37.3900   27.4160   41.2010 C   0  0  0  0  0  0  0  0  0  0  0  0
   39.0850   30.4760   37.9760 C   0  0  0  0  0  0  0  0  0  0  0  0
   39.0690   29.6630   39.1060 C   0  0  0  0  0  0  0  0  0  0  0  0
   37.9590   29.5590   39.9290 C   0  0  0  0  0  0  0  0  0  0  0  0
   36.9090   30.3130   39.5260 N   0  0  0  0  0  0  0  0  0  0  0  0
   36.9060   31.0960   38.4460 C   0  0  0  0  0  0  0  0  0  0  0  0
   37.9920   31.1680   37.6870 N   0  0  0  0  0  0  0  0  0  0  0  0
   39.9250   29.0890   39.2900 H   0  0  0  0  0  0  0  0  0  0  0  0
   36.0180   31.6750   38.1860 H   0  0  0  0  0  0  0  0  0  0  0  0
   40.2190   30.5180   37.2290 O   0  0  0  0  0  0  0  0  0  0  0  0
   40.8360   29.7270   37.0650 H   0  0  0  0  0  0  0  0  0  0  0  0
  1 11  2  0  0  0  0
  1  2  1  0  0  0  0
  2  3  1  0  0  0  0
  2  4  2  0  0  0  0
  4  5  1  0  0  0  0
  6  7  1  0  0  0  0
  6  5  2  0  0  0  0
  8  7  2  0  0  0  0
  9 10  2  0  0  0  0
  9  8  1  0  0  0  0
 10 11  1  0  0  0  0
 11  6  1  0  0  0  0
 12 13  1  0  0  0  0
 13 18  1  0  0  0  0
 13 14  2  0  0  0  0
 14  1  1  0  0  0  0
 15 14  1  0  0  0  0
 16 15  2  0  0  0  0
 17 12  2  0  0  0  0
 17 16  1  0  0  0  0
 19 16  1  0  0  0  0
 20 12  1  0  0  0  0
 21 20  1  0  0  0  0
M  END
>  <minimizedAffinity>
-5.2551589

$$$$
