
 OpenBabel03252508333D

 34 37  0  0  1  0  0  0  0  0999 V2000
   44.3020   34.4170   42.6220 N   0  0  0  0  0  0  0  0  0  0  0  0
   44.6860   34.2430   41.3000 C   0  0  1  0  0  0  0  0  0  0  0  0
   43.8840   34.9780   40.2760 C   0  0  0  0  0  0  0  0  0  0  0  0
   42.5060   35.0460   40.4970 N   0  0  0  0  0  0  0  0  0  0  0  0
   42.0600   35.0510   41.8320 C   0  0  0  0  0  0  0  0  0  0  0  0
   43.2050   35.3460   42.7960 C   0  0  0  0  0  0  0  0  0  0  0  0
   44.3830   33.1510   41.0880 H   0  0  0  0  0  0  0  0  0  0  0  0
   44.2590   36.0000   40.0660 H   0  0  0  0  0  0  0  0  0  0  0  0
   44.0480   34.4390   39.2950 H   0  0  0  0  0  0  0  0  0  0  0  0
   41.8850   34.5580   39.8360 H   0  0  0  0  0  0  0  0  0  0  0  0
   41.2440   35.7180   42.0910 H   0  0  0  0  0  0  0  0  0  0  0  0
   41.7340   34.0150   42.0940 H   0  0  0  0  0  0  0  0  0  0  0  0
   42.7660   35.3840   43.7840 H   0  0  0  0  0  0  0  0  0  0  0  0
   43.5330   36.3750   42.5270 H   0  0  0  0  0  0  0  0  0  0  0  0
   46.0870   34.2980   40.8500 C   0  0  0  0  0  0  0  0  0  0  0  0
   47.0020   35.1040   41.5690 C   0  0  0  0  0  0  0  0  0  0  0  0
   46.6320   35.6850   42.4280 H   0  0  0  0  0  0  0  0  0  0  0  0
   48.3270   35.2540   41.3220 C   0  0  0  0  0  3  0  0  0  0  0  0
   48.8720   34.5660   40.2680 C   0  0  0  0  0  3  0  0  0  0  0  0
   48.0810   33.7490   39.4940 C   0  0  0  0  0  0  0  0  0  0  0  0
   48.5710   33.0330   38.4230 C   0  0  0  0  0  3  0  0  0  0  0  0
   47.7750   32.2000   37.6290 C   0  0  0  0  0  3  0  0  0  0  0  0
   46.4200   32.1130   37.9650 C   0  0  0  0  0  3  0  0  0  0  0  0
   45.9790   32.8440   39.0410 C   0  0  0  0  0  3  0  0  0  0  0  0
   46.7540   33.6640   39.8240 C   0  0  0  0  0  0  0  0  0  0  0  0
   45.2400   34.3910   44.8230 C   0  0  0  0  0  0  0  0  0  0  0  0
   44.9230   33.7080   43.6610 C   0  0  0  0  0  0  0  0  0  0  0  0
   45.2300   32.3720   43.6110 C   0  0  0  0  0  0  0  0  0  0  0  0
   45.8160   31.7480   44.6460 N   0  0  0  0  0  0  0  0  0  0  0  0
   46.1160   32.4500   45.7790 C   0  0  0  0  0  0  0  0  0  0  0  0
   45.8330   33.7400   45.8600 N   0  0  0  0  0  0  0  0  0  0  0  0
   45.0870   35.4280   45.0710 H   0  0  0  0  0  0  0  0  0  0  0  0
   45.0410   31.7120   42.8100 H   0  0  0  0  0  0  0  0  0  0  0  0
   46.5960   31.9220   46.6190 H   0  0  0  0  0  0  0  0  0  0  0  0
  1  6  1  0  0  0  0
  1 27  1  0  0  0  0
  2  7  1  6  0  0  0
  2  1  1  0  0  0  0
  3  4  1  0  0  0  0
  3  2  1  0  0  0  0
  4  5  1  0  0  0  0
  5 11  1  0  0  0  0
  5 12  1  0  0  0  0
  5  6  1  0  0  0  0
  6 13  1  0  0  0  0
  8  3  1  0  0  0  0
  9  3  1  0  0  0  0
 10  4  1  0  0  0  0
 14  6  1  0  0  0  0
 15  2  1  0  0  0  0
 15 16  1  0  0  0  0
 16 17  1  0  0  0  0
 18 16  2  0  0  0  0
 19 18  1  0  0  0  0
 20 25  1  0  0  0  0
 20 19  2  0  0  0  0
 21 20  1  0  0  0  0
 22 23  1  0  0  0  0
 22 21  2  0  0  0  0
 23 24  2  0  0  0  0
 24 25  1  0  0  0  0
 25 15  2  0  0  0  0
 26 32  1  0  0  0  0
 26 31  1  0  0  0  0
 27 26  2  0  0  0  0
 28 27  1  0  0  0  0
 28 29  2  0  0  0  0
 29 30  1  0  0  0  0
 30 31  2  0  0  0  0
 30 34  1  0  0  0  0
 33 28  1  0  0  0  0
M  END
>  <minimizedAffinity>
-4.59713459

>  <minimizedRMSD>
1.97284091

$$$$
