
 OpenBabel03242517333D

 49 53  0  0  1  0  0  0  0  0999 V2000
   36.5820   30.9340   39.4340 C   0  0  0  0  0  0  0  0  0  0  0  0
   36.2870   31.2420   40.4540 H   0  0  0  0  0  0  0  0  0  0  0  0
   36.3290   31.7480   38.7390 H   0  0  0  0  0  0  0  0  0  0  0  0
   39.0670   27.2080   41.9710 C   0  0  0  0  0  0  0  0  0  0  0  0
   38.4140   27.2690   43.2340 C   0  0  0  0  0  0  0  0  0  0  0  0
   37.8420   28.4790   43.6250 C   0  0  0  0  0  0  0  0  0  0  0  0
   37.9400   29.5360   42.7780 N   0  0  0  0  0  0  0  0  0  0  0  0
   38.5500   29.4790   41.6000 C   0  0  0  0  0  0  0  0  0  0  0  0
   39.0970   28.3080   41.2340 N   0  0  0  0  0  0  0  0  0  0  0  0
   38.6040   30.6050   40.7960 N   0  0  0  0  0  0  0  0  0  0  0  0
   39.2070   31.8280   41.2830 C   0  0  0  0  0  0  0  0  0  0  0  0
   38.8530   33.0350   40.4690 C   0  0  0  0  0  0  0  0  0  0  0  0
   38.6250   32.8400   39.0860 N   0  0  0  0  0  0  0  0  0  0  0  0
   38.8900   31.5070   38.6440 C   0  0  0  0  0  0  0  0  0  0  0  0
   38.0430   30.5510   39.4290 C   0  0  2  0  0  0  0  0  0  0  0  0
   39.5020   26.2500   41.6980 H   0  0  0  0  0  0  0  0  0  0  0  0
   38.3290   26.4330   43.9190 H   0  0  0  0  0  0  0  0  0  0  0  0
   37.3290   28.6050   44.5650 H   0  0  0  0  0  0  0  0  0  0  0  0
   38.9230   31.9900   42.3430 H   0  0  0  0  0  0  0  0  0  0  0  0
   40.3210   31.7220   41.2210 H   0  0  0  0  0  0  0  0  0  0  0  0
   39.6130   33.8290   40.6580 H   0  0  0  0  0  0  0  0  0  0  0  0
   37.9040   33.4470   40.9180 H   0  0  0  0  0  0  0  0  0  0  0  0
   37.8390   33.3340   38.6530 H   0  0  0  0  0  0  0  0  0  0  0  0
   38.8700   31.4010   37.5650 H   0  0  0  0  0  0  0  0  0  0  0  0
   39.9540   31.2920   38.9650 H   0  0  0  0  0  0  0  0  0  0  0  0
   38.1880   29.5400   39.0380 H   0  0  0  0  0  0  0  0  0  0  0  0
   35.8320   29.6940   39.0130 C   0  0  0  0  0  3  0  0  0  0  0  0
   35.5910   29.4660   37.7240 C   0  0  0  0  0  3  0  0  0  0  0  0
   34.8660   28.2810   37.1910 C   0  0  0  0  0  0  0  0  0  0  0  0
   35.1130   28.2570   36.0930 H   0  0  0  0  0  0  0  0  0  0  0  0
   35.1830   27.3500   37.6770 H   0  0  0  0  0  0  0  0  0  0  0  0
   33.3780   28.5300   37.2890 C   0  0  2  0  0  0  0  0  0  0  0  0
   32.5080   27.9830   36.2020 C   0  0  0  0  0  0  0  0  0  0  0  0
   32.7280   29.4820   36.3760 C   0  0  1  0  0  0  0  0  0  0  0  0
   33.0000   28.3540   38.3230 H   0  0  0  0  0  0  0  0  0  0  0  0
   33.0340   27.4380   35.3940 H   0  0  0  0  0  0  0  0  0  0  0  0
   31.5330   27.5340   36.4490 H   0  0  0  0  0  0  0  0  0  0  0  0
   33.3330   29.9080   35.5580 H   0  0  0  0  0  0  0  0  0  0  0  0
   31.4760   30.1860   36.7690 C   0  0  0  0  0  0  0  0  0  0  0  0
   30.9690   30.0120   38.0430 C   0  0  0  0  0  0  0  0  0  0  0  0
   31.4380   29.3810   38.7910 H   0  0  0  0  0  0  0  0  0  0  0  0
   29.8080   30.6650   38.4060 C   0  0  0  0  0  3  0  0  0  0  0  0
   29.1150   31.5050   37.5300 C   0  0  0  0  0  3  0  0  0  0  0  0
   29.6280   31.6800   36.2400 C   0  0  0  0  0  0  0  0  0  0  0  0
   28.9700   32.5100   35.3300 C   0  0  0  0  0  3  0  0  0  0  0  0
   29.5210   32.6510   34.0590 C   0  0  0  0  0  3  0  0  0  0  0  0
   30.6800   32.0100   33.6710 C   0  0  0  0  0  3  0  0  0  0  0  0
   31.2640   31.2070   34.6400 C   0  0  0  0  0  3  0  0  0  0  0  0
   30.7810   31.0180   35.9150 C   0  0  0  0  0  0  0  0  0  0  0  0
  1  2  1  0  0  0  0
  3  1  1  0  0  0  0
  4  5  1  0  0  0  0
  5  6  2  0  0  0  0
  5 17  1  0  0  0  0
  6 18  1  0  0  0  0
  7  6  1  0  0  0  0
  8  7  2  0  0  0  0
  9  8  1  0  0  0  0
  9  4  2  0  0  0  0
 10 11  1  0  0  0  0
 10  8  1  0  0  0  0
 11 19  1  0  0  0  0
 12 21  1  0  0  0  0
 12 22  1  0  0  0  0
 12 11  1  0  0  0  0
 13 12  1  0  0  0  0
 14 25  1  0  0  0  0
 14 13  1  0  0  0  0
 14 15  1  0  0  0  0
 15 26  1  6  0  0  0
 15  1  1  0  0  0  0
 15 10  1  0  0  0  0
 16  4  1  0  0  0  0
 20 11  1  0  0  0  0
 23 13  1  0  0  0  0
 24 14  1  0  0  0  0
 27  1  1  0  0  0  0
 28 27  2  0  0  0  0
 29 32  1  0  0  0  0
 29 31  1  0  0  0  0
 29 28  1  0  0  0  0
 30 29  1  0  0  0  0
 32 35  1  1  0  0  0
 33 34  1  0  0  0  0
 33 37  1  0  0  0  0
 33 32  1  0  0  0  0
 34 38  1  6  0  0  0
 34 39  1  0  0  0  0
 34 32  1  0  0  0  0
 36 33  1  0  0  0  0
 39 40  1  0  0  0  0
 40 42  2  0  0  0  0
 40 41  1  0  0  0  0
 43 42  1  0  0  0  0
 44 43  2  0  0  0  0
 45 44  1  0  0  0  0
 46 45  2  0  0  0  0
 47 46  1  0  0  0  0
 47 48  2  0  0  0  0
 48 49  1  0  0  0  0
 49 44  1  0  0  0  0
 49 39  2  0  0  0  0
M  END
>  <minimizedAffinity>
-7.04869843

$$$$

 OpenBabel03242517333D

 49 53  0  0  1  0  0  0  0  0999 V2000
   36.4920   30.7450   38.9850 C   0  0  0  0  0  0  0  0  0  0  0  0
   36.0120   30.6600   39.9770 H   0  0  0  0  0  0  0  0  0  0  0  0
   36.2230   31.7200   38.5530 H   0  0  0  0  0  0  0  0  0  0  0  0
   39.1070   27.4500   41.9530 C   0  0  0  0  0  0  0  0  0  0  0  0
   38.3400   27.5080   43.1490 C   0  0  0  0  0  0  0  0  0  0  0  0
   37.6130   28.6690   43.4140 C   0  0  0  0  0  0  0  0  0  0  0  0
   37.6790   29.6830   42.5130 N   0  0  0  0  0  0  0  0  0  0  0  0
   38.3950   29.6290   41.3970 C   0  0  0  0  0  0  0  0  0  0  0  0
   39.0900   28.5060   41.1530 N   0  0  0  0  0  0  0  0  0  0  0  0
   38.4060   30.7090   40.5310 N   0  0  0  0  0  0  0  0  0  0  0  0
   38.8330   32.0150   40.9890 C   0  0  0  0  0  0  0  0  0  0  0  0
   38.4320   33.1310   40.0740 C   0  0  0  0  0  0  0  0  0  0  0  0
   38.3520   32.8390   38.6920 N   0  0  0  0  0  0  0  0  0  0  0  0
   38.7900   31.5200   38.3590 C   0  0  0  0  0  0  0  0  0  0  0  0
   37.9790   30.5220   39.1280 C   0  0  2  0  0  0  0  0  0  0  0  0
   39.6610   26.5310   41.7780 H   0  0  0  0  0  0  0  0  0  0  0  0
   38.2790   26.7060   43.8760 H   0  0  0  0  0  0  0  0  0  0  0  0
   37.0070   28.7900   44.2980 H   0  0  0  0  0  0  0  0  0  0  0  0
   38.4390   32.2020   42.0090 H   0  0  0  0  0  0  0  0  0  0  0  0
   39.9530   32.0270   41.0280 H   0  0  0  0  0  0  0  0  0  0  0  0
   39.0860   34.0110   40.2750 H   0  0  0  0  0  0  0  0  0  0  0  0
   37.4090   33.4620   40.4150 H   0  0  0  0  0  0  0  0  0  0  0  0
   37.5610   33.2210   38.1630 H   0  0  0  0  0  0  0  0  0  0  0  0
   38.8790   31.3550   37.2900 H   0  0  0  0  0  0  0  0  0  0  0  0
   39.8380   31.4390   38.7800 H   0  0  0  0  0  0  0  0  0  0  0  0
   38.2620   29.5130   38.8150 H   0  0  0  0  0  0  0  0  0  0  0  0
   36.0020   29.6590   38.0600 C   0  0  0  0  0  3  0  0  0  0  0  0
   34.8640   29.0210   38.3250 C   0  0  0  0  0  3  0  0  0  0  0  0
   34.2810   27.9380   37.4870 C   0  0  0  0  0  0  0  0  0  0  0  0
   35.0130   27.7950   36.6430 H   0  0  0  0  0  0  0  0  0  0  0  0
   34.1560   27.0030   38.0480 H   0  0  0  0  0  0  0  0  0  0  0  0
   32.9990   28.4370   36.8610 C   0  0  2  0  0  0  0  0  0  0  0  0
   32.6850   27.9890   35.4680 C   0  0  0  0  0  0  0  0  0  0  0  0
   33.0440   29.4370   35.7840 C   0  0  1  0  0  0  0  0  0  0  0  0
   32.1440   28.3790   37.5730 H   0  0  0  0  0  0  0  0  0  0  0  0
   33.4340   27.3250   34.9970 H   0  0  0  0  0  0  0  0  0  0  0  0
   31.6520   27.7230   35.1940 H   0  0  0  0  0  0  0  0  0  0  0  0
   34.0320   29.7150   35.3790 H   0  0  0  0  0  0  0  0  0  0  0  0
   31.9000   30.3590   35.5470 C   0  0  0  0  0  0  0  0  0  0  0  0
   31.7800   30.9950   34.3260 C   0  0  0  0  0  0  0  0  0  0  0  0
   32.4860   30.8610   33.5120 H   0  0  0  0  0  0  0  0  0  0  0  0
   30.7190   31.8500   34.1060 C   0  0  0  0  0  3  0  0  0  0  0  0
   29.7470   32.1030   35.0780 C   0  0  0  0  0  3  0  0  0  0  0  0
   29.8680   31.4590   36.3140 C   0  0  0  0  0  0  0  0  0  0  0  0
   28.9210   31.6810   37.3170 C   0  0  0  0  0  3  0  0  0  0  0  0
   29.0860   31.0170   38.5290 C   0  0  0  0  0  3  0  0  0  0  0  0
   30.1380   30.1570   38.7740 C   0  0  0  0  0  3  0  0  0  0  0  0
   31.0280   29.9980   37.7210 C   0  0  0  0  0  3  0  0  0  0  0  0
   30.9330   30.6180   36.4970 C   0  0  0  0  0  0  0  0  0  0  0  0
  1 15  1  0  0  0  0
  1  2  1  0  0  0  0
  3  1  1  0  0  0  0
  4  5  1  0  0  0  0
  5  6  2  0  0  0  0
  5 17  1  0  0  0  0
  6 18  1  0  0  0  0
  7  6  1  0  0  0  0
  8  7  2  0  0  0  0
  9  8  1  0  0  0  0
  9  4  2  0  0  0  0
 10 11  1  0  0  0  0
 10  8  1  0  0  0  0
 11 20  1  0  0  0  0
 11 19  1  0  0  0  0
 12 21  1  0  0  0  0
 12 22  1  0  0  0  0
 12 11  1  0  0  0  0
 13 12  1  0  0  0  0
 14 13  1  0  0  0  0
 14 25  1  0  0  0  0
 14 15  1  0  0  0  0
 15 26  1  6  0  0  0
 15 10  1  0  0  0  0
 16  4  1  0  0  0  0
 23 13  1  0  0  0  0
 24 14  1  0  0  0  0
 27 28  2  0  0  0  0
 27  1  1  0  0  0  0
 29 31  1  0  0  0  0
 29 28  1  0  0  0  0
 30 29  1  0  0  0  0
 32 29  1  0  0  0  0
 32 35  1  1  0  0  0
 33 34  1  0  0  0  0
 33 32  1  0  0  0  0
 34 38  1  6  0  0  0
 34 32  1  0  0  0  0
 36 33  1  0  0  0  0
 37 33  1  0  0  0  0
 39 34  1  0  0  0  0
 39 49  1  0  0  0  0
 40 39  2  0  0  0  0
 41 40  1  0  0  0  0
 42 40  1  0  0  0  0
 42 43  2  0  0  0  0
 43 44  1  0  0  0  0
 44 49  2  0  0  0  0
 44 45  1  0  0  0  0
 45 46  2  0  0  0  0
 46 47  1  0  0  0  0
 48 47  2  0  0  0  0
 49 48  1  0  0  0  0
M  END
>  <minimizedAffinity>
-7.0198741

$$$$

 OpenBabel03242517333D

 49 53  0  0  1  0  0  0  0  0999 V2000
   37.5540   29.9400   38.7820 C   0  0  0  0  0  0  0  0  0  0  0  0
   38.5330   30.3550   38.4790 H   0  0  0  0  0  0  0  0  0  0  0  0
   37.7010   28.8950   39.0900 H   0  0  0  0  0  0  0  0  0  0  0  0
   38.7630   34.7200   40.2630 C   0  0  0  0  0  0  0  0  0  0  0  0
   40.1820   34.6650   40.1950 C   0  0  0  0  0  0  0  0  0  0  0  0
   40.8050   33.4260   40.3490 C   0  0  0  0  0  0  0  0  0  0  0  0
   40.0200   32.3380   40.5570 N   0  0  0  0  0  0  0  0  0  0  0  0
   38.6950   32.3900   40.6200 C   0  0  0  0  0  0  0  0  0  0  0  0
   38.1070   33.5870   40.4700 N   0  0  0  0  0  0  0  0  0  0  0  0
   37.9690   31.2300   40.8360 N   0  0  0  0  0  0  0  0  0  0  0  0
   38.2030   30.4240   42.0150 C   0  0  0  0  0  0  0  0  0  0  0  0
   37.6350   29.0410   41.9170 C   0  0  0  0  0  0  0  0  0  0  0  0
   36.4590   28.8760   41.1480 N   0  0  0  0  0  0  0  0  0  0  0  0
   35.9120   30.1050   40.6670 C   0  0  0  0  0  0  0  0  0  0  0  0
   36.9470   30.8180   39.8500 C   0  0  2  0  0  0  0  0  0  0  0  0
   38.3110   35.7010   40.1380 H   0  0  0  0  0  0  0  0  0  0  0  0
   40.8200   35.5260   40.0300 H   0  0  0  0  0  0  0  0  0  0  0  0
   41.8750   33.3020   40.3100 H   0  0  0  0  0  0  0  0  0  0  0  0
   39.2900   30.3730   42.2250 H   0  0  0  0  0  0  0  0  0  0  0  0
   37.6900   30.9130   42.8850 H   0  0  0  0  0  0  0  0  0  0  0  0
   37.5200   28.6280   42.9460 H   0  0  0  0  0  0  0  0  0  0  0  0
   38.4420   28.4050   41.4510 H   0  0  0  0  0  0  0  0  0  0  0  0
   36.3950   28.0580   40.5330 H   0  0  0  0  0  0  0  0  0  0  0  0
   34.9310   29.9920   40.2180 H   0  0  0  0  0  0  0  0  0  0  0  0
   35.7670   30.7480   41.5880 H   0  0  0  0  0  0  0  0  0  0  0  0
   36.5030   31.7210   39.4190 H   0  0  0  0  0  0  0  0  0  0  0  0
   36.5830   29.9670   37.6280 C   0  0  0  0  0  3  0  0  0  0  0  0
   35.9990   28.8430   37.2220 C   0  0  0  0  0  3  0  0  0  0  0  0
   35.0250   28.7470   36.0990 C   0  0  0  0  0  0  0  0  0  0  0  0
   35.2440   29.6370   35.4460 H   0  0  0  0  0  0  0  0  0  0  0  0
   35.1410   27.8160   35.5310 H   0  0  0  0  0  0  0  0  0  0  0  0
   33.6280   28.9490   36.6420 C   0  0  2  0  0  0  0  0  0  0  0  0
   32.5560   28.0230   36.1610 C   0  0  0  0  0  0  0  0  0  0  0  0
   32.5740   29.5000   35.7790 C   0  0  1  0  0  0  0  0  0  0  0  0
   33.6370   29.1210   37.7430 H   0  0  0  0  0  0  0  0  0  0  0  0
   32.8740   27.2590   35.4270 H   0  0  0  0  0  0  0  0  0  0  0  0
   31.7990   27.6440   36.8650 H   0  0  0  0  0  0  0  0  0  0  0  0
   32.8060   29.6460   34.7100 H   0  0  0  0  0  0  0  0  0  0  0  0
   31.4190   30.2390   36.3580 C   0  0  0  0  0  0  0  0  0  0  0  0
   31.1120   30.0810   37.6960 C   0  0  0  0  0  0  0  0  0  0  0  0
   31.6750   29.4380   38.3650 H   0  0  0  0  0  0  0  0  0  0  0  0
   30.0420   30.7670   38.2330 C   0  0  0  0  0  3  0  0  0  0  0  0
   29.2430   31.6250   37.4710 C   0  0  0  0  0  3  0  0  0  0  0  0
   29.5530   31.7840   36.1160 C   0  0  0  0  0  0  0  0  0  0  0  0
   28.7840   32.6310   35.3150 C   0  0  0  0  0  3  0  0  0  0  0  0
   29.1330   32.7550   33.9730 C   0  0  0  0  0  3  0  0  0  0  0  0
   30.1990   32.0810   33.4120 C   0  0  0  0  0  3  0  0  0  0  0  0
   30.9050   31.2640   34.2830 C   0  0  0  0  0  3  0  0  0  0  0  0
   30.6220   31.0890   35.6180 C   0  0  0  0  0  0  0  0  0  0  0  0
  1  3  1  0  0  0  0
  1 15  1  0  0  0  0
  2  1  1  0  0  0  0
  4  9  1  0  0  0  0
  5  4  2  0  0  0  0
  5  6  1  0  0  0  0
  6  7  2  0  0  0  0
  7  8  1  0  0  0  0
  8 10  1  0  0  0  0
  9  8  2  0  0  0  0
 10 11  1  0  0  0  0
 11 19  1  0  0  0  0
 11 20  1  0  0  0  0
 12 11  1  0  0  0  0
 12 21  1  0  0  0  0
 13 12  1  0  0  0  0
 14 13  1  0  0  0  0
 14 25  1  0  0  0  0
 15 26  1  6  0  0  0
 15 14  1  0  0  0  0
 15 10  1  0  0  0  0
 16  4  1  0  0  0  0
 17  5  1  0  0  0  0
 18  6  1  0  0  0  0
 22 12  1  0  0  0  0
 23 13  1  0  0  0  0
 24 14  1  0  0  0  0
 27  1  1  0  0  0  0
 28 27  2  0  0  0  0
 29 32  1  0  0  0  0
 29 28  1  0  0  0  0
 30 29  1  0  0  0  0
 31 29  1  0  0  0  0
 32 35  1  1  0  0  0
 33 32  1  0  0  0  0
 33 37  1  0  0  0  0
 34 38  1  6  0  0  0
 34 33  1  0  0  0  0
 34 39  1  0  0  0  0
 34 32  1  0  0  0  0
 36 33  1  0  0  0  0
 39 40  1  0  0  0  0
 40 42  2  0  0  0  0
 40 41  1  0  0  0  0
 43 42  1  0  0  0  0
 44 43  2  0  0  0  0
 45 44  1  0  0  0  0
 46 45  2  0  0  0  0
 47 46  1  0  0  0  0
 47 48  2  0  0  0  0
 48 49  1  0  0  0  0
 49 44  1  0  0  0  0
 49 39  2  0  0  0  0
M  END
>  <minimizedAffinity>
-6.86886072

$$$$

 OpenBabel03242517333D

 49 53  0  0  1  0  0  0  0  0999 V2000
   39.0400   32.6910   39.5700 C   0  0  0  0  0  0  0  0  0  0  0  0
   39.6860   33.3960   40.1260 H   0  0  0  0  0  0  0  0  0  0  0  0
   38.6080   33.2220   38.7090 H   0  0  0  0  0  0  0  0  0  0  0  0
   42.0700   29.6850   42.4480 C   0  0  0  0  0  0  0  0  0  0  0  0
   42.7120   30.6600   43.2610 C   0  0  0  0  0  0  0  0  0  0  0  0
   42.8410   31.9550   42.7620 C   0  0  0  0  0  0  0  0  0  0  0  0
   42.3480   32.2160   41.5240 N   0  0  0  0  0  0  0  0  0  0  0  0
   41.7490   31.3060   40.7660 C   0  0  0  0  0  0  0  0  0  0  0  0
   41.6290   30.0620   41.2570 N   0  0  0  0  0  0  0  0  0  0  0  0
   41.2720   31.6570   39.5140 N   0  0  0  0  0  0  0  0  0  0  0  0
   42.1640   32.2060   38.5150 C   0  0  0  0  0  0  0  0  0  0  0  0
   41.4520   32.8780   37.3810 C   0  0  0  0  0  0  0  0  0  0  0  0
   40.1840   32.3670   37.0180 N   0  0  0  0  0  0  0  0  0  0  0  0
   39.8190   31.1820   37.7280 C   0  0  0  0  0  0  0  0  0  0  0  0
   39.8400   31.4650   39.2000 C   0  0  2  0  0  0  0  0  0  0  0  0
   41.9860   28.6860   42.8680 H   0  0  0  0  0  0  0  0  0  0  0  0
   43.1100   30.4640   44.2500 H   0  0  0  0  0  0  0  0  0  0  0  0
   43.3150   32.7500   43.3170 H   0  0  0  0  0  0  0  0  0  0  0  0
   42.8710   32.9160   38.9910 H   0  0  0  0  0  0  0  0  0  0  0  0
   42.7500   31.3640   38.0620 H   0  0  0  0  0  0  0  0  0  0  0  0
   42.1430   32.9360   36.5080 H   0  0  0  0  0  0  0  0  0  0  0  0
   41.3120   33.9530   37.6940 H   0  0  0  0  0  0  0  0  0  0  0  0
   39.4380   33.0360   36.8000 H   0  0  0  0  0  0  0  0  0  0  0  0
   38.9270   30.7050   37.3370 H   0  0  0  0  0  0  0  0  0  0  0  0
   40.6700   30.4550   37.5540 H   0  0  0  0  0  0  0  0  0  0  0  0
   39.4860   30.5810   39.7400 H   0  0  0  0  0  0  0  0  0  0  0  0
   37.9140   32.1980   40.4440 C   0  0  0  0  0  3  0  0  0  0  0  0
   37.6970   30.8910   40.5770 C   0  0  0  0  0  3  0  0  0  0  0  0
   36.6210   30.2880   41.4110 C   0  0  0  0  0  0  0  0  0  0  0  0
   36.3070   31.1060   42.1190 H   0  0  0  0  0  0  0  0  0  0  0  0
   35.7690   29.9550   40.8070 H   0  0  0  0  0  0  0  0  0  0  0  0
   37.2180   29.1910   42.2640 C   0  0  2  0  0  0  0  0  0  0  0  0
   38.4470   29.5140   43.0520 C   0  0  0  0  0  0  0  0  0  0  0  0
   38.4820   28.5540   41.8680 C   0  0  1  0  0  0  0  0  0  0  0  0
   36.4320   28.6390   42.8290 H   0  0  0  0  0  0  0  0  0  0  0  0
   38.8340   30.5450   42.9380 H   0  0  0  0  0  0  0  0  0  0  0  0
   38.5610   29.1310   44.0780 H   0  0  0  0  0  0  0  0  0  0  0  0
   39.0270   28.9790   41.0080 H   0  0  0  0  0  0  0  0  0  0  0  0
   38.8030   27.1630   42.2890 C   0  0  0  0  0  0  0  0  0  0  0  0
   39.7300   26.9520   43.2920 C   0  0  0  0  0  0  0  0  0  0  0  0
   40.2490   27.7570   43.8020 H   0  0  0  0  0  0  0  0  0  0  0  0
   40.0270   25.6620   43.6820 C   0  0  0  0  0  3  0  0  0  0  0  0
   39.4220   24.5440   43.0990 C   0  0  0  0  0  3  0  0  0  0  0  0
   38.4840   24.7580   42.0830 C   0  0  0  0  0  0  0  0  0  0  0  0
   37.8540   23.6730   41.4700 C   0  0  0  0  0  3  0  0  0  0  0  0
   36.9280   23.9370   40.4650 C   0  0  0  0  0  3  0  0  0  0  0  0
   36.6140   25.2180   40.0560 C   0  0  0  0  0  3  0  0  0  0  0  0
   37.2880   26.2320   40.7210 C   0  0  0  0  0  3  0  0  0  0  0  0
   38.2140   26.0510   41.7220 C   0  0  0  0  0  0  0  0  0  0  0  0
  1  2  1  0  0  0  0
  1 27  1  0  0  0  0
  3  1  1  0  0  0  0
  4 16  1  0  0  0  0
  4  5  1  0  0  0  0
  5 17  1  0  0  0  0
  6  5  2  0  0  0  0
  6 18  1  0  0  0  0
  7  6  1  0  0  0  0
  8  9  1  0  0  0  0
  8  7  2  0  0  0  0
  9  4  2  0  0  0  0
 10  8  1  0  0  0  0
 11 19  1  0  0  0  0
 11 10  1  0  0  0  0
 12 22  1  0  0  0  0
 12 11  1  0  0  0  0
 13 12  1  0  0  0  0
 13 14  1  0  0  0  0
 14 15  1  0  0  0  0
 15 10  1  0  0  0  0
 15  1  1  0  0  0  0
 15 26  1  1  0  0  0
 20 11  1  0  0  0  0
 21 12  1  0  0  0  0
 23 13  1  0  0  0  0
 24 14  1  0  0  0  0
 25 14  1  0  0  0  0
 27 28  2  0  0  0  0
 28 29  1  0  0  0  0
 29 30  1  0  0  0  0
 29 32  1  0  0  0  0
 31 29  1  0  0  0  0
 32 35  1  1  0  0  0
 32 33  1  0  0  0  0
 33 37  1  0  0  0  0
 34 38  1  6  0  0  0
 34 32  1  0  0  0  0
 34 39  1  0  0  0  0
 34 33  1  0  0  0  0
 36 33  1  0  0  0  0
 39 40  1  0  0  0  0
 40 42  2  0  0  0  0
 40 41  1  0  0  0  0
 43 42  1  0  0  0  0
 44 43  2  0  0  0  0
 45 44  1  0  0  0  0
 46 45  2  0  0  0  0
 47 46  1  0  0  0  0
 47 48  2  0  0  0  0
 48 49  1  0  0  0  0
 49 44  1  0  0  0  0
 49 39  2  0  0  0  0
M  END
>  <minimizedAffinity>
-6.8127923

$$$$

 OpenBabel03242517333D

 49 53  0  0  1  0  0  0  0  0999 V2000
   39.8250   32.4720   37.6930 C   0  0  0  0  0  0  0  0  0  0  0  0
   39.5940   33.1340   38.5480 H   0  0  0  0  0  0  0  0  0  0  0  0
   39.7370   33.0590   36.7670 H   0  0  0  0  0  0  0  0  0  0  0  0
   41.5080   29.2810   41.3640 C   0  0  0  0  0  0  0  0  0  0  0  0
   40.8680   29.8330   42.5070 C   0  0  0  0  0  0  0  0  0  0  0  0
   40.5390   31.1890   42.4910 C   0  0  0  0  0  0  0  0  0  0  0  0
   40.8510   31.9090   41.3820 N   0  0  0  0  0  0  0  0  0  0  0  0
   41.4490   31.3920   40.3160 C   0  0  0  0  0  0  0  0  0  0  0  0
   41.7600   30.0870   40.3430 N   0  0  0  0  0  0  0  0  0  0  0  0
   41.7300   32.1980   39.2250 N   0  0  0  0  0  0  0  0  0  0  0  0
   42.5550   33.3780   39.3760 C   0  0  0  0  0  0  0  0  0  0  0  0
   42.4530   34.3320   38.2250 C   0  0  0  0  0  0  0  0  0  0  0  0
   42.2040   33.7790   36.9460 N   0  0  0  0  0  0  0  0  0  0  0  0
   42.2070   32.3500   36.9280 C   0  0  0  0  0  0  0  0  0  0  0  0
   41.1820   31.8440   37.8980 C   0  0  2  0  0  0  0  0  0  0  0  0
   41.7500   28.2220   41.4100 H   0  0  0  0  0  0  0  0  0  0  0  0
   40.6140   29.2700   43.3980 H   0  0  0  0  0  0  0  0  0  0  0  0
   40.0520   31.6810   43.3180 H   0  0  0  0  0  0  0  0  0  0  0  0
   42.2980   33.8980   40.3210 H   0  0  0  0  0  0  0  0  0  0  0  0
   43.6280   33.0560   39.4220 H   0  0  0  0  0  0  0  0  0  0  0  0
   43.3510   34.9920   38.2250 H   0  0  0  0  0  0  0  0  0  0  0  0
   41.5980   35.0260   38.4700 H   0  0  0  0  0  0  0  0  0  0  0  0
   41.5340   34.2580   36.3350 H   0  0  0  0  0  0  0  0  0  0  0  0
   42.1780   31.9330   35.9270 H   0  0  0  0  0  0  0  0  0  0  0  0
   43.2060   32.0480   37.3680 H   0  0  0  0  0  0  0  0  0  0  0  0
   41.1310   30.7540   37.8280 H   0  0  0  0  0  0  0  0  0  0  0  0
   38.8480   31.3250   37.6280 C   0  0  0  0  0  3  0  0  0  0  0  0
   37.6170   31.4690   38.1150 C   0  0  0  0  0  3  0  0  0  0  0  0
   36.5690   30.4110   38.1040 C   0  0  0  0  0  0  0  0  0  0  0  0
   35.6300   30.9340   37.7700 H   0  0  0  0  0  0  0  0  0  0  0  0
   36.8170   29.5910   37.4190 H   0  0  0  0  0  0  0  0  0  0  0  0
   36.3210   29.9520   39.5230 C   0  0  2  0  0  0  0  0  0  0  0  0
   36.5710   30.9330   40.6250 C   0  0  0  0  0  0  0  0  0  0  0  0
   37.4530   29.7050   40.4270 C   0  0  1  0  0  0  0  0  0  0  0  0
   35.3640   29.3870   39.6100 H   0  0  0  0  0  0  0  0  0  0  0  0
   36.9340   31.9300   40.3080 H   0  0  0  0  0  0  0  0  0  0  0  0
   35.8820   30.9870   41.4820 H   0  0  0  0  0  0  0  0  0  0  0  0
   38.4630   29.9750   40.0760 H   0  0  0  0  0  0  0  0  0  0  0  0
   37.3330   28.7460   41.5600 C   0  0  0  0  0  0  0  0  0  0  0  0
   37.3880   29.2160   42.8590 C   0  0  0  0  0  0  0  0  0  0  0  0
   37.5160   30.2640   43.1080 H   0  0  0  0  0  0  0  0  0  0  0  0
   37.2770   28.3260   43.9080 C   0  0  0  0  0  3  0  0  0  0  0  0
   37.1080   26.9520   43.7120 C   0  0  0  0  0  3  0  0  0  0  0  0
   37.0530   26.4770   42.3970 C   0  0  0  0  0  0  0  0  0  0  0  0
   36.8860   25.1120   42.1510 C   0  0  0  0  0  3  0  0  0  0  0  0
   36.8370   24.6890   40.8260 C   0  0  0  0  0  3  0  0  0  0  0  0
   36.9460   25.5570   39.7590 C   0  0  0  0  0  3  0  0  0  0  0  0
   37.1090   26.8930   40.0980 C   0  0  0  0  0  3  0  0  0  0  0  0
   37.1670   27.3880   41.3810 C   0  0  0  0  0  0  0  0  0  0  0  0
  1 15  1  0  0  0  0
  1  2  1  0  0  0  0
  3  1  1  0  0  0  0
  4 16  1  0  0  0  0
  4  5  1  0  0  0  0
  5 17  1  0  0  0  0
  6  5  2  0  0  0  0
  6 18  1  0  0  0  0
  7  6  1  0  0  0  0
  8  9  1  0  0  0  0
  8  7  2  0  0  0  0
  9  4  2  0  0  0  0
 10 11  1  0  0  0  0
 10  8  1  0  0  0  0
 11 20  1  0  0  0  0
 11 19  1  0  0  0  0
 12 21  1  0  0  0  0
 12 22  1  0  0  0  0
 12 11  1  0  0  0  0
 13 12  1  0  0  0  0
 14 13  1  0  0  0  0
 14 25  1  0  0  0  0
 14 15  1  0  0  0  0
 15 26  1  6  0  0  0
 15 10  1  0  0  0  0
 23 13  1  0  0  0  0
 24 14  1  0  0  0  0
 27  1  1  0  0  0  0
 27 28  2  0  0  0  0
 29 28  1  0  0  0  0
 29 32  1  0  0  0  0
 30 29  1  0  0  0  0
 31 29  1  0  0  0  0
 32 35  1  1  0  0  0
 32 34  1  0  0  0  0
 32 33  1  0  0  0  0
 33 37  1  0  0  0  0
 34 38  1  6  0  0  0
 34 33  1  0  0  0  0
 34 39  1  0  0  0  0
 36 33  1  0  0  0  0
 39 40  1  0  0  0  0
 40 41  1  0  0  0  0
 40 42  2  0  0  0  0
 43 42  1  0  0  0  0
 44 43  2  0  0  0  0
 45 44  1  0  0  0  0
 46 45  2  0  0  0  0
 47 48  2  0  0  0  0
 47 46  1  0  0  0  0
 48 49  1  0  0  0  0
 49 39  2  0  0  0  0
 49 44  1  0  0  0  0
M  END
>  <minimizedAffinity>
-6.77210188

$$$$

 OpenBabel03242517333D

 49 53  0  0  1  0  0  0  0  0999 V2000
   35.9430   27.4810   37.6020 C   0  0  0  0  0  0  0  0  0  0  0  0
   35.3710   28.2640   38.1320 H   0  0  0  0  0  0  0  0  0  0  0  0
   35.3360   27.1210   36.7580 H   0  0  0  0  0  0  0  0  0  0  0  0
   39.0800   30.7450   40.0510 C   0  0  0  0  0  0  0  0  0  0  0  0
   38.1360   31.6650   40.5880 C   0  0  0  0  0  0  0  0  0  0  0  0
   36.9150   31.8180   39.9310 C   0  0  0  0  0  0  0  0  0  0  0  0
   36.6940   31.0800   38.8130 N   0  0  0  0  0  0  0  0  0  0  0  0
   37.5750   30.2220   38.3130 C   0  0  0  0  0  0  0  0  0  0  0  0
   38.7460   30.0830   38.9530 N   0  0  0  0  0  0  0  0  0  0  0  0
   37.2680   29.5080   37.1670 N   0  0  0  0  0  0  0  0  0  0  0  0
   36.9280   30.1960   35.9390 C   0  0  0  0  0  0  0  0  0  0  0  0
   36.2630   29.3180   34.9240 C   0  0  0  0  0  0  0  0  0  0  0  0
   36.6280   27.9510   34.9110 N   0  0  0  0  0  0  0  0  0  0  0  0
   37.6900   27.6330   35.8130 C   0  0  0  0  0  0  0  0  0  0  0  0
   37.2910   28.0300   37.2020 C   0  0  2  0  0  0  0  0  0  0  0  0
   40.0210   30.6510   40.5880 H   0  0  0  0  0  0  0  0  0  0  0  0
   38.3010   32.2600   41.4790 H   0  0  0  0  0  0  0  0  0  0  0  0
   36.1480   32.4930   40.2750 H   0  0  0  0  0  0  0  0  0  0  0  0
   36.2830   31.0700   36.1650 H   0  0  0  0  0  0  0  0  0  0  0  0
   37.8760   30.5620   35.4650 H   0  0  0  0  0  0  0  0  0  0  0  0
   36.3710   29.7870   33.9190 H   0  0  0  0  0  0  0  0  0  0  0  0
   35.1570   29.3760   35.1390 H   0  0  0  0  0  0  0  0  0  0  0  0
   35.8850   27.2550   34.7910 H   0  0  0  0  0  0  0  0  0  0  0  0
   38.0740   26.6260   35.6850 H   0  0  0  0  0  0  0  0  0  0  0  0
   38.5360   28.3330   35.5360 H   0  0  0  0  0  0  0  0  0  0  0  0
   38.0720   27.7160   37.9020 H   0  0  0  0  0  0  0  0  0  0  0  0
   36.2280   26.3170   38.5170 C   0  0  0  0  0  3  0  0  0  0  0  0
   35.7830   25.1010   38.2090 C   0  0  0  0  0  3  0  0  0  0  0  0
   36.0040   23.8800   39.0310 C   0  0  0  0  0  0  0  0  0  0  0  0
   35.1200   23.8320   39.7260 H   0  0  0  0  0  0  0  0  0  0  0  0
   36.0590   22.9730   38.4160 H   0  0  0  0  0  0  0  0  0  0  0  0
   37.2220   24.0880   39.9010 C   0  0  2  0  0  0  0  0  0  0  0  0
   37.7000   22.9280   40.7160 C   0  0  0  0  0  0  0  0  0  0  0  0
   37.0800   24.1630   41.3630 C   0  0  1  0  0  0  0  0  0  0  0  0
   38.0250   24.6390   39.3590 H   0  0  0  0  0  0  0  0  0  0  0  0
   37.1070   21.9980   40.6230 H   0  0  0  0  0  0  0  0  0  0  0  0
   38.7790   22.7330   40.8190 H   0  0  0  0  0  0  0  0  0  0  0  0
   36.0890   23.9480   41.7970 H   0  0  0  0  0  0  0  0  0  0  0  0
   38.0660   24.9120   42.1900 C   0  0  0  0  0  0  0  0  0  0  0  0
   39.1580   24.2470   42.7150 C   0  0  0  0  0  0  0  0  0  0  0  0
   39.3450   23.1900   42.5570 H   0  0  0  0  0  0  0  0  0  0  0  0
   40.0710   24.9420   43.4820 C   0  0  0  0  0  3  0  0  0  0  0  0
   39.9380   26.3070   43.7540 C   0  0  0  0  0  3  0  0  0  0  0  0
   38.8320   26.9790   43.2220 C   0  0  0  0  0  0  0  0  0  0  0  0
   38.6560   28.3430   43.4670 C   0  0  0  0  0  3  0  0  0  0  0  0
   37.5400   28.9660   42.9160 C   0  0  0  0  0  3  0  0  0  0  0  0
   36.6120   28.2950   42.1460 C   0  0  0  0  0  3  0  0  0  0  0  0
   36.8680   26.9440   41.9560 C   0  0  0  0  0  3  0  0  0  0  0  0
   37.9470   26.2580   42.4660 C   0  0  0  0  0  0  0  0  0  0  0  0
  1  2  1  0  0  0  0
  1 27  1  0  0  0  0
  3  1  1  0  0  0  0
  4  5  1  0  0  0  0
  4 16  1  0  0  0  0
  5 17  1  0  0  0  0
  6 18  1  0  0  0  0
  6  5  2  0  0  0  0
  7  6  1  0  0  0  0
  8  7  2  0  0  0  0
  8  9  1  0  0  0  0
  9  4  2  0  0  0  0
 10 15  1  0  0  0  0
 10  8  1  0  0  0  0
 11 19  1  0  0  0  0
 11 10  1  0  0  0  0
 12 22  1  0  0  0  0
 12 11  1  0  0  0  0
 13 12  1  0  0  0  0
 13 14  1  0  0  0  0
 14 15  1  0  0  0  0
 15  1  1  0  0  0  0
 15 26  1  1  0  0  0
 20 11  1  0  0  0  0
 21 12  1  0  0  0  0
 23 13  1  0  0  0  0
 24 14  1  0  0  0  0
 25 14  1  0  0  0  0
 28 27  2  0  0  0  0
 28 29  1  0  0  0  0
 29 30  1  0  0  0  0
 29 32  1  0  0  0  0
 31 29  1  0  0  0  0
 32 35  1  6  0  0  0
 32 33  1  0  0  0  0
 32 34  1  0  0  0  0
 33 37  1  0  0  0  0
 33 34  1  0  0  0  0
 34 38  1  1  0  0  0
 34 39  1  0  0  0  0
 36 33  1  0  0  0  0
 39 49  2  0  0  0  0
 39 40  1  0  0  0  0
 40 42  2  0  0  0  0
 41 40  1  0  0  0  0
 42 43  1  0  0  0  0
 44 45  1  0  0  0  0
 44 43  2  0  0  0  0
 46 45  2  0  0  0  0
 47 46  1  0  0  0  0
 48 47  2  0  0  0  0
 48 49  1  0  0  0  0
 49 44  1  0  0  0  0
M  END
>  <minimizedAffinity>
-6.73506403

$$$$

 OpenBabel03242517333D

 49 53  0  0  1  0  0  0  0  0999 V2000
   39.1020   32.8630   39.4610 C   0  0  0  0  0  0  0  0  0  0  0  0
   39.5930   33.3810   40.3060 H   0  0  0  0  0  0  0  0  0  0  0  0
   39.0520   33.5580   38.6100 H   0  0  0  0  0  0  0  0  0  0  0  0
   41.9540   29.8670   42.5250 C   0  0  0  0  0  0  0  0  0  0  0  0
   42.6420   30.8510   43.2890 C   0  0  0  0  0  0  0  0  0  0  0  0
   42.8410   32.1080   42.7210 C   0  0  0  0  0  0  0  0  0  0  0  0
   42.3690   32.3260   41.4660 N   0  0  0  0  0  0  0  0  0  0  0  0
   41.7280   31.4080   40.7540 C   0  0  0  0  0  0  0  0  0  0  0  0
   41.5410   30.2010   41.3110 N   0  0  0  0  0  0  0  0  0  0  0  0
   41.2770   31.7130   39.4810 N   0  0  0  0  0  0  0  0  0  0  0  0
   42.2030   32.1600   38.4600 C   0  0  0  0  0  0  0  0  0  0  0  0
   41.5330   32.8040   37.2860 C   0  0  0  0  0  0  0  0  0  0  0  0
   40.2420   32.3400   36.9400 N   0  0  0  0  0  0  0  0  0  0  0  0
   39.8120   31.2160   37.7110 C   0  0  0  0  0  0  0  0  0  0  0  0
   39.8390   31.5780   39.1650 C   0  0  2  0  0  0  0  0  0  0  0  0
   41.8160   28.8980   42.9980 H   0  0  0  0  0  0  0  0  0  0  0  0
   43.0240   30.6900   44.2900 H   0  0  0  0  0  0  0  0  0  0  0  0
   43.3520   32.9070   43.2360 H   0  0  0  0  0  0  0  0  0  0  0  0
   42.9420   32.8570   38.9040 H   0  0  0  0  0  0  0  0  0  0  0  0
   42.7460   31.2640   38.0600 H   0  0  0  0  0  0  0  0  0  0  0  0
   42.2310   32.7780   36.4170 H   0  0  0  0  0  0  0  0  0  0  0  0
   41.4470   33.9000   37.5380 H   0  0  0  0  0  0  0  0  0  0  0  0
   39.5330   33.0330   36.6790 H   0  0  0  0  0  0  0  0  0  0  0  0
   38.8980   30.7650   37.3390 H   0  0  0  0  0  0  0  0  0  0  0  0
   40.6240   30.4380   37.5840 H   0  0  0  0  0  0  0  0  0  0  0  0
   39.4370   30.7450   39.7490 H   0  0  0  0  0  0  0  0  0  0  0  0
   37.6970   32.4540   39.8290 C   0  0  0  0  0  3  0  0  0  0  0  0
   37.4820   31.3040   40.4630 C   0  0  0  0  0  3  0  0  0  0  0  0
   36.1450   30.7990   40.8790 C   0  0  0  0  0  0  0  0  0  0  0  0
   35.8570   31.4290   41.7660 H   0  0  0  0  0  0  0  0  0  0  0  0
   35.4000   30.8980   40.0800 H   0  0  0  0  0  0  0  0  0  0  0  0
   36.2920   29.3830   41.3890 C   0  0  2  0  0  0  0  0  0  0  0  0
   37.0170   29.1820   42.6810 C   0  0  0  0  0  0  0  0  0  0  0  0
   37.6020   28.7180   41.3510 C   0  0  1  0  0  0  0  0  0  0  0  0
   35.3390   28.8120   41.2950 H   0  0  0  0  0  0  0  0  0  0  0  0
   37.4040   30.1010   43.1630 H   0  0  0  0  0  0  0  0  0  0  0  0
   36.6490   28.4440   43.4110 H   0  0  0  0  0  0  0  0  0  0  0  0
   38.4780   29.3190   41.0540 H   0  0  0  0  0  0  0  0  0  0  0  0
   37.7050   27.2350   41.2770 C   0  0  0  0  0  0  0  0  0  0  0  0
   36.8570   26.5350   40.4390 C   0  0  0  0  0  0  0  0  0  0  0  0
   36.1040   27.0110   39.8200 H   0  0  0  0  0  0  0  0  0  0  0  0
   36.9530   25.1600   40.3700 C   0  0  0  0  0  3  0  0  0  0  0  0
   37.8840   24.4350   41.1200 C   0  0  0  0  0  3  0  0  0  0  0  0
   38.7430   25.1440   41.9670 C   0  0  0  0  0  0  0  0  0  0  0  0
   39.6890   24.4630   42.7360 C   0  0  0  0  0  3  0  0  0  0  0  0
   40.5200   25.2120   43.5640 C   0  0  0  0  0  3  0  0  0  0  0  0
   40.4440   26.5880   43.6510 C   0  0  0  0  0  3  0  0  0  0  0  0
   39.4760   27.1780   42.8520 C   0  0  0  0  0  3  0  0  0  0  0  0
   38.6190   26.5060   42.0100 C   0  0  0  0  0  0  0  0  0  0  0  0
  1 27  1  0  0  0  0
  1  2  1  0  0  0  0
  3  1  1  0  0  0  0
  4 16  1  0  0  0  0
  4  5  1  0  0  0  0
  5 17  1  0  0  0  0
  6 18  1  0  0  0  0
  6  5  2  0  0  0  0
  7  6  1  0  0  0  0
  8  9  1  0  0  0  0
  8  7  2  0  0  0  0
  9  4  2  0  0  0  0
 10  8  1  0  0  0  0
 11 19  1  0  0  0  0
 11 10  1  0  0  0  0
 12 22  1  0  0  0  0
 12 11  1  0  0  0  0
 13 12  1  0  0  0  0
 13 14  1  0  0  0  0
 14 15  1  0  0  0  0
 15  1  1  0  0  0  0
 15 10  1  0  0  0  0
 15 26  1  1  0  0  0
 20 11  1  0  0  0  0
 21 12  1  0  0  0  0
 23 13  1  0  0  0  0
 24 14  1  0  0  0  0
 25 14  1  0  0  0  0
 27 28  2  0  0  0  0
 28 29  1  0  0  0  0
 29 32  1  0  0  0  0
 29 30  1  0  0  0  0
 31 29  1  0  0  0  0
 32 35  1  6  0  0  0
 32 33  1  0  0  0  0
 33 36  1  0  0  0  0
 33 37  1  0  0  0  0
 34 38  1  6  0  0  0
 34 32  1  0  0  0  0
 34 33  1  0  0  0  0
 39 34  1  0  0  0  0
 39 49  1  0  0  0  0
 40 39  2  0  0  0  0
 41 40  1  0  0  0  0
 42 40  1  0  0  0  0
 42 43  2  0  0  0  0
 43 44  1  0  0  0  0
 44 49  2  0  0  0  0
 44 45  1  0  0  0  0
 45 46  2  0  0  0  0
 46 47  1  0  0  0  0
 48 47  2  0  0  0  0
 49 48  1  0  0  0  0
M  END
>  <minimizedAffinity>
-6.59211111

$$$$

 OpenBabel03242517333D

 49 53  0  0  1  0  0  0  0  0999 V2000
   42.8440   31.7170   40.2700 C   0  0  0  0  0  0  0  0  0  0  0  0
   42.3730   31.1440   39.4500 H   0  0  0  0  0  0  0  0  0  0  0  0
   43.8920   31.9100   39.9990 H   0  0  0  0  0  0  0  0  0  0  0  0
   37.7490   32.4340   40.3970 C   0  0  0  0  0  0  0  0  0  0  0  0
   37.3410   31.6170   39.3060 C   0  0  0  0  0  0  0  0  0  0  0  0
   38.2520   31.3860   38.2760 C   0  0  0  0  0  0  0  0  0  0  0  0
   39.4810   31.9560   38.3700 N   0  0  0  0  0  0  0  0  0  0  0  0
   39.8610   32.7180   39.3870 C   0  0  0  0  0  0  0  0  0  0  0  0
   38.9760   32.9340   40.3730 N   0  0  0  0  0  0  0  0  0  0  0  0
   41.1350   33.2610   39.4050 N   0  0  0  0  0  0  0  0  0  0  0  0
   41.5860   34.1140   38.3250 C   0  0  0  0  0  0  0  0  0  0  0  0
   43.0720   34.3020   38.2920 C   0  0  0  0  0  0  0  0  0  0  0  0
   43.7570   34.2760   39.5300 N   0  0  0  0  0  0  0  0  0  0  0  0
   42.8890   34.1910   40.6620 C   0  0  0  0  0  0  0  0  0  0  0  0
   42.0370   32.9640   40.5380 C   0  0  2  0  0  0  0  0  0  0  0  0
   37.0140   32.5940   41.1820 H   0  0  0  0  0  0  0  0  0  0  0  0
   36.3630   31.1570   39.2190 H   0  0  0  0  0  0  0  0  0  0  0  0
   38.0180   30.7780   37.4160 H   0  0  0  0  0  0  0  0  0  0  0  0
   41.2340   33.7090   37.3550 H   0  0  0  0  0  0  0  0  0  0  0  0
   41.1440   35.1330   38.4720 H   0  0  0  0  0  0  0  0  0  0  0  0
   43.3030   35.2220   37.7080 H   0  0  0  0  0  0  0  0  0  0  0  0
   43.4790   33.4620   37.6580 H   0  0  0  0  0  0  0  0  0  0  0  0
   44.6480   33.7710   39.5780 H   0  0  0  0  0  0  0  0  0  0  0  0
   43.4030   34.3330   41.6080 H   0  0  0  0  0  0  0  0  0  0  0  0
   42.1730   35.0610   40.5560 H   0  0  0  0  0  0  0  0  0  0  0  0
   41.4290   32.8580   41.4410 H   0  0  0  0  0  0  0  0  0  0  0  0
   42.8190   30.9280   41.5550 C   0  0  0  0  0  3  0  0  0  0  0  0
   43.4810   29.7760   41.6430 C   0  0  0  0  0  3  0  0  0  0  0  0
   43.5310   28.9150   42.8560 C   0  0  0  0  0  0  0  0  0  0  0  0
   43.9240   27.9240   42.4950 H   0  0  0  0  0  0  0  0  0  0  0  0
   44.1880   29.3290   43.6300 H   0  0  0  0  0  0  0  0  0  0  0  0
   42.1200   28.6640   43.3400 C   0  0  2  0  0  0  0  0  0  0  0  0
   41.8490   27.3780   44.0540 C   0  0  0  0  0  0  0  0  0  0  0  0
   41.2780   27.6640   42.6690 C   0  0  1  0  0  0  0  0  0  0  0  0
   41.6860   29.5680   43.8250 H   0  0  0  0  0  0  0  0  0  0  0  0
   42.7140   26.6970   44.1640 H   0  0  0  0  0  0  0  0  0  0  0  0
   41.1860   27.3650   44.9330 H   0  0  0  0  0  0  0  0  0  0  0  0
   41.7430   27.0330   41.8930 H   0  0  0  0  0  0  0  0  0  0  0  0
   39.7930   27.7750   42.6910 C   0  0  0  0  0  0  0  0  0  0  0  0
   39.2060   29.0070   42.9090 C   0  0  0  0  0  0  0  0  0  0  0  0
   39.7740   29.9180   43.0680 H   0  0  0  0  0  0  0  0  0  0  0  0
   37.8300   29.1090   42.9290 C   0  0  0  0  0  3  0  0  0  0  0  0
   36.9930   28.0060   42.7360 C   0  0  0  0  0  3  0  0  0  0  0  0
   37.5880   26.7590   42.5160 C   0  0  0  0  0  0  0  0  0  0  0  0
   36.7930   25.6280   42.3180 C   0  0  0  0  0  3  0  0  0  0  0  0
   37.4310   24.4100   42.1030 C   0  0  0  0  0  3  0  0  0  0  0  0
   38.8060   24.2810   42.0780 C   0  0  0  0  0  3  0  0  0  0  0  0
   39.5130   25.4560   42.2840 C   0  0  0  0  0  3  0  0  0  0  0  0
   38.9550   26.6950   42.5020 C   0  0  0  0  0  0  0  0  0  0  0  0
  1 15  1  0  0  0  0
  1 27  1  0  0  0  0
  2  1  1  0  0  0  0
  3  1  1  0  0  0  0
  4 16  1  0  0  0  0
  5  4  2  0  0  0  0
  6  7  2  0  0  0  0
  6  5  1  0  0  0  0
  7  8  1  0  0  0  0
  8 10  1  0  0  0  0
  8  9  2  0  0  0  0
  9  4  1  0  0  0  0
 10 15  1  0  0  0  0
 11 20  1  0  0  0  0
 11 10  1  0  0  0  0
 12 11  1  0  0  0  0
 12 13  1  0  0  0  0
 13 23  1  0  0  0  0
 13 14  1  0  0  0  0
 14 24  1  0  0  0  0
 15 14  1  0  0  0  0
 15 26  1  1  0  0  0
 17  5  1  0  0  0  0
 18  6  1  0  0  0  0
 19 11  1  0  0  0  0
 21 12  1  0  0  0  0
 22 12  1  0  0  0  0
 25 14  1  0  0  0  0
 27 28  2  0  0  0  0
 28 29  1  0  0  0  0
 29 32  1  0  0  0  0
 29 31  1  0  0  0  0
 30 29  1  0  0  0  0
 32 35  1  1  0  0  0
 32 33  1  0  0  0  0
 33 36  1  0  0  0  0
 33 37  1  0  0  0  0
 34 38  1  6  0  0  0
 34 39  1  0  0  0  0
 34 32  1  0  0  0  0
 34 33  1  0  0  0  0
 39 40  1  0  0  0  0
 40 42  2  0  0  0  0
 40 41  1  0  0  0  0
 43 42  1  0  0  0  0
 44 43  2  0  0  0  0
 45 44  1  0  0  0  0
 46 45  2  0  0  0  0
 47 46  1  0  0  0  0
 47 48  2  0  0  0  0
 48 49  1  0  0  0  0
 49 44  1  0  0  0  0
 49 39  2  0  0  0  0
M  END
>  <minimizedAffinity>
-6.46930218

$$$$

 OpenBabel03242517333D

 49 53  0  0  1  0  0  0  0  0999 V2000
   39.2070   30.9070   41.5840 C   0  0  0  0  0  0  0  0  0  0  0  0
   40.0400   30.2820   41.2110 H   0  0  0  0  0  0  0  0  0  0  0  0
   39.5970   31.5710   42.3690 H   0  0  0  0  0  0  0  0  0  0  0  0
   37.8100   29.1960   36.9350 C   0  0  0  0  0  0  0  0  0  0  0  0
   38.8940   28.3240   36.6390 C   0  0  0  0  0  0  0  0  0  0  0  0
   40.1280   28.5760   37.2370 C   0  0  0  0  0  0  0  0  0  0  0  0
   40.2280   29.6430   38.0710 N   0  0  0  0  0  0  0  0  0  0  0  0
   39.2160   30.4560   38.3470 C   0  0  0  0  0  0  0  0  0  0  0  0
   38.0330   30.2040   37.7650 N   0  0  0  0  0  0  0  0  0  0  0  0
   39.4040   31.5230   39.2100 N   0  0  0  0  0  0  0  0  0  0  0  0
   40.4090   32.5270   38.9310 C   0  0  0  0  0  0  0  0  0  0  0  0
   40.7500   33.3790   40.1150 C   0  0  0  0  0  0  0  0  0  0  0  0
   39.7210   33.6250   41.0550 N   0  0  0  0  0  0  0  0  0  0  0  0
   38.4490   33.1080   40.6590 C   0  0  0  0  0  0  0  0  0  0  0  0
   38.5680   31.6330   40.4250 C   0  0  2  0  0  0  0  0  0  0  0  0
   36.8620   28.9710   36.4510 H   0  0  0  0  0  0  0  0  0  0  0  0
   38.8270   27.4690   35.9750 H   0  0  0  0  0  0  0  0  0  0  0  0
   40.9970   27.9610   37.0640 H   0  0  0  0  0  0  0  0  0  0  0  0
   41.3250   32.0420   38.5370 H   0  0  0  0  0  0  0  0  0  0  0  0
   40.0050   33.2230   38.1500 H   0  0  0  0  0  0  0  0  0  0  0  0
   41.2180   34.3230   39.7540 H   0  0  0  0  0  0  0  0  0  0  0  0
   41.5850   32.8440   40.6540 H   0  0  0  0  0  0  0  0  0  0  0  0
   39.9580   33.5850   42.0520 H   0  0  0  0  0  0  0  0  0  0  0  0
   37.6350   33.4350   41.2980 H   0  0  0  0  0  0  0  0  0  0  0  0
   38.2490   33.5550   39.6380 H   0  0  0  0  0  0  0  0  0  0  0  0
   37.5780   31.2250   40.1970 H   0  0  0  0  0  0  0  0  0  0  0  0
   38.1200   30.0470   42.1800 C   0  0  0  0  0  3  0  0  0  0  0  0
   38.4360   29.0400   42.9910 C   0  0  0  0  0  3  0  0  0  0  0  0
   37.4530   28.1290   43.6380 C   0  0  0  0  0  0  0  0  0  0  0  0
   38.0520   27.5350   44.3830 H   0  0  0  0  0  0  0  0  0  0  0  0
   36.6490   28.6790   44.1420 H   0  0  0  0  0  0  0  0  0  0  0  0
   36.9490   27.1400   42.6100 C   0  0  2  0  0  0  0  0  0  0  0  0
   37.6080   25.7990   42.5550 C   0  0  0  0  0  0  0  0  0  0  0  0
   37.7690   26.8190   41.4320 C   0  0  1  0  0  0  0  0  0  0  0  0
   35.8360   27.1150   42.5760 H   0  0  0  0  0  0  0  0  0  0  0  0
   38.4330   25.6380   43.2760 H   0  0  0  0  0  0  0  0  0  0  0  0
   37.0030   24.8930   42.3960 H   0  0  0  0  0  0  0  0  0  0  0  0
   38.7930   27.2270   41.3890 H   0  0  0  0  0  0  0  0  0  0  0  0
   37.1390   26.3560   40.1650 C   0  0  0  0  0  0  0  0  0  0  0  0
   37.4980   25.1310   39.6360 C   0  0  0  0  0  0  0  0  0  0  0  0
   38.2260   24.4720   40.0970 H   0  0  0  0  0  0  0  0  0  0  0  0
   36.9150   24.7010   38.4610 C   0  0  0  0  0  3  0  0  0  0  0  0
   35.9630   25.4620   37.7750 C   0  0  0  0  0  3  0  0  0  0  0  0
   35.6000   26.7030   38.3110 C   0  0  0  0  0  0  0  0  0  0  0  0
   34.6540   27.4990   37.6610 C   0  0  0  0  0  3  0  0  0  0  0  0
   34.3270   28.7240   38.2350 C   0  0  0  0  0  3  0  0  0  0  0  0
   34.8960   29.1760   39.4080 C   0  0  0  0  0  3  0  0  0  0  0  0
   35.8240   28.3200   39.9830 C   0  0  0  0  0  3  0  0  0  0  0  0
   36.1990   27.0960   39.4780 C   0  0  0  0  0  0  0  0  0  0  0  0
  1 27  1  0  0  0  0
  1  3  1  0  0  0  0
  2  1  1  0  0  0  0
  4  9  1  0  0  0  0
  5  4  2  0  0  0  0
  5  6  1  0  0  0  0
  6  7  2  0  0  0  0
  7  8  1  0  0  0  0
  8 10  1  0  0  0  0
  9  8  2  0  0  0  0
 10 15  1  0  0  0  0
 11 10  1  0  0  0  0
 11 12  1  0  0  0  0
 12 22  1  0  0  0  0
 12 13  1  0  0  0  0
 13 23  1  0  0  0  0
 14 13  1  0  0  0  0
 14 24  1  0  0  0  0
 15 26  1  6  0  0  0
 15 14  1  0  0  0  0
 15  1  1  0  0  0  0
 16  4  1  0  0  0  0
 17  5  1  0  0  0  0
 18  6  1  0  0  0  0
 19 11  1  0  0  0  0
 20 11  1  0  0  0  0
 21 12  1  0  0  0  0
 25 14  1  0  0  0  0
 27 28  2  0  0  0  0
 28 29  1  0  0  0  0
 29 31  1  0  0  0  0
 29 30  1  0  0  0  0
 32 35  1  6  0  0  0
 32 29  1  0  0  0  0
 33 32  1  0  0  0  0
 33 36  1  0  0  0  0
 34 38  1  6  0  0  0
 34 33  1  0  0  0  0
 34 32  1  0  0  0  0
 37 33  1  0  0  0  0
 39 34  1  0  0  0  0
 40 41  1  0  0  0  0
 40 39  1  0  0  0  0
 42 40  2  0  0  0  0
 43 44  2  0  0  0  0
 43 42  1  0  0  0  0
 44 49  1  0  0  0  0
 45 46  2  0  0  0  0
 45 44  1  0  0  0  0
 46 47  1  0  0  0  0
 47 48  2  0  0  0  0
 49 48  1  0  0  0  0
 49 39  2  0  0  0  0
M  END
>  <minimizedAffinity>
-6.45539284

$$$$
