
 OpenBabel03252502093D

 50 55  0  0  0  0  0  0  0  0999 V2000
   45.5040   33.7460   45.5340 C   0  0  0  0  0  0  0  0  0  0  0  0
   44.8050   34.7360   46.0980 N   0  0  0  0  0  0  0  0  0  0  0  0
   44.4090   35.8410   45.4780 C   0  0  0  0  0  0  0  0  0  0  0  0
   44.7090   36.0280   44.1750 N   0  0  0  0  0  0  0  0  0  0  0  0
   45.4080   35.1080   43.4900 C   0  0  0  0  0  0  0  0  0  0  0  0
   45.7370   35.2880   42.1550 C   0  0  0  0  0  0  0  0  0  0  0  0
   46.4560   34.3680   41.4600 C   0  0  0  0  0  0  0  0  0  0  0  0
   46.8500   33.2410   42.1340 C   0  0  0  0  0  0  0  0  0  0  0  0
   46.4990   33.0950   43.4730 C   0  0  0  0  0  0  0  0  0  0  0  0
   45.7870   33.9860   44.1950 C   0  0  0  0  0  0  0  0  0  0  0  0
   43.8410   36.6130   45.9920 H   0  0  0  0  0  0  0  0  0  0  0  0
   45.4110   36.1900   41.6460 H   0  0  0  0  0  0  0  0  0  0  0  0
   46.6840   34.5570   40.4310 H   0  0  0  0  0  0  0  0  0  0  0  0
   47.6510   31.7860   47.6910 C   0  0  0  0  0  0  0  0  0  0  0  0
   47.1200   30.4910   47.7030 C   0  0  0  0  0  0  0  0  0  0  0  0
   45.9840   30.2820   46.9670 C   0  0  0  0  0  0  0  0  0  0  0  0
   45.4420   31.2960   46.2800 N   0  0  0  0  0  0  0  0  0  0  0  0
   45.9320   32.5230   46.2540 C   0  0  0  0  0  0  0  0  0  0  0  0
   47.0470   32.7460   46.9770 N   0  0  0  0  0  0  0  0  0  0  0  0
   45.3900   29.0410   46.9570 N   0  0  0  0  0  0  0  0  0  0  0  0
   44.0700   28.7510   46.3300 C   0  0  0  0  0  0  0  0  0  0  0  0
   43.9450   27.2550   46.3090 C   0  0  0  0  0  0  0  0  0  0  0  0
   44.7860   26.8350   47.4740 C   0  0  0  0  0  0  0  0  0  0  0  0
   45.8920   27.8310   47.5290 C   0  0  0  0  0  0  0  0  0  0  0  0
   48.5530   31.9980   48.2670 H   0  0  0  0  0  0  0  0  0  0  0  0
   43.2620   29.2680   46.8470 H   0  0  0  0  0  0  0  0  0  0  0  0
   44.1990   29.0830   45.2700 H   0  0  0  0  0  0  0  0  0  0  0  0
   42.8870   26.9400   46.4850 H   0  0  0  0  0  0  0  0  0  0  0  0
   44.3620   26.7880   45.4060 H   0  0  0  0  0  0  0  0  0  0  0  0
   45.1470   25.7850   47.4200 H   0  0  0  0  0  0  0  0  0  0  0  0
   44.1260   26.8640   48.3660 H   0  0  0  0  0  0  0  0  0  0  0  0
   46.0430   27.9860   48.6410 H   0  0  0  0  0  0  0  0  0  0  0  0
   46.7610   27.3960   47.0330 H   0  0  0  0  0  0  0  0  0  0  0  0
   47.8030   29.5250   48.3840 N   0  0  0  0  0  0  0  0  0  0  0  0
   48.4430   28.7660   48.0610 H   0  0  0  0  0  0  0  0  0  0  0  0
   47.5340   29.7090   49.3950 H   0  0  0  0  0  0  0  0  0  0  0  0
   47.6250   32.2690   41.3630 C   0  0  0  0  0  0  0  0  0  0  0  0
   46.9480   31.3370   40.5710 C   0  0  0  0  0  0  0  0  0  0  0  0
   45.8550   31.3190   40.5160 H   0  0  0  0  0  0  0  0  0  0  0  0
   47.6620   30.4110   39.8370 C   0  0  0  0  0  3  0  0  0  0  0  0
   49.0290   30.3560   39.8430 C   0  0  0  0  0  3  0  0  0  0  0  0
   49.6830   31.2780   40.6260 C   0  0  0  0  0  0  0  0  0  0  0  0
   51.0590   31.2720   40.6710 C   0  0  0  0  0  3  0  0  0  0  0  0
   51.7550   32.1770   41.4410 C   0  0  0  0  0  3  0  0  0  0  0  0
   51.0900   33.1190   42.1920 C   0  0  0  0  0  3  0  0  0  0  0  0
   49.7000   33.1230   42.1420 C   0  0  0  0  0  3  0  0  0  0  0  0
   49.0110   32.2240   41.3770 C   0  0  0  0  0  0  0  0  0  0  0  0
   46.9780   31.8450   43.9840 N   0  0  0  0  0  0  0  0  0  0  0  0
   47.8220   31.5250   44.4780 H   0  0  0  0  0  0  0  0  0  0  0  0
   46.2080   31.1670   43.7330 H   0  0  0  0  0  0  0  0  0  0  0  0
  1  2  1  0  0  0  0
  1 18  1  0  0  0  0
  3 11  1  0  0  0  0
  3  2  2  0  0  0  0
  4  3  1  0  0  0  0
  5  4  2  0  0  0  0
  5 10  1  0  0  0  0
  6  5  1  0  0  0  0
  7  8  1  0  0  0  0
  7  6  2  0  0  0  0
  8  9  2  0  0  0  0
  9 48  1  0  0  0  0
  9 10  1  0  0  0  0
 10  1  2  0  0  0  0
 12  6  1  0  0  0  0
 13  7  1  0  0  0  0
 14 15  1  0  0  0  0
 14 25  1  0  0  0  0
 15 34  1  0  0  0  0
 16 15  2  0  0  0  0
 17 16  1  0  0  0  0
 18 17  2  0  0  0  0
 18 19  1  0  0  0  0
 19 14  2  0  0  0  0
 20 16  1  0  0  0  0
 20 24  1  0  0  0  0
 21 26  1  0  0  0  0
 21 20  1  0  0  0  0
 22 21  1  0  0  0  0
 22 28  1  0  0  0  0
 22 23  1  0  0  0  0
 23 24  1  0  0  0  0
 23 31  1  0  0  0  0
 24 32  1  0  0  0  0
 27 21  1  0  0  0  0
 29 22  1  0  0  0  0
 30 23  1  0  0  0  0
 33 24  1  0  0  0  0
 34 36  1  0  0  0  0
 35 34  1  0  0  0  0
 37 47  1  0  0  0  0
 37  8  1  0  0  0  0
 38 37  2  0  0  0  0
 39 38  1  0  0  0  0
 40 41  2  0  0  0  0
 40 38  1  0  0  0  0
 41 42  1  0  0  0  0
 42 43  2  0  0  0  0
 42 47  1  0  0  0  0
 43 44  1  0  0  0  0
 44 45  2  0  0  0  0
 46 45  1  0  0  0  0
 47 46  2  0  0  0  0
 48 49  1  0  0  0  0
 50 48  1  0  0  0  0
M  END
>  <minimizedAffinity>
-7.14923573

>  <minimizedRMSD>
1.0572468

$$$$
