REMARK  Name = 
REMARK  6 active torsions:
REMARK  status: ('A' for Active; 'I' for Inactive)
REMARK    1  A    between atoms: C_1  and  O_12
REMARK    2  A    between atoms: C_4  and  C_6
REMARK    3  A    between atoms: C_8  and  N_11
REMARK    4  A    between atoms: O_12  and  C_13
REMARK    5  A    between atoms: C_13  and  C_15
REMARK    6  A    between atoms: C_19  and  C_31
REMARK                            x       y       z     vdW  Elec       q    Type
REMARK                         _______ _______ _______ _____ _____    ______ ____
ROOT
ATOM      1  C   UNL     1      47.342  34.727  41.982  0.00  0.00    +0.000 C 
ATOM      2  O   UNL     1      48.243  35.548  41.663  0.00  0.00    +0.000 OA
ENDROOT
BRANCH   1   3
ATOM      3  C   UNL     1      46.440  34.827  43.087  0.00  0.00    +0.000 A 
ATOM      4  C   UNL     1      45.583  35.870  43.080  0.00  0.00    +0.000 A 
ATOM      5  C   UNL     1      44.709  35.978  44.154  0.00  0.00    +0.000 A 
ATOM      6  N   UNL     1      44.744  35.073  45.130  0.00  0.00    +0.000 NA
ATOM      7  C   UNL     1      45.592  34.048  45.130  0.00  0.00    +0.000 A 
ATOM      8  N   UNL     1      46.394  33.999  44.087  0.00  0.00    +0.000 NA
ATOM      9  H   UNL     1      45.482  36.641  42.345  0.00  0.00    +0.000 HD
ATOM     10  H   UNL     1      43.981  36.776  44.248  0.00  0.00    +0.000 HD
BRANCH   7  11
ATOM     11  C   UNL     1      45.800  32.948  46.083  0.00  0.00    +0.000 A 
ATOM     12  C   UNL     1      44.867  32.625  47.079  0.00  0.00    +0.000 A 
ATOM     13  H   UNL     1      43.963  33.223  47.131  0.00  0.00    +0.000 HD
ATOM     14  C   UNL     1      45.041  31.610  47.974  0.00  0.00    +0.000 A 
ATOM     15  C   UNL     1      46.175  30.835  47.936  0.00  0.00    +0.000 A 
ATOM     16  C   UNL     1      47.121  31.113  46.975  0.00  0.00    +0.000 A 
ATOM     17  C   UNL     1      48.240  30.308  46.979  0.00  0.00    +0.000 A 
ATOM     18  C   UNL     1      49.234  30.522  46.048  0.00  0.00    +0.000 A 
ATOM     19  C   UNL     1      49.039  31.567  45.139  0.00  0.00    +0.000 A 
ATOM     20  C   UNL     1      47.903  32.323  45.197  0.00  0.00    +0.000 A 
ATOM     21  C   UNL     1      46.893  32.145  46.103  0.00  0.00    +0.000 A 
ENDBRANCH   7  11
ENDBRANCH   1   3
BRANCH   1  22
ATOM     22  O   UNL     1      47.215  33.593  41.163  0.00  0.00    +0.000 OA
BRANCH  22  23
ATOM     23  C   UNL     1      47.379  33.737  39.764  0.00  0.00    +0.000 A 
ATOM     24  C   UNL     1      48.304  34.456  39.008  0.00  0.00    +0.000 A 
ATOM     25  C   UNL     1      48.030  34.265  37.670  0.00  0.00    +0.000 A 
ATOM     26  C   UNL     1      46.952  33.439  37.669  0.00  0.00    +0.000 A 
ATOM     27  O   UNL     1      46.578  33.134  38.898  0.00  0.00    +0.000 OA
ATOM     28  H   UNL     1      49.080  35.045  39.495  0.00  0.00    +0.000 HD
ATOM     29  H   UNL     1      48.593  34.708  36.865  0.00  0.00    +0.000 HD
BRANCH  26  30
ATOM     30  C   UNL     1      46.264  32.930  36.458  0.00  0.00    +0.000 C 
ATOM     31  C   UNL     1      46.090  31.493  36.249  0.00  0.00    +0.000 C 
ATOM     32  C   UNL     1      47.201  32.144  35.507  0.00  0.00    +0.000 C 
ATOM     33  H   UNL     1      45.552  33.622  35.976  0.00  0.00    +0.000 HD
ATOM     34  H   UNL     1      45.261  31.079  35.659  0.00  0.00    +0.000 HD
ATOM     35  H   UNL     1      46.423  30.775  37.051  0.00  0.00    +0.000 HD
ATOM     36  H   UNL     1      48.250  32.057  35.806  0.00  0.00    +0.000 HD
BRANCH  32  39
ATOM     37  C   UNL     1      48.055  32.651  33.233  0.00  0.00    +0.000 C 
ATOM     38  O   UNL     1      49.259  32.628  33.624  0.00  0.00    +0.000 OA
ATOM     39  N   UNL     1      46.952  32.447  34.103  0.00  0.00    +0.000 N 
ATOM     40  H   UNL     1      47.943  32.840  32.173  0.00  0.00    +0.000 HD
ATOM     41  H   UNL     1      45.977  32.513  33.740  0.00  0.00    +0.000 HD
ENDBRANCH  32  39
ENDBRANCH  26  30
ENDBRANCH  22  23
ENDBRANCH   1  22
TORSDOF 6
