
 OpenBabel03252508363D

 33 36  0  0  0  0  0  0  0  0999 V2000
   43.5430   33.0470   41.2670 C   0  0  0  0  0  0  0  0  0  0  0  0
   44.7210   33.2410   41.9740 C   0  0  0  0  0  0  0  0  0  0  0  0
   45.7070   32.3180   41.8310 C   0  0  0  0  0  0  0  0  0  0  0  0
   45.5990   31.2020   41.0220 C   0  0  0  0  0  0  0  0  0  0  0  0
   44.4150   31.0240   40.3240 C   0  0  0  0  0  0  0  0  0  0  0  0
   43.3990   31.9330   40.4420 C   0  0  0  0  0  0  0  0  0  0  0  0
   46.6300   32.4760   42.3890 H   0  0  0  0  0  0  0  0  0  0  0  0
   46.3940   30.4800   40.9210 H   0  0  0  0  0  0  0  0  0  0  0  0
   44.2250   30.1960   39.6700 H   0  0  0  0  0  0  0  0  0  0  0  0
   44.6600   35.5190   44.9860 C   0  0  0  0  0  0  0  0  0  0  0  0
   44.5910   34.3400   44.2100 C   0  0  0  0  0  0  0  0  0  0  0  0
   44.7820   34.4350   42.8140 C   0  0  0  0  0  0  0  0  0  0  0  0
   45.0200   35.6670   42.3080 N   0  0  0  0  0  0  0  0  0  0  0  0
   45.0780   36.7630   43.0720 C   0  0  0  0  0  0  0  0  0  0  0  0
   44.8980   36.6900   44.4090 N   0  0  0  0  0  0  0  0  0  0  0  0
   44.4660   35.3930   46.3710 N   0  0  0  0  0  0  0  0  0  0  0  0
   44.3990   33.3810   44.6570 H   0  0  0  0  0  0  0  0  0  0  0  0
   45.2650   37.7580   42.7000 H   0  0  0  0  0  0  0  0  0  0  0  0
   44.0150   36.1560   46.9260 H   0  0  0  0  0  0  0  0  0  0  0  0
   44.7790   34.5190   46.8470 H   0  0  0  0  0  0  0  0  0  0  0  0
   42.1320   31.7620   39.7080 C   0  0  0  0  0  0  0  0  0  0  0  0
   42.0170   32.3360   38.4580 C   0  0  0  0  0  0  0  0  0  0  0  0
   42.7890   32.9090   37.9690 H   0  0  0  0  0  0  0  0  0  0  0  0
   40.8130   32.1670   37.7720 C   0  0  0  0  0  0  0  0  0  0  0  0
   39.8300   31.4420   38.3890 C   0  0  0  0  0  0  0  0  0  0  0  0
   39.9130   30.8580   39.6300 C   0  0  0  0  0  0  0  0  0  0  0  0
   38.8920   30.1360   40.2090 C   0  0  0  0  0  0  0  0  0  0  0  0
   39.0450   29.5730   41.4670 C   0  0  0  0  0  0  0  0  0  0  0  0
   40.2660   29.7910   42.0690 C   0  0  0  0  0  0  0  0  0  0  0  0
   41.3350   30.4990   41.5590 C   0  0  0  0  0  0  0  0  0  0  0  0
   41.1220   31.0360   40.3040 C   0  0  0  0  0  0  0  0  0  0  0  0
   41.5630   34.7290   41.4150 N   0  0  0  0  0  0  0  0  0  0  0  0
   42.4540   33.9650   41.3570 C   0  0  0  0  0  0  0  0  0  0  0  0
  1 33  1  0  0  0  0
  1  2  1  0  0  0  0
  2 12  1  0  0  0  0
  3  2  2  0  0  0  0
  3  7  1  0  0  0  0
  4  3  1  0  0  0  0
  5  6  1  0  0  0  0
  5  4  2  0  0  0  0
  6  1  2  0  0  0  0
  8  4  1  0  0  0  0
  9  5  1  0  0  0  0
 10 16  1  0  0  0  0
 11 17  1  0  0  0  0
 11 10  2  0  0  0  0
 12 11  1  0  0  0  0
 13 12  2  0  0  0  0
 13 14  1  0  0  0  0
 14 15  2  0  0  0  0
 15 10  1  0  0  0  0
 16 20  1  0  0  0  0
 16 19  1  0  0  0  0
 18 14  1  0  0  0  0
 21 31  1  0  0  0  0
 21  6  1  0  0  0  0
 22 21  2  0  0  0  0
 23 22  1  0  0  0  0
 24 25  2  0  0  0  0
 24 22  1  0  0  0  0
 25 26  1  0  0  0  0
 26 27  2  0  0  0  0
 26 31  1  0  0  0  0
 27 28  1  0  0  0  0
 28 29  2  0  0  0  0
 30 29  1  0  0  0  0
 31 30  2  0  0  0  0
 33 32  3  0  0  0  0
M  END
>  <minimizedAffinity>
-4.8194828

>  <minimizedRMSD>
8.27308464

$$$$
