
 OpenBabel03252508223D

 36 39  0  0  0  0  0  0  0  0999 V2000
   39.1210   31.4870   40.1170 C   0  0  0  0  0  0  0  0  0  0  0  0
   39.9910   32.5130   40.3680 C   0  0  0  0  0  0  0  0  0  0  0  0
   39.6630   33.8620   40.3490 C   0  0  0  0  0  0  0  0  0  0  0  0
   38.3300   34.1610   40.0440 C   0  0  0  0  0  0  0  0  0  0  0  0
   37.4260   33.1290   39.7840 C   0  0  0  0  0  0  0  0  0  0  0  0
   37.8000   31.7940   39.8150 C   0  0  0  0  0  0  0  0  0  0  0  0
   41.0180   32.2940   40.6040 H   0  0  0  0  0  0  0  0  0  0  0  0
   40.3930   34.6250   40.5560 H   0  0  0  0  0  0  0  0  0  0  0  0
   38.0450   35.2060   40.0220 H   0  0  0  0  0  0  0  0  0  0  0  0
   36.4080   33.4470   39.5540 H   0  0  0  0  0  0  0  0  0  0  0  0
   36.7660   30.8090   39.5250 C   0  0  0  0  0  0  0  0  0  0  0  0
   36.0260   30.3890   40.6120 C   0  0  0  0  0  0  0  0  0  0  0  0
   36.1820   30.7500   41.6230 H   0  0  0  0  0  0  0  0  0  0  0  0
   35.0140   29.4580   40.4780 C   0  0  0  0  0  3  0  0  0  0  0  0
   34.7290   28.9280   39.2340 C   0  0  0  0  0  3  0  0  0  0  0  0
   35.4700   29.3530   38.1600 C   0  0  0  0  0  0  0  0  0  0  0  0
   35.2190   28.8490   36.8870 C   0  0  0  0  0  3  0  0  0  0  0  0
   35.9860   29.2970   35.8210 C   0  0  0  0  0  3  0  0  0  0  0  0
   37.0000   30.2360   35.9790 C   0  0  0  0  0  3  0  0  0  0  0  0
   37.2680   30.7540   37.2410 C   0  0  0  0  0  3  0  0  0  0  0  0
   36.4830   30.2800   38.2700 C   0  0  0  0  0  0  0  0  0  0  0  0
   39.4890   30.0760   40.1490 C   0  0  0  0  0  0  0  0  0  0  0  0
   38.5800   29.5020   39.8110 H   0  0  0  0  0  0  0  0  0  0  0  0
   40.2730   29.8130   39.4020 H   0  0  0  0  0  0  0  0  0  0  0  0
   39.8490   29.6090   41.5420 C   0  0  0  0  0  0  0  0  0  0  0  0
   39.8790   30.4810   42.2370 H   0  0  0  0  0  0  0  0  0  0  0  0
   40.8270   29.0880   41.4840 H   0  0  0  0  0  0  0  0  0  0  0  0
   37.3170   26.8270   41.7110 C   0  0  0  0  0  0  0  0  0  0  0  0
   38.3500   27.6670   41.2070 C   0  0  0  0  0  0  0  0  0  0  0  0
   38.7750   28.7150   42.0360 C   0  0  0  0  0  0  0  0  0  0  0  0
   38.1770   28.8680   43.2730 N   0  0  0  0  0  0  0  0  0  0  0  0
   37.2110   28.0370   43.6800 C   0  0  0  0  0  0  0  0  0  0  0  0
   36.7790   27.0240   42.9130 N   0  0  0  0  0  0  0  0  0  0  0  0
   36.9450   26.0010   41.1230 H   0  0  0  0  0  0  0  0  0  0  0  0
   38.7730   27.4880   40.2270 H   0  0  0  0  0  0  0  0  0  0  0  0
   36.8760   28.3330   44.6800 H   0  0  0  0  0  0  0  0  0  0  0  0
  1 22  1  0  0  0  0
  1  2  1  0  0  0  0
  2  7  1  0  0  0  0
  3  2  2  0  0  0  0
  3  8  1  0  0  0  0
  4  3  1  0  0  0  0
  5  6  1  0  0  0  0
  5  4  2  0  0  0  0
  6  1  2  0  0  0  0
  9  4  1  0  0  0  0
 10  5  1  0  0  0  0
 11  6  1  0  0  0  0
 11 12  1  0  0  0  0
 12 13  1  0  0  0  0
 14 12  2  0  0  0  0
 15 14  1  0  0  0  0
 16 21  1  0  0  0  0
 16 15  2  0  0  0  0
 17 16  1  0  0  0  0
 18 19  1  0  0  0  0
 18 17  2  0  0  0  0
 19 20  2  0  0  0  0
 20 21  1  0  0  0  0
 21 11  2  0  0  0  0
 22 25  1  0  0  0  0
 23 22  1  0  0  0  0
 24 22  1  0  0  0  0
 25 30  1  0  0  0  0
 25 26  1  0  0  0  0
 27 25  1  0  0  0  0
 28 33  1  0  0  0  0
 29 28  2  0  0  0  0
 29 30  1  0  0  0  0
 30 31  2  0  0  0  0
 31 32  1  0  0  0  0
 32 36  1  0  0  0  0
 33 32  2  0  0  0  0
 34 28  1  0  0  0  0
 35 29  1  0  0  0  0
M  END
>  <minimizedAffinity>
-6.21657753

$$$$

 OpenBabel03252508223D

 36 39  0  0  0  0  0  0  0  0999 V2000
   36.4460   28.9700   37.9090 C   0  0  0  0  0  0  0  0  0  0  0  0
   35.7300   29.2070   36.7650 C   0  0  0  0  0  0  0  0  0  0  0  0
   34.3450   29.1940   36.6730 C   0  0  0  0  0  0  0  0  0  0  0  0
   33.6580   28.9140   37.8600 C   0  0  0  0  0  0  0  0  0  0  0  0
   34.3680   28.6690   39.0360 C   0  0  0  0  0  0  0  0  0  0  0  0
   35.7540   28.6920   39.0810 C   0  0  0  0  0  0  0  0  0  0  0  0
   36.2490   29.4240   35.8480 H   0  0  0  0  0  0  0  0  0  0  0  0
   33.8380   29.3880   35.7450 H   0  0  0  0  0  0  0  0  0  0  0  0
   32.5750   28.8970   37.8170 H   0  0  0  0  0  0  0  0  0  0  0  0
   33.7570   28.4580   39.9160 H   0  0  0  0  0  0  0  0  0  0  0  0
   36.3810   28.4210   40.3680 C   0  0  0  0  0  0  0  0  0  0  0  0
   36.5640   29.5200   41.1820 C   0  0  0  0  0  0  0  0  0  0  0  0
   36.2710   30.5280   40.9090 H   0  0  0  0  0  0  0  0  0  0  0  0
   37.1470   29.4030   42.4290 C   0  0  0  0  0  3  0  0  0  0  0  0
   37.5600   28.1640   42.8810 C   0  0  0  0  0  3  0  0  0  0  0  0
   37.3730   27.0780   42.0640 C   0  0  0  0  0  0  0  0  0  0  0  0
   37.7720   25.8100   42.4760 C   0  0  0  0  0  3  0  0  0  0  0  0
   37.5710   24.7300   41.6270 C   0  0  0  0  0  3  0  0  0  0  0  0
   36.9810   24.8710   40.3750 C   0  0  0  0  0  3  0  0  0  0  0  0
   36.5740   26.1280   39.9430 C   0  0  0  0  0  3  0  0  0  0  0  0
   36.7940   27.1710   40.8170 C   0  0  0  0  0  0  0  0  0  0  0  0
   37.9020   28.9950   37.9810 C   0  0  0  0  0  0  0  0  0  0  0  0
   38.1700   28.8490   39.0660 H   0  0  0  0  0  0  0  0  0  0  0  0
   38.3790   28.1320   37.4610 H   0  0  0  0  0  0  0  0  0  0  0  0
   38.4760   30.3200   37.5310 C   0  0  0  0  0  0  0  0  0  0  0  0
   37.8130   30.7770   36.7590 H   0  0  0  0  0  0  0  0  0  0  0  0
   39.4990   30.1340   37.1440 H   0  0  0  0  0  0  0  0  0  0  0  0
   37.5330   33.1280   39.8570 C   0  0  0  0  0  0  0  0  0  0  0  0
   37.4970   32.2490   38.7370 C   0  0  0  0  0  0  0  0  0  0  0  0
   38.4830   31.2520   38.6840 C   0  0  0  0  0  0  0  0  0  0  0  0
   39.4150   31.1830   39.7030 N   0  0  0  0  0  0  0  0  0  0  0  0
   39.3850   32.0460   40.7250 C   0  0  0  0  0  0  0  0  0  0  0  0
   38.4570   33.0120   40.8090 N   0  0  0  0  0  0  0  0  0  0  0  0
   36.8020   33.9160   39.9590 H   0  0  0  0  0  0  0  0  0  0  0  0
   36.7380   32.3620   37.9750 H   0  0  0  0  0  0  0  0  0  0  0  0
   40.2040   31.8180   41.4150 H   0  0  0  0  0  0  0  0  0  0  0  0
  1 22  1  0  0  0  0
  1  6  1  0  0  0  0
  2  1  2  0  0  0  0
  3  2  1  0  0  0  0
  3  4  2  0  0  0  0
  4  5  1  0  0  0  0
  5  6  2  0  0  0  0
  5 10  1  0  0  0  0
  6 11  1  0  0  0  0
  7  2  1  0  0  0  0
  8  3  1  0  0  0  0
  9  4  1  0  0  0  0
 11 21  2  0  0  0  0
 11 12  1  0  0  0  0
 12 14  2  0  0  0  0
 13 12  1  0  0  0  0
 14 15  1  0  0  0  0
 16 17  1  0  0  0  0
 16 15  2  0  0  0  0
 18 17  2  0  0  0  0
 19 18  1  0  0  0  0
 20 19  2  0  0  0  0
 20 21  1  0  0  0  0
 21 16  1  0  0  0  0
 22 23  1  0  0  0  0
 24 22  1  0  0  0  0
 25 22  1  0  0  0  0
 25 30  1  0  0  0  0
 26 25  1  0  0  0  0
 27 25  1  0  0  0  0
 28 34  1  0  0  0  0
 28 33  1  0  0  0  0
 29 28  2  0  0  0  0
 30 29  1  0  0  0  0
 30 31  2  0  0  0  0
 31 32  1  0  0  0  0
 32 33  2  0  0  0  0
 32 36  1  0  0  0  0
 35 29  1  0  0  0  0
M  END
>  <minimizedAffinity>
-5.95144701

$$$$

 OpenBabel03252508223D

 36 39  0  0  0  0  0  0  0  0999 V2000
   35.9960   29.9110   38.7120 C   0  0  0  0  0  0  0  0  0  0  0  0
   35.3370   29.0990   37.8290 C   0  0  0  0  0  0  0  0  0  0  0  0
   35.6000   29.0190   36.4670 C   0  0  0  0  0  0  0  0  0  0  0  0
   36.6230   29.8490   35.9950 C   0  0  0  0  0  0  0  0  0  0  0  0
   37.3070   30.6850   36.8780 C   0  0  0  0  0  0  0  0  0  0  0  0
   37.0100   30.7310   38.2320 C   0  0  0  0  0  0  0  0  0  0  0  0
   34.5490   28.4560   38.1820 H   0  0  0  0  0  0  0  0  0  0  0  0
   35.0470   28.3600   35.8230 H   0  0  0  0  0  0  0  0  0  0  0  0
   36.8490   29.8080   34.9350 H   0  0  0  0  0  0  0  0  0  0  0  0
   38.0900   31.3000   36.4290 H   0  0  0  0  0  0  0  0  0  0  0  0
   37.7950   31.6450   39.0530 C   0  0  0  0  0  0  0  0  0  0  0  0
   37.2450   32.8960   39.2380 C   0  0  0  0  0  0  0  0  0  0  0  0
   36.2960   33.2060   38.8140 H   0  0  0  0  0  0  0  0  0  0  0  0
   37.8840   33.8590   39.9950 C   0  0  0  0  0  3  0  0  0  0  0  0
   39.1010   33.5740   40.5840 C   0  0  0  0  0  3  0  0  0  0  0  0
   39.6390   32.3260   40.3940 C   0  0  0  0  0  0  0  0  0  0  0  0
   40.8620   31.9920   40.9670 C   0  0  0  0  0  3  0  0  0  0  0  0
   41.3820   30.7220   40.7560 C   0  0  0  0  0  3  0  0  0  0  0  0
   40.7200   29.7680   39.9900 C   0  0  0  0  0  3  0  0  0  0  0  0
   39.4970   30.0790   39.4090 C   0  0  0  0  0  3  0  0  0  0  0  0
   39.0200   31.3510   39.6440 C   0  0  0  0  0  0  0  0  0  0  0  0
   35.7050   29.9710   40.1400 C   0  0  0  0  0  0  0  0  0  0  0  0
   36.5110   30.6110   40.6020 H   0  0  0  0  0  0  0  0  0  0  0  0
   34.7590   30.5140   40.3690 H   0  0  0  0  0  0  0  0  0  0  0  0
   35.7560   28.6080   40.7930 C   0  0  0  0  0  0  0  0  0  0  0  0
   35.7940   27.8150   40.0100 H   0  0  0  0  0  0  0  0  0  0  0  0
   34.8620   28.5100   41.4440 H   0  0  0  0  0  0  0  0  0  0  0  0
   38.6280   29.4520   43.0770 C   0  0  0  0  0  0  0  0  0  0  0  0
   37.4130   29.5920   42.3480 C   0  0  0  0  0  0  0  0  0  0  0  0
   37.0160   28.4970   41.5660 C   0  0  0  0  0  0  0  0  0  0  0  0
   37.8120   27.3670   41.5500 N   0  0  0  0  0  0  0  0  0  0  0  0
   38.9420   27.3090   42.2630 C   0  0  0  0  0  0  0  0  0  0  0  0
   39.3540   28.3370   43.0220 N   0  0  0  0  0  0  0  0  0  0  0  0
   38.9910   30.2570   43.6990 H   0  0  0  0  0  0  0  0  0  0  0  0
   36.8400   30.5070   42.4070 H   0  0  0  0  0  0  0  0  0  0  0  0
   39.4180   26.3340   42.1100 H   0  0  0  0  0  0  0  0  0  0  0  0
  1 22  1  0  0  0  0
  2  7  1  0  0  0  0
  2  1  2  0  0  0  0
  3  2  1  0  0  0  0
  4  3  2  0  0  0  0
  4  5  1  0  0  0  0
  5  6  2  0  0  0  0
  6  1  1  0  0  0  0
  6 11  1  0  0  0  0
  8  3  1  0  0  0  0
  9  4  1  0  0  0  0
 10  5  1  0  0  0  0
 11 12  2  0  0  0  0
 11 21  1  0  0  0  0
 12 14  1  0  0  0  0
 13 12  1  0  0  0  0
 14 15  2  0  0  0  0
 16 15  1  0  0  0  0
 16 17  1  0  0  0  0
 18 17  2  0  0  0  0
 19 18  1  0  0  0  0
 20 21  1  0  0  0  0
 20 19  2  0  0  0  0
 21 16  2  0  0  0  0
 22 24  1  0  0  0  0
 22 23  1  0  0  0  0
 22 25  1  0  0  0  0
 25 27  1  0  0  0  0
 25 30  1  0  0  0  0
 26 25  1  0  0  0  0
 28 34  1  0  0  0  0
 29 35  1  0  0  0  0
 29 28  2  0  0  0  0
 30 29  1  0  0  0  0
 31 30  2  0  0  0  0
 31 32  1  0  0  0  0
 32 33  2  0  0  0  0
 33 28  1  0  0  0  0
 36 32  1  0  0  0  0
M  END
>  <minimizedAffinity>
-5.93493366

$$$$

 OpenBabel03252508223D

 36 39  0  0  0  0  0  0  0  0999 V2000
   37.0870   26.2370   41.9280 C   0  0  0  0  0  0  0  0  0  0  0  0
   37.0360   24.8870   42.1460 C   0  0  0  0  0  0  0  0  0  0  0  0
   36.7600   23.9310   41.1780 C   0  0  0  0  0  0  0  0  0  0  0  0
   36.5200   24.4210   39.8890 C   0  0  0  0  0  0  0  0  0  0  0  0
   36.5670   25.7940   39.6450 C   0  0  0  0  0  0  0  0  0  0  0  0
   36.8470   26.7130   40.6450 C   0  0  0  0  0  0  0  0  0  0  0  0
   37.2200   24.4990   43.1340 H   0  0  0  0  0  0  0  0  0  0  0  0
   36.7340   22.8810   41.4100 H   0  0  0  0  0  0  0  0  0  0  0  0
   36.3010   23.6970   39.1130 H   0  0  0  0  0  0  0  0  0  0  0  0
   36.3670   26.0930   38.6140 H   0  0  0  0  0  0  0  0  0  0  0  0
   36.8670   28.1210   40.2670 C   0  0  0  0  0  0  0  0  0  0  0  0
   35.6900   28.8080   40.4790 C   0  0  0  0  0  0  0  0  0  0  0  0
   34.7960   28.3590   40.8970 H   0  0  0  0  0  0  0  0  0  0  0  0
   35.5730   30.1490   40.1640 C   0  0  0  0  0  3  0  0  0  0  0  0
   36.6510   30.8250   39.6240 C   0  0  0  0  0  3  0  0  0  0  0  0
   37.8170   30.1310   39.4180 C   0  0  0  0  0  0  0  0  0  0  0  0
   38.9290   30.7680   38.8770 C   0  0  0  0  0  3  0  0  0  0  0  0
   40.0940   30.0410   38.6790 C   0  0  0  0  0  3  0  0  0  0  0  0
   40.1890   28.6910   39.0030 C   0  0  0  0  0  3  0  0  0  0  0  0
   39.0910   28.0340   39.5450 C   0  0  0  0  0  3  0  0  0  0  0  0
   37.9560   28.7950   39.7240 C   0  0  0  0  0  0  0  0  0  0  0  0
   37.3850   27.2210   42.9620 C   0  0  0  0  0  0  0  0  0  0  0  0
   37.2640   28.2340   42.4830 H   0  0  0  0  0  0  0  0  0  0  0  0
   36.6410   27.2200   43.7930 H   0  0  0  0  0  0  0  0  0  0  0  0
   38.8060   27.1090   43.4680 C   0  0  0  0  0  0  0  0  0  0  0  0
   39.3160   26.2490   42.9740 H   0  0  0  0  0  0  0  0  0  0  0  0
   38.7660   26.9920   44.5710 H   0  0  0  0  0  0  0  0  0  0  0  0
   39.5970   30.6890   42.6130 C   0  0  0  0  0  0  0  0  0  0  0  0
   38.8520   29.5400   43.0000 C   0  0  0  0  0  0  0  0  0  0  0  0
   39.5520   28.3260   43.0690 C   0  0  0  0  0  0  0  0  0  0  0  0
   40.9000   28.3180   42.7630 N   0  0  0  0  0  0  0  0  0  0  0  0
   41.5330   29.4400   42.4070 C   0  0  0  0  0  0  0  0  0  0  0  0
   40.8960   30.6190   42.3300 N   0  0  0  0  0  0  0  0  0  0  0  0
   39.1180   31.6550   42.5410 H   0  0  0  0  0  0  0  0  0  0  0  0
   37.7970   29.6200   43.2250 H   0  0  0  0  0  0  0  0  0  0  0  0
   42.5870   29.2150   42.2090 H   0  0  0  0  0  0  0  0  0  0  0  0
  1  2  1  0  0  0  0
  1 22  1  0  0  0  0
  2  7  1  0  0  0  0
  3  8  1  0  0  0  0
  3  2  2  0  0  0  0
  4  3  1  0  0  0  0
  5  4  2  0  0  0  0
  5  6  1  0  0  0  0
  6  1  2  0  0  0  0
  9  4  1  0  0  0  0
 10  5  1  0  0  0  0
 11 12  1  0  0  0  0
 11  6  1  0  0  0  0
 12 13  1  0  0  0  0
 14 12  2  0  0  0  0
 15 14  1  0  0  0  0
 16 15  2  0  0  0  0
 16 21  1  0  0  0  0
 17 16  1  0  0  0  0
 18 17  2  0  0  0  0
 18 19  1  0  0  0  0
 19 20  2  0  0  0  0
 20 21  1  0  0  0  0
 21 11  2  0  0  0  0
 22 25  1  0  0  0  0
 22 24  1  0  0  0  0
 23 22  1  0  0  0  0
 25 27  1  0  0  0  0
 26 25  1  0  0  0  0
 28 29  1  0  0  0  0
 29 30  2  0  0  0  0
 29 35  1  0  0  0  0
 30 25  1  0  0  0  0
 31 30  1  0  0  0  0
 32 31  2  0  0  0  0
 33 32  1  0  0  0  0
 33 28  2  0  0  0  0
 34 28  1  0  0  0  0
 36 32  1  0  0  0  0
M  END
>  <minimizedAffinity>
-5.84887314

$$$$

 OpenBabel03252508223D

 36 39  0  0  0  0  0  0  0  0999 V2000
   36.3520   27.6070   38.9260 C   0  0  0  0  0  0  0  0  0  0  0  0
   35.5160   27.5140   37.8460 C   0  0  0  0  0  0  0  0  0  0  0  0
   34.3010   28.1740   37.7160 C   0  0  0  0  0  0  0  0  0  0  0  0
   33.9330   28.9890   38.7930 C   0  0  0  0  0  0  0  0  0  0  0  0
   34.7710   29.0970   39.9040 C   0  0  0  0  0  0  0  0  0  0  0  0
   35.9770   28.4180   39.9890 C   0  0  0  0  0  0  0  0  0  0  0  0
   35.7900   26.8900   37.0120 H   0  0  0  0  0  0  0  0  0  0  0  0
   33.6870   28.0600   36.8410 H   0  0  0  0  0  0  0  0  0  0  0  0
   32.9890   29.5160   38.7190 H   0  0  0  0  0  0  0  0  0  0  0  0
   34.4100   29.7520   40.7000 H   0  0  0  0  0  0  0  0  0  0  0  0
   36.7640   28.6130   41.2010 C   0  0  0  0  0  0  0  0  0  0  0  0
   36.4180   27.8080   42.2670 C   0  0  0  0  0  0  0  0  0  0  0  0
   35.6210   27.0730   42.2350 H   0  0  0  0  0  0  0  0  0  0  0  0
   37.0840   27.8890   43.4750 C   0  0  0  0  0  3  0  0  0  0  0  0
   38.1180   28.7930   43.6310 C   0  0  0  0  0  3  0  0  0  0  0  0
   38.4530   29.5880   42.5640 C   0  0  0  0  0  0  0  0  0  0  0  0
   39.4880   30.5120   42.6720 C   0  0  0  0  0  3  0  0  0  0  0  0
   39.8030   31.3030   41.5760 C   0  0  0  0  0  3  0  0  0  0  0  0
   39.1200   31.2040   40.3680 C   0  0  0  0  0  3  0  0  0  0  0  0
   38.0830   30.2880   40.2370 C   0  0  0  0  0  3  0  0  0  0  0  0
   37.8040   29.5240   41.3500 C   0  0  0  0  0  0  0  0  0  0  0  0
   37.6270   26.9070   39.0350 C   0  0  0  0  0  0  0  0  0  0  0  0
   38.0230   26.8020   37.9850 H   0  0  0  0  0  0  0  0  0  0  0  0
   38.4070   27.5020   39.5650 H   0  0  0  0  0  0  0  0  0  0  0  0
   37.4720   25.5200   39.6180 C   0  0  0  0  0  0  0  0  0  0  0  0
   37.7610   24.7570   38.8590 H   0  0  0  0  0  0  0  0  0  0  0  0
   36.4170   25.4050   39.9450 H   0  0  0  0  0  0  0  0  0  0  0  0
   40.4160   26.0580   41.9030 C   0  0  0  0  0  0  0  0  0  0  0  0
   39.5250   26.2300   40.8060 C   0  0  0  0  0  0  0  0  0  0  0  0
   38.4190   25.3700   40.7480 C   0  0  0  0  0  0  0  0  0  0  0  0
   38.2610   24.4220   41.7420 N   0  0  0  0  0  0  0  0  0  0  0  0
   39.1410   24.3200   42.7440 C   0  0  0  0  0  0  0  0  0  0  0  0
   40.2110   25.1260   42.8320 N   0  0  0  0  0  0  0  0  0  0  0  0
   41.2870   26.6880   42.0070 H   0  0  0  0  0  0  0  0  0  0  0  0
   39.7120   26.9930   40.0620 H   0  0  0  0  0  0  0  0  0  0  0  0
   38.8320   23.5130   43.4180 H   0  0  0  0  0  0  0  0  0  0  0  0
  1 22  1  0  0  0  0
  1  6  1  0  0  0  0
  2  1  2  0  0  0  0
  3  2  1  0  0  0  0
  3  4  2  0  0  0  0
  4  5  1  0  0  0  0
  5  6  2  0  0  0  0
  5 10  1  0  0  0  0
  6 11  1  0  0  0  0
  7  2  1  0  0  0  0
  8  3  1  0  0  0  0
  9  4  1  0  0  0  0
 11 21  2  0  0  0  0
 11 12  1  0  0  0  0
 12 14  2  0  0  0  0
 13 12  1  0  0  0  0
 14 15  1  0  0  0  0
 16 17  1  0  0  0  0
 16 15  2  0  0  0  0
 18 17  2  0  0  0  0
 19 18  1  0  0  0  0
 20 19  2  0  0  0  0
 20 21  1  0  0  0  0
 21 16  1  0  0  0  0
 22 24  1  0  0  0  0
 22 25  1  0  0  0  0
 23 22  1  0  0  0  0
 25 27  1  0  0  0  0
 25 30  1  0  0  0  0
 26 25  1  0  0  0  0
 28 34  1  0  0  0  0
 28 33  1  0  0  0  0
 29 28  2  0  0  0  0
 30 29  1  0  0  0  0
 30 31  2  0  0  0  0
 31 32  1  0  0  0  0
 32 33  2  0  0  0  0
 32 36  1  0  0  0  0
 35 29  1  0  0  0  0
M  END
>  <minimizedAffinity>
-5.80433702

$$$$

 OpenBabel03252508223D

 36 39  0  0  0  0  0  0  0  0999 V2000
   33.6030   28.0690   36.9390 C   0  0  0  0  0  0  0  0  0  0  0  0
   34.0260   26.7900   37.1810 C   0  0  0  0  0  0  0  0  0  0  0  0
   33.3840   25.6400   36.7400 C   0  0  0  0  0  0  0  0  0  0  0  0
   32.2180   25.8420   35.9930 C   0  0  0  0  0  0  0  0  0  0  0  0
   31.7690   27.1380   35.7360 C   0  0  0  0  0  0  0  0  0  0  0  0
   32.4440   28.2580   36.1970 C   0  0  0  0  0  0  0  0  0  0  0  0
   34.9220   26.6240   37.7530 H   0  0  0  0  0  0  0  0  0  0  0  0
   33.7650   24.6600   36.9620 H   0  0  0  0  0  0  0  0  0  0  0  0
   31.6950   24.9610   35.6360 H   0  0  0  0  0  0  0  0  0  0  0  0
   30.8520   27.2080   35.1480 H   0  0  0  0  0  0  0  0  0  0  0  0
   31.8770   29.5590   35.8640 C   0  0  0  0  0  0  0  0  0  0  0  0
   32.2590   30.0770   34.6440 C   0  0  0  0  0  0  0  0  0  0  0  0
   32.9340   29.5730   33.9590 H   0  0  0  0  0  0  0  0  0  0  0  0
   31.7950   31.3020   34.2040 C   0  0  0  0  0  3  0  0  0  0  0  0
   30.9300   32.0330   34.9960 C   0  0  0  0  0  3  0  0  0  0  0  0
   30.5560   31.5080   36.2080 C   0  0  0  0  0  0  0  0  0  0  0  0
   29.6860   32.2070   37.0390 C   0  0  0  0  0  3  0  0  0  0  0  0
   29.3270   31.6520   38.2590 C   0  0  0  0  0  3  0  0  0  0  0  0
   29.8060   30.4160   38.6810 C   0  0  0  0  0  3  0  0  0  0  0  0
   30.6750   29.7000   37.8670 C   0  0  0  0  0  3  0  0  0  0  0  0
   31.0060   30.2900   36.6650 C   0  0  0  0  0  0  0  0  0  0  0  0
   34.2990   29.2620   37.4090 C   0  0  0  0  0  0  0  0  0  0  0  0
   34.2050   30.0290   36.5890 H   0  0  0  0  0  0  0  0  0  0  0  0
   33.8050   29.7370   38.2880 H   0  0  0  0  0  0  0  0  0  0  0  0
   35.7710   29.0100   37.6490 C   0  0  0  0  0  0  0  0  0  0  0  0
   36.3800   29.6590   36.9760 H   0  0  0  0  0  0  0  0  0  0  0  0
   35.9640   27.9310   37.4740 H   0  0  0  0  0  0  0  0  0  0  0  0
   36.3170   28.8690   41.3720 C   0  0  0  0  0  0  0  0  0  0  0  0
   35.9900   28.4500   40.0510 C   0  0  0  0  0  0  0  0  0  0  0  0
   36.1040   29.4120   39.0360 C   0  0  0  0  0  0  0  0  0  0  0  0
   36.5190   30.6870   39.3720 N   0  0  0  0  0  0  0  0  0  0  0  0
   36.8100   31.0070   40.6370 C   0  0  0  0  0  0  0  0  0  0  0  0
   36.7120   30.1140   41.6340 N   0  0  0  0  0  0  0  0  0  0  0  0
   36.2510   28.1780   42.1990 H   0  0  0  0  0  0  0  0  0  0  0  0
   35.6700   27.4340   39.8610 H   0  0  0  0  0  0  0  0  0  0  0  0
   37.1160   32.0580   40.6840 H   0  0  0  0  0  0  0  0  0  0  0  0
  1  2  1  0  0  0  0
  1 22  1  0  0  0  0
  2  7  1  0  0  0  0
  3  8  1  0  0  0  0
  3  2  2  0  0  0  0
  4  3  1  0  0  0  0
  5  4  2  0  0  0  0
  5  6  1  0  0  0  0
  6  1  2  0  0  0  0
  9  4  1  0  0  0  0
 10  5  1  0  0  0  0
 11  6  1  0  0  0  0
 11 21  1  0  0  0  0
 12 11  2  0  0  0  0
 13 12  1  0  0  0  0
 14 12  1  0  0  0  0
 14 15  2  0  0  0  0
 15 16  1  0  0  0  0
 16 21  2  0  0  0  0
 16 17  1  0  0  0  0
 17 18  2  0  0  0  0
 18 19  1  0  0  0  0
 20 19  2  0  0  0  0
 21 20  1  0  0  0  0
 22 25  1  0  0  0  0
 22 24  1  0  0  0  0
 23 22  1  0  0  0  0
 25 30  1  0  0  0  0
 26 25  1  0  0  0  0
 27 25  1  0  0  0  0
 28 33  1  0  0  0  0
 28 34  1  0  0  0  0
 29 28  2  0  0  0  0
 30 31  2  0  0  0  0
 30 29  1  0  0  0  0
 31 32  1  0  0  0  0
 32 36  1  0  0  0  0
 32 33  2  0  0  0  0
 35 29  1  0  0  0  0
M  END
>  <minimizedAffinity>
-5.80252934

$$$$

 OpenBabel03252508223D

 36 39  0  0  0  0  0  0  0  0999 V2000
   41.2340   28.3340   41.4120 C   0  0  0  0  0  0  0  0  0  0  0  0
   42.5700   28.6330   41.3920 C   0  0  0  0  0  0  0  0  0  0  0  0
   43.4420   28.4660   42.4600 C   0  0  0  0  0  0  0  0  0  0  0  0
   42.8780   27.9510   43.6320 C   0  0  0  0  0  0  0  0  0  0  0  0
   41.5180   27.6410   43.6750 C   0  0  0  0  0  0  0  0  0  0  0  0
   40.6840   27.8240   42.5820 C   0  0  0  0  0  0  0  0  0  0  0  0
   43.0140   29.0280   40.4950 H   0  0  0  0  0  0  0  0  0  0  0  0
   44.4840   28.7190   42.3830 H   0  0  0  0  0  0  0  0  0  0  0  0
   43.5360   27.8110   44.4830 H   0  0  0  0  0  0  0  0  0  0  0  0
   41.1580   27.2450   44.6260 H   0  0  0  0  0  0  0  0  0  0  0  0
   39.2820   27.4620   42.7490 C   0  0  0  0  0  0  0  0  0  0  0  0
   38.4940   28.4120   43.3650 C   0  0  0  0  0  0  0  0  0  0  0  0
   38.8660   29.3710   43.7110 H   0  0  0  0  0  0  0  0  0  0  0  0
   37.1470   28.1980   43.5850 C   0  0  0  0  0  3  0  0  0  0  0  0
   36.5660   27.0100   43.1850 C   0  0  0  0  0  3  0  0  0  0  0  0
   37.3590   26.0720   42.5730 C   0  0  0  0  0  0  0  0  0  0  0  0
   36.8190   24.8610   42.1520 C   0  0  0  0  0  3  0  0  0  0  0  0
   37.6450   23.9310   41.5370 C   0  0  0  0  0  3  0  0  0  0  0  0
   39.0000   24.1680   41.3240 C   0  0  0  0  0  3  0  0  0  0  0  0
   39.5610   25.3710   41.7360 C   0  0  0  0  0  3  0  0  0  0  0  0
   38.7030   26.2640   42.3430 C   0  0  0  0  0  0  0  0  0  0  0  0
   40.3400   28.5130   40.2740 C   0  0  0  0  0  0  0  0  0  0  0  0
   40.9480   28.2870   39.3530 H   0  0  0  0  0  0  0  0  0  0  0  0
   39.5130   27.7660   40.2470 H   0  0  0  0  0  0  0  0  0  0  0  0
   39.8300   29.9330   40.1640 C   0  0  0  0  0  0  0  0  0  0  0  0
   40.0650   30.3410   39.1520 H   0  0  0  0  0  0  0  0  0  0  0  0
   40.3030   30.5270   40.9730 H   0  0  0  0  0  0  0  0  0  0  0  0
   36.2380   28.8410   39.8770 C   0  0  0  0  0  0  0  0  0  0  0  0
   37.6560   28.8220   39.7510 C   0  0  0  0  0  0  0  0  0  0  0  0
   38.3530   29.9200   40.2790 C   0  0  0  0  0  0  0  0  0  0  0  0
   37.6350   30.9370   40.8790 N   0  0  0  0  0  0  0  0  0  0  0  0
   36.3010   30.8840   40.9610 C   0  0  0  0  0  0  0  0  0  0  0  0
   35.6010   29.8510   40.4680 N   0  0  0  0  0  0  0  0  0  0  0  0
   35.6420   28.0270   39.4930 H   0  0  0  0  0  0  0  0  0  0  0  0
   38.1530   27.9920   39.2670 H   0  0  0  0  0  0  0  0  0  0  0  0
   35.9330   31.7830   41.4700 H   0  0  0  0  0  0  0  0  0  0  0  0
  1  6  1  0  0  0  0
  2  1  2  0  0  0  0
  2  3  1  0  0  0  0
  3  4  2  0  0  0  0
  4  5  1  0  0  0  0
  4  9  1  0  0  0  0
  5 10  1  0  0  0  0
  6 11  1  0  0  0  0
  6  5  2  0  0  0  0
  7  2  1  0  0  0  0
  8  3  1  0  0  0  0
 11 12  1  0  0  0  0
 12 14  2  0  0  0  0
 12 13  1  0  0  0  0
 15 14  1  0  0  0  0
 16 15  2  0  0  0  0
 17 16  1  0  0  0  0
 18 17  2  0  0  0  0
 19 18  1  0  0  0  0
 19 20  2  0  0  0  0
 20 21  1  0  0  0  0
 21 16  1  0  0  0  0
 21 11  2  0  0  0  0
 22  1  1  0  0  0  0
 23 22  1  0  0  0  0
 24 22  1  0  0  0  0
 25 22  1  0  0  0  0
 25 30  1  0  0  0  0
 25 27  1  0  0  0  0
 26 25  1  0  0  0  0
 28 33  1  0  0  0  0
 29 28  2  0  0  0  0
 29 30  1  0  0  0  0
 30 31  2  0  0  0  0
 31 32  1  0  0  0  0
 32 36  1  0  0  0  0
 33 32  2  0  0  0  0
 34 28  1  0  0  0  0
 35 29  1  0  0  0  0
M  END
>  <minimizedAffinity>
-5.79795074

$$$$

 OpenBabel03252508223D

 36 39  0  0  0  0  0  0  0  0999 V2000
   38.6230   29.7440   40.1460 C   0  0  0  0  0  0  0  0  0  0  0  0
   38.0540   30.8490   39.5730 C   0  0  0  0  0  0  0  0  0  0  0  0
   36.8660   31.4400   39.9840 C   0  0  0  0  0  0  0  0  0  0  0  0
   36.2270   30.8320   41.0700 C   0  0  0  0  0  0  0  0  0  0  0  0
   36.7900   29.7030   41.6690 C   0  0  0  0  0  0  0  0  0  0  0  0
   37.9800   29.1480   41.2240 C   0  0  0  0  0  0  0  0  0  0  0  0
   38.5380   31.3250   38.7380 H   0  0  0  0  0  0  0  0  0  0  0  0
   36.4680   32.3100   39.4930 H   0  0  0  0  0  0  0  0  0  0  0  0
   35.2970   31.2720   41.4120 H   0  0  0  0  0  0  0  0  0  0  0  0
   36.2280   29.2910   42.5090 H   0  0  0  0  0  0  0  0  0  0  0  0
   38.4670   27.9690   41.9300 C   0  0  0  0  0  0  0  0  0  0  0  0
   39.3840   28.2150   42.9310 C   0  0  0  0  0  0  0  0  0  0  0  0
   39.7370   29.2060   43.1960 H   0  0  0  0  0  0  0  0  0  0  0  0
   39.9260   27.1880   43.6800 C   0  0  0  0  0  3  0  0  0  0  0  0
   39.5490   25.8820   43.4280 C   0  0  0  0  0  3  0  0  0  0  0  0
   38.6360   25.6490   42.4310 C   0  0  0  0  0  0  0  0  0  0  0  0
   38.2260   24.3520   42.1420 C   0  0  0  0  0  3  0  0  0  0  0  0
   37.3010   24.1460   41.1270 C   0  0  0  0  0  3  0  0  0  0  0  0
   36.7680   25.1970   40.3860 C   0  0  0  0  0  3  0  0  0  0  0  0
   37.1640   26.5010   40.6570 C   0  0  0  0  0  3  0  0  0  0  0  0
   38.0830   26.6570   41.6730 C   0  0  0  0  0  0  0  0  0  0  0  0
   39.8760   29.1450   39.6990 C   0  0  0  0  0  0  0  0  0  0  0  0
   40.6640   29.9450   39.8010 H   0  0  0  0  0  0  0  0  0  0  0  0
   40.2290   28.3250   40.3660 H   0  0  0  0  0  0  0  0  0  0  0  0
   39.8230   28.7210   38.2490 C   0  0  0  0  0  0  0  0  0  0  0  0
   38.8600   29.0530   37.7930 H   0  0  0  0  0  0  0  0  0  0  0  0
   39.9430   27.6180   38.2130 H   0  0  0  0  0  0  0  0  0  0  0  0
   42.7650   29.3530   35.9870 C   0  0  0  0  0  0  0  0  0  0  0  0
   41.7390   28.6540   36.6830 C   0  0  0  0  0  0  0  0  0  0  0  0
   40.9010   29.4170   37.5080 C   0  0  0  0  0  0  0  0  0  0  0  0
   41.1170   30.7800   37.5960 N   0  0  0  0  0  0  0  0  0  0  0  0
   42.1030   31.3680   36.9100 C   0  0  0  0  0  0  0  0  0  0  0  0
   42.9240   30.6700   36.1110 N   0  0  0  0  0  0  0  0  0  0  0  0
   43.4450   28.8240   35.3340 H   0  0  0  0  0  0  0  0  0  0  0  0
   41.6300   27.5840   36.5670 H   0  0  0  0  0  0  0  0  0  0  0  0
   42.0990   32.4440   37.1200 H   0  0  0  0  0  0  0  0  0  0  0  0
  1  6  1  0  0  0  0
  2  3  1  0  0  0  0
  2  1  2  0  0  0  0
  3  4  2  0  0  0  0
  4  9  1  0  0  0  0
  4  5  1  0  0  0  0
  5 10  1  0  0  0  0
  6  5  2  0  0  0  0
  6 11  1  0  0  0  0
  7  2  1  0  0  0  0
  8  3  1  0  0  0  0
 11 12  1  0  0  0  0
 12 13  1  0  0  0  0
 12 14  2  0  0  0  0
 15 14  1  0  0  0  0
 16 15  2  0  0  0  0
 17 16  1  0  0  0  0
 18 17  2  0  0  0  0
 19 20  2  0  0  0  0
 19 18  1  0  0  0  0
 20 21  1  0  0  0  0
 21 11  2  0  0  0  0
 21 16  1  0  0  0  0
 22 23  1  0  0  0  0
 22  1  1  0  0  0  0
 22 24  1  0  0  0  0
 25 22  1  0  0  0  0
 26 25  1  0  0  0  0
 27 25  1  0  0  0  0
 28 33  2  0  0  0  0
 28 29  1  0  0  0  0
 29 30  2  0  0  0  0
 30 31  1  0  0  0  0
 30 25  1  0  0  0  0
 32 36  1  0  0  0  0
 32 31  2  0  0  0  0
 33 32  1  0  0  0  0
 34 28  1  0  0  0  0
 35 29  1  0  0  0  0
M  END
>  <minimizedAffinity>
-5.75254917

$$$$

 OpenBabel03252508223D

 36 39  0  0  0  0  0  0  0  0999 V2000
   37.0840   29.5140   41.1920 C   0  0  0  0  0  0  0  0  0  0  0  0
   35.7660   29.1630   41.0760 C   0  0  0  0  0  0  0  0  0  0  0  0
   35.0400   29.1650   39.8920 C   0  0  0  0  0  0  0  0  0  0  0  0
   35.7400   29.5650   38.7480 C   0  0  0  0  0  0  0  0  0  0  0  0
   37.0850   29.9280   38.8450 C   0  0  0  0  0  0  0  0  0  0  0  0
   37.7700   29.9090   40.0500 C   0  0  0  0  0  0  0  0  0  0  0  0
   35.2190   28.8530   41.9490 H   0  0  0  0  0  0  0  0  0  0  0  0
   34.0040   28.8780   39.8640 H   0  0  0  0  0  0  0  0  0  0  0  0
   35.1980   29.5770   37.8100 H   0  0  0  0  0  0  0  0  0  0  0  0
   37.5570   30.2270   37.9070 H   0  0  0  0  0  0  0  0  0  0  0  0
   39.1720   30.3090   40.0230 C   0  0  0  0  0  0  0  0  0  0  0  0
   40.0800   29.2800   39.8830 C   0  0  0  0  0  0  0  0  0  0  0  0
   39.7990   28.2360   39.7960 H   0  0  0  0  0  0  0  0  0  0  0  0
   41.4400   29.5210   39.8420 C   0  0  0  0  0  3  0  0  0  0  0  0
   41.9120   30.8160   39.9440 C   0  0  0  0  0  3  0  0  0  0  0  0
   41.0000   31.8320   40.0830 C   0  0  0  0  0  0  0  0  0  0  0  0
   41.4270   33.1520   40.1880 C   0  0  0  0  0  3  0  0  0  0  0  0
   40.4820   34.1580   40.3290 C   0  0  0  0  0  3  0  0  0  0  0  0
   39.1160   33.8920   40.3670 C   0  0  0  0  0  3  0  0  0  0  0  0
   38.6670   32.5820   40.2630 C   0  0  0  0  0  3  0  0  0  0  0  0
   39.6400   31.6150   40.1250 C   0  0  0  0  0  0  0  0  0  0  0  0
   37.8270   29.4970   42.4470 C   0  0  0  0  0  0  0  0  0  0  0  0
   38.8890   29.2240   42.1850 H   0  0  0  0  0  0  0  0  0  0  0  0
   37.9100   30.5030   42.9180 H   0  0  0  0  0  0  0  0  0  0  0  0
   37.3010   28.4560   43.4100 C   0  0  0  0  0  0  0  0  0  0  0  0
   36.2200   28.2680   43.2090 H   0  0  0  0  0  0  0  0  0  0  0  0
   37.4740   28.8290   44.4410 H   0  0  0  0  0  0  0  0  0  0  0  0
   39.9460   25.7770   43.4210 C   0  0  0  0  0  0  0  0  0  0  0  0
   39.2980   27.0180   43.6800 C   0  0  0  0  0  0  0  0  0  0  0  0
   38.0040   27.1760   43.1610 C   0  0  0  0  0  0  0  0  0  0  0  0
   37.4450   26.1360   42.4420 N   0  0  0  0  0  0  0  0  0  0  0  0
   38.1160   24.9970   42.2410 C   0  0  0  0  0  0  0  0  0  0  0  0
   39.3550   24.8100   42.7220 N   0  0  0  0  0  0  0  0  0  0  0  0
   40.9430   25.5910   43.7930 H   0  0  0  0  0  0  0  0  0  0  0  0
   39.7980   27.7900   44.2500 H   0  0  0  0  0  0  0  0  0  0  0  0
   37.4970   24.3100   41.6530 H   0  0  0  0  0  0  0  0  0  0  0  0
  1 22  1  0  0  0  0
  2  1  1  0  0  0  0
  2  7  1  0  0  0  0
  3  2  2  0  0  0  0
  4  5  2  0  0  0  0
  4  3  1  0  0  0  0
  5  6  1  0  0  0  0
  6  1  2  0  0  0  0
  8  3  1  0  0  0  0
  9  4  1  0  0  0  0
 10  5  1  0  0  0  0
 11  6  1  0  0  0  0
 11 21  1  0  0  0  0
 12 11  2  0  0  0  0
 13 12  1  0  0  0  0
 14 12  1  0  0  0  0
 14 15  2  0  0  0  0
 15 16  1  0  0  0  0
 16 21  2  0  0  0  0
 16 17  1  0  0  0  0
 17 18  2  0  0  0  0
 18 19  1  0  0  0  0
 20 19  2  0  0  0  0
 21 20  1  0  0  0  0
 22 24  1  0  0  0  0
 22 25  1  0  0  0  0
 23 22  1  0  0  0  0
 25 27  1  0  0  0  0
 26 25  1  0  0  0  0
 28 29  1  0  0  0  0
 28 34  1  0  0  0  0
 29 35  1  0  0  0  0
 30 25  1  0  0  0  0
 30 29  2  0  0  0  0
 31 30  1  0  0  0  0
 32 31  2  0  0  0  0
 32 33  1  0  0  0  0
 33 28  2  0  0  0  0
 36 32  1  0  0  0  0
M  END
>  <minimizedAffinity>
-5.69521713

$$$$
