REMARK  Name = 
REMARK  2 active torsions:
REMARK  status: ('A' for Active; 'I' for Inactive)
REMARK    1  A    between atoms: C_1  and  C_19
REMARK    2  A    between atoms: C_5  and  C_7
REMARK                            x       y       z     vdW  Elec       q    Type
REMARK                         _______ _______ _______ _____ _____    ______ ____
ROOT
ATOM      1  C   UNL     1      45.632  33.947  45.448  0.00  0.00    +0.000 A 
ATOM      2  C   UNL     1      44.719  34.976  45.690  0.00  0.00    +0.000 A 
ATOM      3  C   UNL     1      44.523  35.930  44.693  0.00  0.00    +0.000 A 
ATOM      4  N   UNL     1      45.233  35.812  43.525  0.00  0.00    +0.000 NA
ATOM      5  C   UNL     1      46.095  34.819  43.322  0.00  0.00    +0.000 A 
ATOM      6  N   UNL     1      46.274  33.919  44.275  0.00  0.00    +0.000 NA
ATOM      7  H   UNL     1      44.126  35.072  46.557  0.00  0.00    +0.000 HD
ATOM      8  H   UNL     1      43.829  36.735  44.851  0.00  0.00    +0.000 HD
ENDROOT
BRANCH   1   9
ATOM      9  C   UNL     1      45.925  32.824  46.315  0.00  0.00    +0.000 A 
ATOM     10  C   UNL     1      45.646  32.967  47.681  0.00  0.00    +0.000 A 
ATOM     11  H   UNL     1      45.235  33.903  48.062  0.00  0.00    +0.000 HD
ATOM     12  C   UNL     1      45.849  31.998  48.634  0.00  0.00    +0.000 A 
ATOM     13  C   UNL     1      46.364  30.778  48.260  0.00  0.00    +0.000 A 
ATOM     14  C   UNL     1      46.656  30.570  46.942  0.00  0.00    +0.000 A 
ATOM     15  C   UNL     1      47.138  29.351  46.516  0.00  0.00    +0.000 A 
ATOM     16  C   UNL     1      47.417  29.062  45.176  0.00  0.00    +0.000 A 
ATOM     17  C   UNL     1      47.169  30.114  44.286  0.00  0.00    +0.000 A 
ATOM     18  C   UNL     1      46.696  31.304  44.730  0.00  0.00    +0.000 A 
ATOM     19  C   UNL     1      46.427  31.580  46.045  0.00  0.00    +0.000 A 
ENDBRANCH   1   9
BRANCH   5  20
ATOM     20  C   UNL     1      46.831  34.726  42.062  0.00  0.00    +0.000 A 
ATOM     21  C   UNL     1      48.010  35.406  41.908  0.00  0.00    +0.000 A 
ATOM     22  C   UNL     1      48.779  35.387  40.757  0.00  0.00    +0.000 A 
ATOM     23  C   UNL     1      48.254  34.604  39.737  0.00  0.00    +0.000 A 
ATOM     24  C   UNL     1      47.061  33.910  39.880  0.00  0.00    +0.000 A 
ATOM     25  N   UNL     1      46.368  33.986  41.051  0.00  0.00    +0.000 NA
ATOM     26  H   UNL     1      48.367  36.005  42.753  0.00  0.00    +0.000 HD
ATOM     27  H   UNL     1      49.705  35.915  40.621  0.00  0.00    +0.000 HD
ATOM     28  H   UNL     1      48.791  34.528  38.791  0.00  0.00    +0.000 HD
ATOM     29  H   UNL     1      46.718  33.319  39.035  0.00  0.00    +0.000 HD
ENDBRANCH   5  20
TORSDOF 2
