REMARK  Name = 
REMARK  4 active torsions:
REMARK  status: ('A' for Active; 'I' for Inactive)
REMARK    1  A    between atoms: C_2  and  C_12
REMARK    2  A    between atoms: C_3  and  C_7
REMARK    3  A    between atoms: C_12  and  C_14
REMARK    4  A    between atoms: C_17  and  C_26
REMARK                            x       y       z     vdW  Elec       q    Type
REMARK                         _______ _______ _______ _____ _____    ______ ____
ROOT
ATOM      1  C   UNL     1      46.498  34.828  41.895  0.00  0.00    +0.000 C 
ATOM      2  O   UNL     1      47.693  35.237  41.832  0.00  0.00    +0.000 OA
ENDROOT
BRANCH   1   4
ATOM      3  C   UNL     1      45.218  36.181  43.494  0.00  0.00    +0.000 A 
ATOM      4  C   UNL     1      45.860  34.971  43.160  0.00  0.00    +0.000 A 
ATOM      5  C   UNL     1      45.806  33.993  44.133  0.00  0.00    +0.000 A 
ATOM      6  N   UNL     1      45.183  34.181  45.316  0.00  0.00    +0.000 NA
ATOM      7  C   UNL     1      44.578  35.361  45.596  0.00  0.00    +0.000 A 
ATOM      8  N   UNL     1      44.597  36.356  44.685  0.00  0.00    +0.000 NA
ATOM      9  H   UNL     1      45.210  37.012  42.786  0.00  0.00    +0.000 HD
ATOM     10  H   UNL     1      44.080  35.511  46.541  0.00  0.00    +0.000 HD
BRANCH   5  11
ATOM     11  C   UNL     1      46.426  32.758  43.884  0.00  0.00    +0.000 A 
ATOM     12  C   UNL     1      47.696  32.277  44.010  0.00  0.00    +0.000 A 
ATOM     13  C   UNL     1      48.052  31.042  43.709  0.00  0.00    +0.000 A 
ATOM     14  C   UNL     1      47.052  30.234  43.247  0.00  0.00    +0.000 A 
ATOM     15  S   UNL     1      45.564  31.331  43.263  0.00  0.00    +0.000 S 
ATOM     16  H   UNL     1      48.426  33.019  44.394  0.00  0.00    +0.000 HD
ATOM     17  H   UNL     1      49.033  30.599  43.785  0.00  0.00    +0.000 HD
ATOM     18  H   UNL     1      47.058  29.169  42.923  0.00  0.00    +0.000 HD
ENDBRANCH   5  11
ENDBRANCH   1   4
BRANCH   1  19
ATOM     19  C   UNL     1      45.756  34.227  40.749  0.00  0.00    +0.000 A 
ATOM     20  C   UNL     1      44.421  34.347  40.472  0.00  0.00    +0.000 A 
ATOM     21  N   UNL     1      44.214  33.638  39.352  0.00  0.00    +0.000 N 
ATOM     22  C   UNL     1      45.381  33.089  38.941  0.00  0.00    +0.000 A 
ATOM     23  N   UNL     1      46.303  33.465  39.811  0.00  0.00    +0.000 NA
ATOM     24  H   UNL     1      43.780  34.925  41.106  0.00  0.00    +0.000 HD
ATOM     25  H   UNL     1      43.250  33.612  38.985  0.00  0.00    +0.000 HD
BRANCH  22  26
ATOM     26  C   UNL     1      45.348  32.280  37.731  0.00  0.00    +0.000 A 
ATOM     27  C   UNL     1      46.297  32.399  36.740  0.00  0.00    +0.000 A 
ATOM     28  H   UNL     1      47.117  33.100  36.806  0.00  0.00    +0.000 HD
ATOM     29  C   UNL     1      46.311  31.659  35.578  0.00  0.00    +0.000 A 
ATOM     30  C   UNL     1      45.331  30.727  35.354  0.00  0.00    +0.000 A 
ATOM     31  C   UNL     1      44.359  30.560  36.301  0.00  0.00    +0.000 A 
ATOM     32  C   UNL     1      43.375  29.622  36.072  0.00  0.00    +0.000 A 
ATOM     33  C   UNL     1      42.372  29.407  36.983  0.00  0.00    +0.000 A 
ATOM     34  C   UNL     1      42.372  30.167  38.156  0.00  0.00    +0.000 A 
ATOM     35  C   UNL     1      43.383  31.087  38.324  0.00  0.00    +0.000 A 
ATOM     36  C   UNL     1      44.401  31.328  37.435  0.00  0.00    +0.000 A 
ENDBRANCH  22  26
ENDBRANCH   1  19
TORSDOF 4
