
 OpenBabel03242512093D

 35 38  0  0  1  0  0  0  0  0999 V2000
   48.2340   34.6430   41.3090 C   0  0  1  0  0  0  0  0  0  0  0  0
   48.8420   36.0030   41.8360 C   0  0  0  0  0  0  0  0  0  0  0  0
   49.1330   34.7040   42.4560 C   0  0  2  0  0  0  0  0  0  0  0  0
   48.6440   34.3610   40.3250 H   0  0  0  0  0  0  0  0  0  0  0  0
   48.1380   36.6770   42.3650 H   0  0  0  0  0  0  0  0  0  0  0  0
   49.5770   36.4830   41.1580 H   0  0  0  0  0  0  0  0  0  0  0  0
   48.6590   34.2900   43.3580 H   0  0  0  0  0  0  0  0  0  0  0  0
   46.7590   34.5870   41.5080 C   0  0  0  0  0  0  0  0  0  0  0  0
   46.0670   34.3250   40.5290 O   0  0  0  0  0  0  0  0  0  0  0  0
   45.3730   35.9220   43.0250 C   0  0  0  0  0  0  0  0  0  0  0  0
   46.1020   34.8130   42.7540 C   0  0  0  0  0  0  0  0  0  0  0  0
   46.1990   33.8340   43.7810 C   0  0  0  0  0  0  0  0  0  0  0  0
   45.5830   34.0220   44.9720 N   0  0  0  0  0  0  0  0  0  0  0  0
   44.8610   35.1600   45.1920 C   0  0  0  0  0  0  0  0  0  0  0  0
   44.7660   36.0740   44.2400 N   0  0  0  0  0  0  0  0  0  0  0  0
   45.3220   36.6460   42.2160 H   0  0  0  0  0  0  0  0  0  0  0  0
   46.7330   32.9280   43.6960 H   0  0  0  0  0  0  0  0  0  0  0  0
   44.3300   35.4150   46.0990 H   0  0  0  0  0  0  0  0  0  0  0  0
   50.4630   34.3110   42.3310 O   0  0  0  0  0  0  0  0  0  0  0  0
   49.6110   31.9500   42.9370 O   0  0  0  0  0  0  0  0  0  0  0  0
   50.4390   32.6700   41.8880 P   0  0  2  0  0  0  0  0  0  0  0  0
   51.9530   32.0020   41.7220 O   0  0  0  0  0  0  0  0  0  0  0  0
   52.2000   31.6080   42.5980 H   0  0  0  0  0  0  0  0  0  0  0  0
   49.5210   32.5260   40.4320 O   0  0  0  0  0  0  0  0  0  0  0  0
   49.8310   31.6490   39.4290 C   0  0  0  0  0  0  0  0  0  0  0  0
   50.4810   30.4490   39.4990 C   0  0  0  0  0  0  0  0  0  0  0  0
   50.7930   30.1600   40.5040 H   0  0  0  0  0  0  0  0  0  0  0  0
   50.7280   29.6610   38.3950 C   0  0  0  0  0  0  0  0  0  0  0  0
   50.3110   30.0740   37.1460 C   0  0  0  0  0  0  0  0  0  0  0  0
   49.6490   31.2910   37.0550 C   0  0  0  0  0  0  0  0  0  0  0  0
   49.2480   31.6690   35.7810 C   0  0  0  0  0  0  0  0  0  0  0  0
   48.5830   32.8700   35.6190 C   0  0  0  0  0  0  0  0  0  0  0  0
   48.3270   33.6710   36.7090 C   0  0  0  0  0  0  0  0  0  0  0  0
   48.7510   33.2370   37.9370 C   0  0  0  0  0  0  0  0  0  0  0  0
   49.4140   32.0620   38.1750 C   0  0  0  0  0  0  0  0  0  0  0  0
  1  4  1  6  0  0  0
  1  8  1  0  0  0  0
  1  2  1  0  0  0  0
  1  3  1  0  0  0  0
  2  5  1  0  0  0  0
  2  3  1  0  0  0  0
  3  7  1  1  0  0  0
  6  2  1  0  0  0  0
  8 11  1  0  0  0  0
  9  8  2  0  0  0  0
 10 15  1  0  0  0  0
 11 10  2  0  0  0  0
 11 12  1  0  0  0  0
 12 13  2  0  0  0  0
 13 14  1  0  0  0  0
 14 18  1  0  0  0  0
 15 14  2  0  0  0  0
 16 10  1  0  0  0  0
 17 12  1  0  0  0  0
 19  3  1  0  0  0  0
 21 19  1  0  0  0  0
 21 20  2  1  0  0  0
 22 21  1  0  0  0  0
 22 23  1  0  0  0  0
 24 21  1  0  0  0  0
 25 26  1  0  0  0  0
 25 24  1  0  0  0  0
 26 27  1  0  0  0  0
 28 26  2  0  0  0  0
 29 28  1  0  0  0  0
 30 29  2  0  0  0  0
 30 35  1  0  0  0  0
 31 30  1  0  0  0  0
 32 31  2  0  0  0  0
 32 33  1  0  0  0  0
 33 34  2  0  0  0  0
 34 35  1  0  0  0  0
 35 25  2  0  0  0  0
M  END
>  <minimizedAffinity>
-5.68233776

>  <minimizedRMSD>
1.30685973

$$$$
