REMARK  Name = 
REMARK  3 active torsions:
REMARK  status: ('A' for Active; 'I' for Inactive)
REMARK    1  A    between atoms: C_1  and  C_8
REMARK    2  A    between atoms: N_4  and  C_13
REMARK    3  A    between atoms: C_17  and  C_31
REMARK                            x       y       z     vdW  Elec       q    Type
REMARK                         _______ _______ _______ _____ _____    ______ ____
ROOT
ATOM      1  N   UNL     1      42.349  33.753  39.625  0.00  0.00    +0.000 NA
ATOM      2  C   UNL     1      42.231  33.943  41.087  0.00  0.00    +0.000 C 
ATOM      3  C   UNL     1      41.174  34.929  41.437  0.00  0.00    +0.000 C 
ATOM      4  N   UNL     1      40.326  35.260  40.320  0.00  0.00    +0.000 NA
ATOM      5  C   UNL     1      41.032  35.629  39.151  0.00  0.00    +0.000 C 
ATOM      6  C   UNL     1      42.465  35.083  39.082  0.00  0.00    +0.000 C 
ATOM      7  H   UNL     1      41.376  33.377  39.333  0.00  0.00    +0.000 HD
ATOM      8  H   UNL     1      41.937  32.961  41.533  0.00  0.00    +0.000 HD
ATOM      9  H   UNL     1      40.486  34.548  42.245  0.00  0.00    +0.000 HD
ATOM     10  H   UNL     1      41.518  35.936  41.738  0.00  0.00    +0.000 HD
ATOM     11  H   UNL     1      39.572  34.538  40.192  0.00  0.00    +0.000 HD
ATOM     12  H   UNL     1      41.083  36.721  38.973  0.00  0.00    +0.000 HD
ATOM     13  H   UNL     1      40.457  35.230  38.281  0.00  0.00    +0.000 HD
ATOM     14  H   UNL     1      43.111  35.721  39.762  0.00  0.00    +0.000 HD
ENDROOT
BRANCH   6  15
ATOM     15  C   UNL     1      42.839  35.252  37.687  0.00  0.00    +0.000 A 
ATOM     16  C   UNL     1      41.988  36.244  37.157  0.00  0.00    +0.000 A 
ATOM     17  H   UNL     1      41.195  36.850  37.630  0.00  0.00    +0.000 HD
ATOM     18  C   UNL     1      42.048  36.631  35.817  0.00  0.00    +0.000 A 
ATOM     19  C   UNL     1      42.960  36.038  34.972  0.00  0.00    +0.000 A 
ATOM     20  C   UNL     1      43.809  35.069  35.445  0.00  0.00    +0.000 A 
ATOM     21  C   UNL     1      44.768  34.411  34.714  0.00  0.00    +0.000 A 
ATOM     22  C   UNL     1      45.617  33.449  35.221  0.00  0.00    +0.000 A 
ATOM     23  C   UNL     1      45.466  33.145  36.579  0.00  0.00    +0.000 A 
ATOM     24  C   UNL     1      44.514  33.788  37.335  0.00  0.00    +0.000 A 
ATOM     25  C   UNL     1      43.702  34.732  36.768  0.00  0.00    +0.000 A 
ENDBRANCH   6  15
BRANCH   2  29
ATOM     26  C   UNL     1      45.629  34.619  42.053  0.00  0.00    +0.000 A 
ATOM     27  C   UNL     1      44.904  35.668  42.631  0.00  0.00    +0.000 A 
ATOM     28  C   UNL     1      43.558  35.518  42.339  0.00  0.00    +0.000 A 
ATOM     29  N   UNL     1      43.496  34.393  41.596  0.00  0.00    +0.000 N 
ATOM     30  N   UNL     1      44.704  33.882  41.440  0.00  0.00    +0.000 NA
ATOM     31  H   UNL     1      45.466  36.428  43.205  0.00  0.00    +0.000 HD
ATOM     32  H   UNL     1      42.996  36.326  42.792  0.00  0.00    +0.000 HD
BRANCH  26  35
ATOM     33  C   UNL     1      49.355  35.155  41.971  0.00  0.00    +0.000 A 
ATOM     34  C   UNL     1      47.967  35.460  41.831  0.00  0.00    +0.000 A 
ATOM     35  C   UNL     1      47.073  34.434  42.144  0.00  0.00    +0.000 A 
ATOM     36  N   UNL     1      47.544  33.234  42.552  0.00  0.00    +0.000 NA
ATOM     37  C   UNL     1      48.859  32.977  42.674  0.00  0.00    +0.000 A 
ATOM     38  N   UNL     1      49.736  33.937  42.383  0.00  0.00    +0.000 NA
ATOM     39  H   UNL     1      50.056  35.943  41.732  0.00  0.00    +0.000 HD
ATOM     40  H   UNL     1      47.596  36.417  41.505  0.00  0.00    +0.000 HD
ATOM     41  H   UNL     1      49.211  32.007  43.003  0.00  0.00    +0.000 HD
ENDBRANCH  26  35
ENDBRANCH   2  29
TORSDOF 3
