
 OpenBabel03252508263D

 43 48  0  0  1  0  0  0  0  0999 V2000
   46.6740   32.2600   45.7210 C   0  0  1  0  0  0  0  0  0  0  0  0
   46.8710   32.7080   47.1060 C   0  0  0  0  0  0  0  0  0  0  0  0
   45.5840   31.9320   46.6180 C   0  0  2  0  0  0  0  0  0  0  0  0
   47.5790   31.5900   45.4940 H   0  0  0  0  0  0  0  0  0  0  0  0
   46.7320   33.7630   47.3470 H   0  0  0  0  0  0  0  0  0  0  0  0
   47.4060   32.1390   47.8820 H   0  0  0  0  0  0  0  0  0  0  0  0
   44.7520   32.6530   46.8940 H   0  0  0  0  0  0  0  0  0  0  0  0
   45.2950   30.5980   47.1470 C   0  0  0  0  0  0  0  0  0  0  0  0
   45.2130   30.2270   48.4550 C   0  0  0  0  0  0  0  0  0  0  0  0
   45.0640   28.9290   48.9250 C   0  0  0  0  0  0  0  0  0  0  0  0
   44.9950   27.9170   47.9460 C   0  0  0  0  0  0  0  0  0  0  0  0
   45.0740   28.2780   46.6110 C   0  0  0  0  0  0  0  0  0  0  0  0
   44.9430   27.2580   45.6890 C   0  0  0  0  0  0  0  0  0  0  0  0
   44.9500   27.5630   44.3250 C   0  0  0  0  0  0  0  0  0  0  0  0
   45.0810   28.8690   43.9030 C   0  0  0  0  0  0  0  0  0  0  0  0
   45.2100   29.8430   44.8650 C   0  0  0  0  0  0  0  0  0  0  0  0
   45.2180   29.5850   46.2240 C   0  0  0  0  0  0  0  0  0  0  0  0
   45.2740   31.0570   49.1680 H   0  0  0  0  0  0  0  0  0  0  0  0
   45.0060   28.7300   49.9870 H   0  0  0  0  0  0  0  0  0  0  0  0
   44.8810   26.9040   48.3090 H   0  0  0  0  0  0  0  0  0  0  0  0
   44.8380   26.2340   46.0380 H   0  0  0  0  0  0  0  0  0  0  0  0
   44.8420   26.6720   43.6870 H   0  0  0  0  0  0  0  0  0  0  0  0
   45.0610   28.9050   42.8380 H   0  0  0  0  0  0  0  0  0  0  0  0
   45.2080   30.7390   44.3120 H   0  0  0  0  0  0  0  0  0  0  0  0
   45.5030   35.2330   43.8740 C   0  0  0  0  0  0  0  0  0  0  0  0
   45.9770   34.9830   42.5480 C   0  0  0  0  0  0  0  0  0  0  0  0
   46.7000   33.7950   42.3300 C   0  0  0  0  0  0  0  0  0  0  0  0
   46.9000   32.9800   43.3680 N   0  0  0  0  0  0  0  0  0  0  0  0
   46.4410   33.2380   44.6190 C   0  0  0  0  0  0  0  0  0  0  0  0
   45.7560   34.3470   44.8580 N   0  0  0  0  0  0  0  0  0  0  0  0
   44.9500   36.1510   44.0120 H   0  0  0  0  0  0  0  0  0  0  0  0
   45.7980   35.7240   41.8070 H   0  0  0  0  0  0  0  0  0  0  0  0
   47.3310   33.3780   41.1020 C   0  0  0  0  0  0  0  0  0  0  0  0
   46.6120   33.5850   39.9180 C   0  0  0  0  0  0  0  0  0  0  0  0
   45.6100   34.0400   39.9720 H   0  0  0  0  0  0  0  0  0  0  0  0
   47.0510   33.2660   38.6550 C   0  0  0  0  0  3  0  0  0  0  0  0
   48.2950   32.6950   38.5170 C   0  0  0  0  0  3  0  0  0  0  0  0
   49.0630   32.4630   39.6350 C   0  0  0  0  0  0  0  0  0  0  0  0
   50.3260   31.9260   39.5160 C   0  0  0  0  0  3  0  0  0  0  0  0
   51.1550   31.7100   40.6170 C   0  0  0  0  0  3  0  0  0  0  0  0
   50.6090   32.0800   41.8520 C   0  0  0  0  0  3  0  0  0  0  0  0
   49.3460   32.6120   41.9420 C   0  0  0  0  0  3  0  0  0  0  0  0
   48.5540   32.8110   40.8580 C   0  0  0  0  0  0  0  0  0  0  0  0
  1  4  1  6  0  0  0
  1  3  1  0  0  0  0
  1  2  1  0  0  0  0
  2  5  1  0  0  0  0
  2  6  1  0  0  0  0
  3  7  1  6  0  0  0
  3  2  1  0  0  0  0
  3  8  1  0  0  0  0
  8  9  1  0  0  0  0
  9 10  2  0  0  0  0
  9 18  1  0  0  0  0
 10 19  1  0  0  0  0
 11 20  1  0  0  0  0
 11 10  1  0  0  0  0
 12 11  2  0  0  0  0
 13 21  1  0  0  0  0
 13 12  1  0  0  0  0
 14 13  2  0  0  0  0
 15 14  1  0  0  0  0
 15 16  2  0  0  0  0
 16 17  1  0  0  0  0
 17 12  1  0  0  0  0
 17  8  2  0  0  0  0
 22 14  1  0  0  0  0
 23 15  1  0  0  0  0
 24 16  1  0  0  0  0
 25 31  1  0  0  0  0
 25 30  1  0  0  0  0
 26 25  2  0  0  0  0
 27 26  1  0  0  0  0
 27 28  2  0  0  0  0
 28 29  1  0  0  0  0
 29 30  2  0  0  0  0
 29  1  1  0  0  0  0
 32 26  1  0  0  0  0
 33 27  1  0  0  0  0
 34 35  1  0  0  0  0
 34 33  2  0  0  0  0
 36 34  1  0  0  0  0
 37 36  2  0  0  0  0
 37 38  1  0  0  0  0
 38 43  1  0  0  0  0
 39 38  2  0  0  0  0
 39 40  1  0  0  0  0
 40 41  2  0  0  0  0
 41 42  1  0  0  0  0
 43 33  1  0  0  0  0
 43 42  2  0  0  0  0
M  END
>  <minimizedAffinity>
-5.43217039

>  <minimizedRMSD>
1.7119391

$$$$
