
 OpenBabel03252502173D

 26 28  0  0  0  0  0  0  0  0999 V2000
   40.5840   33.0150   39.7830 C   0  0  0  0  0  0  0  0  0  0  0  0
   39.7810   31.8740   39.5930 C   0  0  0  0  0  0  0  0  0  0  0  0
   38.4580   31.9500   40.0270 C   0  0  0  0  0  0  0  0  0  0  0  0
   37.9910   33.0860   40.6050 N   0  0  0  0  0  0  0  0  0  0  0  0
   38.8020   34.1610   40.7680 C   0  0  0  0  0  0  0  0  0  0  0  0
   40.0840   34.1090   40.3540 N   0  0  0  0  0  0  0  0  0  0  0  0
   41.6150   32.9700   39.4490 H   0  0  0  0  0  0  0  0  0  0  0  0
   38.5870   35.1150   41.2080 H   0  0  0  0  0  0  0  0  0  0  0  0
   37.5560   30.8310   39.9120 C   0  0  0  0  0  0  0  0  0  0  0  0
   36.7060   30.5430   38.8670 C   0  0  0  0  0  0  0  0  0  0  0  0
   36.7380   31.2130   38.0260 H   0  0  0  0  0  0  0  0  0  0  0  0
   35.8460   29.4710   38.8490 C   0  0  0  0  0  3  0  0  0  0  0  0
   35.7920   28.5980   39.9170 C   0  0  0  0  0  3  0  0  0  0  0  0
   36.6530   28.8760   40.9910 C   0  0  0  0  0  0  0  0  0  0  0  0
   36.6150   28.0020   42.0540 C   0  0  0  0  0  3  0  0  0  0  0  0
   37.4330   28.1850   43.1490 C   0  0  0  0  0  3  0  0  0  0  0  0
   38.3050   29.2650   43.1780 C   0  0  0  0  0  3  0  0  0  0  0  0
   38.3430   30.1560   42.0960 C   0  0  0  0  0  3  0  0  0  0  0  0
   37.5020   29.9470   40.9920 C   0  0  0  0  0  0  0  0  0  0  0  0
   40.3430   30.7710   39.0000 O   0  0  0  0  0  0  0  0  0  0  0  0
   42.5870   31.1490   37.6610 O   0  0  0  0  0  0  0  0  0  0  0  0
   41.1340   30.8820   37.4770 P   0  0  0  0  0  0  0  0  0  0  0  0
   40.9970   29.4310   36.6050 O   0  0  0  0  0  0  0  0  0  0  0  0
   41.8010   28.8580   36.7480 H   0  0  0  0  0  0  0  0  0  0  0  0
   40.4430   32.1160   36.5590 O   0  0  0  0  0  0  0  0  0  0  0  0
   39.4560   32.0250   36.4590 H   0  0  0  0  0  0  0  0  0  0  0  0
  1  6  1  0  0  0  0
  2  1  2  0  0  0  0
  2  3  1  0  0  0  0
  3  4  2  0  0  0  0
  4  5  1  0  0  0  0
  5  8  1  0  0  0  0
  6  5  2  0  0  0  0
  7  1  1  0  0  0  0
  9  3  1  0  0  0  0
  9 19  1  0  0  0  0
 10  9  2  0  0  0  0
 11 10  1  0  0  0  0
 12 10  1  0  0  0  0
 12 13  2  0  0  0  0
 13 14  1  0  0  0  0
 14 19  2  0  0  0  0
 14 15  1  0  0  0  0
 15 16  2  0  0  0  0
 16 17  1  0  0  0  0
 18 17  2  0  0  0  0
 19 18  1  0  0  0  0
 20  2  1  0  0  0  0
 22 21  2  0  0  0  0
 22 20  1  0  0  0  0
 23 24  1  0  0  0  0
 23 22  1  0  0  0  0
 25 22  1  0  0  0  0
 26 25  1  0  0  0  0
M  END
>  <minimizedAffinity>
-5.74420595

$$$$

 OpenBabel03252502173D

 26 28  0  0  0  0  0  0  0  0999 V2000
   36.6690   30.2090   38.0230 C   0  0  0  0  0  0  0  0  0  0  0  0
   37.2730   29.8520   39.2440 C   0  0  0  0  0  0  0  0  0  0  0  0
   36.6560   28.8460   39.9870 C   0  0  0  0  0  0  0  0  0  0  0  0
   35.5240   28.2540   39.5310 N   0  0  0  0  0  0  0  0  0  0  0  0
   34.9770   28.6310   38.3480 C   0  0  0  0  0  0  0  0  0  0  0  0
   35.5580   29.6000   37.6130 N   0  0  0  0  0  0  0  0  0  0  0  0
   37.1390   30.9890   37.4340 H   0  0  0  0  0  0  0  0  0  0  0  0
   34.0930   28.2680   37.8610 H   0  0  0  0  0  0  0  0  0  0  0  0
   37.1690   28.4240   41.2670 C   0  0  0  0  0  0  0  0  0  0  0  0
   37.1410   29.1240   42.4540 C   0  0  0  0  0  0  0  0  0  0  0  0
   36.6540   30.0840   42.4320 H   0  0  0  0  0  0  0  0  0  0  0  0
   37.6860   28.6660   43.6290 C   0  0  0  0  0  3  0  0  0  0  0  0
   38.3110   27.4360   43.6790 C   0  0  0  0  0  3  0  0  0  0  0  0
   38.3480   26.7080   42.4790 C   0  0  0  0  0  0  0  0  0  0  0  0
   38.9560   25.4740   42.5240 C   0  0  0  0  0  3  0  0  0  0  0  0
   39.0300   24.6810   41.3980 C   0  0  0  0  0  3  0  0  0  0  0  0
   38.4830   25.1350   40.2050 C   0  0  0  0  0  3  0  0  0  0  0  0
   37.8640   26.3910   40.1590 C   0  0  0  0  0  3  0  0  0  0  0  0
   37.8000   27.1800   41.3180 C   0  0  0  0  0  0  0  0  0  0  0  0
   38.4160   30.5090   39.6240 O   0  0  0  0  0  0  0  0  0  0  0  0
   39.2430   32.3140   41.3660 O   0  0  0  0  0  0  0  0  0  0  0  0
   38.3700   32.1390   40.1730 P   0  0  0  0  0  0  0  0  0  0  0  0
   38.9330   33.2070   38.9780 O   0  0  0  0  0  0  0  0  0  0  0  0
   39.9000   33.4060   39.1140 H   0  0  0  0  0  0  0  0  0  0  0  0
   36.7870   32.5690   40.5610 O   0  0  0  0  0  0  0  0  0  0  0  0
   36.1430   32.4090   39.8180 H   0  0  0  0  0  0  0  0  0  0  0  0
  1  2  1  0  0  0  0
  2 20  1  0  0  0  0
  2  3  2  0  0  0  0
  3  9  1  0  0  0  0
  4  3  1  0  0  0  0
  5  4  2  0  0  0  0
  6  1  2  0  0  0  0
  6  5  1  0  0  0  0
  7  1  1  0  0  0  0
  8  5  1  0  0  0  0
  9 19  2  0  0  0  0
  9 10  1  0  0  0  0
 10 12  2  0  0  0  0
 11 10  1  0  0  0  0
 12 13  1  0  0  0  0
 14 15  1  0  0  0  0
 14 13  2  0  0  0  0
 16 15  2  0  0  0  0
 17 16  1  0  0  0  0
 18 17  2  0  0  0  0
 18 19  1  0  0  0  0
 19 14  1  0  0  0  0
 20 22  1  0  0  0  0
 22 25  1  0  0  0  0
 22 21  2  0  0  0  0
 23 24  1  0  0  0  0
 23 22  1  0  0  0  0
 26 25  1  0  0  0  0
M  END
>  <minimizedAffinity>
-5.69482946

$$$$

 OpenBabel03252502173D

 26 28  0  0  0  0  0  0  0  0999 V2000
   37.3320   30.7600   37.3730 C   0  0  0  0  0  0  0  0  0  0  0  0
   38.1470   30.5990   38.5100 C   0  0  0  0  0  0  0  0  0  0  0  0
   38.3450   29.2980   38.9700 C   0  0  0  0  0  0  0  0  0  0  0  0
   37.7660   28.2500   38.3310 N   0  0  0  0  0  0  0  0  0  0  0  0
   36.9890   28.4530   37.2380 C   0  0  0  0  0  0  0  0  0  0  0  0
   36.7860   29.7030   36.7760 N   0  0  0  0  0  0  0  0  0  0  0  0
   37.1710   31.7670   37.0030 H   0  0  0  0  0  0  0  0  0  0  0  0
   36.4640   27.7380   36.6350 H   0  0  0  0  0  0  0  0  0  0  0  0
   39.1330   29.0200   40.1460 C   0  0  0  0  0  0  0  0  0  0  0  0
   40.5000   29.1230   40.2830 C   0  0  0  0  0  0  0  0  0  0  0  0
   41.0410   29.4810   39.4240 H   0  0  0  0  0  0  0  0  0  0  0  0
   41.1830   28.8040   41.4310 C   0  0  0  0  0  3  0  0  0  0  0  0
   40.5080   28.3470   42.5450 C   0  0  0  0  0  3  0  0  0  0  0  0
   39.1130   28.2370   42.4240 C   0  0  0  0  0  0  0  0  0  0  0  0
   38.4310   27.7960   43.5350 C   0  0  0  0  0  3  0  0  0  0  0  0
   37.0570   27.6680   43.5160 C   0  0  0  0  0  3  0  0  0  0  0  0
   36.3570   27.9870   42.3600 C   0  0  0  0  0  3  0  0  0  0  0  0
   37.0520   28.4360   41.2280 C   0  0  0  0  0  3  0  0  0  0  0  0
   38.4490   28.5590   41.2730 C   0  0  0  0  0  0  0  0  0  0  0  0
   38.6870   31.7200   39.0900 O   0  0  0  0  0  0  0  0  0  0  0  0
   38.5790   33.4950   41.0430 O   0  0  0  0  0  0  0  0  0  0  0  0
   37.7310   32.7790   40.0510 P   0  0  0  0  0  0  0  0  0  0  0  0
   36.9700   33.9590   39.0960 O   0  0  0  0  0  0  0  0  0  0  0  0
   37.5100   34.7970   39.0790 H   0  0  0  0  0  0  0  0  0  0  0  0
   36.5360   31.9010   40.8550 O   0  0  0  0  0  0  0  0  0  0  0  0
   35.9770   31.3480   40.2450 H   0  0  0  0  0  0  0  0  0  0  0  0
  1  2  1  0  0  0  0
  2  3  2  0  0  0  0
  2 20  1  0  0  0  0
  3  9  1  0  0  0  0
  4  3  1  0  0  0  0
  5  4  2  0  0  0  0
  6  5  1  0  0  0  0
  6  1  2  0  0  0  0
  7  1  1  0  0  0  0
  8  5  1  0  0  0  0
  9 10  2  0  0  0  0
  9 19  1  0  0  0  0
 10 12  1  0  0  0  0
 11 10  1  0  0  0  0
 12 13  2  0  0  0  0
 14 13  1  0  0  0  0
 14 15  1  0  0  0  0
 16 15  2  0  0  0  0
 17 16  1  0  0  0  0
 18 19  1  0  0  0  0
 18 17  2  0  0  0  0
 19 14  2  0  0  0  0
 20 22  1  0  0  0  0
 22 25  1  0  0  0  0
 22 21  2  0  0  0  0
 23 22  1  0  0  0  0
 24 23  1  0  0  0  0
 26 25  1  0  0  0  0
M  END
>  <minimizedAffinity>
-5.6029892

$$$$

 OpenBabel03252502173D

 26 28  0  0  0  0  0  0  0  0999 V2000
   36.6440   29.7340   35.8540 C   0  0  0  0  0  0  0  0  0  0  0  0
   37.0220   29.6250   37.2060 C   0  0  0  0  0  0  0  0  0  0  0  0
   36.0530   29.1770   38.1020 C   0  0  0  0  0  0  0  0  0  0  0  0
   34.8060   28.8670   37.6640 N   0  0  0  0  0  0  0  0  0  0  0  0
   34.4860   28.9880   36.3510 C   0  0  0  0  0  0  0  0  0  0  0  0
   35.4100   29.4170   35.4680 N   0  0  0  0  0  0  0  0  0  0  0  0
   37.3890   30.0800   35.1450 H   0  0  0  0  0  0  0  0  0  0  0  0
   33.5550   28.7920   35.8570 H   0  0  0  0  0  0  0  0  0  0  0  0
   36.3200   29.0590   39.5140 C   0  0  0  0  0  0  0  0  0  0  0  0
   36.3890   30.0750   40.4420 C   0  0  0  0  0  0  0  0  0  0  0  0
   36.1910   31.0680   40.0800 H   0  0  0  0  0  0  0  0  0  0  0  0
   36.6860   29.8830   41.7700 C   0  0  0  0  0  3  0  0  0  0  0  0
   36.9390   28.6160   42.2570 C   0  0  0  0  0  3  0  0  0  0  0  0
   36.8720   27.5680   41.3250 C   0  0  0  0  0  0  0  0  0  0  0  0
   37.1090   26.3000   41.8040 C   0  0  0  0  0  3  0  0  0  0  0  0
   37.0530   25.2060   40.9670 C   0  0  0  0  0  3  0  0  0  0  0  0
   36.7540   25.3880   39.6230 C   0  0  0  0  0  3  0  0  0  0  0  0
   36.5140   26.6790   39.1340 C   0  0  0  0  0  3  0  0  0  0  0  0
   36.5750   27.7770   40.0060 C   0  0  0  0  0  0  0  0  0  0  0  0
   38.3060   29.9630   37.5540 O   0  0  0  0  0  0  0  0  0  0  0  0
   39.5750   31.6940   39.0940 O   0  0  0  0  0  0  0  0  0  0  0  0
   38.7480   31.5970   37.8600 P   0  0  0  0  0  0  0  0  0  0  0  0
   39.6730   32.2340   36.5850 O   0  0  0  0  0  0  0  0  0  0  0  0
   40.6460   32.1500   36.7830 H   0  0  0  0  0  0  0  0  0  0  0  0
   37.3630   32.5440   38.0300 O   0  0  0  0  0  0  0  0  0  0  0  0
   36.7370   32.4660   37.2590 H   0  0  0  0  0  0  0  0  0  0  0  0
  1  2  1  0  0  0  0
  2 20  1  0  0  0  0
  2  3  2  0  0  0  0
  3  9  1  0  0  0  0
  4  3  1  0  0  0  0
  5  4  2  0  0  0  0
  6  1  2  0  0  0  0
  6  5  1  0  0  0  0
  7  1  1  0  0  0  0
  8  5  1  0  0  0  0
  9 19  2  0  0  0  0
  9 10  1  0  0  0  0
 10 12  2  0  0  0  0
 11 10  1  0  0  0  0
 12 13  1  0  0  0  0
 14 15  1  0  0  0  0
 14 13  2  0  0  0  0
 16 15  2  0  0  0  0
 17 16  1  0  0  0  0
 18 17  2  0  0  0  0
 18 19  1  0  0  0  0
 19 14  1  0  0  0  0
 20 22  1  0  0  0  0
 22 25  1  0  0  0  0
 22 21  2  0  0  0  0
 23 24  1  0  0  0  0
 23 22  1  0  0  0  0
 26 25  1  0  0  0  0
M  END
>  <minimizedAffinity>
-5.56314087

$$$$

 OpenBabel03252502173D

 26 28  0  0  0  0  0  0  0  0999 V2000
   40.1480   30.2840   38.7300 C   0  0  0  0  0  0  0  0  0  0  0  0
   39.1670   29.8510   39.6430 C   0  0  0  0  0  0  0  0  0  0  0  0
   39.5890   29.0230   40.6830 C   0  0  0  0  0  0  0  0  0  0  0  0
   40.8940   28.6650   40.7870 N   0  0  0  0  0  0  0  0  0  0  0  0
   41.8040   29.1070   39.8840 C   0  0  0  0  0  0  0  0  0  0  0  0
   41.4180   29.9100   38.8720 N   0  0  0  0  0  0  0  0  0  0  0  0
   39.8330   30.9300   37.9170 H   0  0  0  0  0  0  0  0  0  0  0  0
   42.8570   28.9100   39.8270 H   0  0  0  0  0  0  0  0  0  0  0  0
   38.6640   28.4940   41.6550 C   0  0  0  0  0  0  0  0  0  0  0  0
   38.1760   29.1250   42.7780 C   0  0  0  0  0  0  0  0  0  0  0  0
   38.4970   30.1400   42.9340 H   0  0  0  0  0  0  0  0  0  0  0  0
   37.3220   28.5370   43.6800 C   0  0  0  0  0  3  0  0  0  0  0  0
   36.8950   27.2370   43.4960 C   0  0  0  0  0  3  0  0  0  0  0  0
   37.3820   26.5790   42.3550 C   0  0  0  0  0  0  0  0  0  0  0  0
   36.9490   25.2870   42.1570 C   0  0  0  0  0  3  0  0  0  0  0  0
   37.3630   24.5640   41.0580 C   0  0  0  0  0  3  0  0  0  0  0  0
   38.2270   25.1490   40.1410 C   0  0  0  0  0  3  0  0  0  0  0  0
   38.6680   26.4640   40.3430 C   0  0  0  0  0  3  0  0  0  0  0  0
   38.2320   27.1790   41.4680 C   0  0  0  0  0  0  0  0  0  0  0  0
   37.8720   30.2640   39.4550 O   0  0  0  0  0  0  0  0  0  0  0  0
   36.9500   32.6970   39.0000 O   0  0  0  0  0  0  0  0  0  0  0  0
   37.3080   31.7570   40.0970 P   0  0  0  0  0  0  0  0  0  0  0  0
   35.9130   31.5340   41.0410 O   0  0  0  0  0  0  0  0  0  0  0  0
   35.0930   31.6950   40.4970 H   0  0  0  0  0  0  0  0  0  0  0  0
   38.4980   32.4480   41.0710 O   0  0  0  0  0  0  0  0  0  0  0  0
   38.8250   31.8370   41.7850 H   0  0  0  0  0  0  0  0  0  0  0  0
  1  6  2  0  0  0  0
  1  2  1  0  0  0  0
  2  3  2  0  0  0  0
  3  4  1  0  0  0  0
  3  9  1  0  0  0  0
  5  4  2  0  0  0  0
  6  5  1  0  0  0  0
  7  1  1  0  0  0  0
  8  5  1  0  0  0  0
  9 10  1  0  0  0  0
 10 11  1  0  0  0  0
 10 12  2  0  0  0  0
 13 12  1  0  0  0  0
 14 13  2  0  0  0  0
 15 14  1  0  0  0  0
 16 15  2  0  0  0  0
 17 18  2  0  0  0  0
 17 16  1  0  0  0  0
 18 19  1  0  0  0  0
 19  9  2  0  0  0  0
 19 14  1  0  0  0  0
 20  2  1  0  0  0  0
 20 22  1  0  0  0  0
 21 22  2  0  0  0  0
 22 23  1  0  0  0  0
 22 25  1  0  0  0  0
 24 23  1  0  0  0  0
 25 26  1  0  0  0  0
M  END
>  <minimizedAffinity>
-5.50938177

$$$$

 OpenBabel03252502173D

 26 28  0  0  0  0  0  0  0  0999 V2000
   38.6600   29.7540   42.1920 C   0  0  0  0  0  0  0  0  0  0  0  0
   37.8860   29.6000   41.0250 C   0  0  0  0  0  0  0  0  0  0  0  0
   36.7860   28.7470   41.1010 C   0  0  0  0  0  0  0  0  0  0  0  0
   36.4960   28.1040   42.2600 N   0  0  0  0  0  0  0  0  0  0  0  0
   37.2700   28.2830   43.3600 C   0  0  0  0  0  0  0  0  0  0  0  0
   38.3380   29.1050   43.3090 N   0  0  0  0  0  0  0  0  0  0  0  0
   39.5180   30.4160   42.1470 H   0  0  0  0  0  0  0  0  0  0  0  0
   37.1770   27.8470   44.3360 H   0  0  0  0  0  0  0  0  0  0  0  0
   35.9450   28.4890   39.9580 C   0  0  0  0  0  0  0  0  0  0  0  0
   34.8550   29.2200   39.5380 C   0  0  0  0  0  0  0  0  0  0  0  0
   34.6210   30.1020   40.1090 H   0  0  0  0  0  0  0  0  0  0  0  0
   34.0790   28.8870   38.4540 C   0  0  0  0  0  3  0  0  0  0  0  0
   34.3650   27.7630   37.7060 C   0  0  0  0  0  3  0  0  0  0  0  0
   35.4730   27.0060   38.1190 C   0  0  0  0  0  0  0  0  0  0  0  0
   35.7730   25.8920   37.3700 C   0  0  0  0  0  3  0  0  0  0  0  0
   36.8510   25.0930   37.6920 C   0  0  0  0  0  3  0  0  0  0  0  0
   37.6420   25.4200   38.7860 C   0  0  0  0  0  3  0  0  0  0  0  0
   37.3360   26.5550   39.5490 C   0  0  0  0  0  3  0  0  0  0  0  0
   36.2350   27.3520   39.2010 C   0  0  0  0  0  0  0  0  0  0  0  0
   38.2590   30.2900   39.8990 O   0  0  0  0  0  0  0  0  0  0  0  0
   39.1150   32.7590   40.2830 O   0  0  0  0  0  0  0  0  0  0  0  0
   37.9660   31.9780   39.7470 P   0  0  0  0  0  0  0  0  0  0  0  0
   37.7700   32.4260   38.1210 O   0  0  0  0  0  0  0  0  0  0  0  0
   38.6320   32.7520   37.7410 H   0  0  0  0  0  0  0  0  0  0  0  0
   36.5600   32.3930   40.5810 O   0  0  0  0  0  0  0  0  0  0  0  0
   35.7690   31.8530   40.3100 H   0  0  0  0  0  0  0  0  0  0  0  0
  1  6  1  0  0  0  0
  2  3  1  0  0  0  0
  2  1  2  0  0  0  0
  3  4  2  0  0  0  0
  4  5  1  0  0  0  0
  5  8  1  0  0  0  0
  6  5  2  0  0  0  0
  7  1  1  0  0  0  0
  9  3  1  0  0  0  0
 10  9  1  0  0  0  0
 10 11  1  0  0  0  0
 12 10  2  0  0  0  0
 13 14  2  0  0  0  0
 13 12  1  0  0  0  0
 14 19  1  0  0  0  0
 15 16  2  0  0  0  0
 15 14  1  0  0  0  0
 16 17  1  0  0  0  0
 17 18  2  0  0  0  0
 19 18  1  0  0  0  0
 19  9  2  0  0  0  0
 20  2  1  0  0  0  0
 22 20  1  0  0  0  0
 22 21  2  0  0  0  0
 22 25  1  0  0  0  0
 23 22  1  0  0  0  0
 24 23  1  0  0  0  0
 26 25  1  0  0  0  0
M  END
>  <minimizedAffinity>
-5.49276972

$$$$

 OpenBabel03252502173D

 26 28  0  0  0  0  0  0  0  0999 V2000
   38.1630   29.2340   42.4520 C   0  0  0  0  0  0  0  0  0  0  0  0
   38.1450   29.3520   41.0490 C   0  0  0  0  0  0  0  0  0  0  0  0
   37.8010   28.2140   40.3200 C   0  0  0  0  0  0  0  0  0  0  0  0
   37.5030   27.0550   40.9600 N   0  0  0  0  0  0  0  0  0  0  0  0
   37.5340   26.9880   42.3150 C   0  0  0  0  0  0  0  0  0  0  0  0
   37.8610   28.0770   43.0380 N   0  0  0  0  0  0  0  0  0  0  0  0
   38.4270   30.1120   43.0310 H   0  0  0  0  0  0  0  0  0  0  0  0
   37.3330   26.1540   42.9590 H   0  0  0  0  0  0  0  0  0  0  0  0
   37.7820   28.2130   38.8780 C   0  0  0  0  0  0  0  0  0  0  0  0
   38.8520   28.0440   38.0260 C   0  0  0  0  0  0  0  0  0  0  0  0
   39.8070   27.8630   38.4870 H   0  0  0  0  0  0  0  0  0  0  0  0
   38.7570   28.0910   36.6560 C   0  0  0  0  0  3  0  0  0  0  0  0
   37.5400   28.3180   36.0450 C   0  0  0  0  0  3  0  0  0  0  0  0
   36.4390   28.4910   36.8980 C   0  0  0  0  0  0  0  0  0  0  0  0
   35.2190   28.7030   36.2960 C   0  0  0  0  0  3  0  0  0  0  0  0
   34.0780   28.8710   37.0520 C   0  0  0  0  0  3  0  0  0  0  0  0
   34.1620   28.8260   38.4370 C   0  0  0  0  0  3  0  0  0  0  0  0
   35.4040   28.6100   39.0510 C   0  0  0  0  0  3  0  0  0  0  0  0
   36.5510   28.4410   38.2600 C   0  0  0  0  0  0  0  0  0  0  0  0
   38.4630   30.5660   40.4920 O   0  0  0  0  0  0  0  0  0  0  0  0
   36.9140   31.8860   38.8080 O   0  0  0  0  0  0  0  0  0  0  0  0
   37.2670   31.7790   40.2500 P   0  0  0  0  0  0  0  0  0  0  0  0
   35.8380   31.4110   41.0900 O   0  0  0  0  0  0  0  0  0  0  0  0
   35.1900   30.9450   40.4930 H   0  0  0  0  0  0  0  0  0  0  0  0
   37.8380   33.2650   40.8070 O   0  0  0  0  0  0  0  0  0  0  0  0
   38.1520   33.2360   41.7510 H   0  0  0  0  0  0  0  0  0  0  0  0
  1  7  1  0  0  0  0
  1  6  1  0  0  0  0
  2  1  2  0  0  0  0
  3  4  2  0  0  0  0
  3  2  1  0  0  0  0
  4  5  1  0  0  0  0
  5  8  1  0  0  0  0
  5  6  2  0  0  0  0
  9  3  1  0  0  0  0
 10 11  1  0  0  0  0
 10  9  2  0  0  0  0
 12 10  1  0  0  0  0
 13 12  2  0  0  0  0
 13 14  1  0  0  0  0
 14 19  1  0  0  0  0
 15 14  2  0  0  0  0
 15 16  1  0  0  0  0
 16 17  2  0  0  0  0
 17 18  1  0  0  0  0
 19  9  1  0  0  0  0
 19 18  2  0  0  0  0
 20  2  1  0  0  0  0
 21 22  2  0  0  0  0
 22 20  1  0  0  0  0
 22 25  1  0  0  0  0
 22 23  1  0  0  0  0
 24 23  1  0  0  0  0
 25 26  1  0  0  0  0
M  END
>  <minimizedAffinity>
-5.45009804

$$$$

 OpenBabel03252502173D

 26 28  0  0  0  0  0  0  0  0999 V2000
   36.5720   29.6520   36.8550 C   0  0  0  0  0  0  0  0  0  0  0  0
   37.0870   29.4420   38.1490 C   0  0  0  0  0  0  0  0  0  0  0  0
   36.2290   28.8700   39.0880 C   0  0  0  0  0  0  0  0  0  0  0  0
   34.9590   28.5400   38.7440 N   0  0  0  0  0  0  0  0  0  0  0  0
   34.5060   28.7610   37.4840 C   0  0  0  0  0  0  0  0  0  0  0  0
   35.3190   29.3110   36.5600 N   0  0  0  0  0  0  0  0  0  0  0  0
   37.2290   30.0950   36.1140 H   0  0  0  0  0  0  0  0  0  0  0  0
   33.5380   28.5640   37.0650 H   0  0  0  0  0  0  0  0  0  0  0  0
   36.6400   28.6400   40.4510 C   0  0  0  0  0  0  0  0  0  0  0  0
   36.9000   29.5860   41.4190 C   0  0  0  0  0  0  0  0  0  0  0  0
   36.7510   30.6130   41.1360 H   0  0  0  0  0  0  0  0  0  0  0  0
   37.3240   29.2860   42.6910 C   0  0  0  0  0  3  0  0  0  0  0  0
   37.5170   27.9740   43.0750 C   0  0  0  0  0  3  0  0  0  0  0  0
   37.2550   26.9970   42.1010 C   0  0  0  0  0  0  0  0  0  0  0  0
   37.4310   25.6860   42.4810 C   0  0  0  0  0  3  0  0  0  0  0  0
   37.1870   24.6550   41.5970 C   0  0  0  0  0  3  0  0  0  0  0  0
   36.7590   24.9470   40.3080 C   0  0  0  0  0  3  0  0  0  0  0  0
   36.5800   26.2820   39.9220 C   0  0  0  0  0  3  0  0  0  0  0  0
   36.8340   27.3130   40.8400 C   0  0  0  0  0  0  0  0  0  0  0  0
   38.3840   29.8100   38.4030 O   0  0  0  0  0  0  0  0  0  0  0  0
   37.7530   32.2870   39.0670 O   0  0  0  0  0  0  0  0  0  0  0  0
   38.8450   31.4650   38.4770 P   0  0  0  0  0  0  0  0  0  0  0  0
   40.2170   31.6790   39.4550 O   0  0  0  0  0  0  0  0  0  0  0  0
   39.9510   31.9260   40.3830 H   0  0  0  0  0  0  0  0  0  0  0  0
   39.2070   32.0300   36.9300 O   0  0  0  0  0  0  0  0  0  0  0  0
   39.8880   31.4760   36.4590 H   0  0  0  0  0  0  0  0  0  0  0  0
  1  2  1  0  0  0  0
  2 20  1  0  0  0  0
  2  3  2  0  0  0  0
  3  9  1  0  0  0  0
  4  3  1  0  0  0  0
  5  4  2  0  0  0  0
  6  1  2  0  0  0  0
  6  5  1  0  0  0  0
  7  1  1  0  0  0  0
  8  5  1  0  0  0  0
  9 19  2  0  0  0  0
  9 10  1  0  0  0  0
 10 12  2  0  0  0  0
 11 10  1  0  0  0  0
 12 13  1  0  0  0  0
 14 15  1  0  0  0  0
 14 13  2  0  0  0  0
 16 15  2  0  0  0  0
 17 16  1  0  0  0  0
 18 17  2  0  0  0  0
 18 19  1  0  0  0  0
 19 14  1  0  0  0  0
 20 22  1  0  0  0  0
 22 21  2  0  0  0  0
 22 23  1  0  0  0  0
 23 24  1  0  0  0  0
 25 22  1  0  0  0  0
 26 25  1  0  0  0  0
M  END
>  <minimizedAffinity>
-5.43620396

$$$$

 OpenBabel03252502173D

 26 28  0  0  0  0  0  0  0  0999 V2000
   38.0810   30.1440   37.7540 C   0  0  0  0  0  0  0  0  0  0  0  0
   38.2410   29.5930   39.0390 C   0  0  0  0  0  0  0  0  0  0  0  0
   37.0960   29.1060   39.6680 C   0  0  0  0  0  0  0  0  0  0  0  0
   35.8920   29.1740   39.0470 N   0  0  0  0  0  0  0  0  0  0  0  0
   35.7850   29.7140   37.8070 C   0  0  0  0  0  0  0  0  0  0  0  0
   36.8800   30.1890   37.1800 N   0  0  0  0  0  0  0  0  0  0  0  0
   38.9640   30.5260   37.2520 H   0  0  0  0  0  0  0  0  0  0  0  0
   34.9140   29.8450   37.1940 H   0  0  0  0  0  0  0  0  0  0  0  0
   37.1380   28.5500   40.9990 C   0  0  0  0  0  0  0  0  0  0  0  0
   37.3050   29.2280   42.1860 C   0  0  0  0  0  0  0  0  0  0  0  0
   37.3830   30.3000   42.1180 H   0  0  0  0  0  0  0  0  0  0  0  0
   37.3700   28.6200   43.4160 C   0  0  0  0  0  3  0  0  0  0  0  0
   37.2680   27.2470   43.5250 C   0  0  0  0  0  3  0  0  0  0  0  0
   37.0960   26.5390   42.3250 C   0  0  0  0  0  0  0  0  0  0  0  0
   36.9780   25.1720   42.4270 C   0  0  0  0  0  3  0  0  0  0  0  0
   36.7950   24.3930   41.3040 C   0  0  0  0  0  3  0  0  0  0  0  0
   36.7280   24.9980   40.0550 C   0  0  0  0  0  3  0  0  0  0  0  0
   36.8480   26.3910   39.9510 C   0  0  0  0  0  3  0  0  0  0  0  0
   37.0330   27.1620   41.1090 C   0  0  0  0  0  0  0  0  0  0  0  0
   39.4990   29.5690   39.5880 O   0  0  0  0  0  0  0  0  0  0  0  0
   40.8760   31.7690   39.1000 O   0  0  0  0  0  0  0  0  0  0  0  0
   40.2340   31.0000   40.2000 P   0  0  0  0  0  0  0  0  0  0  0  0
   39.0860   32.0210   40.9220 O   0  0  0  0  0  0  0  0  0  0  0  0
   38.7700   32.7080   40.2730 H   0  0  0  0  0  0  0  0  0  0  0  0
   41.3880   30.5990   41.3620 O   0  0  0  0  0  0  0  0  0  0  0  0
   41.0290   30.0260   42.0920 H   0  0  0  0  0  0  0  0  0  0  0  0
  1  2  1  0  0  0  0
  2 20  1  0  0  0  0
  2  3  2  0  0  0  0
  3  9  1  0  0  0  0
  4  3  1  0  0  0  0
  5  4  2  0  0  0  0
  6  1  2  0  0  0  0
  6  5  1  0  0  0  0
  7  1  1  0  0  0  0
  8  5  1  0  0  0  0
  9 19  2  0  0  0  0
  9 10  1  0  0  0  0
 10 12  2  0  0  0  0
 11 10  1  0  0  0  0
 12 13  1  0  0  0  0
 14 15  1  0  0  0  0
 14 13  2  0  0  0  0
 16 15  2  0  0  0  0
 17 16  1  0  0  0  0
 18 17  2  0  0  0  0
 18 19  1  0  0  0  0
 19 14  1  0  0  0  0
 20 22  1  0  0  0  0
 21 22  2  0  0  0  0
 22 23  1  0  0  0  0
 22 25  1  0  0  0  0
 24 23  1  0  0  0  0
 25 26  1  0  0  0  0
M  END
>  <minimizedAffinity>
-5.2416501

$$$$
