
     RDKit          3D

 42 46  0  0  0  0  0  0  0  0999 V2000
   45.2182   36.1806   43.4937 C   0  0  0  0  0  0  0  0  0  0  0  0
   45.8602   34.9712   43.1598 C   0  0  0  0  0  0  0  0  0  0  0  0
   45.8056   33.9931   44.1325 C   0  0  0  0  0  0  0  0  0  0  0  0
   45.1827   34.1812   45.3161 N   0  0  0  0  0  0  0  0  0  0  0  0
   44.5777   35.3606   45.5957 C   0  0  0  0  0  0  0  0  0  0  0  0
   44.5970   36.3565   44.6849 N   0  0  0  0  0  0  0  0  0  0  0  0
   46.4256   32.7580   43.8844 C   0  0  0  0  0  0  0  0  0  0  0  0
   47.6959   32.2766   44.0100 C   0  0  0  0  0  0  0  0  0  0  0  0
   48.0517   31.0416   43.7090 C   0  0  0  0  0  0  0  0  0  0  0  0
   47.0523   30.2341   43.2473 C   0  0  0  0  0  0  0  0  0  0  0  0
   45.5644   31.3311   43.2628 S   0  0  0  0  0  0  0  0  0  0  0  0
   46.4975   34.8281   41.8945 C   0  0  0  0  0  0  0  0  0  0  0  0
   47.6925   35.2375   41.8322 O   0  0  0  0  0  0  0  0  0  0  0  0
   45.7558   34.2267   40.7495 C   0  0  0  0  0  0  0  0  0  0  0  0
   44.4210   34.3473   40.4716 C   0  0  0  0  0  0  0  0  0  0  0  0
   44.2136   33.6377   39.3525 N   0  0  0  0  0  0  0  0  0  0  0  0
   45.3807   33.0888   38.9405 C   0  0  0  0  0  0  0  0  0  0  0  0
   46.3027   33.4651   39.8111 N   0  0  0  0  0  0  0  0  0  0  0  0
   45.2096   37.0123   42.7865 H   0  0  0  0  0  0  0  0  0  0  0  0
   44.0800   35.5112   46.5412 H   0  0  0  0  0  0  0  0  0  0  0  0
   48.4265   33.0193   44.3938 H   0  0  0  0  0  0  0  0  0  0  0  0
   49.0334   30.5987   43.7846 H   0  0  0  0  0  0  0  0  0  0  0  0
   47.0578   29.1691   42.9229 H   0  0  0  0  0  0  0  0  0  0  0  0
   43.7800   34.9251   41.1061 H   0  0  0  0  0  0  0  0  0  0  0  0
   43.2496   33.6116   38.9846 H   0  0  0  0  0  0  0  0  0  0  0  0
   45.3479   32.2801   37.7314 C   0  0  0  0  0  0  0  0  0  0  0  0
   45.7097   30.9509   37.7244 C   0  0  0  0  0  0  0  0  0  0  0  0
   46.0378   30.4365   38.6168 H   0  0  0  0  0  0  0  0  0  0  0  0
   45.6964   30.1420   36.6092 C   0  0  0  0  0  0  0  0  0  0  0  0
   45.3016   30.6578   35.4013 C   0  0  0  0  0  0  0  0  0  0  0  0
   44.9299   31.9717   35.3415 C   0  0  0  0  0  0  0  0  0  0  0  0
   44.5338   32.4858   34.1248 C   0  0  0  0  0  0  0  0  0  0  0  0
   44.1491   33.7970   33.9989 C   0  0  0  0  0  0  0  0  0  0  0  0
   44.1687   34.6026   35.1398 C   0  0  0  0  0  0  0  0  0  0  0  0
   44.5745   34.0280   36.3241 C   0  0  0  0  0  0  0  0  0  0  0  0
   44.9654   32.7229   36.4873 C   0  0  0  0  0  0  0  0  0  0  0  0
   45.9817   29.1140   36.6300 H   0  0  0  0  0  0  0  0  0  0  0  0
   45.2879   30.0337   34.5248 H   0  0  0  0  0  0  0  0  0  0  0  0
   44.5240   31.8505   33.2517 H   0  0  0  0  0  0  0  0  0  0  0  0
   43.8353   34.2205   33.0559 H   0  0  0  0  0  0  0  0  0  0  0  0
   43.8681   35.6228   35.0358 H   0  0  0  0  0  0  0  0  0  0  0  0
   44.5616   34.7107   37.1499 H   0  0  0  0  0  0  0  0  0  0  0  0
  1  6  2  0
  2  1  1  0
  2  3  2  0
  3  4  1  0
  4  5  2  0
  6  5  1  0
  7  8  2  0
  7  3  1  0
  9  8  1  0
 10 11  1  0
 10  9  2  0
 11  7  1  0
 12  2  1  0
 13 12  2  0
 14 12  1  0
 15 14  2  0
 16 15  1  0
 17 16  1  0
 17 18  2  0
 18 14  1  0
  1 19  1  0
  5 20  1  0
  8 21  1  0
  9 22  1  0
 10 23  1  0
 15 24  1  0
 16 25  1  0
 26 27  2  0
 27 28  1  0
 27 29  1  0
 29 30  2  0
 30 31  1  0
 31 32  2  0
 32 33  1  0
 33 34  2  0
 34 35  1  0
 35 36  2  0
 36 26  1  0
 36 31  1  0
 29 37  1  0
 30 38  1  0
 32 39  1  0
 33 40  1  0
 34 41  1  0
 35 42  1  0
 17 26  1  0
M  ISO  8  19  14  20  14  21  14  22  14  23  14  24  14  25   9  28  15
M  END
>  <DihAtoms>  (1) 
15,16,25,26

>  <DihDeg>  (1) 
0.14205604142914974

$$$$
