
 OpenBabel03252506383D

 46 50  0  0  1  0  0  0  0  0999 V2000
   44.5090   35.5330   45.1190 C   0  0  0  0  0  0  0  0  0  0  0  0
   45.1640   35.5200   43.8790 C   0  0  0  0  0  0  0  0  0  0  0  0
   46.0820   34.5600   43.6260 C   0  0  0  0  0  0  0  0  0  0  0  0
   46.3170   33.6530   44.6080 N   0  0  0  0  0  0  0  0  0  0  0  0
   45.6960   33.6690   45.7770 C   0  0  0  0  0  0  0  0  0  0  0  0
   44.7860   34.6030   46.0540 N   0  0  0  0  0  0  0  0  0  0  0  0
   46.0250   32.6600   46.7480 N   0  0  0  0  0  0  0  0  0  0  0  0
   45.2840   32.4150   47.9340 C   0  0  0  0  0  0  0  0  0  0  0  0
   46.3610   32.0720   48.9470 C   0  0  0  0  0  0  0  0  0  0  0  0
   47.6410   31.9660   48.1780 C   0  0  0  0  0  0  0  0  0  0  0  0
   47.1450   31.7490   46.7500 C   0  0  1  0  0  0  0  0  0  0  0  0
   43.7620   36.2760   45.3850 H   0  0  0  0  0  0  0  0  0  0  0  0
   46.5870   34.5350   42.6920 H   0  0  0  0  0  0  0  0  0  0  0  0
   44.9290   33.4370   48.2900 H   0  0  0  0  0  0  0  0  0  0  0  0
   44.4480   31.7950   48.0120 H   0  0  0  0  0  0  0  0  0  0  0  0
   46.3870   32.7090   49.8270 H   0  0  0  0  0  0  0  0  0  0  0  0
   46.1200   31.0410   49.3230 H   0  0  0  0  0  0  0  0  0  0  0  0
   48.2800   31.1240   48.5130 H   0  0  0  0  0  0  0  0  0  0  0  0
   48.1690   32.9420   48.2090 H   0  0  0  0  0  0  0  0  0  0  0  0
   47.9500   32.0340   46.0500 H   0  0  0  0  0  0  0  0  0  0  0  0
   44.8010   36.5530   42.9470 N   0  0  0  0  0  0  0  0  0  0  0  0
   44.0010   36.1390   42.4240 H   0  0  0  0  0  0  0  0  0  0  0  0
   45.2920   37.4770   42.8860 H   0  0  0  0  0  0  0  0  0  0  0  0
   46.6320   30.0560   46.5700 S   0  0  0  0  0  0  0  0  0  0  0  0
   45.7130   30.5680   43.4030 O   0  0  0  0  0  0  0  0  0  0  0  0
   45.0590   30.0120   44.3000 C   0  0  0  0  0  0  0  0  0  0  0  0
   45.1130   29.7690   45.7620 C   0  0  1  0  0  0  0  0  0  0  0  0
   44.5790   28.3610   45.8630 C   0  0  0  0  0  0  0  0  0  0  0  0
   43.2880   28.5720   45.0650 C   0  0  0  0  0  0  0  0  0  0  0  0
   43.8290   29.3480   43.9560 N   0  0  0  0  0  0  0  0  0  0  0  0
   44.2140   30.3630   46.0860 H   0  0  0  0  0  0  0  0  0  0  0  0
   44.3090   28.1180   46.9050 H   0  0  0  0  0  0  0  0  0  0  0  0
   45.2050   27.6160   45.3700 H   0  0  0  0  0  0  0  0  0  0  0  0
   42.5340   29.1050   45.6540 H   0  0  0  0  0  0  0  0  0  0  0  0
   42.9570   27.5660   44.7300 H   0  0  0  0  0  0  0  0  0  0  0  0
   43.0850   29.3390   42.7220 C   0  0  0  0  0  0  0  0  0  0  0  0
   42.0750   30.2940   42.6880 C   0  0  0  0  0  0  0  0  0  0  0  0
   41.8470   30.9860   43.4850 H   0  0  0  0  0  0  0  0  0  0  0  0
   41.2460   30.4390   41.5750 C   0  0  0  0  0  3  0  0  0  0  0  0
   41.4800   29.5840   40.5070 C   0  0  0  0  0  3  0  0  0  0  0  0
   42.4770   28.6420   40.5450 C   0  0  0  0  0  0  0  0  0  0  0  0
   42.7360   27.7730   39.4960 C   0  0  0  0  0  3  0  0  0  0  0  0
   43.7390   26.8540   39.5810 C   0  0  0  0  0  3  0  0  0  0  0  0
   44.5520   26.7340   40.7100 C   0  0  0  0  0  3  0  0  0  0  0  0
   44.3160   27.5940   41.7810 C   0  0  0  0  0  3  0  0  0  0  0  0
   43.3060   28.4990   41.6600 C   0  0  0  0  0  0  0  0  0  0  0  0
  1 12  1  0  0  0  0
  1  6  1  0  0  0  0
  2  1  2  0  0  0  0
  3  2  1  0  0  0  0
  3  4  2  0  0  0  0
  4  5  1  0  0  0  0
  5  6  2  0  0  0  0
  5  7  1  0  0  0  0
  7 11  1  0  0  0  0
  7  8  1  0  0  0  0
  8 15  1  0  0  0  0
  8 14  1  0  0  0  0
  8  9  1  0  0  0  0
  9 17  1  0  0  0  0
  9 16  1  0  0  0  0
 10 19  1  0  0  0  0
 10 18  1  0  0  0  0
 10  9  1  0  0  0  0
 11 20  1  6  0  0  0
 11 10  1  0  0  0  0
 13  3  1  0  0  0  0
 21  2  1  0  0  0  0
 22 21  1  0  0  0  0
 23 21  1  0  0  0  0
 24 11  1  0  0  0  0
 25 26  2  0  0  0  0
 26 27  1  0  0  0  0
 27 28  1  0  0  0  0
 27 31  1  1  0  0  0
 27 24  1  0  0  0  0
 28 32  1  0  0  0  0
 29 34  1  0  0  0  0
 29 28  1  0  0  0  0
 30 26  1  0  0  0  0
 30 29  1  0  0  0  0
 33 28  1  0  0  0  0
 35 29  1  0  0  0  0
 36 30  1  0  0  0  0
 37 36  1  0  0  0  0
 37 38  1  0  0  0  0
 39 37  2  0  0  0  0
 40 41  2  0  0  0  0
 40 39  1  0  0  0  0
 41 46  1  0  0  0  0
 42 43  2  0  0  0  0
 42 41  1  0  0  0  0
 43 44  1  0  0  0  0
 44 45  2  0  0  0  0
 46 45  1  0  0  0  0
 46 36  2  0  0  0  0
M  END
>  <minimizedAffinity>
-5.34206438

>  <minimizedRMSD>
1.28096664

$$$$
