
 OpenBabel03252505593D

 38 41  0  0  0  0  0  0  0  0999 V2000
   37.4110   29.6220   37.1890 C   0  0  0  0  0  0  0  0  0  0  0  0
   37.5540   29.0120   38.4390 C   0  0  0  0  0  0  0  0  0  0  0  0
   36.4030   28.4300   39.0100 C   0  0  0  0  0  0  0  0  0  0  0  0
   35.2460   28.4900   38.3350 N   0  0  0  0  0  0  0  0  0  0  0  0
   35.1500   29.0820   37.1410 C   0  0  0  0  0  0  0  0  0  0  0  0
   36.2240   29.6500   36.5620 N   0  0  0  0  0  0  0  0  0  0  0  0
   38.2500   30.1010   36.6750 H   0  0  0  0  0  0  0  0  0  0  0  0
   36.5770   27.8450   40.3390 C   0  0  0  0  0  0  0  0  0  0  0  0
   36.5680   28.7420   41.4170 C   0  0  0  0  0  0  0  0  0  0  0  0
   36.4260   29.8270   41.3340 H   0  0  0  0  0  0  0  0  0  0  0  0
   36.7530   28.3010   42.7080 C   0  0  0  0  0  3  0  0  0  0  0  0
   36.9460   26.9480   42.8970 C   0  0  0  0  0  3  0  0  0  0  0  0
   36.9660   26.0000   41.8580 C   0  0  0  0  0  0  0  0  0  0  0  0
   37.1490   24.6580   42.0900 C   0  0  0  0  0  3  0  0  0  0  0  0
   37.1390   23.7930   40.9900 C   0  0  0  0  0  3  0  0  0  0  0  0
   36.9510   24.2730   39.7030 C   0  0  0  0  0  3  0  0  0  0  0  0
   36.7670   25.6320   39.4650 C   0  0  0  0  0  3  0  0  0  0  0  0
   36.7740   26.5040   40.5640 C   0  0  0  0  0  0  0  0  0  0  0  0
   38.8920   29.0260   39.0940 C   0  0  0  0  0  0  0  0  0  0  0  0
   39.7400   29.5490   38.1250 F   0  0  0  0  0  0  0  0  0  0  0  0
   39.2150   27.7110   39.3510 F   0  0  0  0  0  0  0  0  0  0  0  0
   38.8450   29.8120   40.1930 F   0  0  0  0  0  0  0  0  0  0  0  0
   33.9700   29.1570   36.4130 O   0  0  0  0  0  0  0  0  0  0  0  0
   32.7740   28.5970   36.9120 C   0  0  0  0  0  0  0  0  0  0  0  0
   32.8860   28.0910   37.8890 H   0  0  0  0  0  0  0  0  0  0  0  0
   32.3970   27.8630   36.1590 H   0  0  0  0  0  0  0  0  0  0  0  0
   31.7710   29.6610   36.9960 C   0  0  0  0  0  0  0  0  0  0  0  0
   30.9470   30.0510   38.0400 C   0  0  0  0  0  0  0  0  0  0  0  0
   30.0970   31.1000   37.8210 C   0  0  0  0  0  0  0  0  0  0  0  0
   30.0320   31.7490   36.6690 N   0  0  0  0  0  0  0  0  0  0  0  0
   30.8340   31.3670   35.6550 C   0  0  0  0  0  0  0  0  0  0  0  0
   31.7110   30.3160   35.8150 N   0  0  0  0  0  0  0  0  0  0  0  0
   31.0950   29.4490   38.9150 H   0  0  0  0  0  0  0  0  0  0  0  0
   29.4830   31.3400   38.6940 H   0  0  0  0  0  0  0  0  0  0  0  0
   30.6980   32.1430   34.3910 C   0  0  0  0  0  0  0  0  0  0  0  0
   30.7610   31.3290   33.2990 F   0  0  0  0  0  0  0  0  0  0  0  0
   31.7360   33.0870   34.3170 F   0  0  0  0  0  0  0  0  0  0  0  0
   29.4990   32.8340   34.3460 F   0  0  0  0  0  0  0  0  0  0  0  0
  1  2  1  0  0  0  0
  2  3  2  0  0  0  0
  2 19  1  0  0  0  0
  3  8  1  0  0  0  0
  4  3  1  0  0  0  0
  5  4  2  0  0  0  0
  6  5  1  0  0  0  0
  6  1  2  0  0  0  0
  7  1  1  0  0  0  0
  8 18  2  0  0  0  0
  8  9  1  0  0  0  0
  9 11  2  0  0  0  0
 10  9  1  0  0  0  0
 11 12  1  0  0  0  0
 13 14  1  0  0  0  0
 13 12  2  0  0  0  0
 15 14  2  0  0  0  0
 16 15  1  0  0  0  0
 17 16  2  0  0  0  0
 17 18  1  0  0  0  0
 18 13  1  0  0  0  0
 19 21  1  0  0  0  0
 19 22  1  0  0  0  0
 20 19  1  0  0  0  0
 23 24  1  0  0  0  0
 23  5  1  0  0  0  0
 24 27  1  0  0  0  0
 24 25  1  0  0  0  0
 26 24  1  0  0  0  0
 27 28  1  0  0  0  0
 28 33  1  0  0  0  0
 29 28  2  0  0  0  0
 29 34  1  0  0  0  0
 30 29  1  0  0  0  0
 31 32  1  0  0  0  0
 31 30  2  0  0  0  0
 32 27  2  0  0  0  0
 35 31  1  0  0  0  0
 36 35  1  0  0  0  0
 37 35  1  0  0  0  0
 38 35  1  0  0  0  0
M  END
>  <minimizedAffinity>
-6.5488801

$$$$

 OpenBabel03252505593D

 38 41  0  0  0  0  0  0  0  0999 V2000
   35.9620   26.4960   38.0980 C   0  0  0  0  0  0  0  0  0  0  0  0
   36.5510   26.7910   39.3320 C   0  0  0  0  0  0  0  0  0  0  0  0
   36.1790   28.0020   39.9530 C   0  0  0  0  0  0  0  0  0  0  0  0
   35.2940   28.7990   39.3370 N   0  0  0  0  0  0  0  0  0  0  0  0
   34.7520   28.4800   38.1570 C   0  0  0  0  0  0  0  0  0  0  0  0
   35.0810   27.3340   37.5310 N   0  0  0  0  0  0  0  0  0  0  0  0
   36.1950   25.5800   37.5460 H   0  0  0  0  0  0  0  0  0  0  0  0
   36.8510   28.3020   41.2160 C   0  0  0  0  0  0  0  0  0  0  0  0
   36.3570   27.6460   42.3530 C   0  0  0  0  0  0  0  0  0  0  0  0
   35.5280   26.9260   42.3550 H   0  0  0  0  0  0  0  0  0  0  0  0
   36.8980   27.8770   43.5970 C   0  0  0  0  0  3  0  0  0  0  0  0
   37.9410   28.7760   43.6800 C   0  0  0  0  0  3  0  0  0  0  0  0
   38.4800   29.4650   42.5780 C   0  0  0  0  0  0  0  0  0  0  0  0
   39.5290   30.3440   42.7030 C   0  0  0  0  0  3  0  0  0  0  0  0
   40.0030   30.9690   41.5440 C   0  0  0  0  0  3  0  0  0  0  0  0
   39.4330   30.7130   40.3060 C   0  0  0  0  0  3  0  0  0  0  0  0
   38.3700   29.8240   40.1780 C   0  0  0  0  0  3  0  0  0  0  0  0
   37.8910   29.1920   41.3360 C   0  0  0  0  0  0  0  0  0  0  0  0
   37.5340   25.8290   39.9040 C   0  0  0  0  0  0  0  0  0  0  0  0
   37.7280   24.8970   38.8920 F   0  0  0  0  0  0  0  0  0  0  0  0
   36.9180   25.2360   40.9850 F   0  0  0  0  0  0  0  0  0  0  0  0
   38.6770   26.4840   40.2070 F   0  0  0  0  0  0  0  0  0  0  0  0
   33.8280   29.2780   37.4950 O   0  0  0  0  0  0  0  0  0  0  0  0
   32.6190   28.7370   37.0100 C   0  0  0  0  0  0  0  0  0  0  0  0
   32.2470   27.8710   37.5890 H   0  0  0  0  0  0  0  0  0  0  0  0
   32.7830   28.4250   35.9490 H   0  0  0  0  0  0  0  0  0  0  0  0
   31.6170   29.8050   36.9820 C   0  0  0  0  0  0  0  0  0  0  0  0
   30.7360   30.2480   37.9550 C   0  0  0  0  0  0  0  0  0  0  0  0
   29.9040   31.2860   37.6340 C   0  0  0  0  0  0  0  0  0  0  0  0
   29.9080   31.8750   36.4490 N   0  0  0  0  0  0  0  0  0  0  0  0
   30.7660   31.4410   35.5040 C   0  0  0  0  0  0  0  0  0  0  0  0
   31.6280   30.3990   35.7670 N   0  0  0  0  0  0  0  0  0  0  0  0
   30.8310   29.6910   38.8670 H   0  0  0  0  0  0  0  0  0  0  0  0
   29.2420   31.5700   38.4570 H   0  0  0  0  0  0  0  0  0  0  0  0
   30.7060   32.1520   34.1960 C   0  0  0  0  0  0  0  0  0  0  0  0
   31.7380   33.0310   34.0600 F   0  0  0  0  0  0  0  0  0  0  0  0
   29.4930   32.8560   34.1110 F   0  0  0  0  0  0  0  0  0  0  0  0
   30.7510   31.2640   33.1350 F   0  0  0  0  0  0  0  0  0  0  0  0
  1  2  1  0  0  0  0
  2 19  1  0  0  0  0
  2  3  2  0  0  0  0
  3  8  1  0  0  0  0
  4  3  1  0  0  0  0
  5  4  2  0  0  0  0
  6  1  2  0  0  0  0
  6  5  1  0  0  0  0
  7  1  1  0  0  0  0
  8 18  2  0  0  0  0
  8  9  1  0  0  0  0
  9 10  1  0  0  0  0
  9 11  2  0  0  0  0
 11 12  1  0  0  0  0
 13 14  1  0  0  0  0
 13 12  2  0  0  0  0
 15 14  2  0  0  0  0
 16 15  1  0  0  0  0
 17 16  2  0  0  0  0
 17 18  1  0  0  0  0
 18 13  1  0  0  0  0
 19 22  1  0  0  0  0
 19 21  1  0  0  0  0
 20 19  1  0  0  0  0
 23  5  1  0  0  0  0
 24 23  1  0  0  0  0
 24 25  1  0  0  0  0
 26 24  1  0  0  0  0
 27 24  1  0  0  0  0
 27 28  1  0  0  0  0
 28 33  1  0  0  0  0
 29 28  2  0  0  0  0
 29 34  1  0  0  0  0
 30 29  1  0  0  0  0
 31 32  1  0  0  0  0
 31 30  2  0  0  0  0
 32 27  2  0  0  0  0
 35 31  1  0  0  0  0
 36 35  1  0  0  0  0
 37 35  1  0  0  0  0
 38 35  1  0  0  0  0
M  END
>  <minimizedAffinity>
-6.53869534

$$$$

 OpenBabel03252505593D

 38 41  0  0  0  0  0  0  0  0999 V2000
   32.8240   26.3070   36.1510 C   0  0  0  0  0  0  0  0  0  0  0  0
   32.1440   27.4760   35.7970 C   0  0  0  0  0  0  0  0  0  0  0  0
   32.6330   28.6920   36.3180 C   0  0  0  0  0  0  0  0  0  0  0  0
   33.7100   28.6670   37.1160 N   0  0  0  0  0  0  0  0  0  0  0  0
   34.3340   27.5270   37.4310 C   0  0  0  0  0  0  0  0  0  0  0  0
   33.8980   26.3460   36.9550 N   0  0  0  0  0  0  0  0  0  0  0  0
   32.5120   25.3200   35.7950 H   0  0  0  0  0  0  0  0  0  0  0  0
   31.8680   29.8880   35.9670 C   0  0  0  0  0  0  0  0  0  0  0  0
   32.1740   30.4810   34.7340 C   0  0  0  0  0  0  0  0  0  0  0  0
   32.9220   30.1070   34.0230 H   0  0  0  0  0  0  0  0  0  0  0  0
   31.5340   31.6270   34.3190 C   0  0  0  0  0  3  0  0  0  0  0  0
   30.5840   32.1650   35.1620 C   0  0  0  0  0  3  0  0  0  0  0  0
   30.2330   31.6180   36.4100 C   0  0  0  0  0  0  0  0  0  0  0  0
   29.2710   32.1790   37.2140 C   0  0  0  0  0  3  0  0  0  0  0  0
   28.9830   31.5510   38.4310 C   0  0  0  0  0  3  0  0  0  0  0  0
   29.6490   30.3970   38.8170 C   0  0  0  0  0  3  0  0  0  0  0  0
   30.6250   29.8280   38.0050 C   0  0  0  0  0  3  0  0  0  0  0  0
   30.9160   30.4530   36.7820 C   0  0  0  0  0  0  0  0  0  0  0  0
   30.9490   27.3680   34.9130 C   0  0  0  0  0  0  0  0  0  0  0  0
   30.7210   26.0020   34.8120 F   0  0  0  0  0  0  0  0  0  0  0  0
   31.3200   27.8820   33.6890 F   0  0  0  0  0  0  0  0  0  0  0  0
   29.9070   28.0080   35.4900 F   0  0  0  0  0  0  0  0  0  0  0  0
   35.4540   27.4650   38.2490 O   0  0  0  0  0  0  0  0  0  0  0  0
   36.4610   28.4530   38.1750 C   0  0  0  0  0  0  0  0  0  0  0  0
   36.2590   29.2480   37.4330 H   0  0  0  0  0  0  0  0  0  0  0  0
   37.4220   27.9450   37.9170 H   0  0  0  0  0  0  0  0  0  0  0  0
   36.6370   29.0280   39.5110 C   0  0  0  0  0  0  0  0  0  0  0  0
   36.7370   30.3460   39.9250 C   0  0  0  0  0  0  0  0  0  0  0  0
   36.8980   30.5810   41.2630 C   0  0  0  0  0  0  0  0  0  0  0  0
   36.9610   29.6140   42.1640 N   0  0  0  0  0  0  0  0  0  0  0  0
   36.8650   28.3330   41.7580 C   0  0  0  0  0  0  0  0  0  0  0  0
   36.7020   28.0320   40.4230 N   0  0  0  0  0  0  0  0  0  0  0  0
   36.6720   31.0320   39.1020 H   0  0  0  0  0  0  0  0  0  0  0  0
   36.9690   31.6470   41.5020 H   0  0  0  0  0  0  0  0  0  0  0  0
   36.9490   27.3020   42.8310 C   0  0  0  0  0  0  0  0  0  0  0  0
   38.0790   27.4550   43.5790 F   0  0  0  0  0  0  0  0  0  0  0  0
   36.9620   26.0270   42.2420 F   0  0  0  0  0  0  0  0  0  0  0  0
   35.8570   27.3630   43.6790 F   0  0  0  0  0  0  0  0  0  0  0  0
  1  6  1  0  0  0  0
  2  1  2  0  0  0  0
  2  3  1  0  0  0  0
  3  4  2  0  0  0  0
  4  5  1  0  0  0  0
  5 23  1  0  0  0  0
  6  5  2  0  0  0  0
  7  1  1  0  0  0  0
  8  3  1  0  0  0  0
  8 18  1  0  0  0  0
  9  8  2  0  0  0  0
 10  9  1  0  0  0  0
 11  9  1  0  0  0  0
 11 12  2  0  0  0  0
 12 13  1  0  0  0  0
 13 18  2  0  0  0  0
 13 14  1  0  0  0  0
 14 15  2  0  0  0  0
 15 16  1  0  0  0  0
 17 16  2  0  0  0  0
 18 17  1  0  0  0  0
 19 22  1  0  0  0  0
 19  2  1  0  0  0  0
 20 19  1  0  0  0  0
 21 19  1  0  0  0  0
 24 23  1  0  0  0  0
 24 27  1  0  0  0  0
 25 24  1  0  0  0  0
 26 24  1  0  0  0  0
 27 28  2  0  0  0  0
 27 32  1  0  0  0  0
 28 29  1  0  0  0  0
 29 34  1  0  0  0  0
 29 30  2  0  0  0  0
 31 30  1  0  0  0  0
 31 35  1  0  0  0  0
 32 31  2  0  0  0  0
 33 28  1  0  0  0  0
 35 36  1  0  0  0  0
 35 38  1  0  0  0  0
 37 35  1  0  0  0  0
M  END
>  <minimizedAffinity>
-6.51930952

$$$$

 OpenBabel03252505593D

 38 41  0  0  0  0  0  0  0  0999 V2000
   36.8410   29.4030   37.2000 C   0  0  0  0  0  0  0  0  0  0  0  0
   37.1590   28.8100   38.4250 C   0  0  0  0  0  0  0  0  0  0  0  0
   36.1280   28.1190   39.0960 C   0  0  0  0  0  0  0  0  0  0  0  0
   34.9110   28.0690   38.5340 N   0  0  0  0  0  0  0  0  0  0  0  0
   34.6480   28.6490   37.3590 C   0  0  0  0  0  0  0  0  0  0  0  0
   35.6030   29.3180   36.6880 N   0  0  0  0  0  0  0  0  0  0  0  0
   37.5790   29.9600   36.6140 H   0  0  0  0  0  0  0  0  0  0  0  0
   36.4820   27.5540   40.3980 C   0  0  0  0  0  0  0  0  0  0  0  0
   36.5030   28.4480   41.4780 C   0  0  0  0  0  0  0  0  0  0  0  0
   36.2620   29.5170   41.4160 H   0  0  0  0  0  0  0  0  0  0  0  0
   36.8510   28.0270   42.7410 C   0  0  0  0  0  3  0  0  0  0  0  0
   37.1760   26.6960   42.9000 C   0  0  0  0  0  3  0  0  0  0  0  0
   37.1740   25.7510   41.8580 C   0  0  0  0  0  0  0  0  0  0  0  0
   37.4930   24.4310   42.0620 C   0  0  0  0  0  3  0  0  0  0  0  0
   37.4470   23.5660   40.9620 C   0  0  0  0  0  3  0  0  0  0  0  0
   37.0930   24.0260   39.7030 C   0  0  0  0  0  3  0  0  0  0  0  0
   36.7710   25.3630   39.4940 C   0  0  0  0  0  3  0  0  0  0  0  0
   36.8130   26.2350   40.5930 C   0  0  0  0  0  0  0  0  0  0  0  0
   38.5450   28.9520   38.9510 C   0  0  0  0  0  0  0  0  0  0  0  0
   38.4520   29.9720   39.8890 F   0  0  0  0  0  0  0  0  0  0  0  0
   39.3270   29.3520   37.8880 F   0  0  0  0  0  0  0  0  0  0  0  0
   38.9320   27.7860   39.5160 F   0  0  0  0  0  0  0  0  0  0  0  0
   33.4020   28.6100   36.7460 O   0  0  0  0  0  0  0  0  0  0  0  0
   33.1370   29.3830   35.5940 C   0  0  0  0  0  0  0  0  0  0  0  0
   33.2010   28.8160   34.6470 H   0  0  0  0  0  0  0  0  0  0  0  0
   33.8710   30.2250   35.5680 H   0  0  0  0  0  0  0  0  0  0  0  0
   31.8110   29.9870   35.7430 C   0  0  0  0  0  0  0  0  0  0  0  0
   31.0380   30.7110   34.8500 C   0  0  0  0  0  0  0  0  0  0  0  0
   29.8180   31.1550   35.2790 C   0  0  0  0  0  0  0  0  0  0  0  0
   29.3530   30.9240   36.4970 N   0  0  0  0  0  0  0  0  0  0  0  0
   30.1070   30.2210   37.3640 C   0  0  0  0  0  0  0  0  0  0  0  0
   31.3460   29.7470   36.9900 N   0  0  0  0  0  0  0  0  0  0  0  0
   31.5250   30.8290   33.9010 H   0  0  0  0  0  0  0  0  0  0  0  0
   29.2760   31.7170   34.5130 H   0  0  0  0  0  0  0  0  0  0  0  0
   29.5170   30.0070   38.7150 C   0  0  0  0  0  0  0  0  0  0  0  0
   28.7770   31.0820   39.1100 F   0  0  0  0  0  0  0  0  0  0  0  0
   30.5530   29.8010   39.6420 F   0  0  0  0  0  0  0  0  0  0  0  0
   28.7020   28.8880   38.7410 F   0  0  0  0  0  0  0  0  0  0  0  0
  1  2  1  0  0  0  0
  2 19  1  0  0  0  0
  2  3  2  0  0  0  0
  3  8  1  0  0  0  0
  4  3  1  0  0  0  0
  5  4  2  0  0  0  0
  6  1  2  0  0  0  0
  6  5  1  0  0  0  0
  7  1  1  0  0  0  0
  8 18  2  0  0  0  0
  8  9  1  0  0  0  0
  9 11  2  0  0  0  0
 10  9  1  0  0  0  0
 11 12  1  0  0  0  0
 13 14  1  0  0  0  0
 13 12  2  0  0  0  0
 15 14  2  0  0  0  0
 16 15  1  0  0  0  0
 17 16  2  0  0  0  0
 17 18  1  0  0  0  0
 18 13  1  0  0  0  0
 19 22  1  0  0  0  0
 19 20  1  0  0  0  0
 21 19  1  0  0  0  0
 23  5  1  0  0  0  0
 24 27  1  0  0  0  0
 24 23  1  0  0  0  0
 25 24  1  0  0  0  0
 26 24  1  0  0  0  0
 27 32  1  0  0  0  0
 28 29  1  0  0  0  0
 28 27  2  0  0  0  0
 29 30  2  0  0  0  0
 30 31  1  0  0  0  0
 31 35  1  0  0  0  0
 32 31  2  0  0  0  0
 33 28  1  0  0  0  0
 34 29  1  0  0  0  0
 35 38  1  0  0  0  0
 35 36  1  0  0  0  0
 35 37  1  0  0  0  0
M  END
>  <minimizedAffinity>
-6.49175549

$$$$

 OpenBabel03252505593D

 38 41  0  0  0  0  0  0  0  0999 V2000
   36.3200   24.4930   38.8560 C   0  0  0  0  0  0  0  0  0  0  0  0
   36.8180   25.0730   40.0270 C   0  0  0  0  0  0  0  0  0  0  0  0
   36.8230   26.4820   40.1000 C   0  0  0  0  0  0  0  0  0  0  0  0
   36.3570   27.1840   39.0580 N   0  0  0  0  0  0  0  0  0  0  0  0
   35.8880   26.5920   37.9550 C   0  0  0  0  0  0  0  0  0  0  0  0
   35.8670   25.2510   37.8450 N   0  0  0  0  0  0  0  0  0  0  0  0
   36.2820   23.4080   38.7140 H   0  0  0  0  0  0  0  0  0  0  0  0
   37.3960   27.0540   41.3180 C   0  0  0  0  0  0  0  0  0  0  0  0
   36.5120   27.2450   42.3890 C   0  0  0  0  0  0  0  0  0  0  0  0
   35.4460   26.9850   42.3820 H   0  0  0  0  0  0  0  0  0  0  0  0
   36.9410   27.8040   43.5720 C   0  0  0  0  0  3  0  0  0  0  0  0
   38.2690   28.1650   43.6590 C   0  0  0  0  0  3  0  0  0  0  0  0
   39.2030   28.0000   42.6210 C   0  0  0  0  0  0  0  0  0  0  0  0
   40.5220   28.3630   42.7540 C   0  0  0  0  0  3  0  0  0  0  0  0
   41.3770   28.1440   41.6670 C   0  0  0  0  0  3  0  0  0  0  0  0
   40.9090   27.5800   40.4900 C   0  0  0  0  0  3  0  0  0  0  0  0
   39.5740   27.2130   40.3530 C   0  0  0  0  0  3  0  0  0  0  0  0
   38.7130   27.4280   41.4400 C   0  0  0  0  0  0  0  0  0  0  0  0
   37.3220   24.1810   41.1090 C   0  0  0  0  0  0  0  0  0  0  0  0
   37.0630   22.8980   40.6420 F   0  0  0  0  0  0  0  0  0  0  0  0
   36.5540   24.4460   42.2230 F   0  0  0  0  0  0  0  0  0  0  0  0
   38.6460   24.3920   41.2830 F   0  0  0  0  0  0  0  0  0  0  0  0
   35.3920   27.2890   36.8600 O   0  0  0  0  0  0  0  0  0  0  0  0
   34.7910   28.5560   37.0190 C   0  0  0  0  0  0  0  0  0  0  0  0
   34.0450   28.6020   37.8350 H   0  0  0  0  0  0  0  0  0  0  0  0
   34.2960   28.8250   36.0540 H   0  0  0  0  0  0  0  0  0  0  0  0
   35.8520   29.5430   37.2350 C   0  0  0  0  0  0  0  0  0  0  0  0
   36.7590   30.1070   36.3530 C   0  0  0  0  0  0  0  0  0  0  0  0
   37.6480   31.0190   36.8520 C   0  0  0  0  0  0  0  0  0  0  0  0
   37.6740   31.3790   38.1260 N   0  0  0  0  0  0  0  0  0  0  0  0
   36.7910   30.8280   38.9810 C   0  0  0  0  0  0  0  0  0  0  0  0
   35.8710   29.9030   38.5380 N   0  0  0  0  0  0  0  0  0  0  0  0
   36.6350   29.7330   35.3550 H   0  0  0  0  0  0  0  0  0  0  0  0
   38.3270   31.4120   36.0900 H   0  0  0  0  0  0  0  0  0  0  0  0
   36.8880   31.2820   40.3980 C   0  0  0  0  0  0  0  0  0  0  0  0
   35.7860   30.9180   41.1130 F   0  0  0  0  0  0  0  0  0  0  0  0
   37.0080   32.6810   40.4240 F   0  0  0  0  0  0  0  0  0  0  0  0
   38.0040   30.7530   41.0230 F   0  0  0  0  0  0  0  0  0  0  0  0
  1  2  1  0  0  0  0
  2  3  2  0  0  0  0
  2 19  1  0  0  0  0
  3  8  1  0  0  0  0
  4  3  1  0  0  0  0
  5  4  2  0  0  0  0
  6  5  1  0  0  0  0
  6  1  2  0  0  0  0
  7  1  1  0  0  0  0
  8 18  2  0  0  0  0
  8  9  1  0  0  0  0
  9 11  2  0  0  0  0
 10  9  1  0  0  0  0
 11 12  1  0  0  0  0
 13 14  1  0  0  0  0
 13 12  2  0  0  0  0
 15 14  2  0  0  0  0
 16 15  1  0  0  0  0
 17 16  2  0  0  0  0
 17 18  1  0  0  0  0
 18 13  1  0  0  0  0
 19 22  1  0  0  0  0
 19 21  1  0  0  0  0
 20 19  1  0  0  0  0
 23 24  1  0  0  0  0
 23  5  1  0  0  0  0
 24 27  1  0  0  0  0
 24 25  1  0  0  0  0
 26 24  1  0  0  0  0
 27 32  1  0  0  0  0
 28 29  1  0  0  0  0
 28 27  2  0  0  0  0
 29 30  2  0  0  0  0
 30 31  1  0  0  0  0
 31 35  1  0  0  0  0
 32 31  2  0  0  0  0
 33 28  1  0  0  0  0
 34 29  1  0  0  0  0
 35 37  1  0  0  0  0
 35 38  1  0  0  0  0
 35 36  1  0  0  0  0
M  END
>  <minimizedAffinity>
-6.47697639

$$$$

 OpenBabel03252505593D

 38 41  0  0  0  0  0  0  0  0999 V2000
   39.3010   33.3500   40.0710 C   0  0  0  0  0  0  0  0  0  0  0  0
   38.5620   32.1640   40.0180 C   0  0  0  0  0  0  0  0  0  0  0  0
   39.2580   30.9580   40.2470 C   0  0  0  0  0  0  0  0  0  0  0  0
   40.5730   31.0090   40.5000 N   0  0  0  0  0  0  0  0  0  0  0  0
   41.2440   32.1640   40.5430 C   0  0  0  0  0  0  0  0  0  0  0  0
   40.6180   33.3360   40.3290 N   0  0  0  0  0  0  0  0  0  0  0  0
   38.8420   34.3290   39.9030 H   0  0  0  0  0  0  0  0  0  0  0  0
   38.4650   29.7340   40.1350 C   0  0  0  0  0  0  0  0  0  0  0  0
   38.2160   29.2730   38.8340 C   0  0  0  0  0  0  0  0  0  0  0  0
   38.5820   29.7500   37.9150 H   0  0  0  0  0  0  0  0  0  0  0  0
   37.4560   28.1470   38.6130 C   0  0  0  0  0  3  0  0  0  0  0  0
   36.9530   27.4930   39.7190 C   0  0  0  0  0  3  0  0  0  0  0  0
   37.1660   27.9060   41.0470 C   0  0  0  0  0  0  0  0  0  0  0  0
   36.6560   27.2180   42.1210 C   0  0  0  0  0  3  0  0  0  0  0  0
   36.9370   27.7020   43.4050 C   0  0  0  0  0  3  0  0  0  0  0  0
   37.7050   28.8410   43.5890 C   0  0  0  0  0  3  0  0  0  0  0  0
   38.2220   29.5400   42.5020 C   0  0  0  0  0  3  0  0  0  0  0  0
   37.9450   29.0580   41.2130 C   0  0  0  0  0  0  0  0  0  0  0  0
   37.1060   32.2410   39.7120 C   0  0  0  0  0  0  0  0  0  0  0  0
   36.9900   31.6530   38.4580 F   0  0  0  0  0  0  0  0  0  0  0  0
   36.7920   33.5810   39.6410 F   0  0  0  0  0  0  0  0  0  0  0  0
   36.4140   31.5570   40.6510 F   0  0  0  0  0  0  0  0  0  0  0  0
   42.6050   32.2530   40.8070 O   0  0  0  0  0  0  0  0  0  0  0  0
   43.5010   31.2710   40.3340 C   0  0  0  0  0  0  0  0  0  0  0  0
   43.0340   30.2860   40.1470 H   0  0  0  0  0  0  0  0  0  0  0  0
   44.3140   31.1540   41.0910 H   0  0  0  0  0  0  0  0  0  0  0  0
   44.1350   31.7790   39.1150 C   0  0  0  0  0  0  0  0  0  0  0  0
   44.8410   32.9480   38.8790 C   0  0  0  0  0  0  0  0  0  0  0  0
   45.3250   33.1540   37.6160 C   0  0  0  0  0  0  0  0  0  0  0  0
   45.1470   32.2940   36.6250 N   0  0  0  0  0  0  0  0  0  0  0  0
   44.4590   31.1590   36.8570 C   0  0  0  0  0  0  0  0  0  0  0  0
   43.9460   30.8950   38.1090 N   0  0  0  0  0  0  0  0  0  0  0  0
   44.9150   33.5570   39.7580 H   0  0  0  0  0  0  0  0  0  0  0  0
   45.8680   34.0990   37.5170 H   0  0  0  0  0  0  0  0  0  0  0  0
   44.2980   30.2460   35.6910 C   0  0  0  0  0  0  0  0  0  0  0  0
   43.0000   30.1910   35.2780 F   0  0  0  0  0  0  0  0  0  0  0  0
   44.7150   28.9560   36.0580 F   0  0  0  0  0  0  0  0  0  0  0  0
   45.0750   30.6500   34.6200 F   0  0  0  0  0  0  0  0  0  0  0  0
  1  6  1  0  0  0  0
  2  1  2  0  0  0  0
  2  3  1  0  0  0  0
  3  4  2  0  0  0  0
  4  5  1  0  0  0  0
  5 23  1  0  0  0  0
  6  5  2  0  0  0  0
  7  1  1  0  0  0  0
  8  3  1  0  0  0  0
  8 18  1  0  0  0  0
  9  8  2  0  0  0  0
 10  9  1  0  0  0  0
 11  9  1  0  0  0  0
 11 12  2  0  0  0  0
 12 13  1  0  0  0  0
 13 18  2  0  0  0  0
 13 14  1  0  0  0  0
 14 15  2  0  0  0  0
 15 16  1  0  0  0  0
 17 16  2  0  0  0  0
 18 17  1  0  0  0  0
 19  2  1  0  0  0  0
 19 22  1  0  0  0  0
 20 19  1  0  0  0  0
 21 19  1  0  0  0  0
 24 23  1  0  0  0  0
 24 26  1  0  0  0  0
 25 24  1  0  0  0  0
 27 24  1  0  0  0  0
 28 27  1  0  0  0  0
 28 33  1  0  0  0  0
 29 28  2  0  0  0  0
 30 31  2  0  0  0  0
 30 29  1  0  0  0  0
 31 32  1  0  0  0  0
 32 27  2  0  0  0  0
 34 29  1  0  0  0  0
 35 37  1  0  0  0  0
 35 31  1  0  0  0  0
 36 35  1  0  0  0  0
 38 35  1  0  0  0  0
M  END
>  <minimizedAffinity>
-6.44118071

$$$$

 OpenBabel03252505593D

 38 41  0  0  0  0  0  0  0  0999 V2000
   36.7430   30.0990   38.0510 C   0  0  0  0  0  0  0  0  0  0  0  0
   36.8230   29.4370   39.2800 C   0  0  0  0  0  0  0  0  0  0  0  0
   38.0790   29.4130   39.9220 C   0  0  0  0  0  0  0  0  0  0  0  0
   39.1190   30.0180   39.3290 N   0  0  0  0  0  0  0  0  0  0  0  0
   39.0010   30.6410   38.1530 C   0  0  0  0  0  0  0  0  0  0  0  0
   37.8200   30.6860   37.5080 N   0  0  0  0  0  0  0  0  0  0  0  0
   35.8080   30.1630   37.4840 H   0  0  0  0  0  0  0  0  0  0  0  0
   38.1380   28.6700   41.1800 C   0  0  0  0  0  0  0  0  0  0  0  0
   37.7590   29.3720   42.3330 C   0  0  0  0  0  0  0  0  0  0  0  0
   37.4140   30.4140   42.3530 H   0  0  0  0  0  0  0  0  0  0  0  0
   37.8050   28.7760   43.5740 C   0  0  0  0  0  3  0  0  0  0  0  0
   38.2350   27.4680   43.6340 C   0  0  0  0  0  3  0  0  0  0  0  0
   38.6280   26.7110   42.5150 C   0  0  0  0  0  0  0  0  0  0  0  0
   39.0390   25.4040   42.6190 C   0  0  0  0  0  3  0  0  0  0  0  0
   39.3960   24.7320   41.4430 C   0  0  0  0  0  3  0  0  0  0  0  0
   39.3390   25.3650   40.2110 C   0  0  0  0  0  3  0  0  0  0  0  0
   38.9240   26.6890   40.1040 C   0  0  0  0  0  3  0  0  0  0  0  0
   38.5630   27.3670   41.2790 C   0  0  0  0  0  0  0  0  0  0  0  0
   35.5960   28.7900   39.8270 C   0  0  0  0  0  0  0  0  0  0  0  0
   34.6460   28.9650   38.8290 F   0  0  0  0  0  0  0  0  0  0  0  0
   35.2440   29.5060   40.9510 F   0  0  0  0  0  0  0  0  0  0  0  0
   35.8450   27.4810   40.0570 F   0  0  0  0  0  0  0  0  0  0  0  0
   40.0540   31.2820   37.5140 O   0  0  0  0  0  0  0  0  0  0  0  0
   40.6230   32.4570   38.0540 C   0  0  0  0  0  0  0  0  0  0  0  0
   40.4730   32.5710   39.1430 H   0  0  0  0  0  0  0  0  0  0  0  0
   40.1680   33.3320   37.5270 H   0  0  0  0  0  0  0  0  0  0  0  0
   42.0500   32.4670   37.7270 C   0  0  0  0  0  0  0  0  0  0  0  0
   43.0620   33.3360   38.1030 C   0  0  0  0  0  0  0  0  0  0  0  0
   44.3220   33.0860   37.6350 C   0  0  0  0  0  0  0  0  0  0  0  0
   44.6100   32.0610   36.8480 N   0  0  0  0  0  0  0  0  0  0  0  0
   43.6250   31.2180   36.4830 C   0  0  0  0  0  0  0  0  0  0  0  0
   42.3340   31.4180   36.9220 N   0  0  0  0  0  0  0  0  0  0  0  0
   42.7000   34.1220   38.7380 H   0  0  0  0  0  0  0  0  0  0  0  0
   45.0570   33.8200   37.9780 H   0  0  0  0  0  0  0  0  0  0  0  0
   44.0280   30.0930   35.5930 C   0  0  0  0  0  0  0  0  0  0  0  0
   42.9560   29.5780   34.9260 F   0  0  0  0  0  0  0  0  0  0  0  0
   44.6120   29.0790   36.3710 F   0  0  0  0  0  0  0  0  0  0  0  0
   44.9650   30.4970   34.6580 F   0  0  0  0  0  0  0  0  0  0  0  0
  1  2  1  0  0  0  0
  2 19  1  0  0  0  0
  2  3  2  0  0  0  0
  3  8  1  0  0  0  0
  4  3  1  0  0  0  0
  5  4  2  0  0  0  0
  6  1  2  0  0  0  0
  6  5  1  0  0  0  0
  7  1  1  0  0  0  0
  8 18  2  0  0  0  0
  8  9  1  0  0  0  0
  9 10  1  0  0  0  0
  9 11  2  0  0  0  0
 11 12  1  0  0  0  0
 13 14  1  0  0  0  0
 13 12  2  0  0  0  0
 15 14  2  0  0  0  0
 16 15  1  0  0  0  0
 17 16  2  0  0  0  0
 17 18  1  0  0  0  0
 18 13  1  0  0  0  0
 19 22  1  0  0  0  0
 19 21  1  0  0  0  0
 20 19  1  0  0  0  0
 23 24  1  0  0  0  0
 23  5  1  0  0  0  0
 24 25  1  0  0  0  0
 26 24  1  0  0  0  0
 27 24  1  0  0  0  0
 27 28  1  0  0  0  0
 28 33  1  0  0  0  0
 29 34  1  0  0  0  0
 29 28  2  0  0  0  0
 30 29  1  0  0  0  0
 31 30  2  0  0  0  0
 31 32  1  0  0  0  0
 32 27  2  0  0  0  0
 35 37  1  0  0  0  0
 35 31  1  0  0  0  0
 36 35  1  0  0  0  0
 38 35  1  0  0  0  0
M  END
>  <minimizedAffinity>
-6.41048384

$$$$

 OpenBabel03252505593D

 38 41  0  0  0  0  0  0  0  0999 V2000
   36.6090   31.4430   40.5250 C   0  0  0  0  0  0  0  0  0  0  0  0
   37.9230   31.7390   40.1470 C   0  0  0  0  0  0  0  0  0  0  0  0
   38.9410   30.8920   40.6330 C   0  0  0  0  0  0  0  0  0  0  0  0
   38.6030   29.8610   41.4220 N   0  0  0  0  0  0  0  0  0  0  0  0
   37.3340   29.6120   41.7590 C   0  0  0  0  0  0  0  0  0  0  0  0
   36.3330   30.3960   41.3170 N   0  0  0  0  0  0  0  0  0  0  0  0
   35.7590   32.0490   40.1960 H   0  0  0  0  0  0  0  0  0  0  0  0
   40.3070   31.2590   40.2600 C   0  0  0  0  0  0  0  0  0  0  0  0
   40.9350   32.2150   41.0700 C   0  0  0  0  0  0  0  0  0  0  0  0
   40.4870   32.6850   41.9550 H   0  0  0  0  0  0  0  0  0  0  0  0
   42.2100   32.6530   40.7920 C   0  0  0  0  0  3  0  0  0  0  0  0
   42.8410   32.1150   39.6900 C   0  0  0  0  0  3  0  0  0  0  0  0
   42.2640   31.1550   38.8390 C   0  0  0  0  0  0  0  0  0  0  0  0
   42.9320   30.6350   37.7570 C   0  0  0  0  0  3  0  0  0  0  0  0
   42.2770   29.6720   36.9800 C   0  0  0  0  0  3  0  0  0  0  0  0
   40.9910   29.2550   37.2900 C   0  0  0  0  0  3  0  0  0  0  0  0
   40.3120   29.7810   38.3850 C   0  0  0  0  0  3  0  0  0  0  0  0
   40.9650   30.7450   39.1690 C   0  0  0  0  0  0  0  0  0  0  0  0
   38.1690   32.9230   39.2780 C   0  0  0  0  0  0  0  0  0  0  0  0
   36.9070   33.4700   39.0810 F   0  0  0  0  0  0  0  0  0  0  0  0
   38.6690   32.4390   38.0890 F   0  0  0  0  0  0  0  0  0  0  0  0
   38.9920   33.7840   39.9170 F   0  0  0  0  0  0  0  0  0  0  0  0
   36.9480   28.5500   42.5680 O   0  0  0  0  0  0  0  0  0  0  0  0
   37.7350   28.1580   43.6720 C   0  0  0  0  0  0  0  0  0  0  0  0
   37.1650   28.0320   44.6110 H   0  0  0  0  0  0  0  0  0  0  0  0
   38.5260   28.9330   43.8240 H   0  0  0  0  0  0  0  0  0  0  0  0
   38.4280   26.9160   43.3220 C   0  0  0  0  0  0  0  0  0  0  0  0
   39.6810   26.4430   43.6800 C   0  0  0  0  0  0  0  0  0  0  0  0
   40.0640   25.2250   43.1910 C   0  0  0  0  0  0  0  0  0  0  0  0
   39.2970   24.4900   42.4010 N   0  0  0  0  0  0  0  0  0  0  0  0
   38.0800   24.9520   42.0540 C   0  0  0  0  0  0  0  0  0  0  0  0
   37.6380   26.1730   42.5140 N   0  0  0  0  0  0  0  0  0  0  0  0
   40.2010   27.1300   44.3200 H   0  0  0  0  0  0  0  0  0  0  0  0
   41.0650   24.9300   43.5210 H   0  0  0  0  0  0  0  0  0  0  0  0
   37.2800   24.0690   41.1590 C   0  0  0  0  0  0  0  0  0  0  0  0
   37.7430   22.7870   41.1810 F   0  0  0  0  0  0  0  0  0  0  0  0
   37.3550   24.5580   39.8450 F   0  0  0  0  0  0  0  0  0  0  0  0
   35.9450   24.0520   41.5260 F   0  0  0  0  0  0  0  0  0  0  0  0
  1  6  1  0  0  0  0
  2  1  2  0  0  0  0
  2  3  1  0  0  0  0
  3  4  2  0  0  0  0
  4  5  1  0  0  0  0
  5 23  1  0  0  0  0
  6  5  2  0  0  0  0
  7  1  1  0  0  0  0
  8  3  1  0  0  0  0
  8  9  1  0  0  0  0
  9 10  1  0  0  0  0
 11  9  2  0  0  0  0
 12 11  1  0  0  0  0
 13 18  1  0  0  0  0
 13 12  2  0  0  0  0
 14 13  1  0  0  0  0
 15 16  1  0  0  0  0
 15 14  2  0  0  0  0
 16 17  2  0  0  0  0
 17 18  1  0  0  0  0
 18  8  2  0  0  0  0
 19 22  1  0  0  0  0
 19  2  1  0  0  0  0
 20 19  1  0  0  0  0
 21 19  1  0  0  0  0
 23 24  1  0  0  0  0
 24 26  1  0  0  0  0
 24 25  1  0  0  0  0
 27 24  1  0  0  0  0
 27 28  1  0  0  0  0
 28 33  1  0  0  0  0
 29 34  1  0  0  0  0
 29 28  2  0  0  0  0
 30 29  1  0  0  0  0
 31 30  2  0  0  0  0
 31 32  1  0  0  0  0
 32 27  2  0  0  0  0
 35 36  1  0  0  0  0
 35 38  1  0  0  0  0
 35 31  1  0  0  0  0
 37 35  1  0  0  0  0
M  END
>  <minimizedAffinity>
-6.3813591

$$$$

 OpenBabel03252505593D

 38 41  0  0  0  0  0  0  0  0999 V2000
   39.8300   32.0870   39.8080 C   0  0  0  0  0  0  0  0  0  0  0  0
   38.5140   31.6610   39.6040 C   0  0  0  0  0  0  0  0  0  0  0  0
   38.2830   30.2700   39.5670 C   0  0  0  0  0  0  0  0  0  0  0  0
   39.3220   29.4370   39.7270 N   0  0  0  0  0  0  0  0  0  0  0  0
   40.5660   29.8840   39.9220 C   0  0  0  0  0  0  0  0  0  0  0  0
   40.8290   31.2040   39.9620 N   0  0  0  0  0  0  0  0  0  0  0  0
   40.0990   33.1470   39.8480 H   0  0  0  0  0  0  0  0  0  0  0  0
   36.9040   29.8600   39.3020 C   0  0  0  0  0  0  0  0  0  0  0  0
   36.0840   29.6760   40.4240 C   0  0  0  0  0  0  0  0  0  0  0  0
   36.3970   29.8300   41.4650 H   0  0  0  0  0  0  0  0  0  0  0  0
   34.7780   29.2630   40.2900 C   0  0  0  0  0  3  0  0  0  0  0  0
   34.3110   29.0410   39.0110 C   0  0  0  0  0  3  0  0  0  0  0  0
   35.0830   29.2070   37.8470 C   0  0  0  0  0  0  0  0  0  0  0  0
   34.5740   28.9860   36.5900 C   0  0  0  0  0  3  0  0  0  0  0  0
   35.4190   29.1930   35.4930 C   0  0  0  0  0  3  0  0  0  0  0  0
   36.7310   29.6080   35.6670 C   0  0  0  0  0  3  0  0  0  0  0  0
   37.2480   29.8320   36.9390 C   0  0  0  0  0  3  0  0  0  0  0  0
   36.4050   29.6270   38.0430 C   0  0  0  0  0  0  0  0  0  0  0  0
   37.4490   32.6870   39.4240 C   0  0  0  0  0  0  0  0  0  0  0  0
   38.0970   33.8950   39.6540 F   0  0  0  0  0  0  0  0  0  0  0  0
   36.5120   32.4550   40.4070 F   0  0  0  0  0  0  0  0  0  0  0  0
   36.9630   32.6120   38.1640 F   0  0  0  0  0  0  0  0  0  0  0  0
   41.6630   29.0510   40.0980 O   0  0  0  0  0  0  0  0  0  0  0  0
   41.5100   27.6480   40.1250 C   0  0  0  0  0  0  0  0  0  0  0  0
   42.4570   27.0880   40.0020 H   0  0  0  0  0  0  0  0  0  0  0  0
   40.8060   27.3620   39.3050 H   0  0  0  0  0  0  0  0  0  0  0  0
   40.8570   27.2820   41.3840 C   0  0  0  0  0  0  0  0  0  0  0  0
   41.3030   27.3600   42.6940 C   0  0  0  0  0  0  0  0  0  0  0  0
   40.4540   26.9390   43.6800 C   0  0  0  0  0  0  0  0  0  0  0  0
   39.2420   26.4670   43.4360 N   0  0  0  0  0  0  0  0  0  0  0  0
   38.8110   26.3910   42.1620 C   0  0  0  0  0  0  0  0  0  0  0  0
   39.6210   26.8000   41.1240 N   0  0  0  0  0  0  0  0  0  0  0  0
   42.2970   27.7580   42.7560 H   0  0  0  0  0  0  0  0  0  0  0  0
   40.8850   27.0340   44.6810 H   0  0  0  0  0  0  0  0  0  0  0  0
   37.4380   25.8450   41.9700 C   0  0  0  0  0  0  0  0  0  0  0  0
   36.9170   26.2200   40.7680 F   0  0  0  0  0  0  0  0  0  0  0  0
   36.6060   26.3230   42.9970 F   0  0  0  0  0  0  0  0  0  0  0  0
   37.4300   24.4620   42.0330 F   0  0  0  0  0  0  0  0  0  0  0  0
  1  7  1  0  0  0  0
  1  6  1  0  0  0  0
  2  1  2  0  0  0  0
  3  2  1  0  0  0  0
  3  4  2  0  0  0  0
  4  5  1  0  0  0  0
  5  6  2  0  0  0  0
  5 23  1  0  0  0  0
  8  3  1  0  0  0  0
  8  9  1  0  0  0  0
  9 10  1  0  0  0  0
 11  9  2  0  0  0  0
 12 11  1  0  0  0  0
 13 18  1  0  0  0  0
 13 12  2  0  0  0  0
 14 13  1  0  0  0  0
 15 16  1  0  0  0  0
 15 14  2  0  0  0  0
 16 17  2  0  0  0  0
 17 18  1  0  0  0  0
 18  8  2  0  0  0  0
 19  2  1  0  0  0  0
 19 20  1  0  0  0  0
 19 21  1  0  0  0  0
 22 19  1  0  0  0  0
 23 24  1  0  0  0  0
 24 27  1  0  0  0  0
 25 24  1  0  0  0  0
 26 24  1  0  0  0  0
 27 28  1  0  0  0  0
 28 33  1  0  0  0  0
 28 29  2  0  0  0  0
 29 34  1  0  0  0  0
 30 29  1  0  0  0  0
 31 30  2  0  0  0  0
 32 27  2  0  0  0  0
 32 31  1  0  0  0  0
 35 38  1  0  0  0  0
 35 31  1  0  0  0  0
 35 37  1  0  0  0  0
 36 35  1  0  0  0  0
M  END
>  <minimizedAffinity>
-6.30269098

$$$$
