
 OpenBabel03252505583D

 38 41  0  0  0  0  0  0  0  0999 V2000
   44.8050   35.1440   44.9350 C   0  0  0  0  0  0  0  0  0  0  0  0
   45.6970   34.7560   43.9300 C   0  0  0  0  0  0  0  0  0  0  0  0
   46.5990   33.7150   44.2330 C   0  0  0  0  0  0  0  0  0  0  0  0
   46.5580   33.1580   45.4520 N   0  0  0  0  0  0  0  0  0  0  0  0
   45.6890   33.5570   46.3860 C   0  0  0  0  0  0  0  0  0  0  0  0
   44.8130   34.5480   46.1370 N   0  0  0  0  0  0  0  0  0  0  0  0
   44.0740   35.9450   44.7870 H   0  0  0  0  0  0  0  0  0  0  0  0
   47.5490   33.3690   43.1760 C   0  0  0  0  0  0  0  0  0  0  0  0
   48.7350   34.1170   43.1380 C   0  0  0  0  0  0  0  0  0  0  0  0
   48.9980   34.9170   43.8420 H   0  0  0  0  0  0  0  0  0  0  0  0
   49.6850   33.8930   42.1680 C   0  0  0  0  0  0  0  0  0  0  0  0
   49.4240   32.9070   41.2390 C   0  0  0  0  0  0  0  0  0  0  0  0
   48.2560   32.1240   41.2240 C   0  0  0  0  0  0  0  0  0  0  0  0
   48.0410   31.1420   40.2870 C   0  0  0  0  0  0  0  0  0  0  0  0
   46.8520   30.4070   40.3660 C   0  0  0  0  0  0  0  0  0  0  0  0
   45.9160   30.6610   41.3570 C   0  0  0  0  0  0  0  0  0  0  0  0
   46.1320   31.6560   42.3060 C   0  0  0  0  0  0  0  0  0  0  0  0
   47.3230   32.3940   42.2340 C   0  0  0  0  0  0  0  0  0  0  0  0
   45.6520   35.4650   42.6210 C   0  0  0  0  0  0  0  0  0  0  0  0
   44.8350   36.5640   42.8560 F   0  0  0  0  0  0  0  0  0  0  0  0
   45.0480   34.6040   41.7300 F   0  0  0  0  0  0  0  0  0  0  0  0
   46.9030   35.8380   42.2700 F   0  0  0  0  0  0  0  0  0  0  0  0
   45.6160   32.9990   47.6550 O   0  0  0  0  0  0  0  0  0  0  0  0
   45.0490   31.7210   47.8530 C   0  0  0  0  0  0  0  0  0  0  0  0
   44.2680   31.4540   47.1160 H   0  0  0  0  0  0  0  0  0  0  0  0
   44.6080   31.6960   48.8790 H   0  0  0  0  0  0  0  0  0  0  0  0
   46.1300   30.7330   47.8370 C   0  0  0  0  0  0  0  0  0  0  0  0
   46.2020   29.4750   47.2610 C   0  0  0  0  0  0  0  0  0  0  0  0
   47.3640   28.7710   47.4150 C   0  0  0  0  0  0  0  0  0  0  0  0
   48.4080   29.2360   48.0830 N   0  0  0  0  0  0  0  0  0  0  0  0
   48.3350   30.4590   48.6430 C   0  0  0  0  0  0  0  0  0  0  0  0
   47.1900   31.2170   48.5230 N   0  0  0  0  0  0  0  0  0  0  0  0
   45.2950   29.2150   46.7500 H   0  0  0  0  0  0  0  0  0  0  0  0
   47.3340   27.7900   46.9300 H   0  0  0  0  0  0  0  0  0  0  0  0
   49.5480   30.9100   49.3820 C   0  0  0  0  0  0  0  0  0  0  0  0
   49.6570   32.2690   49.3780 F   0  0  0  0  0  0  0  0  0  0  0  0
   50.6880   30.3600   48.7710 F   0  0  0  0  0  0  0  0  0  0  0  0
   49.5290   30.4810   50.6980 F   0  0  0  0  0  0  0  0  0  0  0  0
  1  6  1  0  0  0  0
  2  3  1  0  0  0  0
  2  1  2  0  0  0  0
  3  4  2  0  0  0  0
  4  5  1  0  0  0  0
  5 23  1  0  0  0  0
  6  5  2  0  0  0  0
  7  1  1  0  0  0  0
  8  3  1  0  0  0  0
  9  8  1  0  0  0  0
  9 10  1  0  0  0  0
 11  9  2  0  0  0  0
 12 11  1  0  0  0  0
 13 12  2  0  0  0  0
 13 18  1  0  0  0  0
 14 15  2  0  0  0  0
 14 13  1  0  0  0  0
 15 16  1  0  0  0  0
 16 17  2  0  0  0  0
 18 17  1  0  0  0  0
 18  8  2  0  0  0  0
 19 20  1  0  0  0  0
 19  2  1  0  0  0  0
 21 19  1  0  0  0  0
 22 19  1  0  0  0  0
 23 24  1  0  0  0  0
 24 26  1  0  0  0  0
 25 24  1  0  0  0  0
 27 24  1  0  0  0  0
 27 32  1  0  0  0  0
 28 29  1  0  0  0  0
 28 27  2  0  0  0  0
 29 30  2  0  0  0  0
 30 31  1  0  0  0  0
 31 35  1  0  0  0  0
 32 31  2  0  0  0  0
 33 28  1  0  0  0  0
 34 29  1  0  0  0  0
 35 38  1  0  0  0  0
 36 35  1  0  0  0  0
 37 35  1  0  0  0  0
M  END
>  <minimizedAffinity>
-6.50523281

>  <minimizedRMSD>
0.918079853

$$$$
