
 OpenBabel03242518433D

 21 23  0  0  0  0  0  0  0  0999 V2000
   46.1610   32.5320   46.5740 C   0  0  0  0  0  0  0  0  0  0  0  0
   45.4820   32.8390   47.7580 C   0  0  0  0  0  0  0  0  0  0  0  0
   44.9070   33.7770   47.7900 H   0  0  0  0  0  0  0  0  0  0  0  0
   45.4900   32.0460   48.8750 C   0  0  0  0  0  0  0  0  0  0  0  0
   46.1950   30.8690   48.8730 C   0  0  0  0  0  0  0  0  0  0  0  0
   46.8860   30.5070   47.7400 C   0  0  0  0  0  0  0  0  0  0  0  0
   47.5810   29.3170   47.7810 C   0  0  0  0  0  0  0  0  0  0  0  0
   48.2940   28.8980   46.6780 C   0  0  0  0  0  0  0  0  0  0  0  0
   48.2710   29.7180   45.5570 C   0  0  0  0  0  0  0  0  0  0  0  0
   47.5570   30.8940   45.5800 C   0  0  0  0  0  0  0  0  0  0  0  0
   46.8370   31.3430   46.6590 C   0  0  0  0  0  0  0  0  0  0  0  0
   44.8310   35.0900   44.4220 C   0  0  0  0  0  0  0  0  0  0  0  0
   45.7030   35.2100   43.3350 C   0  0  0  0  0  0  0  0  0  0  0  0
   46.8120   34.3620   43.3450 C   0  0  0  0  0  0  0  0  0  0  0  0
   46.9610   33.5130   44.3680 N   0  0  0  0  0  0  0  0  0  0  0  0
   46.1340   33.3960   45.4010 C   0  0  0  0  0  0  0  0  0  0  0  0
   45.0930   34.2100   45.3690 N   0  0  0  0  0  0  0  0  0  0  0  0
   45.5490   35.8980   42.5440 H   0  0  0  0  0  0  0  0  0  0  0  0
   47.5460   34.3600   42.5750 H   0  0  0  0  0  0  0  0  0  0  0  0
   43.7110   35.8990   44.4790 O   0  0  0  0  0  0  0  0  0  0  0  0
   43.8280   36.8690   44.6920 H   0  0  0  0  0  0  0  0  0  0  0  0
  1 11  2  0  0  0  0
  1  2  1  0  0  0  0
  2  3  1  0  0  0  0
  2  4  2  0  0  0  0
  5  4  1  0  0  0  0
  6  7  1  0  0  0  0
  6  5  2  0  0  0  0
  8  7  2  0  0  0  0
  9 10  2  0  0  0  0
  9  8  1  0  0  0  0
 10 11  1  0  0  0  0
 11  6  1  0  0  0  0
 12 20  1  0  0  0  0
 12 17  1  0  0  0  0
 13 14  1  0  0  0  0
 13 12  2  0  0  0  0
 14 15  2  0  0  0  0
 15 16  1  0  0  0  0
 16  1  1  0  0  0  0
 17 16  2  0  0  0  0
 18 13  1  0  0  0  0
 19 14  1  0  0  0  0
 20 21  1  0  0  0  0
M  END
>  <minimizedAffinity>
-5.64974833

>  <minimizedRMSD>
2.42147684

$$$$
