
 OpenBabel03242520433D

 41 45  0  0  1  0  0  0  0  0999 V2000
   38.6440   27.8130   36.7050 C   0  0  0  0  0  0  0  0  0  0  0  0
   37.5520   27.7100   35.8040 C   0  0  0  0  0  0  0  0  0  0  0  0
   36.6840   28.8360   35.6720 C   0  0  0  0  0  0  0  0  0  0  0  0
   36.9400   29.9590   36.4100 N   0  0  0  0  0  0  0  0  0  0  0  0
   38.0090   29.9910   37.2570 C   0  0  0  0  0  0  0  0  0  0  0  0
   38.8440   28.9310   37.3980 N   0  0  0  0  0  0  0  0  0  0  0  0
   38.1890   31.1810   37.9730 N   0  0  0  0  0  0  0  0  0  0  0  0
   37.1770   31.6740   38.8490 C   0  0  2  0  0  0  0  0  0  0  0  0
   37.3770   33.0650   39.3410 C   0  0  0  0  0  0  0  0  0  0  0  0
   38.7200   33.4990   39.4780 N   0  0  0  0  0  0  0  0  0  0  0  0
   39.6980   32.5130   39.1960 C   0  0  0  0  0  0  0  0  0  0  0  0
   39.4250   31.9280   37.8290 C   0  0  0  0  0  0  0  0  0  0  0  0
   39.2450   26.9240   36.7460 H   0  0  0  0  0  0  0  0  0  0  0  0
   37.3580   26.8120   35.2230 H   0  0  0  0  0  0  0  0  0  0  0  0
   35.8470   28.8040   35.0030 H   0  0  0  0  0  0  0  0  0  0  0  0
   36.2400   31.7320   38.2230 H   0  0  0  0  0  0  0  0  0  0  0  0
   36.8620   33.8170   38.7080 H   0  0  0  0  0  0  0  0  0  0  0  0
   36.8410   33.1320   40.3300 H   0  0  0  0  0  0  0  0  0  0  0  0
   38.8850   33.8650   40.4340 H   0  0  0  0  0  0  0  0  0  0  0  0
   39.8960   31.7970   39.9850 H   0  0  0  0  0  0  0  0  0  0  0  0
   40.6750   33.0720   39.0640 H   0  0  0  0  0  0  0  0  0  0  0  0
   39.3760   32.7380   37.1050 H   0  0  0  0  0  0  0  0  0  0  0  0
   40.2410   31.1910   37.6120 H   0  0  0  0  0  0  0  0  0  0  0  0
   36.8860   30.7030   39.9510 C   0  0  0  0  0  0  0  0  0  0  0  0
   36.2700   30.8300   41.1690 C   0  0  0  0  0  0  0  0  0  0  0  0
   36.2540   29.6500   41.7940 N   0  0  0  0  0  0  0  0  0  0  0  0
   36.8380   28.7710   41.0200 C   0  0  0  0  0  0  0  0  0  0  0  0
   37.2140   29.4070   39.9140 N   0  0  0  0  0  0  0  0  0  0  0  0
   35.8730   31.7780   41.5240 H   0  0  0  0  0  0  0  0  0  0  0  0
   35.8060   29.5500   42.6920 H   0  0  0  0  0  0  0  0  0  0  0  0
   37.2010   27.3800   41.1210 C   0  0  0  0  0  0  0  0  0  0  0  0
   36.6040   26.4090   40.3030 C   0  0  0  0  0  0  0  0  0  0  0  0
   35.8330   26.7250   39.5800 H   0  0  0  0  0  0  0  0  0  0  0  0
   36.8860   25.0690   40.3110 C   0  0  0  0  0  3  0  0  0  0  0  0
   37.8320   24.5820   41.1800 C   0  0  0  0  0  3  0  0  0  0  0  0
   38.4560   25.4650   42.0010 C   0  0  0  0  0  0  0  0  0  0  0  0
   39.4150   24.9450   42.8300 C   0  0  0  0  0  3  0  0  0  0  0  0
   40.1300   25.7610   43.6790 C   0  0  0  0  0  3  0  0  0  0  0  0
   39.8200   27.1170   43.6370 C   0  0  0  0  0  3  0  0  0  0  0  0
   38.8470   27.5820   42.7870 C   0  0  0  0  0  3  0  0  0  0  0  0
   38.1240   26.7890   41.9380 C   0  0  0  0  0  0  0  0  0  0  0  0
  1 13  1  0  0  0  0
  1  6  1  0  0  0  0
  2  1  2  0  0  0  0
  3  2  1  0  0  0  0
  3  4  2  0  0  0  0
  4  5  1  0  0  0  0
  5  6  2  0  0  0  0
  5  7  1  0  0  0  0
  7  8  1  0  0  0  0
  8 16  1  6  0  0  0
  8  9  1  0  0  0  0
  8 24  1  0  0  0  0
  9 10  1  0  0  0  0
  9 18  1  0  0  0  0
 10 19  1  0  0  0  0
 11 10  1  0  0  0  0
 11 20  1  0  0  0  0
 12  7  1  0  0  0  0
 12 11  1  0  0  0  0
 14  2  1  0  0  0  0
 15  3  1  0  0  0  0
 17  9  1  0  0  0  0
 21 11  1  0  0  0  0
 22 12  1  0  0  0  0
 23 12  1  0  0  0  0
 24 25  2  0  0  0  0
 25 29  1  0  0  0  0
 25 26  1  0  0  0  0
 26 30  1  0  0  0  0
 27 31  1  0  0  0  0
 27 26  1  0  0  0  0
 28 24  1  0  0  0  0
 28 27  2  0  0  0  0
 31 41  1  0  0  0  0
 32 34  1  0  0  0  0
 32 31  2  0  0  0  0
 33 32  1  0  0  0  0
 34 35  2  0  0  0  0
 35 36  1  0  0  0  0
 36 37  1  0  0  0  0
 37 38  2  0  0  0  0
 39 38  1  0  0  0  0
 40 39  2  0  0  0  0
 41 36  2  0  0  0  0
 41 40  1  0  0  0  0
M  END
>  <minimizedAffinity>
-7.3809638

$$$$

 OpenBabel03242520433D

 41 45  0  0  1  0  0  0  0  0999 V2000
   38.5050   28.0580   36.6950 C   0  0  0  0  0  0  0  0  0  0  0  0
   37.3440   28.0410   35.8780 C   0  0  0  0  0  0  0  0  0  0  0  0
   36.5310   29.2140   35.8460 C   0  0  0  0  0  0  0  0  0  0  0  0
   36.9020   30.2970   36.5960 N   0  0  0  0  0  0  0  0  0  0  0  0
   38.0310   30.2460   37.3590 C   0  0  0  0  0  0  0  0  0  0  0  0
   38.8160   29.1400   37.4040 N   0  0  0  0  0  0  0  0  0  0  0  0
   38.3280   31.4000   38.0940 N   0  0  0  0  0  0  0  0  0  0  0  0
   37.4120   31.9150   39.0590 C   0  0  2  0  0  0  0  0  0  0  0  0
   37.7230   33.2760   39.5760 C   0  0  0  0  0  0  0  0  0  0  0  0
   39.0940   33.6360   39.6220 N   0  0  0  0  0  0  0  0  0  0  0  0
   39.9930   32.6110   39.2360 C   0  0  0  0  0  0  0  0  0  0  0  0
   39.5880   32.0870   37.8780 C   0  0  0  0  0  0  0  0  0  0  0  0
   39.0590   27.1390   36.6630 H   0  0  0  0  0  0  0  0  0  0  0  0
   37.0600   27.1750   35.2870 H   0  0  0  0  0  0  0  0  0  0  0  0
   35.6460   29.2470   35.2430 H   0  0  0  0  0  0  0  0  0  0  0  0
   36.4350   32.0410   38.5090 H   0  0  0  0  0  0  0  0  0  0  0  0
   37.2030   34.0750   39.0070 H   0  0  0  0  0  0  0  0  0  0  0  0
   37.2670   33.3370   40.6050 H   0  0  0  0  0  0  0  0  0  0  0  0
   39.3490   33.9610   40.5720 H   0  0  0  0  0  0  0  0  0  0  0  0
   40.2110   31.8590   39.9860 H   0  0  0  0  0  0  0  0  0  0  0  0
   40.9860   33.1240   39.0470 H   0  0  0  0  0  0  0  0  0  0  0  0
   39.5270   32.9220   37.1840 H   0  0  0  0  0  0  0  0  0  0  0  0
   40.3440   31.3180   37.5770 H   0  0  0  0  0  0  0  0  0  0  0  0
   37.1530   30.9230   40.1510 C   0  0  0  0  0  0  0  0  0  0  0  0
   36.0680   30.6800   40.9530 C   0  0  0  0  0  0  0  0  0  0  0  0
   36.3360   29.6680   41.7820 N   0  0  0  0  0  0  0  0  0  0  0  0
   37.5540   29.2540   41.5410 C   0  0  0  0  0  0  0  0  0  0  0  0
   38.0390   30.0100   40.5600 N   0  0  0  0  0  0  0  0  0  0  0  0
   35.1510   31.2590   40.8820 H   0  0  0  0  0  0  0  0  0  0  0  0
   35.6340   29.3290   42.4230 H   0  0  0  0  0  0  0  0  0  0  0  0
   38.4480   28.2770   42.1080 C   0  0  0  0  0  0  0  0  0  0  0  0
   39.6170   28.6610   42.7820 C   0  0  0  0  0  0  0  0  0  0  0  0
   39.8540   29.7360   42.8630 H   0  0  0  0  0  0  0  0  0  0  0  0
   40.5220   27.8160   43.3650 C   0  0  0  0  0  3  0  0  0  0  0  0
   40.3120   26.4590   43.3140 C   0  0  0  0  0  3  0  0  0  0  0  0
   39.1970   26.0130   42.6810 C   0  0  0  0  0  0  0  0  0  0  0  0
   39.0060   24.6560   42.6780 C   0  0  0  0  0  3  0  0  0  0  0  0
   37.8900   24.1020   42.0910 C   0  0  0  0  0  3  0  0  0  0  0  0
   36.9910   24.9930   41.5150 C   0  0  0  0  0  3  0  0  0  0  0  0
   37.2330   26.3440   41.5460 C   0  0  0  0  0  3  0  0  0  0  0  0
   38.3360   26.9150   42.1210 C   0  0  0  0  0  0  0  0  0  0  0  0
  1  6  1  0  0  0  0
  2  1  2  0  0  0  0
  3  2  1  0  0  0  0
  3  4  2  0  0  0  0
  4  5  1  0  0  0  0
  5  6  2  0  0  0  0
  5  7  1  0  0  0  0
  7  8  1  0  0  0  0
  8 16  1  6  0  0  0
  8  9  1  0  0  0  0
  8 24  1  0  0  0  0
  9 10  1  0  0  0  0
  9 18  1  0  0  0  0
 10 19  1  0  0  0  0
 11 10  1  0  0  0  0
 11 20  1  0  0  0  0
 12  7  1  0  0  0  0
 12 11  1  0  0  0  0
 13  1  1  0  0  0  0
 14  2  1  0  0  0  0
 15  3  1  0  0  0  0
 17  9  1  0  0  0  0
 21 11  1  0  0  0  0
 22 12  1  0  0  0  0
 23 12  1  0  0  0  0
 24 28  1  0  0  0  0
 24 25  2  0  0  0  0
 25 26  1  0  0  0  0
 26 30  1  0  0  0  0
 27 26  1  0  0  0  0
 27 31  1  0  0  0  0
 28 27  2  0  0  0  0
 29 25  1  0  0  0  0
 31 41  2  0  0  0  0
 31 32  1  0  0  0  0
 32 33  1  0  0  0  0
 32 34  2  0  0  0  0
 35 34  1  0  0  0  0
 36 35  2  0  0  0  0
 37 36  1  0  0  0  0
 38 37  2  0  0  0  0
 39 40  2  0  0  0  0
 39 38  1  0  0  0  0
 40 41  1  0  0  0  0
 41 36  1  0  0  0  0
M  END
>  <minimizedAffinity>
-7.37830305

$$$$

 OpenBabel03242520433D

 41 45  0  0  1  0  0  0  0  0999 V2000
   42.3690   31.2750   41.8460 C   0  0  0  0  0  0  0  0  0  0  0  0
   43.0670   30.4560   40.9200 C   0  0  0  0  0  0  0  0  0  0  0  0
   42.5190   30.3100   39.6090 C   0  0  0  0  0  0  0  0  0  0  0  0
   41.3560   30.9620   39.3020 N   0  0  0  0  0  0  0  0  0  0  0  0
   40.7370   31.7350   40.2390 C   0  0  0  0  0  0  0  0  0  0  0  0
   41.2410   31.8850   41.4910 N   0  0  0  0  0  0  0  0  0  0  0  0
   39.5510   32.3590   39.8340 N   0  0  0  0  0  0  0  0  0  0  0  0
   38.4340   31.5970   39.3800 C   0  0  2  0  0  0  0  0  0  0  0  0
   37.3440   32.3780   38.7360 C   0  0  0  0  0  0  0  0  0  0  0  0
   37.1670   33.7100   39.1910 N   0  0  0  0  0  0  0  0  0  0  0  0
   38.0150   34.0920   40.2610 C   0  0  0  0  0  0  0  0  0  0  0  0
   39.4480   33.8070   39.8780 C   0  0  0  0  0  0  0  0  0  0  0  0
   42.8460   31.3310   42.8060 H   0  0  0  0  0  0  0  0  0  0  0  0
   43.9900   29.9430   41.1760 H   0  0  0  0  0  0  0  0  0  0  0  0
   43.0120   29.7020   38.8770 H   0  0  0  0  0  0  0  0  0  0  0  0
   38.8340   30.9420   38.5530 H   0  0  0  0  0  0  0  0  0  0  0  0
   37.4530   32.4310   37.6330 H   0  0  0  0  0  0  0  0  0  0  0  0
   36.3970   31.7860   38.8850 H   0  0  0  0  0  0  0  0  0  0  0  0
   36.1830   33.8670   39.4760 H   0  0  0  0  0  0  0  0  0  0  0  0
   37.7150   33.7620   41.2490 H   0  0  0  0  0  0  0  0  0  0  0  0
   37.9640   35.2230   40.3090 H   0  0  0  0  0  0  0  0  0  0  0  0
   39.6630   34.2980   38.9310 H   0  0  0  0  0  0  0  0  0  0  0  0
   40.0960   34.1650   40.7180 H   0  0  0  0  0  0  0  0  0  0  0  0
   37.9350   30.6700   40.4450 C   0  0  0  0  0  0  0  0  0  0  0  0
   36.8760   30.7280   41.3120 C   0  0  0  0  0  0  0  0  0  0  0  0
   36.8550   29.6330   42.0760 N   0  0  0  0  0  0  0  0  0  0  0  0
   37.8650   28.8750   41.7310 C   0  0  0  0  0  0  0  0  0  0  0  0
   38.5090   29.5010   40.7500 N   0  0  0  0  0  0  0  0  0  0  0  0
   36.1860   31.5680   41.3320 H   0  0  0  0  0  0  0  0  0  0  0  0
   36.1190   29.4910   42.7520 H   0  0  0  0  0  0  0  0  0  0  0  0
   38.4340   27.6330   42.1900 C   0  0  0  0  0  0  0  0  0  0  0  0
   39.4400   27.6090   43.1670 C   0  0  0  0  0  0  0  0  0  0  0  0
   39.8040   28.5660   43.5780 H   0  0  0  0  0  0  0  0  0  0  0  0
   40.0350   26.4870   43.6790 C   0  0  0  0  0  3  0  0  0  0  0  0
   39.6460   25.2490   43.2270 C   0  0  0  0  0  3  0  0  0  0  0  0
   38.6730   25.1940   42.2820 C   0  0  0  0  0  0  0  0  0  0  0  0
   38.2910   23.9410   41.8810 C   0  0  0  0  0  3  0  0  0  0  0  0
   37.2890   23.7740   40.9510 C   0  0  0  0  0  3  0  0  0  0  0  0
   36.7040   24.9370   40.4590 C   0  0  0  0  0  3  0  0  0  0  0  0
   37.1280   26.1670   40.8970 C   0  0  0  0  0  3  0  0  0  0  0  0
   38.1230   26.3550   41.8170 C   0  0  0  0  0  0  0  0  0  0  0  0
  1 13  1  0  0  0  0
  2 14  1  0  0  0  0
  2  1  2  0  0  0  0
  3  2  1  0  0  0  0
  4  3  2  0  0  0  0
  4  5  1  0  0  0  0
  5  6  2  0  0  0  0
  6  1  1  0  0  0  0
  7 12  1  0  0  0  0
  7  5  1  0  0  0  0
  8 16  1  6  0  0  0
  8  7  1  0  0  0  0
  8 24  1  0  0  0  0
  9 18  1  0  0  0  0
  9 10  1  0  0  0  0
  9  8  1  0  0  0  0
 10 19  1  0  0  0  0
 10 11  1  0  0  0  0
 11 21  1  0  0  0  0
 11 20  1  0  0  0  0
 12 11  1  0  0  0  0
 12 23  1  0  0  0  0
 15  3  1  0  0  0  0
 17  9  1  0  0  0  0
 22 12  1  0  0  0  0
 24 28  1  0  0  0  0
 24 25  2  0  0  0  0
 25 29  1  0  0  0  0
 25 26  1  0  0  0  0
 26 30  1  0  0  0  0
 27 26  1  0  0  0  0
 27 31  1  0  0  0  0
 28 27  2  0  0  0  0
 31 32  1  0  0  0  0
 32 33  1  0  0  0  0
 32 34  2  0  0  0  0
 35 34  1  0  0  0  0
 36 35  2  0  0  0  0
 37 36  1  0  0  0  0
 38 37  2  0  0  0  0
 39 40  2  0  0  0  0
 39 38  1  0  0  0  0
 40 41  1  0  0  0  0
 41 31  2  0  0  0  0
 41 36  1  0  0  0  0
M  END
>  <minimizedAffinity>
-7.15019321

$$$$

 OpenBabel03242520433D

 41 45  0  0  1  0  0  0  0  0999 V2000
   43.3020   32.4800   39.6610 C   0  0  0  0  0  0  0  0  0  0  0  0
   43.7660   32.5220   38.3200 C   0  0  0  0  0  0  0  0  0  0  0  0
   42.8080   32.7540   37.2870 C   0  0  0  0  0  0  0  0  0  0  0  0
   41.4950   32.9270   37.6290 N   0  0  0  0  0  0  0  0  0  0  0  0
   41.1170   32.8760   38.9380 C   0  0  0  0  0  0  0  0  0  0  0  0
   42.0120   32.6540   39.9340 N   0  0  0  0  0  0  0  0  0  0  0  0
   39.7520   33.0610   39.1910 N   0  0  0  0  0  0  0  0  0  0  0  0
   38.7740   32.1890   38.6270 C   0  0  2  0  0  0  0  0  0  0  0  0
   37.3620   32.6440   38.7530 C   0  0  0  0  0  0  0  0  0  0  0  0
   37.0520   33.4330   39.8900 N   0  0  0  0  0  0  0  0  0  0  0  0
   38.1240   33.6190   40.7970 C   0  0  0  0  0  0  0  0  0  0  0  0
   39.3190   34.1530   40.0430 C   0  0  0  0  0  0  0  0  0  0  0  0
   44.0840   32.3000   40.3750 H   0  0  0  0  0  0  0  0  0  0  0  0
   44.8120   32.3830   38.0610 H   0  0  0  0  0  0  0  0  0  0  0  0
   43.1130   32.7950   36.2600 H   0  0  0  0  0  0  0  0  0  0  0  0
   38.9700   32.1950   37.5160 H   0  0  0  0  0  0  0  0  0  0  0  0
   37.0190   33.2160   37.8660 H   0  0  0  0  0  0  0  0  0  0  0  0
   36.7260   31.7140   38.7370 H   0  0  0  0  0  0  0  0  0  0  0  0
   36.2490   33.0250   40.4040 H   0  0  0  0  0  0  0  0  0  0  0  0
   38.3220   32.7980   41.4770 H   0  0  0  0  0  0  0  0  0  0  0  0
   37.8170   34.4790   41.4690 H   0  0  0  0  0  0  0  0  0  0  0  0
   39.0210   35.0490   39.5030 H   0  0  0  0  0  0  0  0  0  0  0  0
   40.1310   34.3380   40.7920 H   0  0  0  0  0  0  0  0  0  0  0  0
   38.9730   30.7760   39.0800 C   0  0  0  0  0  0  0  0  0  0  0  0
   39.7450   29.7450   38.6110 C   0  0  0  0  0  0  0  0  0  0  0  0
   39.5730   28.6650   39.3770 N   0  0  0  0  0  0  0  0  0  0  0  0
   38.7170   28.9660   40.3200 C   0  0  0  0  0  0  0  0  0  0  0  0
   38.3610   30.2350   40.1380 N   0  0  0  0  0  0  0  0  0  0  0  0
   40.3840   29.8480   37.7370 H   0  0  0  0  0  0  0  0  0  0  0  0
   40.0930   27.8190   39.1970 H   0  0  0  0  0  0  0  0  0  0  0  0
   38.0670   28.2590   41.3940 C   0  0  0  0  0  0  0  0  0  0  0  0
   37.7590   28.8970   42.6060 C   0  0  0  0  0  0  0  0  0  0  0  0
   38.0340   29.9570   42.7330 H   0  0  0  0  0  0  0  0  0  0  0  0
   37.1340   28.3210   43.6790 C   0  0  0  0  0  3  0  0  0  0  0  0
   36.7540   27.0020   43.6140 C   0  0  0  0  0  3  0  0  0  0  0  0
   37.0170   26.3210   42.4700 C   0  0  0  0  0  0  0  0  0  0  0  0
   36.5950   25.0180   42.4320 C   0  0  0  0  0  3  0  0  0  0  0  0
   36.7830   24.2490   41.3050 C   0  0  0  0  0  3  0  0  0  0  0  0
   37.4160   24.8700   40.2330 C   0  0  0  0  0  3  0  0  0  0  0  0
   37.8190   26.1800   40.3270 C   0  0  0  0  0  3  0  0  0  0  0  0
   37.6440   26.9600   41.4370 C   0  0  0  0  0  0  0  0  0  0  0  0
  1  6  1  0  0  0  0
  1 13  1  0  0  0  0
  2  1  2  0  0  0  0
  3  4  2  0  0  0  0
  3  2  1  0  0  0  0
  4  5  1  0  0  0  0
  5  7  1  0  0  0  0
  5  6  2  0  0  0  0
  7 12  1  0  0  0  0
  8 16  1  6  0  0  0
  8  9  1  0  0  0  0
  8 24  1  0  0  0  0
  8  7  1  0  0  0  0
  9 10  1  0  0  0  0
 10 19  1  0  0  0  0
 10 11  1  0  0  0  0
 11 21  1  0  0  0  0
 11 20  1  0  0  0  0
 12 23  1  0  0  0  0
 12 11  1  0  0  0  0
 14  2  1  0  0  0  0
 15  3  1  0  0  0  0
 17  9  1  0  0  0  0
 18  9  1  0  0  0  0
 22 12  1  0  0  0  0
 24 28  1  0  0  0  0
 25 24  2  0  0  0  0
 25 26  1  0  0  0  0
 26 27  1  0  0  0  0
 27 31  1  0  0  0  0
 28 27  2  0  0  0  0
 29 25  1  0  0  0  0
 30 26  1  0  0  0  0
 31 41  2  0  0  0  0
 31 32  1  0  0  0  0
 32 33  1  0  0  0  0
 32 34  2  0  0  0  0
 35 34  1  0  0  0  0
 36 35  2  0  0  0  0
 37 36  1  0  0  0  0
 38 37  2  0  0  0  0
 39 40  2  0  0  0  0
 39 38  1  0  0  0  0
 40 41  1  0  0  0  0
 41 36  1  0  0  0  0
M  END
>  <minimizedAffinity>
-7.07420206

$$$$

 OpenBabel03242520433D

 41 45  0  0  1  0  0  0  0  0999 V2000
   41.7790   30.9940   42.4230 C   0  0  0  0  0  0  0  0  0  0  0  0
   42.6350   30.2080   41.6070 C   0  0  0  0  0  0  0  0  0  0  0  0
   42.3230   30.1000   40.2180 C   0  0  0  0  0  0  0  0  0  0  0  0
   41.2220   30.7530   39.7340 N   0  0  0  0  0  0  0  0  0  0  0  0
   40.4430   31.4930   40.5740 C   0  0  0  0  0  0  0  0  0  0  0  0
   40.7220   31.6070   41.8970 N   0  0  0  0  0  0  0  0  0  0  0  0
   39.3370   32.1220   39.9890 N   0  0  0  0  0  0  0  0  0  0  0  0
   38.3240   31.3670   39.3270 C   0  0  2  0  0  0  0  0  0  0  0  0
   37.3510   32.1610   38.5280 C   0  0  0  0  0  0  0  0  0  0  0  0
   37.0840   33.4770   38.9850 N   0  0  0  0  0  0  0  0  0  0  0  0
   37.7300   33.8310   40.1960 C   0  0  0  0  0  0  0  0  0  0  0  0
   39.2110   33.5670   40.0580 C   0  0  0  0  0  0  0  0  0  0  0  0
   42.0830   31.0220   43.4520 H   0  0  0  0  0  0  0  0  0  0  0  0
   43.5070   29.6930   42.0030 H   0  0  0  0  0  0  0  0  0  0  0  0
   42.9410   29.5180   39.5640 H   0  0  0  0  0  0  0  0  0  0  0  0
   38.8670   30.7410   38.5620 H   0  0  0  0  0  0  0  0  0  0  0  0
   37.6480   32.2500   37.4620 H   0  0  0  0  0  0  0  0  0  0  0  0
   36.4000   31.5580   38.4940 H   0  0  0  0  0  0  0  0  0  0  0  0
   36.0640   33.6180   39.1010 H   0  0  0  0  0  0  0  0  0  0  0  0
   37.2690   33.4690   41.1080 H   0  0  0  0  0  0  0  0  0  0  0  0
   37.6590   34.9600   40.2680 H   0  0  0  0  0  0  0  0  0  0  0  0
   39.5800   34.0890   39.1770 H   0  0  0  0  0  0  0  0  0  0  0  0
   39.7010   33.9030   41.0070 H   0  0  0  0  0  0  0  0  0  0  0  0
   37.6600   30.4040   40.2620 C   0  0  0  0  0  0  0  0  0  0  0  0
   36.6690   30.5440   41.1980 C   0  0  0  0  0  0  0  0  0  0  0  0
   36.4230   29.3660   41.7770 N   0  0  0  0  0  0  0  0  0  0  0  0
   37.2220   28.4760   41.2460 C   0  0  0  0  0  0  0  0  0  0  0  0
   37.9610   29.1030   40.3360 N   0  0  0  0  0  0  0  0  0  0  0  0
   36.1910   31.4990   41.4000 H   0  0  0  0  0  0  0  0  0  0  0  0
   35.6950   29.2760   42.4710 H   0  0  0  0  0  0  0  0  0  0  0  0
   37.5070   27.0800   41.4610 C   0  0  0  0  0  0  0  0  0  0  0  0
   36.7150   26.0760   40.8840 C   0  0  0  0  0  0  0  0  0  0  0  0
   35.8510   26.3720   40.2640 H   0  0  0  0  0  0  0  0  0  0  0  0
   36.9070   24.7270   41.0140 C   0  0  0  0  0  3  0  0  0  0  0  0
   37.9580   24.2630   41.7680 C   0  0  0  0  0  3  0  0  0  0  0  0
   38.7710   25.1780   42.3550 C   0  0  0  0  0  0  0  0  0  0  0  0
   39.8260   24.6760   43.0720 C   0  0  0  0  0  3  0  0  0  0  0  0
   40.7300   25.5200   43.6800 C   0  0  0  0  0  3  0  0  0  0  0  0
   40.5040   26.8830   43.5190 C   0  0  0  0  0  3  0  0  0  0  0  0
   39.4300   27.3300   42.7900 C   0  0  0  0  0  3  0  0  0  0  0  0
   38.5190   26.5100   42.1810 C   0  0  0  0  0  0  0  0  0  0  0  0
  1 13  1  0  0  0  0
  2 14  1  0  0  0  0
  2  1  2  0  0  0  0
  3  2  1  0  0  0  0
  4  3  2  0  0  0  0
  4  5  1  0  0  0  0
  5  6  2  0  0  0  0
  6  1  1  0  0  0  0
  7 12  1  0  0  0  0
  7  5  1  0  0  0  0
  8 16  1  6  0  0  0
  8  7  1  0  0  0  0
  8 24  1  0  0  0  0
  9 10  1  0  0  0  0
  9  8  1  0  0  0  0
 10 19  1  0  0  0  0
 10 11  1  0  0  0  0
 11 21  1  0  0  0  0
 11 20  1  0  0  0  0
 12 11  1  0  0  0  0
 12 23  1  0  0  0  0
 15  3  1  0  0  0  0
 17  9  1  0  0  0  0
 18  9  1  0  0  0  0
 22 12  1  0  0  0  0
 24 28  1  0  0  0  0
 24 25  2  0  0  0  0
 25 29  1  0  0  0  0
 25 26  1  0  0  0  0
 26 30  1  0  0  0  0
 27 31  1  0  0  0  0
 27 26  1  0  0  0  0
 28 27  2  0  0  0  0
 31 41  1  0  0  0  0
 32 34  1  0  0  0  0
 32 31  2  0  0  0  0
 33 32  1  0  0  0  0
 34 35  2  0  0  0  0
 35 36  1  0  0  0  0
 36 37  1  0  0  0  0
 37 38  2  0  0  0  0
 39 38  1  0  0  0  0
 40 39  2  0  0  0  0
 41 36  2  0  0  0  0
 41 40  1  0  0  0  0
M  END
>  <minimizedAffinity>
-6.91289902

$$$$

 OpenBabel03242520433D

 41 45  0  0  1  0  0  0  0  0999 V2000
   38.1220   27.9930   36.7820 C   0  0  0  0  0  0  0  0  0  0  0  0
   36.8990   28.0480   36.0640 C   0  0  0  0  0  0  0  0  0  0  0  0
   36.1760   29.2800   36.0660 C   0  0  0  0  0  0  0  0  0  0  0  0
   36.6890   30.3470   36.7520 N   0  0  0  0  0  0  0  0  0  0  0  0
   37.8720   30.2260   37.4200 C   0  0  0  0  0  0  0  0  0  0  0  0
   38.5730   29.0640   37.4310 N   0  0  0  0  0  0  0  0  0  0  0  0
   38.3150   31.3700   38.0950 N   0  0  0  0  0  0  0  0  0  0  0  0
   37.5260   31.9750   39.1170 C   0  0  2  0  0  0  0  0  0  0  0  0
   37.9800   33.3190   39.5670 C   0  0  0  0  0  0  0  0  0  0  0  0
   39.3740   33.5730   39.4900 N   0  0  0  0  0  0  0  0  0  0  0  0
   40.1570   32.4730   39.0610 C   0  0  0  0  0  0  0  0  0  0  0  0
   39.6010   31.9520   37.7560 C   0  0  0  0  0  0  0  0  0  0  0  0
   38.6010   27.0340   36.7310 H   0  0  0  0  0  0  0  0  0  0  0  0
   36.5010   27.1940   35.5240 H   0  0  0  0  0  0  0  0  0  0  0  0
   35.2480   29.3680   35.5380 H   0  0  0  0  0  0  0  0  0  0  0  0
   36.5180   32.1650   38.6460 H   0  0  0  0  0  0  0  0  0  0  0  0
   37.4760   34.1430   39.0210 H   0  0  0  0  0  0  0  0  0  0  0  0
   37.6190   33.4380   40.6280 H   0  0  0  0  0  0  0  0  0  0  0  0
   39.7320   33.8980   40.4070 H   0  0  0  0  0  0  0  0  0  0  0  0
   40.3810   31.7240   39.8120 H   0  0  0  0  0  0  0  0  0  0  0  0
   41.1670   32.9030   38.7760 H   0  0  0  0  0  0  0  0  0  0  0  0
   39.5450   32.7740   37.0460 H   0  0  0  0  0  0  0  0  0  0  0  0
   40.2690   31.1200   37.4160 H   0  0  0  0  0  0  0  0  0  0  0  0
   37.2860   31.0310   40.2550 C   0  0  0  0  0  0  0  0  0  0  0  0
   36.2000   30.7900   41.0550 C   0  0  0  0  0  0  0  0  0  0  0  0
   36.4900   29.8310   41.9370 N   0  0  0  0  0  0  0  0  0  0  0  0
   37.7250   29.4490   41.7320 C   0  0  0  0  0  0  0  0  0  0  0  0
   38.1980   30.1700   40.7200 N   0  0  0  0  0  0  0  0  0  0  0  0
   35.2640   31.3330   40.9440 H   0  0  0  0  0  0  0  0  0  0  0  0
   35.7920   29.5010   42.5860 H   0  0  0  0  0  0  0  0  0  0  0  0
   38.6440   28.5330   42.3580 C   0  0  0  0  0  0  0  0  0  0  0  0
   38.2680   27.2160   42.6640 C   0  0  0  0  0  0  0  0  0  0  0  0
   37.2420   26.8890   42.4270 H   0  0  0  0  0  0  0  0  0  0  0  0
   39.0670   26.2680   43.2450 C   0  0  0  0  0  3  0  0  0  0  0  0
   40.3620   26.5840   43.5760 C   0  0  0  0  0  3  0  0  0  0  0  0
   40.7980   27.8410   43.3060 C   0  0  0  0  0  0  0  0  0  0  0  0
   42.1040   28.1080   43.6230 C   0  0  0  0  0  3  0  0  0  0  0  0
   42.6550   29.3430   43.3590 C   0  0  0  0  0  3  0  0  0  0  0  0
   41.8150   30.2780   42.7630 C   0  0  0  0  0  3  0  0  0  0  0  0
   40.5130   29.9550   42.4690 C   0  0  0  0  0  3  0  0  0  0  0  0
   39.9450   28.7360   42.7240 C   0  0  0  0  0  0  0  0  0  0  0  0
  1  6  1  0  0  0  0
  2  3  1  0  0  0  0
  2  1  2  0  0  0  0
  3  4  2  0  0  0  0
  4  5  1  0  0  0  0
  5  6  2  0  0  0  0
  5  7  1  0  0  0  0
  7  8  1  0  0  0  0
  8 16  1  6  0  0  0
  8  9  1  0  0  0  0
  8 24  1  0  0  0  0
  9 18  1  0  0  0  0
 10  9  1  0  0  0  0
 10 19  1  0  0  0  0
 11 10  1  0  0  0  0
 11 20  1  0  0  0  0
 12  7  1  0  0  0  0
 12 11  1  0  0  0  0
 13  1  1  0  0  0  0
 14  2  1  0  0  0  0
 15  3  1  0  0  0  0
 17  9  1  0  0  0  0
 21 11  1  0  0  0  0
 22 12  1  0  0  0  0
 23 12  1  0  0  0  0
 24 28  1  0  0  0  0
 24 25  2  0  0  0  0
 25 26  1  0  0  0  0
 26 30  1  0  0  0  0
 27 26  1  0  0  0  0
 27 31  1  0  0  0  0
 28 27  2  0  0  0  0
 29 25  1  0  0  0  0
 31 32  2  0  0  0  0
 31 41  1  0  0  0  0
 32 34  1  0  0  0  0
 33 32  1  0  0  0  0
 34 35  2  0  0  0  0
 36 35  1  0  0  0  0
 36 37  1  0  0  0  0
 38 37  2  0  0  0  0
 39 38  1  0  0  0  0
 40 41  1  0  0  0  0
 40 39  2  0  0  0  0
 41 36  2  0  0  0  0
M  END
>  <minimizedAffinity>
-6.89425659

$$$$

 OpenBabel03242520433D

 41 45  0  0  1  0  0  0  0  0999 V2000
   38.1420   28.8380   43.3900 C   0  0  0  0  0  0  0  0  0  0  0  0
   39.1600   27.8490   43.3380 C   0  0  0  0  0  0  0  0  0  0  0  0
   40.1750   27.9840   42.3420 C   0  0  0  0  0  0  0  0  0  0  0  0
   40.1250   29.0510   41.4870 N   0  0  0  0  0  0  0  0  0  0  0  0
   39.1190   29.9660   41.5930 C   0  0  0  0  0  0  0  0  0  0  0  0
   38.1450   29.8550   42.5320 N   0  0  0  0  0  0  0  0  0  0  0  0
   39.1500   31.0210   40.6730 N   0  0  0  0  0  0  0  0  0  0  0  0
   39.1020   30.7770   39.2690 C   0  0  2  0  0  0  0  0  0  0  0  0
   39.4050   31.9490   38.4030 C   0  0  0  0  0  0  0  0  0  0  0  0
   39.0620   33.2230   38.9230 N   0  0  0  0  0  0  0  0  0  0  0  0
   38.4030   33.1980   40.1760 C   0  0  0  0  0  0  0  0  0  0  0  0
   39.2280   32.3900   41.1500 C   0  0  0  0  0  0  0  0  0  0  0  0
   37.4200   28.6630   44.1640 H   0  0  0  0  0  0  0  0  0  0  0  0
   39.1880   27.0060   44.0220 H   0  0  0  0  0  0  0  0  0  0  0  0
   40.9630   27.2620   42.2660 H   0  0  0  0  0  0  0  0  0  0  0  0
   39.9420   30.0520   39.0610 H   0  0  0  0  0  0  0  0  0  0  0  0
   40.4770   32.0000   38.1170 H   0  0  0  0  0  0  0  0  0  0  0  0
   38.8730   31.7690   37.4260 H   0  0  0  0  0  0  0  0  0  0  0  0
   38.4710   33.7410   38.2470 H   0  0  0  0  0  0  0  0  0  0  0  0
   37.3430   32.9720   40.1540 H   0  0  0  0  0  0  0  0  0  0  0  0
   38.4610   34.2560   40.5800 H   0  0  0  0  0  0  0  0  0  0  0  0
   40.2370   32.7960   41.1770 H   0  0  0  0  0  0  0  0  0  0  0  0
   38.7100   32.4310   42.1420 H   0  0  0  0  0  0  0  0  0  0  0  0
   37.8370   30.0760   38.8780 C   0  0  0  0  0  0  0  0  0  0  0  0
   36.5920   30.5260   38.5250 C   0  0  0  0  0  0  0  0  0  0  0  0
   35.7950   29.4890   38.2570 N   0  0  0  0  0  0  0  0  0  0  0  0
   36.4850   28.3900   38.4260 C   0  0  0  0  0  0  0  0  0  0  0  0
   37.7110   28.7480   38.7970 N   0  0  0  0  0  0  0  0  0  0  0  0
   36.3440   31.5840   38.4890 H   0  0  0  0  0  0  0  0  0  0  0  0
   34.8460   29.6360   37.9460 H   0  0  0  0  0  0  0  0  0  0  0  0
   36.2130   26.9760   38.3700 C   0  0  0  0  0  0  0  0  0  0  0  0
   35.7390   26.3700   37.1970 C   0  0  0  0  0  0  0  0  0  0  0  0
   35.5620   26.9990   36.3090 H   0  0  0  0  0  0  0  0  0  0  0  0
   35.4630   25.0380   37.0370 C   0  0  0  0  0  3  0  0  0  0  0  0
   35.6520   24.1760   38.0900 C   0  0  0  0  0  3  0  0  0  0  0  0
   36.1130   24.6910   39.2580 C   0  0  0  0  0  0  0  0  0  0  0  0
   36.3180   23.7960   40.2740 C   0  0  0  0  0  3  0  0  0  0  0  0
   36.8160   24.2100   41.4900 C   0  0  0  0  0  3  0  0  0  0  0  0
   37.0900   25.5690   41.6120 C   0  0  0  0  0  3  0  0  0  0  0  0
   36.8640   26.4220   40.5600 C   0  0  0  0  0  3  0  0  0  0  0  0
   36.3680   26.0310   39.3460 C   0  0  0  0  0  0  0  0  0  0  0  0
  1 13  1  0  0  0  0
  2  1  1  0  0  0  0
  2 14  1  0  0  0  0
  3  2  2  0  0  0  0
  4  5  2  0  0  0  0
  4  3  1  0  0  0  0
  5  6  1  0  0  0  0
  6  1  2  0  0  0  0
  7 12  1  0  0  0  0
  7  5  1  0  0  0  0
  8 16  1  6  0  0  0
  8  7  1  0  0  0  0
  9 10  1  0  0  0  0
  9  8  1  0  0  0  0
 10 11  1  0  0  0  0
 11 21  1  0  0  0  0
 11 12  1  0  0  0  0
 12 22  1  0  0  0  0
 12 23  1  0  0  0  0
 15  3  1  0  0  0  0
 17  9  1  0  0  0  0
 18  9  1  0  0  0  0
 19 10  1  0  0  0  0
 20 11  1  0  0  0  0
 24  8  1  0  0  0  0
 25 24  2  0  0  0  0
 26 27  1  0  0  0  0
 26 25  1  0  0  0  0
 27 28  2  0  0  0  0
 28 24  1  0  0  0  0
 29 25  1  0  0  0  0
 30 26  1  0  0  0  0
 31 27  1  0  0  0  0
 31 41  1  0  0  0  0
 32 31  2  0  0  0  0
 33 32  1  0  0  0  0
 34 32  1  0  0  0  0
 34 35  2  0  0  0  0
 35 36  1  0  0  0  0
 36 41  2  0  0  0  0
 36 37  1  0  0  0  0
 37 38  2  0  0  0  0
 38 39  1  0  0  0  0
 40 39  2  0  0  0  0
 41 40  1  0  0  0  0
M  END
>  <minimizedAffinity>
-6.57148266

$$$$

 OpenBabel03242520433D

 41 45  0  0  1  0  0  0  0  0999 V2000
   34.3080   25.7760   36.7670 C   0  0  0  0  0  0  0  0  0  0  0  0
   33.0490   26.3690   36.4830 C   0  0  0  0  0  0  0  0  0  0  0  0
   32.9890   27.7910   36.3710 C   0  0  0  0  0  0  0  0  0  0  0  0
   34.1360   28.5170   36.5390 N   0  0  0  0  0  0  0  0  0  0  0  0
   35.3130   27.8830   36.8100 C   0  0  0  0  0  0  0  0  0  0  0  0
   35.3910   26.5330   36.9220 N   0  0  0  0  0  0  0  0  0  0  0  0
   36.4330   28.7090   36.9690 N   0  0  0  0  0  0  0  0  0  0  0  0
   36.4680   29.7170   37.9780 C   0  0  2  0  0  0  0  0  0  0  0  0
   37.5900   30.6900   37.8740 C   0  0  0  0  0  0  0  0  0  0  0  0
   38.7920   30.2070   37.2980 N   0  0  0  0  0  0  0  0  0  0  0  0
   38.7840   28.8300   36.9660 C   0  0  0  0  0  0  0  0  0  0  0  0
   37.5820   28.5400   36.0980 C   0  0  0  0  0  0  0  0  0  0  0  0
   34.2660   24.7060   36.8360 H   0  0  0  0  0  0  0  0  0  0  0  0
   32.1450   25.7810   36.3520 H   0  0  0  0  0  0  0  0  0  0  0  0
   32.0610   28.2820   36.1570 H   0  0  0  0  0  0  0  0  0  0  0  0
   35.5420   30.3400   37.8130 H   0  0  0  0  0  0  0  0  0  0  0  0
   37.3090   31.6020   37.3080 H   0  0  0  0  0  0  0  0  0  0  0  0
   37.7800   31.0680   38.9180 H   0  0  0  0  0  0  0  0  0  0  0  0
   39.5940   30.3910   37.9290 H   0  0  0  0  0  0  0  0  0  0  0  0
   38.9530   28.1400   37.7850 H   0  0  0  0  0  0  0  0  0  0  0  0
   39.6670   28.6720   36.2720 H   0  0  0  0  0  0  0  0  0  0  0  0
   37.5960   29.2130   35.2430 H   0  0  0  0  0  0  0  0  0  0  0  0
   37.6300   27.4590   35.8100 H   0  0  0  0  0  0  0  0  0  0  0  0
   36.3360   29.1250   39.3480 C   0  0  0  0  0  0  0  0  0  0  0  0
   35.5540   29.4380   40.4290 C   0  0  0  0  0  0  0  0  0  0  0  0
   35.8080   28.5930   41.4320 N   0  0  0  0  0  0  0  0  0  0  0  0
   36.7260   27.7500   41.0320 C   0  0  0  0  0  0  0  0  0  0  0  0
   37.0380   28.0720   39.7800 N   0  0  0  0  0  0  0  0  0  0  0  0
   34.8490   30.2650   40.4160 H   0  0  0  0  0  0  0  0  0  0  0  0
   35.2960   28.6560   42.2980 H   0  0  0  0  0  0  0  0  0  0  0  0
   37.4710   26.6700   41.6270 C   0  0  0  0  0  0  0  0  0  0  0  0
   37.0320   25.3410   41.5300 C   0  0  0  0  0  0  0  0  0  0  0  0
   36.0910   25.1300   40.9960 H   0  0  0  0  0  0  0  0  0  0  0  0
   37.6700   24.2450   42.0470 C   0  0  0  0  0  3  0  0  0  0  0  0
   38.8510   24.4100   42.7300 C   0  0  0  0  0  3  0  0  0  0  0  0
   39.3400   25.6690   42.8610 C   0  0  0  0  0  0  0  0  0  0  0  0
   40.5340   25.7880   43.5210 C   0  0  0  0  0  3  0  0  0  0  0  0
   41.1330   27.0190   43.6790 C   0  0  0  0  0  3  0  0  0  0  0  0
   40.4580   28.1070   43.1360 C   0  0  0  0  0  3  0  0  0  0  0  0
   39.2620   27.9290   42.4850 C   0  0  0  0  0  3  0  0  0  0  0  0
   38.6490   26.7170   42.3190 C   0  0  0  0  0  0  0  0  0  0  0  0
  1 13  1  0  0  0  0
  1  6  1  0  0  0  0
  2  1  2  0  0  0  0
  3  2  1  0  0  0  0
  3  4  2  0  0  0  0
  4  5  1  0  0  0  0
  5  6  2  0  0  0  0
  5  7  1  0  0  0  0
  7  8  1  0  0  0  0
  8 16  1  6  0  0  0
  8 24  1  0  0  0  0
  9  8  1  0  0  0  0
  9 18  1  0  0  0  0
 10  9  1  0  0  0  0
 10 19  1  0  0  0  0
 11 10  1  0  0  0  0
 11 20  1  0  0  0  0
 12 11  1  0  0  0  0
 12  7  1  0  0  0  0
 14  2  1  0  0  0  0
 15  3  1  0  0  0  0
 17  9  1  0  0  0  0
 21 11  1  0  0  0  0
 22 12  1  0  0  0  0
 23 12  1  0  0  0  0
 24 28  1  0  0  0  0
 24 25  2  0  0  0  0
 25 26  1  0  0  0  0
 26 30  1  0  0  0  0
 27 26  1  0  0  0  0
 27 31  1  0  0  0  0
 28 27  2  0  0  0  0
 29 25  1  0  0  0  0
 31 41  1  0  0  0  0
 32 31  2  0  0  0  0
 32 34  1  0  0  0  0
 33 32  1  0  0  0  0
 34 35  2  0  0  0  0
 35 36  1  0  0  0  0
 36 37  1  0  0  0  0
 37 38  2  0  0  0  0
 39 38  1  0  0  0  0
 40 39  2  0  0  0  0
 41 40  1  0  0  0  0
 41 36  2  0  0  0  0
M  END
>  <minimizedAffinity>
-6.4379096

$$$$

 OpenBabel03242520433D

 41 45  0  0  1  0  0  0  0  0999 V2000
   37.5700   32.0970   38.5600 C   0  0  0  0  0  0  0  0  0  0  0  0
   37.3150   33.3150   39.2430 C   0  0  0  0  0  0  0  0  0  0  0  0
   38.0790   33.5980   40.4160 C   0  0  0  0  0  0  0  0  0  0  0  0
   39.0170   32.6910   40.8290 N   0  0  0  0  0  0  0  0  0  0  0  0
   39.2110   31.5400   40.1250 C   0  0  0  0  0  0  0  0  0  0  0  0
   38.4950   31.2520   39.0090 N   0  0  0  0  0  0  0  0  0  0  0  0
   40.1900   30.6720   40.6260 N   0  0  0  0  0  0  0  0  0  0  0  0
   40.0920   30.1320   41.9420 C   0  0  2  0  0  0  0  0  0  0  0  0
   41.3120   29.4440   42.4460 C   0  0  0  0  0  0  0  0  0  0  0  0
   42.1310   28.8190   41.4710 N   0  0  0  0  0  0  0  0  0  0  0  0
   41.6300   28.8720   40.1470 C   0  0  0  0  0  0  0  0  0  0  0  0
   41.3230   30.3090   39.7950 C   0  0  0  0  0  0  0  0  0  0  0  0
   36.9540   31.9610   37.6910 H   0  0  0  0  0  0  0  0  0  0  0  0
   36.5670   34.0270   38.9050 H   0  0  0  0  0  0  0  0  0  0  0  0
   37.9210   34.5050   40.9630 H   0  0  0  0  0  0  0  0  0  0  0  0
   39.9720   31.0230   42.6250 H   0  0  0  0  0  0  0  0  0  0  0  0
   41.9710   30.1210   43.0290 H   0  0  0  0  0  0  0  0  0  0  0  0
   40.9610   28.6890   43.2040 H   0  0  0  0  0  0  0  0  0  0  0  0
   42.2980   27.8270   41.7230 H   0  0  0  0  0  0  0  0  0  0  0  0
   40.8610   28.1500   39.8980 H   0  0  0  0  0  0  0  0  0  0  0  0
   42.5020   28.6050   39.4740 H   0  0  0  0  0  0  0  0  0  0  0  0
   42.2130   30.9100   39.9670 H   0  0  0  0  0  0  0  0  0  0  0  0
   40.9790   30.3260   38.7290 H   0  0  0  0  0  0  0  0  0  0  0  0
   38.8510   29.3100   42.1060 C   0  0  0  0  0  0  0  0  0  0  0  0
   37.7060   29.4830   42.8390 C   0  0  0  0  0  0  0  0  0  0  0  0
   36.8800   28.4530   42.6410 N   0  0  0  0  0  0  0  0  0  0  0  0
   37.4560   27.6240   41.8070 C   0  0  0  0  0  0  0  0  0  0  0  0
   38.6370   28.1440   41.4870 N   0  0  0  0  0  0  0  0  0  0  0  0
   37.5480   30.3510   43.4740 H   0  0  0  0  0  0  0  0  0  0  0  0
   35.9710   28.4300   43.0780 H   0  0  0  0  0  0  0  0  0  0  0  0
   37.1450   26.3320   41.2500 C   0  0  0  0  0  0  0  0  0  0  0  0
   37.3730   25.1520   41.9730 C   0  0  0  0  0  0  0  0  0  0  0  0
   37.8110   25.2240   42.9830 H   0  0  0  0  0  0  0  0  0  0  0  0
   37.1030   23.8800   41.5420 C   0  0  0  0  0  3  0  0  0  0  0  0
   36.5570   23.6910   40.2950 C   0  0  0  0  0  3  0  0  0  0  0  0
   36.3050   24.7890   39.5380 C   0  0  0  0  0  0  0  0  0  0  0  0
   35.7320   24.5610   38.3150 C   0  0  0  0  0  3  0  0  0  0  0  0
   35.4050   25.6090   37.4830 C   0  0  0  0  0  3  0  0  0  0  0  0
   35.6900   26.8850   37.9580 C   0  0  0  0  0  3  0  0  0  0  0  0
   36.2660   27.0550   39.1930 C   0  0  0  0  0  3  0  0  0  0  0  0
   36.6000   26.0280   40.0340 C   0  0  0  0  0  0  0  0  0  0  0  0
  1  6  2  0  0  0  0
  1  2  1  0  0  0  0
  2  3  2  0  0  0  0
  3  4  1  0  0  0  0
  3 15  1  0  0  0  0
  5  7  1  0  0  0  0
  5  4  2  0  0  0  0
  6  5  1  0  0  0  0
  7  8  1  0  0  0  0
  8 24  1  0  0  0  0
  8  9  1  0  0  0  0
  8 16  1  1  0  0  0
  9 17  1  0  0  0  0
  9 18  1  0  0  0  0
 10 19  1  0  0  0  0
 10  9  1  0  0  0  0
 11 10  1  0  0  0  0
 12 22  1  0  0  0  0
 12 11  1  0  0  0  0
 12  7  1  0  0  0  0
 13  1  1  0  0  0  0
 14  2  1  0  0  0  0
 20 11  1  0  0  0  0
 21 11  1  0  0  0  0
 23 12  1  0  0  0  0
 24 25  2  0  0  0  0
 25 29  1  0  0  0  0
 26 25  1  0  0  0  0
 26 30  1  0  0  0  0
 27 26  1  0  0  0  0
 28 27  2  0  0  0  0
 28 24  1  0  0  0  0
 31 27  1  0  0  0  0
 31 32  1  0  0  0  0
 32 33  1  0  0  0  0
 34 32  2  0  0  0  0
 35 34  1  0  0  0  0
 36 41  1  0  0  0  0
 36 35  2  0  0  0  0
 37 36  1  0  0  0  0
 38 39  1  0  0  0  0
 38 37  2  0  0  0  0
 39 40  2  0  0  0  0
 40 41  1  0  0  0  0
 41 31  2  0  0  0  0
M  END
>  <minimizedAffinity>
-6.41627884

$$$$
