
     RDKit          3D

 35 38  0  0  0  0  0  0  0  0999 V2000
   45.6316   33.9469   45.4484 C   0  0  0  0  0  0  0  0  0  0  0  0
   44.7187   34.9761   45.6902 C   0  0  0  0  0  0  0  0  0  0  0  0
   44.5235   35.9304   44.6926 C   0  0  0  0  0  0  0  0  0  0  0  0
   45.2332   35.8116   43.5253 N   0  0  0  0  0  0  0  0  0  0  0  0
   46.0946   34.8189   43.3217 C   0  0  0  0  0  0  0  0  0  0  0  0
   46.2741   33.9185   44.2745 N   0  0  0  0  0  0  0  0  0  0  0  0
   46.8314   34.7260   42.0615 C   0  0  0  0  0  0  0  0  0  0  0  0
   48.0100   35.4060   41.9076 C   0  0  0  0  0  0  0  0  0  0  0  0
   48.7789   35.3868   40.7572 C   0  0  0  0  0  0  0  0  0  0  0  0
   48.2541   34.6039   39.7370 C   0  0  0  0  0  0  0  0  0  0  0  0
   47.0611   33.9099   39.8805 C   0  0  0  0  0  0  0  0  0  0  0  0
   46.3676   33.9861   41.0515 N   0  0  0  0  0  0  0  0  0  0  0  0
   44.1255   35.0717   46.5570 H   0  0  0  0  0  0  0  0  0  0  0  0
   43.8289   36.7347   44.8509 H   0  0  0  0  0  0  0  0  0  0  0  0
   48.3669   36.0051   42.7531 H   0  0  0  0  0  0  0  0  0  0  0  0
   49.7052   35.9146   40.6208 H   0  0  0  0  0  0  0  0  0  0  0  0
   48.7914   34.5278   38.7910 H   0  0  0  0  0  0  0  0  0  0  0  0
   46.7176   33.3190   39.0353 H   0  0  0  0  0  0  0  0  0  0  0  0
   45.9248   32.8243   46.3148 C   0  0  0  0  0  0  0  0  0  0  0  0
   47.1561   32.1761   46.1459 C   0  0  0  0  0  0  0  0  0  0  0  0
   47.8507   32.5121   45.3742 H   0  0  0  0  0  0  0  0  0  0  0  0
   47.5962   31.1085   46.8908 C   0  0  0  0  0  0  0  0  0  0  0  0
   46.7966   30.6068   47.8913 C   0  0  0  0  0  0  0  0  0  0  0  0
   45.5828   31.1938   48.1129 C   0  0  0  0  0  0  0  0  0  0  0  0
   44.7654   30.7478   49.1290 C   0  0  0  0  0  0  0  0  0  0  0  0
   43.5307   31.3315   49.4321 C   0  0  0  0  0  0  0  0  0  0  0  0
   43.1800   32.4163   48.6193 C   0  0  0  0  0  0  0  0  0  0  0  0
   44.0012   32.8353   47.6250 C   0  0  0  0  0  0  0  0  0  0  0  0
   45.2083   32.2550   47.3322 C   0  0  0  0  0  0  0  0  0  0  0  0
   48.5591   30.6516   46.7095 H   0  0  0  0  0  0  0  0  0  0  0  0
   47.1004   29.7746   48.4948 H   0  0  0  0  0  0  0  0  0  0  0  0
   45.1090   29.8985   49.7179 H   0  0  0  0  0  0  0  0  0  0  0  0
   42.9233   30.9564   50.2289 H   0  0  0  0  0  0  0  0  0  0  0  0
   42.2115   32.8387   48.8943 H   0  0  0  0  0  0  0  0  0  0  0  0
   43.6011   33.6956   47.1344 H   0  0  0  0  0  0  0  0  0  0  0  0
  1  2  2  0
  3  2  1  0
  4  3  2  0
  5  4  1  0
  5  6  2  0
  6  1  1  0
  7  5  1  0
  8  7  2  0
  9  8  1  0
 10 11  1  0
 10  9  2  0
 11 12  2  0
 12  7  1  0
  2 13  1  0
  3 14  1  0
  8 15  1  0
  9 16  1  0
 10 17  1  0
 11 18  1  0
 19 20  2  0
 20 21  1  0
 20 22  1  0
 22 23  2  0
 23 24  1  0
 24 25  2  0
 25 26  1  0
 26 27  2  0
 27 28  1  0
 28 29  2  0
 29 19  1  0
 29 24  1  0
 22 30  1  0
 23 31  1  0
 25 32  1  0
 26 33  1  0
 27 34  1  0
 28 35  1  0
  1 19  1  0
M  ISO  7  13  14  14  14  15  14  16  14  17  14  18  14  21  15
M  END
>  <DihAtoms>  (1) 
1,0,18,19

>  <DihDeg>  (1) 
141.96268239399953

$$$$
