REMARK  Name = 
REMARK  3 active torsions:
REMARK  status: ('A' for Active; 'I' for Inactive)
REMARK    1  A    between atoms: C_1  and  N_2
REMARK    2  A    between atoms: C_1  and  C_11
REMARK    3  A    between atoms: C_14  and  C_23
REMARK                            x       y       z     vdW  Elec       q    Type
REMARK                         _______ _______ _______ _____ _____    ______ ____
ROOT
ATOM      1  C   UNL     1      44.331  35.909  43.592  0.00  0.00    +0.000 A 
ATOM      2  C   UNL     1      44.398  34.909  42.617  0.00  0.00    +0.000 A 
ATOM      3  C   UNL     1      44.869  33.685  43.027  0.00  0.00    +0.000 A 
ATOM      4  N   UNL     1      45.229  33.526  44.327  0.00  0.00    +0.000 NA
ATOM      5  C   UNL     1      45.146  34.513  45.229  0.00  0.00    +0.000 A 
ATOM      6  N   UNL     1      44.703  35.707  44.886  0.00  0.00    +0.000 NA
ATOM      7  H   UNL     1      43.975  36.903  43.361  0.00  0.00    +0.000 HD
ATOM      8  H   UNL     1      44.920  32.930  42.284  0.00  0.00    +0.000 HD
ENDROOT
BRANCH   5   9
ATOM      9  C   UNL     1      45.611  34.011  46.535  0.00  0.00    +0.000 A 
ATOM     10  C   UNL     1      44.962  34.245  47.705  0.00  0.00    +0.000 A 
ATOM     11  H   UNL     1      44.051  34.827  47.736  0.00  0.00    +0.000 HD
ATOM     12  C   UNL     1      45.364  33.794  48.943  0.00  0.00    +0.000 A 
ATOM     13  C   UNL     1      46.508  33.040  49.051  0.00  0.00    +0.000 A 
ATOM     14  C   UNL     1      47.212  32.767  47.900  0.00  0.00    +0.000 A 
ATOM     15  C   UNL     1      48.348  32.012  48.047  0.00  0.00    +0.000 A 
ATOM     16  C   UNL     1      49.111  31.692  46.949  0.00  0.00    +0.000 A 
ATOM     17  C   UNL     1      48.684  32.159  45.720  0.00  0.00    +0.000 A 
ATOM     18  C   UNL     1      47.535  32.912  45.636  0.00  0.00    +0.000 A 
ATOM     19  C   UNL     1      46.746  33.253  46.705  0.00  0.00    +0.000 A 
ENDBRANCH   5   9
BRANCH   2  20
ATOM     20  C   UNL     1      43.943  35.276  41.274  0.00  0.00    +0.000 C 
ATOM     21  H   UNL     1      44.041  36.348  41.096  0.00  0.00    +0.000 HD
ATOM     22  H   UNL     1      44.624  34.785  40.538  0.00  0.00    +0.000 HD
BRANCH  20  23
ATOM     23  N   UNL     1      42.579  34.773  41.092  0.00  0.00    +0.000 N 
ATOM     24  C   UNL     1      41.551  35.427  41.631  0.00  0.00    +0.000 A 
ATOM     25  C   UNL     1      40.276  34.896  41.421  0.00  0.00    +0.000 A 
ATOM     26  C   UNL     1      40.094  33.739  40.684  0.00  0.00    +0.000 A 
ATOM     27  O   UNL     1      38.930  33.294  40.519  0.00  0.00    +0.000 OA
ATOM     28  N   UNL     1      41.175  33.108  40.155  0.00  0.00    +0.000 N 
ATOM     29  C   UNL     1      42.424  33.622  40.355  0.00  0.00    +0.000 A 
ATOM     30  O   UNL     1      43.370  32.989  39.840  0.00  0.00    +0.000 OA
ATOM     31  H   UNL     1      41.727  36.321  42.197  0.00  0.00    +0.000 HD
ATOM     32  H   UNL     1      39.473  35.460  41.876  0.00  0.00    +0.000 HD
ATOM     33  H   UNL     1      41.049  32.243  39.603  0.00  0.00    +0.000 HD
ENDBRANCH  20  23
ENDBRANCH   2  20
TORSDOF 3
