
 OpenBabel03252500513D

 37 40  0  0  0  0  0  0  0  0999 V2000
   44.5420   34.9150   42.1170 C   0  0  0  0  0  0  0  0  0  0  0  0
   45.2970   34.7900   41.1330 O   0  0  0  0  0  0  0  0  0  0  0  0
   44.8780   35.0310   44.5380 C   0  0  0  0  0  0  0  0  0  0  0  0
   44.9370   34.3000   43.3800 C   0  0  0  0  0  0  0  0  0  0  0  0
   45.3720   32.9520   43.3780 C   0  0  0  0  0  0  0  0  0  0  0  0
   45.7320   32.4110   44.5870 N   0  0  0  0  0  0  0  0  0  0  0  0
   45.6680   33.1440   45.7120 C   0  0  0  0  0  0  0  0  0  0  0  0
   45.2470   34.4320   45.6840 N   0  0  0  0  0  0  0  0  0  0  0  0
   44.5510   36.0480   44.5440 H   0  0  0  0  0  0  0  0  0  0  0  0
   45.4240   32.3590   42.4670 H   0  0  0  0  0  0  0  0  0  0  0  0
   46.0540   32.5550   46.9820 C   0  0  0  0  0  0  0  0  0  0  0  0
   47.3380   32.2490   47.2900 C   0  0  0  0  0  0  0  0  0  0  0  0
   47.7230   31.6950   48.4800 C   0  0  0  0  0  0  0  0  0  0  0  0
   46.7340   31.4490   49.3870 N   0  0  0  0  0  0  0  0  0  0  0  0
   45.4890   31.7490   49.0800 C   0  0  0  0  0  0  0  0  0  0  0  0
   45.0710   32.2960   47.9220 N   0  0  0  0  0  0  0  0  0  0  0  0
   48.1240   32.4490   46.5600 H   0  0  0  0  0  0  0  0  0  0  0  0
   48.7470   31.4470   48.7330 H   0  0  0  0  0  0  0  0  0  0  0  0
   44.7040   31.5450   49.8170 H   0  0  0  0  0  0  0  0  0  0  0  0
   43.4600   35.6480   41.7390 O   0  0  0  0  0  0  0  0  0  0  0  0
   42.7170   35.3980   40.6080 C   0  0  0  0  0  0  0  0  0  0  0  0
   43.1050   36.1640   39.8560 H   0  0  0  0  0  0  0  0  0  0  0  0
   42.8480   34.4590   40.0750 H   0  0  0  0  0  0  0  0  0  0  0  0
   41.2220   35.6360   40.7980 C   0  0  0  0  0  0  0  0  0  0  0  0
   40.8970   36.1720   39.8700 H   0  0  0  0  0  0  0  0  0  0  0  0
   41.0930   36.3430   41.5920 H   0  0  0  0  0  0  0  0  0  0  0  0
   40.4380   34.3890   40.8220 C   0  0  0  0  0  0  0  0  0  0  0  0
   40.3810   33.5380   41.9290 C   0  0  0  0  0  0  0  0  0  0  0  0
   40.9910   33.8750   42.7720 H   0  0  0  0  0  0  0  0  0  0  0  0
   39.6270   32.3820   41.9470 C   0  0  0  0  0  0  0  0  0  0  0  0
   38.8840   32.0190   40.8410 C   0  0  0  0  0  0  0  0  0  0  0  0
   38.9150   32.8360   39.7260 C   0  0  0  0  0  0  0  0  0  0  0  0
   38.1820   32.5080   38.5790 C   0  0  0  0  0  0  0  0  0  0  0  0
   38.2080   33.3080   37.4600 C   0  0  0  0  0  0  0  0  0  0  0  0
   38.9680   34.4640   37.4540 C   0  0  0  0  0  0  0  0  0  0  0  0
   39.6890   34.7860   38.5870 C   0  0  0  0  0  0  0  0  0  0  0  0
   39.6720   33.9900   39.7210 C   0  0  0  0  0  0  0  0  0  0  0  0
  1  4  1  0  0  0  0
  2  1  2  0  0  0  0
  3  9  1  0  0  0  0
  3  8  1  0  0  0  0
  4  3  2  0  0  0  0
  5  4  1  0  0  0  0
  5  6  2  0  0  0  0
  6  7  1  0  0  0  0
  7 11  1  0  0  0  0
  8  7  2  0  0  0  0
 10  5  1  0  0  0  0
 11 12  2  0  0  0  0
 11 16  1  0  0  0  0
 12 13  1  0  0  0  0
 13 18  1  0  0  0  0
 13 14  2  0  0  0  0
 15 14  1  0  0  0  0
 15 19  1  0  0  0  0
 16 15  2  0  0  0  0
 17 12  1  0  0  0  0
 20  1  1  0  0  0  0
 21 24  1  0  0  0  0
 21 20  1  0  0  0  0
 22 21  1  0  0  0  0
 23 21  1  0  0  0  0
 24 27  1  0  0  0  0
 24 26  1  0  0  0  0
 25 24  1  0  0  0  0
 27 28  1  0  0  0  0
 28 30  2  0  0  0  0
 28 29  1  0  0  0  0
 31 30  1  0  0  0  0
 32 31  2  0  0  0  0
 33 32  1  0  0  0  0
 34 33  2  0  0  0  0
 35 34  1  0  0  0  0
 35 36  2  0  0  0  0
 36 37  1  0  0  0  0
 37 32  1  0  0  0  0
 37 27  2  0  0  0  0
M  END
>  <minimizedAffinity>
-6.85818624

>  <minimizedRMSD>
1.53736663

$$$$
