
 OpenBabel03252506593D

 26 28  0  0  0  0  0  0  0  0999 V2000
   44.8410   32.9610   42.4980 C   0  0  0  0  0  0  0  0  0  0  0  0
   44.8970   32.4360   43.4700 H   0  0  0  0  0  0  0  0  0  0  0  0
   45.5010   32.4470   41.7810 H   0  0  0  0  0  0  0  0  0  0  0  0
   43.4670   32.9470   41.9580 C   0  0  0  0  0  0  0  0  0  0  0  0
   42.8550   34.0250   41.3750 C   0  0  0  0  0  0  0  0  0  0  0  0
   43.4010   34.9630   41.2860 H   0  0  0  0  0  0  0  0  0  0  0  0
   41.5610   33.9720   40.8880 C   0  0  0  0  0  3  0  0  0  0  0  0
   40.8120   32.8420   40.9590 C   0  0  0  0  0  3  0  0  0  0  0  0
   41.4220   31.7430   41.5460 C   0  0  0  0  0  0  0  0  0  0  0  0
   40.6650   30.5730   41.6220 C   0  0  0  0  0  3  0  0  0  0  0  0
   41.1780   29.4220   42.1840 C   0  0  0  0  0  3  0  0  0  0  0  0
   42.4700   29.4450   42.6780 C   0  0  0  0  0  3  0  0  0  0  0  0
   43.1730   30.6270   42.5780 C   0  0  0  0  0  3  0  0  0  0  0  0
   42.7060   31.8000   42.0270 C   0  0  0  0  0  0  0  0  0  0  0  0
   45.3600   34.3730   42.7150 C   0  0  0  0  0  0  0  0  0  0  0  0
   45.2170   34.7660   43.7080 H   0  0  0  0  0  0  0  0  0  0  0  0
   44.7040   35.0140   42.0480 H   0  0  0  0  0  0  0  0  0  0  0  0
   46.7440   34.4390   42.2300 C   0  0  0  0  0  0  0  0  0  0  0  0
   47.0460   34.5700   40.8850 C   0  0  0  0  0  0  0  0  0  0  0  0
   48.4120   34.6240   40.5200 C   0  0  0  0  0  0  0  0  0  0  0  0
   49.3260   34.5440   41.5110 N   0  0  0  0  0  0  0  0  0  0  0  0
   48.9860   34.4180   42.8030 C   0  0  0  0  0  0  0  0  0  0  0  0
   47.7070   34.3660   43.1610 N   0  0  0  0  0  0  0  0  0  0  0  0
   46.2780   34.6290   40.1300 H   0  0  0  0  0  0  0  0  0  0  0  0
   48.7180   34.7250   39.4860 H   0  0  0  0  0  0  0  0  0  0  0  0
   49.7470   34.3540   43.5970 H   0  0  0  0  0  0  0  0  0  0  0  0
  1 15  1  0  0  0  0
  1  2  1  0  0  0  0
  3  1  1  0  0  0  0
  4 14  1  0  0  0  0
  4  1  1  0  0  0  0
  5  4  2  0  0  0  0
  6  5  1  0  0  0  0
  7  8  2  0  0  0  0
  7  5  1  0  0  0  0
  8  9  1  0  0  0  0
  9 10  2  0  0  0  0
  9 14  1  0  0  0  0
 10 11  1  0  0  0  0
 11 12  2  0  0  0  0
 13 12  1  0  0  0  0
 14 13  2  0  0  0  0
 15 16  1  0  0  0  0
 17 15  1  0  0  0  0
 18 15  1  0  0  0  0
 18 23  1  0  0  0  0
 19 18  2  0  0  0  0
 20 19  1  0  0  0  0
 20 21  2  0  0  0  0
 21 22  1  0  0  0  0
 22 23  2  0  0  0  0
 22 26  1  0  0  0  0
 24 19  1  0  0  0  0
 25 20  1  0  0  0  0
M  END
>  <minimizedAffinity>
-3.61860132

>  <minimizedRMSD>
7.82955122

$$$$
