
 OpenBabel03252507083D

 26 28  0  0  0  0  0  0  0  0999 V2000
   44.5520   35.9110   44.6090 C   0  0  0  0  0  0  0  0  0  0  0  0
   45.1740   35.9860   43.3520 C   0  0  0  0  0  0  0  0  0  0  0  0
   46.0830   35.0020   43.0310 C   0  0  0  0  0  0  0  0  0  0  0  0
   46.3080   34.0520   43.9390 N   0  0  0  0  0  0  0  0  0  0  0  0
   45.7330   33.9510   45.1410 C   0  0  0  0  0  0  0  0  0  0  0  0
   44.8350   34.9170   45.4640 N   0  0  0  0  0  0  0  0  0  0  0  0
   43.8430   36.6850   44.8500 H   0  0  0  0  0  0  0  0  0  0  0  0
   44.9120   36.8040   42.7030 H   0  0  0  0  0  0  0  0  0  0  0  0
   45.9100   32.9650   46.1820 C   0  0  0  0  0  0  0  0  0  0  0  0
   45.3310   33.1020   47.4350 C   0  0  0  0  0  0  0  0  0  0  0  0
   44.7120   33.9860   47.6670 H   0  0  0  0  0  0  0  0  0  0  0  0
   45.4640   32.2020   48.4600 C   0  0  0  0  0  0  0  0  0  0  0  0
   46.2130   31.0620   48.2890 C   0  0  0  0  0  0  0  0  0  0  0  0
   46.8150   30.8630   47.0670 C   0  0  0  0  0  0  0  0  0  0  0  0
   47.5620   29.7170   46.9110 C   0  0  0  0  0  0  0  0  0  0  0  0
   48.1920   29.4590   45.7120 C   0  0  0  0  0  0  0  0  0  0  0  0
   48.0410   30.3860   44.6950 C   0  0  0  0  0  0  0  0  0  0  0  0
   47.2810   31.5110   44.9160 C   0  0  0  0  0  0  0  0  0  0  0  0
   46.6340   31.8160   46.0900 C   0  0  0  0  0  0  0  0  0  0  0  0
   46.7050   35.0560   41.7940 O   0  0  0  0  0  0  0  0  0  0  0  0
   48.5100   33.2920   41.0170 O   0  0  0  0  0  0  0  0  0  0  0  0
   48.3580   34.6730   41.6400 P   0  0  0  0  0  0  0  0  0  0  0  0
   49.0990   35.8710   40.7280 O   0  0  0  0  0  0  0  0  0  0  0  0
   48.4950   36.0550   39.9470 H   0  0  0  0  0  0  0  0  0  0  0  0
   48.9940   34.5970   43.2080 O   0  0  0  0  0  0  0  0  0  0  0  0
   49.0600   35.5600   43.4920 H   0  0  0  0  0  0  0  0  0  0  0  0
  1  7  1  0  0  0  0
  1  6  1  0  0  0  0
  2  1  2  0  0  0  0
  3  2  1  0  0  0  0
  3  4  2  0  0  0  0
  4  5  1  0  0  0  0
  5  6  2  0  0  0  0
  5  9  1  0  0  0  0
  8  2  1  0  0  0  0
  9 10  1  0  0  0  0
 10 11  1  0  0  0  0
 10 12  2  0  0  0  0
 13 12  1  0  0  0  0
 14 13  2  0  0  0  0
 15 14  1  0  0  0  0
 16 15  2  0  0  0  0
 17 18  2  0  0  0  0
 17 16  1  0  0  0  0
 18 19  1  0  0  0  0
 19  9  2  0  0  0  0
 19 14  1  0  0  0  0
 20  3  1  0  0  0  0
 21 22  2  0  0  0  0
 22 20  1  0  0  0  0
 22 25  1  0  0  0  0
 23 22  1  0  0  0  0
 24 23  1  0  0  0  0
 25 26  1  0  0  0  0
M  END
>  <minimizedAffinity>
-6.46777391

>  <minimizedRMSD>
0.27297309

$$$$
