
 OpenBabel03242511103D

 45 50  0  0  1  0  0  0  0  0999 V2000
   36.9710   31.0180   40.8930 C   0  0  0  0  0  0  0  0  0  0  0  0
   36.6760   32.1730   40.1750 C   0  0  0  0  0  0  0  0  0  0  0  0
   37.6110   33.1610   39.8990 C   0  0  0  0  0  0  0  0  0  0  0  0
   38.9170   33.0260   40.3460 C   0  0  0  0  0  0  0  0  0  0  0  0
   39.2350   31.9060   41.0500 C   0  0  0  0  0  0  0  0  0  0  0  0
   40.5290   31.7580   41.4980 C   0  0  0  0  0  0  0  0  0  0  0  0
   40.9320   30.6420   42.2200 C   0  0  0  0  0  0  0  0  0  0  0  0
   39.9640   29.6740   42.4720 C   0  0  0  0  0  0  0  0  0  0  0  0
   38.6690   29.8570   42.0050 C   0  0  0  0  0  0  0  0  0  0  0  0
   38.2810   30.9540   41.3000 C   0  0  0  0  0  0  0  0  0  0  0  0
   35.6890   32.3660   39.7860 H   0  0  0  0  0  0  0  0  0  0  0  0
   37.3380   34.0510   39.3340 H   0  0  0  0  0  0  0  0  0  0  0  0
   39.6000   33.8230   40.1040 H   0  0  0  0  0  0  0  0  0  0  0  0
   41.2480   32.5480   41.2710 H   0  0  0  0  0  0  0  0  0  0  0  0
   41.9750   30.6340   42.5200 H   0  0  0  0  0  0  0  0  0  0  0  0
   40.3990   28.8620   43.0370 H   0  0  0  0  0  0  0  0  0  0  0  0
   37.9190   28.6790   42.3970 C   0  0  0  0  0  0  0  0  0  0  0  0
   37.0880   28.4130   43.4670 C   0  0  0  0  0  0  0  0  0  0  0  0
   36.9790   29.3020   44.0960 H   0  0  0  0  0  0  0  0  0  0  0  0
   36.5040   27.1870   43.6770 C   0  0  0  0  0  3  0  0  0  0  0  0
   36.7170   26.1290   42.8210 C   0  0  0  0  0  3  0  0  0  0  0  0
   37.5420   26.3560   41.7400 C   0  0  0  0  0  0  0  0  0  0  0  0
   37.7290   25.2730   40.9090 C   0  0  0  0  0  3  0  0  0  0  0  0
   38.5390   25.4150   39.8050 C   0  0  0  0  0  3  0  0  0  0  0  0
   39.1520   26.6220   39.5420 C   0  0  0  0  0  3  0  0  0  0  0  0
   38.9240   27.6650   40.4130 C   0  0  0  0  0  3  0  0  0  0  0  0
   38.1240   27.5890   41.5350 C   0  0  0  0  0  0  0  0  0  0  0  0
   35.9570   30.0770   41.1290 N   0  0  0  0  0  0  0  0  0  0  0  0
   35.4340   30.0780   42.0320 H   0  0  0  0  0  0  0  0  0  0  0  0
   35.8040   29.2270   38.7300 C   0  0  1  0  0  0  0  0  0  0  0  0
   34.4010   29.3040   39.2900 C   0  0  0  0  0  0  0  0  0  0  0  0
   35.6300   29.0650   40.1650 C   0  0  2  0  0  0  0  0  0  0  0  0
   36.0600   30.1740   38.1960 H   0  0  0  0  0  0  0  0  0  0  0  0
   33.8920   30.2670   39.3570 H   0  0  0  0  0  0  0  0  0  0  0  0
   33.7110   28.4430   39.1040 H   0  0  0  0  0  0  0  0  0  0  0  0
   35.7380   28.0100   40.5380 H   0  0  0  0  0  0  0  0  0  0  0  0
   37.4010   27.1160   36.1190 C   0  0  0  0  0  0  0  0  0  0  0  0
   36.7680   25.8610   36.3540 C   0  0  0  0  0  0  0  0  0  0  0  0
   35.8180   25.7730   37.4060 C   0  0  0  0  0  0  0  0  0  0  0  0
   35.5470   26.8570   38.1400 N   0  0  0  0  0  0  0  0  0  0  0  0
   36.1690   28.0400   37.8900 C   0  0  0  0  0  0  0  0  0  0  0  0
   37.0960   28.1740   36.8830 N   0  0  0  0  0  0  0  0  0  0  0  0
   38.1320   27.1700   35.3030 H   0  0  0  0  0  0  0  0  0  0  0  0
   36.9890   24.9960   35.7620 H   0  0  0  0  0  0  0  0  0  0  0  0
   35.3300   24.8190   37.5940 H   0  0  0  0  0  0  0  0  0  0  0  0
  1 28  1  0  0  0  0
  1 10  1  0  0  0  0
  2  1  2  0  0  0  0
  3  2  1  0  0  0  0
  3  4  2  0  0  0  0
  4  5  1  0  0  0  0
  5 10  2  0  0  0  0
  5  6  1  0  0  0  0
  6  7  2  0  0  0  0
  7  8  1  0  0  0  0
  7 15  1  0  0  0  0
  8 16  1  0  0  0  0
  9 17  1  0  0  0  0
  9  8  2  0  0  0  0
 10  9  1  0  0  0  0
 11  2  1  0  0  0  0
 12  3  1  0  0  0  0
 13  4  1  0  0  0  0
 14  6  1  0  0  0  0
 17 18  1  0  0  0  0
 18 20  2  0  0  0  0
 18 19  1  0  0  0  0
 21 20  1  0  0  0  0
 22 21  2  0  0  0  0
 23 22  1  0  0  0  0
 24 23  2  0  0  0  0
 25 24  1  0  0  0  0
 25 26  2  0  0  0  0
 26 27  1  0  0  0  0
 27 22  1  0  0  0  0
 27 17  2  0  0  0  0
 28 29  1  0  0  0  0
 30 33  1  6  0  0  0
 30 31  1  0  0  0  0
 30 32  1  0  0  0  0
 31 34  1  0  0  0  0
 31 32  1  0  0  0  0
 32 36  1  1  0  0  0
 32 28  1  0  0  0  0
 35 31  1  0  0  0  0
 37 38  2  0  0  0  0
 37 42  1  0  0  0  0
 38 39  1  0  0  0  0
 39 45  1  0  0  0  0
 39 40  2  0  0  0  0
 41 40  1  0  0  0  0
 41 30  1  0  0  0  0
 42 41  2  0  0  0  0
 43 37  1  0  0  0  0
 44 38  1  0  0  0  0
M  END
>  <minimizedAffinity>
-6.67392778

$$$$

 OpenBabel03242511103D

 45 50  0  0  1  0  0  0  0  0999 V2000
   37.8570   28.8390   41.1350 C   0  0  0  0  0  0  0  0  0  0  0  0
   37.9270   29.4120   42.4010 C   0  0  0  0  0  0  0  0  0  0  0  0
   37.6660   28.7140   43.5710 C   0  0  0  0  0  0  0  0  0  0  0  0
   37.3130   27.3740   43.5170 C   0  0  0  0  0  0  0  0  0  0  0  0
   37.2370   26.7860   42.2920 C   0  0  0  0  0  0  0  0  0  0  0  0
   36.8900   25.4550   42.2240 C   0  0  0  0  0  0  0  0  0  0  0  0
   36.7950   24.7830   41.0120 C   0  0  0  0  0  0  0  0  0  0  0  0
   37.0680   25.5200   39.8640 C   0  0  0  0  0  0  0  0  0  0  0  0
   37.4140   26.8600   39.9710 C   0  0  0  0  0  0  0  0  0  0  0  0
   37.5040   27.5120   41.1610 C   0  0  0  0  0  0  0  0  0  0  0  0
   38.1940   30.4470   42.5440 H   0  0  0  0  0  0  0  0  0  0  0  0
   37.7310   29.2020   44.5430 H   0  0  0  0  0  0  0  0  0  0  0  0
   37.1200   26.8820   44.4560 H   0  0  0  0  0  0  0  0  0  0  0  0
   36.6870   24.9250   43.1570 H   0  0  0  0  0  0  0  0  0  0  0  0
   36.5130   23.7370   41.0820 H   0  0  0  0  0  0  0  0  0  0  0  0
   36.9610   24.8880   38.9930 H   0  0  0  0  0  0  0  0  0  0  0  0
   37.6630   27.3300   38.6210 C   0  0  0  0  0  0  0  0  0  0  0  0
   38.8000   27.3680   37.8390 C   0  0  0  0  0  0  0  0  0  0  0  0
   39.6450   26.9180   38.3700 H   0  0  0  0  0  0  0  0  0  0  0  0
   38.8260   27.9110   36.5770 C   0  0  0  0  0  3  0  0  0  0  0  0
   37.7000   28.4610   36.0040 C   0  0  0  0  0  3  0  0  0  0  0  0
   36.5440   28.4410   36.7550 C   0  0  0  0  0  0  0  0  0  0  0  0
   35.4420   29.0020   36.1460 C   0  0  0  0  0  3  0  0  0  0  0  0
   34.2460   29.0230   36.8280 C   0  0  0  0  0  3  0  0  0  0  0  0
   34.1590   28.4920   38.0980 C   0  0  0  0  0  3  0  0  0  0  0  0
   35.2990   27.9480   38.6490 C   0  0  0  0  0  3  0  0  0  0  0  0
   36.5260   27.8950   38.0210 C   0  0  0  0  0  0  0  0  0  0  0  0
   38.1310   29.6260   40.0060 N   0  0  0  0  0  0  0  0  0  0  0  0
   37.4500   29.6770   39.2170 H   0  0  0  0  0  0  0  0  0  0  0  0
   39.4790   31.7910   40.0800 C   0  0  1  0  0  0  0  0  0  0  0  0
   39.5130   31.2660   38.6620 C   0  0  0  0  0  0  0  0  0  0  0  0
   39.3620   30.3550   39.8790 C   0  0  2  0  0  0  0  0  0  0  0  0
   38.6360   32.5130   40.2060 H   0  0  0  0  0  0  0  0  0  0  0  0
   38.6520   31.4080   38.0070 H   0  0  0  0  0  0  0  0  0  0  0  0
   40.4930   31.2670   38.1230 H   0  0  0  0  0  0  0  0  0  0  0  0
   40.2840   29.7650   40.1360 H   0  0  0  0  0  0  0  0  0  0  0  0
   42.5610   32.1590   42.1250 C   0  0  0  0  0  0  0  0  0  0  0  0
   43.0080   33.4510   41.7220 C   0  0  0  0  0  0  0  0  0  0  0  0
   42.2430   34.1550   40.7540 C   0  0  0  0  0  0  0  0  0  0  0  0
   41.1380   33.5920   40.2520 N   0  0  0  0  0  0  0  0  0  0  0  0
   40.7400   32.3570   40.6590 C   0  0  0  0  0  0  0  0  0  0  0  0
   41.4470   31.6380   41.5930 N   0  0  0  0  0  0  0  0  0  0  0  0
   43.1610   31.6270   42.8740 H   0  0  0  0  0  0  0  0  0  0  0  0
   43.8930   33.8960   42.1280 H   0  0  0  0  0  0  0  0  0  0  0  0
   42.5760   35.1410   40.4390 H   0  0  0  0  0  0  0  0  0  0  0  0
  1 10  2  0  0  0  0
  1  2  1  0  0  0  0
  2 11  1  0  0  0  0
  2  3  2  0  0  0  0
  3 12  1  0  0  0  0
  4  3  1  0  0  0  0
  4 13  1  0  0  0  0
  5  4  2  0  0  0  0
  6  5  1  0  0  0  0
  6 14  1  0  0  0  0
  7 15  1  0  0  0  0
  7  6  2  0  0  0  0
  8  9  2  0  0  0  0
  8  7  1  0  0  0  0
  9 10  1  0  0  0  0
 10  5  1  0  0  0  0
 16  8  1  0  0  0  0
 17  9  1  0  0  0  0
 18 19  1  0  0  0  0
 18 17  2  0  0  0  0
 20 18  1  0  0  0  0
 21 20  2  0  0  0  0
 21 22  1  0  0  0  0
 22 27  1  0  0  0  0
 23 22  2  0  0  0  0
 23 24  1  0  0  0  0
 24 25  2  0  0  0  0
 25 26  1  0  0  0  0
 27 17  1  0  0  0  0
 27 26  2  0  0  0  0
 28  1  1  0  0  0  0
 29 28  1  0  0  0  0
 30 33  1  1  0  0  0
 30 41  1  0  0  0  0
 31 32  1  0  0  0  0
 31 30  1  0  0  0  0
 32 28  1  0  0  0  0
 32 30  1  0  0  0  0
 32 36  1  1  0  0  0
 34 31  1  0  0  0  0
 35 31  1  0  0  0  0
 37 43  1  0  0  0  0
 38 37  1  0  0  0  0
 38 44  1  0  0  0  0
 39 38  2  0  0  0  0
 40 41  2  0  0  0  0
 40 39  1  0  0  0  0
 41 42  1  0  0  0  0
 42 37  2  0  0  0  0
 45 39  1  0  0  0  0
M  END
>  <minimizedAffinity>
-6.60383463

$$$$

 OpenBabel03242511103D

 45 50  0  0  1  0  0  0  0  0999 V2000
   39.1610   28.0970   42.3010 C   0  0  0  0  0  0  0  0  0  0  0  0
   40.3140   28.1690   43.0770 C   0  0  0  0  0  0  0  0  0  0  0  0
   40.9080   27.0620   43.6670 C   0  0  0  0  0  0  0  0  0  0  0  0
   40.3540   25.8020   43.4960 C   0  0  0  0  0  0  0  0  0  0  0  0
   39.2270   25.7010   42.7400 C   0  0  0  0  0  0  0  0  0  0  0  0
   38.6680   24.4550   42.5600 C   0  0  0  0  0  0  0  0  0  0  0  0
   37.5210   24.2700   41.8000 C   0  0  0  0  0  0  0  0  0  0  0  0
   36.9590   25.4060   41.2240 C   0  0  0  0  0  0  0  0  0  0  0  0
   37.5500   26.6450   41.4280 C   0  0  0  0  0  0  0  0  0  0  0  0
   38.6730   26.8200   42.1750 C   0  0  0  0  0  0  0  0  0  0  0  0
   40.8160   29.1040   43.2660 H   0  0  0  0  0  0  0  0  0  0  0  0
   41.8100   27.1630   44.2690 H   0  0  0  0  0  0  0  0  0  0  0  0
   40.8560   24.9800   43.9760 H   0  0  0  0  0  0  0  0  0  0  0  0
   39.1510   23.5980   43.0340 H   0  0  0  0  0  0  0  0  0  0  0  0
   37.1710   23.2450   41.7280 H   0  0  0  0  0  0  0  0  0  0  0  0
   36.0780   25.1310   40.6620 H   0  0  0  0  0  0  0  0  0  0  0  0
   36.7570   27.6060   40.6840 C   0  0  0  0  0  0  0  0  0  0  0  0
   35.7510   28.4760   41.0560 C   0  0  0  0  0  0  0  0  0  0  0  0
   35.5730   28.4160   42.1350 H   0  0  0  0  0  0  0  0  0  0  0  0
   35.0880   29.2820   40.1640 C   0  0  0  0  0  3  0  0  0  0  0  0
   35.3890   29.2730   38.8190 C   0  0  0  0  0  3  0  0  0  0  0  0
   36.3890   28.4170   38.4090 C   0  0  0  0  0  0  0  0  0  0  0  0
   36.6580   28.4380   37.0580 C   0  0  0  0  0  3  0  0  0  0  0  0
   37.6440   27.6120   36.5640 C   0  0  0  0  0  3  0  0  0  0  0  0
   38.3440   26.7800   37.4130 C   0  0  0  0  0  3  0  0  0  0  0  0
   38.0240   26.8080   38.7530 C   0  0  0  0  0  3  0  0  0  0  0  0
   37.0500   27.6100   39.3100 C   0  0  0  0  0  0  0  0  0  0  0  0
   38.6270   29.2730   41.7510 N   0  0  0  0  0  0  0  0  0  0  0  0
   37.6280   29.5270   41.9130 H   0  0  0  0  0  0  0  0  0  0  0  0
   39.2460   31.5850   40.8700 C   0  0  1  0  0  0  0  0  0  0  0  0
   38.7300   30.7640   39.7090 C   0  0  0  0  0  0  0  0  0  0  0  0
   39.4160   30.1420   40.9240 C   0  0  2  0  0  0  0  0  0  0  0  0
   38.4140   32.1720   41.3300 H   0  0  0  0  0  0  0  0  0  0  0  0
   37.6560   30.6130   39.5820 H   0  0  0  0  0  0  0  0  0  0  0  0
   39.2950   30.8000   38.7440 H   0  0  0  0  0  0  0  0  0  0  0  0
   40.4630   29.7820   40.7320 H   0  0  0  0  0  0  0  0  0  0  0  0
   41.5010   34.1610   39.4210 C   0  0  0  0  0  0  0  0  0  0  0  0
   42.6570   34.0080   40.2390 C   0  0  0  0  0  0  0  0  0  0  0  0
   42.6270   33.0310   41.2700 C   0  0  0  0  0  0  0  0  0  0  0  0
   41.5270   32.2910   41.4430 N   0  0  0  0  0  0  0  0  0  0  0  0
   40.4390   32.4630   40.6440 C   0  0  0  0  0  0  0  0  0  0  0  0
   40.4210   33.3950   39.6330 N   0  0  0  0  0  0  0  0  0  0  0  0
   41.5380   34.9190   38.6280 H   0  0  0  0  0  0  0  0  0  0  0  0
   43.5350   34.6030   40.0940 H   0  0  0  0  0  0  0  0  0  0  0  0
   43.5040   32.9070   41.9000 H   0  0  0  0  0  0  0  0  0  0  0  0
  1  2  1  0  0  0  0
  2 11  1  0  0  0  0
  2  3  2  0  0  0  0
  3 12  1  0  0  0  0
  4  3  1  0  0  0  0
  4 13  1  0  0  0  0
  5  4  2  0  0  0  0
  6  5  1  0  0  0  0
  6 14  1  0  0  0  0
  7  6  2  0  0  0  0
  8  9  2  0  0  0  0
  8  7  1  0  0  0  0
  9 10  1  0  0  0  0
 10  1  2  0  0  0  0
 10  5  1  0  0  0  0
 15  7  1  0  0  0  0
 16  8  1  0  0  0  0
 17 18  1  0  0  0  0
 17  9  1  0  0  0  0
 18 19  1  0  0  0  0
 20 18  2  0  0  0  0
 21 20  1  0  0  0  0
 22 21  2  0  0  0  0
 22 27  1  0  0  0  0
 23 22  1  0  0  0  0
 24 23  2  0  0  0  0
 24 25  1  0  0  0  0
 25 26  2  0  0  0  0
 26 27  1  0  0  0  0
 27 17  2  0  0  0  0
 28 29  1  0  0  0  0
 28  1  1  0  0  0  0
 30 32  1  0  0  0  0
 30 33  1  1  0  0  0
 31 30  1  0  0  0  0
 31 32  1  0  0  0  0
 32 36  1  6  0  0  0
 32 28  1  0  0  0  0
 34 31  1  0  0  0  0
 35 31  1  0  0  0  0
 37 42  2  0  0  0  0
 37 38  1  0  0  0  0
 38 39  2  0  0  0  0
 39 40  1  0  0  0  0
 39 45  1  0  0  0  0
 41 30  1  0  0  0  0
 41 40  2  0  0  0  0
 42 41  1  0  0  0  0
 43 37  1  0  0  0  0
 44 38  1  0  0  0  0
M  END
>  <minimizedAffinity>
-6.59564352

$$$$

 OpenBabel03242511103D

 45 50  0  0  1  0  0  0  0  0999 V2000
   36.2340   26.4740   39.2530 C   0  0  0  0  0  0  0  0  0  0  0  0
   35.6760   26.3660   37.9830 C   0  0  0  0  0  0  0  0  0  0  0  0
   35.6410   25.1810   37.2610 C   0  0  0  0  0  0  0  0  0  0  0  0
   36.1810   24.0230   37.8010 C   0  0  0  0  0  0  0  0  0  0  0  0
   36.7330   24.0980   39.0420 C   0  0  0  0  0  0  0  0  0  0  0  0
   37.2720   22.9550   39.5900 C   0  0  0  0  0  0  0  0  0  0  0  0
   37.8500   22.9500   40.8530 C   0  0  0  0  0  0  0  0  0  0  0  0
   37.8620   24.1590   41.5430 C   0  0  0  0  0  0  0  0  0  0  0  0
   37.3110   25.2900   40.9590 C   0  0  0  0  0  0  0  0  0  0  0  0
   36.7470   25.2890   39.7210 C   0  0  0  0  0  0  0  0  0  0  0  0
   35.2310   27.2110   37.4820 H   0  0  0  0  0  0  0  0  0  0  0  0
   35.1940   25.1400   36.2690 H   0  0  0  0  0  0  0  0  0  0  0  0
   36.1270   23.1330   37.1970 H   0  0  0  0  0  0  0  0  0  0  0  0
   37.2350   22.0340   39.0050 H   0  0  0  0  0  0  0  0  0  0  0  0
   38.2420   21.9920   41.1810 H   0  0  0  0  0  0  0  0  0  0  0  0
   38.3350   24.0240   42.5050 H   0  0  0  0  0  0  0  0  0  0  0  0
   37.4480   26.3620   41.9260 C   0  0  0  0  0  0  0  0  0  0  0  0
   36.5930   26.8740   42.8820 C   0  0  0  0  0  0  0  0  0  0  0  0
   35.6550   26.3110   42.8970 H   0  0  0  0  0  0  0  0  0  0  0  0
   36.9140   27.9470   43.6790 C   0  0  0  0  0  3  0  0  0  0  0  0
   38.1280   28.5900   43.5710 C   0  0  0  0  0  3  0  0  0  0  0  0
   39.0090   28.1070   42.6270 C   0  0  0  0  0  0  0  0  0  0  0  0
   40.2100   28.7780   42.5510 C   0  0  0  0  0  3  0  0  0  0  0  0
   41.1470   28.3590   41.6330 C   0  0  0  0  0  3  0  0  0  0  0  0
   40.8820   27.2880   40.8070 C   0  0  0  0  0  3  0  0  0  0  0  0
   39.6610   26.6620   40.9340 C   0  0  0  0  0  3  0  0  0  0  0  0
   38.6800   27.0300   41.8310 C   0  0  0  0  0  0  0  0  0  0  0  0
   36.2310   27.7180   39.9030 N   0  0  0  0  0  0  0  0  0  0  0  0
   35.6250   27.8770   40.7380 H   0  0  0  0  0  0  0  0  0  0  0  0
   37.2370   30.0450   40.1760 C   0  0  1  0  0  0  0  0  0  0  0  0
   36.2810   30.0820   39.0040 C   0  0  0  0  0  0  0  0  0  0  0  0
   37.0230   28.8160   39.4280 C   0  0  2  0  0  0  0  0  0  0  0  0
   36.7130   30.3500   41.1140 H   0  0  0  0  0  0  0  0  0  0  0  0
   35.2050   30.1400   39.1790 H   0  0  0  0  0  0  0  0  0  0  0  0
   36.6120   30.6000   38.0690 H   0  0  0  0  0  0  0  0  0  0  0  0
   37.8690   28.5240   38.7480 H   0  0  0  0  0  0  0  0  0  0  0  0
   40.6140   31.0400   38.9820 C   0  0  0  0  0  0  0  0  0  0  0  0
   40.9310   32.0890   39.8930 C   0  0  0  0  0  0  0  0  0  0  0  0
   39.9740   32.4300   40.8850 C   0  0  0  0  0  0  0  0  0  0  0  0
   38.8140   31.7670   40.9360 N   0  0  0  0  0  0  0  0  0  0  0  0
   38.5430   30.7700   40.0510 C   0  0  0  0  0  0  0  0  0  0  0  0
   39.4380   30.4040   39.0730 N   0  0  0  0  0  0  0  0  0  0  0  0
   41.3630   30.7860   38.2210 H   0  0  0  0  0  0  0  0  0  0  0  0
   41.8620   32.6160   39.8460 H   0  0  0  0  0  0  0  0  0  0  0  0
   40.2060   33.2300   41.5840 H   0  0  0  0  0  0  0  0  0  0  0  0
  1 10  1  0  0  0  0
  1 28  1  0  0  0  0
  2  1  2  0  0  0  0
  3  4  2  0  0  0  0
  3  2  1  0  0  0  0
  4  5  1  0  0  0  0
  5  6  2  0  0  0  0
  5 10  1  0  0  0  0
  6  7  1  0  0  0  0
  7 15  1  0  0  0  0
  7  8  2  0  0  0  0
  8 16  1  0  0  0  0
  9  8  1  0  0  0  0
  9 17  1  0  0  0  0
 10  9  2  0  0  0  0
 11  2  1  0  0  0  0
 12  3  1  0  0  0  0
 13  4  1  0  0  0  0
 14  6  1  0  0  0  0
 17 18  1  0  0  0  0
 18 19  1  0  0  0  0
 18 20  2  0  0  0  0
 21 20  1  0  0  0  0
 22 21  2  0  0  0  0
 23 22  1  0  0  0  0
 24 23  2  0  0  0  0
 25 26  2  0  0  0  0
 25 24  1  0  0  0  0
 26 27  1  0  0  0  0
 27 17  2  0  0  0  0
 27 22  1  0  0  0  0
 28 29  1  0  0  0  0
 30 33  1  1  0  0  0
 31 34  1  0  0  0  0
 31 32  1  0  0  0  0
 31 30  1  0  0  0  0
 32 36  1  6  0  0  0
 32 28  1  0  0  0  0
 32 30  1  0  0  0  0
 35 31  1  0  0  0  0
 37 42  2  0  0  0  0
 37 38  1  0  0  0  0
 38 39  2  0  0  0  0
 39 40  1  0  0  0  0
 39 45  1  0  0  0  0
 41 30  1  0  0  0  0
 41 40  2  0  0  0  0
 42 41  1  0  0  0  0
 43 37  1  0  0  0  0
 44 38  1  0  0  0  0
M  END
>  <minimizedAffinity>
-6.46307135

$$$$

 OpenBabel03242511103D

 45 50  0  0  1  0  0  0  0  0999 V2000
   40.9010   26.7950   39.8140 C   0  0  0  0  0  0  0  0  0  0  0  0
   41.6950   27.5090   38.9220 C   0  0  0  0  0  0  0  0  0  0  0  0
   43.0440   27.7620   39.1330 C   0  0  0  0  0  0  0  0  0  0  0  0
   43.6670   27.2940   40.2800 C   0  0  0  0  0  0  0  0  0  0  0  0
   42.9150   26.5920   41.1700 C   0  0  0  0  0  0  0  0  0  0  0  0
   43.5230   26.1200   42.3130 C   0  0  0  0  0  0  0  0  0  0  0  0
   42.8240   25.3920   43.2670 C   0  0  0  0  0  0  0  0  0  0  0  0
   41.4750   25.1590   43.0160 C   0  0  0  0  0  0  0  0  0  0  0  0
   40.8970   25.6500   41.8530 C   0  0  0  0  0  0  0  0  0  0  0  0
   41.5870   26.3640   40.9240 C   0  0  0  0  0  0  0  0  0  0  0  0
   41.3000   27.9110   38.0030 H   0  0  0  0  0  0  0  0  0  0  0  0
   43.6300   28.3260   38.4090 H   0  0  0  0  0  0  0  0  0  0  0  0
   44.7140   27.5200   40.3920 H   0  0  0  0  0  0  0  0  0  0  0  0
   44.5840   26.3310   42.4600 H   0  0  0  0  0  0  0  0  0  0  0  0
   43.4060   25.0720   44.1260 H   0  0  0  0  0  0  0  0  0  0  0  0
   41.0480   24.5860   43.8260 H   0  0  0  0  0  0  0  0  0  0  0  0
   39.5110   25.2210   41.8700 C   0  0  0  0  0  0  0  0  0  0  0  0
   38.8740   24.1000   41.3740 C   0  0  0  0  0  0  0  0  0  0  0  0
   39.5990   23.4190   40.9180 H   0  0  0  0  0  0  0  0  0  0  0  0
   37.5160   23.9100   41.4590 C   0  0  0  0  0  3  0  0  0  0  0  0
   36.6910   24.8410   42.0520 C   0  0  0  0  0  3  0  0  0  0  0  0
   37.2920   25.9740   42.5580 C   0  0  0  0  0  0  0  0  0  0  0  0
   36.4320   26.8800   43.1420 C   0  0  0  0  0  3  0  0  0  0  0  0
   36.9510   28.0390   43.6740 C   0  0  0  0  0  3  0  0  0  0  0  0
   38.3070   28.2850   43.6190 C   0  0  0  0  0  3  0  0  0  0  0  0
   39.1100   27.3380   43.0210 C   0  0  0  0  0  3  0  0  0  0  0  0
   38.6550   26.1580   42.4700 C   0  0  0  0  0  0  0  0  0  0  0  0
   39.5430   26.5960   39.5200 N   0  0  0  0  0  0  0  0  0  0  0  0
   39.1170   25.6480   39.6040 H   0  0  0  0  0  0  0  0  0  0  0  0
   37.8740   28.4790   39.9370 C   0  0  1  0  0  0  0  0  0  0  0  0
   37.1990   27.4370   39.0730 C   0  0  0  0  0  0  0  0  0  0  0  0
   38.7080   27.6700   39.0620 C   0  0  2  0  0  0  0  0  0  0  0  0
   37.6620   28.2840   41.0160 H   0  0  0  0  0  0  0  0  0  0  0  0
   36.8160   26.5190   39.5230 H   0  0  0  0  0  0  0  0  0  0  0  0
   36.6040   27.7860   38.1920 H   0  0  0  0  0  0  0  0  0  0  0  0
   39.0890   28.2030   38.1480 H   0  0  0  0  0  0  0  0  0  0  0  0
   37.3300   31.6180   38.0210 C   0  0  0  0  0  0  0  0  0  0  0  0
   37.2820   32.5780   39.0730 C   0  0  0  0  0  0  0  0  0  0  0  0
   37.4290   32.1200   40.4100 C   0  0  0  0  0  0  0  0  0  0  0  0
   37.6060   30.8150   40.6420 N   0  0  0  0  0  0  0  0  0  0  0  0
   37.6460   29.9240   39.6150 C   0  0  0  0  0  0  0  0  0  0  0  0
   37.5090   30.3200   38.3050 N   0  0  0  0  0  0  0  0  0  0  0  0
   37.2160   31.9850   36.9940 H   0  0  0  0  0  0  0  0  0  0  0  0
   37.1400   33.6220   38.8800 H   0  0  0  0  0  0  0  0  0  0  0  0
   37.3930   32.8450   41.2190 H   0  0  0  0  0  0  0  0  0  0  0  0
  1 10  1  0  0  0  0
  2  3  1  0  0  0  0
  2  1  2  0  0  0  0
  3  4  2  0  0  0  0
  4 13  1  0  0  0  0
  4  5  1  0  0  0  0
  5  6  1  0  0  0  0
  6 14  1  0  0  0  0
  6  7  2  0  0  0  0
  7 15  1  0  0  0  0
  8  7  1  0  0  0  0
  8 16  1  0  0  0  0
  9 17  1  0  0  0  0
  9  8  2  0  0  0  0
 10  5  2  0  0  0  0
 10  9  1  0  0  0  0
 11  2  1  0  0  0  0
 12  3  1  0  0  0  0
 17 27  1  0  0  0  0
 18 20  1  0  0  0  0
 18 17  2  0  0  0  0
 19 18  1  0  0  0  0
 20 21  2  0  0  0  0
 21 22  1  0  0  0  0
 22 23  1  0  0  0  0
 23 24  2  0  0  0  0
 25 24  1  0  0  0  0
 26 25  2  0  0  0  0
 27 22  2  0  0  0  0
 27 26  1  0  0  0  0
 28 29  1  0  0  0  0
 28  1  1  0  0  0  0
 30 33  1  1  0  0  0
 31 34  1  0  0  0  0
 31 30  1  0  0  0  0
 32 36  1  6  0  0  0
 32 31  1  0  0  0  0
 32 28  1  0  0  0  0
 32 30  1  0  0  0  0
 35 31  1  0  0  0  0
 37 42  2  0  0  0  0
 37 38  1  0  0  0  0
 38 39  2  0  0  0  0
 39 40  1  0  0  0  0
 39 45  1  0  0  0  0
 41 30  1  0  0  0  0
 41 40  2  0  0  0  0
 42 41  1  0  0  0  0
 43 37  1  0  0  0  0
 44 38  1  0  0  0  0
M  END
>  <minimizedAffinity>
-6.46262455

$$$$

 OpenBabel03242511103D

 45 50  0  0  1  0  0  0  0  0999 V2000
   36.3840   29.0290   39.2250 C   0  0  0  0  0  0  0  0  0  0  0  0
   35.9480   29.7990   38.1500 C   0  0  0  0  0  0  0  0  0  0  0  0
   35.4320   29.2560   36.9820 C   0  0  0  0  0  0  0  0  0  0  0  0
   35.3290   27.8810   36.8410 C   0  0  0  0  0  0  0  0  0  0  0  0
   35.7460   27.1030   37.8760 C   0  0  0  0  0  0  0  0  0  0  0  0
   35.6480   25.7350   37.7500 C   0  0  0  0  0  0  0  0  0  0  0  0
   36.0490   24.8740   38.7630 C   0  0  0  0  0  0  0  0  0  0  0  0
   36.5590   25.4600   39.9180 C   0  0  0  0  0  0  0  0  0  0  0  0
   36.6440   26.8420   40.0100 C   0  0  0  0  0  0  0  0  0  0  0  0
   36.2500   27.6790   39.0130 C   0  0  0  0  0  0  0  0  0  0  0  0
   35.9880   30.8760   38.1670 H   0  0  0  0  0  0  0  0  0  0  0  0
   35.1020   29.8950   36.1630 H   0  0  0  0  0  0  0  0  0  0  0  0
   34.9220   27.5150   35.9130 H   0  0  0  0  0  0  0  0  0  0  0  0
   35.2400   25.3290   36.8220 H   0  0  0  0  0  0  0  0  0  0  0  0
   35.9250   23.8170   38.5520 H   0  0  0  0  0  0  0  0  0  0  0  0
   36.8330   24.6900   40.6260 H   0  0  0  0  0  0  0  0  0  0  0  0
   37.1780   27.1360   41.3260 C   0  0  0  0  0  0  0  0  0  0  0  0
   36.5780   27.4380   42.5330 C   0  0  0  0  0  0  0  0  0  0  0  0
   35.4880   27.4090   42.4360 H   0  0  0  0  0  0  0  0  0  0  0  0
   37.2880   27.7350   43.6710 C   0  0  0  0  0  3  0  0  0  0  0  0
   38.6660   27.7510   43.6790 C   0  0  0  0  0  3  0  0  0  0  0  0
   39.3010   27.4540   42.4920 C   0  0  0  0  0  0  0  0  0  0  0  0
   40.6780   27.4810   42.5440 C   0  0  0  0  0  3  0  0  0  0  0  0
   41.3910   27.1950   41.4010 C   0  0  0  0  0  3  0  0  0  0  0  0
   40.7320   26.8890   40.2280 C   0  0  0  0  0  3  0  0  0  0  0  0
   39.3550   26.8800   40.2450 C   0  0  0  0  0  3  0  0  0  0  0  0
   38.5820   27.1560   41.3540 C   0  0  0  0  0  0  0  0  0  0  0  0
   36.9000   29.6670   40.3640 N   0  0  0  0  0  0  0  0  0  0  0  0
   36.5750   29.3940   41.3170 H   0  0  0  0  0  0  0  0  0  0  0  0
   39.2780   30.5270   40.0310 C   0  0  1  0  0  0  0  0  0  0  0  0
   38.8290   30.9140   41.4230 C   0  0  0  0  0  0  0  0  0  0  0  0
   37.8560   30.7330   40.2600 C   0  0  2  0  0  0  0  0  0  0  0  0
   39.8180   29.5500   40.0560 H   0  0  0  0  0  0  0  0  0  0  0  0
   38.8310   30.1720   42.2230 H   0  0  0  0  0  0  0  0  0  0  0  0
   39.0420   31.9550   41.7750 H   0  0  0  0  0  0  0  0  0  0  0  0
   37.4450   31.6930   39.8440 H   0  0  0  0  0  0  0  0  0  0  0  0
   41.2120   32.0930   37.2690 C   0  0  0  0  0  0  0  0  0  0  0  0
   41.4980   33.3740   37.8240 C   0  0  0  0  0  0  0  0  0  0  0  0
   41.0120   33.6660   39.1260 C   0  0  0  0  0  0  0  0  0  0  0  0
   40.3070   32.7430   39.7880 N   0  0  0  0  0  0  0  0  0  0  0  0
   40.0510   31.5300   39.2290 C   0  0  0  0  0  0  0  0  0  0  0  0
   40.5000   31.2010   37.9720 N   0  0  0  0  0  0  0  0  0  0  0  0
   41.5930   31.8800   36.2630 H   0  0  0  0  0  0  0  0  0  0  0  0
   42.0640   34.1080   37.2880 H   0  0  0  0  0  0  0  0  0  0  0  0
   41.2250   34.6420   39.5580 H   0  0  0  0  0  0  0  0  0  0  0  0
  1 28  1  0  0  0  0
  2 11  1  0  0  0  0
  2  1  2  0  0  0  0
  3  2  1  0  0  0  0
  4  3  2  0  0  0  0
  4  5  1  0  0  0  0
  5 10  1  0  0  0  0
  6  5  2  0  0  0  0
  6  7  1  0  0  0  0
  7  8  2  0  0  0  0
  8  9  1  0  0  0  0
  8 16  1  0  0  0  0
  9 17  1  0  0  0  0
 10  1  1  0  0  0  0
 10  9  2  0  0  0  0
 12  3  1  0  0  0  0
 13  4  1  0  0  0  0
 14  6  1  0  0  0  0
 15  7  1  0  0  0  0
 17 27  2  0  0  0  0
 17 18  1  0  0  0  0
 18 20  2  0  0  0  0
 19 18  1  0  0  0  0
 20 21  1  0  0  0  0
 22 23  1  0  0  0  0
 22 21  2  0  0  0  0
 24 23  2  0  0  0  0
 25 26  2  0  0  0  0
 25 24  1  0  0  0  0
 26 27  1  0  0  0  0
 27 22  1  0  0  0  0
 28 29  1  0  0  0  0
 30 33  1  6  0  0  0
 30 32  1  0  0  0  0
 30 31  1  0  0  0  0
 31 35  1  0  0  0  0
 31 34  1  0  0  0  0
 32 36  1  6  0  0  0
 32 28  1  0  0  0  0
 32 31  1  0  0  0  0
 37 38  2  0  0  0  0
 37 42  1  0  0  0  0
 38 39  1  0  0  0  0
 39 45  1  0  0  0  0
 39 40  2  0  0  0  0
 41 40  1  0  0  0  0
 41 30  1  0  0  0  0
 42 41  2  0  0  0  0
 43 37  1  0  0  0  0
 44 38  1  0  0  0  0
M  END
>  <minimizedAffinity>
-6.43259048

$$$$

 OpenBabel03242511103D

 45 50  0  0  1  0  0  0  0  0999 V2000
   37.7900   29.0210   37.9370 C   0  0  0  0  0  0  0  0  0  0  0  0
   37.9170   28.9540   36.5530 C   0  0  0  0  0  0  0  0  0  0  0  0
   36.8320   28.9100   35.6870 C   0  0  0  0  0  0  0  0  0  0  0  0
   35.5400   28.9330   36.1910 C   0  0  0  0  0  0  0  0  0  0  0  0
   35.3860   28.9990   37.5410 C   0  0  0  0  0  0  0  0  0  0  0  0
   34.1070   29.0240   38.0540 C   0  0  0  0  0  0  0  0  0  0  0  0
   33.8670   29.0950   39.4200 C   0  0  0  0  0  0  0  0  0  0  0  0
   34.9820   29.1400   40.2520 C   0  0  0  0  0  0  0  0  0  0  0  0
   36.2550   29.1130   39.6990 C   0  0  0  0  0  0  0  0  0  0  0  0
   36.4830   29.0410   38.3600 C   0  0  0  0  0  0  0  0  0  0  0  0
   38.8800   28.9330   36.0690 H   0  0  0  0  0  0  0  0  0  0  0  0
   36.9760   28.8570   34.6090 H   0  0  0  0  0  0  0  0  0  0  0  0
   34.7370   28.8950   35.4740 H   0  0  0  0  0  0  0  0  0  0  0  0
   33.2690   28.9870   37.3550 H   0  0  0  0  0  0  0  0  0  0  0  0
   32.8210   29.1090   39.7080 H   0  0  0  0  0  0  0  0  0  0  0  0
   34.6640   29.1940   41.2830 H   0  0  0  0  0  0  0  0  0  0  0  0
   37.1870   29.2030   40.8070 C   0  0  0  0  0  0  0  0  0  0  0  0
   37.8270   30.2700   41.4060 C   0  0  0  0  0  0  0  0  0  0  0  0
   37.5160   31.2110   40.9420 H   0  0  0  0  0  0  0  0  0  0  0  0
   38.7260   30.1250   42.4340 C   0  0  0  0  0  3  0  0  0  0  0  0
   39.0520   28.8850   42.9410 C   0  0  0  0  0  3  0  0  0  0  0  0
   38.4330   27.7950   42.3670 C   0  0  0  0  0  0  0  0  0  0  0  0
   38.7860   26.5750   42.9020 C   0  0  0  0  0  3  0  0  0  0  0  0
   38.2130   25.4330   42.3870 C   0  0  0  0  0  3  0  0  0  0  0  0
   37.3030   25.5170   41.3540 C   0  0  0  0  0  3  0  0  0  0  0  0
   36.9940   26.7680   40.8650 C   0  0  0  0  0  3  0  0  0  0  0  0
   37.5310   27.9480   41.3360 C   0  0  0  0  0  0  0  0  0  0  0  0
   38.9450   29.0540   38.7330 N   0  0  0  0  0  0  0  0  0  0  0  0
   38.9870   28.5170   39.6270 H   0  0  0  0  0  0  0  0  0  0  0  0
   41.4630   29.4210   38.5600 C   0  0  1  0  0  0  0  0  0  0  0  0
   40.9020   30.4570   39.5080 C   0  0  0  0  0  0  0  0  0  0  0  0
   40.0850   29.8470   38.3710 C   0  0  2  0  0  0  0  0  0  0  0  0
   41.8060   28.5220   39.1270 H   0  0  0  0  0  0  0  0  0  0  0  0
   40.6550   30.1810   40.5350 H   0  0  0  0  0  0  0  0  0  0  0  0
   41.2500   31.5150   39.3990 H   0  0  0  0  0  0  0  0  0  0  0  0
   39.9190   30.5350   37.4970 H   0  0  0  0  0  0  0  0  0  0  0  0
   43.3410   29.8720   35.3830 C   0  0  0  0  0  0  0  0  0  0  0  0
   44.4730   30.6100   35.8350 C   0  0  0  0  0  0  0  0  0  0  0  0
   44.5560   30.9380   37.2140 C   0  0  0  0  0  0  0  0  0  0  0  0
   43.5800   30.5520   38.0420 N   0  0  0  0  0  0  0  0  0  0  0  0
   42.5110   29.8490   37.5790 C   0  0  0  0  0  0  0  0  0  0  0  0
   42.3870   29.5080   36.2530 N   0  0  0  0  0  0  0  0  0  0  0  0
   43.2890   29.6250   34.3160 H   0  0  0  0  0  0  0  0  0  0  0  0
   45.2520   30.9160   35.1660 H   0  0  0  0  0  0  0  0  0  0  0  0
   45.4160   31.5020   37.5680 H   0  0  0  0  0  0  0  0  0  0  0  0
  1 10  1  0  0  0  0
  1 28  1  0  0  0  0
  2  1  2  0  0  0  0
  3  4  2  0  0  0  0
  3  2  1  0  0  0  0
  4  5  1  0  0  0  0
  5  6  2  0  0  0  0
  5 10  1  0  0  0  0
  6  7  1  0  0  0  0
  7 15  1  0  0  0  0
  7  8  2  0  0  0  0
  8 16  1  0  0  0  0
  9  8  1  0  0  0  0
  9 17  1  0  0  0  0
 10  9  2  0  0  0  0
 11  2  1  0  0  0  0
 12  3  1  0  0  0  0
 13  4  1  0  0  0  0
 14  6  1  0  0  0  0
 17 27  2  0  0  0  0
 17 18  1  0  0  0  0
 18 20  2  0  0  0  0
 19 18  1  0  0  0  0
 20 21  1  0  0  0  0
 22 23  1  0  0  0  0
 22 21  2  0  0  0  0
 24 23  2  0  0  0  0
 25 24  1  0  0  0  0
 26 27  1  0  0  0  0
 26 25  2  0  0  0  0
 27 22  1  0  0  0  0
 28 29  1  0  0  0  0
 30 33  1  1  0  0  0
 30 31  1  0  0  0  0
 31 34  1  0  0  0  0
 32 36  1  6  0  0  0
 32 30  1  0  0  0  0
 32 28  1  0  0  0  0
 32 31  1  0  0  0  0
 35 31  1  0  0  0  0
 37 38  2  0  0  0  0
 37 42  1  0  0  0  0
 38 39  1  0  0  0  0
 39 45  1  0  0  0  0
 39 40  2  0  0  0  0
 41 40  1  0  0  0  0
 41 30  1  0  0  0  0
 42 41  2  0  0  0  0
 43 37  1  0  0  0  0
 44 38  1  0  0  0  0
M  END
>  <minimizedAffinity>
-6.41199493

$$$$

 OpenBabel03242511103D

 45 50  0  0  1  0  0  0  0  0999 V2000
   40.2150   28.2340   40.9930 C   0  0  0  0  0  0  0  0  0  0  0  0
   41.3350   27.9500   41.7690 C   0  0  0  0  0  0  0  0  0  0  0  0
   41.2620   27.4960   43.0790 C   0  0  0  0  0  0  0  0  0  0  0  0
   40.0270   27.3030   43.6800 C   0  0  0  0  0  0  0  0  0  0  0  0
   38.9140   27.5710   42.9440 C   0  0  0  0  0  0  0  0  0  0  0  0
   37.6810   27.3810   43.5280 C   0  0  0  0  0  0  0  0  0  0  0  0
   36.4990   27.6290   42.8420 C   0  0  0  0  0  0  0  0  0  0  0  0
   36.6180   28.0810   41.5310 C   0  0  0  0  0  0  0  0  0  0  0  0
   37.8770   28.2610   40.9760 C   0  0  0  0  0  0  0  0  0  0  0  0
   39.0300   28.0170   41.6540 C   0  0  0  0  0  0  0  0  0  0  0  0
   42.3370   28.0690   41.3890 H   0  0  0  0  0  0  0  0  0  0  0  0
   42.1640   27.2870   43.6520 H   0  0  0  0  0  0  0  0  0  0  0  0
   40.0300   26.9500   44.6970 H   0  0  0  0  0  0  0  0  0  0  0  0
   37.6460   27.0250   44.5600 H   0  0  0  0  0  0  0  0  0  0  0  0
   35.5880   27.4450   43.4030 H   0  0  0  0  0  0  0  0  0  0  0  0
   35.6340   28.2350   41.1090 H   0  0  0  0  0  0  0  0  0  0  0  0
   37.6650   28.7010   39.6100 C   0  0  0  0  0  0  0  0  0  0  0  0
   37.6050   28.0240   38.4080 C   0  0  0  0  0  0  0  0  0  0  0  0
   37.7100   26.9470   38.5700 H   0  0  0  0  0  0  0  0  0  0  0  0
   37.4390   28.6550   37.1990 C   0  0  0  0  0  3  0  0  0  0  0  0
   37.3230   30.0250   37.1070 C   0  0  0  0  0  3  0  0  0  0  0  0
   37.3790   30.7360   38.2880 C   0  0  0  0  0  0  0  0  0  0  0  0
   37.2600   32.1020   38.1530 C   0  0  0  0  0  3  0  0  0  0  0  0
   37.3050   32.8870   39.2830 C   0  0  0  0  0  3  0  0  0  0  0  0
   37.4690   32.3100   40.5250 C   0  0  0  0  0  3  0  0  0  0  0  0
   37.5830   30.9390   40.5890 C   0  0  0  0  0  3  0  0  0  0  0  0
   37.5450   30.0960   39.4970 C   0  0  0  0  0  0  0  0  0  0  0  0
   40.3870   28.6970   39.6800 N   0  0  0  0  0  0  0  0  0  0  0  0
   39.8680   28.2540   38.8900 H   0  0  0  0  0  0  0  0  0  0  0  0
   40.9550   31.1710   39.4360 C   0  0  1  0  0  0  0  0  0  0  0  0
   41.0670   30.5280   38.0720 C   0  0  0  0  0  0  0  0  0  0  0  0
   41.3010   29.7600   39.3710 C   0  0  2  0  0  0  0  0  0  0  0  0
   39.9320   31.5960   39.5810 H   0  0  0  0  0  0  0  0  0  0  0  0
   40.1660   30.3140   37.4940 H   0  0  0  0  0  0  0  0  0  0  0  0
   41.9560   30.7800   37.4410 H   0  0  0  0  0  0  0  0  0  0  0  0
   42.3790   29.5280   39.5860 H   0  0  0  0  0  0  0  0  0  0  0  0
   42.6490   33.9910   41.1680 C   0  0  0  0  0  0  0  0  0  0  0  0
   43.9090   34.0060   40.5040 C   0  0  0  0  0  0  0  0  0  0  0  0
   44.1450   33.0430   39.4860 C   0  0  0  0  0  0  0  0  0  0  0  0
   43.1890   32.1580   39.1840 N   0  0  0  0  0  0  0  0  0  0  0  0
   41.9960   32.1710   39.8380 C   0  0  0  0  0  0  0  0  0  0  0  0
   41.7220   33.0830   40.8300 N   0  0  0  0  0  0  0  0  0  0  0  0
   42.4800   34.7400   41.9520 H   0  0  0  0  0  0  0  0  0  0  0  0
   44.6700   34.7180   40.7510 H   0  0  0  0  0  0  0  0  0  0  0  0
   45.1040   33.0460   38.9740 H   0  0  0  0  0  0  0  0  0  0  0  0
  1 10  2  0  0  0  0
  1  2  1  0  0  0  0
  2  3  2  0  0  0  0
  3 12  1  0  0  0  0
  3  4  1  0  0  0  0
  4 13  1  0  0  0  0
  5  6  1  0  0  0  0
  5  4  2  0  0  0  0
  6 14  1  0  0  0  0
  7 15  1  0  0  0  0
  7  6  2  0  0  0  0
  8  7  1  0  0  0  0
  9  8  2  0  0  0  0
  9 10  1  0  0  0  0
 10  5  1  0  0  0  0
 11  2  1  0  0  0  0
 16  8  1  0  0  0  0
 17  9  1  0  0  0  0
 18 19  1  0  0  0  0
 18 17  2  0  0  0  0
 20 18  1  0  0  0  0
 21 20  2  0  0  0  0
 21 22  1  0  0  0  0
 22 27  1  0  0  0  0
 23 22  2  0  0  0  0
 23 24  1  0  0  0  0
 24 25  2  0  0  0  0
 25 26  1  0  0  0  0
 27 17  1  0  0  0  0
 27 26  2  0  0  0  0
 28  1  1  0  0  0  0
 29 28  1  0  0  0  0
 30 33  1  1  0  0  0
 30 41  1  0  0  0  0
 31 32  1  0  0  0  0
 31 30  1  0  0  0  0
 32 30  1  0  0  0  0
 32 36  1  1  0  0  0
 32 28  1  0  0  0  0
 34 31  1  0  0  0  0
 35 31  1  0  0  0  0
 37 43  1  0  0  0  0
 38 44  1  0  0  0  0
 38 37  2  0  0  0  0
 39 38  1  0  0  0  0
 40 39  2  0  0  0  0
 40 41  1  0  0  0  0
 41 42  2  0  0  0  0
 42 37  1  0  0  0  0
 45 39  1  0  0  0  0
M  END
>  <minimizedAffinity>
-6.38858414

$$$$

 OpenBabel03242511103D

 45 50  0  0  1  0  0  0  0  0999 V2000
   37.5630   31.1970   39.5540 C   0  0  0  0  0  0  0  0  0  0  0  0
   36.9590   32.4030   39.2120 C   0  0  0  0  0  0  0  0  0  0  0  0
   37.5410   33.6420   39.4420 C   0  0  0  0  0  0  0  0  0  0  0  0
   38.7890   33.7220   40.0420 C   0  0  0  0  0  0  0  0  0  0  0  0
   39.4040   32.5580   40.3870 C   0  0  0  0  0  0  0  0  0  0  0  0
   40.6450   32.6240   40.9820 C   0  0  0  0  0  0  0  0  0  0  0  0
   41.3370   31.4810   41.3600 C   0  0  0  0  0  0  0  0  0  0  0  0
   40.7190   30.2600   41.1080 C   0  0  0  0  0  0  0  0  0  0  0  0
   39.4680   30.2330   40.5070 C   0  0  0  0  0  0  0  0  0  0  0  0
   38.7940   31.3560   40.1410 C   0  0  0  0  0  0  0  0  0  0  0  0
   35.9900   32.4420   38.7410 H   0  0  0  0  0  0  0  0  0  0  0  0
   37.0340   34.5630   39.1590 H   0  0  0  0  0  0  0  0  0  0  0  0
   39.1930   34.7080   40.1970 H   0  0  0  0  0  0  0  0  0  0  0  0
   41.0840   33.6080   41.1550 H   0  0  0  0  0  0  0  0  0  0  0  0
   42.3050   31.6540   41.8190 H   0  0  0  0  0  0  0  0  0  0  0  0
   41.3550   29.4530   41.4450 H   0  0  0  0  0  0  0  0  0  0  0  0
   39.1140   28.8340   40.3560 C   0  0  0  0  0  0  0  0  0  0  0  0
   39.3150   27.9240   39.3370 C   0  0  0  0  0  0  0  0  0  0  0  0
   39.8820   28.3830   38.5210 H   0  0  0  0  0  0  0  0  0  0  0  0
   38.8460   26.6330   39.3800 C   0  0  0  0  0  3  0  0  0  0  0  0
   38.1330   26.1580   40.4590 C   0  0  0  0  0  3  0  0  0  0  0  0
   37.9120   27.0390   41.4970 C   0  0  0  0  0  0  0  0  0  0  0  0
   37.1950   26.5250   42.5560 C   0  0  0  0  0  3  0  0  0  0  0  0
   36.9300   27.3390   43.6350 C   0  0  0  0  0  3  0  0  0  0  0  0
   37.3760   28.6440   43.6480 C   0  0  0  0  0  3  0  0  0  0  0  0
   38.0870   29.0940   42.5570 C   0  0  0  0  0  3  0  0  0  0  0  0
   38.3860   28.3320   41.4470 C   0  0  0  0  0  0  0  0  0  0  0  0
   36.8930   29.9920   39.2890 N   0  0  0  0  0  0  0  0  0  0  0  0
   36.9670   29.1890   39.9500 H   0  0  0  0  0  0  0  0  0  0  0  0
   35.0760   28.8070   37.9480 C   0  0  1  0  0  0  0  0  0  0  0  0
   36.4010   28.5590   37.2630 C   0  0  0  0  0  0  0  0  0  0  0  0
   36.1200   29.8100   38.0930 C   0  0  2  0  0  0  0  0  0  0  0  0
   34.8480   27.9800   38.6620 H   0  0  0  0  0  0  0  0  0  0  0  0
   37.0900   27.8120   37.6610 H   0  0  0  0  0  0  0  0  0  0  0  0
   36.4480   28.6640   36.1500 H   0  0  0  0  0  0  0  0  0  0  0  0
   35.9650   30.7440   37.4880 H   0  0  0  0  0  0  0  0  0  0  0  0
   32.9400   29.4360   34.9700 C   0  0  0  0  0  0  0  0  0  0  0  0
   31.6800   29.6940   35.5840 C   0  0  0  0  0  0  0  0  0  0  0  0
   31.5980   29.6370   37.0010 C   0  0  0  0  0  0  0  0  0  0  0  0
   32.6920   29.3440   37.7120 N   0  0  0  0  0  0  0  0  0  0  0  0
   33.8790   29.1030   37.0950 C   0  0  0  0  0  0  0  0  0  0  0  0
   34.0090   29.1470   35.7270 N   0  0  0  0  0  0  0  0  0  0  0  0
   32.9900   29.4840   33.8760 H   0  0  0  0  0  0  0  0  0  0  0  0
   30.8090   29.9280   35.0080 H   0  0  0  0  0  0  0  0  0  0  0  0
   30.6410   29.8310   37.4780 H   0  0  0  0  0  0  0  0  0  0  0  0
  1 10  1  0  0  0  0
  2  3  1  0  0  0  0
  2  1  2  0  0  0  0
  3  4  2  0  0  0  0
  4 13  1  0  0  0  0
  4  5  1  0  0  0  0
  5  6  1  0  0  0  0
  6 14  1  0  0  0  0
  6  7  2  0  0  0  0
  7 15  1  0  0  0  0
  8  7  1  0  0  0  0
  8 16  1  0  0  0  0
  9  8  2  0  0  0  0
 10  5  2  0  0  0  0
 10  9  1  0  0  0  0
 11  2  1  0  0  0  0
 12  3  1  0  0  0  0
 17  9  1  0  0  0  0
 17 27  1  0  0  0  0
 18 20  1  0  0  0  0
 18 17  2  0  0  0  0
 19 18  1  0  0  0  0
 20 21  2  0  0  0  0
 21 22  1  0  0  0  0
 22 23  1  0  0  0  0
 23 24  2  0  0  0  0
 24 25  1  0  0  0  0
 26 25  2  0  0  0  0
 27 22  2  0  0  0  0
 27 26  1  0  0  0  0
 28  1  1  0  0  0  0
 28 29  1  0  0  0  0
 30 32  1  0  0  0  0
 30 33  1  1  0  0  0
 31 34  1  0  0  0  0
 31 30  1  0  0  0  0
 31 32  1  0  0  0  0
 32 36  1  6  0  0  0
 32 28  1  0  0  0  0
 35 31  1  0  0  0  0
 37 38  2  0  0  0  0
 37 42  1  0  0  0  0
 38 39  1  0  0  0  0
 39 45  1  0  0  0  0
 39 40  2  0  0  0  0
 41 40  1  0  0  0  0
 41 30  1  0  0  0  0
 42 41  2  0  0  0  0
 43 37  1  0  0  0  0
 44 38  1  0  0  0  0
M  END
>  <minimizedAffinity>
-6.38131189

$$$$
