
 OpenBabel03252506593D

 26 28  0  0  0  0  0  0  0  0999 V2000
   48.6520   34.0900   42.8540 C   0  0  0  0  0  0  0  0  0  0  0  0
   49.3290   34.5660   43.5870 H   0  0  0  0  0  0  0  0  0  0  0  0
   48.1590   34.8800   42.2640 H   0  0  0  0  0  0  0  0  0  0  0  0
   49.3920   33.2120   41.9260 C   0  0  0  0  0  0  0  0  0  0  0  0
   50.5080   32.4940   42.2670 C   0  0  0  0  0  0  0  0  0  0  0  0
   50.8880   32.5540   43.2860 H   0  0  0  0  0  0  0  0  0  0  0  0
   51.1780   31.6890   41.3640 C   0  0  0  0  0  3  0  0  0  0  0  0
   50.7700   31.5590   40.0750 C   0  0  0  0  0  3  0  0  0  0  0  0
   49.6410   32.2810   39.7190 C   0  0  0  0  0  0  0  0  0  0  0  0
   49.2070   32.1540   38.3980 C   0  0  0  0  0  3  0  0  0  0  0  0
   48.0920   32.8250   37.9420 C   0  0  0  0  0  3  0  0  0  0  0  0
   47.4010   33.6370   38.8230 C   0  0  0  0  0  3  0  0  0  0  0  0
   47.8730   33.7270   40.1160 C   0  0  0  0  0  3  0  0  0  0  0  0
   48.9780   33.0780   40.6180 C   0  0  0  0  0  0  0  0  0  0  0  0
   47.5940   33.3350   43.6400 C   0  0  0  0  0  0  0  0  0  0  0  0
   47.9560   32.8060   44.5060 H   0  0  0  0  0  0  0  0  0  0  0  0
   47.2450   32.5250   42.9260 H   0  0  0  0  0  0  0  0  0  0  0  0
   46.4750   34.2470   43.9110 C   0  0  0  0  0  0  0  0  0  0  0  0
   46.0600   35.1940   42.9890 C   0  0  0  0  0  0  0  0  0  0  0  0
   44.9720   36.0260   43.3470 C   0  0  0  0  0  0  0  0  0  0  0  0
   44.4160   35.8380   44.5640 N   0  0  0  0  0  0  0  0  0  0  0  0
   44.8540   34.9060   45.4240 C   0  0  0  0  0  0  0  0  0  0  0  0
   45.8740   34.1170   45.1020 N   0  0  0  0  0  0  0  0  0  0  0  0
   46.5380   35.3050   42.0290 H   0  0  0  0  0  0  0  0  0  0  0  0
   44.5970   36.7870   42.6740 H   0  0  0  0  0  0  0  0  0  0  0  0
   44.3870   34.7680   46.4130 H   0  0  0  0  0  0  0  0  0  0  0  0
  1  2  1  0  0  0  0
  1 15  1  0  0  0  0
  3  1  1  0  0  0  0
  4  5  1  0  0  0  0
  4  1  1  0  0  0  0
  5  6  1  0  0  0  0
  7  5  2  0  0  0  0
  8  7  1  0  0  0  0
  9  8  2  0  0  0  0
  9 14  1  0  0  0  0
 10  9  1  0  0  0  0
 11 10  2  0  0  0  0
 11 12  1  0  0  0  0
 12 13  2  0  0  0  0
 13 14  1  0  0  0  0
 14  4  2  0  0  0  0
 15 18  1  0  0  0  0
 15 16  1  0  0  0  0
 17 15  1  0  0  0  0
 18 23  1  0  0  0  0
 19 20  1  0  0  0  0
 19 18  2  0  0  0  0
 20 21  2  0  0  0  0
 21 22  1  0  0  0  0
 22 26  1  0  0  0  0
 23 22  2  0  0  0  0
 24 19  1  0  0  0  0
 25 20  1  0  0  0  0
M  END
>  <minimizedAffinity>
-4.73822498

>  <minimizedRMSD>
2.59485126

$$$$
