
 OpenBabel03242521063D

 36 40  0  0  1  0  0  0  0  0999 V2000
   39.3400   32.3950   40.3510 C   0  0  0  0  0  0  0  0  0  0  0  0
   38.2010   32.9470   39.8060 C   0  0  0  0  0  0  0  0  0  0  0  0
   36.9500   32.3880   39.8510 C   0  0  0  0  0  0  0  0  0  0  0  0
   36.8020   31.1790   40.4880 C   0  0  0  0  0  0  0  0  0  0  0  0
   37.9300   30.6370   41.0270 C   0  0  0  0  0  0  0  0  0  0  0  0
   39.1390   31.2240   40.9570 N   0  0  0  0  0  0  0  0  0  0  0  0
   38.2890   33.9070   39.2920 H   0  0  0  0  0  0  0  0  0  0  0  0
   36.1090   32.8990   39.3910 H   0  0  0  0  0  0  0  0  0  0  0  0
   35.8050   30.7750   40.5010 H   0  0  0  0  0  0  0  0  0  0  0  0
   42.3100   34.5340   39.4440 C   0  0  0  0  0  0  0  0  0  0  0  0
   40.9930   34.0250   39.3800 C   0  0  0  0  0  0  0  0  0  0  0  0
   40.6480   33.0350   40.2730 C   0  0  0  0  0  0  0  0  0  0  0  0
   41.5830   32.6020   41.1630 N   0  0  0  0  0  0  0  0  0  0  0  0
   42.8420   33.1170   41.1950 C   0  0  0  0  0  0  0  0  0  0  0  0
   43.1770   34.0770   40.3290 N   0  0  0  0  0  0  0  0  0  0  0  0
   42.4760   35.3170   38.6890 H   0  0  0  0  0  0  0  0  0  0  0  0
   40.2050   34.3180   38.7060 H   0  0  0  0  0  0  0  0  0  0  0  0
   43.5540   32.7580   41.9050 H   0  0  0  0  0  0  0  0  0  0  0  0
   37.7980   29.3200   41.7270 C   0  0  2  0  0  0  0  0  0  0  0  0
   38.2550   29.3060   43.1430 C   0  0  0  0  0  0  0  0  0  0  0  0
   38.9920   28.5640   42.0350 C   0  0  1  0  0  0  0  0  0  0  0  0
   36.8250   28.7960   41.5880 H   0  0  0  0  0  0  0  0  0  0  0  0
   37.7090   28.7470   43.9110 H   0  0  0  0  0  0  0  0  0  0  0  0
   38.7540   30.2200   43.5430 H   0  0  0  0  0  0  0  0  0  0  0  0
   39.9790   29.0160   41.7390 H   0  0  0  0  0  0  0  0  0  0  0  0
   39.0840   27.1290   42.2930 C   0  0  0  0  0  0  0  0  0  0  0  0
   40.0780   26.8700   43.2490 C   0  0  0  0  0  0  0  0  0  0  0  0
   40.7430   27.6010   43.7360 H   0  0  0  0  0  0  0  0  0  0  0  0
   40.3270   25.5740   43.6990 C   0  0  0  0  0  3  0  0  0  0  0  0
   39.5800   24.5050   43.1930 C   0  0  0  0  0  3  0  0  0  0  0  0
   38.6140   24.7620   42.2620 C   0  0  0  0  0  0  0  0  0  0  0  0
   37.8150   23.7810   41.6760 C   0  0  0  0  0  3  0  0  0  0  0  0
   36.8540   24.1070   40.7200 C   0  0  0  0  0  3  0  0  0  0  0  0
   36.6520   25.4240   40.3070 C   0  0  0  0  0  3  0  0  0  0  0  0
   37.4460   26.3860   40.8920 C   0  0  0  0  0  3  0  0  0  0  0  0
   38.3920   26.0540   41.8370 C   0  0  0  0  0  0  0  0  0  0  0  0
  1  6  1  0  0  0  0
  2  3  1  0  0  0  0
  2  1  2  0  0  0  0
  3  4  2  0  0  0  0
  4  9  1  0  0  0  0
  4  5  1  0  0  0  0
  5 19  1  0  0  0  0
  6  5  2  0  0  0  0
  7  2  1  0  0  0  0
  8  3  1  0  0  0  0
 10 15  1  0  0  0  0
 11 10  2  0  0  0  0
 11 12  1  0  0  0  0
 12  1  1  0  0  0  0
 12 13  2  0  0  0  0
 13 14  1  0  0  0  0
 14 18  1  0  0  0  0
 15 14  2  0  0  0  0
 16 10  1  0  0  0  0
 17 11  1  0  0  0  0
 19 22  1  6  0  0  0
 19 21  1  0  0  0  0
 19 20  1  0  0  0  0
 20 24  1  0  0  0  0
 20 23  1  0  0  0  0
 21 25  1  6  0  0  0
 21 26  1  0  0  0  0
 21 20  1  0  0  0  0
 26 27  1  0  0  0  0
 27 29  2  0  0  0  0
 27 28  1  0  0  0  0
 30 29  1  0  0  0  0
 31 30  2  0  0  0  0
 32 31  1  0  0  0  0
 33 32  2  0  0  0  0
 34 33  1  0  0  0  0
 34 35  2  0  0  0  0
 35 36  1  0  0  0  0
 36 31  1  0  0  0  0
 36 26  2  0  0  0  0
M  END
>  <minimizedAffinity>
-6.67850399

$$$$

 OpenBabel03242521063D

 36 40  0  0  1  0  0  0  0  0999 V2000
   42.3970   32.5270   37.8810 C   0  0  0  0  0  0  0  0  0  0  0  0
   42.7630   33.7510   38.3980 C   0  0  0  0  0  0  0  0  0  0  0  0
   41.9810   34.5350   39.2080 C   0  0  0  0  0  0  0  0  0  0  0  0
   40.7280   34.0760   39.5410 C   0  0  0  0  0  0  0  0  0  0  0  0
   40.3710   32.8650   39.0290 C   0  0  0  0  0  0  0  0  0  0  0  0
   41.1740   32.1320   38.2360 N   0  0  0  0  0  0  0  0  0  0  0  0
   43.7520   34.1410   38.1490 H   0  0  0  0  0  0  0  0  0  0  0  0
   42.3550   35.4880   39.5680 H   0  0  0  0  0  0  0  0  0  0  0  0
   40.1470   34.7200   40.1770 H   0  0  0  0  0  0  0  0  0  0  0  0
   45.3240   31.0540   36.0150 C   0  0  0  0  0  0  0  0  0  0  0  0
   44.6300   31.9140   36.8960 C   0  0  0  0  0  0  0  0  0  0  0  0
   43.2700   31.7360   37.0230 C   0  0  0  0  0  0  0  0  0  0  0  0
   42.6710   30.7480   36.3010 N   0  0  0  0  0  0  0  0  0  0  0  0
   43.3730   29.9380   35.4630 C   0  0  0  0  0  0  0  0  0  0  0  0
   44.6910   30.1120   35.3400 N   0  0  0  0  0  0  0  0  0  0  0  0
   46.4000   31.2850   35.9910 H   0  0  0  0  0  0  0  0  0  0  0  0
   45.0370   32.7130   37.4940 H   0  0  0  0  0  0  0  0  0  0  0  0
   42.8750   29.1720   34.9110 H   0  0  0  0  0  0  0  0  0  0  0  0
   39.0120   32.3420   39.3750 C   0  0  2  0  0  0  0  0  0  0  0  0
   38.5120   32.7190   40.7250 C   0  0  0  0  0  0  0  0  0  0  0  0
   38.8930   31.2900   40.3620 C   0  0  1  0  0  0  0  0  0  0  0  0
   38.2350   32.4570   38.5850 H   0  0  0  0  0  0  0  0  0  0  0  0
   37.4620   32.9850   40.8880 H   0  0  0  0  0  0  0  0  0  0  0  0
   39.2080   33.2570   41.4120 H   0  0  0  0  0  0  0  0  0  0  0  0
   39.8440   30.9180   40.8360 H   0  0  0  0  0  0  0  0  0  0  0  0
   37.7800   30.3590   40.5270 C   0  0  0  0  0  0  0  0  0  0  0  0
   36.8920   30.4670   39.4460 C   0  0  0  0  0  0  0  0  0  0  0  0
   36.9590   31.1600   38.5930 H   0  0  0  0  0  0  0  0  0  0  0  0
   35.7680   29.6460   39.3500 C   0  0  0  0  0  3  0  0  0  0  0  0
   35.5110   28.6970   40.3450 C   0  0  0  0  0  3  0  0  0  0  0  0
   36.3780   28.5960   41.3960 C   0  0  0  0  0  0  0  0  0  0  0  0
   36.2230   27.7000   42.4520 C   0  0  0  0  0  3  0  0  0  0  0  0
   37.1370   27.6550   43.5030 C   0  0  0  0  0  3  0  0  0  0  0  0
   38.2430   28.5040   43.5460 C   0  0  0  0  0  3  0  0  0  0  0  0
   38.3880   29.3870   42.4970 C   0  0  0  0  0  3  0  0  0  0  0  0
   37.4790   29.4210   41.4620 C   0  0  0  0  0  0  0  0  0  0  0  0
  1  6  2  0  0  0  0
  1  2  1  0  0  0  0
  2  3  2  0  0  0  0
  3  4  1  0  0  0  0
  3  8  1  0  0  0  0
  4  9  1  0  0  0  0
  5 19  1  0  0  0  0
  5  4  2  0  0  0  0
  6  5  1  0  0  0  0
  7  2  1  0  0  0  0
 10 11  1  0  0  0  0
 11 12  2  0  0  0  0
 11 17  1  0  0  0  0
 12  1  1  0  0  0  0
 13 12  1  0  0  0  0
 14 13  2  0  0  0  0
 15 14  1  0  0  0  0
 15 10  2  0  0  0  0
 16 10  1  0  0  0  0
 18 14  1  0  0  0  0
 19 22  1  6  0  0  0
 19 21  1  0  0  0  0
 19 20  1  0  0  0  0
 20 23  1  0  0  0  0
 20 24  1  0  0  0  0
 21 26  1  0  0  0  0
 21 20  1  0  0  0  0
 21 25  1  1  0  0  0
 26 36  1  0  0  0  0
 27 26  2  0  0  0  0
 28 27  1  0  0  0  0
 29 27  1  0  0  0  0
 29 30  2  0  0  0  0
 30 31  1  0  0  0  0
 31 36  2  0  0  0  0
 31 32  1  0  0  0  0
 32 33  2  0  0  0  0
 33 34  1  0  0  0  0
 35 34  2  0  0  0  0
 36 35  1  0  0  0  0
M  END
>  <minimizedAffinity>
-6.47066784

$$$$

 OpenBabel03242521063D

 36 40  0  0  1  0  0  0  0  0999 V2000
   38.0140   31.5680   38.4030 C   0  0  0  0  0  0  0  0  0  0  0  0
   37.6250   31.6750   37.0850 C   0  0  0  0  0  0  0  0  0  0  0  0
   36.9680   30.7050   36.3710 C   0  0  0  0  0  0  0  0  0  0  0  0
   36.6650   29.5250   37.0080 C   0  0  0  0  0  0  0  0  0  0  0  0
   37.0500   29.4240   38.3110 C   0  0  0  0  0  0  0  0  0  0  0  0
   37.6950   30.4030   38.9690 N   0  0  0  0  0  0  0  0  0  0  0  0
   37.8540   32.6020   36.5540 H   0  0  0  0  0  0  0  0  0  0  0  0
   36.7010   30.8800   35.3330 H   0  0  0  0  0  0  0  0  0  0  0  0
   36.1490   28.7910   36.4130 H   0  0  0  0  0  0  0  0  0  0  0  0
   38.9450   34.5340   40.5370 C   0  0  0  0  0  0  0  0  0  0  0  0
   38.1130   33.5690   39.9250 C   0  0  0  0  0  0  0  0  0  0  0  0
   38.7120   32.6320   39.1120 C   0  0  0  0  0  0  0  0  0  0  0  0
   40.0630   32.6820   38.9440 N   0  0  0  0  0  0  0  0  0  0  0  0
   40.8320   33.6270   39.5510 C   0  0  0  0  0  0  0  0  0  0  0  0
   40.2500   34.5350   40.3380 N   0  0  0  0  0  0  0  0  0  0  0  0
   38.3630   35.2300   41.1600 H   0  0  0  0  0  0  0  0  0  0  0  0
   37.0430   33.4710   40.0120 H   0  0  0  0  0  0  0  0  0  0  0  0
   41.8890   33.6400   39.4000 H   0  0  0  0  0  0  0  0  0  0  0  0
   36.7320   28.1480   39.0280 C   0  0  2  0  0  0  0  0  0  0  0  0
   36.0140   28.3100   40.3210 C   0  0  0  0  0  0  0  0  0  0  0  0
   37.4550   27.8230   40.2390 C   0  0  1  0  0  0  0  0  0  0  0  0
   36.3010   27.3360   38.3990 H   0  0  0  0  0  0  0  0  0  0  0  0
   35.2160   27.6200   40.6170 H   0  0  0  0  0  0  0  0  0  0  0  0
   35.8620   29.3430   40.7130 H   0  0  0  0  0  0  0  0  0  0  0  0
   38.2250   28.5630   40.5930 H   0  0  0  0  0  0  0  0  0  0  0  0
   37.6290   26.5000   40.8320 C   0  0  0  0  0  0  0  0  0  0  0  0
   36.7830   25.5720   40.2070 C   0  0  0  0  0  0  0  0  0  0  0  0
   36.0500   25.7680   39.4090 H   0  0  0  0  0  0  0  0  0  0  0  0
   36.7970   24.2240   40.5670 C   0  0  0  0  0  3  0  0  0  0  0  0
   37.6660   23.7800   41.5690 C   0  0  0  0  0  3  0  0  0  0  0  0
   38.4870   24.6870   42.1750 C   0  0  0  0  0  0  0  0  0  0  0  0
   39.3850   24.3680   43.1930 C   0  0  0  0  0  3  0  0  0  0  0  0
   40.1880   25.3450   43.7810 C   0  0  0  0  0  3  0  0  0  0  0  0
   40.1280   26.6790   43.3800 C   0  0  0  0  0  3  0  0  0  0  0  0
   39.2370   26.9840   42.3730 C   0  0  0  0  0  3  0  0  0  0  0  0
   38.4500   26.0120   41.7970 C   0  0  0  0  0  0  0  0  0  0  0  0
  1  6  1  0  0  0  0
  1 12  1  0  0  0  0
  2  1  2  0  0  0  0
  3  4  2  0  0  0  0
  3  2  1  0  0  0  0
  4  5  1  0  0  0  0
  5  6  2  0  0  0  0
  5 19  1  0  0  0  0
  7  2  1  0  0  0  0
  8  3  1  0  0  0  0
  9  4  1  0  0  0  0
 10 16  1  0  0  0  0
 11 17  1  0  0  0  0
 11 10  2  0  0  0  0
 12 11  1  0  0  0  0
 13 12  2  0  0  0  0
 13 14  1  0  0  0  0
 14 15  2  0  0  0  0
 15 10  1  0  0  0  0
 18 14  1  0  0  0  0
 19 22  1  6  0  0  0
 19 21  1  0  0  0  0
 19 20  1  0  0  0  0
 20 23  1  0  0  0  0
 20 24  1  0  0  0  0
 21 20  1  0  0  0  0
 21 25  1  1  0  0  0
 21 26  1  0  0  0  0
 26 36  1  0  0  0  0
 27 29  1  0  0  0  0
 27 26  2  0  0  0  0
 28 27  1  0  0  0  0
 29 30  2  0  0  0  0
 30 31  1  0  0  0  0
 31 32  1  0  0  0  0
 32 33  2  0  0  0  0
 34 33  1  0  0  0  0
 35 34  2  0  0  0  0
 36 31  2  0  0  0  0
 36 35  1  0  0  0  0
M  END
>  <minimizedAffinity>
-6.35081577

$$$$

 OpenBabel03242521063D

 36 40  0  0  1  0  0  0  0  0999 V2000
   39.8580   32.8050   40.5890 C   0  0  0  0  0  0  0  0  0  0  0  0
   39.0110   33.7450   40.0430 C   0  0  0  0  0  0  0  0  0  0  0  0
   37.6780   33.5530   39.7800 C   0  0  0  0  0  0  0  0  0  0  0  0
   37.1280   32.3290   40.0790 C   0  0  0  0  0  0  0  0  0  0  0  0
   37.9690   31.4040   40.6210 C   0  0  0  0  0  0  0  0  0  0  0  0
   39.2710   31.6390   40.8600 N   0  0  0  0  0  0  0  0  0  0  0  0
   39.4210   34.7260   39.7940 H   0  0  0  0  0  0  0  0  0  0  0  0
   37.0880   34.3540   39.3460 H   0  0  0  0  0  0  0  0  0  0  0  0
   36.0810   32.2190   39.8580 H   0  0  0  0  0  0  0  0  0  0  0  0
   43.3640   34.1930   40.6500 C   0  0  0  0  0  0  0  0  0  0  0  0
   42.0020   34.0880   40.2880 C   0  0  0  0  0  0  0  0  0  0  0  0
   41.2690   33.0650   40.8470 C   0  0  0  0  0  0  0  0  0  0  0  0
   41.8880   32.2160   41.7140 N   0  0  0  0  0  0  0  0  0  0  0  0
   43.2020   32.3480   42.0400 C   0  0  0  0  0  0  0  0  0  0  0  0
   43.9130   33.3400   41.4970 N   0  0  0  0  0  0  0  0  0  0  0  0
   43.8510   35.0410   40.1460 H   0  0  0  0  0  0  0  0  0  0  0  0
   41.4490   34.7200   39.6120 H   0  0  0  0  0  0  0  0  0  0  0  0
   43.6600   31.6680   42.7230 H   0  0  0  0  0  0  0  0  0  0  0  0
   37.3950   30.0620   40.9570 C   0  0  2  0  0  0  0  0  0  0  0  0
   37.5720   29.6330   42.3710 C   0  0  0  0  0  0  0  0  0  0  0  0
   38.2930   28.9570   41.2120 C   0  0  1  0  0  0  0  0  0  0  0  0
   36.3650   29.8690   40.5790 H   0  0  0  0  0  0  0  0  0  0  0  0
   36.7770   29.1050   42.9080 H   0  0  0  0  0  0  0  0  0  0  0  0
   38.1990   30.2700   43.0390 H   0  0  0  0  0  0  0  0  0  0  0  0
   39.3980   29.1660   41.1550 H   0  0  0  0  0  0  0  0  0  0  0  0
   37.9850   27.5320   41.1210 C   0  0  0  0  0  0  0  0  0  0  0  0
   37.0080   27.3080   40.1380 C   0  0  0  0  0  0  0  0  0  0  0  0
   36.4920   28.0640   39.5250 H   0  0  0  0  0  0  0  0  0  0  0  0
   36.5760   26.0180   39.8300 C   0  0  0  0  0  3  0  0  0  0  0  0
   37.1180   24.9210   40.5070 C   0  0  0  0  0  3  0  0  0  0  0  0
   38.0680   25.1440   41.4640 C   0  0  0  0  0  0  0  0  0  0  0  0
   38.6710   24.1350   42.2130 C   0  0  0  0  0  3  0  0  0  0  0  0
   39.6260   24.4300   43.1860 C   0  0  0  0  0  3  0  0  0  0  0  0
   40.0170   25.7420   43.4520 C   0  0  0  0  0  3  0  0  0  0  0  0
   39.4150   26.7320   42.7050 C   0  0  0  0  0  3  0  0  0  0  0  0
   38.4740   26.4300   41.7450 C   0  0  0  0  0  0  0  0  0  0  0  0
  1 12  1  0  0  0  0
  1  6  1  0  0  0  0
  2  1  2  0  0  0  0
  3  2  1  0  0  0  0
  3  4  2  0  0  0  0
  4  5  1  0  0  0  0
  5  6  2  0  0  0  0
  5 19  1  0  0  0  0
  7  2  1  0  0  0  0
  8  3  1  0  0  0  0
  9  4  1  0  0  0  0
 10 15  1  0  0  0  0
 11 10  2  0  0  0  0
 11 12  1  0  0  0  0
 12 13  2  0  0  0  0
 13 14  1  0  0  0  0
 14 18  1  0  0  0  0
 15 14  2  0  0  0  0
 16 10  1  0  0  0  0
 17 11  1  0  0  0  0
 19 22  1  6  0  0  0
 19 21  1  0  0  0  0
 19 20  1  0  0  0  0
 20 23  1  0  0  0  0
 20 24  1  0  0  0  0
 21 25  1  6  0  0  0
 21 20  1  0  0  0  0
 26 21  1  0  0  0  0
 26 36  1  0  0  0  0
 27 26  2  0  0  0  0
 28 27  1  0  0  0  0
 29 27  1  0  0  0  0
 29 30  2  0  0  0  0
 30 31  1  0  0  0  0
 31 36  2  0  0  0  0
 31 32  1  0  0  0  0
 32 33  2  0  0  0  0
 33 34  1  0  0  0  0
 35 34  2  0  0  0  0
 36 35  1  0  0  0  0
M  END
>  <minimizedAffinity>
-6.27983093

$$$$

 OpenBabel03242521063D

 36 40  0  0  1  0  0  0  0  0999 V2000
   38.6850   25.2210   42.1410 C   0  0  0  0  0  0  0  0  0  0  0  0
   39.6170   24.7820   43.0560 C   0  0  0  0  0  0  0  0  0  0  0  0
   40.3730   25.5900   43.8670 C   0  0  0  0  0  0  0  0  0  0  0  0
   40.1980   26.9510   43.7720 C   0  0  0  0  0  0  0  0  0  0  0  0
   39.2740   27.3800   42.8670 C   0  0  0  0  0  0  0  0  0  0  0  0
   38.5570   26.5480   42.0910 N   0  0  0  0  0  0  0  0  0  0  0  0
   39.7780   23.7060   43.1520 H   0  0  0  0  0  0  0  0  0  0  0  0
   41.0850   25.1520   44.5600 H   0  0  0  0  0  0  0  0  0  0  0  0
   40.8100   27.5480   44.4250 H   0  0  0  0  0  0  0  0  0  0  0  0
   36.0080   23.5420   40.0840 C   0  0  0  0  0  0  0  0  0  0  0  0
   36.6100   24.5280   40.8970 C   0  0  0  0  0  0  0  0  0  0  0  0
   37.9090   24.3160   41.3030 C   0  0  0  0  0  0  0  0  0  0  0  0
   38.5410   23.1780   40.9010 N   0  0  0  0  0  0  0  0  0  0  0  0
   37.9290   22.2500   40.1160 C   0  0  0  0  0  0  0  0  0  0  0  0
   36.6690   22.4560   39.7230 N   0  0  0  0  0  0  0  0  0  0  0  0
   34.9740   23.8130   39.8210 H   0  0  0  0  0  0  0  0  0  0  0  0
   36.1720   25.4470   41.2520 H   0  0  0  0  0  0  0  0  0  0  0  0
   38.4500   21.3680   39.8160 H   0  0  0  0  0  0  0  0  0  0  0  0
   39.0640   28.8570   42.7420 C   0  0  2  0  0  0  0  0  0  0  0  0
   37.6630   29.3170   42.9410 C   0  0  0  0  0  0  0  0  0  0  0  0
   38.3610   29.3730   41.5880 C   0  0  1  0  0  0  0  0  0  0  0  0
   39.8020   29.4960   43.2790 H   0  0  0  0  0  0  0  0  0  0  0  0
   37.4400   30.2420   43.4840 H   0  0  0  0  0  0  0  0  0  0  0  0
   36.8670   28.5440   43.0550 H   0  0  0  0  0  0  0  0  0  0  0  0
   37.9910   28.6250   40.8330 H   0  0  0  0  0  0  0  0  0  0  0  0
   38.4250   30.7300   41.0520 C   0  0  0  0  0  0  0  0  0  0  0  0
   37.1600   31.1340   40.5990 C   0  0  0  0  0  0  0  0  0  0  0  0
   36.2320   30.5400   40.5930 H   0  0  0  0  0  0  0  0  0  0  0  0
   36.9520   32.4120   40.0820 C   0  0  0  0  0  3  0  0  0  0  0  0
   38.0170   33.3160   40.0070 C   0  0  0  0  0  3  0  0  0  0  0  0
   39.2470   32.9180   40.4480 C   0  0  0  0  0  0  0  0  0  0  0  0
   40.3850   33.7220   40.4130 C   0  0  0  0  0  3  0  0  0  0  0  0
   41.6170   33.2520   40.8670 C   0  0  0  0  0  3  0  0  0  0  0  0
   41.7650   31.9600   41.3720 C   0  0  0  0  0  3  0  0  0  0  0  0
   40.6330   31.1730   41.4030 C   0  0  0  0  0  3  0  0  0  0  0  0
   39.4210   31.6480   40.9530 C   0  0  0  0  0  0  0  0  0  0  0  0
  1  2  1  0  0  0  0
  2  7  1  0  0  0  0
  2  3  2  0  0  0  0
  3  8  1  0  0  0  0
  4  3  1  0  0  0  0
  4  9  1  0  0  0  0
  5  4  2  0  0  0  0
  6  1  2  0  0  0  0
  6  5  1  0  0  0  0
 10 11  1  0  0  0  0
 11 17  1  0  0  0  0
 11 12  2  0  0  0  0
 12  1  1  0  0  0  0
 13 12  1  0  0  0  0
 14 13  2  0  0  0  0
 15 10  2  0  0  0  0
 15 14  1  0  0  0  0
 16 10  1  0  0  0  0
 18 14  1  0  0  0  0
 19  5  1  0  0  0  0
 19 20  1  0  0  0  0
 19 22  1  1  0  0  0
 20 24  1  0  0  0  0
 20 23  1  0  0  0  0
 21 25  1  6  0  0  0
 21 19  1  0  0  0  0
 21 20  1  0  0  0  0
 26 21  1  0  0  0  0
 27 26  2  0  0  0  0
 28 27  1  0  0  0  0
 29 27  1  0  0  0  0
 30 29  2  0  0  0  0
 30 31  1  0  0  0  0
 31 36  1  0  0  0  0
 32 31  2  0  0  0  0
 32 33  1  0  0  0  0
 33 34  2  0  0  0  0
 34 35  1  0  0  0  0
 36 26  1  0  0  0  0
 36 35  2  0  0  0  0
M  END
>  <minimizedAffinity>
-6.26678324

$$$$

 OpenBabel03242521063D

 36 40  0  0  1  0  0  0  0  0999 V2000
   32.1890   29.2450   36.2330 C   0  0  0  0  0  0  0  0  0  0  0  0
   31.8240   27.9740   35.8440 C   0  0  0  0  0  0  0  0  0  0  0  0
   32.5610   26.8370   36.0620 C   0  0  0  0  0  0  0  0  0  0  0  0
   33.7630   26.9580   36.7190 C   0  0  0  0  0  0  0  0  0  0  0  0
   34.1180   28.2170   37.1020 C   0  0  0  0  0  0  0  0  0  0  0  0
   33.3610   29.3040   36.8660 N   0  0  0  0  0  0  0  0  0  0  0  0
   30.8750   27.8480   35.3190 H   0  0  0  0  0  0  0  0  0  0  0  0
   32.1910   25.8760   35.7180 H   0  0  0  0  0  0  0  0  0  0  0  0
   34.3090   26.0440   36.8690 H   0  0  0  0  0  0  0  0  0  0  0  0
   30.4070   32.1870   34.6870 C   0  0  0  0  0  0  0  0  0  0  0  0
   31.2530   31.0580   34.7590 C   0  0  0  0  0  0  0  0  0  0  0  0
   31.3650   30.4200   35.9750 C   0  0  0  0  0  0  0  0  0  0  0  0
   30.6610   30.9050   37.0340 N   0  0  0  0  0  0  0  0  0  0  0  0
   29.8540   31.9960   36.9270 C   0  0  0  0  0  0  0  0  0  0  0  0
   29.7460   32.6140   35.7480 N   0  0  0  0  0  0  0  0  0  0  0  0
   30.3930   32.6160   33.6740 H   0  0  0  0  0  0  0  0  0  0  0  0
   31.8380   30.6210   33.9660 H   0  0  0  0  0  0  0  0  0  0  0  0
   29.3140   32.3530   37.7750 H   0  0  0  0  0  0  0  0  0  0  0  0
   35.4220   28.3770   37.8200 C   0  0  2  0  0  0  0  0  0  0  0  0
   35.8440   27.2080   38.6370 C   0  0  0  0  0  0  0  0  0  0  0  0
   35.4200   28.5330   39.2580 C   0  0  1  0  0  0  0  0  0  0  0  0
   36.2570   28.7980   37.2140 H   0  0  0  0  0  0  0  0  0  0  0  0
   36.8920   26.8920   38.6790 H   0  0  0  0  0  0  0  0  0  0  0  0
   35.1300   26.3580   38.7480 H   0  0  0  0  0  0  0  0  0  0  0  0
   34.4210   28.5140   39.7770 H   0  0  0  0  0  0  0  0  0  0  0  0
   36.4710   29.1230   40.0830 C   0  0  0  0  0  0  0  0  0  0  0  0
   37.0850   30.1840   39.4010 C   0  0  0  0  0  0  0  0  0  0  0  0
   36.8690   30.5360   38.3800 H   0  0  0  0  0  0  0  0  0  0  0  0
   38.0930   30.9400   39.9990 C   0  0  0  0  0  3  0  0  0  0  0  0
   38.5080   30.6430   41.3010 C   0  0  0  0  0  3  0  0  0  0  0  0
   37.9080   29.6070   41.9600 C   0  0  0  0  0  0  0  0  0  0  0  0
   38.2440   29.2080   43.2530 C   0  0  0  0  0  3  0  0  0  0  0  0
   37.6020   28.1330   43.8670 C   0  0  0  0  0  3  0  0  0  0  0  0
   36.6010   27.4120   43.2170 C   0  0  0  0  0  3  0  0  0  0  0  0
   36.2760   27.8150   41.9390 C   0  0  0  0  0  3  0  0  0  0  0  0
   36.9150   28.8790   41.3420 C   0  0  0  0  0  0  0  0  0  0  0  0
  1  6  1  0  0  0  0
  2  3  1  0  0  0  0
  2  1  2  0  0  0  0
  3  4  2  0  0  0  0
  4  9  1  0  0  0  0
  4  5  1  0  0  0  0
  5 19  1  0  0  0  0
  6  5  2  0  0  0  0
  7  2  1  0  0  0  0
  8  3  1  0  0  0  0
 10 11  2  0  0  0  0
 10 15  1  0  0  0  0
 11 12  1  0  0  0  0
 12  1  1  0  0  0  0
 12 13  2  0  0  0  0
 14 13  1  0  0  0  0
 14 18  1  0  0  0  0
 15 14  2  0  0  0  0
 16 10  1  0  0  0  0
 17 11  1  0  0  0  0
 19 22  1  6  0  0  0
 19 20  1  0  0  0  0
 19 21  1  0  0  0  0
 20 23  1  0  0  0  0
 20 24  1  0  0  0  0
 20 21  1  0  0  0  0
 21 25  1  1  0  0  0
 21 26  1  0  0  0  0
 26 36  1  0  0  0  0
 27 29  1  0  0  0  0
 27 26  2  0  0  0  0
 28 27  1  0  0  0  0
 29 30  2  0  0  0  0
 30 31  1  0  0  0  0
 31 32  1  0  0  0  0
 32 33  2  0  0  0  0
 34 33  1  0  0  0  0
 35 34  2  0  0  0  0
 36 35  1  0  0  0  0
 36 31  2  0  0  0  0
M  END
>  <minimizedAffinity>
-6.26533461

$$$$

 OpenBabel03242521063D

 36 40  0  0  1  0  0  0  0  0999 V2000
   32.6500   29.3060   36.7200 C   0  0  0  0  0  0  0  0  0  0  0  0
   33.1770   29.2570   35.4470 C   0  0  0  0  0  0  0  0  0  0  0  0
   34.4830   28.9710   35.1410 C   0  0  0  0  0  0  0  0  0  0  0  0
   35.3500   28.7100   36.1760 C   0  0  0  0  0  0  0  0  0  0  0  0
   34.8240   28.7590   37.4320 C   0  0  0  0  0  0  0  0  0  0  0  0
   33.5340   29.0450   37.6840 N   0  0  0  0  0  0  0  0  0  0  0  0
   32.5120   29.4610   34.6060 H   0  0  0  0  0  0  0  0  0  0  0  0
   34.8080   28.9550   34.1050 H   0  0  0  0  0  0  0  0  0  0  0  0
   36.3650   28.4910   35.8940 H   0  0  0  0  0  0  0  0  0  0  0  0
   28.9290   29.8740   36.4980 C   0  0  0  0  0  0  0  0  0  0  0  0
   30.2310   29.5330   36.0660 C   0  0  0  0  0  0  0  0  0  0  0  0
   31.2510   29.6170   36.9870 C   0  0  0  0  0  0  0  0  0  0  0  0
   30.9560   30.0180   38.2550 N   0  0  0  0  0  0  0  0  0  0  0  0
   29.6890   30.3370   38.6350 C   0  0  0  0  0  0  0  0  0  0  0  0
   28.7000   30.2560   37.7410 N   0  0  0  0  0  0  0  0  0  0  0  0
   28.1950   29.7720   35.6840 H   0  0  0  0  0  0  0  0  0  0  0  0
   30.5360   29.2110   35.0840 H   0  0  0  0  0  0  0  0  0  0  0  0
   29.4880   30.6470   39.6360 H   0  0  0  0  0  0  0  0  0  0  0  0
   35.7460   28.4780   38.5780 C   0  0  2  0  0  0  0  0  0  0  0  0
   37.1140   28.0340   38.1980 C   0  0  0  0  0  0  0  0  0  0  0  0
   36.1090   27.1090   38.8710 C   0  0  1  0  0  0  0  0  0  0  0  0
   35.7570   29.2450   39.3870 H   0  0  0  0  0  0  0  0  0  0  0  0
   37.9970   28.3800   38.7450 H   0  0  0  0  0  0  0  0  0  0  0  0
   37.3220   27.8370   37.1190 H   0  0  0  0  0  0  0  0  0  0  0  0
   35.6820   26.3090   38.2050 H   0  0  0  0  0  0  0  0  0  0  0  0
   36.6030   26.5800   40.1400 C   0  0  0  0  0  0  0  0  0  0  0  0
   36.6750   25.1800   40.0880 C   0  0  0  0  0  0  0  0  0  0  0  0
   36.3790   24.5270   39.2520 H   0  0  0  0  0  0  0  0  0  0  0  0
   37.1620   24.4410   41.1660 C   0  0  0  0  0  3  0  0  0  0  0  0
   37.5880   25.0970   42.3250 C   0  0  0  0  0  3  0  0  0  0  0  0
   37.5150   26.4610   42.3720 C   0  0  0  0  0  0  0  0  0  0  0  0
   37.8970   27.2250   43.4730 C   0  0  0  0  0  3  0  0  0  0  0  0
   37.7860   28.6150   43.4630 C   0  0  0  0  0  3  0  0  0  0  0  0
   37.2880   29.2990   42.3550 C   0  0  0  0  0  3  0  0  0  0  0  0
   36.9140   28.5350   41.2700 C   0  0  0  0  0  3  0  0  0  0  0  0
   37.0290   27.1620   41.2900 C   0  0  0  0  0  0  0  0  0  0  0  0
  1 12  1  0  0  0  0
  1  6  1  0  0  0  0
  2  1  2  0  0  0  0
  3  2  1  0  0  0  0
  3  4  2  0  0  0  0
  4  5  1  0  0  0  0
  5  6  2  0  0  0  0
  5 19  1  0  0  0  0
  7  2  1  0  0  0  0
  8  3  1  0  0  0  0
  9  4  1  0  0  0  0
 10 15  1  0  0  0  0
 11 10  2  0  0  0  0
 11 12  1  0  0  0  0
 12 13  2  0  0  0  0
 13 14  1  0  0  0  0
 14 18  1  0  0  0  0
 15 14  2  0  0  0  0
 16 10  1  0  0  0  0
 17 11  1  0  0  0  0
 19 21  1  0  0  0  0
 19 22  1  1  0  0  0
 20 19  1  0  0  0  0
 20 23  1  0  0  0  0
 20 21  1  0  0  0  0
 21 25  1  6  0  0  0
 21 26  1  0  0  0  0
 24 20  1  0  0  0  0
 26 36  1  0  0  0  0
 27 26  2  0  0  0  0
 27 29  1  0  0  0  0
 28 27  1  0  0  0  0
 29 30  2  0  0  0  0
 30 31  1  0  0  0  0
 31 32  1  0  0  0  0
 33 32  2  0  0  0  0
 34 33  1  0  0  0  0
 35 36  1  0  0  0  0
 35 34  2  0  0  0  0
 36 31  2  0  0  0  0
M  END
>  <minimizedAffinity>
-6.25817156

$$$$

 OpenBabel03242521063D

 36 40  0  0  1  0  0  0  0  0999 V2000
   41.5440   33.4730   40.2130 C   0  0  0  0  0  0  0  0  0  0  0  0
   40.4930   34.2770   39.8280 C   0  0  0  0  0  0  0  0  0  0  0  0
   39.1720   34.0440   40.1150 C   0  0  0  0  0  0  0  0  0  0  0  0
   38.8530   32.9230   40.8440 C   0  0  0  0  0  0  0  0  0  0  0  0
   39.8960   32.1320   41.2230 C   0  0  0  0  0  0  0  0  0  0  0  0
   41.1780   32.4010   40.9160 N   0  0  0  0  0  0  0  0  0  0  0  0
   40.7160   35.1740   39.2470 H   0  0  0  0  0  0  0  0  0  0  0  0
   38.4100   34.7360   39.7680 H   0  0  0  0  0  0  0  0  0  0  0  0
   37.8070   32.7770   41.0460 H   0  0  0  0  0  0  0  0  0  0  0  0
   44.8400   34.0380   38.4690 C   0  0  0  0  0  0  0  0  0  0  0  0
   43.4700   33.7200   38.6120 C   0  0  0  0  0  0  0  0  0  0  0  0
   42.9320   33.7680   39.8790 C   0  0  0  0  0  0  0  0  0  0  0  0
   43.7390   34.1190   40.9190 N   0  0  0  0  0  0  0  0  0  0  0  0
   45.0540   34.4200   40.7420 C   0  0  0  0  0  0  0  0  0  0  0  0
   45.5760   34.3720   39.5140 N   0  0  0  0  0  0  0  0  0  0  0  0
   45.1620   33.9670   37.4190 H   0  0  0  0  0  0  0  0  0  0  0  0
   42.7760   33.4350   37.8390 H   0  0  0  0  0  0  0  0  0  0  0  0
   45.6620   34.6920   41.5770 H   0  0  0  0  0  0  0  0  0  0  0  0
   39.5780   30.9030   42.0180 C   0  0  2  0  0  0  0  0  0  0  0  0
   40.5130   29.7630   41.8250 C   0  0  0  0  0  0  0  0  0  0  0  0
   39.0720   29.7340   41.3330 C   0  0  1  0  0  0  0  0  0  0  0  0
   39.3300   31.0740   43.0900 H   0  0  0  0  0  0  0  0  0  0  0  0
   40.8210   29.1310   42.6650 H   0  0  0  0  0  0  0  0  0  0  0  0
   41.3020   29.8560   41.0400 H   0  0  0  0  0  0  0  0  0  0  0  0
   38.9510   29.8020   40.2160 H   0  0  0  0  0  0  0  0  0  0  0  0
   38.3080   28.6330   41.9150 C   0  0  0  0  0  0  0  0  0  0  0  0
   37.7250   29.0340   43.1270 C   0  0  0  0  0  0  0  0  0  0  0  0
   37.8270   30.0110   43.6260 H   0  0  0  0  0  0  0  0  0  0  0  0
   36.9060   28.1720   43.8550 C   0  0  0  0  0  3  0  0  0  0  0  0
   36.6560   26.8810   43.3790 C   0  0  0  0  0  3  0  0  0  0  0  0
   37.2270   26.4940   42.2000 C   0  0  0  0  0  0  0  0  0  0  0  0
   37.0630   25.2320   41.6310 C   0  0  0  0  0  3  0  0  0  0  0  0
   37.6840   24.8940   40.4290 C   0  0  0  0  0  3  0  0  0  0  0  0
   38.4960   25.8000   39.7470 C   0  0  0  0  0  3  0  0  0  0  0  0
   38.6510   27.0450   40.3170 C   0  0  0  0  0  3  0  0  0  0  0  0
   38.0310   27.3690   41.5040 C   0  0  0  0  0  0  0  0  0  0  0  0
  1  6  1  0  0  0  0
  2  3  1  0  0  0  0
  2  1  2  0  0  0  0
  3  4  2  0  0  0  0
  4  9  1  0  0  0  0
  4  5  1  0  0  0  0
  5 19  1  0  0  0  0
  6  5  2  0  0  0  0
  7  2  1  0  0  0  0
  8  3  1  0  0  0  0
 10 11  2  0  0  0  0
 10 15  1  0  0  0  0
 11 12  1  0  0  0  0
 12  1  1  0  0  0  0
 12 13  2  0  0  0  0
 14 13  1  0  0  0  0
 14 18  1  0  0  0  0
 15 14  2  0  0  0  0
 16 10  1  0  0  0  0
 17 11  1  0  0  0  0
 19 22  1  1  0  0  0
 20 19  1  0  0  0  0
 20 23  1  0  0  0  0
 21 25  1  6  0  0  0
 21 20  1  0  0  0  0
 21 26  1  0  0  0  0
 21 19  1  0  0  0  0
 24 20  1  0  0  0  0
 26 27  1  0  0  0  0
 27 28  1  0  0  0  0
 27 29  2  0  0  0  0
 30 29  1  0  0  0  0
 31 30  2  0  0  0  0
 32 31  1  0  0  0  0
 33 32  2  0  0  0  0
 34 35  2  0  0  0  0
 34 33  1  0  0  0  0
 35 36  1  0  0  0  0
 36 26  2  0  0  0  0
 36 31  1  0  0  0  0
M  END
>  <minimizedAffinity>
-6.25324869

$$$$

 OpenBabel03242521063D

 36 40  0  0  1  0  0  0  0  0999 V2000
   39.5330   32.6330   40.6090 C   0  0  0  0  0  0  0  0  0  0  0  0
   38.9780   33.8590   40.3120 C   0  0  0  0  0  0  0  0  0  0  0  0
   37.7480   34.0540   39.7360 C   0  0  0  0  0  0  0  0  0  0  0  0
   36.9960   32.9460   39.4230 C   0  0  0  0  0  0  0  0  0  0  0  0
   37.5490   31.7360   39.7200 C   0  0  0  0  0  0  0  0  0  0  0  0
   38.7610   31.5950   40.2850 N   0  0  0  0  0  0  0  0  0  0  0  0
   39.5530   34.7570   40.5490 H   0  0  0  0  0  0  0  0  0  0  0  0
   37.3930   35.0600   39.5390 H   0  0  0  0  0  0  0  0  0  0  0  0
   36.0390   33.1410   38.9730 H   0  0  0  0  0  0  0  0  0  0  0  0
   42.5370   31.4750   42.5710 C   0  0  0  0  0  0  0  0  0  0  0  0
   41.2180   31.4620   42.0660 C   0  0  0  0  0  0  0  0  0  0  0  0
   40.8470   32.4860   41.2220 C   0  0  0  0  0  0  0  0  0  0  0  0
   41.7630   33.4470   40.9200 N   0  0  0  0  0  0  0  0  0  0  0  0
   43.0260   33.4260   41.4260 C   0  0  0  0  0  0  0  0  0  0  0  0
   43.3850   32.4340   42.2440 N   0  0  0  0  0  0  0  0  0  0  0  0
   42.7240   30.6150   43.2320 H   0  0  0  0  0  0  0  0  0  0  0  0
   40.4440   30.7380   42.2610 H   0  0  0  0  0  0  0  0  0  0  0  0
   43.7230   34.1940   41.1710 H   0  0  0  0  0  0  0  0  0  0  0  0
   36.7510   30.5130   39.3890 C   0  0  2  0  0  0  0  0  0  0  0  0
   35.7910   30.0780   40.4400 C   0  0  0  0  0  0  0  0  0  0  0  0
   37.0370   29.2770   40.0840 C   0  0  1  0  0  0  0  0  0  0  0  0
   36.3050   30.4900   38.3680 H   0  0  0  0  0  0  0  0  0  0  0  0
   34.7980   29.6960   40.1800 H   0  0  0  0  0  0  0  0  0  0  0  0
   35.8090   30.6110   41.4200 H   0  0  0  0  0  0  0  0  0  0  0  0
   37.8520   29.2990   40.8610 H   0  0  0  0  0  0  0  0  0  0  0  0
   36.7180   27.9220   39.6410 C   0  0  0  0  0  0  0  0  0  0  0  0
   36.3550   27.9280   38.2860 C   0  0  0  0  0  0  0  0  0  0  0  0
   36.2700   28.8010   37.6200 H   0  0  0  0  0  0  0  0  0  0  0  0
   36.0480   26.7440   37.6150 C   0  0  0  0  0  3  0  0  0  0  0  0
   36.0990   25.5230   38.2960 C   0  0  0  0  0  3  0  0  0  0  0  0
   36.4520   25.5230   39.6160 C   0  0  0  0  0  0  0  0  0  0  0  0
   36.5260   24.3750   40.4030 C   0  0  0  0  0  3  0  0  0  0  0  0
   36.8810   24.4430   41.7500 C   0  0  0  0  0  3  0  0  0  0  0  0
   37.1750   25.6590   42.3670 C   0  0  0  0  0  3  0  0  0  0  0  0
   37.1000   26.7880   41.5810 C   0  0  0  0  0  3  0  0  0  0  0  0
   36.7500   26.7100   40.2500 C   0  0  0  0  0  0  0  0  0  0  0  0
  1 12  1  0  0  0  0
  2  7  1  0  0  0  0
  2  1  1  0  0  0  0
  3  2  2  0  0  0  0
  4  5  2  0  0  0  0
  4  3  1  0  0  0  0
  5  6  1  0  0  0  0
  6  1  2  0  0  0  0
  8  3  1  0  0  0  0
  9  4  1  0  0  0  0
 10 16  1  0  0  0  0
 11 17  1  0  0  0  0
 11 10  2  0  0  0  0
 12 11  1  0  0  0  0
 13 12  2  0  0  0  0
 13 14  1  0  0  0  0
 14 15  2  0  0  0  0
 15 10  1  0  0  0  0
 18 14  1  0  0  0  0
 19 22  1  6  0  0  0
 19  5  1  0  0  0  0
 19 21  1  0  0  0  0
 19 20  1  0  0  0  0
 20 24  1  0  0  0  0
 21 20  1  0  0  0  0
 21 25  1  1  0  0  0
 23 20  1  0  0  0  0
 26 21  1  0  0  0  0
 26 36  1  0  0  0  0
 27 26  2  0  0  0  0
 28 27  1  0  0  0  0
 29 27  1  0  0  0  0
 29 30  2  0  0  0  0
 30 31  1  0  0  0  0
 31 36  2  0  0  0  0
 31 32  1  0  0  0  0
 32 33  2  0  0  0  0
 33 34  1  0  0  0  0
 35 34  2  0  0  0  0
 36 35  1  0  0  0  0
M  END
>  <minimizedAffinity>
-6.22570419

$$$$
