
 OpenBabel03252509243D

 29 32  0  0  1  0  0  0  0  0999 V2000
   46.5440   34.7610   42.0500 C   0  0  1  0  0  0  0  0  0  0  0  0
   47.9760   35.3630   42.0640 C   0  0  0  0  0  0  0  0  0  0  0  0
   47.6170   33.8800   41.7580 C   0  0  2  0  0  0  0  0  0  0  0  0
   45.8790   35.2590   41.3200 H   0  0  0  0  0  0  0  0  0  0  0  0
   48.4930   35.4990   43.0080 H   0  0  0  0  0  0  0  0  0  0  0  0
   48.2680   35.9800   41.1770 H   0  0  0  0  0  0  0  0  0  0  0  0
   47.9010   33.1290   42.5520 H   0  0  0  0  0  0  0  0  0  0  0  0
   47.9500   33.3580   40.4100 C   0  0  0  0  0  0  0  0  0  0  0  0
   47.0300   33.5970   39.4110 C   0  0  0  0  0  0  0  0  0  0  0  0
   46.1090   34.1440   39.6130 H   0  0  0  0  0  0  0  0  0  0  0  0
   47.3440   33.1080   38.1520 C   0  0  0  0  0  3  0  0  0  0  0  0
   48.4910   32.4290   37.9020 C   0  0  0  0  0  3  0  0  0  0  0  0
   49.4070   32.1940   38.9150 C   0  0  0  0  0  0  0  0  0  0  0  0
   50.5930   31.5020   38.6980 C   0  0  0  0  0  3  0  0  0  0  0  0
   51.4500   31.3150   39.7700 C   0  0  0  0  0  3  0  0  0  0  0  0
   51.2070   31.7670   41.0300 C   0  0  0  0  0  3  0  0  0  0  0  0
   50.0180   32.4570   41.2350 C   0  0  0  0  0  3  0  0  0  0  0  0
   49.1410   32.6610   40.1870 C   0  0  0  0  0  0  0  0  0  0  0  0
   44.5060   35.6260   45.0920 C   0  0  0  0  0  0  0  0  0  0  0  0
   45.0530   35.7180   43.7750 C   0  0  0  0  0  0  0  0  0  0  0  0
   45.9750   34.7600   43.4530 C   0  0  0  0  0  0  0  0  0  0  0  0
   46.3390   33.7760   44.3580 N   0  0  0  0  0  0  0  0  0  0  0  0
   45.8030   33.7240   45.5830 C   0  0  0  0  0  0  0  0  0  0  0  0
   44.8850   34.6480   45.9550 N   0  0  0  0  0  0  0  0  0  0  0  0
   43.7780   36.4020   45.3120 H   0  0  0  0  0  0  0  0  0  0  0  0
   46.0750   32.9660   46.3010 H   0  0  0  0  0  0  0  0  0  0  0  0
   44.6780   36.7540   42.8710 N   0  0  0  0  0  0  0  0  0  0  0  0
   43.7010   37.0410   42.5670 H   0  0  0  0  0  0  0  0  0  0  0  0
   45.4730   37.3120   42.4450 H   0  0  0  0  0  0  0  0  0  0  0  0
  1  4  1  6  0  0  0
  1  2  1  0  0  0  0
  1 21  1  0  0  0  0
  2  5  1  0  0  0  0
  3  1  1  0  0  0  0
  3  2  1  0  0  0  0
  3  7  1  1  0  0  0
  6  2  1  0  0  0  0
  8  3  1  0  0  0  0
  9 10  1  0  0  0  0
  9  8  2  0  0  0  0
 11  9  1  0  0  0  0
 12 11  2  0  0  0  0
 12 13  1  0  0  0  0
 13 18  1  0  0  0  0
 14 13  2  0  0  0  0
 14 15  1  0  0  0  0
 15 16  2  0  0  0  0
 16 17  1  0  0  0  0
 18  8  1  0  0  0  0
 18 17  2  0  0  0  0
 19 25  1  0  0  0  0
 19 24  1  0  0  0  0
 20 19  2  0  0  0  0
 21 20  1  0  0  0  0
 21 22  2  0  0  0  0
 22 23  1  0  0  0  0
 23 24  2  0  0  0  0
 23 26  1  0  0  0  0
 27 20  1  0  0  0  0
 28 27  1  0  0  0  0
 29 27  1  0  0  0  0
M  END
>  <minimizedAffinity>
-5.60300732

>  <minimizedRMSD>
1.18446982

$$$$
