
 OpenBabel03242515323D

 42 46  0  0  1  0  0  0  0  0999 V2000
   46.8770   34.2450   42.3460 N   0  0  0  0  0  0  0  0  0  0  0  0
   48.1900   33.6750   42.2370 C   0  0  0  0  0  0  0  0  0  0  0  0
   48.7350   34.5700   41.1390 C   0  0  0  0  0  0  0  0  0  0  0  0
   47.6150   34.3600   40.1060 C   0  0  0  0  0  0  0  0  0  0  0  0
   46.4030   34.4390   40.9710 C   0  0  1  0  0  0  0  0  0  0  0  0
   48.8180   33.8620   43.1420 H   0  0  0  0  0  0  0  0  0  0  0  0
   48.2230   32.6340   41.9100 H   0  0  0  0  0  0  0  0  0  0  0  0
   49.6630   34.1870   40.7040 H   0  0  0  0  0  0  0  0  0  0  0  0
   48.7600   35.6170   41.4770 H   0  0  0  0  0  0  0  0  0  0  0  0
   47.6550   35.1360   39.3180 H   0  0  0  0  0  0  0  0  0  0  0  0
   47.7990   33.3790   39.6640 H   0  0  0  0  0  0  0  0  0  0  0  0
   46.0180   35.5000   41.0010 H   0  0  0  0  0  0  0  0  0  0  0  0
   43.7200   35.3170   40.6860 F   0  0  0  0  0  0  0  0  0  0  0  0
   43.9860   33.9810   40.4510 C   0  0  0  0  0  0  0  0  0  0  0  0
   45.2840   33.5750   40.6120 C   0  0  0  0  0  0  0  0  0  0  0  0
   45.5020   32.2260   40.3740 C   0  0  0  0  0  0  0  0  0  0  0  0
   44.4700   31.3870   40.0070 C   0  0  0  0  0  0  0  0  0  0  0  0
   43.1570   31.8690   39.8610 C   0  0  0  0  0  0  0  0  0  0  0  0
   42.9170   33.2300   40.0960 C   0  0  0  0  0  0  0  0  0  0  0  0
   46.4850   31.8050   40.4720 H   0  0  0  0  0  0  0  0  0  0  0  0
   44.6810   30.3350   39.8310 H   0  0  0  0  0  0  0  0  0  0  0  0
   42.3620   31.2190   39.5780 H   0  0  0  0  0  0  0  0  0  0  0  0
   41.5770   33.7940   39.9610 C   0  0  0  0  0  0  0  0  0  0  0  0
   41.3890   34.9460   40.7290 C   0  0  0  0  0  0  0  0  0  0  0  0
   42.1410   35.3930   41.3650 H   0  0  0  0  0  0  0  0  0  0  0  0
   40.1400   35.5720   40.6770 C   0  0  0  0  0  0  0  0  0  0  0  0
   39.1170   35.0720   39.8920 C   0  0  0  0  0  0  0  0  0  0  0  0
   39.3420   33.9320   39.1480 C   0  0  0  0  0  0  0  0  0  0  0  0
   38.3680   33.3640   38.3320 C   0  0  0  0  0  0  0  0  0  0  0  0
   38.5680   32.2260   37.5790 C   0  0  0  0  0  0  0  0  0  0  0  0
   39.8200   31.6510   37.6700 C   0  0  0  0  0  0  0  0  0  0  0  0
   40.8560   32.1440   38.4550 C   0  0  0  0  0  0  0  0  0  0  0  0
   40.5630   33.2880   39.1740 C   0  0  0  0  0  0  0  0  0  0  0  0
   44.5650   36.0300   44.6560 C   0  0  0  0  0  0  0  0  0  0  0  0
   45.2960   35.7500   43.5100 C   0  0  0  0  0  0  0  0  0  0  0  0
   46.0990   34.5990   43.4750 C   0  0  0  0  0  0  0  0  0  0  0  0
   46.1130   33.8210   44.5700 N   0  0  0  0  0  0  0  0  0  0  0  0
   45.3990   34.1030   45.6800 C   0  0  0  0  0  0  0  0  0  0  0  0
   44.6200   35.2160   45.7190 N   0  0  0  0  0  0  0  0  0  0  0  0
   43.9520   36.9230   44.6630 H   0  0  0  0  0  0  0  0  0  0  0  0
   45.2670   36.3920   42.6430 H   0  0  0  0  0  0  0  0  0  0  0  0
   45.4350   33.4480   46.5540 H   0  0  0  0  0  0  0  0  0  0  0  0
  1 36  1  0  0  0  0
  2  1  1  0  0  0  0
  2  6  1  0  0  0  0
  3  9  1  0  0  0  0
  3  2  1  0  0  0  0
  4  5  1  0  0  0  0
  4  3  1  0  0  0  0
  5 12  1  6  0  0  0
  5  1  1  0  0  0  0
  7  2  1  0  0  0  0
  8  3  1  0  0  0  0
 10  4  1  0  0  0  0
 11  4  1  0  0  0  0
 14 15  1  0  0  0  0
 14 13  1  0  0  0  0
 15  5  1  0  0  0  0
 16 20  1  0  0  0  0
 16 15  2  0  0  0  0
 17 16  1  0  0  0  0
 18 17  2  0  0  0  0
 18 19  1  0  0  0  0
 19 14  2  0  0  0  0
 21 17  1  0  0  0  0
 22 18  1  0  0  0  0
 23 19  1  0  0  0  0
 23 24  1  0  0  0  0
 24 25  1  0  0  0  0
 26 24  2  0  0  0  0
 27 26  1  0  0  0  0
 28 33  1  0  0  0  0
 28 27  2  0  0  0  0
 29 28  1  0  0  0  0
 30 31  1  0  0  0  0
 30 29  2  0  0  0  0
 31 32  2  0  0  0  0
 32 33  1  0  0  0  0
 33 23  2  0  0  0  0
 34 40  1  0  0  0  0
 34 39  1  0  0  0  0
 35 34  2  0  0  0  0
 36 35  1  0  0  0  0
 36 37  2  0  0  0  0
 37 38  1  0  0  0  0
 38 39  2  0  0  0  0
 38 42  1  0  0  0  0
 41 35  1  0  0  0  0
M  END
>  <minimizedAffinity>
-7.77404881

>  <minimizedRMSD>
1.0438087

$$$$
