REMARK  Name = 
REMARK  3 active torsions:
REMARK  status: ('A' for Active; 'I' for Inactive)
REMARK    1  A    between atoms: C_1  and  N_7
REMARK    2  A    between atoms: C_5  and  C_10
REMARK    3  A    between atoms: C_14  and  C_22
REMARK                            x       y       z     vdW  Elec       q    Type
REMARK                         _______ _______ _______ _____ _____    ______ ____
ROOT
ATOM      1  F   UNL     1      45.087  33.349  41.140  0.00  0.00    +0.000 F 
ATOM      2  C   UNL     1      46.258  33.960  40.974  0.00  0.00    +0.000 A 
ATOM      3  C   UNL     1      46.776  34.725  41.999  0.00  0.00    +0.000 A 
ATOM      4  C   UNL     1      47.985  35.385  41.893  0.00  0.00    +0.000 A 
ATOM      5  C   UNL     1      48.733  35.297  40.723  0.00  0.00    +0.000 A 
ATOM      6  C   UNL     1      48.169  34.518  39.726  0.00  0.00    +0.000 A 
ATOM      7  C   UNL     1      46.964  33.844  39.798  0.00  0.00    +0.000 A 
ATOM      8  H   UNL     1      48.389  35.989  42.708  0.00  0.00    +0.000 HD
ATOM      9  H   UNL     1      49.671  35.783  40.582  0.00  0.00    +0.000 HD
ATOM     10  H   UNL     1      48.741  34.439  38.806  0.00  0.00    +0.000 HD
ENDROOT
BRANCH   7  11
ATOM     11  C   UNL     1      46.478  33.053  38.673  0.00  0.00    +0.000 A 
ATOM     12  C   UNL     1      46.517  33.518  37.374  0.00  0.00    +0.000 A 
ATOM     13  H   UNL     1      46.924  34.508  37.173  0.00  0.00    +0.000 HD
ATOM     14  C   UNL     1      46.080  32.831  36.271  0.00  0.00    +0.000 A 
ATOM     15  C   UNL     1      45.556  31.567  36.489  0.00  0.00    +0.000 A 
ATOM     16  C   UNL     1      45.492  31.048  37.781  0.00  0.00    +0.000 A 
ATOM     17  C   UNL     1      44.968  29.787  37.987  0.00  0.00    +0.000 A 
ATOM     18  C   UNL     1      44.887  29.237  39.254  0.00  0.00    +0.000 A 
ATOM     19  C   UNL     1      45.357  30.010  40.319  0.00  0.00    +0.000 A 
ATOM     20  C   UNL     1      45.879  31.263  40.126  0.00  0.00    +0.000 A 
ATOM     21  C   UNL     1      45.944  31.774  38.864  0.00  0.00    +0.000 A 
ENDBRANCH   7  11
BRANCH   3  26
ATOM     22  C   UNL     1      45.462  34.014  45.357  0.00  0.00    +0.000 A 
ATOM     23  C   UNL     1      44.657  35.145  45.591  0.00  0.00    +0.000 A 
ATOM     24  C   UNL     1      44.565  36.142  44.605  0.00  0.00    +0.000 A 
ATOM     25  N   UNL     1      45.282  35.943  43.457  0.00  0.00    +0.000 NA
ATOM     26  C   UNL     1      46.040  34.861  43.258  0.00  0.00    +0.000 A 
ATOM     27  N   UNL     1      46.121  33.916  44.202  0.00  0.00    +0.000 NA
ATOM     28  H   UNL     1      44.099  35.300  46.483  0.00  0.00    +0.000 HD
ATOM     29  H   UNL     1      43.961  37.026  44.739  0.00  0.00    +0.000 HD
BRANCH  22  30
ATOM     30  N   UNL     1      45.546  33.017  46.357  0.00  0.00    +0.000 N 
ATOM     31  H   UNL     1      44.752  32.927  47.039  0.00  0.00    +0.000 HD
ATOM     32  H   UNL     1      46.369  32.385  46.420  0.00  0.00    +0.000 HD
ENDBRANCH  22  30
ENDBRANCH   3  26
TORSDOF 3
