
     RDKit          3D

 50 53  0  0  0  0  0  0  0  0999 V2000
   43.8706   35.2287   41.1868 C   0  0  0  0  0  0  0  0  0  0  0  0
   43.9676   35.5743   42.4666 C   0  0  0  0  0  0  0  0  0  0  0  0
   45.2260   35.5402   43.3105 C   0  0  0  0  0  0  0  0  0  0  0  0
   44.9997   34.6405   44.3413 O   0  0  0  0  0  0  0  0  0  0  0  0
   45.7028   32.4915   42.9532 O   0  0  0  0  0  0  0  0  0  0  0  0
   46.0052   33.2941   44.1959 P   0  0  1  0  0  0  0  0  0  0  0  0
   47.6340   33.7715   44.0940 O   0  0  0  0  0  0  0  0  0  0  0  0
   45.8460   32.3244   45.5692 O   0  0  0  0  0  0  0  0  0  0  0  0
   46.2083   32.9914   46.7221 C   0  0  0  0  0  0  0  0  0  0  0  0
   47.0606   32.3042   47.7405 C   0  0  0  0  0  0  0  0  0  0  0  0
   45.5688   32.4676   47.9902 C   0  0  0  0  0  0  0  0  0  0  0  0
   42.6108   35.3412   40.6239 O   0  0  0  0  0  0  0  0  0  0  0  0
   41.4324   35.6690   41.2335 C   0  0  0  0  0  0  0  0  0  0  0  0
   40.2826   33.5519   41.5901 C   0  0  0  0  0  0  0  0  0  0  0  0
   40.3055   34.7571   40.8584 C   0  0  0  0  0  0  0  0  0  0  0  0
   39.3419   34.9434   39.9271 C   0  0  0  0  0  0  0  0  0  0  0  0
   38.4427   33.9560   39.7804 N   0  0  0  0  0  0  0  0  0  0  0  0
   38.4143   32.8335   40.4550 C   0  0  0  0  0  0  0  0  0  0  0  0
   39.3682   32.6073   41.4042 N   0  0  0  0  0  0  0  0  0  0  0  0
   44.7013   34.8859   40.6236 H   0  0  0  0  0  0  0  0  0  0  0  0
   43.2185   35.9390   43.1518 H   0  0  0  0  0  0  0  0  0  0  0  0
   45.5220   36.5366   43.6549 H   0  0  0  0  0  0  0  0  0  0  0  0
   46.0069   35.1419   42.6154 H   0  0  0  0  0  0  0  0  0  0  0  0
   47.7312   34.5120   44.7279 H   0  0  0  0  0  0  0  0  0  0  0  0
   46.4558   34.0487   46.5891 H   0  0  0  0  0  0  0  0  0  0  0  0
   47.7745   32.8758   48.3411 H   0  0  0  0  0  0  0  0  0  0  0  0
   47.3518   31.2716   47.4454 H   0  0  0  0  0  0  0  0  0  0  0  0
   45.3300   33.2727   48.7359 H   0  0  0  0  0  0  0  0  0  0  0  0
   44.8974   31.6012   47.9336 H   0  0  0  0  0  0  0  0  0  0  0  0
   41.4165   35.6697   42.3484 H   0  0  0  0  0  0  0  0  0  0  0  0
   41.1116   36.6863   40.9191 H   0  0  0  0  0  0  0  0  0  0  0  0
   41.0128   33.3135   42.3573 H   0  0  0  0  0  0  0  0  0  0  0  0
   39.3919   35.8675   39.3943 H   0  0  0  0  0  0  0  0  0  0  0  0
   37.3311   31.9452   40.0839 C   0  0  0  0  0  0  0  0  0  0  0  0
   36.2495   31.8248   40.8919 C   0  0  0  0  0  0  0  0  0  0  0  0
   36.1292   32.3662   41.8346 H   0  0  0  0  0  0  0  0  0  0  0  0
   35.1520   31.0040   40.6377 C   0  0  0  0  0  0  0  0  0  0  0  0
   35.1200   30.2405   39.4933 C   0  0  0  0  0  0  0  0  0  0  0  0
   36.1950   30.3251   38.6366 C   0  0  0  0  0  0  0  0  0  0  0  0
   36.1854   29.5705   37.4864 C   0  0  0  0  0  0  0  0  0  0  0  0
   37.2363   29.6086   36.5813 C   0  0  0  0  0  0  0  0  0  0  0  0
   38.2889   30.4451   36.9012 C   0  0  0  0  0  0  0  0  0  0  0  0
   38.2676   31.1871   38.0602 C   0  0  0  0  0  0  0  0  0  0  0  0
   37.2360   31.1597   38.9639 C   0  0  0  0  0  0  0  0  0  0  0  0
   34.3121   30.9252   41.2875 H   0  0  0  0  0  0  0  0  0  0  0  0
   34.2964   29.6039   39.2708 H   0  0  0  0  0  0  0  0  0  0  0  0
   35.3164   28.9257   37.2929 H   0  0  0  0  0  0  0  0  0  0  0  0
   37.2054   29.0126   35.6945 H   0  0  0  0  0  0  0  0  0  0  0  0
   39.0887   30.4460   36.1694 H   0  0  0  0  0  0  0  0  0  0  0  0
   39.1453   31.7779   38.1641 H   0  0  0  0  0  0  0  0  0  0  0  0
  1  2  2  0
  2  3  1  0
  3  4  1  0
  6  5  2  0
  6  4  1  1
  6  8  1  0
  7  6  1  0
  8  9  1  0
  9 10  1  0
  9 11  1  0
 10 11  1  0
 12  1  1  0
 12 13  1  0
 15 13  1  0
 15 14  2  0
 16 15  1  0
 17 16  2  0
 17 18  1  0
 18 19  2  0
 19 14  1  0
  1 20  1  0
  2 21  1  0
  3 22  1  0
  3 23  1  0
  7 24  1  0
  9 25  1  0
 10 26  1  0
 10 27  1  0
 11 28  1  0
 11 29  1  0
 13 30  1  0
 13 31  1  0
 14 32  1  0
 16 33  1  0
 34 35  2  0
 35 36  1  0
 35 37  1  0
 37 38  2  0
 38 39  1  0
 39 40  2  0
 40 41  1  0
 41 42  2  0
 42 43  1  0
 43 44  2  0
 44 34  1  0
 44 39  1  0
 37 45  1  0
 38 46  1  0
 40 47  1  0
 41 48  1  0
 42 49  1  0
 43 50  1  0
 18 34  1  0
M  ISO  8  22   8  23   8  24   3  25  13  26  13  27  13  28  13  29  13
M  ISO  5  30   8  31   8  32  14  33  14  36  15
M  END
>  <DihAtoms>  (1) 
16,17,33,34

>  <DihDeg>  (1) 
0.6280372871227199

$$$$
