
     RDKit          3D

 52 56  0  0  0  0  0  0  0  0999 V2000
   44.5053   35.5346   45.1136 C   0  0  0  0  0  0  0  0  0  0  0  0
   45.1661   35.5071   43.8780 C   0  0  0  0  0  0  0  0  0  0  0  0
   46.0864   34.5436   43.6413 C   0  0  0  0  0  0  0  0  0  0  0  0
   46.3148   33.6488   44.6345 N   0  0  0  0  0  0  0  0  0  0  0  0
   45.6877   33.6788   45.8007 C   0  0  0  0  0  0  0  0  0  0  0  0
   44.7766   34.6160   46.0616 N   0  0  0  0  0  0  0  0  0  0  0  0
   46.0118   32.6808   46.7845 N   0  0  0  0  0  0  0  0  0  0  0  0
   45.2646   32.4505   47.9697 C   0  0  0  0  0  0  0  0  0  0  0  0
   46.3373   32.1187   48.9927 C   0  0  0  0  0  0  0  0  0  0  0  0
   47.6212   32.0042   48.2324 C   0  0  0  0  0  0  0  0  0  0  0  0
   47.1317   31.7704   46.8043 C   0  0  1  0  0  0  0  0  0  0  0  0
   44.8084   36.5293   42.9318 N   0  0  0  0  0  0  0  0  0  0  0  0
   46.6197   30.0752   46.6412 S   0  0  0  0  0  0  0  0  0  0  0  0
   45.6160   30.5100   43.4891 O   0  0  0  0  0  0  0  0  0  0  0  0
   44.9835   29.9856   44.4195 C   0  0  0  0  0  0  0  0  0  0  0  0
   45.0758   29.7819   45.8850 C   0  0  1  0  0  0  0  0  0  0  0  0
   44.5320   28.3830   46.0397 C   0  0  0  0  0  0  0  0  0  0  0  0
   43.2199   28.5856   45.2726 C   0  0  0  0  0  0  0  0  0  0  0  0
   43.7374   29.3250   44.1277 N   0  0  0  0  0  0  0  0  0  0  0  0
   43.7558   36.2805   45.3684 H   0  0  0  0  0  0  0  0  0  0  0  0
   46.5964   34.5082   42.7104 H   0  0  0  0  0  0  0  0  0  0  0  0
   44.9083   33.4756   48.3122 H   0  0  0  0  0  0  0  0  0  0  0  0
   44.4293   31.8312   48.0510 H   0  0  0  0  0  0  0  0  0  0  0  0
   46.3579   32.7675   49.8647 H   0  0  0  0  0  0  0  0  0  0  0  0
   46.0943   31.0926   49.3797 H   0  0  0  0  0  0  0  0  0  0  0  0
   48.2582   31.1665   48.5804 H   0  0  0  0  0  0  0  0  0  0  0  0
   48.1484   32.9808   48.2536 H   0  0  0  0  0  0  0  0  0  0  0  0
   47.9413   32.0468   46.1050 H   0  0  0  0  0  0  0  0  0  0  0  0
   44.0108   36.1090   42.4104 H   0  0  0  0  0  0  0  0  0  0  0  0
   45.3001   37.4519   42.8627 H   0  0  0  0  0  0  0  0  0  0  0  0
   44.1920   30.3938   46.2177 H   0  0  0  0  0  0  0  0  0  0  0  0
   44.2888   28.1713   47.0947 H   0  0  0  0  0  0  0  0  0  0  0  0
   45.1365   27.6177   45.5504 H   0  0  0  0  0  0  0  0  0  0  0  0
   42.4888   29.1424   45.8679 H   0  0  0  0  0  0  0  0  0  0  0  0
   42.8703   27.5740   44.9751 H   0  0  0  0  0  0  0  0  0  0  0  0
   42.9575   29.2896   42.9159 C   0  0  0  0  0  0  0  0  0  0  0  0
   43.7269   29.0680   41.7786 C   0  0  0  0  0  0  0  0  0  0  0  0
   44.7976   28.9328   41.7708 H   0  0  0  0  0  0  0  0  0  0  0  0
   43.1485   29.0010   40.5106 C   0  0  0  0  0  0  0  0  0  0  0  0
   41.7726   29.1662   40.4423 C   0  0  0  0  0  0  0  0  0  0  0  0
   41.0176   29.3846   41.5664 C   0  0  0  0  0  0  0  0  0  0  0  0
   39.6425   29.5532   41.5322 C   0  0  0  0  0  0  0  0  0  0  0  0
   38.9350   29.7681   42.6778 C   0  0  0  0  0  0  0  0  0  0  0  0
   39.5427   29.8299   43.9334 C   0  0  0  0  0  0  0  0  0  0  0  0
   40.9252   29.6638   44.0004 C   0  0  0  0  0  0  0  0  0  0  0  0
   41.5975   29.4513   42.8350 C   0  0  0  0  0  0  0  0  0  0  0  0
   43.7036   28.8320   39.6070 H   0  0  0  0  0  0  0  0  0  0  0  0
   41.2846   29.1205   39.4713 H   0  0  0  0  0  0  0  0  0  0  0  0
   39.1364   29.5125   40.5846 H   0  0  0  0  0  0  0  0  0  0  0  0
   37.8646   29.9067   42.7174 H   0  0  0  0  0  0  0  0  0  0  0  0
   39.0257   29.9969   44.8617 H   0  0  0  0  0  0  0  0  0  0  0  0
   41.4447   29.7023   44.9425 H   0  0  0  0  0  0  0  0  0  0  0  0
  1  6  2  0
  2  1  1  0
  3  2  2  0
  3  4  1  0
  4  5  2  0
  5  6  1  0
  5  7  1  0
  7 11  1  0
  7  8  1  0
  8  9  1  0
 10  9  1  0
 11 10  1  0
 12  2  1  0
 13 11  1  0
 14 15  2  0
 15 16  1  0
 16 17  1  0
 16 13  1  0
 18 17  1  0
 19 15  1  0
 19 18  1  0
  1 20  1  0
  3 21  1  0
  8 22  1  0
  8 23  1  0
  9 24  1  0
  9 25  1  0
 10 26  1  0
 10 27  1  0
 11 28  1  6
 12 29  1  0
 12 30  1  0
 16 31  1  1
 17 32  1  0
 17 33  1  0
 18 34  1  0
 18 35  1  0
 36 37  2  0
 37 38  1  0
 37 39  1  0
 39 40  2  0
 40 41  1  0
 41 42  2  0
 42 43  1  0
 43 44  2  0
 44 45  1  0
 45 46  2  0
 46 36  1  0
 46 41  1  0
 39 47  1  0
 40 48  1  0
 42 49  1  0
 43 50  1  0
 44 51  1  0
 45 52  1  0
 19 36  1  0
M  ISO  8  20  14  21  14  22  13  23  13  24  13  25  13  26  13  27  13
M  ISO  7  28  13  31  13  32  13  33  13  34  13  35  13  38  15
M  END
>  <DihAtoms>  (1) 
14,18,35,36

>  <DihDeg>  (1) 
-90.00221225536045

$$$$
