
     RDKit          3D

 32 34  0  0  0  0  0  0  0  0999 V2000
   45.1898   35.2101   44.0572 C   0  0  0  0  0  0  0  0  0  0  0  0
   46.2305   34.5789   43.3742 C   0  0  0  0  0  0  0  0  0  0  0  0
   46.9003   33.5704   44.0661 C   0  0  0  0  0  0  0  0  0  0  0  0
   46.5115   33.2711   45.3273 N   0  0  0  0  0  0  0  0  0  0  0  0
   45.5073   33.9026   45.9441 C   0  0  0  0  0  0  0  0  0  0  0  0
   44.8460   34.8770   45.3008 N   0  0  0  0  0  0  0  0  0  0  0  0
   46.5507   34.9923   42.0176 C   0  0  0  0  0  0  0  0  0  0  0  0
   48.0600   35.1835   41.9187 C   0  0  0  0  0  0  0  0  0  0  0  0
   44.6528   36.0072   43.5254 H   0  0  0  0  0  0  0  0  0  0  0  0
   47.7147   33.0466   43.5850 H   0  0  0  0  0  0  0  0  0  0  0  0
   45.2365   33.6243   46.9534 H   0  0  0  0  0  0  0  0  0  0  0  0
   45.9796   35.8645   41.7281 H   0  0  0  0  0  0  0  0  0  0  0  0
   46.3402   34.1023   41.3442 H   0  0  0  0  0  0  0  0  0  0  0  0
   48.5268   34.1863   42.1142 H   0  0  0  0  0  0  0  0  0  0  0  0
   48.4396   35.8883   42.6612 H   0  0  0  0  0  0  0  0  0  0  0  0
   48.4269   35.6217   40.5239 C   0  0  0  0  0  0  0  0  0  0  0  0
   49.1511   36.7888   40.2965 C   0  0  0  0  0  0  0  0  0  0  0  0
   49.4294   37.3835   41.1425 H   0  0  0  0  0  0  0  0  0  0  0  0
   49.4966   37.1618   39.0175 C   0  0  0  0  0  0  0  0  0  0  0  0
   49.1407   36.3999   37.9276 C   0  0  0  0  0  0  0  0  0  0  0  0
   48.4261   35.2508   38.1629 C   0  0  0  0  0  0  0  0  0  0  0  0
   48.0699   34.4971   37.0524 C   0  0  0  0  0  0  0  0  0  0  0  0
   47.3401   33.3254   37.2190 C   0  0  0  0  0  0  0  0  0  0  0  0
   46.9732   32.9173   38.4884 C   0  0  0  0  0  0  0  0  0  0  0  0
   47.3518   33.7037   39.5730 C   0  0  0  0  0  0  0  0  0  0  0  0
   48.0712   34.8621   39.4392 C   0  0  0  0  0  0  0  0  0  0  0  0
   50.0640   38.0838   38.8926 H   0  0  0  0  0  0  0  0  0  0  0  0
   49.4059   36.6827   36.9325 H   0  0  0  0  0  0  0  0  0  0  0  0
   48.2973   34.7119   36.0223 H   0  0  0  0  0  0  0  0  0  0  0  0
   47.0291   32.6913   36.4045 H   0  0  0  0  0  0  0  0  0  0  0  0
   46.4005   32.0004   38.6371 H   0  0  0  0  0  0  0  0  0  0  0  0
   47.0322   33.3398   40.5339 H   0  0  0  0  0  0  0  0  0  0  0  0
  1  6  2  0
  2  1  1  0
  2  3  2  0
  3  4  1  0
  4  5  2  0
  6  5  1  0
  7  2  1  0
  8  7  1  0
  1  9  1  0
  3 10  1  0
  5 11  1  0
  7 12  1  0
  7 13  1  0
  8 14  1  0
  8 15  1  0
 16 17  2  0
 17 18  1  0
 17 19  1  0
 19 20  2  0
 20 21  1  0
 21 22  2  0
 22 23  1  0
 23 24  2  0
 24 25  1  0
 25 26  2  0
 26 16  1  0
 26 21  1  0
 19 27  1  0
 20 28  1  0
 22 29  1  0
 23 30  1  0
 24 31  1  0
 25 32  1  0
  8 16  1  0
M  ISO  8   9  14  10  14  11  14  12   8  13   8  14   8  15   8  18  15
M  END
>  <DihAtoms>  (1) 
6,7,15,16

>  <DihDeg>  (1) 
-100.51773887817251

$$$$
