
 OpenBabel03252504053D

 21 23  0  0  0  0  0  0  0  0999 V2000
   37.6450   29.1300   41.5310 C   0  0  0  0  0  0  0  0  0  0  0  0
   37.7530   29.1530   42.9170 C   0  0  0  0  0  0  0  0  0  0  0  0
   38.0160   30.0170   43.5340 H   0  0  0  0  0  0  0  0  0  0  0  0
   37.5210   28.0050   43.6800 C   0  0  0  0  0  3  0  0  0  0  0  0
   37.1750   26.8170   43.0380 C   0  0  0  0  0  3  0  0  0  0  0  0
   37.0650   26.7820   41.6620 C   0  0  0  0  0  0  0  0  0  0  0  0
   36.7230   25.6280   40.9710 C   0  0  0  0  0  3  0  0  0  0  0  0
   36.6210   25.6230   39.6120 C   0  0  0  0  0  3  0  0  0  0  0  0
   36.8600   26.7840   38.8880 C   0  0  0  0  0  3  0  0  0  0  0  0
   37.1980   27.9250   39.5900 C   0  0  0  0  0  3  0  0  0  0  0  0
   37.3000   27.9300   40.9490 C   0  0  0  0  0  0  0  0  0  0  0  0
   37.1530   32.5160   40.0860 C   0  0  0  0  0  0  0  0  0  0  0  0
   36.8750   31.3080   40.7370 C   0  0  0  0  0  0  0  0  0  0  0  0
   37.9100   30.3860   40.8590 C   0  0  0  0  0  0  0  0  0  0  0  0
   39.1220   30.6870   40.3520 N   0  0  0  0  0  0  0  0  0  0  0  0
   39.3640   31.8640   39.7250 C   0  0  0  0  0  0  0  0  0  0  0  0
   38.3710   32.7840   39.5920 N   0  0  0  0  0  0  0  0  0  0  0  0
   36.3370   33.2270   39.9980 H   0  0  0  0  0  0  0  0  0  0  0  0
   40.2960   32.1560   39.3070 H   0  0  0  0  0  0  0  0  0  0  0  0
   35.6460   30.9810   41.2620 O   0  0  0  0  0  0  0  0  0  0  0  0
   35.2480   31.5990   41.9800 H   0  0  0  0  0  0  0  0  0  0  0  0
  1  2  1  0  0  0  0
  2  3  1  0  0  0  0
  2  4  2  0  0  0  0
  5  4  1  0  0  0  0
  6  5  2  0  0  0  0
  7  6  1  0  0  0  0
  8  7  2  0  0  0  0
  9 10  2  0  0  0  0
  9  8  1  0  0  0  0
 10 11  1  0  0  0  0
 11  1  2  0  0  0  0
 11  6  1  0  0  0  0
 12 13  1  0  0  0  0
 13 14  2  0  0  0  0
 13 20  1  0  0  0  0
 14  1  1  0  0  0  0
 15 14  1  0  0  0  0
 16 15  2  0  0  0  0
 17 16  1  0  0  0  0
 17 12  2  0  0  0  0
 18 12  1  0  0  0  0
 19 16  1  0  0  0  0
 20 21  1  0  0  0  0
M  END
>  <minimizedAffinity>
-5.78044605

$$$$

 OpenBabel03252504053D

 21 23  0  0  0  0  0  0  0  0999 V2000
   37.6560   30.4770   39.9680 C   0  0  0  0  0  0  0  0  0  0  0  0
   36.8250   30.2570   38.8750 C   0  0  0  0  0  0  0  0  0  0  0  0
   36.8280   30.8140   37.9340 H   0  0  0  0  0  0  0  0  0  0  0  0
   35.8610   29.2450   38.8930 C   0  0  0  0  0  3  0  0  0  0  0  0
   35.7310   28.4440   40.0260 C   0  0  0  0  0  3  0  0  0  0  0  0
   36.5510   28.6540   41.1170 C   0  0  0  0  0  0  0  0  0  0  0  0
   36.4660   27.8870   42.2710 C   0  0  0  0  0  3  0  0  0  0  0  0
   37.2890   28.1160   43.3320 C   0  0  0  0  0  3  0  0  0  0  0  0
   38.2360   29.1310   43.2780 C   0  0  0  0  0  3  0  0  0  0  0  0
   38.3080   29.8860   42.1230 C   0  0  0  0  0  3  0  0  0  0  0  0
   37.4850   29.6570   41.0610 C   0  0  0  0  0  0  0  0  0  0  0  0
   39.1400   33.8820   39.9520 C   0  0  0  0  0  0  0  0  0  0  0  0
   38.1990   32.8540   40.0970 C   0  0  0  0  0  0  0  0  0  0  0  0
   38.6130   31.5550   39.8220 C   0  0  0  0  0  0  0  0  0  0  0  0
   39.8840   31.3380   39.4310 N   0  0  0  0  0  0  0  0  0  0  0  0
   40.7760   32.3510   39.2980 C   0  0  0  0  0  0  0  0  0  0  0  0
   40.3990   33.6320   39.5610 N   0  0  0  0  0  0  0  0  0  0  0  0
   38.8050   34.8900   40.1700 H   0  0  0  0  0  0  0  0  0  0  0  0
   41.7880   32.2410   38.9950 H   0  0  0  0  0  0  0  0  0  0  0  0
   36.8980   33.0540   40.4940 O   0  0  0  0  0  0  0  0  0  0  0  0
   36.7340   33.4960   41.4070 H   0  0  0  0  0  0  0  0  0  0  0  0
  1 11  1  0  0  0  0
  2  4  1  0  0  0  0
  2  1  2  0  0  0  0
  3  2  1  0  0  0  0
  4  5  2  0  0  0  0
  5  6  1  0  0  0  0
  6  7  1  0  0  0  0
  7  8  2  0  0  0  0
  9  8  1  0  0  0  0
 10  9  2  0  0  0  0
 11  6  2  0  0  0  0
 11 10  1  0  0  0  0
 12 13  1  0  0  0  0
 12 18  1  0  0  0  0
 13 20  1  0  0  0  0
 14  1  1  0  0  0  0
 14 13  2  0  0  0  0
 15 14  1  0  0  0  0
 16 15  2  0  0  0  0
 16 17  1  0  0  0  0
 17 12  2  0  0  0  0
 19 16  1  0  0  0  0
 20 21  1  0  0  0  0
M  END
>  <minimizedAffinity>
-5.6557188

$$$$

 OpenBabel03252504053D

 21 23  0  0  0  0  0  0  0  0999 V2000
   37.2210   30.8740   39.8060 C   0  0  0  0  0  0  0  0  0  0  0  0
   36.5580   30.4180   40.9400 C   0  0  0  0  0  0  0  0  0  0  0  0
   36.7750   30.6950   41.9760 H   0  0  0  0  0  0  0  0  0  0  0  0
   35.4970   29.5130   40.8420 C   0  0  0  0  0  3  0  0  0  0  0  0
   35.0990   29.0610   39.5860 C   0  0  0  0  0  3  0  0  0  0  0  0
   35.7500   29.5060   38.4530 C   0  0  0  0  0  0  0  0  0  0  0  0
   35.3960   29.0900   37.1770 C   0  0  0  0  0  3  0  0  0  0  0  0
   36.0560   29.5470   36.0760 C   0  0  0  0  0  3  0  0  0  0  0  0
   37.1060   30.4460   36.2130 C   0  0  0  0  0  3  0  0  0  0  0  0
   37.4470   30.8520   37.4890 C   0  0  0  0  0  3  0  0  0  0  0  0
   36.7860   30.3940   38.5900 C   0  0  0  0  0  0  0  0  0  0  0  0
   39.0730   34.0570   40.2860 C   0  0  0  0  0  0  0  0  0  0  0  0
   38.0140   33.1700   40.0530 C   0  0  0  0  0  0  0  0  0  0  0  0
   38.3010   31.8090   40.0440 C   0  0  0  0  0  0  0  0  0  0  0  0
   39.5690   31.4030   40.2560 N   0  0  0  0  0  0  0  0  0  0  0  0
   40.5760   32.2830   40.4780 C   0  0  0  0  0  0  0  0  0  0  0  0
   40.3240   33.6200   40.4940 N   0  0  0  0  0  0  0  0  0  0  0  0
   38.8350   35.1160   40.2910 H   0  0  0  0  0  0  0  0  0  0  0  0
   41.5910   32.0220   40.6520 H   0  0  0  0  0  0  0  0  0  0  0  0
   36.7150   33.5630   39.8350 O   0  0  0  0  0  0  0  0  0  0  0  0
   36.2480   34.1170   40.5640 H   0  0  0  0  0  0  0  0  0  0  0  0
  1 14  1  0  0  0  0
  1  2  1  0  0  0  0
  2  3  1  0  0  0  0
  4  2  2  0  0  0  0
  5  4  1  0  0  0  0
  6 11  1  0  0  0  0
  6  5  2  0  0  0  0
  7  6  1  0  0  0  0
  8  9  1  0  0  0  0
  8  7  2  0  0  0  0
  9 10  2  0  0  0  0
 10 11  1  0  0  0  0
 11  1  2  0  0  0  0
 12 18  1  0  0  0  0
 12 17  1  0  0  0  0
 13 12  2  0  0  0  0
 14 13  1  0  0  0  0
 14 15  2  0  0  0  0
 15 16  1  0  0  0  0
 16 17  2  0  0  0  0
 16 19  1  0  0  0  0
 20 13  1  0  0  0  0
 20 21  1  0  0  0  0
M  END
>  <minimizedAffinity>
-5.38970995

$$$$

 OpenBabel03252504053D

 21 23  0  0  0  0  0  0  0  0999 V2000
   37.3900   30.7180   40.1450 C   0  0  0  0  0  0  0  0  0  0  0  0
   36.4650   30.5460   39.1210 C   0  0  0  0  0  0  0  0  0  0  0  0
   36.3520   31.1770   38.2340 H   0  0  0  0  0  0  0  0  0  0  0  0
   35.5480   29.4910   39.1440 C   0  0  0  0  0  3  0  0  0  0  0  0
   35.5630   28.5970   40.2130 C   0  0  0  0  0  3  0  0  0  0  0  0
   36.4770   28.7580   41.2350 C   0  0  0  0  0  0  0  0  0  0  0  0
   36.5370   27.8970   42.3230 C   0  0  0  0  0  3  0  0  0  0  0  0
   37.4500   28.0790   43.3170 C   0  0  0  0  0  3  0  0  0  0  0  0
   38.3460   29.1400   43.2590 C   0  0  0  0  0  3  0  0  0  0  0  0
   38.2740   29.9870   42.1710 C   0  0  0  0  0  3  0  0  0  0  0  0
   37.3600   29.8050   41.1760 C   0  0  0  0  0  0  0  0  0  0  0  0
   40.3420   32.7680   39.2090 C   0  0  0  0  0  0  0  0  0  0  0  0
   39.4930   31.6620   39.3390 C   0  0  0  0  0  0  0  0  0  0  0  0
   38.2830   31.8480   40.0010 C   0  0  0  0  0  0  0  0  0  0  0  0
   37.9810   33.0690   40.4850 N   0  0  0  0  0  0  0  0  0  0  0  0
   38.8210   34.1240   40.3460 C   0  0  0  0  0  0  0  0  0  0  0  0
   40.0100   33.9700   39.7030 N   0  0  0  0  0  0  0  0  0  0  0  0
   41.2820   32.6090   38.6910 H   0  0  0  0  0  0  0  0  0  0  0  0
   38.6360   35.1060   40.7050 H   0  0  0  0  0  0  0  0  0  0  0  0
   39.7830   30.4080   38.8530 O   0  0  0  0  0  0  0  0  0  0  0  0
   39.9550   30.3090   37.8440 H   0  0  0  0  0  0  0  0  0  0  0  0
  1 11  1  0  0  0  0
  2  4  1  0  0  0  0
  2  1  2  0  0  0  0
  3  2  1  0  0  0  0
  4  5  2  0  0  0  0
  5  6  1  0  0  0  0
  6  7  1  0  0  0  0
  7  8  2  0  0  0  0
  9  8  1  0  0  0  0
 10  9  2  0  0  0  0
 11  6  2  0  0  0  0
 11 10  1  0  0  0  0
 12 13  2  0  0  0  0
 12 17  1  0  0  0  0
 13 14  1  0  0  0  0
 14  1  1  0  0  0  0
 14 15  2  0  0  0  0
 16 15  1  0  0  0  0
 16 19  1  0  0  0  0
 17 16  2  0  0  0  0
 18 12  1  0  0  0  0
 20 13  1  0  0  0  0
 21 20  1  0  0  0  0
M  END
>  <minimizedAffinity>
-5.30675793

$$$$

 OpenBabel03252504053D

 21 23  0  0  0  0  0  0  0  0999 V2000
   38.9400   30.9790   40.9730 C   0  0  0  0  0  0  0  0  0  0  0  0
   39.4590   30.6300   42.2150 C   0  0  0  0  0  0  0  0  0  0  0  0
   40.3950   30.9890   42.6520 H   0  0  0  0  0  0  0  0  0  0  0  0
   38.7870   29.7370   43.0550 C   0  0  0  0  0  3  0  0  0  0  0  0
   37.5750   29.1890   42.6390 C   0  0  0  0  0  3  0  0  0  0  0  0
   37.0500   29.5280   41.4080 C   0  0  0  0  0  0  0  0  0  0  0  0
   35.8470   29.0130   40.9430 C   0  0  0  0  0  3  0  0  0  0  0  0
   35.3530   29.3660   39.7240 C   0  0  0  0  0  3  0  0  0  0  0  0
   36.0500   30.2560   38.9170 C   0  0  0  0  0  3  0  0  0  0  0  0
   37.2440   30.7610   39.3930 C   0  0  0  0  0  3  0  0  0  0  0  0
   37.7390   30.4070   40.6130 C   0  0  0  0  0  0  0  0  0  0  0  0
   40.3510   34.1610   39.6790 C   0  0  0  0  0  0  0  0  0  0  0  0
   39.5740   33.2750   40.4360 C   0  0  0  0  0  0  0  0  0  0  0  0
   39.7330   31.9130   40.2010 C   0  0  0  0  0  0  0  0  0  0  0  0
   40.6150   31.5050   39.2670 N   0  0  0  0  0  0  0  0  0  0  0  0
   41.3550   32.3840   38.5480 C   0  0  0  0  0  0  0  0  0  0  0  0
   41.2210   33.7220   38.7570 N   0  0  0  0  0  0  0  0  0  0  0  0
   40.2180   35.2200   39.8720 H   0  0  0  0  0  0  0  0  0  0  0  0
   42.0640   32.1220   37.8020 H   0  0  0  0  0  0  0  0  0  0  0  0
   38.6690   33.6700   41.3920 O   0  0  0  0  0  0  0  0  0  0  0  0
   39.0130   34.2310   42.1820 H   0  0  0  0  0  0  0  0  0  0  0  0
  1  2  1  0  0  0  0
  2  3  1  0  0  0  0
  2  4  2  0  0  0  0
  5  4  1  0  0  0  0
  6  5  2  0  0  0  0
  7  6  1  0  0  0  0
  8  7  2  0  0  0  0
  9 10  2  0  0  0  0
  9  8  1  0  0  0  0
 10 11  1  0  0  0  0
 11  1  2  0  0  0  0
 11  6  1  0  0  0  0
 12 18  1  0  0  0  0
 12 13  1  0  0  0  0
 13 20  1  0  0  0  0
 14 13  2  0  0  0  0
 14  1  1  0  0  0  0
 15 14  1  0  0  0  0
 16 17  1  0  0  0  0
 16 15  2  0  0  0  0
 17 12  2  0  0  0  0
 19 16  1  0  0  0  0
 20 21  1  0  0  0  0
M  END
>  <minimizedAffinity>
-5.16009283

$$$$

 OpenBabel03252504053D

 21 23  0  0  0  0  0  0  0  0999 V2000
   36.6300   27.6830   39.4950 C   0  0  0  0  0  0  0  0  0  0  0  0
   36.1210   27.5420   38.2090 C   0  0  0  0  0  0  0  0  0  0  0  0
   35.9490   28.3450   37.4860 H   0  0  0  0  0  0  0  0  0  0  0  0
   35.7650   26.2870   37.7060 C   0  0  0  0  0  3  0  0  0  0  0  0
   35.9240   25.1590   38.5090 C   0  0  0  0  0  3  0  0  0  0  0  0
   36.4280   25.2880   39.7890 C   0  0  0  0  0  0  0  0  0  0  0  0
   36.6080   24.1990   40.6320 C   0  0  0  0  0  3  0  0  0  0  0  0
   37.1090   24.3560   41.8890 C   0  0  0  0  0  3  0  0  0  0  0  0
   37.4510   25.6190   42.3540 C   0  0  0  0  0  3  0  0  0  0  0  0
   37.2670   26.6920   41.5040 C   0  0  0  0  0  3  0  0  0  0  0  0
   36.7660   26.5360   40.2450 C   0  0  0  0  0  0  0  0  0  0  0  0
   36.3350   31.0930   40.9380 C   0  0  0  0  0  0  0  0  0  0  0  0
   35.9960   29.7880   40.5580 C   0  0  0  0  0  0  0  0  0  0  0  0
   36.9600   29.0360   39.8950 C   0  0  0  0  0  0  0  0  0  0  0  0
   38.1650   29.5840   39.6460 N   0  0  0  0  0  0  0  0  0  0  0  0
   38.4690   30.8510   40.0240 C   0  0  0  0  0  0  0  0  0  0  0  0
   37.5450   31.6090   40.6750 N   0  0  0  0  0  0  0  0  0  0  0  0
   35.5750   31.6690   41.4550 H   0  0  0  0  0  0  0  0  0  0  0  0
   39.3990   31.3340   39.8560 H   0  0  0  0  0  0  0  0  0  0  0  0
   34.7720   29.2100   40.8030 O   0  0  0  0  0  0  0  0  0  0  0  0
   34.4580   29.1360   41.7790 H   0  0  0  0  0  0  0  0  0  0  0  0
  1 14  1  0  0  0  0
  1 11  1  0  0  0  0
  2  1  2  0  0  0  0
  3  2  1  0  0  0  0
  4  2  1  0  0  0  0
  4  5  2  0  0  0  0
  5  6  1  0  0  0  0
  6 11  2  0  0  0  0
  6  7  1  0  0  0  0
  7  8  2  0  0  0  0
  8  9  1  0  0  0  0
 10  9  2  0  0  0  0
 11 10  1  0  0  0  0
 12 18  1  0  0  0  0
 13 20  1  0  0  0  0
 13 12  2  0  0  0  0
 14 13  1  0  0  0  0
 15 14  2  0  0  0  0
 15 16  1  0  0  0  0
 16 17  2  0  0  0  0
 17 12  1  0  0  0  0
 19 16  1  0  0  0  0
 20 21  1  0  0  0  0
M  END
>  <minimizedAffinity>
-5.12944794

$$$$

 OpenBabel03252504053D

 21 23  0  0  0  0  0  0  0  0999 V2000
   37.4350   28.4850   41.1060 C   0  0  0  0  0  0  0  0  0  0  0  0
   37.5630   29.2130   42.2830 C   0  0  0  0  0  0  0  0  0  0  0  0
   37.7450   30.2880   42.3660 H   0  0  0  0  0  0  0  0  0  0  0  0
   37.4640   28.5910   43.5320 C   0  0  0  0  0  3  0  0  0  0  0  0
   37.2330   27.2190   43.5950 C   0  0  0  0  0  3  0  0  0  0  0  0
   37.1050   26.4850   42.4320 C   0  0  0  0  0  0  0  0  0  0  0  0
   36.8740   25.1160   42.4350 C   0  0  0  0  0  3  0  0  0  0  0  0
   36.7510   24.4190   41.2720 C   0  0  0  0  0  3  0  0  0  0  0  0
   36.8560   25.0710   40.0500 C   0  0  0  0  0  3  0  0  0  0  0  0
   37.0850   26.4330   40.0620 C   0  0  0  0  0  3  0  0  0  0  0  0
   37.2080   27.1310   41.2270 C   0  0  0  0  0  0  0  0  0  0  0  0
   38.9160   30.1420   38.1300 C   0  0  0  0  0  0  0  0  0  0  0  0
   38.8190   29.4030   39.3160 C   0  0  0  0  0  0  0  0  0  0  0  0
   37.5570   29.2470   39.8800 C   0  0  0  0  0  0  0  0  0  0  0  0
   36.4920   29.8050   39.2720 N   0  0  0  0  0  0  0  0  0  0  0  0
   36.6120   30.5160   38.1240 C   0  0  0  0  0  0  0  0  0  0  0  0
   37.8340   30.6850   37.5500 N   0  0  0  0  0  0  0  0  0  0  0  0
   39.9050   30.2570   37.7000 H   0  0  0  0  0  0  0  0  0  0  0  0
   35.8110   30.9770   37.6020 H   0  0  0  0  0  0  0  0  0  0  0  0
   39.8940   28.8260   39.9520 O   0  0  0  0  0  0  0  0  0  0  0  0
   40.4540   28.1410   39.4290 H   0  0  0  0  0  0  0  0  0  0  0  0
  1 11  2  0  0  0  0
  1  2  1  0  0  0  0
  2  3  1  0  0  0  0
  2  4  2  0  0  0  0
  4  5  1  0  0  0  0
  6  7  1  0  0  0  0
  6  5  2  0  0  0  0
  8  7  2  0  0  0  0
  9 10  2  0  0  0  0
  9  8  1  0  0  0  0
 10 11  1  0  0  0  0
 11  6  1  0  0  0  0
 12 13  1  0  0  0  0
 13 14  2  0  0  0  0
 13 20  1  0  0  0  0
 14  1  1  0  0  0  0
 15 14  1  0  0  0  0
 16 15  2  0  0  0  0
 17 16  1  0  0  0  0
 17 12  2  0  0  0  0
 18 12  1  0  0  0  0
 19 16  1  0  0  0  0
 21 20  1  0  0  0  0
M  END
>  <minimizedAffinity>
-5.08647728

$$$$

 OpenBabel03252504053D

 21 23  0  0  0  0  0  0  0  0999 V2000
   37.4650   28.6860   40.2200 C   0  0  0  0  0  0  0  0  0  0  0  0
   36.6390   27.9960   39.3400 C   0  0  0  0  0  0  0  0  0  0  0  0
   36.1410   28.4080   38.4570 H   0  0  0  0  0  0  0  0  0  0  0  0
   36.3630   26.6380   39.5230 C   0  0  0  0  0  3  0  0  0  0  0  0
   36.9250   25.9660   40.6060 C   0  0  0  0  0  3  0  0  0  0  0  0
   37.7460   26.6420   41.4880 C   0  0  0  0  0  0  0  0  0  0  0  0
   38.3330   26.0230   42.5830 C   0  0  0  0  0  3  0  0  0  0  0  0
   39.1390   26.7140   43.4350 C   0  0  0  0  0  3  0  0  0  0  0  0
   39.3910   28.0640   43.2210 C   0  0  0  0  0  3  0  0  0  0  0  0
   38.8010   28.6650   42.1270 C   0  0  0  0  0  3  0  0  0  0  0  0
   37.9930   27.9730   41.2740 C   0  0  0  0  0  0  0  0  0  0  0  0
   37.0310   32.3750   40.1790 C   0  0  0  0  0  0  0  0  0  0  0  0
   36.8120   31.0240   40.4810 C   0  0  0  0  0  0  0  0  0  0  0  0
   37.6720   30.0880   39.9180 C   0  0  0  0  0  0  0  0  0  0  0  0
   38.6680   30.5090   39.1140 N   0  0  0  0  0  0  0  0  0  0  0  0
   38.8580   31.8230   38.8360 C   0  0  0  0  0  0  0  0  0  0  0  0
   38.0320   32.7610   39.3740 N   0  0  0  0  0  0  0  0  0  0  0  0
   36.3530   33.0950   40.6250 H   0  0  0  0  0  0  0  0  0  0  0  0
   39.6240   32.2130   38.2120 H   0  0  0  0  0  0  0  0  0  0  0  0
   35.8020   30.5740   41.2990 O   0  0  0  0  0  0  0  0  0  0  0  0
   35.7730   30.9190   42.2660 H   0  0  0  0  0  0  0  0  0  0  0  0
  1 11  1  0  0  0  0
  2  4  1  0  0  0  0
  2  1  2  0  0  0  0
  3  2  1  0  0  0  0
  4  5  2  0  0  0  0
  5  6  1  0  0  0  0
  6  7  1  0  0  0  0
  7  8  2  0  0  0  0
  9  8  1  0  0  0  0
 10  9  2  0  0  0  0
 11  6  2  0  0  0  0
 11 10  1  0  0  0  0
 12 13  1  0  0  0  0
 12 18  1  0  0  0  0
 13 20  1  0  0  0  0
 14  1  1  0  0  0  0
 14 13  2  0  0  0  0
 15 14  1  0  0  0  0
 16 15  2  0  0  0  0
 16 17  1  0  0  0  0
 17 12  2  0  0  0  0
 19 16  1  0  0  0  0
 20 21  1  0  0  0  0
M  END
>  <minimizedAffinity>
-5.05531263

$$$$

 OpenBabel03252504053D

 21 23  0  0  0  0  0  0  0  0999 V2000
   37.0330   28.6840   40.0440 C   0  0  0  0  0  0  0  0  0  0  0  0
   35.8030   28.1370   39.6990 C   0  0  0  0  0  0  0  0  0  0  0  0
   35.2580   27.3620   40.2470 H   0  0  0  0  0  0  0  0  0  0  0  0
   35.1210   28.5560   38.5530 C   0  0  0  0  0  3  0  0  0  0  0  0
   35.6850   29.5410   37.7440 C   0  0  0  0  0  3  0  0  0  0  0  0
   36.9070   30.0910   38.0770 C   0  0  0  0  0  0  0  0  0  0  0  0
   37.5160   31.0740   37.3080 C   0  0  0  0  0  3  0  0  0  0  0  0
   38.7220   31.6000   37.6620 C   0  0  0  0  0  3  0  0  0  0  0  0
   39.3700   31.1570   38.8080 C   0  0  0  0  0  3  0  0  0  0  0  0
   38.7520   30.1790   39.5630 C   0  0  0  0  0  3  0  0  0  0  0  0
   37.5450   29.6530   39.2090 C   0  0  0  0  0  0  0  0  0  0  0  0
   37.9530   28.2800   43.6200 C   0  0  0  0  0  0  0  0  0  0  0  0
   37.3630   28.8000   42.4610 C   0  0  0  0  0  0  0  0  0  0  0  0
   37.6350   28.1630   41.2540 C   0  0  0  0  0  0  0  0  0  0  0  0
   38.4450   27.0860   41.2480 N   0  0  0  0  0  0  0  0  0  0  0  0
   39.0040   26.6030   42.3840 C   0  0  0  0  0  0  0  0  0  0  0  0
   38.7550   27.2060   43.5780 N   0  0  0  0  0  0  0  0  0  0  0  0
   37.7320   28.7860   44.5540 H   0  0  0  0  0  0  0  0  0  0  0  0
   39.6480   25.7600   42.4400 H   0  0  0  0  0  0  0  0  0  0  0  0
   36.5340   29.8980   42.4460 O   0  0  0  0  0  0  0  0  0  0  0  0
   35.6760   29.8640   43.0120 H   0  0  0  0  0  0  0  0  0  0  0  0
  1 14  1  0  0  0  0
  2  1  1  0  0  0  0
  2  3  1  0  0  0  0
  4  2  2  0  0  0  0
  5  6  2  0  0  0  0
  5  4  1  0  0  0  0
  6 11  1  0  0  0  0
  7  8  2  0  0  0  0
  7  6  1  0  0  0  0
  8  9  1  0  0  0  0
  9 10  2  0  0  0  0
 11 10  1  0  0  0  0
 11  1  2  0  0  0  0
 12 18  1  0  0  0  0
 13 12  2  0  0  0  0
 14 13  1  0  0  0  0
 15 14  2  0  0  0  0
 15 16  1  0  0  0  0
 16 19  1  0  0  0  0
 16 17  2  0  0  0  0
 17 12  1  0  0  0  0
 20 13  1  0  0  0  0
 20 21  1  0  0  0  0
M  END
>  <minimizedAffinity>
-4.96821642

$$$$
