
 OpenBabel03242516073D

 38 42  0  0  0  0  0  0  0  0999 V2000
   40.6830   30.6680   37.9930 Cl  0  0  0  0  0  0  0  0  0  0  0  0
   39.4970   31.6810   38.7760 C   0  0  0  0  0  0  0  0  0  0  0  0
   39.8220   32.8780   39.3440 C   0  0  0  0  0  0  0  0  0  0  0  0
   38.8100   33.5730   39.9300 C   0  0  0  0  0  0  0  0  0  0  0  0
   37.5320   33.1320   39.9670 C   0  0  0  0  0  0  0  0  0  0  0  0
   37.2000   31.9330   39.3990 C   0  0  0  0  0  0  0  0  0  0  0  0
   38.2080   31.1920   38.7900 C   0  0  0  0  0  0  0  0  0  0  0  0
   39.0290   34.5290   40.3920 H   0  0  0  0  0  0  0  0  0  0  0  0
   36.7200   33.6770   40.4290 H   0  0  0  0  0  0  0  0  0  0  0  0
   36.1770   31.5670   39.4220 H   0  0  0  0  0  0  0  0  0  0  0  0
   43.3920   33.7150   40.3050 C   0  0  0  0  0  0  0  0  0  0  0  0
   42.0650   33.2960   40.3920 C   0  0  0  0  0  0  0  0  0  0  0  0
   41.2060   33.3110   39.2780 C   0  0  0  0  0  0  0  0  0  0  0  0
   41.7640   33.7590   38.1240 N   0  0  0  0  0  0  0  0  0  0  0  0
   43.0490   34.1600   38.0550 C   0  0  0  0  0  0  0  0  0  0  0  0
   43.8440   34.1350   39.1380 N   0  0  0  0  0  0  0  0  0  0  0  0
   44.0430   33.7000   41.1630 H   0  0  0  0  0  0  0  0  0  0  0  0
   41.6770   32.9480   41.3440 H   0  0  0  0  0  0  0  0  0  0  0  0
   43.2770   34.4790   37.0300 H   0  0  0  0  0  0  0  0  0  0  0  0
   37.8660   29.8880   38.1720 C   0  0  0  0  0  0  0  0  0  0  0  0
   37.6610   28.7260   38.9170 C   0  0  0  0  0  0  0  0  0  0  0  0
   37.2760   27.4760   37.6470 S   0  0  0  0  0  0  0  0  0  0  0  0
   37.4590   28.7640   36.2630 C   0  0  0  0  0  0  0  0  0  0  0  0
   37.7130   29.6650   36.8830 N   0  0  0  0  0  0  0  0  0  0  0  0
   37.2940   28.5360   34.8590 N   0  0  0  0  0  0  0  0  0  0  0  0
   36.2770   28.3310   34.6700 H   0  0  0  0  0  0  0  0  0  0  0  0
   38.0500   28.5700   34.1720 H   0  0  0  0  0  0  0  0  0  0  0  0
   37.7040   28.4170   40.3310 C   0  0  0  0  0  0  0  0  0  0  0  0
   36.4290   28.3130   40.8940 C   0  0  0  0  0  0  0  0  0  0  0  0
   35.4370   28.4240   40.4440 H   0  0  0  0  0  0  0  0  0  0  0  0
   36.2820   28.0230   42.2350 C   0  0  0  0  0  3  0  0  0  0  0  0
   37.3780   27.8270   43.0620 C   0  0  0  0  0  3  0  0  0  0  0  0
   38.6310   27.9320   42.5020 C   0  0  0  0  0  0  0  0  0  0  0  0
   39.7750   27.7480   43.2620 C   0  0  0  0  0  3  0  0  0  0  0  0
   40.9990   27.8650   42.6270 C   0  0  0  0  0  3  0  0  0  0  0  0
   41.1530   28.1560   41.2820 C   0  0  0  0  0  3  0  0  0  0  0  0
   40.0040   28.3380   40.5290 C   0  0  0  0  0  3  0  0  0  0  0  0
   38.7850   28.2210   41.1620 C   0  0  0  0  0  0  0  0  0  0  0  0
  1  2  1  0  0  0  0
  2  7  2  0  0  0  0
  2  3  1  0  0  0  0
  3  4  2  0  0  0  0
  4  5  1  0  0  0  0
  4  8  1  0  0  0  0
  5  9  1  0  0  0  0
  6 10  1  0  0  0  0
  6  5  2  0  0  0  0
  7  6  1  0  0  0  0
 11 12  1  0  0  0  0
 11 17  1  0  0  0  0
 12 18  1  0  0  0  0
 13  3  1  0  0  0  0
 13 12  2  0  0  0  0
 14 13  1  0  0  0  0
 15 14  2  0  0  0  0
 15 16  1  0  0  0  0
 16 11  2  0  0  0  0
 19 15  1  0  0  0  0
 20  7  1  0  0  0  0
 20 21  2  0  0  0  0
 21 28  1  0  0  0  0
 22 21  1  0  0  0  0
 23 24  2  0  0  0  0
 23 22  1  0  0  0  0
 24 20  1  0  0  0  0
 25 23  1  0  0  0  0
 26 25  1  0  0  0  0
 27 25  1  0  0  0  0
 28 29  2  0  0  0  0
 28 38  1  0  0  0  0
 29 31  1  0  0  0  0
 30 29  1  0  0  0  0
 31 32  2  0  0  0  0
 33 32  1  0  0  0  0
 33 34  1  0  0  0  0
 35 34  2  0  0  0  0
 36 35  1  0  0  0  0
 37 38  1  0  0  0  0
 37 36  2  0  0  0  0
 38 33  2  0  0  0  0
M  END
>  <minimizedAffinity>
-6.83107185

$$$$

 OpenBabel03242516073D

 38 42  0  0  0  0  0  0  0  0999 V2000
   39.9370   28.9720   39.3080 Cl  0  0  0  0  0  0  0  0  0  0  0  0
   39.3640   28.5310   40.8960 C   0  0  0  0  0  0  0  0  0  0  0  0
   39.5680   27.2900   41.4270 C   0  0  0  0  0  0  0  0  0  0  0  0
   39.0680   27.0650   42.6710 C   0  0  0  0  0  0  0  0  0  0  0  0
   38.3950   28.0000   43.3790 C   0  0  0  0  0  0  0  0  0  0  0  0
   38.1870   29.2460   42.8540 C   0  0  0  0  0  0  0  0  0  0  0  0
   38.6840   29.5140   41.5820 C   0  0  0  0  0  0  0  0  0  0  0  0
   39.2110   26.0920   43.1260 H   0  0  0  0  0  0  0  0  0  0  0  0
   37.9940   27.8340   44.3700 H   0  0  0  0  0  0  0  0  0  0  0  0
   37.6490   30.0070   43.4120 H   0  0  0  0  0  0  0  0  0  0  0  0
   40.3780   24.4480   39.0520 C   0  0  0  0  0  0  0  0  0  0  0  0
   39.6590   25.3700   39.8110 C   0  0  0  0  0  0  0  0  0  0  0  0
   40.2970   26.3200   40.6300 C   0  0  0  0  0  0  0  0  0  0  0  0
   41.6530   26.2690   40.6240 N   0  0  0  0  0  0  0  0  0  0  0  0
   42.3370   25.3710   39.8850 C   0  0  0  0  0  0  0  0  0  0  0  0
   41.6980   24.4770   39.1130 N   0  0  0  0  0  0  0  0  0  0  0  0
   39.8830   23.7250   38.4270 H   0  0  0  0  0  0  0  0  0  0  0  0
   38.5740   25.3610   39.7720 H   0  0  0  0  0  0  0  0  0  0  0  0
   43.4140   25.5170   40.0380 H   0  0  0  0  0  0  0  0  0  0  0  0
   38.4650   30.8580   40.9950 C   0  0  0  0  0  0  0  0  0  0  0  0
   37.4370   31.1330   40.0910 C   0  0  0  0  0  0  0  0  0  0  0  0
   37.6590   32.9070   39.7310 S   0  0  0  0  0  0  0  0  0  0  0  0
   39.1560   33.0000   40.8970 C   0  0  0  0  0  0  0  0  0  0  0  0
   39.1850   31.9320   41.2440 N   0  0  0  0  0  0  0  0  0  0  0  0
   39.9450   34.1610   41.1780 N   0  0  0  0  0  0  0  0  0  0  0  0
   39.3540   34.8450   41.7200 H   0  0  0  0  0  0  0  0  0  0  0  0
   40.9190   34.2850   40.8910 H   0  0  0  0  0  0  0  0  0  0  0  0
   36.3860   30.3380   39.4920 C   0  0  0  0  0  0  0  0  0  0  0  0
   35.4530   29.8910   40.4310 C   0  0  0  0  0  0  0  0  0  0  0  0
   35.3970   30.0450   41.5140 H   0  0  0  0  0  0  0  0  0  0  0  0
   34.3810   29.1180   40.0350 C   0  0  0  0  0  3  0  0  0  0  0  0
   34.1920   28.7620   38.7070 C   0  0  0  0  0  3  0  0  0  0  0  0
   35.1150   29.2050   37.7870 C   0  0  0  0  0  0  0  0  0  0  0  0
   34.9940   28.8930   36.4430 C   0  0  0  0  0  3  0  0  0  0  0  0
   35.9590   29.3770   35.5760 C   0  0  0  0  0  3  0  0  0  0  0  0
   37.0370   30.1540   35.9690 C   0  0  0  0  0  3  0  0  0  0  0  0
   37.1490   30.4610   37.3150 C   0  0  0  0  0  3  0  0  0  0  0  0
   36.1890   29.9780   38.1770 C   0  0  0  0  0  0  0  0  0  0  0  0
  1  2  1  0  0  0  0
  2  3  2  0  0  0  0
  2  7  1  0  0  0  0
  3  4  1  0  0  0  0
  4  8  1  0  0  0  0
  4  5  2  0  0  0  0
  5  9  1  0  0  0  0
  6  5  1  0  0  0  0
  6 10  1  0  0  0  0
  7  6  2  0  0  0  0
 11 16  2  0  0  0  0
 11 12  1  0  0  0  0
 12 13  2  0  0  0  0
 13  3  1  0  0  0  0
 14 13  1  0  0  0  0
 15 19  1  0  0  0  0
 15 14  2  0  0  0  0
 16 15  1  0  0  0  0
 17 11  1  0  0  0  0
 18 12  1  0  0  0  0
 20 24  1  0  0  0  0
 20  7  1  0  0  0  0
 21 20  2  0  0  0  0
 22 21  1  0  0  0  0
 22 23  1  0  0  0  0
 23 25  1  0  0  0  0
 23 24  2  0  0  0  0
 25 26  1  0  0  0  0
 27 25  1  0  0  0  0
 28 21  1  0  0  0  0
 28 29  1  0  0  0  0
 29 30  1  0  0  0  0
 31 29  2  0  0  0  0
 32 31  1  0  0  0  0
 33 38  1  0  0  0  0
 33 32  2  0  0  0  0
 34 33  1  0  0  0  0
 35 36  1  0  0  0  0
 35 34  2  0  0  0  0
 36 37  2  0  0  0  0
 37 38  1  0  0  0  0
 38 28  2  0  0  0  0
M  END
>  <minimizedAffinity>
-6.70457315

$$$$

 OpenBabel03242516073D

 38 42  0  0  0  0  0  0  0  0999 V2000
   39.8960   26.7520   40.5600 Cl  0  0  0  0  0  0  0  0  0  0  0  0
   38.7310   27.2330   41.7670 C   0  0  0  0  0  0  0  0  0  0  0  0
   37.6150   26.4960   42.0380 C   0  0  0  0  0  0  0  0  0  0  0  0
   36.7790   26.9800   42.9960 C   0  0  0  0  0  0  0  0  0  0  0  0
   37.0090   28.1310   43.6670 C   0  0  0  0  0  0  0  0  0  0  0  0
   38.1250   28.8740   43.4000 C   0  0  0  0  0  0  0  0  0  0  0  0
   39.0050   28.4120   42.4260 C   0  0  0  0  0  0  0  0  0  0  0  0
   35.8830   26.4220   43.2400 H   0  0  0  0  0  0  0  0  0  0  0  0
   36.3510   28.5250   44.4310 H   0  0  0  0  0  0  0  0  0  0  0  0
   38.3210   29.8010   43.9330 H   0  0  0  0  0  0  0  0  0  0  0  0
   37.8200   22.8830   40.9120 C   0  0  0  0  0  0  0  0  0  0  0  0
   38.0290   24.0520   41.6410 C   0  0  0  0  0  0  0  0  0  0  0  0
   37.4120   25.2670   41.2930 C   0  0  0  0  0  0  0  0  0  0  0  0
   36.6060   25.2140   40.2020 N   0  0  0  0  0  0  0  0  0  0  0  0
   36.4120   24.0750   39.5050 C   0  0  0  0  0  0  0  0  0  0  0  0
   37.0170   22.9300   39.8640 N   0  0  0  0  0  0  0  0  0  0  0  0
   38.2950   21.9560   41.1860 H   0  0  0  0  0  0  0  0  0  0  0  0
   38.6860   24.0300   42.5050 H   0  0  0  0  0  0  0  0  0  0  0  0
   35.7280   24.2700   38.6700 H   0  0  0  0  0  0  0  0  0  0  0  0
   40.2190   29.2080   42.1200 C   0  0  0  0  0  0  0  0  0  0  0  0
   40.2160   30.2880   41.2360 C   0  0  0  0  0  0  0  0  0  0  0  0
   41.9460   30.8600   41.2680 S   0  0  0  0  0  0  0  0  0  0  0  0
   42.4170   29.5040   42.5110 C   0  0  0  0  0  0  0  0  0  0  0  0
   41.4170   29.0080   42.6290 N   0  0  0  0  0  0  0  0  0  0  0  0
   43.7140   29.2770   43.0730 N   0  0  0  0  0  0  0  0  0  0  0  0
   43.9490   30.0820   43.7110 H   0  0  0  0  0  0  0  0  0  0  0  0
   44.2990   28.4610   42.8750 H   0  0  0  0  0  0  0  0  0  0  0  0
   39.1970   30.9200   40.4250 C   0  0  0  0  0  0  0  0  0  0  0  0
   38.7300   32.1130   40.9860 C   0  0  0  0  0  0  0  0  0  0  0  0
   39.0100   32.6240   41.9130 H   0  0  0  0  0  0  0  0  0  0  0  0
   37.7560   32.8490   40.3450 C   0  0  0  0  0  3  0  0  0  0  0  0
   37.2100   32.4390   39.1380 C   0  0  0  0  0  3  0  0  0  0  0  0
   37.6720   31.2640   38.5900 C   0  0  0  0  0  0  0  0  0  0  0  0
   37.1780   30.7900   37.3860 C   0  0  0  0  0  3  0  0  0  0  0  0
   37.6950   29.6020   36.8980 C   0  0  0  0  0  3  0  0  0  0  0  0
   38.6740   28.8590   37.5360 C   0  0  0  0  0  3  0  0  0  0  0  0
   39.1620   29.3410   38.7400 C   0  0  0  0  0  3  0  0  0  0  0  0
   38.6470   30.5230   39.2260 C   0  0  0  0  0  0  0  0  0  0  0  0
  1  2  1  0  0  0  0
  2  3  2  0  0  0  0
  2  7  1  0  0  0  0
  3  4  1  0  0  0  0
  4  8  1  0  0  0  0
  4  5  2  0  0  0  0
  5  9  1  0  0  0  0
  6  5  1  0  0  0  0
  6 10  1  0  0  0  0
  7  6  2  0  0  0  0
 11 17  1  0  0  0  0
 11 12  1  0  0  0  0
 12 18  1  0  0  0  0
 13 12  2  0  0  0  0
 13  3  1  0  0  0  0
 14 13  1  0  0  0  0
 15 16  1  0  0  0  0
 15 14  2  0  0  0  0
 16 11  2  0  0  0  0
 19 15  1  0  0  0  0
 20  7  1  0  0  0  0
 20 24  1  0  0  0  0
 21 22  1  0  0  0  0
 21 20  2  0  0  0  0
 22 23  1  0  0  0  0
 23 24  2  0  0  0  0
 23 25  1  0  0  0  0
 25 26  1  0  0  0  0
 27 25  1  0  0  0  0
 28 29  1  0  0  0  0
 28 21  1  0  0  0  0
 29 30  1  0  0  0  0
 31 29  2  0  0  0  0
 32 31  1  0  0  0  0
 33 32  2  0  0  0  0
 33 38  1  0  0  0  0
 34 33  1  0  0  0  0
 35 34  2  0  0  0  0
 35 36  1  0  0  0  0
 36 37  2  0  0  0  0
 37 38  1  0  0  0  0
 38 28  2  0  0  0  0
M  END
>  <minimizedAffinity>
-6.63333082

$$$$

 OpenBabel03242516073D

 38 42  0  0  0  0  0  0  0  0999 V2000
   38.8380   28.4670   38.4710 Cl  0  0  0  0  0  0  0  0  0  0  0  0
   38.3200   30.0150   39.0860 C   0  0  0  0  0  0  0  0  0  0  0  0
   37.2590   30.6920   38.5570 C   0  0  0  0  0  0  0  0  0  0  0  0
   36.9560   31.8930   39.1180 C   0  0  0  0  0  0  0  0  0  0  0  0
   37.6490   32.4240   40.1510 C   0  0  0  0  0  0  0  0  0  0  0  0
   38.7130   31.7510   40.6860 C   0  0  0  0  0  0  0  0  0  0  0  0
   39.0540   30.5180   40.1370 C   0  0  0  0  0  0  0  0  0  0  0  0
   36.1200   32.4590   38.7260 H   0  0  0  0  0  0  0  0  0  0  0  0
   37.4170   33.3770   40.6060 H   0  0  0  0  0  0  0  0  0  0  0  0
   39.2780   32.1660   41.5160 H   0  0  0  0  0  0  0  0  0  0  0  0
   34.7200   28.7190   36.5480 C   0  0  0  0  0  0  0  0  0  0  0  0
   35.3910   29.2960   37.6250 C   0  0  0  0  0  0  0  0  0  0  0  0
   36.5450   30.0810   37.4500 C   0  0  0  0  0  0  0  0  0  0  0  0
   36.9500   30.2330   36.1630 N   0  0  0  0  0  0  0  0  0  0  0  0
   36.2910   29.6690   35.1300 C   0  0  0  0  0  0  0  0  0  0  0  0
   35.1910   28.9240   35.3310 N   0  0  0  0  0  0  0  0  0  0  0  0
   33.8370   28.1200   36.6910 H   0  0  0  0  0  0  0  0  0  0  0  0
   35.0170   29.1380   38.6320 H   0  0  0  0  0  0  0  0  0  0  0  0
   36.7980   29.9250   34.1910 H   0  0  0  0  0  0  0  0  0  0  0  0
   40.2070   29.7760   40.7030 C   0  0  0  0  0  0  0  0  0  0  0  0
   40.0610   28.6830   41.5580 C   0  0  0  0  0  0  0  0  0  0  0  0
   41.7800   28.1940   41.9130 S   0  0  0  0  0  0  0  0  0  0  0  0
   42.4500   29.5910   40.8130 C   0  0  0  0  0  0  0  0  0  0  0  0
   41.4770   30.0410   40.4770 N   0  0  0  0  0  0  0  0  0  0  0  0
   43.8260   29.8880   40.5570 N   0  0  0  0  0  0  0  0  0  0  0  0
   44.2380   29.1050   39.9840 H   0  0  0  0  0  0  0  0  0  0  0  0
   44.3100   30.7270   40.8860 H   0  0  0  0  0  0  0  0  0  0  0  0
   38.9190   27.9900   42.1170 C   0  0  0  0  0  0  0  0  0  0  0  0
   38.2230   28.7690   43.0460 C   0  0  0  0  0  0  0  0  0  0  0  0
   38.4040   29.7890   43.4030 H   0  0  0  0  0  0  0  0  0  0  0  0
   37.1060   28.2660   43.6790 C   0  0  0  0  0  3  0  0  0  0  0  0
   36.6370   26.9860   43.4200 C   0  0  0  0  0  3  0  0  0  0  0  0
   37.3260   26.2230   42.5050 C   0  0  0  0  0  0  0  0  0  0  0  0
   36.9190   24.9370   42.1910 C   0  0  0  0  0  3  0  0  0  0  0  0
   37.6610   24.2330   41.2580 C   0  0  0  0  0  3  0  0  0  0  0  0
   38.7840   24.7330   40.6200 C   0  0  0  0  0  3  0  0  0  0  0  0
   39.1830   26.0210   40.9390 C   0  0  0  0  0  3  0  0  0  0  0  0
   38.4440   26.7210   41.8690 C   0  0  0  0  0  0  0  0  0  0  0  0
  1  2  1  0  0  0  0
  2  7  1  0  0  0  0
  3  2  2  0  0  0  0
  3  4  1  0  0  0  0
  4  5  2  0  0  0  0
  5  9  1  0  0  0  0
  5  6  1  0  0  0  0
  6 10  1  0  0  0  0
  7  6  2  0  0  0  0
  7 20  1  0  0  0  0
  8  4  1  0  0  0  0
 11 17  1  0  0  0  0
 11 12  1  0  0  0  0
 12 18  1  0  0  0  0
 13 12  2  0  0  0  0
 13  3  1  0  0  0  0
 14 13  1  0  0  0  0
 15 16  1  0  0  0  0
 15 14  2  0  0  0  0
 16 11  2  0  0  0  0
 19 15  1  0  0  0  0
 20 21  2  0  0  0  0
 21 22  1  0  0  0  0
 21 28  1  0  0  0  0
 23 22  1  0  0  0  0
 24 20  1  0  0  0  0
 24 23  2  0  0  0  0
 25 23  1  0  0  0  0
 25 27  1  0  0  0  0
 26 25  1  0  0  0  0
 28 29  1  0  0  0  0
 29 30  1  0  0  0  0
 29 31  2  0  0  0  0
 32 31  1  0  0  0  0
 33 32  2  0  0  0  0
 34 33  1  0  0  0  0
 35 34  2  0  0  0  0
 36 37  2  0  0  0  0
 36 35  1  0  0  0  0
 37 38  1  0  0  0  0
 38 28  2  0  0  0  0
 38 33  1  0  0  0  0
M  END
>  <minimizedAffinity>
-6.62595701

$$$$

 OpenBabel03242516073D

 38 42  0  0  0  0  0  0  0  0999 V2000
   38.2200   26.8120   39.0860 Cl  0  0  0  0  0  0  0  0  0  0  0  0
   37.6200   26.9560   40.7190 C   0  0  0  0  0  0  0  0  0  0  0  0
   37.1960   25.8770   41.4380 C   0  0  0  0  0  0  0  0  0  0  0  0
   36.7440   26.1190   42.6980 C   0  0  0  0  0  0  0  0  0  0  0  0
   36.7030   27.3540   43.2460 C   0  0  0  0  0  0  0  0  0  0  0  0
   37.1260   28.4400   42.5310 C   0  0  0  0  0  0  0  0  0  0  0  0
   37.5950   28.2330   41.2370 C   0  0  0  0  0  0  0  0  0  0  0  0
   36.3990   25.2860   43.3000 H   0  0  0  0  0  0  0  0  0  0  0  0
   36.3460   27.5580   44.2470 H   0  0  0  0  0  0  0  0  0  0  0  0
   37.0980   29.4390   42.9590 H   0  0  0  0  0  0  0  0  0  0  0  0
   38.4110   22.4630   40.3250 C   0  0  0  0  0  0  0  0  0  0  0  0
   38.3690   23.7140   40.9380 C   0  0  0  0  0  0  0  0  0  0  0  0
   37.2610   24.5700   40.8080 C   0  0  0  0  0  0  0  0  0  0  0  0
   36.2450   24.0890   40.0470 N   0  0  0  0  0  0  0  0  0  0  0  0
   36.2980   22.8760   39.4600 C   0  0  0  0  0  0  0  0  0  0  0  0
   37.3730   22.0810   39.6030 N   0  0  0  0  0  0  0  0  0  0  0  0
   39.2630   21.8130   40.4300 H   0  0  0  0  0  0  0  0  0  0  0  0
   39.2140   24.0430   41.5350 H   0  0  0  0  0  0  0  0  0  0  0  0
   35.3720   22.7010   38.8990 H   0  0  0  0  0  0  0  0  0  0  0  0
   38.0560   29.4000   40.4460 C   0  0  0  0  0  0  0  0  0  0  0  0
   37.3370   29.9170   39.3670 C   0  0  0  0  0  0  0  0  0  0  0  0
   38.3670   31.3130   38.8070 S   0  0  0  0  0  0  0  0  0  0  0  0
   39.6500   30.9670   40.1640 C   0  0  0  0  0  0  0  0  0  0  0  0
   39.1640   30.0800   40.6530 N   0  0  0  0  0  0  0  0  0  0  0  0
   40.8570   31.6990   40.4020 N   0  0  0  0  0  0  0  0  0  0  0  0
   40.6030   32.6620   40.7490 H   0  0  0  0  0  0  0  0  0  0  0  0
   41.7990   31.3310   40.2530 H   0  0  0  0  0  0  0  0  0  0  0  0
   36.0880   29.5600   38.7280 C   0  0  0  0  0  0  0  0  0  0  0  0
   35.0180   29.5260   39.6260 C   0  0  0  0  0  0  0  0  0  0  0  0
   34.9820   29.7220   40.7030 H   0  0  0  0  0  0  0  0  0  0  0  0
   33.7510   29.2030   39.1880 C   0  0  0  0  0  3  0  0  0  0  0  0
   33.4940   28.9050   37.8580 C   0  0  0  0  0  3  0  0  0  0  0  0
   34.5520   28.9390   36.9770 C   0  0  0  0  0  0  0  0  0  0  0  0
   34.3750   28.6560   35.6330 C   0  0  0  0  0  3  0  0  0  0  0  0
   35.4860   28.7150   34.8080 C   0  0  0  0  0  3  0  0  0  0  0  0
   36.7610   29.0380   35.2430 C   0  0  0  0  0  3  0  0  0  0  0  0
   36.9270   29.3210   36.5890 C   0  0  0  0  0  3  0  0  0  0  0  0
   35.8210   29.2610   37.4090 C   0  0  0  0  0  0  0  0  0  0  0  0
  1  2  1  0  0  0  0
  2  7  2  0  0  0  0
  2  3  1  0  0  0  0
  3  4  2  0  0  0  0
  4  5  1  0  0  0  0
  4  8  1  0  0  0  0
  5  9  1  0  0  0  0
  6 10  1  0  0  0  0
  6  5  2  0  0  0  0
  7  6  1  0  0  0  0
 11 17  1  0  0  0  0
 11 12  1  0  0  0  0
 12 18  1  0  0  0  0
 13 12  2  0  0  0  0
 13  3  1  0  0  0  0
 14 13  1  0  0  0  0
 15 16  1  0  0  0  0
 15 14  2  0  0  0  0
 16 11  2  0  0  0  0
 19 15  1  0  0  0  0
 20 24  1  0  0  0  0
 20  7  1  0  0  0  0
 21 20  2  0  0  0  0
 22 21  1  0  0  0  0
 22 23  1  0  0  0  0
 23 25  1  0  0  0  0
 23 24  2  0  0  0  0
 25 26  1  0  0  0  0
 27 25  1  0  0  0  0
 28 21  1  0  0  0  0
 28 29  1  0  0  0  0
 29 30  1  0  0  0  0
 31 29  2  0  0  0  0
 32 31  1  0  0  0  0
 33 38  1  0  0  0  0
 33 32  2  0  0  0  0
 34 33  1  0  0  0  0
 35 36  1  0  0  0  0
 35 34  2  0  0  0  0
 36 37  2  0  0  0  0
 37 38  1  0  0  0  0
 38 28  2  0  0  0  0
M  END
>  <minimizedAffinity>
-6.59201956

$$$$

 OpenBabel03242516073D

 38 42  0  0  0  0  0  0  0  0999 V2000
   37.6840   28.0470   36.0480 Cl  0  0  0  0  0  0  0  0  0  0  0  0
   36.1720   28.2990   36.8820 C   0  0  0  0  0  0  0  0  0  0  0  0
   35.0150   27.6850   36.4960 C   0  0  0  0  0  0  0  0  0  0  0  0
   33.9000   27.9670   37.2210 C   0  0  0  0  0  0  0  0  0  0  0  0
   33.8980   28.8090   38.2800 C   0  0  0  0  0  0  0  0  0  0  0  0
   35.0530   29.4270   38.6720 C   0  0  0  0  0  0  0  0  0  0  0  0
   36.2160   29.1640   37.9530 C   0  0  0  0  0  0  0  0  0  0  0  0
   32.9630   27.4990   36.9460 H   0  0  0  0  0  0  0  0  0  0  0  0
   33.0180   29.0400   38.8650 H   0  0  0  0  0  0  0  0  0  0  0  0
   35.0650   30.1050   39.5210 H   0  0  0  0  0  0  0  0  0  0  0  0
   35.3320   24.5630   34.3700 C   0  0  0  0  0  0  0  0  0  0  0  0
   35.2870   25.4060   35.4790 C   0  0  0  0  0  0  0  0  0  0  0  0
   35.0670   26.7890   35.3540 C   0  0  0  0  0  0  0  0  0  0  0  0
   34.9050   27.2360   34.0830 N   0  0  0  0  0  0  0  0  0  0  0  0
   34.9510   26.4090   33.0180 C   0  0  0  0  0  0  0  0  0  0  0  0
   35.1630   25.0910   33.1710 N   0  0  0  0  0  0  0  0  0  0  0  0
   35.5000   23.5040   34.4740 H   0  0  0  0  0  0  0  0  0  0  0  0
   35.4240   24.9870   36.4720 H   0  0  0  0  0  0  0  0  0  0  0  0
   34.7960   26.9880   32.1000 H   0  0  0  0  0  0  0  0  0  0  0  0
   37.4770   29.8280   38.3630 C   0  0  0  0  0  0  0  0  0  0  0  0
   38.0970   29.5890   39.5910 C   0  0  0  0  0  0  0  0  0  0  0  0
   39.5740   30.6560   39.5300 S   0  0  0  0  0  0  0  0  0  0  0  0
   39.1060   31.2780   37.7970 C   0  0  0  0  0  0  0  0  0  0  0  0
   38.1570   30.6970   37.6440 N   0  0  0  0  0  0  0  0  0  0  0  0
   39.8350   32.2210   37.0050 N   0  0  0  0  0  0  0  0  0  0  0  0
   40.7450   31.7780   36.7080 H   0  0  0  0  0  0  0  0  0  0  0  0
   39.5100   33.1630   36.7770 H   0  0  0  0  0  0  0  0  0  0  0  0
   37.7850   28.7480   40.7270 C   0  0  0  0  0  0  0  0  0  0  0  0
   37.6300   29.4800   41.9070 C   0  0  0  0  0  0  0  0  0  0  0  0
   37.7050   30.5570   42.0970 H   0  0  0  0  0  0  0  0  0  0  0  0
   37.3290   28.8390   43.0910 C   0  0  0  0  0  3  0  0  0  0  0  0
   37.1710   27.4620   43.1530 C   0  0  0  0  0  3  0  0  0  0  0  0
   37.3260   26.7450   41.9870 C   0  0  0  0  0  0  0  0  0  0  0  0
   37.1820   25.3680   41.9670 C   0  0  0  0  0  3  0  0  0  0  0  0
   37.3490   24.7180   40.7570 C   0  0  0  0  0  3  0  0  0  0  0  0
   37.6500   25.3570   39.5660 C   0  0  0  0  0  3  0  0  0  0  0  0
   37.7920   26.7350   39.5950 C   0  0  0  0  0  3  0  0  0  0  0  0
   37.6270   27.3810   40.8010 C   0  0  0  0  0  0  0  0  0  0  0  0
  1  2  1  0  0  0  0
  2  7  1  0  0  0  0
  3  2  2  0  0  0  0
  3  4  1  0  0  0  0
  4  5  2  0  0  0  0
  5  6  1  0  0  0  0
  5  9  1  0  0  0  0
  6 10  1  0  0  0  0
  7 20  1  0  0  0  0
  7  6  2  0  0  0  0
  8  4  1  0  0  0  0
 11 17  1  0  0  0  0
 11 12  1  0  0  0  0
 12 18  1  0  0  0  0
 13 12  2  0  0  0  0
 13  3  1  0  0  0  0
 14 13  1  0  0  0  0
 15 16  1  0  0  0  0
 15 14  2  0  0  0  0
 16 11  2  0  0  0  0
 19 15  1  0  0  0  0
 20 21  2  0  0  0  0
 21 28  1  0  0  0  0
 22 21  1  0  0  0  0
 23 22  1  0  0  0  0
 24 23  2  0  0  0  0
 24 20  1  0  0  0  0
 25 23  1  0  0  0  0
 26 25  1  0  0  0  0
 27 25  1  0  0  0  0
 28 38  2  0  0  0  0
 28 29  1  0  0  0  0
 29 30  1  0  0  0  0
 29 31  2  0  0  0  0
 31 32  1  0  0  0  0
 33 32  2  0  0  0  0
 34 33  1  0  0  0  0
 35 34  2  0  0  0  0
 36 37  2  0  0  0  0
 36 35  1  0  0  0  0
 37 38  1  0  0  0  0
 38 33  1  0  0  0  0
M  END
>  <minimizedAffinity>
-6.50293064

$$$$

 OpenBabel03242516073D

 38 42  0  0  0  0  0  0  0  0999 V2000
   37.8050   31.4270   38.1990 Cl  0  0  0  0  0  0  0  0  0  0  0  0
   38.8750   30.1250   37.7450 C   0  0  0  0  0  0  0  0  0  0  0  0
   40.2340   30.2600   37.7550 C   0  0  0  0  0  0  0  0  0  0  0  0
   40.9600   29.1760   37.3730 C   0  0  0  0  0  0  0  0  0  0  0  0
   40.4000   28.0040   36.9960 C   0  0  0  0  0  0  0  0  0  0  0  0
   39.0400   27.8620   36.9840 C   0  0  0  0  0  0  0  0  0  0  0  0
   38.2620   28.9500   37.3670 C   0  0  0  0  0  0  0  0  0  0  0  0
   42.0410   29.2440   37.3690 H   0  0  0  0  0  0  0  0  0  0  0  0
   40.9680   27.1350   36.6920 H   0  0  0  0  0  0  0  0  0  0  0  0
   38.5770   26.9250   36.6830 H   0  0  0  0  0  0  0  0  0  0  0  0
   41.8760   33.6760   37.6820 C   0  0  0  0  0  0  0  0  0  0  0  0
   41.3500   32.4550   37.2630 C   0  0  0  0  0  0  0  0  0  0  0  0
   40.7880   31.5360   38.1680 C   0  0  0  0  0  0  0  0  0  0  0  0
   40.7980   31.9270   39.4680 N   0  0  0  0  0  0  0  0  0  0  0  0
   41.3100   33.1120   39.8600 C   0  0  0  0  0  0  0  0  0  0  0  0
   41.8400   33.9680   38.9690 N   0  0  0  0  0  0  0  0  0  0  0  0
   42.3030   34.3740   36.9820 H   0  0  0  0  0  0  0  0  0  0  0  0
   41.3710   32.1990   36.2080 H   0  0  0  0  0  0  0  0  0  0  0  0
   41.2100   33.2110   40.9470 H   0  0  0  0  0  0  0  0  0  0  0  0
   36.7850   28.8150   37.3570 C   0  0  0  0  0  0  0  0  0  0  0  0
   36.0540   28.3940   38.4690 C   0  0  0  0  0  0  0  0  0  0  0  0
   34.3310   28.4260   37.8750 S   0  0  0  0  0  0  0  0  0  0  0  0
   34.8880   29.0220   36.1590 C   0  0  0  0  0  0  0  0  0  0  0  0
   35.9970   29.0680   36.3330 N   0  0  0  0  0  0  0  0  0  0  0  0
   34.0430   29.3040   35.0390 N   0  0  0  0  0  0  0  0  0  0  0  0
   33.4680   30.1590   35.2590 H   0  0  0  0  0  0  0  0  0  0  0  0
   34.0170   28.7530   34.1780 H   0  0  0  0  0  0  0  0  0  0  0  0
   36.4100   27.9970   39.8150 C   0  0  0  0  0  0  0  0  0  0  0  0
   36.5400   29.0890   40.6780 C   0  0  0  0  0  0  0  0  0  0  0  0
   36.4170   30.1630   40.4970 H   0  0  0  0  0  0  0  0  0  0  0  0
   36.8760   28.8950   42.0010 C   0  0  0  0  0  3  0  0  0  0  0  0
   37.0940   27.6270   42.5190 C   0  0  0  0  0  3  0  0  0  0  0  0
   36.9660   26.5550   41.6640 C   0  0  0  0  0  0  0  0  0  0  0  0
   37.1650   25.2570   42.1060 C   0  0  0  0  0  3  0  0  0  0  0  0
   37.0140   24.2310   41.1900 C   0  0  0  0  0  3  0  0  0  0  0  0
   36.6760   24.4200   39.8600 C   0  0  0  0  0  3  0  0  0  0  0  0
   36.4780   25.7210   39.4270 C   0  0  0  0  0  3  0  0  0  0  0  0
   36.6300   26.7420   40.3400 C   0  0  0  0  0  0  0  0  0  0  0  0
  2  3  1  0  0  0  0
  2  1  1  0  0  0  0
  3 13  1  0  0  0  0
  4  3  2  0  0  0  0
  5  4  1  0  0  0  0
  6  5  2  0  0  0  0
  6  7  1  0  0  0  0
  7  2  2  0  0  0  0
  8  4  1  0  0  0  0
  9  5  1  0  0  0  0
 10  6  1  0  0  0  0
 11 16  1  0  0  0  0
 12 11  2  0  0  0  0
 12 13  1  0  0  0  0
 13 14  2  0  0  0  0
 14 15  1  0  0  0  0
 15 19  1  0  0  0  0
 16 15  2  0  0  0  0
 17 11  1  0  0  0  0
 18 12  1  0  0  0  0
 20  7  1  0  0  0  0
 20 21  2  0  0  0  0
 21 28  1  0  0  0  0
 22 21  1  0  0  0  0
 23 24  2  0  0  0  0
 23 22  1  0  0  0  0
 24 20  1  0  0  0  0
 25 26  1  0  0  0  0
 25 23  1  0  0  0  0
 27 25  1  0  0  0  0
 28 38  2  0  0  0  0
 28 29  1  0  0  0  0
 29 31  2  0  0  0  0
 30 29  1  0  0  0  0
 31 32  1  0  0  0  0
 33 34  1  0  0  0  0
 33 32  2  0  0  0  0
 35 34  2  0  0  0  0
 36 35  1  0  0  0  0
 37 36  2  0  0  0  0
 37 38  1  0  0  0  0
 38 33  1  0  0  0  0
M  END
>  <minimizedAffinity>
-6.47086191

$$$$

 OpenBabel03242516073D

 38 42  0  0  0  0  0  0  0  0999 V2000
   40.7380   30.3310   38.2180 Cl  0  0  0  0  0  0  0  0  0  0  0  0
   39.3680   31.1900   38.8750 C   0  0  0  0  0  0  0  0  0  0  0  0
   39.4890   32.4180   39.4580 C   0  0  0  0  0  0  0  0  0  0  0  0
   38.3490   32.9820   39.9390 C   0  0  0  0  0  0  0  0  0  0  0  0
   37.1370   32.3870   39.8610 C   0  0  0  0  0  0  0  0  0  0  0  0
   37.0090   31.1560   39.2780 C   0  0  0  0  0  0  0  0  0  0  0  0
   38.1540   30.5460   38.7750 C   0  0  0  0  0  0  0  0  0  0  0  0
   38.4040   33.9580   40.4070 H   0  0  0  0  0  0  0  0  0  0  0  0
   36.2240   32.8270   40.2390 H   0  0  0  0  0  0  0  0  0  0  0  0
   36.0410   30.6670   39.2090 H   0  0  0  0  0  0  0  0  0  0  0  0
   42.7070   34.1610   38.4740 C   0  0  0  0  0  0  0  0  0  0  0  0
   41.4390   33.5890   38.3960 C   0  0  0  0  0  0  0  0  0  0  0  0
   40.8090   33.0180   39.5160 C   0  0  0  0  0  0  0  0  0  0  0  0
   41.5260   33.0650   40.6680 N   0  0  0  0  0  0  0  0  0  0  0  0
   42.7530   33.6220   40.7300 C   0  0  0  0  0  0  0  0  0  0  0  0
   43.3270   34.1600   39.6400 N   0  0  0  0  0  0  0  0  0  0  0  0
   43.1820   34.5970   37.6120 H   0  0  0  0  0  0  0  0  0  0  0  0
   40.9160   33.5830   37.4440 H   0  0  0  0  0  0  0  0  0  0  0  0
   43.1370   33.5450   41.7540 H   0  0  0  0  0  0  0  0  0  0  0  0
   38.0350   29.2090   38.1420 C   0  0  0  0  0  0  0  0  0  0  0  0
   38.3940   28.0270   38.7920 C   0  0  0  0  0  0  0  0  0  0  0  0
   38.0310   26.7410   37.5530 S   0  0  0  0  0  0  0  0  0  0  0  0
   37.4310   28.0460   36.3100 C   0  0  0  0  0  0  0  0  0  0  0  0
   37.5860   28.9710   36.9280 N   0  0  0  0  0  0  0  0  0  0  0  0
   36.9390   27.8010   34.9890 N   0  0  0  0  0  0  0  0  0  0  0  0
   36.0140   27.3010   35.0620 H   0  0  0  0  0  0  0  0  0  0  0  0
   37.4220   28.0730   34.1290 H   0  0  0  0  0  0  0  0  0  0  0  0
   38.9310   27.7230   40.1020 C   0  0  0  0  0  0  0  0  0  0  0  0
   40.2950   27.4220   40.0650 C   0  0  0  0  0  0  0  0  0  0  0  0
   40.9960   27.3830   39.2240 H   0  0  0  0  0  0  0  0  0  0  0  0
   40.9710   27.1090   41.2260 C   0  0  0  0  0  3  0  0  0  0  0  0
   40.3300   27.0810   42.4560 C   0  0  0  0  0  3  0  0  0  0  0  0
   38.9860   27.3770   42.4870 C   0  0  0  0  0  0  0  0  0  0  0  0
   38.2780   27.3720   43.6770 C   0  0  0  0  0  3  0  0  0  0  0  0
   36.9300   27.6850   43.6280 C   0  0  0  0  0  3  0  0  0  0  0  0
   36.2460   28.0010   42.4660 C   0  0  0  0  0  3  0  0  0  0  0  0
   36.9630   28.0040   41.2800 C   0  0  0  0  0  3  0  0  0  0  0  0
   38.3050   27.6920   41.3290 C   0  0  0  0  0  0  0  0  0  0  0  0
  1  2  1  0  0  0  0
  2  3  1  0  0  0  0
  3 13  1  0  0  0  0
  3  4  2  0  0  0  0
  4  8  1  0  0  0  0
  5  4  1  0  0  0  0
  5  9  1  0  0  0  0
  6  5  2  0  0  0  0
  7  2  2  0  0  0  0
  7  6  1  0  0  0  0
 10  6  1  0  0  0  0
 11 16  1  0  0  0  0
 12 11  2  0  0  0  0
 12 13  1  0  0  0  0
 13 14  2  0  0  0  0
 14 15  1  0  0  0  0
 15 19  1  0  0  0  0
 16 15  2  0  0  0  0
 17 11  1  0  0  0  0
 18 12  1  0  0  0  0
 20  7  1  0  0  0  0
 20 21  2  0  0  0  0
 21 28  1  0  0  0  0
 22 21  1  0  0  0  0
 23 24  2  0  0  0  0
 23 22  1  0  0  0  0
 24 20  1  0  0  0  0
 25 26  1  0  0  0  0
 25 23  1  0  0  0  0
 27 25  1  0  0  0  0
 28 38  1  0  0  0  0
 29 28  2  0  0  0  0
 29 31  1  0  0  0  0
 30 29  1  0  0  0  0
 31 32  2  0  0  0  0
 32 33  1  0  0  0  0
 33 34  1  0  0  0  0
 35 34  2  0  0  0  0
 36 35  1  0  0  0  0
 37 38  1  0  0  0  0
 37 36  2  0  0  0  0
 38 33  2  0  0  0  0
M  END
>  <minimizedAffinity>
-6.38507891

$$$$

 OpenBabel03242516073D

 38 42  0  0  0  0  0  0  0  0999 V2000
   39.9690   26.3820   40.2950 Cl  0  0  0  0  0  0  0  0  0  0  0  0
   38.8820   26.9720   41.5260 C   0  0  0  0  0  0  0  0  0  0  0  0
   37.7260   26.3230   41.8510 C   0  0  0  0  0  0  0  0  0  0  0  0
   36.9590   26.8860   42.8230 C   0  0  0  0  0  0  0  0  0  0  0  0
   37.2920   28.0320   43.4590 C   0  0  0  0  0  0  0  0  0  0  0  0
   38.4490   28.6870   43.1380 C   0  0  0  0  0  0  0  0  0  0  0  0
   39.2610   28.1420   42.1470 C   0  0  0  0  0  0  0  0  0  0  0  0
   36.0350   26.3990   43.1090 H   0  0  0  0  0  0  0  0  0  0  0  0
   36.6910   28.4880   44.2340 H   0  0  0  0  0  0  0  0  0  0  0  0
   38.7290   29.6090   43.6420 H   0  0  0  0  0  0  0  0  0  0  0  0
   37.7260   22.7030   40.7280 C   0  0  0  0  0  0  0  0  0  0  0  0
   38.0440   23.8700   41.4200 C   0  0  0  0  0  0  0  0  0  0  0  0
   37.4120   25.0950   41.1420 C   0  0  0  0  0  0  0  0  0  0  0  0
   36.4790   25.0540   40.1570 N   0  0  0  0  0  0  0  0  0  0  0  0
   36.1810   23.9170   39.4950 C   0  0  0  0  0  0  0  0  0  0  0  0
   36.8030   22.7620   39.7840 N   0  0  0  0  0  0  0  0  0  0  0  0
   38.2140   21.7680   40.9470 H   0  0  0  0  0  0  0  0  0  0  0  0
   38.8000   23.8380   42.1980 H   0  0  0  0  0  0  0  0  0  0  0  0
   35.4050   24.1230   38.7480 H   0  0  0  0  0  0  0  0  0  0  0  0
   40.5170   28.8420   41.7850 C   0  0  0  0  0  0  0  0  0  0  0  0
   40.6140   29.7140   40.6990 C   0  0  0  0  0  0  0  0  0  0  0  0
   42.3530   30.2590   40.7530 S   0  0  0  0  0  0  0  0  0  0  0  0
   42.6860   29.1870   42.2850 C   0  0  0  0  0  0  0  0  0  0  0  0
   41.6660   28.7380   42.4200 N   0  0  0  0  0  0  0  0  0  0  0  0
   43.9280   29.0670   42.9860 N   0  0  0  0  0  0  0  0  0  0  0  0
   44.1360   29.9850   43.4600 H   0  0  0  0  0  0  0  0  0  0  0  0
   44.5030   28.2210   43.0090 H   0  0  0  0  0  0  0  0  0  0  0  0
   39.6800   30.1750   39.6930 C   0  0  0  0  0  0  0  0  0  0  0  0
   39.5640   29.2840   38.6230 C   0  0  0  0  0  0  0  0  0  0  0  0
   40.0550   28.3220   38.4350 H   0  0  0  0  0  0  0  0  0  0  0  0
   38.7150   29.5640   37.5720 C   0  0  0  0  0  3  0  0  0  0  0  0
   37.9560   30.7240   37.5400 C   0  0  0  0  0  3  0  0  0  0  0  0
   38.0750   31.5990   38.5960 C   0  0  0  0  0  0  0  0  0  0  0  0
   37.3480   32.7770   38.6370 C   0  0  0  0  0  3  0  0  0  0  0  0
   37.5180   33.6040   39.7340 C   0  0  0  0  0  3  0  0  0  0  0  0
   38.3690   33.3280   40.7920 C   0  0  0  0  0  3  0  0  0  0  0  0
   39.0910   32.1460   40.7430 C   0  0  0  0  0  3  0  0  0  0  0  0
   38.9220   31.3240   39.6500 C   0  0  0  0  0  0  0  0  0  0  0  0
  1  2  1  0  0  0  0
  2  3  2  0  0  0  0
  2  7  1  0  0  0  0
  3  4  1  0  0  0  0
  4  8  1  0  0  0  0
  4  5  2  0  0  0  0
  5  9  1  0  0  0  0
  6  5  1  0  0  0  0
  6 10  1  0  0  0  0
  7  6  2  0  0  0  0
 11 17  1  0  0  0  0
 11 12  1  0  0  0  0
 12 18  1  0  0  0  0
 13 12  2  0  0  0  0
 13  3  1  0  0  0  0
 14 13  1  0  0  0  0
 15 16  1  0  0  0  0
 15 14  2  0  0  0  0
 16 11  2  0  0  0  0
 19 15  1  0  0  0  0
 20  7  1  0  0  0  0
 20 24  1  0  0  0  0
 21 22  1  0  0  0  0
 21 20  2  0  0  0  0
 22 23  1  0  0  0  0
 23 24  2  0  0  0  0
 23 25  1  0  0  0  0
 25 27  1  0  0  0  0
 25 26  1  0  0  0  0
 28 21  1  0  0  0  0
 29 28  2  0  0  0  0
 30 29  1  0  0  0  0
 31 29  1  0  0  0  0
 32 31  2  0  0  0  0
 32 33  1  0  0  0  0
 33 34  2  0  0  0  0
 33 38  1  0  0  0  0
 34 35  1  0  0  0  0
 35 36  2  0  0  0  0
 37 36  1  0  0  0  0
 38 28  1  0  0  0  0
 38 37  2  0  0  0  0
M  END
>  <minimizedAffinity>
-6.31090736

$$$$
