
 OpenBabel03252509243D

 29 32  0  0  1  0  0  0  0  0999 V2000
   46.5550   34.7540   42.0370 C   0  0  1  0  0  0  0  0  0  0  0  0
   47.9880   35.3510   42.0510 C   0  0  0  0  0  0  0  0  0  0  0  0
   47.6240   33.8690   41.7420 C   0  0  2  0  0  0  0  0  0  0  0  0
   45.8910   35.2550   41.3070 H   0  0  0  0  0  0  0  0  0  0  0  0
   48.5070   35.4830   42.9950 H   0  0  0  0  0  0  0  0  0  0  0  0
   48.2820   35.9670   41.1650 H   0  0  0  0  0  0  0  0  0  0  0  0
   47.9060   33.1160   42.5360 H   0  0  0  0  0  0  0  0  0  0  0  0
   47.9550   33.3470   40.3940 C   0  0  0  0  0  0  0  0  0  0  0  0
   47.0330   33.5890   39.3960 C   0  0  0  0  0  0  0  0  0  0  0  0
   46.1120   34.1360   39.6000 H   0  0  0  0  0  0  0  0  0  0  0  0
   47.3440   33.1000   38.1370 C   0  0  0  0  0  3  0  0  0  0  0  0
   48.4890   32.4190   37.8850 C   0  0  0  0  0  3  0  0  0  0  0  0
   49.4070   32.1840   38.8950 C   0  0  0  0  0  0  0  0  0  0  0  0
   50.5930   31.4900   38.6770 C   0  0  0  0  0  3  0  0  0  0  0  0
   51.4500   31.3010   39.7460 C   0  0  0  0  0  3  0  0  0  0  0  0
   51.2110   31.7510   41.0070 C   0  0  0  0  0  3  0  0  0  0  0  0
   50.0230   32.4440   41.2160 C   0  0  0  0  0  3  0  0  0  0  0  0
   49.1440   32.6500   40.1690 C   0  0  0  0  0  0  0  0  0  0  0  0
   44.5150   35.6170   45.0780 C   0  0  0  0  0  0  0  0  0  0  0  0
   45.0610   35.7080   43.7610 C   0  0  0  0  0  0  0  0  0  0  0  0
   45.9860   34.7520   43.4400 C   0  0  0  0  0  0  0  0  0  0  0  0
   46.3540   33.7710   44.3460 N   0  0  0  0  0  0  0  0  0  0  0  0
   45.8180   33.7200   45.5720 C   0  0  0  0  0  0  0  0  0  0  0  0
   44.8970   34.6410   45.9430 N   0  0  0  0  0  0  0  0  0  0  0  0
   43.7840   36.3900   45.2970 H   0  0  0  0  0  0  0  0  0  0  0  0
   46.0930   32.9630   46.2910 H   0  0  0  0  0  0  0  0  0  0  0  0
   44.6820   36.7420   42.8560 N   0  0  0  0  0  0  0  0  0  0  0  0
   43.7040   37.0250   42.5510 H   0  0  0  0  0  0  0  0  0  0  0  0
   45.4750   37.3010   42.4280 H   0  0  0  0  0  0  0  0  0  0  0  0
  1  4  1  6  0  0  0
  1  2  1  0  0  0  0
  1 21  1  0  0  0  0
  2  5  1  0  0  0  0
  3  1  1  0  0  0  0
  3  2  1  0  0  0  0
  3  7  1  1  0  0  0
  6  2  1  0  0  0  0
  8  3  1  0  0  0  0
  9 10  1  0  0  0  0
  9  8  2  0  0  0  0
 11  9  1  0  0  0  0
 12 11  2  0  0  0  0
 12 13  1  0  0  0  0
 13 18  1  0  0  0  0
 14 13  2  0  0  0  0
 14 15  1  0  0  0  0
 15 16  2  0  0  0  0
 16 17  1  0  0  0  0
 18  8  1  0  0  0  0
 18 17  2  0  0  0  0
 19 25  1  0  0  0  0
 19 24  1  0  0  0  0
 20 19  2  0  0  0  0
 21 20  1  0  0  0  0
 21 22  2  0  0  0  0
 22 23  1  0  0  0  0
 23 24  2  0  0  0  0
 23 26  1  0  0  0  0
 27 20  1  0  0  0  0
 28 27  1  0  0  0  0
 29 27  1  0  0  0  0
M  END
>  <minimizedAffinity>
-5.60447788

>  <minimizedRMSD>
0.824702561

$$$$
