
 OpenBabel03242517233D

 45 49  0  0  1  0  0  0  0  0999 V2000
   44.5640   35.3780   45.6210 C   0  0  0  0  0  0  0  0  0  0  0  0
   44.3850   35.8260   44.2980 C   0  0  0  0  0  0  0  0  0  0  0  0
   44.9220   35.0620   43.2470 C   0  0  0  0  0  0  0  0  0  0  0  0
   45.5860   33.9270   43.5740 N   0  0  0  0  0  0  0  0  0  0  0  0
   45.7410   33.5210   44.8600 C   0  0  0  0  0  0  0  0  0  0  0  0
   45.2300   34.2450   45.8940 N   0  0  0  0  0  0  0  0  0  0  0  0
   46.4580   32.3070   45.1030 N   0  0  0  0  0  0  0  0  0  0  0  0
   46.3430   31.7540   46.4520 C   0  0  0  0  0  0  0  0  0  0  0  0
   47.3580   30.7530   46.8070 C   0  0  0  0  0  0  0  0  0  0  0  0
   47.7300   29.9280   45.6190 C   0  0  0  0  0  0  0  0  0  0  0  0
   48.3290   30.8510   44.6030 C   0  0  0  0  0  0  0  0  0  0  0  0
   47.2360   31.6970   44.0540 C   0  0  2  0  0  0  0  0  0  0  0  0
   44.1850   35.9030   46.4830 H   0  0  0  0  0  0  0  0  0  0  0  0
   43.8450   36.7400   44.1300 H   0  0  0  0  0  0  0  0  0  0  0  0
   44.7930   35.3960   42.2270 H   0  0  0  0  0  0  0  0  0  0  0  0
   46.2460   32.5860   47.2000 H   0  0  0  0  0  0  0  0  0  0  0  0
   45.3360   31.2470   46.4600 H   0  0  0  0  0  0  0  0  0  0  0  0
   46.9030   30.0480   47.5630 H   0  0  0  0  0  0  0  0  0  0  0  0
   48.2360   31.1850   47.2880 H   0  0  0  0  0  0  0  0  0  0  0  0
   48.5410   29.2270   45.9560 H   0  0  0  0  0  0  0  0  0  0  0  0
   46.8880   29.3260   45.2430 H   0  0  0  0  0  0  0  0  0  0  0  0
   49.0570   31.4930   45.1540 H   0  0  0  0  0  0  0  0  0  0  0  0
   48.8650   30.3190   43.8040 H   0  0  0  0  0  0  0  0  0  0  0  0
   46.5160   31.0190   43.5130 H   0  0  0  0  0  0  0  0  0  0  0  0
   46.7550   31.4220   41.2360 F   0  0  0  0  0  0  0  0  0  0  0  0
   47.4790   32.5150   41.6470 C   0  0  0  0  0  0  0  0  0  0  0  0
   47.7080   32.6430   43.0090 C   0  0  0  0  0  0  0  0  0  0  0  0
   48.4420   33.7610   43.3740 C   0  0  0  0  0  0  0  0  0  0  0  0
   48.9260   34.6950   42.4890 C   0  0  0  0  0  0  0  0  0  0  0  0
   48.6750   34.5300   41.1390 C   0  0  0  0  0  0  0  0  0  0  0  0
   47.9580   33.4440   40.7370 C   0  0  0  0  0  0  0  0  0  0  0  0
   48.6620   33.9320   44.4260 H   0  0  0  0  0  0  0  0  0  0  0  0
   49.4900   35.5510   42.7970 H   0  0  0  0  0  0  0  0  0  0  0  0
   49.0040   35.1950   40.3600 H   0  0  0  0  0  0  0  0  0  0  0  0
   47.6300   33.1630   39.3220 C   0  0  0  0  0  0  0  0  0  0  0  0
   48.6490   32.8310   38.4460 C   0  0  0  0  0  0  0  0  0  0  0  0
   49.6420   32.7900   38.8350 H   0  0  0  0  0  0  0  0  0  0  0  0
   48.3880   32.5630   37.1230 C   0  0  0  0  0  0  0  0  0  0  0  0
   47.0830   32.6370   36.6970 C   0  0  0  0  0  0  0  0  0  0  0  0
   46.0380   32.9710   37.5660 C   0  0  0  0  0  0  0  0  0  0  0  0
   44.7250   33.0440   37.1290 C   0  0  0  0  0  0  0  0  0  0  0  0
   43.7310   33.3750   38.0170 C   0  0  0  0  0  0  0  0  0  0  0  0
   43.9940   33.6460   39.3540 C   0  0  0  0  0  0  0  0  0  0  0  0
   45.3090   33.5760   39.7960 C   0  0  0  0  0  0  0  0  0  0  0  0
   46.3200   33.2380   38.8960 C   0  0  0  0  0  0  0  0  0  0  0  0
  1  6  1  0  0  0  0
  1 13  1  0  0  0  0
  2  1  2  0  0  0  0
  3  4  2  0  0  0  0
  3  2  1  0  0  0  0
  4  5  1  0  0  0  0
  5  7  1  0  0  0  0
  5  6  2  0  0  0  0
  7  8  1  0  0  0  0
  8 17  1  0  0  0  0
  8  9  1  0  0  0  0
  8 16  1  0  0  0  0
  9 19  1  0  0  0  0
  9 18  1  0  0  0  0
 10 20  1  0  0  0  0
 10  9  1  0  0  0  0
 11 22  1  0  0  0  0
 11 10  1  0  0  0  0
 12 24  1  6  0  0  0
 12 11  1  0  0  0  0
 12  7  1  0  0  0  0
 14  2  1  0  0  0  0
 15  3  1  0  0  0  0
 21 10  1  0  0  0  0
 23 11  1  0  0  0  0
 25 26  1  0  0  0  0
 26 27  1  0  0  0  0
 27 28  2  0  0  0  0
 27 12  1  0  0  0  0
 28 32  1  0  0  0  0
 29 33  1  0  0  0  0
 29 28  1  0  0  0  0
 30 29  2  0  0  0  0
 31 30  1  0  0  0  0
 31 26  2  0  0  0  0
 34 30  1  0  0  0  0
 35 31  1  0  0  0  0
 36 37  1  0  0  0  0
 36 35  2  0  0  0  0
 38 36  1  0  0  0  0
 39 38  2  0  0  0  0
 39 40  1  0  0  0  0
 40 45  1  0  0  0  0
 41 40  2  0  0  0  0
 41 42  1  0  0  0  0
 42 43  2  0  0  0  0
 43 44  1  0  0  0  0
 45 35  1  0  0  0  0
 45 44  2  0  0  0  0
M  END
>  <minimizedAffinity>
-6.15196991

>  <minimizedRMSD>
1.5231396

$$$$
