
 OpenBabel03242516063D

 38 42  0  0  0  0  0  0  0  0999 V2000
   45.4680   32.9460   41.1900 Cl  0  0  0  0  0  0  0  0  0  0  0  0
   46.8110   34.0560   41.1040 C   0  0  0  0  0  0  0  0  0  0  0  0
   47.1390   34.8860   42.1380 C   0  0  0  0  0  0  0  0  0  0  0  0
   48.2040   35.7100   41.9470 C   0  0  0  0  0  0  0  0  0  0  0  0
   48.9260   35.7360   40.8050 C   0  0  0  0  0  0  0  0  0  0  0  0
   48.6030   34.9080   39.7650 C   0  0  0  0  0  0  0  0  0  0  0  0
   47.5190   34.0490   39.9220 C   0  0  0  0  0  0  0  0  0  0  0  0
   48.4960   36.3830   42.7450 H   0  0  0  0  0  0  0  0  0  0  0  0
   49.7750   36.3870   40.6420 H   0  0  0  0  0  0  0  0  0  0  0  0
   49.1750   34.9190   38.8410 H   0  0  0  0  0  0  0  0  0  0  0  0
   44.5230   35.6340   44.7760 C   0  0  0  0  0  0  0  0  0  0  0  0
   45.2830   35.7150   43.6110 C   0  0  0  0  0  0  0  0  0  0  0  0
   46.3360   34.8200   43.3450 C   0  0  0  0  0  0  0  0  0  0  0  0
   46.5520   33.8820   44.3010 N   0  0  0  0  0  0  0  0  0  0  0  0
   45.8080   33.8140   45.4250 C   0  0  0  0  0  0  0  0  0  0  0  0
   44.8090   34.6850   45.6500 N   0  0  0  0  0  0  0  0  0  0  0  0
   43.7180   36.3220   44.9720 H   0  0  0  0  0  0  0  0  0  0  0  0
   45.0610   36.4890   42.8830 H   0  0  0  0  0  0  0  0  0  0  0  0
   46.1620   32.9830   46.0470 H   0  0  0  0  0  0  0  0  0  0  0  0
   47.1520   33.1460   38.8040 C   0  0  0  0  0  0  0  0  0  0  0  0
   48.0130   32.1670   38.3060 C   0  0  0  0  0  0  0  0  0  0  0  0
   47.0380   31.3890   36.9770 S   0  0  0  0  0  0  0  0  0  0  0  0
   45.5720   32.5480   37.3140 C   0  0  0  0  0  0  0  0  0  0  0  0
   46.0040   33.1480   38.1590 N   0  0  0  0  0  0  0  0  0  0  0  0
   44.3180   32.5590   36.6230 N   0  0  0  0  0  0  0  0  0  0  0  0
   43.7990   31.6720   36.8560 H   0  0  0  0  0  0  0  0  0  0  0  0
   44.0000   33.3130   36.0100 H   0  0  0  0  0  0  0  0  0  0  0  0
   49.3580   31.7460   38.6390 C   0  0  0  0  0  0  0  0  0  0  0  0
   50.2680   31.9970   37.6090 C   0  0  0  0  0  0  0  0  0  0  0  0
   50.1240   32.4490   36.6220 H   0  0  0  0  0  0  0  0  0  0  0  0
   51.5970   31.6600   37.7560 C   0  0  0  0  0  0  0  0  0  0  0  0
   52.0730   31.0670   38.9170 C   0  0  0  0  0  0  0  0  0  0  0  0
   51.1720   30.8210   39.9280 C   0  0  0  0  0  0  0  0  0  0  0  0
   51.5710   30.2350   41.1170 C   0  0  0  0  0  0  0  0  0  0  0  0
   50.6090   30.0230   42.0890 C   0  0  0  0  0  0  0  0  0  0  0  0
   49.2730   30.3600   41.9470 C   0  0  0  0  0  0  0  0  0  0  0  0
   48.8830   30.9470   40.7540 C   0  0  0  0  0  0  0  0  0  0  0  0
   49.8420   31.1570   39.7870 C   0  0  0  0  0  0  0  0  0  0  0  0
  2  1  1  0  0  0  0
  2  3  1  0  0  0  0
  3 13  1  0  0  0  0
  4  3  2  0  0  0  0
  4  8  1  0  0  0  0
  5  4  1  0  0  0  0
  6  7  1  0  0  0  0
  6  5  2  0  0  0  0
  7  2  2  0  0  0  0
  9  5  1  0  0  0  0
 10  6  1  0  0  0  0
 11 17  1  0  0  0  0
 11 16  1  0  0  0  0
 12 11  2  0  0  0  0
 13 12  1  0  0  0  0
 13 14  2  0  0  0  0
 14 15  1  0  0  0  0
 15 16  2  0  0  0  0
 15 19  1  0  0  0  0
 18 12  1  0  0  0  0
 20  7  1  0  0  0  0
 21 28  1  0  0  0  0
 21 20  2  0  0  0  0
 22 23  1  0  0  0  0
 22 21  1  0  0  0  0
 23 24  2  0  0  0  0
 24 20  1  0  0  0  0
 25 26  1  0  0  0  0
 25 23  1  0  0  0  0
 27 25  1  0  0  0  0
 28 38  1  0  0  0  0
 29 31  1  0  0  0  0
 29 28  2  0  0  0  0
 30 29  1  0  0  0  0
 31 32  2  0  0  0  0
 32 33  1  0  0  0  0
 33 34  1  0  0  0  0
 34 35  2  0  0  0  0
 36 35  1  0  0  0  0
 37 36  2  0  0  0  0
 38 33  2  0  0  0  0
 38 37  1  0  0  0  0
M  END
>  <minimizedAffinity>
-6.56016207

>  <minimizedRMSD>
2.36382103

$$$$
