
 OpenBabel03242518293D

 23 25  0  0  0  0  0  0  0  0999 V2000
   47.0090   33.6530   41.2990 O   0  0  0  0  0  0  0  0  0  0  0  0
   47.1560   33.7190   39.9190 C   0  0  0  0  0  0  0  0  0  0  0  0
   48.2310   34.2580   39.2340 C   0  0  0  0  0  0  0  0  0  0  0  0
   49.0220   34.6600   39.8620 H   0  0  0  0  0  0  0  0  0  0  0  0
   48.2210   34.2450   37.8730 C   0  0  0  0  0  0  0  0  0  0  0  0
   47.1770   33.7140   37.1310 C   0  0  0  0  0  0  0  0  0  0  0  0
   46.1190   33.1840   37.8010 C   0  0  0  0  0  0  0  0  0  0  0  0
   45.0820   32.6570   37.0570 C   0  0  0  0  0  0  0  0  0  0  0  0
   43.9910   32.1100   37.6870 C   0  0  0  0  0  0  0  0  0  0  0  0
   43.9390   32.0910   39.0750 C   0  0  0  0  0  0  0  0  0  0  0  0
   44.9830   32.6220   39.8020 C   0  0  0  0  0  0  0  0  0  0  0  0
   46.0930   33.1790   39.1930 C   0  0  0  0  0  0  0  0  0  0  0  0
   47.1900   34.7590   42.1230 C   0  0  0  0  0  0  0  0  0  0  0  0
   48.0590   35.6010   41.7780 O   0  0  0  0  0  0  0  0  0  0  0  0
   46.3490   34.7980   43.2800 C   0  0  0  0  0  0  0  0  0  0  0  0
   45.4280   35.8300   43.2510 C   0  0  0  0  0  0  0  0  0  0  0  0
   44.5670   35.9230   44.3670 C   0  0  0  0  0  0  0  0  0  0  0  0
   44.6820   35.0320   45.3710 N   0  0  0  0  0  0  0  0  0  0  0  0
   45.6030   34.0430   45.3400 C   0  0  0  0  0  0  0  0  0  0  0  0
   46.4390   33.9270   44.2910 N   0  0  0  0  0  0  0  0  0  0  0  0
   45.2700   36.5710   42.5070 H   0  0  0  0  0  0  0  0  0  0  0  0
   43.8140   36.6750   44.4650 H   0  0  0  0  0  0  0  0  0  0  0  0
   45.7420   33.3000   46.1140 H   0  0  0  0  0  0  0  0  0  0  0  0
  1 13  1  0  0  0  0
  2  1  1  0  0  0  0
  3  4  1  0  0  0  0
  3  2  1  0  0  0  0
  5  3  2  0  0  0  0
  6  7  2  0  0  0  0
  6  5  1  0  0  0  0
  7 12  1  0  0  0  0
  8  9  2  0  0  0  0
  8  7  1  0  0  0  0
  9 10  1  0  0  0  0
 10 11  2  0  0  0  0
 12 11  1  0  0  0  0
 12  2  2  0  0  0  0
 13 15  1  0  0  0  0
 14 13  2  0  0  0  0
 15 20  1  0  0  0  0
 16 15  2  0  0  0  0
 16 17  1  0  0  0  0
 17 22  1  0  0  0  0
 17 18  2  0  0  0  0
 19 18  1  0  0  0  0
 19 23  1  0  0  0  0
 20 19  2  0  0  0  0
 21 16  1  0  0  0  0
M  END
>  <minimizedAffinity>
-4.93146563

>  <minimizedRMSD>
0.881136715

$$$$
