
 OpenBabel03252503133D

 36 40  0  0  0  0  0  0  0  0999 V2000
   46.5080   34.7930   41.8950 C   0  0  0  0  0  0  0  0  0  0  0  0
   47.7170   35.1610   41.8430 O   0  0  0  0  0  0  0  0  0  0  0  0
   45.2300   36.1370   43.5030 C   0  0  0  0  0  0  0  0  0  0  0  0
   45.8720   34.9290   43.1620 C   0  0  0  0  0  0  0  0  0  0  0  0
   45.8210   33.9470   44.1300 C   0  0  0  0  0  0  0  0  0  0  0  0
   45.2010   34.1280   45.3160 N   0  0  0  0  0  0  0  0  0  0  0  0
   44.5950   35.3060   45.6020 C   0  0  0  0  0  0  0  0  0  0  0  0
   44.6110   36.3060   44.6960 N   0  0  0  0  0  0  0  0  0  0  0  0
   45.2190   36.9710   42.7990 H   0  0  0  0  0  0  0  0  0  0  0  0
   44.0990   35.4510   46.5490 H   0  0  0  0  0  0  0  0  0  0  0  0
   46.4420   32.7140   43.8740 C   0  0  0  0  0  0  0  0  0  0  0  0
   47.7010   32.2160   44.0470 C   0  0  0  0  0  0  0  0  0  0  0  0
   48.0600   30.9870   43.7260 C   0  0  0  0  0  0  0  0  0  0  0  0
   47.0770   30.2040   43.1920 C   0  0  0  0  0  0  0  0  0  0  0  0
   45.6000   31.3140   43.1690 S   0  0  0  0  0  0  0  0  0  0  0  0
   48.4170   32.9390   44.4880 H   0  0  0  0  0  0  0  0  0  0  0  0
   49.0330   30.5330   43.8360 H   0  0  0  0  0  0  0  0  0  0  0  0
   47.0900   29.1490   42.8360 H   0  0  0  0  0  0  0  0  0  0  0  0
   45.7480   34.2450   40.7340 C   0  0  0  0  0  0  0  0  0  0  0  0
   44.4000   34.3290   40.5130 C   0  0  0  0  0  0  0  0  0  0  0  0
   44.1790   33.6940   39.3520 N   0  0  0  0  0  0  0  0  0  0  0  0
   45.3510   33.2240   38.8620 C   0  0  0  0  0  0  0  0  0  0  0  0
   46.2890   33.5750   39.7250 N   0  0  0  0  0  0  0  0  0  0  0  0
   43.7610   34.8330   41.2090 H   0  0  0  0  0  0  0  0  0  0  0  0
   43.2040   33.6540   39.0170 H   0  0  0  0  0  0  0  0  0  0  0  0
   45.3050   32.5030   37.5980 C   0  0  0  0  0  0  0  0  0  0  0  0
   44.2090   31.7620   37.2130 C   0  0  0  0  0  0  0  0  0  0  0  0
   43.3240   31.6760   37.8280 H   0  0  0  0  0  0  0  0  0  0  0  0
   44.1140   31.0630   36.0300 C   0  0  0  0  0  3  0  0  0  0  0  0
   45.1630   31.0790   35.1460 C   0  0  0  0  0  3  0  0  0  0  0  0
   46.2800   31.7960   35.4700 C   0  0  0  0  0  0  0  0  0  0  0  0
   47.3320   31.8100   34.5790 C   0  0  0  0  0  3  0  0  0  0  0  0
   48.4810   32.5110   34.8450 C   0  0  0  0  0  3  0  0  0  0  0  0
   48.5590   33.2150   36.0490 C   0  0  0  0  0  3  0  0  0  0  0  0
   47.4750   33.1600   36.8960 C   0  0  0  0  0  3  0  0  0  0  0  0
   46.3110   32.4710   36.6630 C   0  0  0  0  0  0  0  0  0  0  0  0
  1  4  1  0  0  0  0
  2  1  2  0  0  0  0
  3  8  1  0  0  0  0
  4  3  2  0  0  0  0
  4  5  1  0  0  0  0
  5  6  2  0  0  0  0
  6  7  1  0  0  0  0
  7 10  1  0  0  0  0
  8  7  2  0  0  0  0
  9  3  1  0  0  0  0
 11 12  2  0  0  0  0
 11  5  1  0  0  0  0
 12 16  1  0  0  0  0
 13 17  1  0  0  0  0
 13 12  1  0  0  0  0
 14 13  2  0  0  0  0
 15 14  1  0  0  0  0
 15 11  1  0  0  0  0
 18 14  1  0  0  0  0
 19  1  1  0  0  0  0
 20 19  2  0  0  0  0
 20 24  1  0  0  0  0
 21 20  1  0  0  0  0
 22 21  1  0  0  0  0
 22 23  2  0  0  0  0
 23 19  1  0  0  0  0
 25 21  1  0  0  0  0
 26 22  1  0  0  0  0
 27 26  1  0  0  0  0
 27 28  1  0  0  0  0
 29 27  2  0  0  0  0
 30 31  2  0  0  0  0
 30 29  1  0  0  0  0
 31 36  1  0  0  0  0
 32 33  2  0  0  0  0
 32 31  1  0  0  0  0
 33 34  1  0  0  0  0
 34 35  2  0  0  0  0
 36 35  1  0  0  0  0
 36 26  2  0  0  0  0
M  END
>  <minimizedAffinity>
-5.71052933

>  <minimizedRMSD>
0.231805608

$$$$
