
 OpenBabel03252504343D

 42 45  0  0  0  0  0  0  0  0999 V2000
   37.3990   32.6890   39.3240 C   0  0  0  0  0  0  0  0  0  0  0  0
   36.3280   32.5020   39.0730 H   0  0  0  0  0  0  0  0  0  0  0  0
   37.9430   32.7110   38.3550 H   0  0  0  0  0  0  0  0  0  0  0  0
   36.9630   31.0050   41.0280 C   0  0  0  0  0  0  0  0  0  0  0  0
   37.8340   31.4280   40.0030 C   0  0  0  0  0  0  0  0  0  0  0  0
   38.9320   30.6740   39.7620 C   0  0  0  0  0  0  0  0  0  0  0  0
   39.0960   29.5820   40.5270 N   0  0  0  0  0  0  0  0  0  0  0  0
   38.2930   29.1810   41.4800 C   0  0  0  0  0  0  0  0  0  0  0  0
   37.1740   29.9130   41.7550 N   0  0  0  0  0  0  0  0  0  0  0  0
   36.0590   31.5430   41.2930 H   0  0  0  0  0  0  0  0  0  0  0  0
   39.5670   31.0260   38.9790 H   0  0  0  0  0  0  0  0  0  0  0  0
   38.7200   27.9670   42.1470 C   0  0  0  0  0  0  0  0  0  0  0  0
   39.6500   28.0300   43.1310 C   0  0  0  0  0  0  0  0  0  0  0  0
   40.1180   28.9580   43.4710 H   0  0  0  0  0  0  0  0  0  0  0  0
   40.1350   26.9320   43.8400 C   0  0  0  0  0  3  0  0  0  0  0  0
   39.6640   25.6710   43.5540 C   0  0  0  0  0  3  0  0  0  0  0  0
   38.7170   25.5510   42.5600 C   0  0  0  0  0  0  0  0  0  0  0  0
   38.2310   24.3010   42.2570 C   0  0  0  0  0  3  0  0  0  0  0  0
   37.2760   24.1100   41.2690 C   0  0  0  0  0  3  0  0  0  0  0  0
   36.8430   25.2460   40.6090 C   0  0  0  0  0  3  0  0  0  0  0  0
   37.3500   26.4820   40.9370 C   0  0  0  0  0  3  0  0  0  0  0  0
   38.2940   26.6860   41.9120 C   0  0  0  0  0  0  0  0  0  0  0  0
   37.6860   33.8130   40.0470 O   0  0  0  0  0  0  0  0  0  0  0  0
   38.8710   34.1540   40.6760 C   0  0  0  0  0  3  0  0  0  0  0  0
   39.5400   35.1710   40.1420 C   0  0  0  0  0  3  0  0  0  0  0  0
   40.8530   35.7380   40.6390 C   0  0  0  0  0  0  0  0  0  0  0  0
   40.8290   35.9650   41.7110 H   0  0  0  0  0  0  0  0  0  0  0  0
   40.9740   36.6890   40.0630 H   0  0  0  0  0  0  0  0  0  0  0  0
   41.8450   34.8360   40.2860 O   0  0  0  0  0  0  0  0  0  0  0  0
   42.9760   35.8680   42.4530 O   0  0  0  0  0  0  0  0  0  0  0  0
   42.9850   34.6810   41.5210 P   0  0  1  0  0  0  0  0  0  0  0  0
   42.6570   33.3060   42.4660 O   0  0  0  0  0  0  0  0  0  0  0  0
   42.3780   32.6120   41.8340 H   0  0  0  0  0  0  0  0  0  0  0  0
   44.5200   34.4790   40.8460 O   0  0  0  0  0  0  0  0  0  0  0  0
   44.5130   33.5840   39.7960 C   0  0  0  0  0  0  0  0  0  0  0  0
   45.8030   33.0180   39.2940 C   0  0  0  0  0  0  0  0  0  0  0  0
   45.0980   34.1100   38.5040 C   0  0  0  0  0  0  0  0  0  0  0  0
   43.6950   32.8560   39.8100 H   0  0  0  0  0  0  0  0  0  0  0  0
   45.8430   32.0010   38.8920 H   0  0  0  0  0  0  0  0  0  0  0  0
   46.6900   33.3800   39.8590 H   0  0  0  0  0  0  0  0  0  0  0  0
   44.5750   33.7270   37.5860 H   0  0  0  0  0  0  0  0  0  0  0  0
   45.5060   35.1290   38.4760 H   0  0  0  0  0  0  0  0  0  0  0  0
  1  5  1  0  0  0  0
  1 23  1  0  0  0  0
  2  1  1  0  0  0  0
  3  1  1  0  0  0  0
  4 10  1  0  0  0  0
  4  9  1  0  0  0  0
  5  4  2  0  0  0  0
  6  5  1  0  0  0  0
  6  7  2  0  0  0  0
  7  8  1  0  0  0  0
  8  9  2  0  0  0  0
  8 12  1  0  0  0  0
 11  6  1  0  0  0  0
 12 13  1  0  0  0  0
 13 14  1  0  0  0  0
 13 15  2  0  0  0  0
 16 15  1  0  0  0  0
 17 16  2  0  0  0  0
 18 17  1  0  0  0  0
 19 18  2  0  0  0  0
 20 21  2  0  0  0  0
 20 19  1  0  0  0  0
 21 22  1  0  0  0  0
 22 12  2  0  0  0  0
 22 17  1  0  0  0  0
 23 24  1  0  0  0  0
 25 26  1  0  0  0  0
 25 24  2  0  0  0  0
 26 27  1  0  0  0  0
 28 26  1  0  0  0  0
 29 26  1  0  0  0  0
 29 31  1  0  0  0  0
 31 30  2  1  0  0  0
 31 32  1  0  0  0  0
 33 32  1  0  0  0  0
 34 31  1  0  0  0  0
 35 38  1  0  0  0  0
 35 34  1  0  0  0  0
 36 35  1  0  0  0  0
 36 40  1  0  0  0  0
 37 36  1  0  0  0  0
 37 35  1  0  0  0  0
 39 36  1  0  0  0  0
 41 37  1  0  0  0  0
 42 37  1  0  0  0  0
M  END
>  <minimizedAffinity>
-6.30158329

$$$$

 OpenBabel03252504343D

 42 45  0  0  0  0  0  0  0  0999 V2000
   37.2280   32.8760   39.4360 C   0  0  0  0  0  0  0  0  0  0  0  0
   36.1250   33.0110   39.3480 H   0  0  0  0  0  0  0  0  0  0  0  0
   37.6350   32.9810   38.4060 H   0  0  0  0  0  0  0  0  0  0  0  0
   36.6140   31.0270   40.8950 C   0  0  0  0  0  0  0  0  0  0  0  0
   37.3880   31.4310   39.7880 C   0  0  0  0  0  0  0  0  0  0  0  0
   38.1650   30.4960   39.1930 C   0  0  0  0  0  0  0  0  0  0  0  0
   38.1320   29.2590   39.7140 N   0  0  0  0  0  0  0  0  0  0  0  0
   37.4160   28.8750   40.7420 C   0  0  0  0  0  0  0  0  0  0  0  0
   36.6180   29.7860   41.3700 N   0  0  0  0  0  0  0  0  0  0  0  0
   35.9600   31.7030   41.4370 H   0  0  0  0  0  0  0  0  0  0  0  0
   38.7360   30.8390   38.3580 H   0  0  0  0  0  0  0  0  0  0  0  0
   37.5790   27.4780   41.0910 C   0  0  0  0  0  0  0  0  0  0  0  0
   36.7930   26.5410   40.5080 C   0  0  0  0  0  0  0  0  0  0  0  0
   36.0180   26.7670   39.7700 H   0  0  0  0  0  0  0  0  0  0  0  0
   36.8600   25.1720   40.7650 C   0  0  0  0  0  3  0  0  0  0  0  0
   37.7780   24.6910   41.6710 C   0  0  0  0  0  3  0  0  0  0  0  0
   38.6030   25.6020   42.2930 C   0  0  0  0  0  0  0  0  0  0  0  0
   39.5280   25.1440   43.2010 C   0  0  0  0  0  3  0  0  0  0  0  0
   40.3890   26.0090   43.8620 C   0  0  0  0  0  3  0  0  0  0  0  0
   40.2630   27.3510   43.5560 C   0  0  0  0  0  3  0  0  0  0  0  0
   39.3270   27.7750   42.6420 C   0  0  0  0  0  3  0  0  0  0  0  0
   38.4690   26.9330   41.9800 C   0  0  0  0  0  0  0  0  0  0  0  0
   37.8940   33.7110   40.2890 O   0  0  0  0  0  0  0  0  0  0  0  0
   39.2530   33.9710   40.3560 C   0  0  0  0  0  3  0  0  0  0  0  0
   39.6220   35.2130   40.0550 C   0  0  0  0  0  3  0  0  0  0  0  0
   41.0380   35.7500   40.0550 C   0  0  0  0  0  0  0  0  0  0  0  0
   41.0980   36.7640   39.6450 H   0  0  0  0  0  0  0  0  0  0  0  0
   41.5940   35.0470   39.3860 H   0  0  0  0  0  0  0  0  0  0  0  0
   41.5110   35.6480   41.3540 O   0  0  0  0  0  0  0  0  0  0  0  0
   44.0900   35.4910   41.9590 O   0  0  0  0  0  0  0  0  0  0  0  0
   42.9150   34.7150   41.4120 P   0  0  1  0  0  0  0  0  0  0  0  0
   42.6960   33.3680   42.4260 O   0  0  0  0  0  0  0  0  0  0  0  0
   41.7870   33.0500   42.2490 H   0  0  0  0  0  0  0  0  0  0  0  0
   43.2680   34.1350   39.8660 O   0  0  0  0  0  0  0  0  0  0  0  0
   44.6270   34.0280   39.6480 C   0  0  0  0  0  0  0  0  0  0  0  0
   45.1300   33.5070   38.3400 C   0  0  0  0  0  0  0  0  0  0  0  0
   45.1530   32.6110   39.5700 C   0  0  0  0  0  0  0  0  0  0  0  0
   45.2280   34.8510   40.0490 H   0  0  0  0  0  0  0  0  0  0  0  0
   46.0730   33.8750   37.9230 H   0  0  0  0  0  0  0  0  0  0  0  0
   44.3160   33.2590   37.6240 H   0  0  0  0  0  0  0  0  0  0  0  0
   46.1790   32.4890   40.0110 H   0  0  0  0  0  0  0  0  0  0  0  0
   44.4500   31.7730   39.6610 H   0  0  0  0  0  0  0  0  0  0  0  0
  1  5  1  0  0  0  0
  1 23  1  0  0  0  0
  2  1  1  0  0  0  0
  3  1  1  0  0  0  0
  4  9  1  0  0  0  0
  4 10  1  0  0  0  0
  5  4  2  0  0  0  0
  6  7  2  0  0  0  0
  6  5  1  0  0  0  0
  7  8  1  0  0  0  0
  8 12  1  0  0  0  0
  8  9  2  0  0  0  0
 11  6  1  0  0  0  0
 12 22  1  0  0  0  0
 13 15  1  0  0  0  0
 13 12  2  0  0  0  0
 14 13  1  0  0  0  0
 15 16  2  0  0  0  0
 16 17  1  0  0  0  0
 17 18  1  0  0  0  0
 18 19  2  0  0  0  0
 20 19  1  0  0  0  0
 21 20  2  0  0  0  0
 22 17  2  0  0  0  0
 22 21  1  0  0  0  0
 23 24  1  0  0  0  0
 25 26  1  0  0  0  0
 25 24  2  0  0  0  0
 26 29  1  0  0  0  0
 27 26  1  0  0  0  0
 28 26  1  0  0  0  0
 29 31  1  0  0  0  0
 31 30  2  1  0  0  0
 31 32  1  0  0  0  0
 33 32  1  0  0  0  0
 34 31  1  0  0  0  0
 35 34  1  0  0  0  0
 35 38  1  0  0  0  0
 36 37  1  0  0  0  0
 36 35  1  0  0  0  0
 37 35  1  0  0  0  0
 37 42  1  0  0  0  0
 37 41  1  0  0  0  0
 39 36  1  0  0  0  0
 40 36  1  0  0  0  0
M  END
>  <minimizedAffinity>
-6.0703826

$$$$

 OpenBabel03252504343D

 42 45  0  0  0  0  0  0  0  0999 V2000
   37.3440   32.6580   39.3160 C   0  0  0  0  0  0  0  0  0  0  0  0
   36.2780   32.4830   39.0390 H   0  0  0  0  0  0  0  0  0  0  0  0
   37.9090   32.6960   38.3600 H   0  0  0  0  0  0  0  0  0  0  0  0
   36.9030   30.9830   41.0280 C   0  0  0  0  0  0  0  0  0  0  0  0
   37.7570   31.3810   39.9790 C   0  0  0  0  0  0  0  0  0  0  0  0
   38.8220   30.5920   39.7040 C   0  0  0  0  0  0  0  0  0  0  0  0
   38.9720   29.4930   40.4600 N   0  0  0  0  0  0  0  0  0  0  0  0
   38.1840   29.1150   41.4360 C   0  0  0  0  0  0  0  0  0  0  0  0
   37.0990   29.8830   41.7460 N   0  0  0  0  0  0  0  0  0  0  0  0
   36.0250   31.5500   41.3220 H   0  0  0  0  0  0  0  0  0  0  0  0
   39.4450   30.9260   38.9030 H   0  0  0  0  0  0  0  0  0  0  0  0
   38.5910   27.8850   42.0860 C   0  0  0  0  0  0  0  0  0  0  0  0
   39.5000   27.9220   43.0900 C   0  0  0  0  0  0  0  0  0  0  0  0
   39.9670   28.8400   43.4580 H   0  0  0  0  0  0  0  0  0  0  0  0
   39.9640   26.8070   43.7870 C   0  0  0  0  0  3  0  0  0  0  0  0
   39.4920   25.5550   43.4650 C   0  0  0  0  0  3  0  0  0  0  0  0
   38.5640   25.4610   42.4510 C   0  0  0  0  0  0  0  0  0  0  0  0
   38.0770   24.2210   42.1130 C   0  0  0  0  0  3  0  0  0  0  0  0
   37.1420   24.0560   41.1010 C   0  0  0  0  0  3  0  0  0  0  0  0
   36.7300   25.2070   40.4560 C   0  0  0  0  0  3  0  0  0  0  0  0
   37.2370   26.4330   40.8190 C   0  0  0  0  0  3  0  0  0  0  0  0
   38.1610   26.6120   41.8180 C   0  0  0  0  0  0  0  0  0  0  0  0
   37.6220   33.7650   40.0680 O   0  0  0  0  0  0  0  0  0  0  0  0
   38.7910   34.0810   40.7400 C   0  0  0  0  0  3  0  0  0  0  0  0
   39.6890   34.7760   40.0490 C   0  0  0  0  0  3  0  0  0  0  0  0
   41.0380   35.2450   40.5520 C   0  0  0  0  0  0  0  0  0  0  0  0
   41.0050   35.5550   41.6030 H   0  0  0  0  0  0  0  0  0  0  0  0
   41.2720   36.1320   39.9120 H   0  0  0  0  0  0  0  0  0  0  0  0
   41.9420   34.2240   40.3030 O   0  0  0  0  0  0  0  0  0  0  0  0
   44.5080   34.3760   40.9590 O   0  0  0  0  0  0  0  0  0  0  0  0
   43.1200   34.1550   41.5090 P   0  0  1  0  0  0  0  0  0  0  0  0
   42.8510   35.3620   42.6760 O   0  0  0  0  0  0  0  0  0  0  0  0
   41.8800   35.3930   42.8040 H   0  0  0  0  0  0  0  0  0  0  0  0
   43.0340   32.6630   42.2940 O   0  0  0  0  0  0  0  0  0  0  0  0
   42.0220   31.8690   41.7930 C   0  0  0  0  0  0  0  0  0  0  0  0
   41.0170   31.2710   42.7250 C   0  0  0  0  0  0  0  0  0  0  0  0
   42.1250   30.4020   42.1490 C   0  0  0  0  0  0  0  0  0  0  0  0
   41.5890   32.2090   40.8470 H   0  0  0  0  0  0  0  0  0  0  0  0
   39.9840   31.1140   42.3990 H   0  0  0  0  0  0  0  0  0  0  0  0
   41.1810   31.5540   43.7880 H   0  0  0  0  0  0  0  0  0  0  0  0
   41.7720   29.7160   41.3320 H   0  0  0  0  0  0  0  0  0  0  0  0
   42.9530   30.0610   42.7860 H   0  0  0  0  0  0  0  0  0  0  0  0
  1  5  1  0  0  0  0
  1 23  1  0  0  0  0
  2  1  1  0  0  0  0
  3  1  1  0  0  0  0
  4 10  1  0  0  0  0
  4  9  1  0  0  0  0
  5  4  2  0  0  0  0
  6  5  1  0  0  0  0
  6  7  2  0  0  0  0
  7  8  1  0  0  0  0
  8  9  2  0  0  0  0
  8 12  1  0  0  0  0
 11  6  1  0  0  0  0
 12 13  1  0  0  0  0
 13 14  1  0  0  0  0
 13 15  2  0  0  0  0
 16 15  1  0  0  0  0
 17 16  2  0  0  0  0
 18 17  1  0  0  0  0
 19 18  2  0  0  0  0
 20 21  2  0  0  0  0
 20 19  1  0  0  0  0
 21 22  1  0  0  0  0
 22 12  2  0  0  0  0
 22 17  1  0  0  0  0
 23 24  1  0  0  0  0
 25 26  1  0  0  0  0
 25 24  2  0  0  0  0
 26 27  1  0  0  0  0
 28 26  1  0  0  0  0
 29 26  1  0  0  0  0
 29 31  1  0  0  0  0
 31 30  2  6  0  0  0
 31 34  1  0  0  0  0
 31 32  1  0  0  0  0
 32 33  1  0  0  0  0
 35 37  1  0  0  0  0
 35 34  1  0  0  0  0
 35 36  1  0  0  0  0
 36 40  1  0  0  0  0
 37 36  1  0  0  0  0
 37 42  1  0  0  0  0
 38 35  1  0  0  0  0
 39 36  1  0  0  0  0
 41 37  1  0  0  0  0
M  END
>  <minimizedAffinity>
-6.06357002

$$$$

 OpenBabel03252504343D

 42 45  0  0  0  0  0  0  0  0999 V2000
   37.3350   32.8140   39.3120 C   0  0  0  0  0  0  0  0  0  0  0  0
   36.2850   32.8470   38.9400 H   0  0  0  0  0  0  0  0  0  0  0  0
   37.9830   32.9320   38.4170 H   0  0  0  0  0  0  0  0  0  0  0  0
   36.8210   31.0810   40.9430 C   0  0  0  0  0  0  0  0  0  0  0  0
   37.5150   31.3960   39.7570 C   0  0  0  0  0  0  0  0  0  0  0  0
   38.2440   30.4140   39.1770 C   0  0  0  0  0  0  0  0  0  0  0  0
   38.2430   29.2180   39.7890 N   0  0  0  0  0  0  0  0  0  0  0  0
   37.6030   28.9160   40.8900 C   0  0  0  0  0  0  0  0  0  0  0  0
   36.8550   29.8780   41.5060 N   0  0  0  0  0  0  0  0  0  0  0  0
   36.2110   31.8000   41.4800 H   0  0  0  0  0  0  0  0  0  0  0  0
   38.7540   30.6910   38.2810 H   0  0  0  0  0  0  0  0  0  0  0  0
   37.7860   27.5470   41.3280 C   0  0  0  0  0  0  0  0  0  0  0  0
   36.9460   26.5790   40.8860 C   0  0  0  0  0  0  0  0  0  0  0  0
   36.1120   26.7600   40.2020 H   0  0  0  0  0  0  0  0  0  0  0  0
   37.0250   25.2330   41.2380 C   0  0  0  0  0  3  0  0  0  0  0  0
   38.0140   24.8080   42.0960 C   0  0  0  0  0  3  0  0  0  0  0  0
   38.8960   25.7520   42.5750 C   0  0  0  0  0  0  0  0  0  0  0  0
   39.8920   25.3500   43.4330 C   0  0  0  0  0  3  0  0  0  0  0  0
   40.8130   26.2490   43.9520 C   0  0  0  0  0  3  0  0  0  0  0  0
   40.6710   27.5670   43.5580 C   0  0  0  0  0  3  0  0  0  0  0  0
   39.6620   27.9350   42.6970 C   0  0  0  0  0  3  0  0  0  0  0  0
   38.7450   27.0580   42.1760 C   0  0  0  0  0  0  0  0  0  0  0  0
   37.6900   33.7230   40.2690 O   0  0  0  0  0  0  0  0  0  0  0  0
   38.6840   34.6860   40.2190 C   0  0  0  0  0  3  0  0  0  0  0  0
   39.8760   34.2690   39.8030 C   0  0  0  0  0  3  0  0  0  0  0  0
   41.1200   35.1190   39.6570 C   0  0  0  0  0  0  0  0  0  0  0  0
   40.9080   36.0920   39.1990 H   0  0  0  0  0  0  0  0  0  0  0  0
   41.7770   34.5240   38.9740 H   0  0  0  0  0  0  0  0  0  0  0  0
   41.6980   35.2130   40.9140 O   0  0  0  0  0  0  0  0  0  0  0  0
   43.3270   33.4770   39.7420 O   0  0  0  0  0  0  0  0  0  0  0  0
   43.0830   34.2550   41.0130 P   0  0  1  0  0  0  0  0  0  0  0  0
   44.4590   35.2190   41.2760 O   0  0  0  0  0  0  0  0  0  0  0  0
   44.1780   35.9120   41.9080 H   0  0  0  0  0  0  0  0  0  0  0  0
   42.9440   33.2010   42.3240 O   0  0  0  0  0  0  0  0  0  0  0  0
   42.6140   31.9200   41.9300 C   0  0  0  0  0  0  0  0  0  0  0  0
   41.1800   31.4970   41.9090 C   0  0  0  0  0  0  0  0  0  0  0  0
   42.0910   31.0260   43.0330 C   0  0  0  0  0  0  0  0  0  0  0  0
   43.1950   31.5270   41.0890 H   0  0  0  0  0  0  0  0  0  0  0  0
   40.8250   30.7770   41.1650 H   0  0  0  0  0  0  0  0  0  0  0  0
   40.4790   32.3050   42.2140 H   0  0  0  0  0  0  0  0  0  0  0  0
   42.4080   29.9530   42.9280 H   0  0  0  0  0  0  0  0  0  0  0  0
   41.9810   31.4340   44.0470 H   0  0  0  0  0  0  0  0  0  0  0  0
  1  5  1  0  0  0  0
  1 23  1  0  0  0  0
  2  1  1  0  0  0  0
  3  1  1  0  0  0  0
  4 10  1  0  0  0  0
  4  9  1  0  0  0  0
  5  4  2  0  0  0  0
  6  5  1  0  0  0  0
  6  7  2  0  0  0  0
  7  8  1  0  0  0  0
  8 12  1  0  0  0  0
  8  9  2  0  0  0  0
 11  6  1  0  0  0  0
 12 22  1  0  0  0  0
 13 15  1  0  0  0  0
 13 12  2  0  0  0  0
 14 13  1  0  0  0  0
 15 16  2  0  0  0  0
 16 17  1  0  0  0  0
 17 18  1  0  0  0  0
 18 19  2  0  0  0  0
 20 19  1  0  0  0  0
 21 20  2  0  0  0  0
 22 17  2  0  0  0  0
 22 21  1  0  0  0  0
 24 23  1  0  0  0  0
 25 24  2  0  0  0  0
 26 25  1  0  0  0  0
 26 29  1  0  0  0  0
 27 26  1  0  0  0  0
 28 26  1  0  0  0  0
 29 31  1  0  0  0  0
 31 30  2  6  0  0  0
 31 32  1  0  0  0  0
 31 34  1  0  0  0  0
 32 33  1  0  0  0  0
 35 34  1  0  0  0  0
 35 37  1  0  0  0  0
 36 35  1  0  0  0  0
 36 40  1  0  0  0  0
 36 37  1  0  0  0  0
 37 42  1  0  0  0  0
 38 35  1  0  0  0  0
 39 36  1  0  0  0  0
 41 37  1  0  0  0  0
M  END
>  <minimizedAffinity>
-5.97592878

$$$$

 OpenBabel03252504343D

 42 45  0  0  0  0  0  0  0  0999 V2000
   35.3480   29.1710   39.4350 C   0  0  0  0  0  0  0  0  0  0  0  0
   34.5280   29.5930   38.8070 H   0  0  0  0  0  0  0  0  0  0  0  0
   34.8920   28.9380   40.4210 H   0  0  0  0  0  0  0  0  0  0  0  0
   36.8780   30.8210   38.5040 C   0  0  0  0  0  0  0  0  0  0  0  0
   36.2550   30.3380   39.6730 C   0  0  0  0  0  0  0  0  0  0  0  0
   36.5420   30.9600   40.8390 C   0  0  0  0  0  0  0  0  0  0  0  0
   37.4030   31.9890   40.7810 N   0  0  0  0  0  0  0  0  0  0  0  0
   37.9860   32.4450   39.7000 C   0  0  0  0  0  0  0  0  0  0  0  0
   37.7230   31.8460   38.5030 N   0  0  0  0  0  0  0  0  0  0  0  0
   36.7090   30.3880   37.5230 H   0  0  0  0  0  0  0  0  0  0  0  0
   36.0510   30.5660   41.7020 H   0  0  0  0  0  0  0  0  0  0  0  0
   38.8740   33.5670   39.9320 C   0  0  0  0  0  0  0  0  0  0  0  0
   38.3800   34.8280   39.9380 C   0  0  0  0  0  0  0  0  0  0  0  0
   37.3260   35.0720   39.7740 H   0  0  0  0  0  0  0  0  0  0  0  0
   39.1360   35.9800   40.1500 C   0  0  0  0  0  3  0  0  0  0  0  0
   40.4900   35.8770   40.3740 C   0  0  0  0  0  3  0  0  0  0  0  0
   41.0440   34.6160   40.3780 C   0  0  0  0  0  0  0  0  0  0  0  0
   42.3950   34.4890   40.6010 C   0  0  0  0  0  3  0  0  0  0  0  0
   43.0170   33.2480   40.6180 C   0  0  0  0  0  3  0  0  0  0  0  0
   42.2030   32.1520   40.4000 C   0  0  0  0  0  3  0  0  0  0  0  0
   40.8540   32.3150   40.1810 C   0  0  0  0  0  3  0  0  0  0  0  0
   40.2250   33.5350   40.1610 C   0  0  0  0  0  0  0  0  0  0  0  0
   36.0040   28.0730   38.9520 O   0  0  0  0  0  0  0  0  0  0  0  0
   36.3710   26.9220   39.6270 C   0  0  0  0  0  3  0  0  0  0  0  0
   37.4100   26.2610   39.1270 C   0  0  0  0  0  3  0  0  0  0  0  0
   38.0070   24.9820   39.6770 C   0  0  0  0  0  0  0  0  0  0  0  0
   38.3920   24.3290   38.8860 H   0  0  0  0  0  0  0  0  0  0  0  0
   37.1470   24.4800   40.1870 H   0  0  0  0  0  0  0  0  0  0  0  0
   38.9660   25.3500   40.6080 O   0  0  0  0  0  0  0  0  0  0  0  0
   37.0630   24.4140   42.2020 O   0  0  0  0  0  0  0  0  0  0  0  0
   38.4770   24.9410   42.1700 P   0  0  1  0  0  0  0  0  0  0  0  0
   39.4750   23.7200   42.8080 O   0  0  0  0  0  0  0  0  0  0  0  0
   40.3830   23.9430   42.5160 H   0  0  0  0  0  0  0  0  0  0  0  0
   38.6200   26.2900   43.1750 O   0  0  0  0  0  0  0  0  0  0  0  0
   37.9250   27.3780   42.6870 C   0  0  0  0  0  0  0  0  0  0  0  0
   37.8430   28.6310   43.4980 C   0  0  0  0  0  0  0  0  0  0  0  0
   36.6430   27.7000   43.4240 C   0  0  0  0  0  0  0  0  0  0  0  0
   38.0410   27.5610   41.6140 H   0  0  0  0  0  0  0  0  0  0  0  0
   37.8000   29.6080   43.0060 H   0  0  0  0  0  0  0  0  0  0  0  0
   38.3970   28.5680   44.4610 H   0  0  0  0  0  0  0  0  0  0  0  0
   35.8260   28.0820   42.7550 H   0  0  0  0  0  0  0  0  0  0  0  0
   36.3560   27.0910   44.2920 H   0  0  0  0  0  0  0  0  0  0  0  0
  1  5  1  0  0  0  0
  1  3  1  0  0  0  0
  2  1  1  0  0  0  0
  4  5  1  0  0  0  0
  5  6  2  0  0  0  0
  6 11  1  0  0  0  0
  7  6  1  0  0  0  0
  8 12  1  0  0  0  0
  8  7  2  0  0  0  0
  9  4  2  0  0  0  0
  9  8  1  0  0  0  0
 10  4  1  0  0  0  0
 12 13  2  0  0  0  0
 12 22  1  0  0  0  0
 13 15  1  0  0  0  0
 14 13  1  0  0  0  0
 15 16  2  0  0  0  0
 16 17  1  0  0  0  0
 17 18  1  0  0  0  0
 18 19  2  0  0  0  0
 20 19  1  0  0  0  0
 21 20  2  0  0  0  0
 22 21  1  0  0  0  0
 22 17  2  0  0  0  0
 23  1  1  0  0  0  0
 23 24  1  0  0  0  0
 25 24  2  0  0  0  0
 25 26  1  0  0  0  0
 26 28  1  0  0  0  0
 26 29  1  0  0  0  0
 27 26  1  0  0  0  0
 29 31  1  0  0  0  0
 31 30  2  6  0  0  0
 31 32  1  0  0  0  0
 31 34  1  0  0  0  0
 33 32  1  0  0  0  0
 35 34  1  0  0  0  0
 35 37  1  0  0  0  0
 35 36  1  0  0  0  0
 36 40  1  0  0  0  0
 37 36  1  0  0  0  0
 37 42  1  0  0  0  0
 38 35  1  0  0  0  0
 39 36  1  0  0  0  0
 41 37  1  0  0  0  0
M  END
>  <minimizedAffinity>
-5.92734766

$$$$

 OpenBabel03252504343D

 42 45  0  0  0  0  0  0  0  0999 V2000
   37.0930   32.5560   39.9480 C   0  0  0  0  0  0  0  0  0  0  0  0
   36.7560   33.0540   40.8870 H   0  0  0  0  0  0  0  0  0  0  0  0
   36.2440   32.6330   39.2350 H   0  0  0  0  0  0  0  0  0  0  0  0
   38.1610   30.3950   39.6020 C   0  0  0  0  0  0  0  0  0  0  0  0
   37.1790   31.1080   40.3190 C   0  0  0  0  0  0  0  0  0  0  0  0
   36.4460   30.4240   41.2280 C   0  0  0  0  0  0  0  0  0  0  0  0
   36.7200   29.1160   41.3660 N   0  0  0  0  0  0  0  0  0  0  0  0
   37.6300   28.4460   40.7050 C   0  0  0  0  0  0  0  0  0  0  0  0
   38.3910   29.0980   39.7800 N   0  0  0  0  0  0  0  0  0  0  0  0
   38.7980   30.8560   38.8540 H   0  0  0  0  0  0  0  0  0  0  0  0
   35.7130   30.9980   41.7510 H   0  0  0  0  0  0  0  0  0  0  0  0
   37.7050   27.0410   41.0550 C   0  0  0  0  0  0  0  0  0  0  0  0
   36.8540   26.1560   40.4820 C   0  0  0  0  0  0  0  0  0  0  0  0
   36.0880   26.4320   39.7510 H   0  0  0  0  0  0  0  0  0  0  0  0
   36.8340   24.7870   40.7410 C   0  0  0  0  0  3  0  0  0  0  0  0
   37.7270   24.2480   41.6390 C   0  0  0  0  0  3  0  0  0  0  0  0
   38.6160   25.1050   42.2510 C   0  0  0  0  0  0  0  0  0  0  0  0
   39.5180   24.5880   43.1510 C   0  0  0  0  0  3  0  0  0  0  0  0
   40.4400   25.3950   43.8020 C   0  0  0  0  0  3  0  0  0  0  0  0
   40.3990   26.7420   43.4940 C   0  0  0  0  0  3  0  0  0  0  0  0
   39.4840   27.2260   42.5880 C   0  0  0  0  0  3  0  0  0  0  0  0
   38.5670   26.4410   41.9360 C   0  0  0  0  0  0  0  0  0  0  0  0
   38.2370   33.0260   39.3660 O   0  0  0  0  0  0  0  0  0  0  0  0
   39.1890   33.8790   39.8990 C   0  0  0  0  0  3  0  0  0  0  0  0
   40.4570   33.5410   39.6840 C   0  0  0  0  0  3  0  0  0  0  0  0
   41.6780   34.3020   40.1570 C   0  0  0  0  0  0  0  0  0  0  0  0
   41.6130   34.5760   41.2160 H   0  0  0  0  0  0  0  0  0  0  0  0
   41.6760   35.2320   39.5340 H   0  0  0  0  0  0  0  0  0  0  0  0
   42.7840   33.5250   39.8520 O   0  0  0  0  0  0  0  0  0  0  0  0
   42.4590   34.8090   37.5530 O   0  0  0  0  0  0  0  0  0  0  0  0
   43.4020   33.9260   38.3340 P   0  0  1  0  0  0  0  0  0  0  0  0
   44.8650   34.7790   38.4910 O   0  0  0  0  0  0  0  0  0  0  0  0
   45.3460   34.3430   39.2240 H   0  0  0  0  0  0  0  0  0  0  0  0
   43.7290   32.5130   37.4690 O   0  0  0  0  0  0  0  0  0  0  0  0
   42.5770   31.9040   37.0120 C   0  0  0  0  0  0  0  0  0  0  0  0
   42.1040   30.6370   37.6490 C   0  0  0  0  0  0  0  0  0  0  0  0
   42.7910   30.5910   36.2910 C   0  0  0  0  0  0  0  0  0  0  0  0
   41.7640   32.5880   36.7480 H   0  0  0  0  0  0  0  0  0  0  0  0
   41.0340   30.4180   37.7200 H   0  0  0  0  0  0  0  0  0  0  0  0
   42.7520   30.2980   38.4860 H   0  0  0  0  0  0  0  0  0  0  0  0
   42.0780   30.4270   35.4390 H   0  0  0  0  0  0  0  0  0  0  0  0
   43.8090   30.1910   36.1960 H   0  0  0  0  0  0  0  0  0  0  0  0
  1  5  1  0  0  0  0
  1  2  1  0  0  0  0
  3  1  1  0  0  0  0
  4  9  2  0  0  0  0
  4  5  1  0  0  0  0
  5  6  2  0  0  0  0
  6  7  1  0  0  0  0
  6 11  1  0  0  0  0
  8 12  1  0  0  0  0
  8  7  2  0  0  0  0
  9  8  1  0  0  0  0
 10  4  1  0  0  0  0
 12 22  1  0  0  0  0
 13 15  1  0  0  0  0
 13 12  2  0  0  0  0
 14 13  1  0  0  0  0
 15 16  2  0  0  0  0
 16 17  1  0  0  0  0
 17 18  1  0  0  0  0
 18 19  2  0  0  0  0
 20 19  1  0  0  0  0
 21 20  2  0  0  0  0
 22 17  2  0  0  0  0
 22 21  1  0  0  0  0
 23 24  1  0  0  0  0
 23  1  1  0  0  0  0
 25 24  2  0  0  0  0
 25 26  1  0  0  0  0
 26 27  1  0  0  0  0
 28 26  1  0  0  0  0
 29 26  1  0  0  0  0
 31 30  2  6  0  0  0
 31 32  1  0  0  0  0
 31 29  1  0  0  0  0
 32 33  1  0  0  0  0
 34 31  1  0  0  0  0
 35 34  1  0  0  0  0
 35 36  1  0  0  0  0
 36 39  1  0  0  0  0
 36 40  1  0  0  0  0
 37 35  1  0  0  0  0
 37 36  1  0  0  0  0
 38 35  1  0  0  0  0
 41 37  1  0  0  0  0
 42 37  1  0  0  0  0
M  END
>  <minimizedAffinity>
-5.78848028

$$$$

 OpenBabel03252504343D

 42 45  0  0  0  0  0  0  0  0999 V2000
   39.6760   30.2880   42.7290 C   0  0  0  0  0  0  0  0  0  0  0  0
   40.6790   29.8340   42.9060 H   0  0  0  0  0  0  0  0  0  0  0  0
   39.2350   30.4640   43.7340 H   0  0  0  0  0  0  0  0  0  0  0  0
   39.6600   28.2200   41.4440 C   0  0  0  0  0  0  0  0  0  0  0  0
   38.8780   29.1730   42.1270 C   0  0  0  0  0  0  0  0  0  0  0  0
   37.5390   28.9810   42.1560 C   0  0  0  0  0  0  0  0  0  0  0  0
   37.0700   27.8920   41.5250 N   0  0  0  0  0  0  0  0  0  0  0  0
   37.7880   27.0020   40.8880 C   0  0  0  0  0  0  0  0  0  0  0  0
   39.1430   27.1580   40.8360 N   0  0  0  0  0  0  0  0  0  0  0  0
   40.7410   28.2880   41.3670 H   0  0  0  0  0  0  0  0  0  0  0  0
   36.9810   29.7240   42.6830 H   0  0  0  0  0  0  0  0  0  0  0  0
   37.0150   25.9290   40.2950 C   0  0  0  0  0  0  0  0  0  0  0  0
   36.8720   24.7550   40.9570 C   0  0  0  0  0  0  0  0  0  0  0  0
   37.3100   24.5490   41.9380 H   0  0  0  0  0  0  0  0  0  0  0  0
   36.1530   23.6570   40.4870 C   0  0  0  0  0  3  0  0  0  0  0  0
   35.5260   23.7230   39.2630 C   0  0  0  0  0  3  0  0  0  0  0  0
   35.6410   24.8960   38.5480 C   0  0  0  0  0  0  0  0  0  0  0  0
   35.0220   24.9850   37.3230 C   0  0  0  0  0  3  0  0  0  0  0  0
   35.0980   26.1360   36.5520 C   0  0  0  0  0  3  0  0  0  0  0  0
   35.8270   27.1830   37.0840 C   0  0  0  0  0  3  0  0  0  0  0  0
   36.4340   27.0600   38.3130 C   0  0  0  0  0  3  0  0  0  0  0  0
   36.3680   25.9290   39.0870 C   0  0  0  0  0  0  0  0  0  0  0  0
   39.6300   31.4370   41.9900 O   0  0  0  0  0  0  0  0  0  0  0  0
   40.6230   31.9980   41.2040 C   0  0  0  0  0  3  0  0  0  0  0  0
   40.8750   31.3770   40.0560 C   0  0  0  0  0  3  0  0  0  0  0  0
   41.9050   31.7870   39.0240 C   0  0  0  0  0  0  0  0  0  0  0  0
   42.2840   30.9330   38.4530 H   0  0  0  0  0  0  0  0  0  0  0  0
   42.7360   32.2260   39.6310 H   0  0  0  0  0  0  0  0  0  0  0  0
   41.3210   32.7660   38.2350 O   0  0  0  0  0  0  0  0  0  0  0  0
   43.5560   33.9870   38.9770 O   0  0  0  0  0  0  0  0  0  0  0  0
   42.2890   34.1460   38.1730 P   0  0  1  0  0  0  0  0  0  0  0  0
   42.7560   34.4770   36.5720 O   0  0  0  0  0  0  0  0  0  0  0  0
   41.9680   34.2870   36.0230 H   0  0  0  0  0  0  0  0  0  0  0  0
   41.4080   35.4750   38.7290 O   0  0  0  0  0  0  0  0  0  0  0  0
   40.5520   35.1390   39.7580 C   0  0  0  0  0  0  0  0  0  0  0  0
   39.3980   36.0310   40.0850 C   0  0  0  0  0  0  0  0  0  0  0  0
   40.6320   36.0360   40.9750 C   0  0  0  0  0  0  0  0  0  0  0  0
   40.3150   34.0730   39.8360 H   0  0  0  0  0  0  0  0  0  0  0  0
   38.4610   35.6080   40.4630 H   0  0  0  0  0  0  0  0  0  0  0  0
   39.3260   36.9180   39.4180 H   0  0  0  0  0  0  0  0  0  0  0  0
   40.4820   35.4890   41.9440 H   0  0  0  0  0  0  0  0  0  0  0  0
   41.3200   36.8910   40.9660 H   0  0  0  0  0  0  0  0  0  0  0  0
  1  2  1  0  0  0  0
  1  3  1  0  0  0  0
  4  5  1  0  0  0  0
  5  6  2  0  0  0  0
  5  1  1  0  0  0  0
  6 11  1  0  0  0  0
  7  6  1  0  0  0  0
  8  7  2  0  0  0  0
  9  8  1  0  0  0  0
  9  4  2  0  0  0  0
 10  4  1  0  0  0  0
 12  8  1  0  0  0  0
 12 13  1  0  0  0  0
 13 14  1  0  0  0  0
 15 13  2  0  0  0  0
 16 15  1  0  0  0  0
 17 22  1  0  0  0  0
 17 16  2  0  0  0  0
 18 17  1  0  0  0  0
 19 20  1  0  0  0  0
 19 18  2  0  0  0  0
 20 21  2  0  0  0  0
 21 22  1  0  0  0  0
 22 12  2  0  0  0  0
 23  1  1  0  0  0  0
 24 23  1  0  0  0  0
 25 24  2  0  0  0  0
 26 28  1  0  0  0  0
 26 25  1  0  0  0  0
 27 26  1  0  0  0  0
 29 26  1  0  0  0  0
 31 29  1  0  0  0  0
 31 34  1  0  0  0  0
 31 30  2  1  0  0  0
 32 31  1  0  0  0  0
 33 32  1  0  0  0  0
 34 35  1  0  0  0  0
 35 38  1  0  0  0  0
 35 36  1  0  0  0  0
 35 37  1  0  0  0  0
 36 39  1  0  0  0  0
 36 37  1  0  0  0  0
 37 41  1  0  0  0  0
 40 36  1  0  0  0  0
 42 37  1  0  0  0  0
M  END
>  <minimizedAffinity>
-5.6800108

$$$$

 OpenBabel03252504343D

 42 45  0  0  0  0  0  0  0  0999 V2000
   37.3310   33.0970   39.5110 C   0  0  0  0  0  0  0  0  0  0  0  0
   36.2890   33.3540   39.2060 H   0  0  0  0  0  0  0  0  0  0  0  0
   37.9370   33.1070   38.5790 H   0  0  0  0  0  0  0  0  0  0  0  0
   38.2200   30.8380   39.3250 C   0  0  0  0  0  0  0  0  0  0  0  0
   37.2410   31.6600   39.9200 C   0  0  0  0  0  0  0  0  0  0  0  0
   36.3570   31.0740   40.7610 C   0  0  0  0  0  0  0  0  0  0  0  0
   36.4910   29.7520   40.9550 N   0  0  0  0  0  0  0  0  0  0  0  0
   37.3970   28.9810   40.4070 C   0  0  0  0  0  0  0  0  0  0  0  0
   38.3070   29.5320   39.5530 N   0  0  0  0  0  0  0  0  0  0  0  0
   38.9710   31.2160   38.6380 H   0  0  0  0  0  0  0  0  0  0  0  0
   35.6320   31.7290   41.1920 H   0  0  0  0  0  0  0  0  0  0  0  0
   37.3030   27.5870   40.7930 C   0  0  0  0  0  0  0  0  0  0  0  0
   37.7860   27.1850   41.9940 C   0  0  0  0  0  0  0  0  0  0  0  0
   38.2580   27.8560   42.7170 H   0  0  0  0  0  0  0  0  0  0  0  0
   37.7500   25.8750   42.4700 C   0  0  0  0  0  3  0  0  0  0  0  0
   37.1930   24.8820   41.6980 C   0  0  0  0  0  3  0  0  0  0  0  0
   36.6860   25.2370   40.4660 C   0  0  0  0  0  0  0  0  0  0  0  0
   36.1230   24.2620   39.6780 C   0  0  0  0  0  3  0  0  0  0  0  0
   35.5940   24.5510   38.4280 C   0  0  0  0  0  3  0  0  0  0  0  0
   35.6660   25.8710   38.0240 C   0  0  0  0  0  3  0  0  0  0  0  0
   36.2350   26.8220   38.8380 C   0  0  0  0  0  3  0  0  0  0  0  0
   36.7620   26.5520   40.0760 C   0  0  0  0  0  0  0  0  0  0  0  0
   37.9180   33.8870   40.4590 O   0  0  0  0  0  0  0  0  0  0  0  0
   38.9020   34.8470   40.2940 C   0  0  0  0  0  3  0  0  0  0  0  0
   40.0610   34.4130   39.8060 C   0  0  0  0  0  3  0  0  0  0  0  0
   41.2880   35.2570   39.5310 C   0  0  0  0  0  0  0  0  0  0  0  0
   41.9820   35.2700   40.3790 H   0  0  0  0  0  0  0  0  0  0  0  0
   40.8790   36.2860   39.3730 H   0  0  0  0  0  0  0  0  0  0  0  0
   41.8530   34.7820   38.3580 O   0  0  0  0  0  0  0  0  0  0  0  0
   44.1330   33.7460   37.4810 O   0  0  0  0  0  0  0  0  0  0  0  0
   43.2270   33.8590   38.6840 P   0  0  1  0  0  0  0  0  0  0  0  0
   44.1430   34.5690   39.9290 O   0  0  0  0  0  0  0  0  0  0  0  0
   43.4900   34.9000   40.5790 H   0  0  0  0  0  0  0  0  0  0  0  0
   42.7610   32.3230   39.2090 O   0  0  0  0  0  0  0  0  0  0  0  0
   42.7640   31.4000   38.1830 C   0  0  0  0  0  0  0  0  0  0  0  0
   41.5260   31.1880   37.3710 C   0  0  0  0  0  0  0  0  0  0  0  0
   41.9200   30.1680   38.4300 C   0  0  0  0  0  0  0  0  0  0  0  0
   43.6840   31.3650   37.5910 H   0  0  0  0  0  0  0  0  0  0  0  0
   41.5980   30.9220   36.3120 H   0  0  0  0  0  0  0  0  0  0  0  0
   40.6830   31.8450   37.6780 H   0  0  0  0  0  0  0  0  0  0  0  0
   42.3610   29.2290   37.9990 H   0  0  0  0  0  0  0  0  0  0  0  0
   41.3490   30.0880   39.3640 H   0  0  0  0  0  0  0  0  0  0  0  0
  1  5  1  0  0  0  0
  1 23  1  0  0  0  0
  2  1  1  0  0  0  0
  3  1  1  0  0  0  0
  4  9  2  0  0  0  0
  4  5  1  0  0  0  0
  5  6  2  0  0  0  0
  6  7  1  0  0  0  0
  6 11  1  0  0  0  0
  8 12  1  0  0  0  0
  8  7  2  0  0  0  0
  9  8  1  0  0  0  0
 10  4  1  0  0  0  0
 12 13  1  0  0  0  0
 13 15  2  0  0  0  0
 13 14  1  0  0  0  0
 16 15  1  0  0  0  0
 17 16  2  0  0  0  0
 18 17  1  0  0  0  0
 19 18  2  0  0  0  0
 20 19  1  0  0  0  0
 20 21  2  0  0  0  0
 21 22  1  0  0  0  0
 22 17  1  0  0  0  0
 22 12  2  0  0  0  0
 24 23  1  0  0  0  0
 25 24  2  0  0  0  0
 26 25  1  0  0  0  0
 26 27  1  0  0  0  0
 28 26  1  0  0  0  0
 29 31  1  0  0  0  0
 29 26  1  0  0  0  0
 31 30  2  6  0  0  0
 31 34  1  0  0  0  0
 31 32  1  0  0  0  0
 32 33  1  0  0  0  0
 35 37  1  0  0  0  0
 35 34  1  0  0  0  0
 36 40  1  0  0  0  0
 36 35  1  0  0  0  0
 36 37  1  0  0  0  0
 37 42  1  0  0  0  0
 38 35  1  0  0  0  0
 39 36  1  0  0  0  0
 41 37  1  0  0  0  0
M  END
>  <minimizedAffinity>
-5.57541275

$$$$

 OpenBabel03252504343D

 42 45  0  0  0  0  0  0  0  0999 V2000
   36.3170   29.0210   41.5500 C   0  0  0  0  0  0  0  0  0  0  0  0
   36.1790   28.4660   40.5930 H   0  0  0  0  0  0  0  0  0  0  0  0
   35.3070   29.3730   41.8520 H   0  0  0  0  0  0  0  0  0  0  0  0
   38.3660   30.3290   41.7000 C   0  0  0  0  0  0  0  0  0  0  0  0
   37.0700   30.2500   41.1480 C   0  0  0  0  0  0  0  0  0  0  0  0
   36.6680   31.2640   40.3470 C   0  0  0  0  0  0  0  0  0  0  0  0
   37.5420   32.2630   40.1490 N   0  0  0  0  0  0  0  0  0  0  0  0
   38.7470   32.3450   40.6580 C   0  0  0  0  0  0  0  0  0  0  0  0
   39.1920   31.3430   41.4700 N   0  0  0  0  0  0  0  0  0  0  0  0
   38.7770   29.5650   42.3520 H   0  0  0  0  0  0  0  0  0  0  0  0
   35.6820   31.1680   39.9480 H   0  0  0  0  0  0  0  0  0  0  0  0
   39.4720   33.5410   40.2780 C   0  0  0  0  0  0  0  0  0  0  0  0
   39.1440   34.7340   40.8320 C   0  0  0  0  0  0  0  0  0  0  0  0
   38.3460   34.8660   41.5680 H   0  0  0  0  0  0  0  0  0  0  0  0
   39.7710   35.9450   40.5450 C   0  0  0  0  0  3  0  0  0  0  0  0
   40.8040   35.9820   39.6370 C   0  0  0  0  0  3  0  0  0  0  0  0
   41.1780   34.7960   39.0430 C   0  0  0  0  0  0  0  0  0  0  0  0
   42.2080   34.8090   38.1330 C   0  0  0  0  0  3  0  0  0  0  0  0
   42.6340   33.6500   37.4990 C   0  0  0  0  0  3  0  0  0  0  0  0
   41.9660   32.4880   37.8350 C   0  0  0  0  0  3  0  0  0  0  0  0
   40.9390   32.5100   38.7500 C   0  0  0  0  0  3  0  0  0  0  0  0
   40.5070   33.6470   39.3850 C   0  0  0  0  0  0  0  0  0  0  0  0
   36.9060   28.3480   42.5850 O   0  0  0  0  0  0  0  0  0  0  0  0
   36.7890   27.0100   42.9210 C   0  0  0  0  0  3  0  0  0  0  0  0
   37.3170   26.1460   42.0600 C   0  0  0  0  0  3  0  0  0  0  0  0
   37.3240   24.6380   42.1960 C   0  0  0  0  0  0  0  0  0  0  0  0
   37.0910   24.3110   43.2160 H   0  0  0  0  0  0  0  0  0  0  0  0
   38.3750   24.3480   41.9460 H   0  0  0  0  0  0  0  0  0  0  0  0
   36.4510   24.1390   41.2410 O   0  0  0  0  0  0  0  0  0  0  0  0
   38.7550   23.9480   39.9410 O   0  0  0  0  0  0  0  0  0  0  0  0
   37.2910   23.5820   39.8890 P   0  0  1  0  0  0  0  0  0  0  0  0
   37.2070   21.8860   39.7900 O   0  0  0  0  0  0  0  0  0  0  0  0
   36.2930   21.6530   40.0510 H   0  0  0  0  0  0  0  0  0  0  0  0
   36.5830   24.2080   38.4900 O   0  0  0  0  0  0  0  0  0  0  0  0
   36.3330   25.5620   38.5940 C   0  0  0  0  0  0  0  0  0  0  0  0
   35.3210   26.2000   37.6980 C   0  0  0  0  0  0  0  0  0  0  0  0
   36.8050   26.3900   37.4180 C   0  0  0  0  0  0  0  0  0  0  0  0
   36.3200   25.9550   39.6150 H   0  0  0  0  0  0  0  0  0  0  0  0
   34.7250   27.0480   38.0510 H   0  0  0  0  0  0  0  0  0  0  0  0
   34.8270   25.4800   37.0090 H   0  0  0  0  0  0  0  0  0  0  0  0
   37.1850   27.4060   37.7100 H   0  0  0  0  0  0  0  0  0  0  0  0
   37.2780   25.8880   36.5640 H   0  0  0  0  0  0  0  0  0  0  0  0
  1  3  1  0  0  0  0
  1 23  1  0  0  0  0
  2  1  1  0  0  0  0
  4 10  1  0  0  0  0
  5  1  1  0  0  0  0
  5  4  2  0  0  0  0
  6  5  1  0  0  0  0
  7  6  2  0  0  0  0
  7  8  1  0  0  0  0
  8  9  2  0  0  0  0
  9  4  1  0  0  0  0
 11  6  1  0  0  0  0
 12  8  1  0  0  0  0
 12 13  1  0  0  0  0
 13 14  1  0  0  0  0
 15 13  2  0  0  0  0
 16 15  1  0  0  0  0
 17 22  1  0  0  0  0
 17 16  2  0  0  0  0
 18 17  1  0  0  0  0
 19 20  1  0  0  0  0
 19 18  2  0  0  0  0
 20 21  2  0  0  0  0
 21 22  1  0  0  0  0
 22 12  2  0  0  0  0
 23 24  1  0  0  0  0
 25 26  1  0  0  0  0
 25 24  2  0  0  0  0
 26 27  1  0  0  0  0
 28 26  1  0  0  0  0
 29 26  1  0  0  0  0
 31 30  2  1  0  0  0
 31 29  1  0  0  0  0
 32 31  1  0  0  0  0
 32 33  1  0  0  0  0
 34 35  1  0  0  0  0
 34 31  1  0  0  0  0
 35 38  1  0  0  0  0
 36 39  1  0  0  0  0
 36 35  1  0  0  0  0
 37 36  1  0  0  0  0
 37 41  1  0  0  0  0
 37 35  1  0  0  0  0
 40 36  1  0  0  0  0
 42 37  1  0  0  0  0
M  END
>  <minimizedAffinity>
-5.53556681

$$$$
