REMARK  Name = 
REMARK  10 active torsions:
REMARK  status: ('A' for Active; 'I' for Inactive)
REMARK    1  A    between atoms: C_1  and  O_12
REMARK    2  A    between atoms: C_2  and  C_3
REMARK    3  A    between atoms: C_3  and  O_4
REMARK    4  A    between atoms: O_4  and  P_6
REMARK    5  A    between atoms: P_6  and  O_7
REMARK    6  A    between atoms: P_6  and  O_8
REMARK    7  A    between atoms: O_8  and  C_9
REMARK    8  A    between atoms: O_12  and  C_13
REMARK    9  A    between atoms: C_13  and  C_15
REMARK   10  A    between atoms: C_18  and  C_34
REMARK                            x       y       z     vdW  Elec       q    Type
REMARK                         _______ _______ _______ _____ _____    ______ ____
ROOT
ATOM      1  C   UNL     1      41.432  35.669  41.233  0.00  0.00    +0.000 C 
ATOM      2  H   UNL     1      41.416  35.670  42.348  0.00  0.00    +0.000 HD
ATOM      3  H   UNL     1      41.112  36.686  40.919  0.00  0.00    +0.000 HD
ENDROOT
BRANCH   1   5
ATOM      4  C   UNL     1      40.283  33.552  41.590  0.00  0.00    +0.000 A 
ATOM      5  C   UNL     1      40.306  34.757  40.858  0.00  0.00    +0.000 A 
ATOM      6  C   UNL     1      39.342  34.943  39.927  0.00  0.00    +0.000 A 
ATOM      7  N   UNL     1      38.443  33.956  39.780  0.00  0.00    +0.000 NA
ATOM      8  C   UNL     1      38.414  32.834  40.455  0.00  0.00    +0.000 A 
ATOM      9  N   UNL     1      39.368  32.607  41.404  0.00  0.00    +0.000 NA
ATOM     10  H   UNL     1      41.013  33.313  42.357  0.00  0.00    +0.000 HD
ATOM     11  H   UNL     1      39.392  35.867  39.394  0.00  0.00    +0.000 HD
BRANCH   8  12
ATOM     12  C   UNL     1      37.331  31.945  40.084  0.00  0.00    +0.000 A 
ATOM     13  C   UNL     1      36.133  32.043  40.710  0.00  0.00    +0.000 A 
ATOM     14  H   UNL     1      35.915  32.766  41.501  0.00  0.00    +0.000 HD
ATOM     15  C   UNL     1      35.023  31.245  40.437  0.00  0.00    +0.000 A 
ATOM     16  C   UNL     1      35.103  30.271  39.468  0.00  0.00    +0.000 A 
ATOM     17  C   UNL     1      36.300  30.129  38.800  0.00  0.00    +0.000 A 
ATOM     18  C   UNL     1      36.403  29.163  37.827  0.00  0.00    +0.000 A 
ATOM     19  C   UNL     1      37.579  28.967  37.117  0.00  0.00    +0.000 A 
ATOM     20  C   UNL     1      38.636  29.796  37.443  0.00  0.00    +0.000 A 
ATOM     21  C   UNL     1      38.499  30.753  38.422  0.00  0.00    +0.000 A 
ATOM     22  C   UNL     1      37.343  30.959  39.132  0.00  0.00    +0.000 A 
ENDBRANCH   8  12
ENDBRANCH   1   5
BRANCH   1  23
ATOM     23  O   UNL     1      42.611  35.341  40.624  0.00  0.00    +0.000 OA
BRANCH  23  24
ATOM     24  C   UNL     1      43.871  35.229  41.187  0.00  0.00    +0.000 C 
ATOM     25  C   UNL     1      43.968  35.574  42.467  0.00  0.00    +0.000 C 
BRANCH  25  26
ATOM     26  C   UNL     1      45.226  35.540  43.310  0.00  0.00    +0.000 C 
ATOM     27  H   UNL     1      45.522  36.537  43.655  0.00  0.00    +0.000 HD
ATOM     28  H   UNL     1      46.007  35.142  42.615  0.00  0.00    +0.000 HD
BRANCH  26  29
ATOM     29  O   UNL     1      45.000  34.641  44.341  0.00  0.00    +0.000 OA
BRANCH  29  31
ATOM     30  O   UNL     1      45.703  32.492  42.953  0.00  0.00    +0.000 OA
ATOM     31  P   UNL     1      46.005  33.294  44.196  0.00  0.00    +0.000 P 
BRANCH  31  32
ATOM     32  O   UNL     1      47.634  33.772  44.094  0.00  0.00    +0.000 OA
ATOM     33  H   UNL     1      47.731  34.512  44.728  0.00  0.00    +0.000 HD
ENDBRANCH  31  32
BRANCH  31  34
ATOM     34  O   UNL     1      45.846  32.324  45.569  0.00  0.00    +0.000 OA
BRANCH  34  35
ATOM     35  C   UNL     1      46.208  32.991  46.722  0.00  0.00    +0.000 C 
ATOM     36  C   UNL     1      47.061  32.304  47.740  0.00  0.00    +0.000 C 
ATOM     37  C   UNL     1      45.569  32.468  47.990  0.00  0.00    +0.000 C 
ATOM     38  H   UNL     1      46.456  34.049  46.589  0.00  0.00    +0.000 HD
ATOM     39  H   UNL     1      47.775  32.876  48.341  0.00  0.00    +0.000 HD
ATOM     40  H   UNL     1      47.352  31.272  47.445  0.00  0.00    +0.000 HD
ATOM     41  H   UNL     1      45.330  33.273  48.736  0.00  0.00    +0.000 HD
ATOM     42  H   UNL     1      44.897  31.601  47.934  0.00  0.00    +0.000 HD
ENDBRANCH  34  35
ENDBRANCH  31  34
ENDBRANCH  29  31
ENDBRANCH  26  29
ENDBRANCH  25  26
ENDBRANCH  23  24
ENDBRANCH   1  23
TORSDOF 10
