
 OpenBabel03252501263D

 37 41  0  0  0  0  0  0  0  0999 V2000
   44.6080   31.8590   41.0500 F   0  0  0  0  0  0  0  0  0  0  0  0
   44.1400   33.1230   40.9990 C   0  0  0  0  0  0  0  0  0  0  0  0
   44.6000   34.0550   41.9140 C   0  0  0  0  0  0  0  0  0  0  0  0
   44.1320   35.3580   41.8780 C   0  0  0  0  0  0  0  0  0  0  0  0
   43.2090   35.7740   40.9540 C   0  0  0  0  0  0  0  0  0  0  0  0
   42.7640   34.8480   40.0590 C   0  0  0  0  0  0  0  0  0  0  0  0
   43.2020   33.5430   40.0590 C   0  0  0  0  0  0  0  0  0  0  0  0
   44.4830   36.1080   42.5900 H   0  0  0  0  0  0  0  0  0  0  0  0
   42.8410   36.7800   40.9190 H   0  0  0  0  0  0  0  0  0  0  0  0
   42.0340   35.1000   39.2970 H   0  0  0  0  0  0  0  0  0  0  0  0
   42.7700   32.4900   39.1310 C   0  0  0  0  0  0  0  0  0  0  0  0
   41.6370   31.7350   39.3580 C   0  0  0  0  0  0  0  0  0  0  0  0
   41.0300   31.9000   40.2380 H   0  0  0  0  0  0  0  0  0  0  0  0
   41.3590   30.7850   38.3970 C   0  0  0  0  0  0  0  0  0  0  0  0
   42.1340   30.5730   37.2760 C   0  0  0  0  0  0  0  0  0  0  0  0
   43.2690   31.3550   37.0800 C   0  0  0  0  0  0  0  0  0  0  0  0
   44.0410   31.1410   35.9580 C   0  0  0  0  0  0  0  0  0  0  0  0
   45.1780   31.9070   35.7390 C   0  0  0  0  0  0  0  0  0  0  0  0
   45.4820   32.8720   36.6910 C   0  0  0  0  0  0  0  0  0  0  0  0
   44.7020   33.0760   37.8110 C   0  0  0  0  0  0  0  0  0  0  0  0
   43.5710   32.3100   38.0210 C   0  0  0  0  0  0  0  0  0  0  0  0
   46.2450   33.0290   44.8540 C   0  0  0  0  0  0  0  0  0  0  0  0
   47.3140   33.5220   44.1150 C   0  0  0  0  0  0  0  0  0  0  0  0
   46.8570   33.9750   42.9180 C   0  0  0  0  0  0  0  0  0  0  0  0
   45.5410   33.7690   42.9100 N   0  0  0  0  0  0  0  0  0  0  0  0
   45.1830   33.2020   44.0740 N   0  0  0  0  0  0  0  0  0  0  0  0
   48.3620   33.5660   44.3960 H   0  0  0  0  0  0  0  0  0  0  0  0
   47.4100   34.4220   42.0990 H   0  0  0  0  0  0  0  0  0  0  0  0
   47.3420   30.9940   47.6940 C   0  0  0  0  0  0  0  0  0  0  0  0
   46.4800   31.4140   48.7160 C   0  0  0  0  0  0  0  0  0  0  0  0
   45.5310   32.3930   48.4190 C   0  0  0  0  0  0  0  0  0  0  0  0
   45.5200   32.8610   47.1560 N   0  0  0  0  0  0  0  0  0  0  0  0
   46.3390   32.4640   46.1780 C   0  0  0  0  0  0  0  0  0  0  0  0
   47.2760   31.5120   46.4310 N   0  0  0  0  0  0  0  0  0  0  0  0
   48.1260   30.2430   47.7810 H   0  0  0  0  0  0  0  0  0  0  0  0
   46.6130   30.9470   49.6680 H   0  0  0  0  0  0  0  0  0  0  0  0
   44.8780   32.7110   49.1940 H   0  0  0  0  0  0  0  0  0  0  0  0
  2  1  1  0  0  0  0
  2  3  1  0  0  0  0
  3 25  1  0  0  0  0
  4  3  2  0  0  0  0
  4  8  1  0  0  0  0
  5  4  1  0  0  0  0
  6  5  2  0  0  0  0
  7  6  1  0  0  0  0
  7  2  2  0  0  0  0
  9  5  1  0  0  0  0
 10  6  1  0  0  0  0
 11 12  1  0  0  0  0
 11  7  1  0  0  0  0
 12 13  1  0  0  0  0
 14 12  2  0  0  0  0
 15 14  1  0  0  0  0
 16 15  2  0  0  0  0
 16 21  1  0  0  0  0
 17 16  1  0  0  0  0
 18 17  2  0  0  0  0
 18 19  1  0  0  0  0
 19 20  2  0  0  0  0
 20 21  1  0  0  0  0
 21 11  2  0  0  0  0
 22 33  1  0  0  0  0
 23 27  1  0  0  0  0
 23 22  1  0  0  0  0
 24 23  2  0  0  0  0
 25 24  1  0  0  0  0
 25 26  1  0  0  0  0
 26 22  2  0  0  0  0
 28 24  1  0  0  0  0
 29 35  1  0  0  0  0
 29 30  1  0  0  0  0
 30 36  1  0  0  0  0
 31 30  2  0  0  0  0
 31 37  1  0  0  0  0
 32 31  1  0  0  0  0
 33 34  1  0  0  0  0
 33 32  2  0  0  0  0
 34 29  2  0  0  0  0
M  END
>  <minimizedAffinity>
-5.72903538

>  <minimizedRMSD>
1.38615489

$$$$
