
 OpenBabel03252503133D

 36 40  0  0  0  0  0  0  0  0999 V2000
   46.5160   34.8360   41.8960 C   0  0  0  0  0  0  0  0  0  0  0  0
   47.7090   35.2520   41.8410 O   0  0  0  0  0  0  0  0  0  0  0  0
   45.2320   36.1640   43.5130 C   0  0  0  0  0  0  0  0  0  0  0  0
   45.8750   34.9590   43.1610 C   0  0  0  0  0  0  0  0  0  0  0  0
   45.8190   33.9660   44.1190 C   0  0  0  0  0  0  0  0  0  0  0  0
   45.1930   34.1360   45.3030 N   0  0  0  0  0  0  0  0  0  0  0  0
   44.5870   35.3110   45.6000 C   0  0  0  0  0  0  0  0  0  0  0  0
   44.6080   36.3200   44.7050 N   0  0  0  0  0  0  0  0  0  0  0  0
   45.2250   37.0060   42.8170 H   0  0  0  0  0  0  0  0  0  0  0  0
   44.0870   35.4470   46.5460 H   0  0  0  0  0  0  0  0  0  0  0  0
   46.4400   32.7360   43.8520 C   0  0  0  0  0  0  0  0  0  0  0  0
   47.7010   32.2400   44.0120 C   0  0  0  0  0  0  0  0  0  0  0  0
   48.0600   31.0130   43.6830 C   0  0  0  0  0  0  0  0  0  0  0  0
   47.0730   30.2300   43.1540 C   0  0  0  0  0  0  0  0  0  0  0  0
   45.5930   31.3380   43.1490 S   0  0  0  0  0  0  0  0  0  0  0  0
   48.4200   32.9630   44.4500 H   0  0  0  0  0  0  0  0  0  0  0  0
   49.0340   30.5600   43.7820 H   0  0  0  0  0  0  0  0  0  0  0  0
   47.0850   29.1760   42.7940 H   0  0  0  0  0  0  0  0  0  0  0  0
   45.7790   34.2470   40.7410 C   0  0  0  0  0  0  0  0  0  0  0  0
   44.4390   34.3400   40.4780 C   0  0  0  0  0  0  0  0  0  0  0  0
   44.2390   33.6560   39.3420 N   0  0  0  0  0  0  0  0  0  0  0  0
   45.4160   33.1480   38.9060 C   0  0  0  0  0  0  0  0  0  0  0  0
   46.3360   33.5240   39.7780 N   0  0  0  0  0  0  0  0  0  0  0  0
   43.7890   34.8840   41.1330 H   0  0  0  0  0  0  0  0  0  0  0  0
   43.2730   33.6150   38.9820 H   0  0  0  0  0  0  0  0  0  0  0  0
   45.3920   32.3710   37.6750 C   0  0  0  0  0  0  0  0  0  0  0  0
   45.5360   32.9520   36.4350 C   0  0  0  0  0  0  0  0  0  0  0  0
   45.6730   34.0160   36.3070 H   0  0  0  0  0  0  0  0  0  0  0  0
   45.5210   32.2630   35.2420 C   0  0  0  0  0  3  0  0  0  0  0  0
   45.3540   30.9010   35.2460 C   0  0  0  0  0  3  0  0  0  0  0  0
   45.2070   30.2650   36.4470 C   0  0  0  0  0  0  0  0  0  0  0  0
   45.0390   28.8950   36.4460 C   0  0  0  0  0  3  0  0  0  0  0  0
   44.8850   28.1980   37.6180 C   0  0  0  0  0  3  0  0  0  0  0  0
   44.9030   28.9130   38.8180 C   0  0  0  0  0  3  0  0  0  0  0  0
   45.0730   30.2780   38.7490 C   0  0  0  0  0  3  0  0  0  0  0  0
   45.2300   31.0080   37.5980 C   0  0  0  0  0  0  0  0  0  0  0  0
  1  4  1  0  0  0  0
  2  1  2  0  0  0  0
  3  8  1  0  0  0  0
  4  3  2  0  0  0  0
  4  5  1  0  0  0  0
  5  6  2  0  0  0  0
  6  7  1  0  0  0  0
  7 10  1  0  0  0  0
  8  7  2  0  0  0  0
  9  3  1  0  0  0  0
 11 12  2  0  0  0  0
 11  5  1  0  0  0  0
 12 16  1  0  0  0  0
 13 17  1  0  0  0  0
 13 12  1  0  0  0  0
 14 13  2  0  0  0  0
 15 14  1  0  0  0  0
 15 11  1  0  0  0  0
 18 14  1  0  0  0  0
 19  1  1  0  0  0  0
 20 19  2  0  0  0  0
 20 24  1  0  0  0  0
 21 20  1  0  0  0  0
 22 21  1  0  0  0  0
 22 23  2  0  0  0  0
 23 19  1  0  0  0  0
 25 21  1  0  0  0  0
 26 22  1  0  0  0  0
 27 26  2  0  0  0  0
 28 27  1  0  0  0  0
 29 30  2  0  0  0  0
 29 27  1  0  0  0  0
 30 31  1  0  0  0  0
 31 36  1  0  0  0  0
 32 31  2  0  0  0  0
 32 33  1  0  0  0  0
 33 34  2  0  0  0  0
 35 34  1  0  0  0  0
 36 26  1  0  0  0  0
 36 35  2  0  0  0  0
M  END
>  <minimizedAffinity>
-5.007792

>  <minimizedRMSD>
0.135253727

$$$$
