
 OpenBabel03252502083D

 50 55  0  0  0  0  0  0  0  0999 V2000
   45.5040   33.7460   45.5340 C   0  0  0  0  0  0  0  0  0  0  0  0
   44.8050   34.7370   46.0970 N   0  0  0  0  0  0  0  0  0  0  0  0
   44.4090   35.8410   45.4780 C   0  0  0  0  0  0  0  0  0  0  0  0
   44.7100   36.0280   44.1750 N   0  0  0  0  0  0  0  0  0  0  0  0
   45.4080   35.1090   43.4900 C   0  0  0  0  0  0  0  0  0  0  0  0
   45.7380   35.2880   42.1550 C   0  0  0  0  0  0  0  0  0  0  0  0
   46.4570   34.3690   41.4600 C   0  0  0  0  0  0  0  0  0  0  0  0
   46.8510   33.2410   42.1330 C   0  0  0  0  0  0  0  0  0  0  0  0
   46.4990   33.0950   43.4730 C   0  0  0  0  0  0  0  0  0  0  0  0
   45.7880   33.9860   44.1940 C   0  0  0  0  0  0  0  0  0  0  0  0
   43.8410   36.6140   45.9910 H   0  0  0  0  0  0  0  0  0  0  0  0
   45.4120   36.1900   41.6460 H   0  0  0  0  0  0  0  0  0  0  0  0
   46.6850   34.5580   40.4310 H   0  0  0  0  0  0  0  0  0  0  0  0
   47.6510   31.7860   47.6900 C   0  0  0  0  0  0  0  0  0  0  0  0
   47.1200   30.4910   47.7020 C   0  0  0  0  0  0  0  0  0  0  0  0
   45.9820   30.2820   46.9670 C   0  0  0  0  0  0  0  0  0  0  0  0
   45.4410   31.2960   46.2800 N   0  0  0  0  0  0  0  0  0  0  0  0
   45.9310   32.5240   46.2530 C   0  0  0  0  0  0  0  0  0  0  0  0
   47.0470   32.7460   46.9750 N   0  0  0  0  0  0  0  0  0  0  0  0
   45.3880   29.0420   46.9580 N   0  0  0  0  0  0  0  0  0  0  0  0
   44.0680   28.7520   46.3320 C   0  0  0  0  0  0  0  0  0  0  0  0
   43.9420   27.2560   46.3110 C   0  0  0  0  0  0  0  0  0  0  0  0
   44.7830   26.8360   47.4760 C   0  0  0  0  0  0  0  0  0  0  0  0
   45.8900   27.8320   47.5300 C   0  0  0  0  0  0  0  0  0  0  0  0
   48.5540   31.9970   48.2650 H   0  0  0  0  0  0  0  0  0  0  0  0
   43.2600   29.2700   46.8490 H   0  0  0  0  0  0  0  0  0  0  0  0
   44.1960   29.0840   45.2710 H   0  0  0  0  0  0  0  0  0  0  0  0
   42.8830   26.9420   46.4870 H   0  0  0  0  0  0  0  0  0  0  0  0
   44.3580   26.7890   45.4070 H   0  0  0  0  0  0  0  0  0  0  0  0
   45.1430   25.7860   47.4220 H   0  0  0  0  0  0  0  0  0  0  0  0
   44.1240   26.8650   48.3680 H   0  0  0  0  0  0  0  0  0  0  0  0
   46.0420   27.9870   48.6420 H   0  0  0  0  0  0  0  0  0  0  0  0
   46.7580   27.3960   47.0340 H   0  0  0  0  0  0  0  0  0  0  0  0
   47.8020   29.5240   48.3830 N   0  0  0  0  0  0  0  0  0  0  0  0
   48.4420   28.7650   48.0600 H   0  0  0  0  0  0  0  0  0  0  0  0
   47.5340   29.7090   49.3940 H   0  0  0  0  0  0  0  0  0  0  0  0
   47.6250   32.2690   41.3630 C   0  0  0  0  0  0  0  0  0  0  0  0
   46.9480   31.3380   40.5710 C   0  0  0  0  0  0  0  0  0  0  0  0
   45.8550   31.3190   40.5150 H   0  0  0  0  0  0  0  0  0  0  0  0
   47.6630   30.4120   39.8360 C   0  0  0  0  0  3  0  0  0  0  0  0
   49.0290   30.3560   39.8420 C   0  0  0  0  0  3  0  0  0  0  0  0
   49.6840   31.2790   40.6250 C   0  0  0  0  0  0  0  0  0  0  0  0
   51.0590   31.2720   40.6720 C   0  0  0  0  0  3  0  0  0  0  0  0
   51.7560   32.1770   41.4420 C   0  0  0  0  0  3  0  0  0  0  0  0
   51.0900   33.1200   42.1920 C   0  0  0  0  0  3  0  0  0  0  0  0
   49.7010   33.1230   42.1420 C   0  0  0  0  0  3  0  0  0  0  0  0
   49.0120   32.2240   41.3770 C   0  0  0  0  0  0  0  0  0  0  0  0
   46.9780   31.8450   43.9840 N   0  0  0  0  0  0  0  0  0  0  0  0
   47.8220   31.5250   44.4780 H   0  0  0  0  0  0  0  0  0  0  0  0
   46.2080   31.1670   43.7330 H   0  0  0  0  0  0  0  0  0  0  0  0
  1  2  1  0  0  0  0
  1 18  1  0  0  0  0
  3 11  1  0  0  0  0
  3  2  2  0  0  0  0
  4  3  1  0  0  0  0
  5  4  2  0  0  0  0
  5 10  1  0  0  0  0
  6  5  1  0  0  0  0
  7  8  1  0  0  0  0
  7  6  2  0  0  0  0
  8  9  2  0  0  0  0
  9 48  1  0  0  0  0
  9 10  1  0  0  0  0
 10  1  2  0  0  0  0
 12  6  1  0  0  0  0
 13  7  1  0  0  0  0
 14 15  1  0  0  0  0
 14 25  1  0  0  0  0
 15 34  1  0  0  0  0
 16 15  2  0  0  0  0
 17 16  1  0  0  0  0
 18 17  2  0  0  0  0
 18 19  1  0  0  0  0
 19 14  2  0  0  0  0
 20 16  1  0  0  0  0
 20 24  1  0  0  0  0
 21 26  1  0  0  0  0
 21 20  1  0  0  0  0
 22 21  1  0  0  0  0
 22 28  1  0  0  0  0
 22 23  1  0  0  0  0
 23 24  1  0  0  0  0
 23 31  1  0  0  0  0
 24 32  1  0  0  0  0
 27 21  1  0  0  0  0
 29 22  1  0  0  0  0
 30 23  1  0  0  0  0
 33 24  1  0  0  0  0
 34 36  1  0  0  0  0
 35 34  1  0  0  0  0
 37 47  1  0  0  0  0
 37  8  1  0  0  0  0
 38 37  2  0  0  0  0
 39 38  1  0  0  0  0
 40 41  2  0  0  0  0
 40 38  1  0  0  0  0
 41 42  1  0  0  0  0
 42 43  2  0  0  0  0
 42 47  1  0  0  0  0
 43 44  1  0  0  0  0
 44 45  2  0  0  0  0
 46 45  1  0  0  0  0
 47 46  2  0  0  0  0
 48 49  1  0  0  0  0
 50 48  1  0  0  0  0
M  END
>  <minimizedAffinity>
-7.14752293

>  <minimizedRMSD>
1.14002264

$$$$
