
     RDKit          3D

 28 30  0  0  0  0  0  0  0  0999 V2000
   44.3775   35.8177   44.5995 C   0  0  0  0  0  0  0  0  0  0  0  0
   44.5624   35.3153   43.3174 C   0  0  0  0  0  0  0  0  0  0  0  0
   45.1973   34.1000   43.1708 C   0  0  0  0  0  0  0  0  0  0  0  0
   45.6061   33.4617   44.2826 N   0  0  0  0  0  0  0  0  0  0  0  0
   45.4336   33.9338   45.5072 C   0  0  0  0  0  0  0  0  0  0  0  0
   44.8177   35.1111   45.6352 N   0  0  0  0  0  0  0  0  0  0  0  0
   44.0774   36.1014   42.2384 N   0  0  0  0  0  0  0  0  0  0  0  0
   43.8717   36.7866   44.7217 H   0  0  0  0  0  0  0  0  0  0  0  0
   45.3581   33.6802   42.1976 H   0  0  0  0  0  0  0  0  0  0  0  0
   44.7728   36.3697   41.5021 H   0  0  0  0  0  0  0  0  0  0  0  0
   43.0488   36.3099   42.3370 H   0  0  0  0  0  0  0  0  0  0  0  0
   45.8127   33.3732   46.8004 C   0  0  0  0  0  0  0  0  0  0  0  0
   47.0401   33.6216   47.4181 C   0  0  0  0  0  0  0  0  0  0  0  0
   47.7518   34.2667   46.9095 H   0  0  0  0  0  0  0  0  0  0  0  0
   47.4193   33.1085   48.6289 C   0  0  0  0  0  0  0  0  0  0  0  0
   46.5825   32.2958   49.3207 C   0  0  0  0  0  0  0  0  0  0  0  0
   45.3546   32.0034   48.7788 C   0  0  0  0  0  0  0  0  0  0  0  0
   44.5319   31.1757   49.5083 C   0  0  0  0  0  0  0  0  0  0  0  0
   43.2834   30.8341   49.0338 C   0  0  0  0  0  0  0  0  0  0  0  0
   42.9207   31.3631   47.8095 C   0  0  0  0  0  0  0  0  0  0  0  0
   43.7826   32.1836   47.1257 C   0  0  0  0  0  0  0  0  0  0  0  0
   45.0177   32.5429   47.5581 C   0  0  0  0  0  0  0  0  0  0  0  0
   48.3920   33.3610   49.0223 H   0  0  0  0  0  0  0  0  0  0  0  0
   46.9309   31.9189   50.2698 H   0  0  0  0  0  0  0  0  0  0  0  0
   44.8496   30.7811   50.4620 H   0  0  0  0  0  0  0  0  0  0  0  0
   42.6769   30.1908   49.6291 H   0  0  0  0  0  0  0  0  0  0  0  0
   41.9241   31.0650   47.4745 H   0  0  0  0  0  0  0  0  0  0  0  0
   43.3560   32.5089   46.1990 H   0  0  0  0  0  0  0  0  0  0  0  0
  1  6  2  0
  2  1  1  0
  3  2  2  0
  3  4  1  0
  4  5  2  0
  5  6  1  0
  7  2  1  0
  1  8  1  0
  3  9  1  0
  7 10  1  0
  7 11  1  0
 12 13  2  0
 13 14  1  0
 13 15  1  0
 15 16  2  0
 16 17  1  0
 17 18  2  0
 18 19  1  0
 19 20  2  0
 20 21  1  0
 21 22  2  0
 22 12  1  0
 22 17  1  0
 15 23  1  0
 16 24  1  0
 18 25  1  0
 19 26  1  0
 20 27  1  0
 21 28  1  0
  5 12  1  0
M  ISO  3   8  14   9  14  14  15
M  END
>  <DihAtoms>  (1) 
3,4,11,12

>  <DihDeg>  (1) 
-179.9986203531112

$$$$
