
     RDKit          3D

 36 39  0  0  0  0  0  0  0  0999 V2000
   44.4620   35.9562   44.8428 C   0  0  0  0  0  0  0  0  0  0  0  0
   45.1567   35.8746   43.6260 C   0  0  0  0  0  0  0  0  0  0  0  0
   46.0546   34.8413   43.3702 C   0  0  0  0  0  0  0  0  0  0  0  0
   46.2095   33.9343   44.3603 N   0  0  0  0  0  0  0  0  0  0  0  0
   45.5354   34.0226   45.5281 C   0  0  0  0  0  0  0  0  0  0  0  0
   44.6788   35.0131   45.7656 N   0  0  0  0  0  0  0  0  0  0  0  0
   44.5426   33.0912   41.3022 Br  0  0  0  0  0  0  0  0  0  0  0  0
   46.2169   33.9816   41.0994 C   0  0  0  0  0  0  0  0  0  0  0  0
   46.7910   34.7383   42.1039 C   0  0  0  0  0  0  0  0  0  0  0  0
   48.0034   35.3416   41.8582 C   0  0  0  0  0  0  0  0  0  0  0  0
   48.6698   35.2241   40.6547 C   0  0  0  0  0  0  0  0  0  0  0  0
   48.1086   34.4664   39.6298 C   0  0  0  0  0  0  0  0  0  0  0  0
   46.8957   33.8726   39.8988 C   0  0  0  0  0  0  0  0  0  0  0  0
   43.7801   36.7994   44.9543 H   0  0  0  0  0  0  0  0  0  0  0  0
   45.0545   36.5843   42.8151 H   0  0  0  0  0  0  0  0  0  0  0  0
   45.7379   33.2407   46.2491 H   0  0  0  0  0  0  0  0  0  0  0  0
   48.4328   35.9298   42.6626 H   0  0  0  0  0  0  0  0  0  0  0  0
   49.6202   35.7078   40.4877 H   0  0  0  0  0  0  0  0  0  0  0  0
   48.6128   34.3609   38.6796 H   0  0  0  0  0  0  0  0  0  0  0  0
   46.3344   33.0777   38.7853 C   0  0  0  0  0  0  0  0  0  0  0  0
   45.3014   32.1812   38.9708 C   0  0  0  0  0  0  0  0  0  0  0  0
   44.8733   32.0414   39.9619 H   0  0  0  0  0  0  0  0  0  0  0  0
   44.8438   31.4851   37.8737 C   0  0  0  0  0  0  0  0  0  0  0  0
   45.4260   31.7005   36.6254 C   0  0  0  0  0  0  0  0  0  0  0  0
   46.4670   32.6148   36.4808 C   0  0  0  0  0  0  0  0  0  0  0  0
   47.0162   32.7949   35.2128 C   0  0  0  0  0  0  0  0  0  0  0  0
   48.0557   33.7100   35.0772 C   0  0  0  0  0  0  0  0  0  0  0  0
   48.5497   34.4323   36.1466 C   0  0  0  0  0  0  0  0  0  0  0  0
   47.9623   34.2038   37.3620 C   0  0  0  0  0  0  0  0  0  0  0  0
   46.9446   33.3278   37.5733 C   0  0  0  0  0  0  0  0  0  0  0  0
   44.0274   30.7623   37.9636 H   0  0  0  0  0  0  0  0  0  0  0  0
   45.0588   31.1452   35.7576 H   0  0  0  0  0  0  0  0  0  0  0  0
   46.6622   32.2515   34.3450 H   0  0  0  0  0  0  0  0  0  0  0  0
   48.5178   33.8841   34.0990 H   0  0  0  0  0  0  0  0  0  0  0  0
   49.3556   35.1494   36.0719 H   0  0  0  0  0  0  0  0  0  0  0  0
   48.3384   34.7632   38.2134 H   0  0  0  0  0  0  0  0  0  0  0  0
  1  6  2  0
  2  1  1  0
  3  2  2  0
  3  4  1  0
  4  5  2  0
  5  6  1  0
  8  7  1  0
  8  9  2  0
  9  3  1  0
 10  9  1  0
 11 10  2  0
 12 13  2  0
 12 11  1  0
 13  8  1  0
  1 14  1  0
  2 15  1  0
  5 16  1  0
 10 17  1  0
 11 18  1  0
 12 19  1  0
 20 21  2  0
 21 22  1  0
 21 23  1  0
 23 24  2  0
 24 25  1  0
 25 26  2  0
 26 27  1  0
 27 28  2  0
 28 29  1  0
 29 30  2  0
 30 20  1  0
 30 25  1  0
 23 31  1  0
 24 32  1  0
 26 33  1  0
 27 34  1  0
 28 35  1  0
 29 36  1  0
 13 20  1  0
M  ISO  7  14  14  15  14  16  14  17  14  18  14  19  14  22  15
M  END
>  <DihAtoms>  (1) 
11,12,19,20

>  <DihDeg>  (1) 
-90.00001935794127

$$$$
