REMARK  Name = 
REMARK  2 active torsions:
REMARK  status: ('A' for Active; 'I' for Inactive)
REMARK    1  A    between atoms: C_2  and  N_7
REMARK    2  A    between atoms: C_5  and  C_12
REMARK                            x       y       z     vdW  Elec       q    Type
REMARK                         _______ _______ _______ _____ _____    ______ ____
ROOT
ATOM      1  C   UNL     1      44.377  35.818  44.599  0.00  0.00    +0.000 A 
ATOM      2  C   UNL     1      44.562  35.315  43.317  0.00  0.00    +0.000 A 
ATOM      3  C   UNL     1      45.197  34.100  43.171  0.00  0.00    +0.000 A 
ATOM      4  N   UNL     1      45.606  33.462  44.283  0.00  0.00    +0.000 NA
ATOM      5  C   UNL     1      45.434  33.934  45.507  0.00  0.00    +0.000 A 
ATOM      6  N   UNL     1      44.818  35.111  45.635  0.00  0.00    +0.000 NA
ATOM      7  H   UNL     1      43.872  36.787  44.722  0.00  0.00    +0.000 HD
ATOM      8  H   UNL     1      45.358  33.680  42.198  0.00  0.00    +0.000 HD
ENDROOT
BRANCH   5   9
ATOM      9  C   UNL     1      45.813  33.373  46.800  0.00  0.00    +0.000 A 
ATOM     10  C   UNL     1      47.040  33.622  47.418  0.00  0.00    +0.000 A 
ATOM     11  H   UNL     1      47.752  34.267  46.910  0.00  0.00    +0.000 HD
ATOM     12  C   UNL     1      47.419  33.108  48.629  0.00  0.00    +0.000 A 
ATOM     13  C   UNL     1      46.583  32.296  49.321  0.00  0.00    +0.000 A 
ATOM     14  C   UNL     1      45.355  32.003  48.779  0.00  0.00    +0.000 A 
ATOM     15  C   UNL     1      44.532  31.176  49.508  0.00  0.00    +0.000 A 
ATOM     16  C   UNL     1      43.283  30.834  49.034  0.00  0.00    +0.000 A 
ATOM     17  C   UNL     1      42.921  31.363  47.809  0.00  0.00    +0.000 A 
ATOM     18  C   UNL     1      43.783  32.184  47.126  0.00  0.00    +0.000 A 
ATOM     19  C   UNL     1      45.018  32.543  47.558  0.00  0.00    +0.000 A 
ENDBRANCH   5   9
BRANCH   2  20
ATOM     20  N   UNL     1      44.077  36.101  42.238  0.00  0.00    +0.000 N 
ATOM     21  H   UNL     1      44.773  36.370  41.502  0.00  0.00    +0.000 HD
ATOM     22  H   UNL     1      43.049  36.310  42.337  0.00  0.00    +0.000 HD
ENDBRANCH   2  20
TORSDOF 2
