
     RDKit          3D

 36 39  0  0  0  0  0  0  0  0999 V2000
   45.9685   35.4143   42.6390 C   0  0  0  0  0  0  0  0  0  0  0  0
   46.7218   34.2039   42.7184 C   0  0  0  0  0  0  0  0  0  0  0  0
   46.6394   33.4400   43.8677 C   0  0  0  0  0  0  0  0  0  0  0  0
   45.8338   33.8871   44.8780 N   0  0  0  0  0  0  0  0  0  0  0  0
   45.1229   35.0493   44.7769 C   0  0  0  0  0  0  0  0  0  0  0  0
   45.1842   35.8241   43.6544 N   0  0  0  0  0  0  0  0  0  0  0  0
   47.5796   33.8009   41.5793 C   0  0  1  0  0  0  0  0  0  0  0  0
   48.0597   34.7425   40.5958 C   0  0  0  0  0  0  0  0  0  0  0  0
   49.0457   34.2354   41.6029 C   0  0  1  0  0  0  0  0  0  0  0  0
   49.5203   35.1114   42.6936 C   0  0  0  0  0  0  0  0  0  0  0  0
   46.0024   36.0423   41.7599 H   0  0  0  0  0  0  0  0  0  0  0  0
   47.2069   32.5254   43.9312 H   0  0  0  0  0  0  0  0  0  0  0  0
   44.5262   35.2781   45.6563 H   0  0  0  0  0  0  0  0  0  0  0  0
   47.4944   32.7000   41.3791 H   0  0  0  0  0  0  0  0  0  0  0  0
   48.1331   34.4176   39.5458 H   0  0  0  0  0  0  0  0  0  0  0  0
   47.7050   35.8054   40.6725 H   0  0  0  0  0  0  0  0  0  0  0  0
   49.8132   33.5552   41.1556 H   0  0  0  0  0  0  0  0  0  0  0  0
   49.3965   34.6081   43.6731 H   0  0  0  0  0  0  0  0  0  0  0  0
   48.9429   36.0617   42.7932 H   0  0  0  0  0  0  0  0  0  0  0  0
   50.9824   35.4230   42.5526 C   0  0  0  0  0  0  0  0  0  0  0  0
   51.4476   36.7195   42.6869 C   0  0  0  0  0  0  0  0  0  0  0  0
   50.7821   37.5423   42.8970 H   0  0  0  0  0  0  0  0  0  0  0  0
   52.8160   36.9181   42.5382 C   0  0  0  0  0  0  0  0  0  0  0  0
   53.7145   35.8949   42.2673 C   0  0  0  0  0  0  0  0  0  0  0  0
   53.2427   34.6234   42.1375 C   0  0  0  0  0  0  0  0  0  0  0  0
   54.1139   33.5795   41.8682 C   0  0  0  0  0  0  0  0  0  0  0  0
   53.6709   32.2879   41.7330 C   0  0  0  0  0  0  0  0  0  0  0  0
   52.3173   32.0310   41.8708 C   0  0  0  0  0  0  0  0  0  0  0  0
   51.4698   33.0895   42.1392 C   0  0  0  0  0  0  0  0  0  0  0  0
   51.8820   34.3973   42.2809 C   0  0  0  0  0  0  0  0  0  0  0  0
   53.2357   37.9108   42.6328 H   0  0  0  0  0  0  0  0  0  0  0  0
   54.7700   36.0698   42.1569 H   0  0  0  0  0  0  0  0  0  0  0  0
   55.1692   33.7215   41.7531 H   0  0  0  0  0  0  0  0  0  0  0  0
   54.3384   31.4609   41.5237 H   0  0  0  0  0  0  0  0  0  0  0  0
   51.9519   31.0068   41.7661 H   0  0  0  0  0  0  0  0  0  0  0  0
   50.4450   32.8146   42.2307 H   0  0  0  0  0  0  0  0  0  0  0  0
  1  2  2  0
  1  6  1  0
  2  3  1  0
  3  4  2  0
  5  4  1  0
  6  5  2  0
  7  9  1  0
  7  2  1  0
  8  7  1  0
  8  9  1  0
  9 10  1  0
  1 11  1  0
  3 12  1  0
  5 13  1  0
  7 14  1  6
  8 15  1  0
  8 16  1  0
  9 17  1  6
 10 18  1  0
 10 19  1  0
 20 21  2  0
 21 22  1  0
 21 23  1  0
 23 24  2  0
 24 25  1  0
 25 26  2  0
 26 27  1  0
 27 28  2  0
 28 29  1  0
 29 30  2  0
 30 20  1  0
 30 25  1  0
 23 31  1  0
 24 32  1  0
 26 33  1  0
 27 34  1  0
 28 35  1  0
 29 36  1  0
 10 20  1  0
M  ISO  8  11  14  12  14  13  14  14  13  15  13  16  13  17  13  18   8
M  ISO  2  19   8  22  15
M  END
>  <DihAtoms>  (1) 
8,9,19,20

>  <DihDeg>  (1) 
103.23836685008685

$$$$
