REMARK  Name = 
REMARK  4 active torsions:
REMARK  status: ('A' for Active; 'I' for Inactive)
REMARK    1  A    between atoms: C_2  and  N_23
REMARK    2  A    between atoms: C_5  and  C_12
REMARK    3  A    between atoms: C_19  and  C_40
REMARK    4  A    between atoms: C_20  and  N_22
REMARK                            x       y       z     vdW  Elec       q    Type
REMARK                         _______ _______ _______ _____ _____    ______ ____
ROOT
ATOM      1  C   UNL     1      45.746  33.805  45.191  0.00  0.00    +0.000 A 
ATOM      2  N   UNL     1      44.875  34.775  45.486  0.00  0.00    +0.000 NA
ATOM      3  C   UNL     1      44.598  35.815  44.710  0.00  0.00    +0.000 A 
ATOM      4  N   UNL     1      45.217  35.951  43.518  0.00  0.00    +0.000 NA
ATOM      5  C   UNL     1      46.116  35.045  43.101  0.00  0.00    +0.000 A 
ATOM      6  C   UNL     1      46.772  35.174  41.886  0.00  0.00    +0.000 A 
ATOM      7  C   UNL     1      47.694  34.269  41.465  0.00  0.00    +0.000 A 
ATOM      8  C   UNL     1      47.956  33.209  42.294  0.00  0.00    +0.000 A 
ATOM      9  C   UNL     1      47.276  33.112  43.505  0.00  0.00    +0.000 A 
ATOM     10  C   UNL     1      46.356  33.991  43.956  0.00  0.00    +0.000 A 
ATOM     11  H   UNL     1      43.877  36.574  45.005  0.00  0.00    +0.000 HD
ATOM     12  H   UNL     1      46.544  36.023  41.249  0.00  0.00    +0.000 HD
ATOM     13  H   UNL     1      48.172  34.417  40.518  0.00  0.00    +0.000 HD
ENDROOT
BRANCH   1  18
ATOM     14  C   UNL     1      47.474  32.062  47.852  0.00  0.00    +0.000 A 
ATOM     15  C   UNL     1      46.939  30.769  47.888  0.00  0.00    +0.000 A 
ATOM     16  C   UNL     1      45.944  30.487  46.989  0.00  0.00    +0.000 A 
ATOM     17  N   UNL     1      45.537  31.431  46.131  0.00  0.00    +0.000 NA
ATOM     18  C   UNL     1      46.034  32.655  46.080  0.00  0.00    +0.000 A 
ATOM     19  N   UNL     1      47.010  32.950  46.961  0.00  0.00    +0.000 NA
ATOM     20  N   UNL     1      45.351  29.246  46.988  0.00  0.00    +0.000 N 
ATOM     21  C   UNL     1      44.156  28.891  46.172  0.00  0.00    +0.000 C 
ATOM     22  C   UNL     1      44.024  27.398  46.264  0.00  0.00    +0.000 C 
ATOM     23  C   UNL     1      44.649  27.090  47.589  0.00  0.00    +0.000 C 
ATOM     24  C   UNL     1      45.737  28.096  47.744  0.00  0.00    +0.000 C 
ATOM     25  H   UNL     1      48.266  32.331  48.553  0.00  0.00    +0.000 HD
ATOM     26  H   UNL     1      43.275  29.446  46.494  0.00  0.00    +0.000 HD
ATOM     27  H   UNL     1      44.468  29.128  45.124  0.00  0.00    +0.000 HD
ATOM     28  H   UNL     1      42.949  27.092  46.282  0.00  0.00    +0.000 HD
ATOM     29  H   UNL     1      44.587  26.855  45.491  0.00  0.00    +0.000 HD
ATOM     30  H   UNL     1      45.005  26.043  47.692  0.00  0.00    +0.000 HD
ATOM     31  H   UNL     1      43.846  27.194  48.348  0.00  0.00    +0.000 HD
ATOM     32  H   UNL     1      45.696  28.351  48.847  0.00  0.00    +0.000 HD
ATOM     33  H   UNL     1      46.675  27.624  47.446  0.00  0.00    +0.000 HD
BRANCH  15  34
ATOM     34  N   UNL     1      47.486  29.873  48.760  0.00  0.00    +0.000 N 
ATOM     35  H   UNL     1      48.166  29.093  48.621  0.00  0.00    +0.000 HD
ATOM     36  H   UNL     1      47.049  30.145  49.689  0.00  0.00    +0.000 HD
ENDBRANCH  15  34
ENDBRANCH   1  18
BRANCH   8  37
ATOM     37  C   UNL     1      48.953  32.251  41.818  0.00  0.00    +0.000 A 
ATOM     38  C   UNL     1      48.578  30.917  41.632  0.00  0.00    +0.000 A 
ATOM     39  H   UNL     1      47.558  30.576  41.835  0.00  0.00    +0.000 HD
ATOM     40  C   UNL     1      49.507  29.999  41.183  0.00  0.00    +0.000 A 
ATOM     41  C   UNL     1      50.803  30.331  40.904  0.00  0.00    +0.000 A 
ATOM     42  C   UNL     1      51.160  31.647  41.090  0.00  0.00    +0.000 A 
ATOM     43  C   UNL     1      52.451  32.041  40.825  0.00  0.00    +0.000 A 
ATOM     44  C   UNL     1      52.852  33.347  40.997  0.00  0.00    +0.000 A 
ATOM     45  C   UNL     1      51.966  34.301  41.442  0.00  0.00    +0.000 A 
ATOM     46  C   UNL     1      50.662  33.899  41.709  0.00  0.00    +0.000 A 
ATOM     47  C   UNL     1      50.266  32.602  41.537  0.00  0.00    +0.000 A 
ENDBRANCH   8  37
BRANCH   9  48
ATOM     48  N   UNL     1      47.669  31.927  44.208  0.00  0.00    +0.000 N 
ATOM     49  H   UNL     1      48.370  31.692  44.923  0.00  0.00    +0.000 HD
ATOM     50  H   UNL     1      47.026  31.186  43.816  0.00  0.00    +0.000 HD
ENDBRANCH   9  48
TORSDOF 4
