
 OpenBabel03252508263D

 43 48  0  0  1  0  0  0  0  0999 V2000
   46.2050   30.1060   46.6890 C   0  0  1  0  0  0  0  0  0  0  0  0
   46.1340   30.1440   48.1560 C   0  0  0  0  0  0  0  0  0  0  0  0
   44.9450   29.6490   47.2400 C   0  0  2  0  0  0  0  0  0  0  0  0
   47.1130   29.4420   46.4520 H   0  0  0  0  0  0  0  0  0  0  0  0
   45.9880   31.1030   48.6540 H   0  0  0  0  0  0  0  0  0  0  0  0
   46.4810   29.3410   48.8240 H   0  0  0  0  0  0  0  0  0  0  0  0
   44.1010   30.3420   47.5510 H   0  0  0  0  0  0  0  0  0  0  0  0
   44.5080   28.2540   47.3090 C   0  0  0  0  0  0  0  0  0  0  0  0
   44.9390   27.2930   48.1740 C   0  0  0  0  0  0  0  0  0  0  0  0
   44.5990   25.9480   48.1320 C   0  0  0  0  0  0  0  0  0  0  0  0
   43.7290   25.5590   47.0930 C   0  0  0  0  0  0  0  0  0  0  0  0
   43.2780   26.5240   46.2070 C   0  0  0  0  0  0  0  0  0  0  0  0
   42.3840   26.1040   45.2430 C   0  0  0  0  0  0  0  0  0  0  0  0
   41.8420   27.0410   44.3570 C   0  0  0  0  0  0  0  0  0  0  0  0
   42.1940   28.3700   44.4480 C   0  0  0  0  0  0  0  0  0  0  0  0
   43.0900   28.7310   45.4260 C   0  0  0  0  0  0  0  0  0  0  0  0
   43.6580   27.8370   46.3150 C   0  0  0  0  0  0  0  0  0  0  0  0
   45.6130   27.6560   48.9580 H   0  0  0  0  0  0  0  0  0  0  0  0
   44.9910   25.2560   48.8650 H   0  0  0  0  0  0  0  0  0  0  0  0
   43.4630   24.5100   47.0550 H   0  0  0  0  0  0  0  0  0  0  0  0
   42.1150   25.0520   45.1850 H   0  0  0  0  0  0  0  0  0  0  0  0
   41.1450   26.5910   43.6330 H   0  0  0  0  0  0  0  0  0  0  0  0
   41.6810   28.9280   43.6980 H   0  0  0  0  0  0  0  0  0  0  0  0
   43.1320   29.7800   45.3500 H   0  0  0  0  0  0  0  0  0  0  0  0
   45.9120   33.6620   45.7460 C   0  0  0  0  0  0  0  0  0  0  0  0
   46.2390   33.6430   44.3530 C   0  0  0  0  0  0  0  0  0  0  0  0
   46.5630   32.4000   43.7790 C   0  0  0  0  0  0  0  0  0  0  0  0
   46.5480   31.3200   44.5640 N   0  0  0  0  0  0  0  0  0  0  0  0
   46.2350   31.3610   45.8840 C   0  0  0  0  0  0  0  0  0  0  0  0
   45.9240   32.5160   46.4560 N   0  0  0  0  0  0  0  0  0  0  0  0
   45.6660   34.6290   46.1590 H   0  0  0  0  0  0  0  0  0  0  0  0
   46.2630   34.5710   43.8340 H   0  0  0  0  0  0  0  0  0  0  0  0
   46.9920   32.1560   42.4240 C   0  0  0  0  0  0  0  0  0  0  0  0
   45.9860   31.9590   41.4670 C   0  0  0  0  0  0  0  0  0  0  0  0
   44.9330   31.9880   41.7840 H   0  0  0  0  0  0  0  0  0  0  0  0
   46.1980   31.7260   40.1290 C   0  0  0  0  0  3  0  0  0  0  0  0
   47.4930   31.6790   39.6670 C   0  0  0  0  0  3  0  0  0  0  0  0
   48.5360   31.8670   40.5460 C   0  0  0  0  0  0  0  0  0  0  0  0
   49.8380   31.8600   40.0990 C   0  0  0  0  0  3  0  0  0  0  0  0
   50.9230   32.0840   40.9450 C   0  0  0  0  0  3  0  0  0  0  0  0
   50.5900   32.3180   42.2860 C   0  0  0  0  0  3  0  0  0  0  0  0
   49.2810   32.3180   42.7050 C   0  0  0  0  0  3  0  0  0  0  0  0
   48.2400   32.0940   41.8660 C   0  0  0  0  0  0  0  0  0  0  0  0
  1  4  1  6  0  0  0
  1  3  1  0  0  0  0
  1  2  1  0  0  0  0
  2  5  1  0  0  0  0
  2  6  1  0  0  0  0
  3  8  1  0  0  0  0
  3  7  1  6  0  0  0
  3  2  1  0  0  0  0
  8  9  1  0  0  0  0
  9 18  1  0  0  0  0
 10  9  2  0  0  0  0
 10 19  1  0  0  0  0
 11 10  1  0  0  0  0
 12 17  1  0  0  0  0
 12 11  2  0  0  0  0
 13 12  1  0  0  0  0
 14 15  1  0  0  0  0
 14 13  2  0  0  0  0
 15 16  2  0  0  0  0
 16 17  1  0  0  0  0
 17  8  2  0  0  0  0
 20 11  1  0  0  0  0
 21 13  1  0  0  0  0
 22 14  1  0  0  0  0
 23 15  1  0  0  0  0
 24 16  1  0  0  0  0
 25 31  1  0  0  0  0
 25 30  1  0  0  0  0
 26 25  2  0  0  0  0
 27 26  1  0  0  0  0
 27 28  2  0  0  0  0
 28 29  1  0  0  0  0
 29 30  2  0  0  0  0
 29  1  1  0  0  0  0
 32 26  1  0  0  0  0
 33 27  1  0  0  0  0
 34 35  1  0  0  0  0
 34 33  2  0  0  0  0
 36 34  1  0  0  0  0
 37 36  2  0  0  0  0
 37 38  1  0  0  0  0
 38 43  1  0  0  0  0
 39 38  2  0  0  0  0
 39 40  1  0  0  0  0
 40 41  2  0  0  0  0
 41 42  1  0  0  0  0
 43 33  1  0  0  0  0
 43 42  2  0  0  0  0
M  END
>  <minimizedAffinity>
-5.42655897

>  <minimizedRMSD>
3.34285998

$$$$
