
 OpenBabel03252507093D

 26 28  0  0  0  0  0  0  0  0999 V2000
   39.1610   34.0630   40.6990 C   0  0  0  0  0  0  0  0  0  0  0  0
   40.4260   33.9380   40.1000 C   0  0  0  0  0  0  0  0  0  0  0  0
   40.7510   32.7190   39.5480 C   0  0  0  0  0  0  0  0  0  0  0  0
   39.8420   31.7450   39.6240 N   0  0  0  0  0  0  0  0  0  0  0  0
   38.6320   31.8330   40.1850 C   0  0  0  0  0  0  0  0  0  0  0  0
   38.3040   33.0320   40.7300 N   0  0  0  0  0  0  0  0  0  0  0  0
   38.9160   35.0210   41.1270 H   0  0  0  0  0  0  0  0  0  0  0  0
   41.0770   34.7950   40.1010 H   0  0  0  0  0  0  0  0  0  0  0  0
   37.5880   30.8430   40.3130 C   0  0  0  0  0  0  0  0  0  0  0  0
   36.5260   30.7710   39.4230 C   0  0  0  0  0  0  0  0  0  0  0  0
   36.4550   31.4840   38.5830 H   0  0  0  0  0  0  0  0  0  0  0  0
   35.5080   29.8550   39.4930 C   0  0  0  0  0  3  0  0  0  0  0  0
   35.4880   28.9150   40.4960 C   0  0  0  0  0  3  0  0  0  0  0  0
   36.5150   28.9300   41.4140 C   0  0  0  0  0  0  0  0  0  0  0  0
   36.4810   27.9840   42.4130 C   0  0  0  0  0  3  0  0  0  0  0  0
   37.4790   27.9460   43.3640 C   0  0  0  0  0  3  0  0  0  0  0  0
   38.4930   28.8820   43.2690 C   0  0  0  0  0  3  0  0  0  0  0  0
   38.4680   29.8020   42.2450 C   0  0  0  0  0  3  0  0  0  0  0  0
   37.4980   29.8840   41.2740 C   0  0  0  0  0  0  0  0  0  0  0  0
   41.9930   32.5750   38.9500 O   0  0  0  0  0  0  0  0  0  0  0  0
   43.3620   31.7480   36.8490 O   0  0  0  0  0  0  0  0  0  0  0  0
   42.1380   32.5590   37.2520 P   0  0  0  0  0  0  0  0  0  0  0  0
   40.7190   31.9410   36.6030 O   0  0  0  0  0  0  0  0  0  0  0  0
   40.4790   31.1340   37.1490 H   0  0  0  0  0  0  0  0  0  0  0  0
   42.4050   34.1590   36.7660 O   0  0  0  0  0  0  0  0  0  0  0  0
   41.5040   34.5980   36.8630 H   0  0  0  0  0  0  0  0  0  0  0  0
  1  6  1  0  0  0  0
  1  7  1  0  0  0  0
  2  8  1  0  0  0  0
  2  1  2  0  0  0  0
  3  4  2  0  0  0  0
  3  2  1  0  0  0  0
  4  5  1  0  0  0  0
  5  9  1  0  0  0  0
  5  6  2  0  0  0  0
  9 19  1  0  0  0  0
 10 12  1  0  0  0  0
 10  9  2  0  0  0  0
 11 10  1  0  0  0  0
 12 13  2  0  0  0  0
 13 14  1  0  0  0  0
 14 15  1  0  0  0  0
 15 16  2  0  0  0  0
 17 16  1  0  0  0  0
 18 17  2  0  0  0  0
 19 14  2  0  0  0  0
 19 18  1  0  0  0  0
 20  3  1  0  0  0  0
 21 22  2  0  0  0  0
 22 20  1  0  0  0  0
 23 24  1  0  0  0  0
 23 22  1  0  0  0  0
 25 26  1  0  0  0  0
 25 22  1  0  0  0  0
M  END
>  <minimizedAffinity>
-6.62714386

$$$$

 OpenBabel03252507093D

 26 28  0  0  0  0  0  0  0  0999 V2000
   38.6360   34.1600   40.5840 C   0  0  0  0  0  0  0  0  0  0  0  0
   39.9590   34.0990   40.1160 C   0  0  0  0  0  0  0  0  0  0  0  0
   40.3470   32.9580   39.4500 C   0  0  0  0  0  0  0  0  0  0  0  0
   39.4380   31.9930   39.3000 N   0  0  0  0  0  0  0  0  0  0  0  0
   38.1730   32.0210   39.7310 C   0  0  0  0  0  0  0  0  0  0  0  0
   37.7830   33.1440   40.3880 N   0  0  0  0  0  0  0  0  0  0  0  0
   38.3430   35.0570   41.1030 H   0  0  0  0  0  0  0  0  0  0  0  0
   40.6030   34.9410   40.3000 H   0  0  0  0  0  0  0  0  0  0  0  0
   37.1250   31.0340   39.6150 C   0  0  0  0  0  0  0  0  0  0  0  0
   36.4190   30.5740   40.7180 C   0  0  0  0  0  0  0  0  0  0  0  0
   36.6500   30.9600   41.7260 H   0  0  0  0  0  0  0  0  0  0  0  0
   35.4160   29.6410   40.6690 C   0  0  0  0  0  3  0  0  0  0  0  0
   35.0400   29.0870   39.4680 C   0  0  0  0  0  3  0  0  0  0  0  0
   35.7000   29.5020   38.3330 C   0  0  0  0  0  0  0  0  0  0  0  0
   35.3130   28.9390   37.1380 C   0  0  0  0  0  3  0  0  0  0  0  0
   35.9340   29.3100   35.9640 C   0  0  0  0  0  3  0  0  0  0  0  0
   36.9440   30.2540   36.0430 C   0  0  0  0  0  3  0  0  0  0  0  0
   37.2830   30.7770   37.2690 C   0  0  0  0  0  3  0  0  0  0  0  0
   36.6970   30.4420   38.4670 C   0  0  0  0  0  0  0  0  0  0  0  0
   41.6470   32.8780   38.9770 O   0  0  0  0  0  0  0  0  0  0  0  0
   43.1250   31.7030   37.1310 O   0  0  0  0  0  0  0  0  0  0  0  0
   41.9510   32.6550   37.3160 P   0  0  0  0  0  0  0  0  0  0  0  0
   40.5480   32.0870   36.5900 O   0  0  0  0  0  0  0  0  0  0  0  0
   40.1820   31.3710   37.1900 H   0  0  0  0  0  0  0  0  0  0  0  0
   42.4130   34.1600   36.6930 O   0  0  0  0  0  0  0  0  0  0  0  0
   41.5530   34.6810   36.6480 H   0  0  0  0  0  0  0  0  0  0  0  0
  1  7  1  0  0  0  0
  2  8  1  0  0  0  0
  2  1  2  0  0  0  0
  3  2  1  0  0  0  0
  4  3  2  0  0  0  0
  4  5  1  0  0  0  0
  5  6  2  0  0  0  0
  6  1  1  0  0  0  0
  9  5  1  0  0  0  0
  9 10  1  0  0  0  0
 10 11  1  0  0  0  0
 12 10  2  0  0  0  0
 13 12  1  0  0  0  0
 14 19  1  0  0  0  0
 14 13  2  0  0  0  0
 15 14  1  0  0  0  0
 16 17  1  0  0  0  0
 16 15  2  0  0  0  0
 17 18  2  0  0  0  0
 18 19  1  0  0  0  0
 19  9  2  0  0  0  0
 20  3  1  0  0  0  0
 21 22  2  0  0  0  0
 22 20  1  0  0  0  0
 23 24  1  0  0  0  0
 23 22  1  0  0  0  0
 25 22  1  0  0  0  0
 26 25  1  0  0  0  0
M  END
>  <minimizedAffinity>
-6.45595646

$$$$

 OpenBabel03252507093D

 26 28  0  0  0  0  0  0  0  0999 V2000
   35.3360   27.7390   37.7840 C   0  0  0  0  0  0  0  0  0  0  0  0
   35.6390   29.1110   37.8120 C   0  0  0  0  0  0  0  0  0  0  0  0
   36.4960   29.5530   38.7960 C   0  0  0  0  0  0  0  0  0  0  0  0
   36.9740   28.6480   39.6500 N   0  0  0  0  0  0  0  0  0  0  0  0
   36.7060   27.3380   39.6490 C   0  0  0  0  0  0  0  0  0  0  0  0
   35.8630   26.8940   38.6820 N   0  0  0  0  0  0  0  0  0  0  0  0
   34.6650   27.4040   37.0110 H   0  0  0  0  0  0  0  0  0  0  0  0
   35.1890   29.7470   37.0700 H   0  0  0  0  0  0  0  0  0  0  0  0
   37.1740   26.2890   40.5250 C   0  0  0  0  0  0  0  0  0  0  0  0
   36.7560   24.9730   40.3890 C   0  0  0  0  0  0  0  0  0  0  0  0
   36.0420   24.6960   39.5930 H   0  0  0  0  0  0  0  0  0  0  0  0
   37.1640   23.9360   41.1880 C   0  0  0  0  0  3  0  0  0  0  0  0
   38.0520   24.1590   42.2130 C   0  0  0  0  0  3  0  0  0  0  0  0
   38.5080   25.4450   42.4030 C   0  0  0  0  0  0  0  0  0  0  0  0
   39.3970   25.6520   43.4340 C   0  0  0  0  0  3  0  0  0  0  0  0
   39.8910   26.9160   43.6780 C   0  0  0  0  0  3  0  0  0  0  0  0
   39.4610   27.9430   42.8560 C   0  0  0  0  0  3  0  0  0  0  0  0
   38.5710   27.6680   41.8430 C   0  0  0  0  0  3  0  0  0  0  0  0
   38.0490   26.4290   41.5580 C   0  0  0  0  0  0  0  0  0  0  0  0
   36.8100   30.9020   38.8400 O   0  0  0  0  0  0  0  0  0  0  0  0
   38.3000   31.3410   40.9750 O   0  0  0  0  0  0  0  0  0  0  0  0
   36.9670   31.7050   40.3340 P   0  0  0  0  0  0  0  0  0  0  0  0
   36.8150   33.3550   40.0700 O   0  0  0  0  0  0  0  0  0  0  0  0
   37.3680   33.5710   39.2610 H   0  0  0  0  0  0  0  0  0  0  0  0
   35.7400   31.1160   41.3410 O   0  0  0  0  0  0  0  0  0  0  0  0
   34.9040   31.5540   40.9910 H   0  0  0  0  0  0  0  0  0  0  0  0
  1  2  2  0  0  0  0
  1  6  1  0  0  0  0
  2  3  1  0  0  0  0
  3 20  1  0  0  0  0
  3  4  2  0  0  0  0
  5  4  1  0  0  0  0
  5  9  1  0  0  0  0
  6  5  2  0  0  0  0
  7  1  1  0  0  0  0
  8  2  1  0  0  0  0
  9 19  1  0  0  0  0
 10  9  2  0  0  0  0
 10 12  1  0  0  0  0
 11 10  1  0  0  0  0
 12 13  2  0  0  0  0
 13 14  1  0  0  0  0
 14 15  1  0  0  0  0
 15 16  2  0  0  0  0
 17 16  1  0  0  0  0
 18 17  2  0  0  0  0
 19 18  1  0  0  0  0
 19 14  2  0  0  0  0
 20 22  1  0  0  0  0
 22 21  2  0  0  0  0
 22 25  1  0  0  0  0
 23 22  1  0  0  0  0
 24 23  1  0  0  0  0
 26 25  1  0  0  0  0
M  END
>  <minimizedAffinity>
-6.4407258

$$$$

 OpenBabel03252507093D

 26 28  0  0  0  0  0  0  0  0999 V2000
   39.7480   28.5410   42.9590 C   0  0  0  0  0  0  0  0  0  0  0  0
   39.5520   29.8290   42.4320 C   0  0  0  0  0  0  0  0  0  0  0  0
   38.6260   29.9700   41.4230 C   0  0  0  0  0  0  0  0  0  0  0  0
   37.9840   28.8730   41.0180 N   0  0  0  0  0  0  0  0  0  0  0  0
   38.1460   27.6370   41.4980 C   0  0  0  0  0  0  0  0  0  0  0  0
   39.0570   27.4900   42.4940 N   0  0  0  0  0  0  0  0  0  0  0  0
   40.4750   28.4420   43.7480 H   0  0  0  0  0  0  0  0  0  0  0  0
   40.1320   30.6390   42.8390 H   0  0  0  0  0  0  0  0  0  0  0  0
   37.5010   26.3990   41.1270 C   0  0  0  0  0  0  0  0  0  0  0  0
   37.4560   25.3050   41.9800 C   0  0  0  0  0  0  0  0  0  0  0  0
   37.9220   25.3600   42.9790 H   0  0  0  0  0  0  0  0  0  0  0  0
   36.8590   24.1070   41.6840 C   0  0  0  0  0  3  0  0  0  0  0  0
   36.2450   23.9190   40.4680 C   0  0  0  0  0  3  0  0  0  0  0  0
   36.2530   24.9670   39.5740 C   0  0  0  0  0  0  0  0  0  0  0  0
   35.6340   24.7640   38.3610 C   0  0  0  0  0  3  0  0  0  0  0  0
   35.6070   25.7720   37.4210 C   0  0  0  0  0  3  0  0  0  0  0  0
   36.2170   26.9710   37.7460 C   0  0  0  0  0  3  0  0  0  0  0  0
   36.8180   27.1080   38.9770 C   0  0  0  0  0  3  0  0  0  0  0  0
   36.8740   26.1370   39.9480 C   0  0  0  0  0  0  0  0  0  0  0  0
   38.4150   31.2330   40.8920 O   0  0  0  0  0  0  0  0  0  0  0  0
   36.7490   31.1160   38.8460 O   0  0  0  0  0  0  0  0  0  0  0  0
   36.8920   31.6620   40.2600 P   0  0  0  0  0  0  0  0  0  0  0  0
   35.7050   31.0790   41.2930 O   0  0  0  0  0  0  0  0  0  0  0  0
   35.9640   30.1390   41.5310 H   0  0  0  0  0  0  0  0  0  0  0  0
   36.8600   33.3520   40.1590 O   0  0  0  0  0  0  0  0  0  0  0  0
   36.7480   33.6530   41.1130 H   0  0  0  0  0  0  0  0  0  0  0  0
  1  7  1  0  0  0  0
  2  8  1  0  0  0  0
  2  1  2  0  0  0  0
  3  2  1  0  0  0  0
  4  3  2  0  0  0  0
  4  5  1  0  0  0  0
  5  6  2  0  0  0  0
  6  1  1  0  0  0  0
  9  5  1  0  0  0  0
  9 10  1  0  0  0  0
 10 11  1  0  0  0  0
 12 10  2  0  0  0  0
 13 12  1  0  0  0  0
 14 19  1  0  0  0  0
 14 13  2  0  0  0  0
 15 14  1  0  0  0  0
 16 17  1  0  0  0  0
 16 15  2  0  0  0  0
 17 18  2  0  0  0  0
 18 19  1  0  0  0  0
 19  9  2  0  0  0  0
 20  3  1  0  0  0  0
 21 22  2  0  0  0  0
 22 20  1  0  0  0  0
 22 23  1  0  0  0  0
 23 24  1  0  0  0  0
 25 22  1  0  0  0  0
 25 26  1  0  0  0  0
M  END
>  <minimizedAffinity>
-6.19479513

$$$$

 OpenBabel03252507093D

 26 28  0  0  0  0  0  0  0  0999 V2000
   38.6710   34.1610   40.1770 C   0  0  0  0  0  0  0  0  0  0  0  0
   40.0680   34.0790   40.3000 C   0  0  0  0  0  0  0  0  0  0  0  0
   40.6160   32.8360   40.5280 C   0  0  0  0  0  0  0  0  0  0  0  0
   39.7790   31.8010   40.6180 N   0  0  0  0  0  0  0  0  0  0  0  0
   38.4480   31.8460   40.5040 C   0  0  0  0  0  0  0  0  0  0  0  0
   37.9010   33.0680   40.2780 N   0  0  0  0  0  0  0  0  0  0  0  0
   38.2530   35.1380   39.9990 H   0  0  0  0  0  0  0  0  0  0  0  0
   40.6410   34.9860   40.2120 H   0  0  0  0  0  0  0  0  0  0  0  0
   37.4680   30.7870   40.5830 C   0  0  0  0  0  0  0  0  0  0  0  0
   36.3990   30.7030   39.7020 C   0  0  0  0  0  0  0  0  0  0  0  0
   36.2740   31.4580   38.9070 H   0  0  0  0  0  0  0  0  0  0  0  0
   35.4400   29.7240   39.7290 C   0  0  0  0  0  3  0  0  0  0  0  0
   35.4910   28.7280   40.6750 C   0  0  0  0  0  3  0  0  0  0  0  0
   36.5280   28.7520   41.5810 C   0  0  0  0  0  0  0  0  0  0  0  0
   36.5660   27.7480   42.5220 C   0  0  0  0  0  3  0  0  0  0  0  0
   37.5780   27.7150   43.4580 C   0  0  0  0  0  3  0  0  0  0  0  0
   38.5320   28.7160   43.4090 C   0  0  0  0  0  3  0  0  0  0  0  0
   38.4360   29.6910   42.4420 C   0  0  0  0  0  3  0  0  0  0  0  0
   37.4500   29.7700   41.4870 C   0  0  0  0  0  0  0  0  0  0  0  0
   41.9920   32.7330   40.6500 O   0  0  0  0  0  0  0  0  0  0  0  0
   43.7390   31.2450   41.9570 O   0  0  0  0  0  0  0  0  0  0  0  0
   42.7010   32.3430   42.1490 P   0  0  0  0  0  0  0  0  0  0  0  0
   43.3620   33.7390   42.8040 O   0  0  0  0  0  0  0  0  0  0  0  0
   43.8510   34.2030   42.0610 H   0  0  0  0  0  0  0  0  0  0  0  0
   41.4700   31.7130   43.1260 O   0  0  0  0  0  0  0  0  0  0  0  0
   40.9300   32.5210   43.3900 H   0  0  0  0  0  0  0  0  0  0  0  0
  1  6  2  0  0  0  0
  1  2  1  0  0  0  0
  2  3  2  0  0  0  0
  3  4  1  0  0  0  0
  3 20  1  0  0  0  0
  5  9  1  0  0  0  0
  5  4  2  0  0  0  0
  6  5  1  0  0  0  0
  7  1  1  0  0  0  0
  8  2  1  0  0  0  0
  9 19  1  0  0  0  0
 10 12  1  0  0  0  0
 10  9  2  0  0  0  0
 11 10  1  0  0  0  0
 12 13  2  0  0  0  0
 13 14  1  0  0  0  0
 14 15  1  0  0  0  0
 15 16  2  0  0  0  0
 17 16  1  0  0  0  0
 18 17  2  0  0  0  0
 19 14  2  0  0  0  0
 19 18  1  0  0  0  0
 20 22  1  0  0  0  0
 21 22  2  0  0  0  0
 22 23  1  0  0  0  0
 22 25  1  0  0  0  0
 24 23  1  0  0  0  0
 25 26  1  0  0  0  0
M  END
>  <minimizedAffinity>
-6.17768049

$$$$

 OpenBabel03252507093D

 26 28  0  0  0  0  0  0  0  0999 V2000
   36.2550   30.6320   41.2170 C   0  0  0  0  0  0  0  0  0  0  0  0
   36.7280   31.2200   40.0330 C   0  0  0  0  0  0  0  0  0  0  0  0
   37.8710   30.6930   39.4730 C   0  0  0  0  0  0  0  0  0  0  0  0
   38.4450   29.6630   40.0970 N   0  0  0  0  0  0  0  0  0  0  0  0
   38.0190   29.0810   41.2220 C   0  0  0  0  0  0  0  0  0  0  0  0
   36.8930   29.5950   41.7800 N   0  0  0  0  0  0  0  0  0  0  0  0
   35.3610   31.0510   41.6470 H   0  0  0  0  0  0  0  0  0  0  0  0
   36.1800   32.0500   39.6220 H   0  0  0  0  0  0  0  0  0  0  0  0
   38.5680   27.9700   41.9640 C   0  0  0  0  0  0  0  0  0  0  0  0
   39.5370   28.1430   42.9420 C   0  0  0  0  0  0  0  0  0  0  0  0
   39.9150   29.1530   43.1770 H   0  0  0  0  0  0  0  0  0  0  0  0
   40.0950   27.1300   43.6780 C   0  0  0  0  0  3  0  0  0  0  0  0
   39.7030   25.8280   43.4740 C   0  0  0  0  0  3  0  0  0  0  0  0
   38.7430   25.5850   42.5160 C   0  0  0  0  0  0  0  0  0  0  0  0
   38.3610   24.2770   42.3240 C   0  0  0  0  0  3  0  0  0  0  0  0
   37.4050   23.9670   41.3800 C   0  0  0  0  0  3  0  0  0  0  0  0
   36.8590   25.0100   40.6520 C   0  0  0  0  0  3  0  0  0  0  0  0
   37.2850   26.2960   40.8940 C   0  0  0  0  0  3  0  0  0  0  0  0
   38.2340   26.6580   41.8200 C   0  0  0  0  0  0  0  0  0  0  0  0
   38.3530   31.2570   38.3020 O   0  0  0  0  0  0  0  0  0  0  0  0
   40.2070   32.9140   39.1910 O   0  0  0  0  0  0  0  0  0  0  0  0
   39.9700   31.7840   38.1990 P   0  0  0  0  0  0  0  0  0  0  0  0
   40.9760   30.4700   38.4740 O   0  0  0  0  0  0  0  0  0  0  0  0
   40.6010   29.9790   39.2640 H   0  0  0  0  0  0  0  0  0  0  0  0
   40.1820   32.4200   36.6430 O   0  0  0  0  0  0  0  0  0  0  0  0
   40.2210   31.6080   36.0500 H   0  0  0  0  0  0  0  0  0  0  0  0
  1  7  1  0  0  0  0
  1  6  1  0  0  0  0
  2  1  2  0  0  0  0
  3  2  1  0  0  0  0
  3  4  2  0  0  0  0
  4  5  1  0  0  0  0
  5  6  2  0  0  0  0
  5  9  1  0  0  0  0
  8  2  1  0  0  0  0
  9 10  1  0  0  0  0
 10 11  1  0  0  0  0
 10 12  2  0  0  0  0
 13 12  1  0  0  0  0
 14 13  2  0  0  0  0
 15 14  1  0  0  0  0
 16 15  2  0  0  0  0
 17 18  2  0  0  0  0
 17 16  1  0  0  0  0
 18 19  1  0  0  0  0
 19  9  2  0  0  0  0
 19 14  1  0  0  0  0
 20  3  1  0  0  0  0
 22 20  1  0  0  0  0
 22 23  1  0  0  0  0
 22 21  2  0  0  0  0
 23 24  1  0  0  0  0
 25 22  1  0  0  0  0
 26 25  1  0  0  0  0
M  END
>  <minimizedAffinity>
-6.09692669

$$$$

 OpenBabel03252507093D

 26 28  0  0  0  0  0  0  0  0999 V2000
   36.5760   30.6230   38.2590 C   0  0  0  0  0  0  0  0  0  0  0  0
   37.7720   31.0780   37.6790 C   0  0  0  0  0  0  0  0  0  0  0  0
   38.9520   30.7370   38.3020 C   0  0  0  0  0  0  0  0  0  0  0  0
   38.8730   30.0000   39.4110 N   0  0  0  0  0  0  0  0  0  0  0  0
   37.7530   29.5510   39.9860 C   0  0  0  0  0  0  0  0  0  0  0  0
   36.5860   29.8830   39.3770 N   0  0  0  0  0  0  0  0  0  0  0  0
   35.6600   30.8950   37.7630 H   0  0  0  0  0  0  0  0  0  0  0  0
   37.7100   31.6690   36.7820 H   0  0  0  0  0  0  0  0  0  0  0  0
   37.5700   28.7530   41.1760 C   0  0  0  0  0  0  0  0  0  0  0  0
   37.6120   29.3040   42.4490 C   0  0  0  0  0  0  0  0  0  0  0  0
   37.7900   30.3860   42.5800 H   0  0  0  0  0  0  0  0  0  0  0  0
   37.4450   28.5990   43.6120 C   0  0  0  0  0  3  0  0  0  0  0  0
   37.2170   27.2440   43.5750 C   0  0  0  0  0  3  0  0  0  0  0  0
   37.1630   26.6320   42.3420 C   0  0  0  0  0  0  0  0  0  0  0  0
   36.9330   25.2750   42.3210 C   0  0  0  0  0  3  0  0  0  0  0  0
   36.8690   24.6030   41.1190 C   0  0  0  0  0  3  0  0  0  0  0  0
   37.0410   25.3400   39.9610 C   0  0  0  0  0  3  0  0  0  0  0  0
   37.2660   26.6940   40.0510 C   0  0  0  0  0  3  0  0  0  0  0  0
   37.3410   27.4120   41.2220 C   0  0  0  0  0  0  0  0  0  0  0  0
   40.1440   31.1740   37.7450 O   0  0  0  0  0  0  0  0  0  0  0  0
   41.9750   32.2720   39.2980 O   0  0  0  0  0  0  0  0  0  0  0  0
   40.8810   32.6080   38.2940 P   0  0  0  0  0  0  0  0  0  0  0  0
   41.4680   33.4470   36.9650 O   0  0  0  0  0  0  0  0  0  0  0  0
   41.9280   32.7740   36.3790 H   0  0  0  0  0  0  0  0  0  0  0  0
   39.6910   33.4890   39.1160 O   0  0  0  0  0  0  0  0  0  0  0  0
   39.1090   33.8580   38.3820 H   0  0  0  0  0  0  0  0  0  0  0  0
  1  6  1  0  0  0  0
  2  1  2  0  0  0  0
  2  3  1  0  0  0  0
  3  4  2  0  0  0  0
  4  5  1  0  0  0  0
  5  9  1  0  0  0  0
  6  5  2  0  0  0  0
  7  1  1  0  0  0  0
  8  2  1  0  0  0  0
  9 19  2  0  0  0  0
  9 10  1  0  0  0  0
 10 11  1  0  0  0  0
 10 12  2  0  0  0  0
 13 12  1  0  0  0  0
 14 13  2  0  0  0  0
 15 14  1  0  0  0  0
 16 15  2  0  0  0  0
 17 18  2  0  0  0  0
 17 16  1  0  0  0  0
 18 19  1  0  0  0  0
 19 14  1  0  0  0  0
 20 22  1  0  0  0  0
 20  3  1  0  0  0  0
 22 25  1  0  0  0  0
 22 21  2  0  0  0  0
 23 22  1  0  0  0  0
 24 23  1  0  0  0  0
 26 25  1  0  0  0  0
M  END
>  <minimizedAffinity>
-5.9389925

$$$$

 OpenBabel03252507093D

 26 28  0  0  0  0  0  0  0  0999 V2000
   35.3150   27.6500   36.6570 C   0  0  0  0  0  0  0  0  0  0  0  0
   35.8020   28.9310   36.3480 C   0  0  0  0  0  0  0  0  0  0  0  0
   36.6120   29.5450   37.2770 C   0  0  0  0  0  0  0  0  0  0  0  0
   36.8730   28.8800   38.4030 N   0  0  0  0  0  0  0  0  0  0  0  0
   36.4270   27.6610   38.7260 C   0  0  0  0  0  0  0  0  0  0  0  0
   35.6280   27.0500   37.8140 N   0  0  0  0  0  0  0  0  0  0  0  0
   34.6830   27.1790   35.9230 H   0  0  0  0  0  0  0  0  0  0  0  0
   35.5210   29.3690   35.4060 H   0  0  0  0  0  0  0  0  0  0  0  0
   36.6550   26.8670   39.9100 C   0  0  0  0  0  0  0  0  0  0  0  0
   36.5900   25.4810   39.8930 C   0  0  0  0  0  0  0  0  0  0  0  0
   36.3570   24.9470   38.9550 H   0  0  0  0  0  0  0  0  0  0  0  0
   36.7970   24.6750   40.9830 C   0  0  0  0  0  3  0  0  0  0  0  0
   37.0930   25.2260   42.2070 C   0  0  0  0  0  3  0  0  0  0  0  0
   37.1740   26.5990   42.2940 C   0  0  0  0  0  0  0  0  0  0  0  0
   37.4720   27.1360   43.5260 C   0  0  0  0  0  3  0  0  0  0  0  0
   37.5670   28.5030   43.6800 C   0  0  0  0  0  3  0  0  0  0  0  0
   37.3530   29.2920   42.5630 C   0  0  0  0  0  3  0  0  0  0  0  0
   37.0590   28.6910   41.3600 C   0  0  0  0  0  3  0  0  0  0  0  0
   36.9520   27.3370   41.1530 C   0  0  0  0  0  0  0  0  0  0  0  0
   37.1070   30.8080   36.9910 O   0  0  0  0  0  0  0  0  0  0  0  0
   38.2210   32.2590   38.8940 O   0  0  0  0  0  0  0  0  0  0  0  0
   38.5490   31.3560   37.7130 P   0  0  0  0  0  0  0  0  0  0  0  0
   39.4590   30.0210   38.1630 O   0  0  0  0  0  0  0  0  0  0  0  0
   38.8290   29.3750   38.6010 H   0  0  0  0  0  0  0  0  0  0  0  0
   39.3500   32.3010   36.5580 O   0  0  0  0  0  0  0  0  0  0  0  0
   39.7210   31.6280   35.9070 H   0  0  0  0  0  0  0  0  0  0  0  0
  1  6  1  0  0  0  0
  2  1  2  0  0  0  0
  2  3  1  0  0  0  0
  3  4  2  0  0  0  0
  4  5  1  0  0  0  0
  5  9  1  0  0  0  0
  6  5  2  0  0  0  0
  7  1  1  0  0  0  0
  8  2  1  0  0  0  0
  9 19  1  0  0  0  0
 10  9  2  0  0  0  0
 10 12  1  0  0  0  0
 11 10  1  0  0  0  0
 12 13  2  0  0  0  0
 13 14  1  0  0  0  0
 14 15  1  0  0  0  0
 15 16  2  0  0  0  0
 17 16  1  0  0  0  0
 18 17  2  0  0  0  0
 19 18  1  0  0  0  0
 19 14  2  0  0  0  0
 20  3  1  0  0  0  0
 20 22  1  0  0  0  0
 22 23  1  0  0  0  0
 22 21  2  0  0  0  0
 23 24  1  0  0  0  0
 25 22  1  0  0  0  0
 26 25  1  0  0  0  0
M  END
>  <minimizedAffinity>
-5.92034388

$$$$

 OpenBabel03252507093D

 26 28  0  0  0  0  0  0  0  0999 V2000
   38.0000   28.7240   43.3030 C   0  0  0  0  0  0  0  0  0  0  0  0
   38.6420   29.9240   42.9530 C   0  0  0  0  0  0  0  0  0  0  0  0
   38.7320   30.2300   41.6140 C   0  0  0  0  0  0  0  0  0  0  0  0
   38.2040   29.3650   40.7460 N   0  0  0  0  0  0  0  0  0  0  0  0
   37.5870   28.2190   41.0470 C   0  0  0  0  0  0  0  0  0  0  0  0
   37.4940   27.9100   42.3660 N   0  0  0  0  0  0  0  0  0  0  0  0
   37.9350   28.4940   44.3530 H   0  0  0  0  0  0  0  0  0  0  0  0
   39.0320   30.5420   43.7430 H   0  0  0  0  0  0  0  0  0  0  0  0
   36.9870   27.2270   40.1840 C   0  0  0  0  0  0  0  0  0  0  0  0
   36.1830   27.5750   39.1080 C   0  0  0  0  0  0  0  0  0  0  0  0
   35.9810   28.6370   38.8850 H   0  0  0  0  0  0  0  0  0  0  0  0
   35.5890   26.6800   38.2560 C   0  0  0  0  0  3  0  0  0  0  0  0
   35.7680   25.3290   38.4330 C   0  0  0  0  0  3  0  0  0  0  0  0
   36.5560   24.9150   39.4840 C   0  0  0  0  0  0  0  0  0  0  0  0
   36.7270   23.5590   39.6480 C   0  0  0  0  0  3  0  0  0  0  0  0
   37.5040   23.0800   40.6810 C   0  0  0  0  0  3  0  0  0  0  0  0
   38.0910   24.0050   41.5260 C   0  0  0  0  0  3  0  0  0  0  0  0
   37.8810   25.3470   41.3060 C   0  0  0  0  0  3  0  0  0  0  0  0
   37.1170   25.8770   40.2940 C   0  0  0  0  0  0  0  0  0  0  0  0
   39.3590   31.4110   41.2470 O   0  0  0  0  0  0  0  0  0  0  0  0
   38.9490   32.9300   39.1260 O   0  0  0  0  0  0  0  0  0  0  0  0
   38.4670   32.6830   40.5490 P   0  0  0  0  0  0  0  0  0  0  0  0
   36.8370   32.2870   40.6120 O   0  0  0  0  0  0  0  0  0  0  0  0
   36.7610   31.3300   40.3210 H   0  0  0  0  0  0  0  0  0  0  0  0
   38.8080   34.0760   41.4500 O   0  0  0  0  0  0  0  0  0  0  0  0
   38.2930   33.9460   42.3060 H   0  0  0  0  0  0  0  0  0  0  0  0
  1  7  1  0  0  0  0
  2  1  1  0  0  0  0
  2  8  1  0  0  0  0
  3  2  2  0  0  0  0
  4  5  2  0  0  0  0
  4  3  1  0  0  0  0
  5  6  1  0  0  0  0
  6  1  2  0  0  0  0
  9 19  1  0  0  0  0
  9  5  1  0  0  0  0
 10  9  2  0  0  0  0
 11 10  1  0  0  0  0
 12 13  2  0  0  0  0
 12 10  1  0  0  0  0
 13 14  1  0  0  0  0
 14 15  2  0  0  0  0
 14 19  1  0  0  0  0
 15 16  1  0  0  0  0
 16 17  2  0  0  0  0
 18 17  1  0  0  0  0
 19 18  2  0  0  0  0
 20  3  1  0  0  0  0
 21 22  2  0  0  0  0
 22 23  1  0  0  0  0
 22 20  1  0  0  0  0
 22 25  1  0  0  0  0
 24 23  1  0  0  0  0
 25 26  1  0  0  0  0
M  END
>  <minimizedAffinity>
-5.90114355

$$$$
