
     RDKit          3D

 35 38  0  0  0  0  0  0  0  0999 V2000
   44.6249   35.4736   45.1316 C   0  0  0  0  0  0  0  0  0  0  0  0
   45.1017   35.7094   43.8062 C   0  0  0  0  0  0  0  0  0  0  0  0
   46.0402   34.8218   43.3520 C   0  0  0  0  0  0  0  0  0  0  0  0
   46.4845   33.7742   44.1423 N   0  0  0  0  0  0  0  0  0  0  0  0
   46.0118   33.5884   45.3806 C   0  0  0  0  0  0  0  0  0  0  0  0
   45.0806   34.4360   45.8806 N   0  0  0  0  0  0  0  0  0  0  0  0
   46.5384   34.9760   41.9310 C   0  0  1  0  0  0  0  0  0  0  0  0
   48.0611   35.2780   41.9370 C   0  0  0  0  0  0  0  0  0  0  0  0
   47.3950   33.9753   41.4050 C   0  0  2  0  0  0  0  0  0  0  0  0
   44.6447   36.8083   43.0218 N   0  0  0  0  0  0  0  0  0  0  0  0
   43.8817   36.1962   45.4579 H   0  0  0  0  0  0  0  0  0  0  0  0
   46.3455   32.7779   46.0109 H   0  0  0  0  0  0  0  0  0  0  0  0
   45.9584   35.7202   41.3530 H   0  0  0  0  0  0  0  0  0  0  0  0
   48.6350   35.1321   42.8464 H   0  0  0  0  0  0  0  0  0  0  0  0
   48.4351   35.9806   41.1506 H   0  0  0  0  0  0  0  0  0  0  0  0
   47.5539   33.0486   42.0311 H   0  0  0  0  0  0  0  0  0  0  0  0
   43.6453   37.0827   42.7920 H   0  0  0  0  0  0  0  0  0  0  0  0
   45.3984   37.4338   42.6144 H   0  0  0  0  0  0  0  0  0  0  0  0
   47.5578   33.6597   39.9654 C   0  0  0  0  0  0  0  0  0  0  0  0
   48.7182   34.1034   39.3637 C   0  0  0  0  0  0  0  0  0  0  0  0
   49.4688   34.6565   39.9290 H   0  0  0  0  0  0  0  0  0  0  0  0
   48.8686   33.8075   38.0185 C   0  0  0  0  0  0  0  0  0  0  0  0
   47.9328   33.1191   37.3176 C   0  0  0  0  0  0  0  0  0  0  0  0
   46.7730   32.6794   37.9324 C   0  0  0  0  0  0  0  0  0  0  0  0
   45.7904   31.9707   37.2476 C   0  0  0  0  0  0  0  0  0  0  0  0
   44.6634   31.5712   37.9445 C   0  0  0  0  0  0  0  0  0  0  0  0
   44.4488   31.8258   39.2634 C   0  0  0  0  0  0  0  0  0  0  0  0
   45.4362   32.5342   39.9382 C   0  0  0  0  0  0  0  0  0  0  0  0
   46.5751   32.9487   39.2727 C   0  0  0  0  0  0  0  0  0  0  0  0
   49.7680   34.1432   37.5226 H   0  0  0  0  0  0  0  0  0  0  0  0
   48.0705   32.8989   36.2677 H   0  0  0  0  0  0  0  0  0  0  0  0
   45.9384   31.7550   36.1941 H   0  0  0  0  0  0  0  0  0  0  0  0
   43.9375   31.0255   37.3589 H   0  0  0  0  0  0  0  0  0  0  0  0
   43.5533   31.4948   39.7683 H   0  0  0  0  0  0  0  0  0  0  0  0
   45.2613   32.7361   40.9926 H   0  0  0  0  0  0  0  0  0  0  0  0
  1  6  2  0
  2  1  1  0
  3  2  2  0
  3  4  1  0
  4  5  2  0
  5  6  1  0
  7  3  1  0
  8  7  1  0
  9  8  1  0
  9  7  1  0
 10  2  1  0
  1 11  1  0
  5 12  1  0
  7 13  1  6
  8 14  1  0
  8 15  1  0
  9 16  1  1
 10 17  1  0
 10 18  1  0
 19 20  2  0
 20 21  1  0
 20 22  1  0
 22 23  2  0
 23 24  1  0
 24 25  2  0
 25 26  1  0
 26 27  2  0
 27 28  1  0
 28 29  2  0
 29 19  1  0
 29 24  1  0
 22 30  1  0
 23 31  1  0
 25 32  1  0
 26 33  1  0
 27 34  1  0
 28 35  1  0
  9 19  1  0
M  ISO  7  11  14  12  14  13  13  14  13  15  13  16  13  21  15
M  END
>  <DihAtoms>  (1) 
7,8,18,19

>  <DihDeg>  (1) 
-89.99731628290188

$$$$
