
     RDKit          3D

 44 48  0  0  0  0  0  0  0  0999 V2000
   45.0074   33.0714   41.0870 Cl  0  0  0  0  0  0  0  0  0  0  0  0
   46.4899   33.9791   40.9376 C   0  0  0  0  0  0  0  0  0  0  0  0
   46.9482   34.7964   41.9312 C   0  0  0  0  0  0  0  0  0  0  0  0
   48.1133   35.4558   41.6930 C   0  0  0  0  0  0  0  0  0  0  0  0
   48.8125   35.3339   40.5417 C   0  0  0  0  0  0  0  0  0  0  0  0
   48.3593   34.5175   39.5433 C   0  0  0  0  0  0  0  0  0  0  0  0
   47.1691   33.8245   39.7493 C   0  0  0  0  0  0  0  0  0  0  0  0
   44.4707   35.9809   44.5445 C   0  0  0  0  0  0  0  0  0  0  0  0
   45.2144   35.9069   43.3668 C   0  0  0  0  0  0  0  0  0  0  0  0
   46.1636   34.8933   43.1491 C   0  0  0  0  0  0  0  0  0  0  0  0
   46.2999   34.0009   44.1632 N   0  0  0  0  0  0  0  0  0  0  0  0
   45.5743   34.0843   45.2969 C   0  0  0  0  0  0  0  0  0  0  0  0
   44.6737   35.0656   45.4754 N   0  0  0  0  0  0  0  0  0  0  0  0
   46.6613   32.9374   38.6748 C   0  0  0  0  0  0  0  0  0  0  0  0
   46.6982   31.5442   38.7615 C   0  0  0  0  0  0  0  0  0  0  0  0
   45.9500   31.0070   37.1879 S   0  0  0  0  0  0  0  0  0  0  0  0
   45.6973   32.8095   36.6432 C   0  0  0  0  0  0  0  0  0  0  0  0
   46.1241   33.3326   37.5396 N   0  0  0  0  0  0  0  0  0  0  0  0
   45.1127   33.2528   35.4140 N   0  0  0  0  0  0  0  0  0  0  0  0
   48.5089   36.1127   42.4580 H   0  0  0  0  0  0  0  0  0  0  0  0
   49.7399   35.8535   40.3420 H   0  0  0  0  0  0  0  0  0  0  0  0
   48.9111   34.4104   38.6133 H   0  0  0  0  0  0  0  0  0  0  0  0
   43.7453   36.7600   44.7027 H   0  0  0  0  0  0  0  0  0  0  0  0
   45.0591   36.6505   42.5922 H   0  0  0  0  0  0  0  0  0  0  0  0
   45.8522   33.2632   45.9687 H   0  0  0  0  0  0  0  0  0  0  0  0
   44.0881   33.0067   35.4207 H   0  0  0  0  0  0  0  0  0  0  0  0
   45.6240   33.7281   34.6661 H   0  0  0  0  0  0  0  0  0  0  0  0
   47.1706   30.6109   39.7623 C   0  0  0  0  0  0  0  0  0  0  0  0
   46.8903   31.0354   41.0640 C   0  0  0  0  0  0  0  0  0  0  0  0
   46.3852   31.9360   41.4295 H   0  0  0  0  0  0  0  0  0  0  0  0
   47.2695   30.2660   42.1442 C   0  0  0  0  0  0  0  0  0  0  0  0
   47.9339   29.0587   41.9810 C   0  0  0  0  0  0  0  0  0  0  0  0
   48.2066   28.6458   40.6960 C   0  0  0  0  0  0  0  0  0  0  0  0
   48.8635   27.4516   40.4510 C   0  0  0  0  0  0  0  0  0  0  0  0
   49.1004   27.1011   39.1329 C   0  0  0  0  0  0  0  0  0  0  0  0
   48.7213   27.8698   38.0445 C   0  0  0  0  0  0  0  0  0  0  0  0
   48.0648   29.0625   38.2993 C   0  0  0  0  0  0  0  0  0  0  0  0
   47.8301   29.4104   39.6121 C   0  0  0  0  0  0  0  0  0  0  0  0
   47.1052   30.4939   43.2033 H   0  0  0  0  0  0  0  0  0  0  0  0
   48.2582   28.4096   42.8007 H   0  0  0  0  0  0  0  0  0  0  0  0
   49.1711   26.8326   41.2610 H   0  0  0  0  0  0  0  0  0  0  0  0
   49.6212   26.1530   39.0023 H   0  0  0  0  0  0  0  0  0  0  0  0
   48.9380   27.5358   37.0300 H   0  0  0  0  0  0  0  0  0  0  0  0
   47.7581   29.6707   37.4640 H   0  0  0  0  0  0  0  0  0  0  0  0
  2  1  1  0
  2  3  2  0
  3 10  1  0
  4  3  1  0
  5  4  2  0
  6  7  2  0
  6  5  1  0
  7  2  1  0
  8 13  2  0
  9  8  1  0
 10  9  2  0
 10 11  1  0
 11 12  2  0
 12 13  1  0
 14 15  2  0
 14  7  1  0
 16 15  1  0
 17 16  1  0
 17 18  2  0
 18 14  1  0
 19 17  1  0
  4 20  1  0
  5 21  1  0
  6 22  1  0
  8 23  1  0
  9 24  1  0
 12 25  1  0
 19 26  1  0
 19 27  1  0
 28 29  2  0
 29 30  1  0
 29 31  1  0
 31 32  2  0
 32 33  1  0
 33 34  2  0
 34 35  1  0
 35 36  2  0
 36 37  1  0
 37 38  2  0
 38 28  1  0
 38 33  1  0
 31 39  1  0
 32 40  1  0
 34 41  1  0
 35 42  1  0
 36 43  1  0
 37 44  1  0
 15 28  1  0
M  ISO  7  20  14  21  14  22  14  23  14  24  14  25  14  30  15
M  END
>  <DihAtoms>  (1) 
13,14,27,28

>  <DihDeg>  (1) 
114.01172434016767

$$$$
