
 OpenBabel03242517593D

 26 28  0  0  0  0  0  0  0  0999 V2000
   46.6650   33.5980   41.2660 C   0  0  0  0  0  0  0  0  0  0  0  0
   45.5790   33.3530   41.3760 H   0  0  0  0  0  0  0  0  0  0  0  0
   47.2430   32.8000   41.7350 H   0  0  0  0  0  0  0  0  0  0  0  0
   46.9880   33.7040   39.7970 C   0  0  0  0  0  0  0  0  0  0  0  0
   48.1230   34.3740   39.3500 C   0  0  0  0  0  0  0  0  0  0  0  0
   48.7580   34.8330   40.0800 H   0  0  0  0  0  0  0  0  0  0  0  0
   48.4140   34.4420   38.0070 C   0  0  0  0  0  3  0  0  0  0  0  0
   47.5990   33.8530   37.0660 C   0  0  0  0  0  3  0  0  0  0  0  0
   46.4820   33.1950   37.5170 C   0  0  0  0  0  0  0  0  0  0  0  0
   45.6680   32.6120   36.5550 C   0  0  0  0  0  3  0  0  0  0  0  0
   44.5160   31.9350   36.9430 C   0  0  0  0  0  3  0  0  0  0  0  0
   44.1900   31.8450   38.2840 C   0  0  0  0  0  3  0  0  0  0  0  0
   45.0350   32.4450   39.2150 C   0  0  0  0  0  3  0  0  0  0  0  0
   46.1750   33.1170   38.8610 C   0  0  0  0  0  0  0  0  0  0  0  0
   46.8840   34.9480   41.9400 C   0  0  0  0  0  0  0  0  0  0  0  0
   47.9250   35.1930   42.0980 H   0  0  0  0  0  0  0  0  0  0  0  0
   46.3720   35.6890   41.2470 H   0  0  0  0  0  0  0  0  0  0  0  0
   45.2390   35.9910   43.4440 C   0  0  0  0  0  0  0  0  0  0  0  0
   46.1440   34.9600   43.1910 C   0  0  0  0  0  0  0  0  0  0  0  0
   46.2700   33.9910   44.1870 C   0  0  0  0  0  0  0  0  0  0  0  0
   45.5270   34.1070   45.3110 N   0  0  0  0  0  0  0  0  0  0  0  0
   44.6710   35.1150   45.5130 C   0  0  0  0  0  0  0  0  0  0  0  0
   44.5300   36.0590   44.5710 N   0  0  0  0  0  0  0  0  0  0  0  0
   45.1280   36.7620   42.6690 H   0  0  0  0  0  0  0  0  0  0  0  0
   46.9570   33.1690   44.0430 H   0  0  0  0  0  0  0  0  0  0  0  0
   44.1000   35.1590   46.4300 H   0  0  0  0  0  0  0  0  0  0  0  0
  1  2  1  0  0  0  0
  1  3  1  0  0  0  0
  1 15  1  0  0  0  0
  4  1  1  0  0  0  0
  5  4  1  0  0  0  0
  5  6  1  0  0  0  0
  7  5  2  0  0  0  0
  8  9  2  0  0  0  0
  8  7  1  0  0  0  0
  9 14  1  0  0  0  0
 10 11  2  0  0  0  0
 10  9  1  0  0  0  0
 11 12  1  0  0  0  0
 12 13  2  0  0  0  0
 14 13  1  0  0  0  0
 14  4  2  0  0  0  0
 15 16  1  0  0  0  0
 15 19  1  0  0  0  0
 17 15  1  0  0  0  0
 18 23  1  0  0  0  0
 19 18  2  0  0  0  0
 19 20  1  0  0  0  0
 20 21  2  0  0  0  0
 21 22  1  0  0  0  0
 22 26  1  0  0  0  0
 23 22  2  0  0  0  0
 24 18  1  0  0  0  0
 25 20  1  0  0  0  0
M  END
>  <minimizedAffinity>
-4.94407749

>  <minimizedRMSD>
2.50786996

$$$$
