
 OpenBabel03252509243D

 29 32  0  0  1  0  0  0  0  0999 V2000
   45.6040   34.4620   42.0500 C   0  0  1  0  0  0  0  0  0  0  0  0
   46.9440   34.9850   41.4670 C   0  0  0  0  0  0  0  0  0  0  0  0
   46.2710   33.6250   41.1180 C   0  0  2  0  0  0  0  0  0  0  0  0
   44.7540   35.1390   41.8410 H   0  0  0  0  0  0  0  0  0  0  0  0
   47.8580   34.8820   42.0430 H   0  0  0  0  0  0  0  0  0  0  0  0
   46.8730   35.7730   40.6760 H   0  0  0  0  0  0  0  0  0  0  0  0
   46.7820   32.7040   41.5240 H   0  0  0  0  0  0  0  0  0  0  0  0
   45.8520   33.4080   39.7130 C   0  0  0  0  0  0  0  0  0  0  0  0
   44.4960   33.4570   39.4590 C   0  0  0  0  0  0  0  0  0  0  0  0
   43.7800   33.6480   40.2590 H   0  0  0  0  0  0  0  0  0  0  0  0
   44.1060   33.2540   38.1450 C   0  0  0  0  0  3  0  0  0  0  0  0
   44.9990   33.0170   37.1510 C   0  0  0  0  0  3  0  0  0  0  0  0
   46.3560   32.9700   37.4190 C   0  0  0  0  0  0  0  0  0  0  0  0
   47.3030   32.7300   36.4270 C   0  0  0  0  0  3  0  0  0  0  0  0
   48.6390   32.7010   36.7870 C   0  0  0  0  0  3  0  0  0  0  0  0
   49.0930   32.8930   38.0550 C   0  0  0  0  0  3  0  0  0  0  0  0
   48.1400   33.1310   39.0380 C   0  0  0  0  0  3  0  0  0  0  0  0
   46.7970   33.1670   38.7130 C   0  0  0  0  0  0  0  0  0  0  0  0
   45.0870   34.4290   45.7770 C   0  0  0  0  0  0  0  0  0  0  0  0
   44.9270   34.7950   44.4050 C   0  0  0  0  0  0  0  0  0  0  0  0
   45.7670   34.1670   43.5260 C   0  0  0  0  0  0  0  0  0  0  0  0
   46.7030   33.2420   43.9580 N   0  0  0  0  0  0  0  0  0  0  0  0
   46.8230   32.9260   45.2540 C   0  0  0  0  0  0  0  0  0  0  0  0
   46.0150   33.5170   46.1680 N   0  0  0  0  0  0  0  0  0  0  0  0
   44.4040   34.9450   46.4440 H   0  0  0  0  0  0  0  0  0  0  0  0
   47.5460   32.2090   45.6090 H   0  0  0  0  0  0  0  0  0  0  0  0
   43.9700   35.7660   43.9890 N   0  0  0  0  0  0  0  0  0  0  0  0
   42.9290   35.7970   44.1970 H   0  0  0  0  0  0  0  0  0  0  0  0
   44.3420   36.5620   43.3940 H   0  0  0  0  0  0  0  0  0  0  0  0
  1  4  1  6  0  0  0
  1 21  1  0  0  0  0
  2  5  1  0  0  0  0
  2  1  1  0  0  0  0
  3  2  1  0  0  0  0
  3  7  1  1  0  0  0
  3  1  1  0  0  0  0
  6  2  1  0  0  0  0
  8  3  1  0  0  0  0
  9  8  1  0  0  0  0
  9 10  1  0  0  0  0
 11  9  2  0  0  0  0
 12 13  2  0  0  0  0
 12 11  1  0  0  0  0
 13 18  1  0  0  0  0
 14 15  2  0  0  0  0
 14 13  1  0  0  0  0
 15 16  1  0  0  0  0
 16 17  2  0  0  0  0
 18 17  1  0  0  0  0
 18  8  2  0  0  0  0
 19 24  1  0  0  0  0
 19 25  1  0  0  0  0
 20 19  2  0  0  0  0
 21 22  2  0  0  0  0
 21 20  1  0  0  0  0
 22 23  1  0  0  0  0
 23 26  1  0  0  0  0
 23 24  2  0  0  0  0
 27 28  1  0  0  0  0
 27 20  1  0  0  0  0
 29 27  1  0  0  0  0
M  END
>  <minimizedAffinity>
-5.05256224

>  <minimizedRMSD>
2.10713625

$$$$
