
     RDKit          3D

 29 31  0  0  0  0  0  0  0  0999 V2000
   44.3856   35.7733   44.4343 C   0  0  0  0  0  0  0  0  0  0  0  0
   44.6767   35.0424   43.2613 C   0  0  0  0  0  0  0  0  0  0  0  0
   45.2959   33.8184   43.3883 C   0  0  0  0  0  0  0  0  0  0  0  0
   45.5843   33.3977   44.6330 N   0  0  0  0  0  0  0  0  0  0  0  0
   45.3083   34.0908   45.7463 C   0  0  0  0  0  0  0  0  0  0  0  0
   44.6956   35.3065   45.6640 N   0  0  0  0  0  0  0  0  0  0  0  0
   44.2527   35.7370   42.0099 C   0  0  0  0  0  0  0  0  0  0  0  0
   43.8955   36.7533   44.4082 H   0  0  0  0  0  0  0  0  0  0  0  0
   45.4882   33.3107   42.4628 H   0  0  0  0  0  0  0  0  0  0  0  0
   45.5499   33.7337   46.7370 H   0  0  0  0  0  0  0  0  0  0  0  0
   45.0940   35.5283   41.2890 H   0  0  0  0  0  0  0  0  0  0  0  0
   44.2033   36.8088   42.1234 H   0  0  0  0  0  0  0  0  0  0  0  0
   42.9688   35.1855   41.5665 C   0  0  0  0  0  0  0  0  0  0  0  0
   42.6220   33.8636   41.7600 C   0  0  0  0  0  0  0  0  0  0  0  0
   43.3149   33.1923   42.2864 H   0  0  0  0  0  0  0  0  0  0  0  0
   41.4225   33.3043   41.3260 C   0  0  0  0  0  0  0  0  0  0  0  0
   40.5062   34.1224   40.6529 C   0  0  0  0  0  0  0  0  0  0  0  0
   40.8006   35.4509   40.4328 C   0  0  0  0  0  0  0  0  0  0  0  0
   39.8849   36.2668   39.7729 C   0  0  0  0  0  0  0  0  0  0  0  0
   40.2291   37.5802   39.5919 C   0  0  0  0  0  0  0  0  0  0  0  0
   41.4178   38.1550   40.0164 C   0  0  0  0  0  0  0  0  0  0  0  0
   42.2980   37.2914   40.6720 C   0  0  0  0  0  0  0  0  0  0  0  0
   42.0190   35.9384   40.8953 C   0  0  0  0  0  0  0  0  0  0  0  0
   41.1747   32.2609   41.4885 H   0  0  0  0  0  0  0  0  0  0  0  0
   39.5529   33.7636   40.2818 H   0  0  0  0  0  0  0  0  0  0  0  0
   38.9505   35.8515   39.4318 H   0  0  0  0  0  0  0  0  0  0  0  0
   39.5242   38.2344   39.0777 H   0  0  0  0  0  0  0  0  0  0  0  0
   41.6558   39.2038   39.8544 H   0  0  0  0  0  0  0  0  0  0  0  0
   43.2168   37.7964   40.9879 H   0  0  0  0  0  0  0  0  0  0  0  0
  1  6  2  0
  2  3  2  0
  2  1  1  0
  3  4  1  0
  4  5  2  0
  6  5  1  0
  7  2  1  0
  1  8  1  0
  3  9  1  0
  5 10  1  0
  7 11  1  0
  7 12  1  0
 13 14  2  0
 14 15  1  0
 14 16  1  0
 16 17  2  0
 17 18  1  0
 18 19  2  0
 19 20  1  0
 20 21  2  0
 21 22  1  0
 22 23  2  0
 23 13  1  0
 23 18  1  0
 16 24  1  0
 17 25  1  0
 19 26  1  0
 20 27  1  0
 21 28  1  0
 22 29  1  0
  7 13  1  0
M  ISO  6   8  14   9  14  10  14  11   8  12   8  15  15
M  END
>  <DihAtoms>  (1) 
1,6,12,13

>  <DihDeg>  (1) 
26.973175118302795

$$$$
