
 OpenBabel03252505193D

 36 40  0  0  0  0  0  0  0  0999 V2000
   46.1620   32.6040   47.0040 C   0  0  0  0  0  0  0  0  0  0  0  0
   45.1600   32.5580   47.9350 C   0  0  0  0  0  0  0  0  0  0  0  0
   45.2680   31.7580   49.0510 C   0  0  0  0  0  0  0  0  0  0  0  0
   46.4190   31.0160   49.1830 C   0  0  0  0  0  0  0  0  0  0  0  0
   47.4290   31.0730   48.2270 C   0  0  0  0  0  0  0  0  0  0  0  0
   47.2800   31.8860   47.1300 N   0  0  0  0  0  0  0  0  0  0  0  0
   44.2860   33.1680   47.7610 H   0  0  0  0  0  0  0  0  0  0  0  0
   44.4790   31.7310   49.7680 H   0  0  0  0  0  0  0  0  0  0  0  0
   46.4770   30.4510   50.0860 H   0  0  0  0  0  0  0  0  0  0  0  0
   48.7170   30.4080   48.2720 C   0  0  0  0  0  0  0  0  0  0  0  0
   48.8460   29.1830   47.5940 C   0  0  0  0  0  0  0  0  0  0  0  0
   47.9920   28.7840   47.0540 H   0  0  0  0  0  0  0  0  0  0  0  0
   49.9670   28.4150   47.5390 C   0  0  0  0  0  3  0  0  0  0  0  0
   51.0980   28.8380   48.1930 C   0  0  0  0  0  3  0  0  0  0  0  0
   51.0450   30.0280   48.8810 C   0  0  0  0  0  0  0  0  0  0  0  0
   52.1600   30.4440   49.5690 C   0  0  0  0  0  3  0  0  0  0  0  0
   52.1730   31.6180   50.3200 C   0  0  0  0  0  3  0  0  0  0  0  0
   50.9760   32.3420   50.3280 C   0  0  0  0  0  3  0  0  0  0  0  0
   49.8840   31.8910   49.6260 C   0  0  0  0  0  3  0  0  0  0  0  0
   49.8820   30.7540   48.8970 C   0  0  0  0  0  0  0  0  0  0  0  0
   44.9420   35.1650   44.6580 C   0  0  0  0  0  0  0  0  0  0  0  0
   45.7870   35.0370   43.5510 C   0  0  0  0  0  0  0  0  0  0  0  0
   46.7630   34.0710   43.6430 C   0  0  0  0  0  0  0  0  0  0  0  0
   46.8630   33.3010   44.7770 N   0  0  0  0  0  0  0  0  0  0  0  0
   46.0180   33.4590   45.8310 C   0  0  0  0  0  0  0  0  0  0  0  0
   45.0620   34.3930   45.7630 N   0  0  0  0  0  0  0  0  0  0  0  0
   44.1520   35.9120   44.6430 H   0  0  0  0  0  0  0  0  0  0  0  0
   45.6850   35.6530   42.6780 H   0  0  0  0  0  0  0  0  0  0  0  0
   47.7100   33.8200   42.5050 C   0  0  0  0  0  0  0  0  0  0  0  0
   48.9940   34.6470   42.6150 C   0  0  0  0  0  0  0  0  0  0  0  0
   48.9250   33.0870   42.7420 C   0  0  0  0  0  0  0  0  0  0  0  0
   47.2800   33.8880   41.4690 H   0  0  0  0  0  0  0  0  0  0  0  0
   49.1880   35.1980   43.5440 H   0  0  0  0  0  0  0  0  0  0  0  0
   49.4810   35.0240   41.7140 H   0  0  0  0  0  0  0  0  0  0  0  0
   49.0850   32.6760   43.7720 H   0  0  0  0  0  0  0  0  0  0  0  0
   49.4380   32.5310   41.9310 H   0  0  0  0  0  0  0  0  0  0  0  0
  1  6  2  0  0  0  0
  1  2  1  0  0  0  0
  2  3  2  0  0  0  0
  3  4  1  0  0  0  0
  3  8  1  0  0  0  0
  4  9  1  0  0  0  0
  5 10  1  0  0  0  0
  5  4  2  0  0  0  0
  6  5  1  0  0  0  0
  7  2  1  0  0  0  0
 10 20  1  0  0  0  0
 11 10  2  0  0  0  0
 12 11  1  0  0  0  0
 13 11  1  0  0  0  0
 13 14  2  0  0  0  0
 14 15  1  0  0  0  0
 15 20  2  0  0  0  0
 15 16  1  0  0  0  0
 16 17  2  0  0  0  0
 17 18  1  0  0  0  0
 19 18  2  0  0  0  0
 20 19  1  0  0  0  0
 21 26  1  0  0  0  0
 22 23  1  0  0  0  0
 22 21  2  0  0  0  0
 23 24  2  0  0  0  0
 24 25  1  0  0  0  0
 25  1  1  0  0  0  0
 26 25  2  0  0  0  0
 27 21  1  0  0  0  0
 28 22  1  0  0  0  0
 29 30  1  0  0  0  0
 29 31  1  0  0  0  0
 29 23  1  0  0  0  0
 30 31  1  0  0  0  0
 30 33  1  0  0  0  0
 31 35  1  0  0  0  0
 32 29  1  0  0  0  0
 34 30  1  0  0  0  0
 36 31  1  0  0  0  0
M  END
>  <minimizedAffinity>
-6.78346348

>  <minimizedRMSD>
1.32177436

$$$$
