
 OpenBabel03252508333D

 34 37  0  0  1  0  0  0  0  0999 V2000
   45.1430   34.4210   41.9830 N   0  0  0  0  0  0  0  0  0  0  0  0
   46.1890   33.8090   41.3080 C   0  0  1  0  0  0  0  0  0  0  0  0
   46.0870   33.7790   39.8180 C   0  0  0  0  0  0  0  0  0  0  0  0
   44.8140   33.5540   39.2850 N   0  0  0  0  0  0  0  0  0  0  0  0
   43.7090   34.0110   40.0270 C   0  0  0  0  0  0  0  0  0  0  0  0
   44.1380   34.9940   41.1110 C   0  0  0  0  0  0  0  0  0  0  0  0
   46.0430   32.6950   41.5690 H   0  0  0  0  0  0  0  0  0  0  0  0
   46.5240   34.6700   39.3230 H   0  0  0  0  0  0  0  0  0  0  0  0
   46.7590   32.9390   39.4670 H   0  0  0  0  0  0  0  0  0  0  0  0
   44.6550   32.6800   38.7650 H   0  0  0  0  0  0  0  0  0  0  0  0
   42.8900   34.4720   39.4830 H   0  0  0  0  0  0  0  0  0  0  0  0
   43.2840   33.1440   40.5880 H   0  0  0  0  0  0  0  0  0  0  0  0
   43.2290   35.3310   41.5910 H   0  0  0  0  0  0  0  0  0  0  0  0
   44.5690   35.8530   40.5490 H   0  0  0  0  0  0  0  0  0  0  0  0
   47.6070   34.0470   41.6230 C   0  0  0  0  0  0  0  0  0  0  0  0
   48.0740   35.3810   41.6990 C   0  0  0  0  0  0  0  0  0  0  0  0
   47.3650   36.2000   41.4950 H   0  0  0  0  0  0  0  0  0  0  0  0
   49.3290   35.7920   42.0040 C   0  0  0  0  0  3  0  0  0  0  0  0
   50.2760   34.8360   42.2730 C   0  0  0  0  0  3  0  0  0  0  0  0
   49.9430   33.5030   42.2310 C   0  0  0  0  0  0  0  0  0  0  0  0
   50.8490   32.4980   42.4920 C   0  0  0  0  0  3  0  0  0  0  0  0
   50.5200   31.1390   42.4500 C   0  0  0  0  0  3  0  0  0  0  0  0
   49.1970   30.8180   42.1250 C   0  0  0  0  0  3  0  0  0  0  0  0
   48.3320   31.8530   41.8740 C   0  0  0  0  0  3  0  0  0  0  0  0
   48.6470   33.1880   41.9120 C   0  0  0  0  0  0  0  0  0  0  0  0
   44.5860   35.5580   44.0140 C   0  0  0  0  0  0  0  0  0  0  0  0
   45.0860   34.4300   43.3840 C   0  0  0  0  0  0  0  0  0  0  0  0
   45.4830   33.3860   44.1820 C   0  0  0  0  0  0  0  0  0  0  0  0
   45.3910   33.4530   45.5200 N   0  0  0  0  0  0  0  0  0  0  0  0
   44.8930   34.5790   46.1110 C   0  0  0  0  0  0  0  0  0  0  0  0
   44.5020   35.6030   45.3700 N   0  0  0  0  0  0  0  0  0  0  0  0
   44.2210   36.4760   43.5850 H   0  0  0  0  0  0  0  0  0  0  0  0
   45.8680   32.4580   43.8590 H   0  0  0  0  0  0  0  0  0  0  0  0
   44.8250   34.6160   47.2110 H   0  0  0  0  0  0  0  0  0  0  0  0
  1 27  1  0  0  0  0
  2  7  1  1  0  0  0
  2 15  1  0  0  0  0
  2  1  1  0  0  0  0
  3  2  1  0  0  0  0
  4  3  1  0  0  0  0
  4  5  1  0  0  0  0
  5 12  1  0  0  0  0
  5  6  1  0  0  0  0
  6 13  1  0  0  0  0
  6  1  1  0  0  0  0
  8  3  1  0  0  0  0
  9  3  1  0  0  0  0
 10  4  1  0  0  0  0
 11  5  1  0  0  0  0
 14  6  1  0  0  0  0
 15 16  2  0  0  0  0
 15 25  1  0  0  0  0
 16 18  1  0  0  0  0
 17 16  1  0  0  0  0
 18 19  2  0  0  0  0
 20 19  1  0  0  0  0
 20 21  1  0  0  0  0
 22 21  2  0  0  0  0
 23 22  1  0  0  0  0
 24 25  1  0  0  0  0
 24 23  2  0  0  0  0
 25 20  2  0  0  0  0
 26 31  1  0  0  0  0
 27 26  2  0  0  0  0
 27 28  1  0  0  0  0
 28 29  2  0  0  0  0
 29 30  1  0  0  0  0
 30 34  1  0  0  0  0
 31 30  2  0  0  0  0
 32 26  1  0  0  0  0
 33 28  1  0  0  0  0
M  END
>  <minimizedAffinity>
-5.96594334

>  <minimizedRMSD>
3.36900997

$$$$
