
 OpenBabel03252508263D

 43 48  0  0  1  0  0  0  0  0999 V2000
   46.1290   32.3400   45.8620 C   0  0  1  0  0  0  0  0  0  0  0  0
   46.6810   32.6340   47.1910 C   0  0  0  0  0  0  0  0  0  0  0  0
   45.3010   31.8970   46.9670 C   0  0  2  0  0  0  0  0  0  0  0  0
   46.9360   31.7120   45.3370 H   0  0  0  0  0  0  0  0  0  0  0  0
   46.6240   33.6530   47.5750 H   0  0  0  0  0  0  0  0  0  0  0  0
   47.3890   31.9910   47.7360 H   0  0  0  0  0  0  0  0  0  0  0  0
   44.5780   32.5710   47.5250 H   0  0  0  0  0  0  0  0  0  0  0  0
   45.1400   30.5090   47.4000 C   0  0  0  0  0  0  0  0  0  0  0  0
   45.0750   30.0440   48.6800 C   0  0  0  0  0  0  0  0  0  0  0  0
   45.0490   28.7090   49.0600 C   0  0  0  0  0  0  0  0  0  0  0  0
   45.0970   27.7640   48.0150 C   0  0  0  0  0  0  0  0  0  0  0  0
   45.1600   28.2200   46.7090 C   0  0  0  0  0  0  0  0  0  0  0  0
   45.1460   27.2570   45.7200 C   0  0  0  0  0  0  0  0  0  0  0  0
   45.1430   27.6520   44.3780 C   0  0  0  0  0  0  0  0  0  0  0  0
   45.1500   28.9900   44.0460 C   0  0  0  0  0  0  0  0  0  0  0  0
   45.1650   29.9050   45.0720 C   0  0  0  0  0  0  0  0  0  0  0  0
   45.1780   29.5580   46.4110 C   0  0  0  0  0  0  0  0  0  0  0  0
   45.0420   30.8260   49.4470 H   0  0  0  0  0  0  0  0  0  0  0  0
   44.9960   28.4340   50.1050 H   0  0  0  0  0  0  0  0  0  0  0  0
   45.0800   26.7220   48.3080 H   0  0  0  0  0  0  0  0  0  0  0  0
   45.1390   26.2060   45.9980 H   0  0  0  0  0  0  0  0  0  0  0  0
   45.1350   26.8000   43.6810 H   0  0  0  0  0  0  0  0  0  0  0  0
   45.1420   29.0960   42.9860 H   0  0  0  0  0  0  0  0  0  0  0  0
   45.0820   30.8320   44.5800 H   0  0  0  0  0  0  0  0  0  0  0  0
   44.7780   35.5790   44.7210 C   0  0  0  0  0  0  0  0  0  0  0  0
   44.6690   35.3910   43.3070 C   0  0  0  0  0  0  0  0  0  0  0  0
   45.0770   34.1490   42.7840 C   0  0  0  0  0  0  0  0  0  0  0  0
   45.5400   33.2290   43.6330 N   0  0  0  0  0  0  0  0  0  0  0  0
   45.6350   33.4290   44.9720 C   0  0  0  0  0  0  0  0  0  0  0  0
   45.2580   34.5870   45.4970 N   0  0  0  0  0  0  0  0  0  0  0  0
   44.4560   36.5400   45.0950 H   0  0  0  0  0  0  0  0  0  0  0  0
   44.3280   36.2090   42.7200 H   0  0  0  0  0  0  0  0  0  0  0  0
   45.1250   33.7680   41.3940 C   0  0  0  0  0  0  0  0  0  0  0  0
   43.9660   33.1930   40.8550 C   0  0  0  0  0  0  0  0  0  0  0  0
   43.0890   33.0480   41.5040 H   0  0  0  0  0  0  0  0  0  0  0  0
   43.8170   32.7780   39.5530 C   0  0  0  0  0  3  0  0  0  0  0  0
   44.8770   32.9300   38.6890 C   0  0  0  0  0  3  0  0  0  0  0  0
   46.0480   33.4910   39.1440 C   0  0  0  0  0  0  0  0  0  0  0  0
   47.1090   33.6870   38.2880 C   0  0  0  0  0  3  0  0  0  0  0  0
   48.3000   34.2870   38.6940 C   0  0  0  0  0  3  0  0  0  0  0  0
   48.3390   34.6770   40.0390 C   0  0  0  0  0  3  0  0  0  0  0  0
   47.2670   34.4690   40.8720 C   0  0  0  0  0  3  0  0  0  0  0  0
   46.1170   33.8800   40.4570 C   0  0  0  0  0  0  0  0  0  0  0  0
  1  4  1  6  0  0  0
  1  3  1  0  0  0  0
  1  2  1  0  0  0  0
  2  5  1  0  0  0  0
  2  6  1  0  0  0  0
  3  2  1  0  0  0  0
  3  8  1  0  0  0  0
  3  7  1  1  0  0  0
  8  9  1  0  0  0  0
  9 10  2  0  0  0  0
  9 18  1  0  0  0  0
 10 19  1  0  0  0  0
 11 20  1  0  0  0  0
 11 10  1  0  0  0  0
 12 11  2  0  0  0  0
 13 21  1  0  0  0  0
 13 12  1  0  0  0  0
 14 13  2  0  0  0  0
 15 14  1  0  0  0  0
 15 16  2  0  0  0  0
 16 17  1  0  0  0  0
 17 12  1  0  0  0  0
 17  8  2  0  0  0  0
 22 14  1  0  0  0  0
 23 15  1  0  0  0  0
 24 16  1  0  0  0  0
 25 31  1  0  0  0  0
 25 30  1  0  0  0  0
 26 25  2  0  0  0  0
 27 26  1  0  0  0  0
 27 28  2  0  0  0  0
 28 29  1  0  0  0  0
 29 30  2  0  0  0  0
 29  1  1  0  0  0  0
 32 26  1  0  0  0  0
 33 27  1  0  0  0  0
 34 33  1  0  0  0  0
 34 35  1  0  0  0  0
 36 34  2  0  0  0  0
 37 38  2  0  0  0  0
 37 36  1  0  0  0  0
 38 43  1  0  0  0  0
 39 40  2  0  0  0  0
 39 38  1  0  0  0  0
 40 41  1  0  0  0  0
 41 42  2  0  0  0  0
 43 42  1  0  0  0  0
 43 33  2  0  0  0  0
M  END
>  <minimizedAffinity>
-5.86877012

>  <minimizedRMSD>
2.03202152

$$$$
