REMARK  Name = 
REMARK  3 active torsions:
REMARK  status: ('A' for Active; 'I' for Inactive)
REMARK    1  A    between atoms: C_1  and  C_5
REMARK    2  A    between atoms: C_3  and  N_10
REMARK    3  A    between atoms: C_15  and  C_32
REMARK                            x       y       z     vdW  Elec       q    Type
REMARK                         _______ _______ _______ _____ _____    ______ ____
ROOT
ATOM      1  N   UNL     1      49.314  33.190  41.500  0.00  0.00    +0.000 NA
ATOM      2  C   UNL     1      50.648  33.116  41.982  0.00  0.00    +0.000 C 
ATOM      3  C   UNL     1      51.344  31.819  41.821  0.00  0.00    +0.000 C 
ATOM      4  C   UNL     1      50.618  30.749  42.581  0.00  0.00    +0.000 C 
ATOM      5  C   UNL     1      49.139  30.978  42.512  0.00  0.00    +0.000 C 
ATOM      6  C   UNL     1      48.718  31.872  41.426  0.00  0.00    +0.000 C 
ATOM      7  H   UNL     1      50.660  33.348  43.084  0.00  0.00    +0.000 HD
ATOM      8  H   UNL     1      51.239  33.955  41.527  0.00  0.00    +0.000 HD
ATOM      9  H   UNL     1      52.328  31.949  42.394  0.00  0.00    +0.000 HD
ATOM     10  H   UNL     1      51.681  31.525  40.835  0.00  0.00    +0.000 HD
ATOM     11  H   UNL     1      50.891  30.841  43.658  0.00  0.00    +0.000 HD
ATOM     12  H   UNL     1      50.943  29.726  42.298  0.00  0.00    +0.000 HD
ATOM     13  H   UNL     1      48.714  29.964  42.439  0.00  0.00    +0.000 HD
ATOM     14  H   UNL     1      48.721  31.379  43.483  0.00  0.00    +0.000 HD
ATOM     15  H   UNL     1      47.644  32.174  41.695  0.00  0.00    +0.000 HD
ENDROOT
BRANCH   6  16
ATOM     16  C   UNL     1      48.588  31.342  40.063  0.00  0.00    +0.000 A 
ATOM     17  C   UNL     1      47.550  31.525  39.169  0.00  0.00    +0.000 A 
ATOM     18  H   UNL     1      46.716  32.130  39.493  0.00  0.00    +0.000 HD
ATOM     19  C   UNL     1      47.447  31.010  37.920  0.00  0.00    +0.000 A 
ATOM     20  C   UNL     1      48.447  30.219  37.447  0.00  0.00    +0.000 A 
ATOM     21  C   UNL     1      49.532  29.971  38.260  0.00  0.00    +0.000 A 
ATOM     22  C   UNL     1      50.512  29.161  37.727  0.00  0.00    +0.000 A 
ATOM     23  C   UNL     1      51.624  28.867  38.481  0.00  0.00    +0.000 A 
ATOM     24  C   UNL     1      51.738  29.386  39.753  0.00  0.00    +0.000 A 
ATOM     25  C   UNL     1      50.721  30.188  40.223  0.00  0.00    +0.000 A 
ATOM     26  C   UNL     1      49.584  30.522  39.523  0.00  0.00    +0.000 A 
ENDBRANCH   6  16
BRANCH   1  29
ATOM     27  C   UNL     1      47.189  34.564  42.008  0.00  0.00    +0.000 C 
ATOM     28  C   UNL     1      48.291  35.441  41.679  0.00  0.00    +0.000 C 
ATOM     29  C   UNL     1      48.612  34.131  42.330  0.00  0.00    +0.000 C 
ATOM     30  H   UNL     1      46.720  33.907  41.260  0.00  0.00    +0.000 HD
ATOM     31  H   UNL     1      48.528  35.566  40.589  0.00  0.00    +0.000 HD
ATOM     32  H   UNL     1      48.459  36.390  42.238  0.00  0.00    +0.000 HD
ATOM     33  H   UNL     1      48.959  34.215  43.376  0.00  0.00    +0.000 HD
BRANCH  27  35
ATOM     34  C   UNL     1      45.510  36.029  43.186  0.00  0.00    +0.000 A 
ATOM     35  C   UNL     1      46.276  34.843  43.157  0.00  0.00    +0.000 A 
ATOM     36  C   UNL     1      46.151  33.968  44.219  0.00  0.00    +0.000 A 
ATOM     37  N   UNL     1      45.294  34.310  45.222  0.00  0.00    +0.000 NA
ATOM     38  C   UNL     1      44.573  35.446  45.226  0.00  0.00    +0.000 A 
ATOM     39  N   UNL     1      44.672  36.321  44.208  0.00  0.00    +0.000 NA
ATOM     40  H   UNL     1      45.615  36.712  42.346  0.00  0.00    +0.000 HD
ATOM     41  H   UNL     1      46.706  33.056  44.251  0.00  0.00    +0.000 HD
ATOM     42  H   UNL     1      43.903  35.678  46.045  0.00  0.00    +0.000 HD
ENDBRANCH  27  35
ENDBRANCH   1  29
TORSDOF 3
