
 OpenBabel03242512383D

 36 40  0  0  0  0  0  0  0  0999 V2000
   46.8030   34.7430   42.8190 C   0  0  0  0  0  0  0  0  0  0  0  0
   45.7630   35.6120   43.0570 C   0  0  0  0  0  0  0  0  0  0  0  0
   44.9510   35.2640   44.1710 C   0  0  0  0  0  0  0  0  0  0  0  0
   45.2240   34.1550   44.9050 N   0  0  0  0  0  0  0  0  0  0  0  0
   46.2470   33.3560   44.6190 C   0  0  0  0  0  0  0  0  0  0  0  0
   46.9930   33.6910   43.5830 N   0  0  0  0  0  0  0  0  0  0  0  0
   45.4860   36.5010   42.5240 H   0  0  0  0  0  0  0  0  0  0  0  0
   44.1110   35.8460   44.4720 H   0  0  0  0  0  0  0  0  0  0  0  0
   46.7090   32.1260   45.2740 C   0  0  0  0  0  0  0  0  0  0  0  0
   47.4930   31.1610   44.6290 C   0  0  0  0  0  0  0  0  0  0  0  0
   47.7650   31.3460   43.5900 H   0  0  0  0  0  0  0  0  0  0  0  0
   47.9320   30.0100   45.2210 C   0  0  0  0  0  0  0  0  0  0  0  0
   47.6100   29.7400   46.5290 C   0  0  0  0  0  0  0  0  0  0  0  0
   46.8440   30.6470   47.2180 C   0  0  0  0  0  0  0  0  0  0  0  0
   46.5420   30.3410   48.5260 C   0  0  0  0  0  0  0  0  0  0  0  0
   45.7770   31.1990   49.2860 C   0  0  0  0  0  0  0  0  0  0  0  0
   45.3380   32.3700   48.6640 C   0  0  0  0  0  0  0  0  0  0  0  0
   45.6740   32.6180   47.3520 C   0  0  0  0  0  0  0  0  0  0  0  0
   46.4310   31.7850   46.5730 C   0  0  0  0  0  0  0  0  0  0  0  0
   47.6530   35.0580   41.7090 C   0  0  0  0  0  0  0  0  0  0  0  0
   48.6240   35.8720   41.7250 O   0  0  0  0  0  0  0  0  0  0  0  0
   46.2870   33.6750   40.0950 C   0  0  0  0  0  0  0  0  0  0  0  0
   47.4190   34.4030   40.4080 C   0  0  0  0  0  0  0  0  0  0  0  0
   48.4170   34.5360   39.4560 C   0  0  0  0  0  0  0  0  0  0  0  0
   48.3590   33.9800   38.1910 C   0  0  0  0  0  0  0  0  0  0  0  0
   49.1830   33.9700   37.1300 N   0  0  0  0  0  0  0  0  0  0  0  0
   48.6140   33.2610   36.1570 C   0  0  0  0  0  0  0  0  0  0  0  0
   47.3750   32.7960   36.6040 C   0  0  0  0  0  0  0  0  0  0  0  0
   47.2170   33.2540   37.8920 C   0  0  0  0  0  0  0  0  0  0  0  0
   46.2050   33.1050   38.8260 C   0  0  0  0  0  0  0  0  0  0  0  0
   45.5440   33.5960   40.8500 H   0  0  0  0  0  0  0  0  0  0  0  0
   49.3520   35.0960   39.6170 H   0  0  0  0  0  0  0  0  0  0  0  0
   50.1240   34.4350   37.0580 H   0  0  0  0  0  0  0  0  0  0  0  0
   48.9900   33.0400   35.1610 H   0  0  0  0  0  0  0  0  0  0  0  0
   46.6250   32.1850   36.0950 H   0  0  0  0  0  0  0  0  0  0  0  0
   45.3030   32.5460   38.6240 H   0  0  0  0  0  0  0  0  0  0  0  0
  1  2  2  0  0  0  0
  1  6  1  0  0  0  0
  2  3  1  0  0  0  0
  3  8  1  0  0  0  0
  3  4  2  0  0  0  0
  5  4  1  0  0  0  0
  5  9  1  0  0  0  0
  6  5  2  0  0  0  0
  7  2  1  0  0  0  0
  9 19  1  0  0  0  0
 10 12  1  0  0  0  0
 10  9  2  0  0  0  0
 11 10  1  0  0  0  0
 12 13  2  0  0  0  0
 13 14  1  0  0  0  0
 14 15  1  0  0  0  0
 15 16  2  0  0  0  0
 17 16  1  0  0  0  0
 18 17  2  0  0  0  0
 19 14  2  0  0  0  0
 19 18  1  0  0  0  0
 20 21  2  0  0  0  0
 20  1  1  0  0  0  0
 22 23  1  0  0  0  0
 22 31  1  0  0  0  0
 23 20  1  0  0  0  0
 24 32  1  0  0  0  0
 24 23  2  0  0  0  0
 25 24  1  0  0  0  0
 26 25  1  0  0  0  0
 27 28  2  0  0  0  0
 27 26  1  0  0  0  0
 28 29  1  0  0  0  0
 29 25  2  0  0  0  0
 29 30  1  0  0  0  0
 30 22  2  0  0  0  0
 33 26  1  0  0  0  0
 34 27  1  0  0  0  0
 35 28  1  0  0  0  0
 36 30  1  0  0  0  0
M  END
>  <minimizedAffinity>
-7.42903757

>  <minimizedRMSD>
0.491097957

$$$$
