
 OpenBabel03252503133D

 36 40  0  0  0  0  0  0  0  0999 V2000
   46.5200   34.8220   41.9000 C   0  0  0  0  0  0  0  0  0  0  0  0
   47.7190   35.2200   41.8490 O   0  0  0  0  0  0  0  0  0  0  0  0
   45.2380   36.1730   43.4990 C   0  0  0  0  0  0  0  0  0  0  0  0
   45.8740   34.9610   43.1620 C   0  0  0  0  0  0  0  0  0  0  0  0
   45.8070   33.9780   44.1280 C   0  0  0  0  0  0  0  0  0  0  0  0
   45.1770   34.1620   45.3080 N   0  0  0  0  0  0  0  0  0  0  0  0
   44.5790   35.3450   45.5920 C   0  0  0  0  0  0  0  0  0  0  0  0
   44.6100   36.3450   44.6870 N   0  0  0  0  0  0  0  0  0  0  0  0
   45.2400   37.0090   42.7960 H   0  0  0  0  0  0  0  0  0  0  0  0
   44.0750   35.4920   46.5340 H   0  0  0  0  0  0  0  0  0  0  0  0
   46.4200   32.7400   43.8760 C   0  0  0  0  0  0  0  0  0  0  0  0
   47.6860   32.2500   44.0060 C   0  0  0  0  0  0  0  0  0  0  0  0
   48.0360   31.0140   43.7000 C   0  0  0  0  0  0  0  0  0  0  0  0
   47.0330   30.2150   43.2280 C   0  0  0  0  0  0  0  0  0  0  0  0
   45.5520   31.3220   43.2430 S   0  0  0  0  0  0  0  0  0  0  0  0
   48.4190   32.9850   44.3980 H   0  0  0  0  0  0  0  0  0  0  0  0
   49.0140   30.5650   43.7780 H   0  0  0  0  0  0  0  0  0  0  0  0
   47.0340   29.1520   42.8990 H   0  0  0  0  0  0  0  0  0  0  0  0
   45.7800   34.2360   40.7450 C   0  0  0  0  0  0  0  0  0  0  0  0
   44.4390   34.3280   40.4870 C   0  0  0  0  0  0  0  0  0  0  0  0
   44.2380   33.6480   39.3480 N   0  0  0  0  0  0  0  0  0  0  0  0
   45.4140   33.1440   38.9070 C   0  0  0  0  0  0  0  0  0  0  0  0
   46.3360   33.5180   39.7780 N   0  0  0  0  0  0  0  0  0  0  0  0
   43.7910   34.8680   41.1460 H   0  0  0  0  0  0  0  0  0  0  0  0
   43.2700   33.6070   38.9910 H   0  0  0  0  0  0  0  0  0  0  0  0
   45.3880   32.3710   37.6730 C   0  0  0  0  0  0  0  0  0  0  0  0
   45.5320   32.9570   36.4350 C   0  0  0  0  0  0  0  0  0  0  0  0
   45.6710   34.0220   36.3120 H   0  0  0  0  0  0  0  0  0  0  0  0
   45.5150   32.2740   35.2390 C   0  0  0  0  0  3  0  0  0  0  0  0
   45.3460   30.9120   35.2380 C   0  0  0  0  0  3  0  0  0  0  0  0
   45.1980   30.2710   36.4360 C   0  0  0  0  0  0  0  0  0  0  0  0
   45.0280   28.9020   36.4290 C   0  0  0  0  0  3  0  0  0  0  0  0
   44.8740   28.2000   37.5990 C   0  0  0  0  0  3  0  0  0  0  0  0
   44.8930   28.9090   38.8020 C   0  0  0  0  0  3  0  0  0  0  0  0
   45.0660   30.2750   38.7390 C   0  0  0  0  0  3  0  0  0  0  0  0
   45.2240   31.0090   37.5900 C   0  0  0  0  0  0  0  0  0  0  0  0
  1  4  1  0  0  0  0
  2  1  2  0  0  0  0
  3  8  1  0  0  0  0
  4  3  2  0  0  0  0
  4  5  1  0  0  0  0
  5  6  2  0  0  0  0
  6  7  1  0  0  0  0
  7 10  1  0  0  0  0
  8  7  2  0  0  0  0
  9  3  1  0  0  0  0
 11 12  2  0  0  0  0
 11  5  1  0  0  0  0
 12 16  1  0  0  0  0
 13 17  1  0  0  0  0
 13 12  1  0  0  0  0
 14 15  1  0  0  0  0
 14 13  2  0  0  0  0
 15 11  1  0  0  0  0
 18 14  1  0  0  0  0
 19  1  1  0  0  0  0
 20 19  2  0  0  0  0
 20 24  1  0  0  0  0
 21 20  1  0  0  0  0
 22 21  1  0  0  0  0
 22 23  2  0  0  0  0
 23 19  1  0  0  0  0
 25 21  1  0  0  0  0
 26 22  1  0  0  0  0
 27 26  2  0  0  0  0
 28 27  1  0  0  0  0
 29 27  1  0  0  0  0
 30 29  2  0  0  0  0
 30 31  1  0  0  0  0
 31 36  1  0  0  0  0
 32 31  2  0  0  0  0
 32 33  1  0  0  0  0
 33 34  2  0  0  0  0
 35 34  1  0  0  0  0
 36 26  1  0  0  0  0
 36 35  2  0  0  0  0
M  END
>  <minimizedAffinity>
-5.03016567

>  <minimizedRMSD>
0.402364701

$$$$
