
 OpenBabel03242516063D

 38 42  0  0  0  0  0  0  0  0999 V2000
   45.5200   33.0050   41.1470 Cl  0  0  0  0  0  0  0  0  0  0  0  0
   46.8690   34.1110   41.1100 C   0  0  0  0  0  0  0  0  0  0  0  0
   47.1750   34.9230   42.1630 C   0  0  0  0  0  0  0  0  0  0  0  0
   48.2470   35.7470   42.0110 C   0  0  0  0  0  0  0  0  0  0  0  0
   48.9970   35.7860   40.8860 C   0  0  0  0  0  0  0  0  0  0  0  0
   48.6960   34.9750   39.8270 C   0  0  0  0  0  0  0  0  0  0  0  0
   47.6050   34.1180   39.9450 C   0  0  0  0  0  0  0  0  0  0  0  0
   48.5220   36.4060   42.8260 H   0  0  0  0  0  0  0  0  0  0  0  0
   49.8520   36.4360   40.7540 H   0  0  0  0  0  0  0  0  0  0  0  0
   49.2900   34.9970   38.9180 H   0  0  0  0  0  0  0  0  0  0  0  0
   44.4940   35.6400   44.7450 C   0  0  0  0  0  0  0  0  0  0  0  0
   45.2830   35.7350   43.6000 C   0  0  0  0  0  0  0  0  0  0  0  0
   46.3420   34.8440   43.3500 C   0  0  0  0  0  0  0  0  0  0  0  0
   46.5350   33.8940   44.3000 N   0  0  0  0  0  0  0  0  0  0  0  0
   45.7640   33.8130   45.4040 C   0  0  0  0  0  0  0  0  0  0  0  0
   44.7600   34.6800   45.6140 N   0  0  0  0  0  0  0  0  0  0  0  0
   43.6850   36.3250   44.9300 H   0  0  0  0  0  0  0  0  0  0  0  0
   45.0780   36.5170   42.8760 H   0  0  0  0  0  0  0  0  0  0  0  0
   46.1030   32.9750   46.0250 H   0  0  0  0  0  0  0  0  0  0  0  0
   47.2620   33.2330   38.8050 C   0  0  0  0  0  0  0  0  0  0  0  0
   47.8670   31.9920   38.5990 C   0  0  0  0  0  0  0  0  0  0  0  0
   47.0580   31.3780   37.0860 S   0  0  0  0  0  0  0  0  0  0  0  0
   45.9950   32.9470   36.9650 C   0  0  0  0  0  0  0  0  0  0  0  0
   46.3700   33.4930   37.8720 N   0  0  0  0  0  0  0  0  0  0  0  0
   45.0210   33.2400   35.9580 N   0  0  0  0  0  0  0  0  0  0  0  0
   44.2080   32.5790   36.0740 H   0  0  0  0  0  0  0  0  0  0  0  0
   45.1180   33.9740   35.2520 H   0  0  0  0  0  0  0  0  0  0  0  0
   48.8850   31.2410   39.3040 C   0  0  0  0  0  0  0  0  0  0  0  0
   50.1740   31.5310   38.8500 C   0  0  0  0  0  0  0  0  0  0  0  0
   50.5210   32.2160   38.0690 H   0  0  0  0  0  0  0  0  0  0  0  0
   51.2670   30.9040   39.4120 C   0  0  0  0  0  3  0  0  0  0  0  0
   51.1290   29.9760   40.4340 C   0  0  0  0  0  3  0  0  0  0  0  0
   49.8550   29.6960   40.8770 C   0  0  0  0  0  0  0  0  0  0  0  0
   49.6360   28.7830   41.8970 C   0  0  0  0  0  3  0  0  0  0  0  0
   48.3290   28.5550   42.2900 C   0  0  0  0  0  3  0  0  0  0  0  0
   47.2270   29.1820   41.7300 C   0  0  0  0  0  3  0  0  0  0  0  0
   47.4580   30.0930   40.7120 C   0  0  0  0  0  3  0  0  0  0  0  0
   48.7590   30.3180   40.3210 C   0  0  0  0  0  0  0  0  0  0  0  0
  2  1  1  0  0  0  0
  2  3  1  0  0  0  0
  3 13  1  0  0  0  0
  4  3  2  0  0  0  0
  4  8  1  0  0  0  0
  5  4  1  0  0  0  0
  6  7  1  0  0  0  0
  6  5  2  0  0  0  0
  7  2  2  0  0  0  0
  9  5  1  0  0  0  0
 10  6  1  0  0  0  0
 11 17  1  0  0  0  0
 11 16  1  0  0  0  0
 12 11  2  0  0  0  0
 13 12  1  0  0  0  0
 13 14  2  0  0  0  0
 14 15  1  0  0  0  0
 15 16  2  0  0  0  0
 15 19  1  0  0  0  0
 18 12  1  0  0  0  0
 20  7  1  0  0  0  0
 21 20  2  0  0  0  0
 21 28  1  0  0  0  0
 22 21  1  0  0  0  0
 23 22  1  0  0  0  0
 23 24  2  0  0  0  0
 24 20  1  0  0  0  0
 25 26  1  0  0  0  0
 25 23  1  0  0  0  0
 27 25  1  0  0  0  0
 28 38  1  0  0  0  0
 29 28  2  0  0  0  0
 29 31  1  0  0  0  0
 30 29  1  0  0  0  0
 31 32  2  0  0  0  0
 32 33  1  0  0  0  0
 33 34  1  0  0  0  0
 34 35  2  0  0  0  0
 36 35  1  0  0  0  0
 37 36  2  0  0  0  0
 38 37  1  0  0  0  0
 38 33  2  0  0  0  0
M  END
>  <minimizedAffinity>
-6.08722734

>  <minimizedRMSD>
1.76595342

$$$$
