
     RDKit          3D

 42 45  0  0  0  0  0  0  0  0999 V2000
   43.8520   33.6190   40.6258 C   0  0  0  0  0  0  0  0  0  0  0  0
   40.3794   34.7944   41.4825 C   0  0  0  0  0  0  0  0  0  0  0  0
   41.7501   34.8381   41.1021 C   0  0  0  0  0  0  0  0  0  0  0  0
   42.4230   33.6100   41.0193 C   0  0  0  0  0  0  0  0  0  0  0  0
   41.7277   32.4495   41.3068 N   0  0  0  0  0  0  0  0  0  0  0  0
   40.4376   32.4883   41.6581 C   0  0  0  0  0  0  0  0  0  0  0  0
   39.7621   33.6440   41.7477 N   0  0  0  0  0  0  0  0  0  0  0  0
   44.6797   34.0610   41.8123 C   0  0  0  0  0  0  0  0  0  0  0  0
   46.0482   34.3993   41.4359 C   0  0  0  0  0  0  0  0  0  0  0  0
   46.6273   34.0417   40.2484 C   0  0  0  0  0  0  0  0  0  0  0  0
   47.9279   34.3468   39.8695 C   0  0  0  0  0  0  0  0  0  0  0  0
   48.6772   35.0784   40.7986 C   0  0  0  0  0  0  0  0  0  0  0  0
   48.1046   35.4531   42.0158 C   0  0  0  0  0  0  0  0  0  0  0  0
   46.8002   35.1254   42.3510 C   0  0  0  0  0  0  0  0  0  0  0  0
   44.1121   32.5695   40.3544 H   0  0  0  0  0  0  0  0  0  0  0  0
   44.0467   34.3259   39.7931 H   0  0  0  0  0  0  0  0  0  0  0  0
   39.8030   35.7038   41.5653 H   0  0  0  0  0  0  0  0  0  0  0  0
   42.2307   35.7837   40.8915 H   0  0  0  0  0  0  0  0  0  0  0  0
   40.0816   31.4679   41.8408 H   0  0  0  0  0  0  0  0  0  0  0  0
   44.7515   33.1953   42.5301 H   0  0  0  0  0  0  0  0  0  0  0  0
   44.1785   34.8644   42.4003 H   0  0  0  0  0  0  0  0  0  0  0  0
   46.0599   33.4791   39.5272 H   0  0  0  0  0  0  0  0  0  0  0  0
   48.3283   34.0378   38.9211 H   0  0  0  0  0  0  0  0  0  0  0  0
   49.6964   35.3312   40.5303 H   0  0  0  0  0  0  0  0  0  0  0  0
   48.7558   36.0213   42.6834 H   0  0  0  0  0  0  0  0  0  0  0  0
   46.3159   35.5734   43.6505 C   0  0  0  0  0  0  0  0  0  0  0  0
   46.7906   34.8659   44.7358 C   0  0  0  0  0  0  0  0  0  0  0  0
   47.4773   34.0299   44.6581 H   0  0  0  0  0  0  0  0  0  0  0  0
   46.4119   35.1852   46.0259 C   0  0  0  0  0  0  0  0  0  0  0  0
   45.5393   36.2339   46.2449 C   0  0  0  0  0  0  0  0  0  0  0  0
   45.0730   36.9310   45.1586 C   0  0  0  0  0  0  0  0  0  0  0  0
   44.1926   37.9947   45.3293 C   0  0  0  0  0  0  0  0  0  0  0  0
   43.7380   38.6811   44.2113 C   0  0  0  0  0  0  0  0  0  0  0  0
   44.1335   38.3411   42.9215 C   0  0  0  0  0  0  0  0  0  0  0  0
   45.0123   37.2821   42.7267 C   0  0  0  0  0  0  0  0  0  0  0  0
   45.4373   36.6300   43.8645 C   0  0  0  0  0  0  0  0  0  0  0  0
   46.7755   34.6395   46.8901 H   0  0  0  0  0  0  0  0  0  0  0  0
   45.2185   36.5138   47.2529 H   0  0  0  0  0  0  0  0  0  0  0  0
   43.8891   38.2546   46.3272 H   0  0  0  0  0  0  0  0  0  0  0  0
   43.0480   39.5067   44.4159 H   0  0  0  0  0  0  0  0  0  0  0  0
   43.7411   38.9178   42.0955 H   0  0  0  0  0  0  0  0  0  0  0  0
   45.3340   36.9976   41.7489 H   0  0  0  0  0  0  0  0  0  0  0  0
  1  4  1  0
  1  8  1  0
  2  7  2  0
  3  2  1  0
  4  3  2  0
  4  5  1  0
  5  6  2  0
  6  7  1  0
  9  8  1  0
  9 14  1  0
 10  9  2  0
 11 10  1  0
 11 12  2  0
 12 13  1  0
 13 14  2  0
  1 15  1  0
  1 16  1  0
  2 17  1  0
  3 18  1  0
  6 19  1  0
  8 20  1  0
  8 21  1  0
 10 22  1  0
 11 23  1  0
 12 24  1  0
 13 25  1  0
 26 27  2  0
 27 28  1  0
 27 29  1  0
 29 30  2  0
 30 31  1  0
 31 32  2  0
 32 33  1  0
 33 34  2  0
 34 35  1  0
 35 36  2  0
 36 26  1  0
 36 31  1  0
 29 37  1  0
 30 38  1  0
 32 39  1  0
 33 40  1  0
 34 41  1  0
 35 42  1  0
 14 26  1  0
M  ISO  8  15   8  16   8  17  14  18  14  19  14  20   8  21   8  22  14
M  ISO  4  23  14  24  14  25  14  28  15
M  END
>  <DihAtoms>  (1) 
8,13,25,26

>  <DihDeg>  (1) 
-89.99867697742428

$$$$
