
 OpenBabel03252500113D

 33 36  0  0  0  0  0  0  0  0999 V2000
   40.1360   29.5040   40.4510 Cl  0  0  0  0  0  0  0  0  0  0  0  0
   38.7020   29.8670   39.5310 C   0  0  0  0  0  0  0  0  0  0  0  0
   38.7800   30.5890   38.3720 C   0  0  0  0  0  0  0  0  0  0  0  0
   37.6430   30.8960   37.6110 C   0  0  0  0  0  0  0  0  0  0  0  0
   36.4420   30.4240   38.1040 C   0  0  0  0  0  0  0  0  0  0  0  0
   36.3630   29.7030   39.2600 C   0  0  0  0  0  0  0  0  0  0  0  0
   37.4820   29.4140   39.9860 C   0  0  0  0  0  0  0  0  0  0  0  0
   37.7380   31.4710   36.6970 H   0  0  0  0  0  0  0  0  0  0  0  0
   35.5600   30.6560   37.5240 H   0  0  0  0  0  0  0  0  0  0  0  0
   35.3870   29.3620   39.5900 H   0  0  0  0  0  0  0  0  0  0  0  0
   37.3890   28.6400   41.2260 C   0  0  0  0  0  0  0  0  0  0  0  0
   37.4660   29.3100   42.4330 C   0  0  0  0  0  0  0  0  0  0  0  0
   37.5930   30.4000   42.4450 H   0  0  0  0  0  0  0  0  0  0  0  0
   37.3780   28.5750   43.6060 C   0  0  0  0  0  3  0  0  0  0  0  0
   37.2180   27.2030   43.5520 C   0  0  0  0  0  3  0  0  0  0  0  0
   37.1490   26.6030   42.3130 C   0  0  0  0  0  0  0  0  0  0  0  0
   36.9900   25.2320   42.3140 C   0  0  0  0  0  3  0  0  0  0  0  0
   36.9140   24.5720   41.1030 C   0  0  0  0  0  3  0  0  0  0  0  0
   36.9970   25.2720   39.9120 C   0  0  0  0  0  3  0  0  0  0  0  0
   37.1590   26.6580   39.8840 C   0  0  0  0  0  3  0  0  0  0  0  0
   37.2300   27.2690   41.1090 C   0  0  0  0  0  0  0  0  0  0  0  0
   41.6760   32.7660   37.6770 C   0  0  0  0  0  0  0  0  0  0  0  0
   42.5500   31.8960   36.9980 C   0  0  0  0  0  0  0  0  0  0  0  0
   42.1340   30.5820   36.7900 C   0  0  0  0  0  0  0  0  0  0  0  0
   40.9190   30.1900   37.2420 N   0  0  0  0  0  0  0  0  0  0  0  0
   40.0900   31.0640   37.9010 C   0  0  0  0  0  0  0  0  0  0  0  0
   40.4720   32.3320   38.1100 N   0  0  0  0  0  0  0  0  0  0  0  0
   42.0570   33.7520   37.8000 H   0  0  0  0  0  0  0  0  0  0  0  0
   43.5130   32.1140   36.6110 H   0  0  0  0  0  0  0  0  0  0  0  0
   42.9840   29.5610   36.0770 C   0  0  0  0  0  0  0  0  0  0  0  0
   43.2660   29.9640   34.8000 F   0  0  0  0  0  0  0  0  0  0  0  0
   44.1830   29.4170   36.7750 F   0  0  0  0  0  0  0  0  0  0  0  0
   42.2830   28.3800   36.0950 F   0  0  0  0  0  0  0  0  0  0  0  0
  2  7  1  0  0  0  0
  2  1  1  0  0  0  0
  3  2  2  0  0  0  0
  4  5  2  0  0  0  0
  4  3  1  0  0  0  0
  5  6  1  0  0  0  0
  6 10  1  0  0  0  0
  6  7  2  0  0  0  0
  7 11  1  0  0  0  0
  8  4  1  0  0  0  0
  9  5  1  0  0  0  0
 11 12  1  0  0  0  0
 12 13  1  0  0  0  0
 12 14  2  0  0  0  0
 15 14  1  0  0  0  0
 16 17  1  0  0  0  0
 16 15  2  0  0  0  0
 18 17  2  0  0  0  0
 19 18  1  0  0  0  0
 20 19  2  0  0  0  0
 20 21  1  0  0  0  0
 21 11  2  0  0  0  0
 21 16  1  0  0  0  0
 22 28  1  0  0  0  0
 22 27  1  0  0  0  0
 23 22  2  0  0  0  0
 24 23  1  0  0  0  0
 24 25  2  0  0  0  0
 25 26  1  0  0  0  0
 26 27  2  0  0  0  0
 26  3  1  0  0  0  0
 29 23  1  0  0  0  0
 30 33  1  0  0  0  0
 30 32  1  0  0  0  0
 30 24  1  0  0  0  0
 31 30  1  0  0  0  0
M  END
>  <minimizedAffinity>
-6.76836443

$$$$

 OpenBabel03252500113D

 33 36  0  0  0  0  0  0  0  0999 V2000
   40.1910   29.2280   40.4470 Cl  0  0  0  0  0  0  0  0  0  0  0  0
   38.7800   29.7050   39.5420 C   0  0  0  0  0  0  0  0  0  0  0  0
   38.9050   30.4230   38.3840 C   0  0  0  0  0  0  0  0  0  0  0  0
   37.7880   30.8210   37.6350 C   0  0  0  0  0  0  0  0  0  0  0  0
   36.5590   30.4420   38.1380 C   0  0  0  0  0  0  0  0  0  0  0  0
   36.4330   29.7260   39.2930 C   0  0  0  0  0  0  0  0  0  0  0  0
   37.5330   29.3480   40.0070 C   0  0  0  0  0  0  0  0  0  0  0  0
   37.9190   31.3900   36.7220 H   0  0  0  0  0  0  0  0  0  0  0  0
   35.6910   30.7450   37.5670 H   0  0  0  0  0  0  0  0  0  0  0  0
   35.4370   29.4620   39.6310 H   0  0  0  0  0  0  0  0  0  0  0  0
   37.3920   28.5800   41.2460 C   0  0  0  0  0  0  0  0  0  0  0  0
   37.4410   29.2520   42.4530 C   0  0  0  0  0  0  0  0  0  0  0  0
   37.5830   30.3400   42.4650 H   0  0  0  0  0  0  0  0  0  0  0  0
   37.3070   28.5230   43.6240 C   0  0  0  0  0  3  0  0  0  0  0  0
   37.1290   27.1530   43.5700 C   0  0  0  0  0  3  0  0  0  0  0  0
   37.0900   26.5500   42.3310 C   0  0  0  0  0  0  0  0  0  0  0  0
   36.9110   25.1820   42.3310 C   0  0  0  0  0  3  0  0  0  0  0  0
   36.8630   24.5180   41.1200 C   0  0  0  0  0  3  0  0  0  0  0  0
   36.9920   25.2130   39.9300 C   0  0  0  0  0  3  0  0  0  0  0  0
   37.1750   26.5970   39.9030 C   0  0  0  0  0  3  0  0  0  0  0  0
   37.2170   27.2110   41.1290 C   0  0  0  0  0  0  0  0  0  0  0  0
   42.2310   30.2530   36.7990 C   0  0  0  0  0  0  0  0  0  0  0  0
   42.7380   31.5480   37.0230 C   0  0  0  0  0  0  0  0  0  0  0  0
   41.9340   32.4550   37.7110 C   0  0  0  0  0  0  0  0  0  0  0  0
   40.7070   32.0670   38.1370 N   0  0  0  0  0  0  0  0  0  0  0  0
   40.2430   30.7960   37.9020 C   0  0  0  0  0  0  0  0  0  0  0  0
   41.0010   29.9090   37.2420 N   0  0  0  0  0  0  0  0  0  0  0  0
   42.8970   29.6160   36.2680 H   0  0  0  0  0  0  0  0  0  0  0  0
   43.6780   31.9380   36.7280 H   0  0  0  0  0  0  0  0  0  0  0  0
   42.3680   33.8670   38.0090 C   0  0  0  0  0  0  0  0  0  0  0  0
   41.4070   34.5360   38.7170 F   0  0  0  0  0  0  0  0  0  0  0  0
   43.5340   33.8200   38.7730 F   0  0  0  0  0  0  0  0  0  0  0  0
   42.6210   34.4670   36.8000 F   0  0  0  0  0  0  0  0  0  0  0  0
  2  7  1  0  0  0  0
  2  1  1  0  0  0  0
  3  2  2  0  0  0  0
  4  5  2  0  0  0  0
  4  3  1  0  0  0  0
  5  6  1  0  0  0  0
  6 10  1  0  0  0  0
  6  7  2  0  0  0  0
  7 11  1  0  0  0  0
  8  4  1  0  0  0  0
  9  5  1  0  0  0  0
 11 12  1  0  0  0  0
 12 13  1  0  0  0  0
 12 14  2  0  0  0  0
 15 14  1  0  0  0  0
 16 15  2  0  0  0  0
 17 16  1  0  0  0  0
 18 17  2  0  0  0  0
 19 18  1  0  0  0  0
 20 19  2  0  0  0  0
 20 21  1  0  0  0  0
 21 11  2  0  0  0  0
 21 16  1  0  0  0  0
 22 23  2  0  0  0  0
 22 27  1  0  0  0  0
 23 24  1  0  0  0  0
 24 30  1  0  0  0  0
 24 25  2  0  0  0  0
 26 25  1  0  0  0  0
 26  3  1  0  0  0  0
 27 26  2  0  0  0  0
 28 22  1  0  0  0  0
 29 23  1  0  0  0  0
 30 31  1  0  0  0  0
 30 32  1  0  0  0  0
 33 30  1  0  0  0  0
M  END
>  <minimizedAffinity>
-6.67457724

$$$$

 OpenBabel03252500113D

 33 36  0  0  0  0  0  0  0  0999 V2000
   40.4740   29.7930   40.2400 Cl  0  0  0  0  0  0  0  0  0  0  0  0
   39.2920   31.0670   40.1150 C   0  0  0  0  0  0  0  0  0  0  0  0
   39.6810   32.3780   40.0790 C   0  0  0  0  0  0  0  0  0  0  0  0
   38.7530   33.4240   39.9790 C   0  0  0  0  0  0  0  0  0  0  0  0
   37.4250   33.0480   39.9190 C   0  0  0  0  0  0  0  0  0  0  0  0
   37.0360   31.7410   39.9550 C   0  0  0  0  0  0  0  0  0  0  0  0
   37.9560   30.7370   40.0520 C   0  0  0  0  0  0  0  0  0  0  0  0
   39.0930   34.4530   39.9530 H   0  0  0  0  0  0  0  0  0  0  0  0
   36.7020   33.8490   39.8410 H   0  0  0  0  0  0  0  0  0  0  0  0
   35.9760   31.5160   39.9030 H   0  0  0  0  0  0  0  0  0  0  0  0
   37.5320   29.3360   40.0910 C   0  0  0  0  0  0  0  0  0  0  0  0
   37.2850   28.6840   38.8960 C   0  0  0  0  0  0  0  0  0  0  0  0
   37.4120   29.2200   37.9470 H   0  0  0  0  0  0  0  0  0  0  0  0
   36.8840   27.3580   38.9350 C   0  0  0  0  0  3  0  0  0  0  0  0
   36.7360   26.7150   40.1500 C   0  0  0  0  0  3  0  0  0  0  0  0
   36.9990   27.4270   41.3000 C   0  0  0  0  0  0  0  0  0  0  0  0
   36.8360   26.7400   42.4860 C   0  0  0  0  0  3  0  0  0  0  0  0
   37.0840   27.4000   43.6750 C   0  0  0  0  0  3  0  0  0  0  0  0
   37.4880   28.7240   43.6750 C   0  0  0  0  0  3  0  0  0  0  0  0
   37.6590   29.4400   42.4900 C   0  0  0  0  0  3  0  0  0  0  0  0
   37.4000   28.7450   41.3360 C   0  0  0  0  0  0  0  0  0  0  0  0
   43.0590   33.0730   41.3890 C   0  0  0  0  0  0  0  0  0  0  0  0
   43.7880   33.3420   40.2140 C   0  0  0  0  0  0  0  0  0  0  0  0
   43.1110   33.2820   38.9970 C   0  0  0  0  0  0  0  0  0  0  0  0
   41.7930   32.9700   38.9830 N   0  0  0  0  0  0  0  0  0  0  0  0
   41.1120   32.7120   40.1470 C   0  0  0  0  0  0  0  0  0  0  0  0
   41.7450   32.7660   41.3280 N   0  0  0  0  0  0  0  0  0  0  0  0
   43.6380   33.1370   42.2790 H   0  0  0  0  0  0  0  0  0  0  0  0
   44.8140   33.5930   40.1290 H   0  0  0  0  0  0  0  0  0  0  0  0
   43.7860   33.5500   37.6750 C   0  0  0  0  0  0  0  0  0  0  0  0
   45.0430   34.0580   37.8610 F   0  0  0  0  0  0  0  0  0  0  0  0
   43.8880   32.3460   36.9770 F   0  0  0  0  0  0  0  0  0  0  0  0
   42.9790   34.4250   36.9890 F   0  0  0  0  0  0  0  0  0  0  0  0
  2  1  1  0  0  0  0
  3  2  1  0  0  0  0
  3 26  1  0  0  0  0
  4  3  2  0  0  0  0
  5  6  2  0  0  0  0
  5  4  1  0  0  0  0
  6  7  1  0  0  0  0
  7 11  1  0  0  0  0
  7  2  2  0  0  0  0
  8  4  1  0  0  0  0
  9  5  1  0  0  0  0
 10  6  1  0  0  0  0
 11 21  1  0  0  0  0
 12 14  1  0  0  0  0
 12 11  2  0  0  0  0
 13 12  1  0  0  0  0
 14 15  2  0  0  0  0
 15 16  1  0  0  0  0
 16 21  2  0  0  0  0
 16 17  1  0  0  0  0
 17 18  2  0  0  0  0
 19 18  1  0  0  0  0
 20 19  2  0  0  0  0
 21 20  1  0  0  0  0
 22 28  1  0  0  0  0
 23 22  2  0  0  0  0
 24 23  1  0  0  0  0
 25 24  2  0  0  0  0
 25 26  1  0  0  0  0
 26 27  2  0  0  0  0
 27 22  1  0  0  0  0
 29 23  1  0  0  0  0
 30 31  1  0  0  0  0
 30 24  1  0  0  0  0
 32 30  1  0  0  0  0
 33 30  1  0  0  0  0
M  END
>  <minimizedAffinity>
-6.55338335

$$$$

 OpenBabel03252500113D

 33 36  0  0  0  0  0  0  0  0999 V2000
   38.8210   30.3140   41.5990 Cl  0  0  0  0  0  0  0  0  0  0  0  0
   37.7780   30.1890   40.2090 C   0  0  0  0  0  0  0  0  0  0  0  0
   36.9560   29.1080   40.0490 C   0  0  0  0  0  0  0  0  0  0  0  0
   36.1060   28.9790   38.9410 C   0  0  0  0  0  0  0  0  0  0  0  0
   36.1510   30.0120   38.0250 C   0  0  0  0  0  0  0  0  0  0  0  0
   36.9700   31.0920   38.1830 C   0  0  0  0  0  0  0  0  0  0  0  0
   37.7900   31.1970   39.2700 C   0  0  0  0  0  0  0  0  0  0  0  0
   35.4670   28.1100   38.8420 H   0  0  0  0  0  0  0  0  0  0  0  0
   35.4990   29.9220   37.1660 H   0  0  0  0  0  0  0  0  0  0  0  0
   36.9550   31.8670   37.4250 H   0  0  0  0  0  0  0  0  0  0  0  0
   38.6670   32.3580   39.4330 C   0  0  0  0  0  0  0  0  0  0  0  0
   38.2520   33.3940   40.2500 C   0  0  0  0  0  0  0  0  0  0  0  0
   37.2810   33.3310   40.7590 H   0  0  0  0  0  0  0  0  0  0  0  0
   39.0830   34.4920   40.4040 C   0  0  0  0  0  3  0  0  0  0  0  0
   40.3000   34.5360   39.7470 C   0  0  0  0  0  3  0  0  0  0  0  0
   40.6480   33.4680   38.9500 C   0  0  0  0  0  0  0  0  0  0  0  0
   41.8710   33.5610   38.3170 C   0  0  0  0  0  3  0  0  0  0  0  0
   42.2780   32.5210   37.5030 C   0  0  0  0  0  3  0  0  0  0  0  0
   41.4740   31.4080   37.3260 C   0  0  0  0  0  3  0  0  0  0  0  0
   40.2340   31.2910   37.9540 C   0  0  0  0  0  3  0  0  0  0  0  0
   39.8730   32.3470   38.7510 C   0  0  0  0  0  0  0  0  0  0  0  0
   36.5970   27.3200   43.2550 C   0  0  0  0  0  0  0  0  0  0  0  0
   36.9730   26.0070   42.9120 C   0  0  0  0  0  0  0  0  0  0  0  0
   37.3430   25.7570   41.5910 C   0  0  0  0  0  0  0  0  0  0  0  0
   37.3280   26.7710   40.6930 N   0  0  0  0  0  0  0  0  0  0  0  0
   36.9550   28.0400   41.0620 C   0  0  0  0  0  0  0  0  0  0  0  0
   36.5970   28.3010   42.3260 N   0  0  0  0  0  0  0  0  0  0  0  0
   36.3270   27.4370   44.2780 H   0  0  0  0  0  0  0  0  0  0  0  0
   37.0140   25.1560   43.5430 H   0  0  0  0  0  0  0  0  0  0  0  0
   37.7640   24.3930   41.1060 C   0  0  0  0  0  0  0  0  0  0  0  0
   38.5280   24.4900   39.9750 F   0  0  0  0  0  0  0  0  0  0  0  0
   38.5210   23.7820   42.1060 F   0  0  0  0  0  0  0  0  0  0  0  0
   36.6120   23.6790   40.8840 F   0  0  0  0  0  0  0  0  0  0  0  0
  2  1  1  0  0  0  0
  3  2  1  0  0  0  0
  3 26  1  0  0  0  0
  4  3  2  0  0  0  0
  5  6  2  0  0  0  0
  5  4  1  0  0  0  0
  6  7  1  0  0  0  0
  7 11  1  0  0  0  0
  7  2  2  0  0  0  0
  8  4  1  0  0  0  0
  9  5  1  0  0  0  0
 10  6  1  0  0  0  0
 11 12  1  0  0  0  0
 12 14  2  0  0  0  0
 12 13  1  0  0  0  0
 15 14  1  0  0  0  0
 16 15  2  0  0  0  0
 17 16  1  0  0  0  0
 18 17  2  0  0  0  0
 19 18  1  0  0  0  0
 19 20  2  0  0  0  0
 20 21  1  0  0  0  0
 21 16  1  0  0  0  0
 21 11  2  0  0  0  0
 22 28  1  0  0  0  0
 23 22  1  0  0  0  0
 23 29  1  0  0  0  0
 24 23  2  0  0  0  0
 25 26  2  0  0  0  0
 25 24  1  0  0  0  0
 26 27  1  0  0  0  0
 27 22  2  0  0  0  0
 30 24  1  0  0  0  0
 30 32  1  0  0  0  0
 31 30  1  0  0  0  0
 33 30  1  0  0  0  0
M  END
>  <minimizedAffinity>
-6.50009823

$$$$

 OpenBabel03252500113D

 33 36  0  0  0  0  0  0  0  0999 V2000
   39.6490   27.3700   40.4430 Cl  0  0  0  0  0  0  0  0  0  0  0  0
   38.5390   27.5590   41.7730 C   0  0  0  0  0  0  0  0  0  0  0  0
   38.5980   28.6630   42.5780 C   0  0  0  0  0  0  0  0  0  0  0  0
   37.7180   28.8420   43.6550 C   0  0  0  0  0  0  0  0  0  0  0  0
   36.7910   27.8370   43.8500 C   0  0  0  0  0  0  0  0  0  0  0  0
   36.7310   26.7360   43.0470 C   0  0  0  0  0  0  0  0  0  0  0  0
   37.5970   26.5800   42.0030 C   0  0  0  0  0  0  0  0  0  0  0  0
   37.7900   29.7280   44.2760 H   0  0  0  0  0  0  0  0  0  0  0  0
   36.1080   27.9670   44.6790 H   0  0  0  0  0  0  0  0  0  0  0  0
   35.9780   25.9840   43.2570 H   0  0  0  0  0  0  0  0  0  0  0  0
   37.5280   25.3950   41.1460 C   0  0  0  0  0  0  0  0  0  0  0  0
   38.1100   24.2210   41.5870 C   0  0  0  0  0  0  0  0  0  0  0  0
   38.6090   24.1950   42.5640 H   0  0  0  0  0  0  0  0  0  0  0  0
   38.0440   23.1010   40.7740 C   0  0  0  0  0  3  0  0  0  0  0  0
   37.4050   23.1720   39.5490 C   0  0  0  0  0  3  0  0  0  0  0  0
   36.8470   24.3750   39.1740 C   0  0  0  0  0  0  0  0  0  0  0  0
   36.2220   24.3930   37.9440 C   0  0  0  0  0  3  0  0  0  0  0  0
   35.6430   25.5710   37.5110 C   0  0  0  0  0  3  0  0  0  0  0  0
   35.6890   26.7090   38.2970 C   0  0  0  0  0  3  0  0  0  0  0  0
   36.3150   26.7170   39.5440 C   0  0  0  0  0  3  0  0  0  0  0  0
   36.8760   25.5270   39.9300 C   0  0  0  0  0  0  0  0  0  0  0  0
   41.7870   30.5160   42.5440 C   0  0  0  0  0  0  0  0  0  0  0  0
   41.4590   31.6660   41.7990 C   0  0  0  0  0  0  0  0  0  0  0  0
   40.1550   31.7860   41.3230 C   0  0  0  0  0  0  0  0  0  0  0  0
   39.2570   30.8070   41.5880 N   0  0  0  0  0  0  0  0  0  0  0  0
   39.6100   29.6980   42.3170 C   0  0  0  0  0  0  0  0  0  0  0  0
   40.8590   29.5640   42.7840 N   0  0  0  0  0  0  0  0  0  0  0  0
   42.7970   30.4910   42.8750 H   0  0  0  0  0  0  0  0  0  0  0  0
   42.0910   32.4770   41.5440 H   0  0  0  0  0  0  0  0  0  0  0  0
   39.6870   32.9700   40.5150 C   0  0  0  0  0  0  0  0  0  0  0  0
   39.0000   32.5640   39.4030 F   0  0  0  0  0  0  0  0  0  0  0  0
   38.8390   33.7410   41.3090 F   0  0  0  0  0  0  0  0  0  0  0  0
   40.8090   33.6910   40.1840 F   0  0  0  0  0  0  0  0  0  0  0  0
  1  2  1  0  0  0  0
  2  7  2  0  0  0  0
  2  3  1  0  0  0  0
  3  4  2  0  0  0  0
  4  5  1  0  0  0  0
  4  8  1  0  0  0  0
  5  9  1  0  0  0  0
  6 10  1  0  0  0  0
  6  5  2  0  0  0  0
  7  6  1  0  0  0  0
 11 12  1  0  0  0  0
 11  7  1  0  0  0  0
 12 13  1  0  0  0  0
 14 12  2  0  0  0  0
 15 14  1  0  0  0  0
 16 15  2  0  0  0  0
 16 21  1  0  0  0  0
 17 16  1  0  0  0  0
 18 17  2  0  0  0  0
 18 19  1  0  0  0  0
 19 20  2  0  0  0  0
 20 21  1  0  0  0  0
 21 11  2  0  0  0  0
 22 27  1  0  0  0  0
 22 28  1  0  0  0  0
 23 22  2  0  0  0  0
 24 25  2  0  0  0  0
 24 23  1  0  0  0  0
 25 26  1  0  0  0  0
 26  3  1  0  0  0  0
 26 27  2  0  0  0  0
 29 23  1  0  0  0  0
 30 32  1  0  0  0  0
 30 24  1  0  0  0  0
 31 30  1  0  0  0  0
 33 30  1  0  0  0  0
M  END
>  <minimizedAffinity>
-6.48068714

$$$$

 OpenBabel03252500113D

 33 36  0  0  0  0  0  0  0  0999 V2000
   39.3780   27.6190   40.1520 Cl  0  0  0  0  0  0  0  0  0  0  0  0
   38.4090   27.7050   41.5980 C   0  0  0  0  0  0  0  0  0  0  0  0
   37.6130   26.6560   41.9670 C   0  0  0  0  0  0  0  0  0  0  0  0
   36.8230   26.6960   43.1250 C   0  0  0  0  0  0  0  0  0  0  0  0
   36.9000   27.8590   43.8670 C   0  0  0  0  0  0  0  0  0  0  0  0
   37.6940   28.9060   43.5000 C   0  0  0  0  0  0  0  0  0  0  0  0
   38.4560   28.8460   42.3690 C   0  0  0  0  0  0  0  0  0  0  0  0
   36.2010   25.8490   43.3910 H   0  0  0  0  0  0  0  0  0  0  0  0
   36.2940   27.8990   44.7620 H   0  0  0  0  0  0  0  0  0  0  0  0
   37.7080   29.7890   44.1290 H   0  0  0  0  0  0  0  0  0  0  0  0
   39.3060   29.9740   41.9800 C   0  0  0  0  0  0  0  0  0  0  0  0
   40.6280   29.9780   42.3840 C   0  0  0  0  0  0  0  0  0  0  0  0
   41.0180   29.1450   42.9830 H   0  0  0  0  0  0  0  0  0  0  0  0
   41.4310   31.0460   42.0160 C   0  0  0  0  0  3  0  0  0  0  0  0
   40.9060   32.0780   41.2600 C   0  0  0  0  0  3  0  0  0  0  0  0
   39.5790   32.0070   40.8930 C   0  0  0  0  0  0  0  0  0  0  0  0
   39.1040   33.0610   40.1410 C   0  0  0  0  0  3  0  0  0  0  0  0
   37.7810   33.0480   39.7410 C   0  0  0  0  0  3  0  0  0  0  0  0
   36.9490   31.9980   40.0900 C   0  0  0  0  0  3  0  0  0  0  0  0
   37.4060   30.9210   40.8510 C   0  0  0  0  0  3  0  0  0  0  0  0
   38.7240   30.9780   41.2240 C   0  0  0  0  0  0  0  0  0  0  0  0
   38.4290   23.3500   40.5500 C   0  0  0  0  0  0  0  0  0  0  0  0
   37.4550   23.2050   39.5440 C   0  0  0  0  0  0  0  0  0  0  0  0
   36.5380   24.2390   39.3680 C   0  0  0  0  0  0  0  0  0  0  0  0
   36.6120   25.3360   40.1600 N   0  0  0  0  0  0  0  0  0  0  0  0
   37.5750   25.4450   41.1330 C   0  0  0  0  0  0  0  0  0  0  0  0
   38.4660   24.4610   41.3170 N   0  0  0  0  0  0  0  0  0  0  0  0
   39.0950   22.5240   40.6280 H   0  0  0  0  0  0  0  0  0  0  0  0
   37.3220   22.3880   38.8810 H   0  0  0  0  0  0  0  0  0  0  0  0
   35.4510   24.1960   38.3240 C   0  0  0  0  0  0  0  0  0  0  0  0
   35.8740   23.5350   37.2030 F   0  0  0  0  0  0  0  0  0  0  0  0
   34.3530   23.5190   38.8550 F   0  0  0  0  0  0  0  0  0  0  0  0
   35.1140   25.5000   38.0500 F   0  0  0  0  0  0  0  0  0  0  0  0
  1  2  1  0  0  0  0
  2  3  2  0  0  0  0
  2  7  1  0  0  0  0
  3  4  1  0  0  0  0
  4  8  1  0  0  0  0
  4  5  2  0  0  0  0
  5  9  1  0  0  0  0
  6  5  1  0  0  0  0
  6 10  1  0  0  0  0
  7  6  2  0  0  0  0
 11  7  1  0  0  0  0
 11 12  1  0  0  0  0
 12 13  1  0  0  0  0
 14 12  2  0  0  0  0
 15 14  1  0  0  0  0
 16 21  1  0  0  0  0
 16 15  2  0  0  0  0
 17 16  1  0  0  0  0
 18 19  1  0  0  0  0
 18 17  2  0  0  0  0
 19 20  2  0  0  0  0
 20 21  1  0  0  0  0
 21 11  2  0  0  0  0
 22 28  1  0  0  0  0
 22 27  1  0  0  0  0
 23 22  2  0  0  0  0
 24 23  1  0  0  0  0
 24 25  2  0  0  0  0
 25 26  1  0  0  0  0
 26 27  2  0  0  0  0
 26  3  1  0  0  0  0
 29 23  1  0  0  0  0
 30 32  1  0  0  0  0
 30 24  1  0  0  0  0
 31 30  1  0  0  0  0
 33 30  1  0  0  0  0
M  END
>  <minimizedAffinity>
-6.38277483

$$$$

 OpenBabel03252500113D

 33 36  0  0  0  0  0  0  0  0999 V2000
   40.4070   30.0250   39.7050 Cl  0  0  0  0  0  0  0  0  0  0  0  0
   39.2060   31.2860   39.7630 C   0  0  0  0  0  0  0  0  0  0  0  0
   39.5740   32.6020   39.7090 C   0  0  0  0  0  0  0  0  0  0  0  0
   38.6300   33.6380   39.7530 C   0  0  0  0  0  0  0  0  0  0  0  0
   37.3100   33.2470   39.8540 C   0  0  0  0  0  0  0  0  0  0  0  0
   36.9410   31.9340   39.9080 C   0  0  0  0  0  0  0  0  0  0  0  0
   37.8760   30.9400   39.8630 C   0  0  0  0  0  0  0  0  0  0  0  0
   38.9530   34.6720   39.7080 H   0  0  0  0  0  0  0  0  0  0  0  0
   36.5740   34.0390   39.8880 H   0  0  0  0  0  0  0  0  0  0  0  0
   35.8860   31.6970   39.9860 H   0  0  0  0  0  0  0  0  0  0  0  0
   37.4740   29.5330   39.9210 C   0  0  0  0  0  0  0  0  0  0  0  0
   37.1450   28.8870   38.7440 C   0  0  0  0  0  0  0  0  0  0  0  0
   37.1910   29.4330   37.7930 H   0  0  0  0  0  0  0  0  0  0  0  0
   36.7650   27.5560   38.8020 C   0  0  0  0  0  3  0  0  0  0  0  0
   36.7200   26.9010   40.0190 C   0  0  0  0  0  3  0  0  0  0  0  0
   37.0610   27.6080   41.1520 C   0  0  0  0  0  0  0  0  0  0  0  0
   37.0000   26.9100   42.3400 C   0  0  0  0  0  3  0  0  0  0  0  0
   37.3300   27.5630   43.5120 C   0  0  0  0  0  3  0  0  0  0  0  0
   37.7150   28.8930   43.4930 C   0  0  0  0  0  3  0  0  0  0  0  0
   37.7850   29.6210   42.3040 C   0  0  0  0  0  3  0  0  0  0  0  0
   37.4470   28.9310   41.1690 C   0  0  0  0  0  0  0  0  0  0  0  0
   42.8710   33.4820   38.3070 C   0  0  0  0  0  0  0  0  0  0  0  0
   43.6650   33.6090   39.4630 C   0  0  0  0  0  0  0  0  0  0  0  0
   43.0600   33.3910   40.6990 C   0  0  0  0  0  0  0  0  0  0  0  0
   41.7450   33.0690   40.7490 N   0  0  0  0  0  0  0  0  0  0  0  0
   40.9990   32.9540   39.6020 C   0  0  0  0  0  0  0  0  0  0  0  0
   41.5620   33.1590   38.4030 N   0  0  0  0  0  0  0  0  0  0  0  0
   43.3970   33.6620   37.4000 H   0  0  0  0  0  0  0  0  0  0  0  0
   44.6940   33.8550   39.5200 H   0  0  0  0  0  0  0  0  0  0  0  0
   43.8080   33.4980   42.0040 C   0  0  0  0  0  0  0  0  0  0  0  0
   43.3320   34.5360   42.7570 F   0  0  0  0  0  0  0  0  0  0  0  0
   43.6310   32.3110   42.7150 F   0  0  0  0  0  0  0  0  0  0  0  0
   45.1340   33.6640   41.6870 F   0  0  0  0  0  0  0  0  0  0  0  0
  1  2  1  0  0  0  0
  2  7  1  0  0  0  0
  3  4  1  0  0  0  0
  3  2  2  0  0  0  0
  4  5  2  0  0  0  0
  5  9  1  0  0  0  0
  5  6  1  0  0  0  0
  6 10  1  0  0  0  0
  7  6  2  0  0  0  0
  7 11  1  0  0  0  0
  8  4  1  0  0  0  0
 11 21  1  0  0  0  0
 12 14  1  0  0  0  0
 12 11  2  0  0  0  0
 13 12  1  0  0  0  0
 14 15  2  0  0  0  0
 15 16  1  0  0  0  0
 16 21  2  0  0  0  0
 16 17  1  0  0  0  0
 17 18  2  0  0  0  0
 19 18  1  0  0  0  0
 20 19  2  0  0  0  0
 21 20  1  0  0  0  0
 22 27  2  0  0  0  0
 22 23  1  0  0  0  0
 23 29  1  0  0  0  0
 23 24  2  0  0  0  0
 24 25  1  0  0  0  0
 24 30  1  0  0  0  0
 26  3  1  0  0  0  0
 26 25  2  0  0  0  0
 27 26  1  0  0  0  0
 28 22  1  0  0  0  0
 30 32  1  0  0  0  0
 30 31  1  0  0  0  0
 33 30  1  0  0  0  0
M  END
>  <minimizedAffinity>
-6.3782959

$$$$

 OpenBabel03252500113D

 33 36  0  0  0  0  0  0  0  0999 V2000
   40.3120   30.2630   40.7450 Cl  0  0  0  0  0  0  0  0  0  0  0  0
   39.6290   31.8470   40.4980 C   0  0  0  0  0  0  0  0  0  0  0  0
   38.2740   32.0250   40.4680 C   0  0  0  0  0  0  0  0  0  0  0  0
   37.6950   33.2870   40.2710 C   0  0  0  0  0  0  0  0  0  0  0  0
   38.5790   34.3360   40.1110 C   0  0  0  0  0  0  0  0  0  0  0  0
   39.9320   34.1610   40.1410 C   0  0  0  0  0  0  0  0  0  0  0  0
   40.4750   32.9230   40.3340 C   0  0  0  0  0  0  0  0  0  0  0  0
   36.6170   33.3960   40.2520 H   0  0  0  0  0  0  0  0  0  0  0  0
   38.1420   35.3140   39.9590 H   0  0  0  0  0  0  0  0  0  0  0  0
   40.5690   35.0280   40.0090 H   0  0  0  0  0  0  0  0  0  0  0  0
   41.9270   32.7410   40.3650 C   0  0  0  0  0  0  0  0  0  0  0  0
   42.5970   32.9500   41.5570 C   0  0  0  0  0  0  0  0  0  0  0  0
   42.0360   33.2440   42.4530 H   0  0  0  0  0  0  0  0  0  0  0  0
   43.9720   32.7770   41.5840 C   0  0  0  0  0  3  0  0  0  0  0  0
   44.6460   32.4040   40.4350 C   0  0  0  0  0  3  0  0  0  0  0  0
   43.9130   32.2130   39.2830 C   0  0  0  0  0  0  0  0  0  0  0  0
   44.6320   31.8430   38.1650 C   0  0  0  0  0  3  0  0  0  0  0  0
   43.9540   31.6360   36.9790 C   0  0  0  0  0  3  0  0  0  0  0  0
   42.5810   31.7980   36.9140 C   0  0  0  0  0  3  0  0  0  0  0  0
   41.8320   32.1740   38.0300 C   0  0  0  0  0  3  0  0  0  0  0  0
   42.5470   32.3670   39.1840 C   0  0  0  0  0  0  0  0  0  0  0  0
   35.4990   29.6350   40.0210 C   0  0  0  0  0  0  0  0  0  0  0  0
   35.7620   28.6790   41.0220 C   0  0  0  0  0  0  0  0  0  0  0  0
   36.8810   28.8690   41.8300 C   0  0  0  0  0  0  0  0  0  0  0  0
   37.6700   29.9520   41.6300 N   0  0  0  0  0  0  0  0  0  0  0  0
   37.3860   30.8650   40.6450 C   0  0  0  0  0  0  0  0  0  0  0  0
   36.3140   30.7010   39.8580 N   0  0  0  0  0  0  0  0  0  0  0  0
   34.6310   29.4270   39.4440 H   0  0  0  0  0  0  0  0  0  0  0  0
   35.2040   27.8070   41.2490 H   0  0  0  0  0  0  0  0  0  0  0  0
   37.2630   27.9130   42.9320 C   0  0  0  0  0  0  0  0  0  0  0  0
   38.1430   28.4960   43.8030 F   0  0  0  0  0  0  0  0  0  0  0  0
   36.1090   27.5590   43.6310 F   0  0  0  0  0  0  0  0  0  0  0  0
   37.8050   26.8060   42.3250 F   0  0  0  0  0  0  0  0  0  0  0  0
  2  1  1  0  0  0  0
  3  2  1  0  0  0  0
  3 26  1  0  0  0  0
  4  3  2  0  0  0  0
  5  6  2  0  0  0  0
  5  4  1  0  0  0  0
  6  7  1  0  0  0  0
  7 11  1  0  0  0  0
  7  2  2  0  0  0  0
  8  4  1  0  0  0  0
  9  5  1  0  0  0  0
 10  6  1  0  0  0  0
 11 12  1  0  0  0  0
 12 14  2  0  0  0  0
 12 13  1  0  0  0  0
 15 14  1  0  0  0  0
 16 15  2  0  0  0  0
 17 16  1  0  0  0  0
 18 17  2  0  0  0  0
 19 18  1  0  0  0  0
 19 20  2  0  0  0  0
 20 21  1  0  0  0  0
 21 16  1  0  0  0  0
 21 11  2  0  0  0  0
 22 23  1  0  0  0  0
 23 29  1  0  0  0  0
 23 24  2  0  0  0  0
 24 30  1  0  0  0  0
 25 24  1  0  0  0  0
 26 25  2  0  0  0  0
 27 22  2  0  0  0  0
 27 26  1  0  0  0  0
 28 22  1  0  0  0  0
 30 32  1  0  0  0  0
 30 31  1  0  0  0  0
 33 30  1  0  0  0  0
M  END
>  <minimizedAffinity>
-6.36957312

$$$$

 OpenBabel03252500113D

 33 36  0  0  0  0  0  0  0  0999 V2000
   39.5910   28.1040   40.5960 Cl  0  0  0  0  0  0  0  0  0  0  0  0
   38.1300   29.0480   40.6990 C   0  0  0  0  0  0  0  0  0  0  0  0
   38.1740   30.4130   40.6120 C   0  0  0  0  0  0  0  0  0  0  0  0
   37.0150   31.1980   40.6920 C   0  0  0  0  0  0  0  0  0  0  0  0
   35.8300   30.5090   40.8630 C   0  0  0  0  0  0  0  0  0  0  0  0
   35.7850   29.1490   40.9500 C   0  0  0  0  0  0  0  0  0  0  0  0
   36.9250   28.4020   40.8700 C   0  0  0  0  0  0  0  0  0  0  0  0
   37.0830   32.2780   40.6200 H   0  0  0  0  0  0  0  0  0  0  0  0
   34.9310   31.1070   40.9260 H   0  0  0  0  0  0  0  0  0  0  0  0
   34.8200   28.6720   41.0840 H   0  0  0  0  0  0  0  0  0  0  0  0
   36.8690   26.9420   40.9640 C   0  0  0  0  0  0  0  0  0  0  0  0
   37.1140   26.3460   42.1880 C   0  0  0  0  0  0  0  0  0  0  0  0
   37.3420   26.9700   43.0620 H   0  0  0  0  0  0  0  0  0  0  0  0
   37.0610   24.9630   42.2760 C   0  0  0  0  0  3  0  0  0  0  0  0
   36.7690   24.2100   41.1530 C   0  0  0  0  0  3  0  0  0  0  0  0
   36.5370   24.8710   39.9670 C   0  0  0  0  0  0  0  0  0  0  0  0
   36.2500   24.0740   38.8770 C   0  0  0  0  0  3  0  0  0  0  0  0
   36.0080   24.6780   37.6580 C   0  0  0  0  0  3  0  0  0  0  0  0
   36.0510   26.0560   37.5330 C   0  0  0  0  0  3  0  0  0  0  0  0
   36.3390   26.8840   38.6200 C   0  0  0  0  0  3  0  0  0  0  0  0
   36.5730   26.2400   39.8070 C   0  0  0  0  0  0  0  0  0  0  0  0
   41.4710   31.9140   41.3060 C   0  0  0  0  0  0  0  0  0  0  0  0
   41.8770   32.3520   40.0300 C   0  0  0  0  0  0  0  0  0  0  0  0
   41.0170   32.1260   38.9570 C   0  0  0  0  0  0  0  0  0  0  0  0
   39.8340   31.5010   39.1730 N   0  0  0  0  0  0  0  0  0  0  0  0
   39.4690   31.0870   40.4300 C   0  0  0  0  0  0  0  0  0  0  0  0
   40.2820   31.2950   41.4750 N   0  0  0  0  0  0  0  0  0  0  0  0
   42.1750   32.1190   42.0760 H   0  0  0  0  0  0  0  0  0  0  0  0
   42.7770   32.8450   39.7690 H   0  0  0  0  0  0  0  0  0  0  0  0
   41.3430   32.5480   37.5470 C   0  0  0  0  0  0  0  0  0  0  0  0
   42.3920   31.8250   37.0500 F   0  0  0  0  0  0  0  0  0  0  0  0
   40.2230   32.3210   36.7470 F   0  0  0  0  0  0  0  0  0  0  0  0
   41.6260   33.8920   37.5920 F   0  0  0  0  0  0  0  0  0  0  0  0
  1  2  1  0  0  0  0
  2  7  1  0  0  0  0
  3  4  1  0  0  0  0
  3  2  2  0  0  0  0
  4  5  2  0  0  0  0
  5  9  1  0  0  0  0
  5  6  1  0  0  0  0
  6 10  1  0  0  0  0
  7  6  2  0  0  0  0
  7 11  1  0  0  0  0
  8  4  1  0  0  0  0
 11 12  1  0  0  0  0
 12 14  2  0  0  0  0
 12 13  1  0  0  0  0
 15 14  1  0  0  0  0
 16 15  2  0  0  0  0
 17 16  1  0  0  0  0
 18 17  2  0  0  0  0
 19 18  1  0  0  0  0
 19 20  2  0  0  0  0
 20 21  1  0  0  0  0
 21 16  1  0  0  0  0
 21 11  2  0  0  0  0
 22 27  1  0  0  0  0
 22 28  1  0  0  0  0
 23 22  2  0  0  0  0
 24 25  2  0  0  0  0
 24 23  1  0  0  0  0
 25 26  1  0  0  0  0
 26  3  1  0  0  0  0
 26 27  2  0  0  0  0
 29 23  1  0  0  0  0
 30 33  1  0  0  0  0
 30 24  1  0  0  0  0
 31 30  1  0  0  0  0
 32 30  1  0  0  0  0
M  END
>  <minimizedAffinity>
-6.32723475

$$$$
