
 OpenBabel03252506383D

 46 50  0  0  1  0  0  0  0  0999 V2000
   44.5090   35.5340   45.1190 C   0  0  0  0  0  0  0  0  0  0  0  0
   45.1540   35.5270   43.8750 C   0  0  0  0  0  0  0  0  0  0  0  0
   46.0670   34.5650   43.6080 C   0  0  0  0  0  0  0  0  0  0  0  0
   46.3050   33.6500   44.5820 N   0  0  0  0  0  0  0  0  0  0  0  0
   45.6930   33.6600   45.7560 C   0  0  0  0  0  0  0  0  0  0  0  0
   44.7890   34.5960   46.0460 N   0  0  0  0  0  0  0  0  0  0  0  0
   46.0250   32.6420   46.7170 N   0  0  0  0  0  0  0  0  0  0  0  0
   45.2920   32.3920   47.9060 C   0  0  0  0  0  0  0  0  0  0  0  0
   46.3750   32.0370   48.9090 C   0  0  0  0  0  0  0  0  0  0  0  0
   47.6490   31.9320   48.1300 C   0  0  0  0  0  0  0  0  0  0  0  0
   47.1410   31.7270   46.7040 C   0  0  1  0  0  0  0  0  0  0  0  0
   43.7660   36.2780   45.3970 H   0  0  0  0  0  0  0  0  0  0  0  0
   46.5650   34.5440   42.6700 H   0  0  0  0  0  0  0  0  0  0  0  0
   44.9430   33.4130   48.2720 H   0  0  0  0  0  0  0  0  0  0  0  0
   44.4540   31.7750   47.9860 H   0  0  0  0  0  0  0  0  0  0  0  0
   46.4100   32.6690   49.7930 H   0  0  0  0  0  0  0  0  0  0  0  0
   46.1330   31.0050   49.2800 H   0  0  0  0  0  0  0  0  0  0  0  0
   48.2870   31.0850   48.4540 H   0  0  0  0  0  0  0  0  0  0  0  0
   48.1800   32.9060   48.1640 H   0  0  0  0  0  0  0  0  0  0  0  0
   47.9420   32.0140   46.0000 H   0  0  0  0  0  0  0  0  0  0  0  0
   44.7890   36.5680   42.9530 N   0  0  0  0  0  0  0  0  0  0  0  0
   43.9830   36.1610   42.4330 H   0  0  0  0  0  0  0  0  0  0  0  0
   45.2840   37.4900   42.8950 H   0  0  0  0  0  0  0  0  0  0  0  0
   46.6200   30.0370   46.5160 S   0  0  0  0  0  0  0  0  0  0  0  0
   45.6260   30.5540   43.3730 O   0  0  0  0  0  0  0  0  0  0  0  0
   44.9900   30.0060   44.2870 C   0  0  0  0  0  0  0  0  0  0  0  0
   45.0780   29.7640   45.7470 C   0  0  1  0  0  0  0  0  0  0  0  0
   44.5340   28.3610   45.8640 C   0  0  0  0  0  0  0  0  0  0  0  0
   43.2250   28.5840   45.0990 C   0  0  0  0  0  0  0  0  0  0  0  0
   43.7450   29.3520   43.9750 N   0  0  0  0  0  0  0  0  0  0  0  0
   44.1930   30.3670   46.0930 H   0  0  0  0  0  0  0  0  0  0  0  0
   44.2880   28.1220   46.9130 H   0  0  0  0  0  0  0  0  0  0  0  0
   45.1400   27.6090   45.3560 H   0  0  0  0  0  0  0  0  0  0  0  0
   42.4920   29.1240   45.7050 H   0  0  0  0  0  0  0  0  0  0  0  0
   42.8760   27.5800   44.7730 H   0  0  0  0  0  0  0  0  0  0  0  0
   42.9700   29.3490   42.7600 C   0  0  0  0  0  0  0  0  0  0  0  0
   41.9550   30.2990   42.7580 C   0  0  0  0  0  0  0  0  0  0  0  0
   41.7440   30.9840   43.5660 H   0  0  0  0  0  0  0  0  0  0  0  0
   41.0980   30.4470   41.6660 C   0  0  0  0  0  3  0  0  0  0  0  0
   41.3070   29.5990   40.5890 C   0  0  0  0  0  3  0  0  0  0  0  0
   42.3090   28.6620   40.5940 C   0  0  0  0  0  0  0  0  0  0  0  0
   42.5460   27.8020   39.5340 C   0  0  0  0  0  3  0  0  0  0  0  0
   43.5550   26.8870   39.5880 C   0  0  0  0  0  3  0  0  0  0  0  0
   44.3990   26.7630   40.6950 C   0  0  0  0  0  3  0  0  0  0  0  0
   44.1850   27.6160   41.7770 C   0  0  0  0  0  3  0  0  0  0  0  0
   43.1670   28.5160   41.6870 C   0  0  0  0  0  0  0  0  0  0  0  0
  1 12  1  0  0  0  0
  1  6  1  0  0  0  0
  2  1  2  0  0  0  0
  3  2  1  0  0  0  0
  3  4  2  0  0  0  0
  4  5  1  0  0  0  0
  5  6  2  0  0  0  0
  5  7  1  0  0  0  0
  7  8  1  0  0  0  0
  8 15  1  0  0  0  0
  8 14  1  0  0  0  0
  8  9  1  0  0  0  0
  9 17  1  0  0  0  0
  9 16  1  0  0  0  0
 10 19  1  0  0  0  0
 10 18  1  0  0  0  0
 10  9  1  0  0  0  0
 11 20  1  6  0  0  0
 11  7  1  0  0  0  0
 11 10  1  0  0  0  0
 13  3  1  0  0  0  0
 21  2  1  0  0  0  0
 22 21  1  0  0  0  0
 23 21  1  0  0  0  0
 24 11  1  0  0  0  0
 25 26  2  0  0  0  0
 26 27  1  0  0  0  0
 27 28  1  0  0  0  0
 27 31  1  1  0  0  0
 27 24  1  0  0  0  0
 28 32  1  0  0  0  0
 29 34  1  0  0  0  0
 29 28  1  0  0  0  0
 30 26  1  0  0  0  0
 30 29  1  0  0  0  0
 33 28  1  0  0  0  0
 35 29  1  0  0  0  0
 36 30  1  0  0  0  0
 37 36  1  0  0  0  0
 37 38  1  0  0  0  0
 39 37  2  0  0  0  0
 40 41  2  0  0  0  0
 40 39  1  0  0  0  0
 41 46  1  0  0  0  0
 42 43  2  0  0  0  0
 42 41  1  0  0  0  0
 43 44  1  0  0  0  0
 44 45  2  0  0  0  0
 46 45  1  0  0  0  0
 46 36  2  0  0  0  0
M  END
>  <minimizedAffinity>
-5.36786699

>  <minimizedRMSD>
0.217794165

$$$$
