
     RDKit          3D

 32 34  0  0  0  0  0  0  0  0999 V2000
   44.5780   35.9716   44.5072 C   0  0  0  0  0  0  0  0  0  0  0  0
   45.2152   35.9944   43.2551 C   0  0  0  0  0  0  0  0  0  0  0  0
   46.0965   34.9742   42.9712 C   0  0  0  0  0  0  0  0  0  0  0  0
   46.2807   34.0410   43.9061 N   0  0  0  0  0  0  0  0  0  0  0  0
   45.6904   33.9909   45.1043 C   0  0  0  0  0  0  0  0  0  0  0  0
   44.8199   34.9931   45.3906 N   0  0  0  0  0  0  0  0  0  0  0  0
   46.7327   34.9750   41.7405 O   0  0  0  0  0  0  0  0  0  0  0  0
   48.6432   33.3212   40.9734 O   0  0  0  0  0  0  0  0  0  0  0  0
   48.4063   34.6726   41.6319 P   0  0  0  0  0  0  0  0  0  0  0  0
   49.1196   35.9325   40.7827 O   0  0  0  0  0  0  0  0  0  0  0  0
   48.9925   34.5745   43.2179 O   0  0  0  0  0  0  0  0  0  0  0  0
   43.8910   36.7736   44.7191 H   0  0  0  0  0  0  0  0  0  0  0  0
   44.9868   36.8017   42.5817 H   0  0  0  0  0  0  0  0  0  0  0  0
   48.5353   36.1127   39.9882 H   0  0  0  0  0  0  0  0  0  0  0  0
   49.0042   35.5313   43.5341 H   0  0  0  0  0  0  0  0  0  0  0  0
   45.8252   33.0278   46.1715 C   0  0  0  0  0  0  0  0  0  0  0  0
   44.7841   32.7450   47.0460 C   0  0  0  0  0  0  0  0  0  0  0  0
   43.8144   33.2605   46.9408 H   0  0  0  0  0  0  0  0  0  0  0  0
   44.8529   31.8429   48.0752 C   0  0  0  0  0  0  0  0  0  0  0  0
   46.0110   31.1386   48.3054 C   0  0  0  0  0  0  0  0  0  0  0  0
   47.0835   31.3715   47.4735 C   0  0  0  0  0  0  0  0  0  0  0  0
   48.2362   30.6587   47.7167 C   0  0  0  0  0  0  0  0  0  0  0  0
   49.3456   30.8457   46.9199 C   0  0  0  0  0  0  0  0  0  0  0  0
   49.2486   31.7624   45.8880 C   0  0  0  0  0  0  0  0  0  0  0  0
   48.0668   32.4423   45.6988 C   0  0  0  0  0  0  0  0  0  0  0  0
   46.9334   32.2934   46.4630 C   0  0  0  0  0  0  0  0  0  0  0  0
   43.9993   31.6752   48.7163 H   0  0  0  0  0  0  0  0  0  0  0  0
   46.0256   30.4499   49.1110 H   0  0  0  0  0  0  0  0  0  0  0  0
   48.2657   29.9453   48.5435 H   0  0  0  0  0  0  0  0  0  0  0  0
   50.2120   30.2511   47.1721 H   0  0  0  0  0  0  0  0  0  0  0  0
   50.1348   31.8744   45.2956 H   0  0  0  0  0  0  0  0  0  0  0  0
   48.1284   33.1179   44.8694 H   0  0  0  0  0  0  0  0  0  0  0  0
  1  6  2  0
  2  1  1  0
  3  2  2  0
  3  4  1  0
  4  5  2  0
  5  6  1  0
  7  3  1  0
  8  9  2  0
  9  7  1  0
  9 11  1  0
 10  9  1  0
  1 12  1  0
  2 13  1  0
 10 14  1  0
 11 15  1  0
 16 17  2  0
 17 18  1  0
 17 19  1  0
 19 20  2  0
 20 21  1  0
 21 22  2  0
 22 23  1  0
 23 24  2  0
 24 25  1  0
 25 26  2  0
 26 16  1  0
 26 21  1  0
 19 27  1  0
 20 28  1  0
 22 29  1  0
 23 30  1  0
 24 31  1  0
 25 32  1  0
  5 16  1  0
M  ISO  5  12  14  13  14  14   3  15   3  18  15
M  END
>  <DihAtoms>  (1) 
3,4,15,16

>  <DihDeg>  (1) 
-179.98812291037092

$$$$
