
     RDKit          3D

 29 31  0  0  0  0  0  0  0  0999 V2000
   44.3856   35.7733   44.4343 C   0  0  0  0  0  0  0  0  0  0  0  0
   44.6767   35.0424   43.2613 C   0  0  0  0  0  0  0  0  0  0  0  0
   45.2959   33.8184   43.3883 C   0  0  0  0  0  0  0  0  0  0  0  0
   45.5843   33.3977   44.6330 N   0  0  0  0  0  0  0  0  0  0  0  0
   45.3083   34.0908   45.7463 C   0  0  0  0  0  0  0  0  0  0  0  0
   44.6956   35.3065   45.6640 N   0  0  0  0  0  0  0  0  0  0  0  0
   44.2527   35.7370   42.0099 C   0  0  0  0  0  0  0  0  0  0  0  0
   43.8955   36.7533   44.4082 H   0  0  0  0  0  0  0  0  0  0  0  0
   45.4882   33.3107   42.4628 H   0  0  0  0  0  0  0  0  0  0  0  0
   45.5499   33.7337   46.7370 H   0  0  0  0  0  0  0  0  0  0  0  0
   45.0940   35.5283   41.2890 H   0  0  0  0  0  0  0  0  0  0  0  0
   44.2033   36.8088   42.1234 H   0  0  0  0  0  0  0  0  0  0  0  0
   42.9688   35.1855   41.5665 C   0  0  0  0  0  0  0  0  0  0  0  0
   42.3451   34.1405   42.2176 C   0  0  0  0  0  0  0  0  0  0  0  0
   42.8049   33.7107   43.1186 H   0  0  0  0  0  0  0  0  0  0  0  0
   41.1400   33.5773   41.8047 C   0  0  0  0  0  0  0  0  0  0  0  0
   40.5148   34.0944   40.6628 C   0  0  0  0  0  0  0  0  0  0  0  0
   41.0931   35.1388   39.9739 C   0  0  0  0  0  0  0  0  0  0  0  0
   40.4661   35.6599   38.8447 C   0  0  0  0  0  0  0  0  0  0  0  0
   41.0838   36.7035   38.2076 C   0  0  0  0  0  0  0  0  0  0  0  0
   42.2829   37.2771   38.6033 C   0  0  0  0  0  0  0  0  0  0  0  0
   42.8668   36.7157   39.7408 C   0  0  0  0  0  0  0  0  0  0  0  0
   42.2982   35.6494   40.4465 C   0  0  0  0  0  0  0  0  0  0  0  0
   40.6713   32.7540   42.3329 H   0  0  0  0  0  0  0  0  0  0  0  0
   39.5778   33.7108   40.2753 H   0  0  0  0  0  0  0  0  0  0  0  0
   39.5319   35.2379   38.5117 H   0  0  0  0  0  0  0  0  0  0  0  0
   40.6072   37.1249   37.3218 H   0  0  0  0  0  0  0  0  0  0  0  0
   42.7432   38.1064   38.0709 H   0  0  0  0  0  0  0  0  0  0  0  0
   43.8075   37.2074   40.0103 H   0  0  0  0  0  0  0  0  0  0  0  0
  1  6  2  0
  2  3  2  0
  2  1  1  0
  3  4  1  0
  4  5  2  0
  6  5  1  0
  7  2  1  0
  1  8  1  0
  3  9  1  0
  5 10  1  0
  7 11  1  0
  7 12  1  0
 13 14  2  0
 14 15  1  0
 14 16  1  0
 16 17  2  0
 17 18  1  0
 18 19  2  0
 19 20  1  0
 20 21  2  0
 21 22  1  0
 22 23  2  0
 23 13  1  0
 23 18  1  0
 16 24  1  0
 17 25  1  0
 19 26  1  0
 20 27  1  0
 21 28  1  0
 22 29  1  0
  7 13  1  0
M  ISO  6   8  14   9  14  10  14  11   8  12   8  15  15
M  END
>  <DihAtoms>  (1) 
1,6,12,13

>  <DihDeg>  (1) 
26.973175118302795

$$$$
