
 OpenBabel03252506593D

 26 28  0  0  0  0  0  0  0  0999 V2000
   46.8550   32.3480   44.5400 C   0  0  0  0  0  0  0  0  0  0  0  0
   47.8440   31.8800   44.3800 H   0  0  0  0  0  0  0  0  0  0  0  0
   46.0960   31.7630   43.9950 H   0  0  0  0  0  0  0  0  0  0  0  0
   46.4910   32.3630   45.9700 C   0  0  0  0  0  0  0  0  0  0  0  0
   45.5220   33.1650   46.5130 C   0  0  0  0  0  0  0  0  0  0  0  0
   44.9640   33.8380   45.8640 H   0  0  0  0  0  0  0  0  0  0  0  0
   45.2180   33.1550   47.8630 C   0  0  0  0  0  3  0  0  0  0  0  0
   45.8650   32.3450   48.7390 C   0  0  0  0  0  3  0  0  0  0  0  0
   46.8490   31.5270   48.2010 C   0  0  0  0  0  0  0  0  0  0  0  0
   47.5200   30.6860   49.0900 C   0  0  0  0  0  3  0  0  0  0  0  0
   48.5130   29.8320   48.6580 C   0  0  0  0  0  3  0  0  0  0  0  0
   48.8380   29.8200   47.3140 C   0  0  0  0  0  3  0  0  0  0  0  0
   48.1440   30.6710   46.4790 C   0  0  0  0  0  3  0  0  0  0  0  0
   47.1480   31.5410   46.8620 C   0  0  0  0  0  0  0  0  0  0  0  0
   46.9150   33.7460   43.9460 C   0  0  0  0  0  0  0  0  0  0  0  0
   47.3430   34.4990   44.5870 H   0  0  0  0  0  0  0  0  0  0  0  0
   45.8260   34.0430   43.8300 H   0  0  0  0  0  0  0  0  0  0  0  0
   47.5310   33.6600   42.6160 C   0  0  0  0  0  0  0  0  0  0  0  0
   48.7130   32.9730   42.3960 C   0  0  0  0  0  0  0  0  0  0  0  0
   49.2260   32.9510   41.0780 C   0  0  0  0  0  0  0  0  0  0  0  0
   48.5250   33.6040   40.1250 N   0  0  0  0  0  0  0  0  0  0  0  0
   47.3830   34.2580   40.3850 C   0  0  0  0  0  0  0  0  0  0  0  0
   46.8880   34.2870   41.6190 N   0  0  0  0  0  0  0  0  0  0  0  0
   49.2350   32.4660   43.1920 H   0  0  0  0  0  0  0  0  0  0  0  0
   50.1450   32.4320   40.8360 H   0  0  0  0  0  0  0  0  0  0  0  0
   46.8250   34.7850   39.5940 H   0  0  0  0  0  0  0  0  0  0  0  0
  1  4  1  0  0  0  0
  2  1  1  0  0  0  0
  3  1  1  0  0  0  0
  4  5  2  0  0  0  0
  4 14  1  0  0  0  0
  5  7  1  0  0  0  0
  6  5  1  0  0  0  0
  7  8  2  0  0  0  0
  9  8  1  0  0  0  0
  9 10  1  0  0  0  0
 11 10  2  0  0  0  0
 12 11  1  0  0  0  0
 13 14  1  0  0  0  0
 13 12  2  0  0  0  0
 14  9  2  0  0  0  0
 15  1  1  0  0  0  0
 15 16  1  0  0  0  0
 17 15  1  0  0  0  0
 18 15  1  0  0  0  0
 19 18  1  0  0  0  0
 19 24  1  0  0  0  0
 20 19  2  0  0  0  0
 21 22  2  0  0  0  0
 21 20  1  0  0  0  0
 22 23  1  0  0  0  0
 23 18  2  0  0  0  0
 25 20  1  0  0  0  0
 26 22  1  0  0  0  0
M  END
>  <minimizedAffinity>
-4.09539318

>  <minimizedRMSD>
6.30393124

$$$$
