
 OpenBabel03252501523D

 48 51  0  0  1  0  0  0  0  0999 V2000
   33.5860   29.1710   38.6920 C   0  0  0  0  0  0  0  0  0  0  0  0
   32.8920   28.4370   39.1510 H   0  0  0  0  0  0  0  0  0  0  0  0
   33.3260   30.2210   38.9640 H   0  0  0  0  0  0  0  0  0  0  0  0
   33.5410   28.9620   37.2610 N   0  0  0  0  0  0  0  0  0  0  0  0
   34.2380   27.7390   36.9440 C   0  0  0  0  0  0  0  0  0  0  0  0
   33.5270   27.0820   35.7920 C   0  0  0  0  0  0  0  0  0  0  0  0
   32.1480   27.6390   35.8940 C   0  0  0  0  0  0  0  0  0  0  0  0
   32.2000   28.8440   36.7990 C   0  0  2  0  0  0  0  0  0  0  0  0
   34.2380   27.0780   37.8420 H   0  0  0  0  0  0  0  0  0  0  0  0
   35.2900   27.9760   36.6740 H   0  0  0  0  0  0  0  0  0  0  0  0
   33.5570   25.9850   35.9470 H   0  0  0  0  0  0  0  0  0  0  0  0
   34.0120   27.2590   34.8140 H   0  0  0  0  0  0  0  0  0  0  0  0
   31.8280   27.9670   34.8680 H   0  0  0  0  0  0  0  0  0  0  0  0
   31.4110   26.8730   36.2100 H   0  0  0  0  0  0  0  0  0  0  0  0
   31.5660   28.5860   37.6750 H   0  0  0  0  0  0  0  0  0  0  0  0
   30.6290   30.8580   36.6870 C   0  0  0  0  0  0  0  0  0  0  0  0
   31.6120   30.0420   36.1670 C   0  0  0  0  0  0  0  0  0  0  0  0
   32.0860   30.4250   34.9030 C   0  0  0  0  0  0  0  0  0  0  0  0
   32.8710   29.8070   34.4480 H   0  0  0  0  0  0  0  0  0  0  0  0
   31.6450   31.5180   34.1900 C   0  0  0  0  0  0  0  0  0  0  0  0
   32.0860   31.7170   33.2200 H   0  0  0  0  0  0  0  0  0  0  0  0
   30.6670   32.3080   34.7320 C   0  0  0  0  0  3  0  0  0  0  0  0
   30.1840   31.9540   35.9740 C   0  0  0  0  0  3  0  0  0  0  0  0
   30.9150   30.3510   39.2290 H   0  0  0  0  0  0  0  0  0  0  0  0
   29.9930   30.4550   38.2420 S   0  0  0  0  0  0  0  0  0  0  0  0
   29.0470   29.2760   38.1710 O   0  0  0  0  0  0  0  0  0  0  0  0
   29.0970   31.6130   38.6780 O   0  0  0  0  0  0  0  0  0  0  0  0
   35.1600   29.0400   40.5790 C   0  0  0  0  0  3  0  0  0  0  0  0
   34.9490   28.8820   39.2590 C   0  0  0  0  0  3  0  0  0  0  0  0
   37.2360   27.5930   40.8880 C   0  0  0  0  0  0  0  0  0  0  0  0
   36.4820   28.7690   41.1740 C   0  0  0  0  0  0  0  0  0  0  0  0
   37.0240   29.7080   42.0570 C   0  0  0  0  0  0  0  0  0  0  0  0
   38.2460   29.4650   42.6040 N   0  0  0  0  0  0  0  0  0  0  0  0
   38.9240   28.3530   42.3130 C   0  0  0  0  0  0  0  0  0  0  0  0
   38.4130   27.4320   41.4600 N   0  0  0  0  0  0  0  0  0  0  0  0
   36.7740   26.8970   40.2000 H   0  0  0  0  0  0  0  0  0  0  0  0
   36.4700   30.6060   42.2880 H   0  0  0  0  0  0  0  0  0  0  0  0
   39.3280   26.2910   44.1290 F   0  0  0  0  0  0  0  0  0  0  0  0
   40.4050   27.0740   43.8250 C   0  0  0  0  0  0  0  0  0  0  0  0
   40.2320   28.1200   42.9140 C   0  0  0  0  0  0  0  0  0  0  0  0
   41.2680   28.9530   42.5580 C   0  0  0  0  0  0  0  0  0  0  0  0
   42.5070   28.7050   43.1490 C   0  0  0  0  0  0  0  0  0  0  0  0
   42.7100   27.6650   44.0640 C   0  0  0  0  0  0  0  0  0  0  0  0
   41.6440   26.8460   44.4000 C   0  0  0  0  0  0  0  0  0  0  0  0
   41.1460   29.7670   41.8520 H   0  0  0  0  0  0  0  0  0  0  0  0
   43.3030   29.3910   42.8370 H   0  0  0  0  0  0  0  0  0  0  0  0
   43.6920   27.5450   44.4710 H   0  0  0  0  0  0  0  0  0  0  0  0
   41.7970   26.0560   45.0950 H   0  0  0  0  0  0  0  0  0  0  0  0
  1  3  1  0  0  0  0
  1  2  1  0  0  0  0
  1 29  1  0  0  0  0
  4  1  1  0  0  0  0
  5  4  1  0  0  0  0
  5  9  1  0  0  0  0
  6  7  1  0  0  0  0
  6 11  1  0  0  0  0
  6  5  1  0  0  0  0
  7 14  1  0  0  0  0
  7  8  1  0  0  0  0
  8  4  1  0  0  0  0
  8 15  1  1  0  0  0
 10  5  1  0  0  0  0
 12  6  1  0  0  0  0
 13  7  1  0  0  0  0
 16 25  1  0  0  0  0
 17 16  1  0  0  0  0
 17  8  1  0  0  0  0
 18 17  2  0  0  0  0
 19 18  1  0  0  0  0
 20 22  2  0  0  0  0
 20 18  1  0  0  0  0
 21 20  1  0  0  0  0
 22 23  1  0  0  0  0
 23 16  2  0  0  0  0
 25 27  2  0  0  0  0
 25 24  1  0  0  0  0
 26 25  2  0  0  0  0
 28 31  1  0  0  0  0
 29 28  2  0  0  0  0
 30 31  2  0  0  0  0
 30 35  1  0  0  0  0
 31 32  1  0  0  0  0
 32 37  1  0  0  0  0
 32 33  2  0  0  0  0
 34 33  1  0  0  0  0
 34 40  1  0  0  0  0
 35 34  2  0  0  0  0
 36 30  1  0  0  0  0
 39 38  1  0  0  0  0
 39 44  1  0  0  0  0
 40 39  2  0  0  0  0
 41 40  1  0  0  0  0
 41 42  2  0  0  0  0
 42 43  1  0  0  0  0
 43 44  2  0  0  0  0
 43 47  1  0  0  0  0
 44 48  1  0  0  0  0
 45 41  1  0  0  0  0
 46 42  1  0  0  0  0
M  END
>  <minimizedAffinity>
-6.5376482

$$$$

 OpenBabel03252501523D

 48 51  0  0  1  0  0  0  0  0999 V2000
   36.2820   28.6540   39.6900 C   0  0  0  0  0  0  0  0  0  0  0  0
   35.7810   28.7270   40.6760 H   0  0  0  0  0  0  0  0  0  0  0  0
   36.4630   27.5940   39.3900 H   0  0  0  0  0  0  0  0  0  0  0  0
   37.5170   29.4010   39.7830 N   0  0  0  0  0  0  0  0  0  0  0  0
   37.4190   30.5730   38.9460 C   0  0  0  0  0  0  0  0  0  0  0  0
   38.1630   31.6930   39.6230 C   0  0  0  0  0  0  0  0  0  0  0  0
   38.1400   31.2860   41.0570 C   0  0  0  0  0  0  0  0  0  0  0  0
   37.7640   29.8260   41.1180 C   0  0  2  0  0  0  0  0  0  0  0  0
   36.3440   30.8330   38.8100 H   0  0  0  0  0  0  0  0  0  0  0  0
   37.8630   30.3510   37.9510 H   0  0  0  0  0  0  0  0  0  0  0  0
   37.6100   32.6350   39.4380 H   0  0  0  0  0  0  0  0  0  0  0  0
   39.1780   31.8570   39.2180 H   0  0  0  0  0  0  0  0  0  0  0  0
   39.1760   31.4130   41.4710 H   0  0  0  0  0  0  0  0  0  0  0  0
   37.4870   31.9420   41.6670 H   0  0  0  0  0  0  0  0  0  0  0  0
   36.7970   29.7900   41.6650 H   0  0  0  0  0  0  0  0  0  0  0  0
   38.4590   28.0510   42.8230 C   0  0  0  0  0  0  0  0  0  0  0  0
   38.7380   29.0320   41.8940 C   0  0  0  0  0  0  0  0  0  0  0  0
   40.1040   29.2700   41.6840 C   0  0  0  0  0  0  0  0  0  0  0  0
   40.3780   30.0420   40.9520 H   0  0  0  0  0  0  0  0  0  0  0  0
   41.1310   28.6090   42.3220 C   0  0  0  0  0  0  0  0  0  0  0  0
   42.1520   28.8780   42.0790 H   0  0  0  0  0  0  0  0  0  0  0  0
   40.8210   27.6410   43.2400 C   0  0  0  0  0  3  0  0  0  0  0  0
   39.4850   27.3880   43.4650 C   0  0  0  0  0  3  0  0  0  0  0  0
   35.9110   28.3520   42.3500 H   0  0  0  0  0  0  0  0  0  0  0  0
   36.7970   27.6970   43.1380 S   0  0  0  0  0  0  0  0  0  0  0  0
   36.4760   27.7870   44.6140 O   0  0  0  0  0  0  0  0  0  0  0  0
   36.5790   26.2210   42.8090 O   0  0  0  0  0  0  0  0  0  0  0  0
   34.5390   28.4400   37.9670 C   0  0  0  0  0  3  0  0  0  0  0  0
   35.3370   29.2520   38.6850 C   0  0  0  0  0  3  0  0  0  0  0  0
   32.2790   29.4130   37.3000 C   0  0  0  0  0  0  0  0  0  0  0  0
   33.5990   28.9860   36.9700 C   0  0  0  0  0  0  0  0  0  0  0  0
   34.0210   29.0960   35.6410 C   0  0  0  0  0  0  0  0  0  0  0  0
   33.1590   29.6040   34.7190 N   0  0  0  0  0  0  0  0  0  0  0  0
   31.9300   29.9940   35.0640 C   0  0  0  0  0  0  0  0  0  0  0  0
   31.5050   29.8940   36.3470 N   0  0  0  0  0  0  0  0  0  0  0  0
   31.9990   29.3070   38.3400 H   0  0  0  0  0  0  0  0  0  0  0  0
   35.0170   28.7780   35.3690 H   0  0  0  0  0  0  0  0  0  0  0  0
   31.3540   32.7090   34.9540 F   0  0  0  0  0  0  0  0  0  0  0  0
   30.7580   31.9060   34.0230 C   0  0  0  0  0  0  0  0  0  0  0  0
   31.0280   30.5360   34.0540 C   0  0  0  0  0  0  0  0  0  0  0  0
   30.4650   29.6620   33.1510 C   0  0  0  0  0  0  0  0  0  0  0  0
   29.6080   30.2100   32.1960 C   0  0  0  0  0  0  0  0  0  0  0  0
   29.3190   31.5800   32.1420 C   0  0  0  0  0  0  0  0  0  0  0  0
   29.9030   32.4290   33.0670 C   0  0  0  0  0  0  0  0  0  0  0  0
   30.6680   28.5980   33.1650 H   0  0  0  0  0  0  0  0  0  0  0  0
   29.1830   29.4810   31.4980 H   0  0  0  0  0  0  0  0  0  0  0  0
   28.6500   31.9160   31.3770 H   0  0  0  0  0  0  0  0  0  0  0  0
   29.6850   33.4690   33.0260 H   0  0  0  0  0  0  0  0  0  0  0  0
  1  4  1  0  0  0  0
  1  2  1  0  0  0  0
  3  1  1  0  0  0  0
  4  8  1  0  0  0  0
  5  6  1  0  0  0  0
  5  4  1  0  0  0  0
  6  7  1  0  0  0  0
  7  8  1  0  0  0  0
  7 13  1  0  0  0  0
  7 14  1  0  0  0  0
  8 15  1  1  0  0  0
  8 17  1  0  0  0  0
  9  5  1  0  0  0  0
 10  5  1  0  0  0  0
 11  6  1  0  0  0  0
 12  6  1  0  0  0  0
 16 25  1  0  0  0  0
 16 23  1  0  0  0  0
 17 16  2  0  0  0  0
 18 17  1  0  0  0  0
 18 20  2  0  0  0  0
 19 18  1  0  0  0  0
 20 22  1  0  0  0  0
 21 20  1  0  0  0  0
 22 23  2  0  0  0  0
 24 25  1  0  0  0  0
 25 26  2  0  0  0  0
 27 25  2  0  0  0  0
 28 29  2  0  0  0  0
 29  1  1  0  0  0  0
 30 36  1  0  0  0  0
 31 30  1  0  0  0  0
 31 28  1  0  0  0  0
 32 31  2  0  0  0  0
 33 34  2  0  0  0  0
 33 32  1  0  0  0  0
 34 35  1  0  0  0  0
 35 30  2  0  0  0  0
 37 32  1  0  0  0  0
 39 40  1  0  0  0  0
 39 38  1  0  0  0  0
 40 34  1  0  0  0  0
 41 45  1  0  0  0  0
 41 40  2  0  0  0  0
 42 41  1  0  0  0  0
 43 42  2  0  0  0  0
 43 44  1  0  0  0  0
 44 39  2  0  0  0  0
 46 42  1  0  0  0  0
 47 43  1  0  0  0  0
 48 44  1  0  0  0  0
M  END
>  <minimizedAffinity>
-6.24633169

$$$$

 OpenBabel03252501523D

 48 51  0  0  1  0  0  0  0  0999 V2000
   37.6060   25.7660   38.6910 C   0  0  0  0  0  0  0  0  0  0  0  0
   37.4960   24.9760   37.9220 H   0  0  0  0  0  0  0  0  0  0  0  0
   38.5930   26.2820   38.6240 H   0  0  0  0  0  0  0  0  0  0  0  0
   37.4220   25.1340   39.9800 N   0  0  0  0  0  0  0  0  0  0  0  0
   37.4290   23.7020   39.8030 C   0  0  0  0  0  0  0  0  0  0  0  0
   38.0890   23.0880   41.0080 C   0  0  0  0  0  0  0  0  0  0  0  0
   38.9410   24.1980   41.5210 C   0  0  0  0  0  0  0  0  0  0  0  0
   38.4690   25.4780   40.8790 C   0  0  2  0  0  0  0  0  0  0  0  0
   37.9890   23.4540   38.8720 H   0  0  0  0  0  0  0  0  0  0  0  0
   36.3840   23.3390   39.7000 H   0  0  0  0  0  0  0  0  0  0  0  0
   38.6840   22.2150   40.6690 H   0  0  0  0  0  0  0  0  0  0  0  0
   37.3730   22.6910   41.7510 H   0  0  0  0  0  0  0  0  0  0  0  0
   38.7880   24.2690   42.6310 H   0  0  0  0  0  0  0  0  0  0  0  0
   40.0220   23.9970   41.3760 H   0  0  0  0  0  0  0  0  0  0  0  0
   39.3260   25.8410   40.2710 H   0  0  0  0  0  0  0  0  0  0  0  0
   38.9300   27.6300   42.1810 C   0  0  0  0  0  0  0  0  0  0  0  0
   38.1650   26.5240   41.8770 C   0  0  0  0  0  0  0  0  0  0  0  0
   36.9730   26.4150   42.6090 C   0  0  0  0  0  0  0  0  0  0  0  0
   36.3280   25.5500   42.4010 H   0  0  0  0  0  0  0  0  0  0  0  0
   36.5460   27.3090   43.5660 C   0  0  0  0  0  0  0  0  0  0  0  0
   35.6040   27.1220   44.0680 H   0  0  0  0  0  0  0  0  0  0  0  0
   37.3290   28.3970   43.8460 C   0  0  0  0  0  3  0  0  0  0  0  0
   38.5060   28.5280   43.1410 C   0  0  0  0  0  3  0  0  0  0  0  0
   41.0230   26.6890   40.9420 H   0  0  0  0  0  0  0  0  0  0  0  0
   40.4140   27.8380   41.3220 S   0  0  0  0  0  0  0  0  0  0  0  0
   41.3380   28.8070   42.0270 O   0  0  0  0  0  0  0  0  0  0  0  0
   40.0810   28.5440   40.0090 O   0  0  0  0  0  0  0  0  0  0  0  0
   35.4250   26.4160   37.7570 C   0  0  0  0  0  3  0  0  0  0  0  0
   36.5420   26.7900   38.4100 C   0  0  0  0  0  3  0  0  0  0  0  0
   33.3800   27.1810   36.4410 C   0  0  0  0  0  0  0  0  0  0  0  0
   34.3570   27.3890   37.4600 C   0  0  0  0  0  0  0  0  0  0  0  0
   34.2940   28.5660   38.2110 C   0  0  0  0  0  0  0  0  0  0  0  0
   33.3070   29.4630   37.9440 N   0  0  0  0  0  0  0  0  0  0  0  0
   32.4090   29.2350   36.9830 C   0  0  0  0  0  0  0  0  0  0  0  0
   32.4560   28.1010   36.2450 N   0  0  0  0  0  0  0  0  0  0  0  0
   33.4710   26.2560   35.8870 H   0  0  0  0  0  0  0  0  0  0  0  0
   35.0240   28.7440   38.9880 H   0  0  0  0  0  0  0  0  0  0  0  0
   30.5220   29.8820   38.9160 F   0  0  0  0  0  0  0  0  0  0  0  0
   30.4260   30.5200   37.7120 C   0  0  0  0  0  0  0  0  0  0  0  0
   31.3620   30.2150   36.7200 C   0  0  0  0  0  0  0  0  0  0  0  0
   31.3310   30.8150   35.4810 C   0  0  0  0  0  0  0  0  0  0  0  0
   30.3170   31.7490   35.2590 C   0  0  0  0  0  0  0  0  0  0  0  0
   29.3670   32.0740   36.2350 C   0  0  0  0  0  0  0  0  0  0  0  0
   29.4280   31.4500   37.4700 C   0  0  0  0  0  0  0  0  0  0  0  0
   32.0510   30.5870   34.7040 H   0  0  0  0  0  0  0  0  0  0  0  0
   30.3300   32.2020   34.2610 H   0  0  0  0  0  0  0  0  0  0  0  0
   28.6230   32.8010   35.9810 H   0  0  0  0  0  0  0  0  0  0  0  0
   28.7070   31.6960   38.2120 H   0  0  0  0  0  0  0  0  0  0  0  0
  1  4  1  0  0  0  0
  2  1  1  0  0  0  0
  3  1  1  0  0  0  0
  4  8  1  0  0  0  0
  5  4  1  0  0  0  0
  5  6  1  0  0  0  0
  6  7  1  0  0  0  0
  6 12  1  0  0  0  0
  7 13  1  0  0  0  0
  8 15  1  6  0  0  0
  8  7  1  0  0  0  0
  8 17  1  0  0  0  0
  9  5  1  0  0  0  0
 10  5  1  0  0  0  0
 11  6  1  0  0  0  0
 14  7  1  0  0  0  0
 16 23  1  0  0  0  0
 17 16  2  0  0  0  0
 17 18  1  0  0  0  0
 18 20  2  0  0  0  0
 19 18  1  0  0  0  0
 20 22  1  0  0  0  0
 20 21  1  0  0  0  0
 23 22  2  0  0  0  0
 24 25  1  0  0  0  0
 25 26  2  0  0  0  0
 25 16  1  0  0  0  0
 27 25  2  0  0  0  0
 28 29  2  0  0  0  0
 29  1  1  0  0  0  0
 30 31  1  0  0  0  0
 31 28  1  0  0  0  0
 31 32  2  0  0  0  0
 32 37  1  0  0  0  0
 33 32  1  0  0  0  0
 34 33  2  0  0  0  0
 35 30  2  0  0  0  0
 35 34  1  0  0  0  0
 36 30  1  0  0  0  0
 39 38  1  0  0  0  0
 40 34  1  0  0  0  0
 40 39  2  0  0  0  0
 41 40  1  0  0  0  0
 42 41  2  0  0  0  0
 42 43  1  0  0  0  0
 43 44  2  0  0  0  0
 44 39  1  0  0  0  0
 44 48  1  0  0  0  0
 45 41  1  0  0  0  0
 46 42  1  0  0  0  0
 47 43  1  0  0  0  0
M  END
>  <minimizedAffinity>
-6.21094656

$$$$

 OpenBabel03252501523D

 48 51  0  0  1  0  0  0  0  0999 V2000
   36.6280   25.7390   38.8040 C   0  0  0  0  0  0  0  0  0  0  0  0
   35.5750   26.0630   38.6800 H   0  0  0  0  0  0  0  0  0  0  0  0
   36.9780   25.1140   37.9490 H   0  0  0  0  0  0  0  0  0  0  0  0
   36.7060   25.0200   40.0580 N   0  0  0  0  0  0  0  0  0  0  0  0
   36.5710   23.6070   39.7960 C   0  0  0  0  0  0  0  0  0  0  0  0
   37.4510   22.8680   40.7690 C   0  0  0  0  0  0  0  0  0  0  0  0
   38.4740   23.8890   41.1320 C   0  0  0  0  0  0  0  0  0  0  0  0
   37.9560   25.2380   40.7010 C   0  0  2  0  0  0  0  0  0  0  0  0
   36.8790   23.4020   38.7450 H   0  0  0  0  0  0  0  0  0  0  0  0
   35.5080   23.3100   39.9230 H   0  0  0  0  0  0  0  0  0  0  0  0
   37.8870   21.9940   40.2450 H   0  0  0  0  0  0  0  0  0  0  0  0
   36.9020   22.4540   41.6350 H   0  0  0  0  0  0  0  0  0  0  0  0
   38.5910   23.8830   42.2490 H   0  0  0  0  0  0  0  0  0  0  0  0
   39.4740   23.6420   40.7210 H   0  0  0  0  0  0  0  0  0  0  0  0
   38.6700   25.6000   39.9310 H   0  0  0  0  0  0  0  0  0  0  0  0
   39.0540   26.9230   42.2810 C   0  0  0  0  0  0  0  0  0  0  0  0
   37.9670   26.2190   41.8060 C   0  0  0  0  0  0  0  0  0  0  0  0
   36.7580   26.4930   42.4610 C   0  0  0  0  0  0  0  0  0  0  0  0
   35.8630   25.9570   42.1180 H   0  0  0  0  0  0  0  0  0  0  0  0
   36.6040   27.3830   43.5010 C   0  0  0  0  0  0  0  0  0  0  0  0
   35.6180   27.5140   43.9320 H   0  0  0  0  0  0  0  0  0  0  0  0
   37.7020   28.0670   43.9510 C   0  0  0  0  0  3  0  0  0  0  0  0
   38.9040   27.8160   43.3230 C   0  0  0  0  0  3  0  0  0  0  0  0
   40.5210   26.3240   40.2090 H   0  0  0  0  0  0  0  0  0  0  0  0
   40.5820   26.6430   41.5240 S   0  0  0  0  0  0  0  0  0  0  0  0
   41.4440   25.7020   42.3370 O   0  0  0  0  0  0  0  0  0  0  0  0
   41.3520   27.9630   41.5600 O   0  0  0  0  0  0  0  0  0  0  0  0
   36.8560   28.1830   38.9660 C   0  0  0  0  0  3  0  0  0  0  0  0
   37.4620   26.9900   38.8210 C   0  0  0  0  0  3  0  0  0  0  0  0
   37.4270   30.4950   38.0550 C   0  0  0  0  0  0  0  0  0  0  0  0
   37.6370   29.4340   38.9860 C   0  0  0  0  0  0  0  0  0  0  0  0
   38.6250   29.5920   39.9620 C   0  0  0  0  0  0  0  0  0  0  0  0
   39.3440   30.7470   39.9870 N   0  0  0  0  0  0  0  0  0  0  0  0
   39.1200   31.7190   39.1000 C   0  0  0  0  0  0  0  0  0  0  0  0
   38.1670   31.5830   38.1480 N   0  0  0  0  0  0  0  0  0  0  0  0
   36.6510   30.3250   37.3190 H   0  0  0  0  0  0  0  0  0  0  0  0
   38.8020   28.8010   40.6760 H   0  0  0  0  0  0  0  0  0  0  0  0
   38.3820   33.8330   40.7440 F   0  0  0  0  0  0  0  0  0  0  0  0
   39.5100   33.9930   39.9900 C   0  0  0  0  0  0  0  0  0  0  0  0
   39.9050   32.9460   39.1520 C   0  0  0  0  0  0  0  0  0  0  0  0
   41.0290   33.0320   38.3610 C   0  0  0  0  0  0  0  0  0  0  0  0
   41.7600   34.2180   38.4330 C   0  0  0  0  0  0  0  0  0  0  0  0
   41.3880   35.2830   39.2630 C   0  0  0  0  0  0  0  0  0  0  0  0
   40.2510   35.1620   40.0450 C   0  0  0  0  0  0  0  0  0  0  0  0
   41.3450   32.2270   37.7090 H   0  0  0  0  0  0  0  0  0  0  0  0
   42.6460   34.2440   37.7880 H   0  0  0  0  0  0  0  0  0  0  0  0
   42.0050   36.1570   39.2580 H   0  0  0  0  0  0  0  0  0  0  0  0
   39.9670   35.9700   40.6760 H   0  0  0  0  0  0  0  0  0  0  0  0
  1 29  1  0  0  0  0
  1  4  1  0  0  0  0
  2  1  1  0  0  0  0
  3  1  1  0  0  0  0
  4  8  1  0  0  0  0
  5 10  1  0  0  0  0
  5  4  1  0  0  0  0
  5  6  1  0  0  0  0
  6  7  1  0  0  0  0
  6 12  1  0  0  0  0
  7 13  1  0  0  0  0
  8 15  1  6  0  0  0
  8  7  1  0  0  0  0
  8 17  1  0  0  0  0
  9  5  1  0  0  0  0
 11  6  1  0  0  0  0
 14  7  1  0  0  0  0
 16 23  1  0  0  0  0
 17 16  2  0  0  0  0
 17 18  1  0  0  0  0
 18 20  2  0  0  0  0
 19 18  1  0  0  0  0
 20 21  1  0  0  0  0
 20 22  1  0  0  0  0
 23 22  2  0  0  0  0
 24 25  1  0  0  0  0
 25 27  2  0  0  0  0
 25 16  1  0  0  0  0
 25 26  2  0  0  0  0
 28 31  1  0  0  0  0
 29 28  2  0  0  0  0
 30 35  2  0  0  0  0
 30 31  1  0  0  0  0
 31 32  2  0  0  0  0
 32 33  1  0  0  0  0
 32 37  1  0  0  0  0
 34 40  1  0  0  0  0
 34 33  2  0  0  0  0
 35 34  1  0  0  0  0
 36 30  1  0  0  0  0
 39 44  1  0  0  0  0
 39 38  1  0  0  0  0
 40 39  2  0  0  0  0
 41 42  2  0  0  0  0
 41 40  1  0  0  0  0
 42 43  1  0  0  0  0
 43 44  2  0  0  0  0
 44 48  1  0  0  0  0
 45 41  1  0  0  0  0
 46 42  1  0  0  0  0
 47 43  1  0  0  0  0
M  END
>  <minimizedAffinity>
-6.11545753

$$$$

 OpenBabel03252501523D

 48 51  0  0  1  0  0  0  0  0999 V2000
   37.4250   25.6130   38.7010 C   0  0  0  0  0  0  0  0  0  0  0  0
   37.2380   24.8240   37.9440 H   0  0  0  0  0  0  0  0  0  0  0  0
   38.4260   26.0890   38.5720 H   0  0  0  0  0  0  0  0  0  0  0  0
   37.2910   24.9940   40.0020 N   0  0  0  0  0  0  0  0  0  0  0  0
   37.2680   23.5600   39.8380 C   0  0  0  0  0  0  0  0  0  0  0  0
   37.9740   22.9450   41.0160 C   0  0  0  0  0  0  0  0  0  0  0  0
   38.8660   24.0460   41.4780 C   0  0  0  0  0  0  0  0  0  0  0  0
   38.3840   25.3290   40.8480 C   0  0  2  0  0  0  0  0  0  0  0  0
   37.7790   23.2960   38.8830 H   0  0  0  0  0  0  0  0  0  0  0  0
   36.2130   23.2130   39.7870 H   0  0  0  0  0  0  0  0  0  0  0  0
   38.5390   22.0610   40.6570 H   0  0  0  0  0  0  0  0  0  0  0  0
   37.2870   22.5660   41.7940 H   0  0  0  0  0  0  0  0  0  0  0  0
   38.7670   24.1280   42.5940 H   0  0  0  0  0  0  0  0  0  0  0  0
   39.9360   23.8260   41.2850 H   0  0  0  0  0  0  0  0  0  0  0  0
   39.2180   25.6720   40.1980 H   0  0  0  0  0  0  0  0  0  0  0  0
   39.0010   27.4080   42.2030 C   0  0  0  0  0  0  0  0  0  0  0  0
   38.1440   26.3870   41.8500 C   0  0  0  0  0  0  0  0  0  0  0  0
   36.9170   26.3870   42.5320 C   0  0  0  0  0  0  0  0  0  0  0  0
   36.2000   25.5930   42.2850 H   0  0  0  0  0  0  0  0  0  0  0  0
   36.5420   27.3070   43.4860 C   0  0  0  0  0  0  0  0  0  0  0  0
   35.5660   27.2080   43.9480 H   0  0  0  0  0  0  0  0  0  0  0  0
   37.4150   28.3090   43.8150 C   0  0  0  0  0  3  0  0  0  0  0  0
   38.6280   28.3310   43.1590 C   0  0  0  0  0  3  0  0  0  0  0  0
   40.4940   27.2670   40.0690 H   0  0  0  0  0  0  0  0  0  0  0  0
   40.5320   27.4790   41.4070 S   0  0  0  0  0  0  0  0  0  0  0  0
   41.5740   26.6450   42.1220 O   0  0  0  0  0  0  0  0  0  0  0  0
   41.0510   28.9090   41.5510 O   0  0  0  0  0  0  0  0  0  0  0  0
   35.3490   26.4210   37.6570 C   0  0  0  0  0  3  0  0  0  0  0  0
   36.3860   26.6770   38.4750 C   0  0  0  0  0  3  0  0  0  0  0  0
   34.1990   28.6370   38.1710 C   0  0  0  0  0  0  0  0  0  0  0  0
   34.3090   27.4370   37.4080 C   0  0  0  0  0  0  0  0  0  0  0  0
   33.3930   27.2190   36.3750 C   0  0  0  0  0  0  0  0  0  0  0  0
   32.4360   28.1560   36.1380 N   0  0  0  0  0  0  0  0  0  0  0  0
   32.3620   29.2680   36.8720 C   0  0  0  0  0  0  0  0  0  0  0  0
   33.2420   29.4960   37.8770 N   0  0  0  0  0  0  0  0  0  0  0  0
   34.9300   28.7600   38.9590 H   0  0  0  0  0  0  0  0  0  0  0  0
   33.4580   26.3160   35.7850 H   0  0  0  0  0  0  0  0  0  0  0  0
   32.3080   30.6630   34.4700 F   0  0  0  0  0  0  0  0  0  0  0  0
   31.3240   30.9420   35.3760 C   0  0  0  0  0  0  0  0  0  0  0  0
   31.3260   30.2560   36.5940 C   0  0  0  0  0  0  0  0  0  0  0  0
   30.3690   30.4820   37.5570 C   0  0  0  0  0  0  0  0  0  0  0  0
   29.3900   31.4320   37.2620 C   0  0  0  0  0  0  0  0  0  0  0  0
   29.3640   32.1340   36.0510 C   0  0  0  0  0  0  0  0  0  0  0  0
   30.3440   31.8810   35.1040 C   0  0  0  0  0  0  0  0  0  0  0  0
   30.3600   29.9560   38.5050 H   0  0  0  0  0  0  0  0  0  0  0  0
   28.6490   31.5800   38.0560 H   0  0  0  0  0  0  0  0  0  0  0  0
   28.5790   32.8460   35.9060 H   0  0  0  0  0  0  0  0  0  0  0  0
   30.3240   32.4140   34.1840 H   0  0  0  0  0  0  0  0  0  0  0  0
  1  4  1  0  0  0  0
  2  1  1  0  0  0  0
  3  1  1  0  0  0  0
  4  8  1  0  0  0  0
  5  4  1  0  0  0  0
  5  6  1  0  0  0  0
  6  7  1  0  0  0  0
  6 12  1  0  0  0  0
  7 13  1  0  0  0  0
  8 15  1  6  0  0  0
  8  7  1  0  0  0  0
  8 17  1  0  0  0  0
  9  5  1  0  0  0  0
 10  5  1  0  0  0  0
 11  6  1  0  0  0  0
 14  7  1  0  0  0  0
 16 23  1  0  0  0  0
 17 16  2  0  0  0  0
 17 18  1  0  0  0  0
 18 20  2  0  0  0  0
 19 18  1  0  0  0  0
 20 22  1  0  0  0  0
 20 21  1  0  0  0  0
 23 22  2  0  0  0  0
 24 25  1  0  0  0  0
 25 27  2  0  0  0  0
 25 26  2  0  0  0  0
 25 16  1  0  0  0  0
 28 29  2  0  0  0  0
 29  1  1  0  0  0  0
 30 36  1  0  0  0  0
 31 28  1  0  0  0  0
 31 30  2  0  0  0  0
 32 31  1  0  0  0  0
 33 32  2  0  0  0  0
 33 34  1  0  0  0  0
 34 35  2  0  0  0  0
 35 30  1  0  0  0  0
 37 32  1  0  0  0  0
 38 39  1  0  0  0  0
 39 40  1  0  0  0  0
 40 34  1  0  0  0  0
 40 41  2  0  0  0  0
 41 45  1  0  0  0  0
 42 41  1  0  0  0  0
 42 46  1  0  0  0  0
 43 42  2  0  0  0  0
 44 39  2  0  0  0  0
 44 43  1  0  0  0  0
 47 43  1  0  0  0  0
 48 44  1  0  0  0  0
M  END
>  <minimizedAffinity>
-6.06441021

$$$$

 OpenBabel03252501523D

 48 51  0  0  1  0  0  0  0  0999 V2000
   37.9880   26.1230   38.5280 C   0  0  0  0  0  0  0  0  0  0  0  0
   37.3810   26.4980   37.6790 H   0  0  0  0  0  0  0  0  0  0  0  0
   38.6750   25.2990   38.2200 H   0  0  0  0  0  0  0  0  0  0  0  0
   37.0630   25.6910   39.5540 N   0  0  0  0  0  0  0  0  0  0  0  0
   36.1940   24.6780   39.0040 C   0  0  0  0  0  0  0  0  0  0  0  0
   35.8980   23.6790   40.0900 C   0  0  0  0  0  0  0  0  0  0  0  0
   37.0610   23.8360   41.0100 C   0  0  0  0  0  0  0  0  0  0  0  0
   37.7510   25.1330   40.6660 C   0  0  2  0  0  0  0  0  0  0  0  0
   36.7050   24.1910   38.1420 H   0  0  0  0  0  0  0  0  0  0  0  0
   35.2580   25.1550   38.6420 H   0  0  0  0  0  0  0  0  0  0  0  0
   35.8520   22.6720   39.6290 H   0  0  0  0  0  0  0  0  0  0  0  0
   34.9170   23.8310   40.5750 H   0  0  0  0  0  0  0  0  0  0  0  0
   36.6670   23.8990   42.0590 H   0  0  0  0  0  0  0  0  0  0  0  0
   37.7310   22.9530   40.9900 H   0  0  0  0  0  0  0  0  0  0  0  0
   38.7680   24.8470   40.3230 H   0  0  0  0  0  0  0  0  0  0  0  0
   39.0640   26.1980   42.5850 C   0  0  0  0  0  0  0  0  0  0  0  0
   37.9150   26.0060   41.8470 C   0  0  0  0  0  0  0  0  0  0  0  0
   36.8040   26.7400   42.2870 C   0  0  0  0  0  0  0  0  0  0  0  0
   35.8650   26.6220   41.7300 H   0  0  0  0  0  0  0  0  0  0  0  0
   36.7990   27.6000   43.3630 C   0  0  0  0  0  0  0  0  0  0  0  0
   35.8780   28.1160   43.6120 H   0  0  0  0  0  0  0  0  0  0  0  0
   37.9550   27.7690   44.0780 C   0  0  0  0  0  3  0  0  0  0  0  0
   39.0620   27.0580   43.6650 C   0  0  0  0  0  3  0  0  0  0  0  0
   40.2470   24.2220   41.3620 H   0  0  0  0  0  0  0  0  0  0  0  0
   40.4780   25.3300   42.1050 S   0  0  0  0  0  0  0  0  0  0  0  0
   41.4120   25.0910   43.2720 O   0  0  0  0  0  0  0  0  0  0  0  0
   41.2790   26.2470   41.1820 O   0  0  0  0  0  0  0  0  0  0  0  0
   38.2630   28.4680   39.2190 C   0  0  0  0  0  3  0  0  0  0  0  0
   38.8390   27.2740   38.9870 C   0  0  0  0  0  3  0  0  0  0  0  0
   39.0560   30.0930   41.0160 C   0  0  0  0  0  0  0  0  0  0  0  0
   39.0620   29.6230   39.6690 C   0  0  0  0  0  0  0  0  0  0  0  0
   39.8660   30.2860   38.7370 C   0  0  0  0  0  0  0  0  0  0  0  0
   40.6090   31.3480   39.1490 N   0  0  0  0  0  0  0  0  0  0  0  0
   40.5780   31.7610   40.4180 C   0  0  0  0  0  0  0  0  0  0  0  0
   39.8050   31.1300   41.3340 N   0  0  0  0  0  0  0  0  0  0  0  0
   38.4180   29.5470   41.6990 H   0  0  0  0  0  0  0  0  0  0  0  0
   39.8850   29.9460   37.7110 H   0  0  0  0  0  0  0  0  0  0  0  0
   39.8570   34.3570   39.7420 F   0  0  0  0  0  0  0  0  0  0  0  0
   40.9980   34.1970   40.4770 C   0  0  0  0  0  0  0  0  0  0  0  0
   41.3860   32.9020   40.8310 C   0  0  0  0  0  0  0  0  0  0  0  0
   42.5230   32.6600   41.5690 C   0  0  0  0  0  0  0  0  0  0  0  0
   43.2750   33.7720   41.9500 C   0  0  0  0  0  0  0  0  0  0  0  0
   42.9100   35.0800   41.6090 C   0  0  0  0  0  0  0  0  0  0  0  0
   41.7600   35.2860   40.8650 C   0  0  0  0  0  0  0  0  0  0  0  0
   42.8340   31.6600   41.8500 H   0  0  0  0  0  0  0  0  0  0  0  0
   44.1710   33.5340   42.5350 H   0  0  0  0  0  0  0  0  0  0  0  0
   43.5440   35.8760   41.9410 H   0  0  0  0  0  0  0  0  0  0  0  0
   41.4820   36.2800   40.6060 H   0  0  0  0  0  0  0  0  0  0  0  0
  1 29  1  0  0  0  0
  1  4  1  0  0  0  0
  2  1  1  0  0  0  0
  3  1  1  0  0  0  0
  4  8  1  0  0  0  0
  5  4  1  0  0  0  0
  5  6  1  0  0  0  0
  6 12  1  0  0  0  0
  6  7  1  0  0  0  0
  7 13  1  0  0  0  0
  8 15  1  6  0  0  0
  8  7  1  0  0  0  0
  8 17  1  0  0  0  0
  9  5  1  0  0  0  0
 10  5  1  0  0  0  0
 11  6  1  0  0  0  0
 14  7  1  0  0  0  0
 16 23  1  0  0  0  0
 17 18  1  0  0  0  0
 17 16  2  0  0  0  0
 18 20  2  0  0  0  0
 19 18  1  0  0  0  0
 20 21  1  0  0  0  0
 20 22  1  0  0  0  0
 23 22  2  0  0  0  0
 24 25  1  0  0  0  0
 25 16  1  0  0  0  0
 25 26  2  0  0  0  0
 27 25  2  0  0  0  0
 28 31  1  0  0  0  0
 29 28  2  0  0  0  0
 30 35  1  0  0  0  0
 30 36  1  0  0  0  0
 31 30  2  0  0  0  0
 32 33  2  0  0  0  0
 32 31  1  0  0  0  0
 33 34  1  0  0  0  0
 34 40  1  0  0  0  0
 34 35  2  0  0  0  0
 37 32  1  0  0  0  0
 38 39  1  0  0  0  0
 39 40  2  0  0  0  0
 39 44  1  0  0  0  0
 40 41  1  0  0  0  0
 41 45  1  0  0  0  0
 41 42  2  0  0  0  0
 42 46  1  0  0  0  0
 43 47  1  0  0  0  0
 43 42  1  0  0  0  0
 44 43  2  0  0  0  0
 48 44  1  0  0  0  0
M  END
>  <minimizedAffinity>
-5.91655684

$$$$

 OpenBabel03252501523D

 48 51  0  0  1  0  0  0  0  0999 V2000
   36.0230   28.0060   39.7420 C   0  0  0  0  0  0  0  0  0  0  0  0
   35.4140   27.1970   40.1940 H   0  0  0  0  0  0  0  0  0  0  0  0
   36.8860   27.6050   39.1590 H   0  0  0  0  0  0  0  0  0  0  0  0
   36.4600   28.8630   40.8230 N   0  0  0  0  0  0  0  0  0  0  0  0
   36.3020   28.1580   42.0720 C   0  0  0  0  0  0  0  0  0  0  0  0
   37.4340   28.5590   42.9790 C   0  0  0  0  0  0  0  0  0  0  0  0
   38.4870   29.0000   42.0200 C   0  0  0  0  0  0  0  0  0  0  0  0
   37.8300   29.2160   40.6800 C   0  0  2  0  0  0  0  0  0  0  0  0
   36.3190   27.0620   41.8740 H   0  0  0  0  0  0  0  0  0  0  0  0
   35.3230   28.4260   42.5230 H   0  0  0  0  0  0  0  0  0  0  0  0
   37.7380   27.6700   43.5670 H   0  0  0  0  0  0  0  0  0  0  0  0
   37.1530   29.3280   43.7230 H   0  0  0  0  0  0  0  0  0  0  0  0
   38.9020   29.9770   42.3850 H   0  0  0  0  0  0  0  0  0  0  0  0
   39.3450   28.2980   41.9900 H   0  0  0  0  0  0  0  0  0  0  0  0
   38.2980   28.4760   39.9960 H   0  0  0  0  0  0  0  0  0  0  0  0
   39.1360   30.9100   39.2770 C   0  0  0  0  0  0  0  0  0  0  0  0
   38.1120   30.5590   40.1310 C   0  0  0  0  0  0  0  0  0  0  0  0
   37.2610   31.6140   40.4920 C   0  0  0  0  0  0  0  0  0  0  0  0
   36.4290   31.3850   41.1710 H   0  0  0  0  0  0  0  0  0  0  0  0
   37.3870   32.9160   40.0610 C   0  0  0  0  0  0  0  0  0  0  0  0
   36.6680   33.6500   40.4070 H   0  0  0  0  0  0  0  0  0  0  0  0
   38.4150   33.2330   39.2140 C   0  0  0  0  0  3  0  0  0  0  0  0
   39.2660   32.2140   38.8440 C   0  0  0  0  0  3  0  0  0  0  0  0
   39.6500   28.4740   38.4980 H   0  0  0  0  0  0  0  0  0  0  0  0
   40.2290   29.6650   38.7840 S   0  0  0  0  0  0  0  0  0  0  0  0
   41.4110   29.5540   39.7210 O   0  0  0  0  0  0  0  0  0  0  0  0
   40.8540   30.1110   37.4620 O   0  0  0  0  0  0  0  0  0  0  0  0
   34.5810   28.0540   37.7490 C   0  0  0  0  0  3  0  0  0  0  0  0
   35.1250   28.7310   38.7780 C   0  0  0  0  0  3  0  0  0  0  0  0
   34.0620   28.9490   35.4190 C   0  0  0  0  0  0  0  0  0  0  0  0
   33.6960   28.7270   36.7800 C   0  0  0  0  0  0  0  0  0  0  0  0
   32.4400   29.1650   37.2110 C   0  0  0  0  0  0  0  0  0  0  0  0
   31.6180   29.7810   36.3190 N   0  0  0  0  0  0  0  0  0  0  0  0
   31.9940   29.9720   35.0520 C   0  0  0  0  0  0  0  0  0  0  0  0
   33.2070   29.5550   34.6180 N   0  0  0  0  0  0  0  0  0  0  0  0
   35.0440   28.5940   35.1340 H   0  0  0  0  0  0  0  0  0  0  0  0
   32.1430   29.0070   38.2380 H   0  0  0  0  0  0  0  0  0  0  0  0
   31.3070   32.6450   35.3630 F   0  0  0  0  0  0  0  0  0  0  0  0
   30.7640   31.9810   34.3000 C   0  0  0  0  0  0  0  0  0  0  0  0
   31.0910   30.6340   34.1180 C   0  0  0  0  0  0  0  0  0  0  0  0
   30.5830   29.8970   33.0720 C   0  0  0  0  0  0  0  0  0  0  0  0
   29.7230   30.5590   32.1950 C   0  0  0  0  0  0  0  0  0  0  0  0
   29.3780   31.9070   32.3530 C   0  0  0  0  0  0  0  0  0  0  0  0
   29.9070   32.6170   33.4180 C   0  0  0  0  0  0  0  0  0  0  0  0
   30.8300   28.8530   32.9210 H   0  0  0  0  0  0  0  0  0  0  0  0
   29.3430   29.9360   31.3780 H   0  0  0  0  0  0  0  0  0  0  0  0
   28.7110   32.3370   31.6350 H   0  0  0  0  0  0  0  0  0  0  0  0
   29.6460   33.6420   33.5380 H   0  0  0  0  0  0  0  0  0  0  0  0
  1  2  1  0  0  0  0
  1  4  1  0  0  0  0
  3  1  1  0  0  0  0
  4  5  1  0  0  0  0
  5 10  1  0  0  0  0
  5  6  1  0  0  0  0
  6 11  1  0  0  0  0
  6 12  1  0  0  0  0
  7 13  1  0  0  0  0
  7  6  1  0  0  0  0
  8 15  1  6  0  0  0
  8  4  1  0  0  0  0
  8  7  1  0  0  0  0
  9  5  1  0  0  0  0
 14  7  1  0  0  0  0
 16 17  1  0  0  0  0
 17 18  2  0  0  0  0
 17  8  1  0  0  0  0
 18 19  1  0  0  0  0
 20 21  1  0  0  0  0
 20 18  1  0  0  0  0
 22 20  2  0  0  0  0
 23 22  1  0  0  0  0
 23 16  2  0  0  0  0
 24 25  1  0  0  0  0
 25 16  1  0  0  0  0
 25 26  2  0  0  0  0
 27 25  2  0  0  0  0
 28 29  2  0  0  0  0
 29  1  1  0  0  0  0
 30 31  1  0  0  0  0
 31 32  2  0  0  0  0
 31 28  1  0  0  0  0
 32 37  1  0  0  0  0
 33 32  1  0  0  0  0
 34 33  2  0  0  0  0
 35 34  1  0  0  0  0
 35 30  2  0  0  0  0
 36 30  1  0  0  0  0
 39 38  1  0  0  0  0
 40 39  1  0  0  0  0
 40 34  1  0  0  0  0
 41 40  2  0  0  0  0
 42 43  2  0  0  0  0
 42 41  1  0  0  0  0
 43 44  1  0  0  0  0
 44 48  1  0  0  0  0
 44 39  2  0  0  0  0
 45 41  1  0  0  0  0
 46 42  1  0  0  0  0
 47 43  1  0  0  0  0
M  END
>  <minimizedAffinity>
-5.818923

$$$$

 OpenBabel03252501523D

 48 51  0  0  1  0  0  0  0  0999 V2000
   41.5070   28.1320   41.1240 C   0  0  0  0  0  0  0  0  0  0  0  0
   42.3810   28.0570   40.4460 H   0  0  0  0  0  0  0  0  0  0  0  0
   41.4990   29.0910   41.6940 H   0  0  0  0  0  0  0  0  0  0  0  0
   41.5560   26.9860   42.0070 N   0  0  0  0  0  0  0  0  0  0  0  0
   42.7870   27.0280   42.7590 C   0  0  0  0  0  0  0  0  0  0  0  0
   42.5090   26.4900   44.1370 C   0  0  0  0  0  0  0  0  0  0  0  0
   41.0450   26.7210   44.2940 C   0  0  0  0  0  0  0  0  0  0  0  0
   40.4710   26.9960   42.9260 C   0  0  2  0  0  0  0  0  0  0  0  0
   43.1470   28.0820   42.8080 H   0  0  0  0  0  0  0  0  0  0  0  0
   43.5540   26.4110   42.2440 H   0  0  0  0  0  0  0  0  0  0  0  0
   43.1120   27.0710   44.8630 H   0  0  0  0  0  0  0  0  0  0  0  0
   42.8140   25.4360   44.2700 H   0  0  0  0  0  0  0  0  0  0  0  0
   40.5850   25.7800   44.7000 H   0  0  0  0  0  0  0  0  0  0  0  0
   40.8240   27.5120   45.0390 H   0  0  0  0  0  0  0  0  0  0  0  0
   40.0790   28.0350   42.9710 H   0  0  0  0  0  0  0  0  0  0  0  0
   37.9900   26.4150   42.7060 C   0  0  0  0  0  0  0  0  0  0  0  0
   39.3310   26.1100   42.6120 C   0  0  0  0  0  0  0  0  0  0  0  0
   39.6070   24.8110   42.1580 C   0  0  0  0  0  0  0  0  0  0  0  0
   40.6620   24.5210   42.0640 H   0  0  0  0  0  0  0  0  0  0  0  0
   38.6590   23.8720   41.8180 C   0  0  0  0  0  0  0  0  0  0  0  0
   38.9900   22.8980   41.4780 H   0  0  0  0  0  0  0  0  0  0  0  0
   37.3350   24.2050   41.9240 C   0  0  0  0  0  3  0  0  0  0  0  0
   37.0360   25.4760   42.3680 C   0  0  0  0  0  3  0  0  0  0  0  0
   38.5520   28.9200   43.1640 H   0  0  0  0  0  0  0  0  0  0  0  0
   37.5660   27.9970   43.2570 S   0  0  0  0  0  0  0  0  0  0  0  0
   36.9000   27.9570   44.6160 O   0  0  0  0  0  0  0  0  0  0  0  0
   36.4680   28.5180   42.3310 O   0  0  0  0  0  0  0  0  0  0  0  0
   39.4470   29.1700   40.2680 C   0  0  0  0  0  3  0  0  0  0  0  0
   40.2840   28.1160   40.2510 C   0  0  0  0  0  3  0  0  0  0  0  0
   37.6540   30.4020   38.9400 C   0  0  0  0  0  0  0  0  0  0  0  0
   38.2360   29.1940   39.4280 C   0  0  0  0  0  0  0  0  0  0  0  0
   37.6310   27.9800   39.0890 C   0  0  0  0  0  0  0  0  0  0  0  0
   36.5160   27.9980   38.3090 N   0  0  0  0  0  0  0  0  0  0  0  0
   35.9990   29.1470   37.8700 C   0  0  0  0  0  0  0  0  0  0  0  0
   36.5720   30.3320   38.1890 N   0  0  0  0  0  0  0  0  0  0  0  0
   38.1580   31.3150   39.2290 H   0  0  0  0  0  0  0  0  0  0  0  0
   38.0550   27.0540   39.4490 H   0  0  0  0  0  0  0  0  0  0  0  0
   33.4600   29.0180   38.9880 F   0  0  0  0  0  0  0  0  0  0  0  0
   33.5400   29.0690   37.6250 C   0  0  0  0  0  0  0  0  0  0  0  0
   34.8040   29.1340   37.0340 C   0  0  0  0  0  0  0  0  0  0  0  0
   34.9670   29.1880   35.6680 C   0  0  0  0  0  0  0  0  0  0  0  0
   33.8050   29.1750   34.8950 C   0  0  0  0  0  0  0  0  0  0  0  0
   32.5250   29.1100   35.4600 C   0  0  0  0  0  0  0  0  0  0  0  0
   32.4000   29.0570   36.8390 C   0  0  0  0  0  0  0  0  0  0  0  0
   35.9420   29.2390   35.1980 H   0  0  0  0  0  0  0  0  0  0  0  0
   33.9800   29.2190   33.8140 H   0  0  0  0  0  0  0  0  0  0  0  0
   31.6870   29.1040   34.7950 H   0  0  0  0  0  0  0  0  0  0  0  0
   31.4280   29.0080   37.2690 H   0  0  0  0  0  0  0  0  0  0  0  0
  1  3  1  0  0  0  0
  1  4  1  0  0  0  0
  2  1  1  0  0  0  0
  4  5  1  0  0  0  0
  4  8  1  0  0  0  0
  5  9  1  0  0  0  0
  5  6  1  0  0  0  0
  6 12  1  0  0  0  0
  6  7  1  0  0  0  0
  6 11  1  0  0  0  0
  7 13  1  0  0  0  0
  7 14  1  0  0  0  0
  8 15  1  1  0  0  0
  8  7  1  0  0  0  0
 10  5  1  0  0  0  0
 16 25  1  0  0  0  0
 17 16  1  0  0  0  0
 17  8  1  0  0  0  0
 18 17  2  0  0  0  0
 19 18  1  0  0  0  0
 20 22  2  0  0  0  0
 20 18  1  0  0  0  0
 21 20  1  0  0  0  0
 22 23  1  0  0  0  0
 23 16  2  0  0  0  0
 24 25  1  0  0  0  0
 25 26  2  0  0  0  0
 27 25  2  0  0  0  0
 29 28  2  0  0  0  0
 29  1  1  0  0  0  0
 30 36  1  0  0  0  0
 30 31  1  0  0  0  0
 31 28  1  0  0  0  0
 32 31  2  0  0  0  0
 32 37  1  0  0  0  0
 33 32  1  0  0  0  0
 34 35  1  0  0  0  0
 34 33  2  0  0  0  0
 35 30  2  0  0  0  0
 39 38  1  0  0  0  0
 40 39  1  0  0  0  0
 40 34  1  0  0  0  0
 41 40  2  0  0  0  0
 42 43  2  0  0  0  0
 42 41  1  0  0  0  0
 43 44  1  0  0  0  0
 44 48  1  0  0  0  0
 44 39  2  0  0  0  0
 45 41  1  0  0  0  0
 46 42  1  0  0  0  0
 47 43  1  0  0  0  0
M  END
>  <minimizedAffinity>
-5.8184886

$$$$

 OpenBabel03252501523D

 48 51  0  0  1  0  0  0  0  0999 V2000
   37.8580   27.9890   38.9160 C   0  0  0  0  0  0  0  0  0  0  0  0
   37.5480   26.9310   39.0340 H   0  0  0  0  0  0  0  0  0  0  0  0
   38.8130   28.0850   38.3480 H   0  0  0  0  0  0  0  0  0  0  0  0
   37.9690   28.5510   40.2450 N   0  0  0  0  0  0  0  0  0  0  0  0
   37.3320   29.8460   40.2610 C   0  0  0  0  0  0  0  0  0  0  0  0
   36.6820   30.0290   41.6060 C   0  0  0  0  0  0  0  0  0  0  0  0
   36.4730   28.6270   42.0660 C   0  0  0  0  0  0  0  0  0  0  0  0
   37.3270   27.7260   41.2090 C   0  0  2  0  0  0  0  0  0  0  0  0
   36.5750   29.8870   39.4430 H   0  0  0  0  0  0  0  0  0  0  0  0
   38.0950   30.6330   40.0820 H   0  0  0  0  0  0  0  0  0  0  0  0
   35.7300   30.5760   41.4580 H   0  0  0  0  0  0  0  0  0  0  0  0
   37.2770   30.6470   42.3030 H   0  0  0  0  0  0  0  0  0  0  0  0
   36.8210   28.5550   43.1310 H   0  0  0  0  0  0  0  0  0  0  0  0
   35.4000   28.3470   42.0790 H   0  0  0  0  0  0  0  0  0  0  0  0
   36.6140   27.0680   40.6660 H   0  0  0  0  0  0  0  0  0  0  0  0
   38.3600   25.4880   41.8920 C   0  0  0  0  0  0  0  0  0  0  0  0
   38.2010   26.8520   42.0180 C   0  0  0  0  0  0  0  0  0  0  0  0
   38.9750   27.4420   43.0290 C   0  0  0  0  0  0  0  0  0  0  0  0
   38.8830   28.5280   43.1690 H   0  0  0  0  0  0  0  0  0  0  0  0
   39.8410   26.7670   43.8610 C   0  0  0  0  0  0  0  0  0  0  0  0
   40.3880   27.3290   44.6090 H   0  0  0  0  0  0  0  0  0  0  0  0
   39.9750   25.4120   43.7110 C   0  0  0  0  0  3  0  0  0  0  0  0
   39.2270   24.8080   42.7240 C   0  0  0  0  0  3  0  0  0  0  0  0
   37.2110   25.4180   39.5520 H   0  0  0  0  0  0  0  0  0  0  0  0
   37.4430   24.6860   40.6670 S   0  0  0  0  0  0  0  0  0  0  0  0
   36.1990   24.0370   41.2340 O   0  0  0  0  0  0  0  0  0  0  0  0
   38.2790   23.5040   40.1790 O   0  0  0  0  0  0  0  0  0  0  0  0
   35.7000   27.9560   37.7360 C   0  0  0  0  0  3  0  0  0  0  0  0
   36.7830   28.6630   38.1090 C   0  0  0  0  0  3  0  0  0  0  0  0
   33.3420   28.8930   37.4870 C   0  0  0  0  0  0  0  0  0  0  0  0
   34.6230   28.5780   36.9430 C   0  0  0  0  0  0  0  0  0  0  0  0
   34.8670   28.8780   35.6000 C   0  0  0  0  0  0  0  0  0  0  0  0
   33.8780   29.4570   34.8660 N   0  0  0  0  0  0  0  0  0  0  0  0
   32.6910   29.7380   35.4080 C   0  0  0  0  0  0  0  0  0  0  0  0
   32.4370   29.4540   36.7080 N   0  0  0  0  0  0  0  0  0  0  0  0
   33.2020   28.6420   38.5300 H   0  0  0  0  0  0  0  0  0  0  0  0
   35.8300   28.6470   35.1680 H   0  0  0  0  0  0  0  0  0  0  0  0
   31.1090   28.2320   33.6910 F   0  0  0  0  0  0  0  0  0  0  0  0
   30.8700   29.5760   33.7430 C   0  0  0  0  0  0  0  0  0  0  0  0
   31.6500   30.3590   34.5980 C   0  0  0  0  0  0  0  0  0  0  0  0
   31.4710   31.7200   34.7040 C   0  0  0  0  0  0  0  0  0  0  0  0
   30.4670   32.2860   33.9170 C   0  0  0  0  0  0  0  0  0  0  0  0
   29.6700   31.5260   33.0520 C   0  0  0  0  0  0  0  0  0  0  0  0
   29.8800   30.1590   32.9700 C   0  0  0  0  0  0  0  0  0  0  0  0
   32.0690   32.3380   35.3640 H   0  0  0  0  0  0  0  0  0  0  0  0
   30.3580   33.3700   34.0330 H   0  0  0  0  0  0  0  0  0  0  0  0
   28.9230   32.0400   32.4840 H   0  0  0  0  0  0  0  0  0  0  0  0
   29.2750   29.5800   32.3140 H   0  0  0  0  0  0  0  0  0  0  0  0
  1  2  1  0  0  0  0
  1  4  1  0  0  0  0
  3  1  1  0  0  0  0
  4  5  1  0  0  0  0
  4  8  1  0  0  0  0
  5  6  1  0  0  0  0
  6  7  1  0  0  0  0
  6 12  1  0  0  0  0
  7 14  1  0  0  0  0
  7 13  1  0  0  0  0
  8 15  1  6  0  0  0
  8 17  1  0  0  0  0
  8  7  1  0  0  0  0
  9  5  1  0  0  0  0
 10  5  1  0  0  0  0
 11  6  1  0  0  0  0
 16 17  2  0  0  0  0
 16 23  1  0  0  0  0
 17 18  1  0  0  0  0
 18 19  1  0  0  0  0
 18 20  2  0  0  0  0
 20 21  1  0  0  0  0
 22 20  1  0  0  0  0
 23 22  2  0  0  0  0
 24 25  1  0  0  0  0
 25 26  2  0  0  0  0
 25 16  1  0  0  0  0
 27 25  2  0  0  0  0
 28 29  2  0  0  0  0
 29  1  1  0  0  0  0
 30 36  1  0  0  0  0
 31 30  1  0  0  0  0
 31 28  1  0  0  0  0
 32 31  2  0  0  0  0
 33 34  2  0  0  0  0
 33 32  1  0  0  0  0
 34 35  1  0  0  0  0
 35 30  2  0  0  0  0
 37 32  1  0  0  0  0
 38 39  1  0  0  0  0
 39 40  1  0  0  0  0
 40 41  2  0  0  0  0
 40 34  1  0  0  0  0
 41 45  1  0  0  0  0
 42 46  1  0  0  0  0
 42 41  1  0  0  0  0
 43 42  2  0  0  0  0
 44 43  1  0  0  0  0
 44 39  2  0  0  0  0
 47 43  1  0  0  0  0
 48 44  1  0  0  0  0
M  END
>  <minimizedAffinity>
-5.81446123

$$$$
