
     RDKit          3D

 26 27  0  0  0  0  0  0  0  0999 V2000
   47.6768   34.9551   42.3450 C   0  0  0  0  0  0  0  0  0  0  0  0
   47.9144   33.9169   43.2521 C   0  0  0  0  0  0  0  0  0  0  0  0
   46.9095   33.5313   44.1344 C   0  0  0  0  0  0  0  0  0  0  0  0
   45.7385   34.2006   44.0574 N   0  0  0  0  0  0  0  0  0  0  0  0
   45.5099   35.2084   43.1758 C   0  0  0  0  0  0  0  0  0  0  0  0
   46.4798   35.5827   42.3223 N   0  0  0  0  0  0  0  0  0  0  0  0
   48.7871   35.3260   41.4257 C   0  0  0  0  0  0  0  0  0  0  0  0
   48.4150   35.2479   40.1071 F   0  0  0  0  0  0  0  0  0  0  0  0
   49.2185   36.6107   41.7711 F   0  0  0  0  0  0  0  0  0  0  0  0
   49.8824   34.5051   41.6670 F   0  0  0  0  0  0  0  0  0  0  0  0
   48.8674   33.4363   43.2515 H   0  0  0  0  0  0  0  0  0  0  0  0
   44.5678   35.7332   43.1274 H   0  0  0  0  0  0  0  0  0  0  0  0
   44.0661   32.1932   43.8895 H   0  0  0  0  0  0  0  0  0  0  0  0
   44.9797   31.1784   43.8540 S   0  0  0  0  0  0  0  0  0  0  0  0
   44.1965   29.9267   44.2274 O   0  0  0  0  0  0  0  0  0  0  0  0
   45.5184   30.9221   42.4676 O   0  0  0  0  0  0  0  0  0  0  0  0
   46.2494   31.3528   45.0377 C   0  0  0  0  0  0  0  0  0  0  0  0
   47.0918   32.4589   45.1030 C   0  0  0  0  0  0  0  0  0  0  0  0
   48.0690   32.5076   46.0766 C   0  0  0  0  0  0  0  0  0  0  0  0
   48.7434   33.3279   46.1762 H   0  0  0  0  0  0  0  0  0  0  0  0
   48.2582   31.4965   47.0071 C   0  0  0  0  0  0  0  0  0  0  0  0
   49.0363   31.5482   47.7728 H   0  0  0  0  0  0  0  0  0  0  0  0
   47.4462   30.3853   46.9767 C   0  0  0  0  0  0  0  0  0  0  0  0
   46.4811   30.3627   45.9967 C   0  0  0  0  0  0  0  0  0  0  0  0
   47.5237   29.5517   47.6629 H   0  0  0  0  0  0  0  0  0  0  0  0
   45.8295   29.4837   45.9632 H   0  0  0  0  0  0  0  0  0  0  0  0
  1  2  2  0
  2  3  1  0
  4  3  2  0
  5  4  1  0
  6  1  1  0
  6  5  2  0
  7 10  1  0
  7  9  1  0
  7  1  1  0
  8  7  1  0
  2 11  1  0
  5 12  1  0
 13 14  1  0
 14 15  2  0
 14 16  2  0
 14 17  1  0
 17 18  2  0
 18 19  1  0
 19 20  1  0
 19 21  2  0
 21 22  1  0
 21 23  1  0
 23 24  2  0
 24 17  1  0
 23 25  1  0
 24 26  1  0
  3 18  1  0
M  ISO  5  11  14  12  14  13  12  20  15  22  16
M  END
>  <DihAtoms>  (1) 
1,2,17,16

>  <DihDeg>  (1) 
179.95139450992335

$$$$
