REMARK  Name = 
REMARK  11 active torsions:
REMARK  status: ('A' for Active; 'I' for Inactive)
REMARK    1  A    between atoms: C_1  and  O_12
REMARK    2  A    between atoms: C_2  and  C_3
REMARK    3  A    between atoms: C_3  and  O_4
REMARK    4  A    between atoms: O_4  and  P_6
REMARK    5  A    between atoms: P_6  and  O_7
REMARK    6  A    between atoms: P_6  and  O_8
REMARK    7  A    between atoms: O_8  and  C_9
REMARK    8  A    between atoms: O_12  and  C_13
REMARK    9  A    between atoms: C_13  and  C_15
REMARK   10  A    between atoms: C_18  and  C_39
REMARK   11  A    between atoms: S_35  and  C_38
REMARK                            x       y       z     vdW  Elec       q    Type
REMARK                         _______ _______ _______ _____ _____    ______ ____
ROOT
ATOM      1  C   UNL     1      41.444  35.646  41.207  0.00  0.00    +0.000 C 
ATOM      2  H   UNL     1      41.392  35.696  42.309  0.00  0.00    +0.000 HD
ATOM      3  H   UNL     1      41.094  36.656  40.846  0.00  0.00    +0.000 HD
ENDROOT
BRANCH   1   5
ATOM      4  C   UNL     1      40.279  33.547  41.595  0.00  0.00    +0.000 A 
ATOM      5  C   UNL     1      40.314  34.730  40.840  0.00  0.00    +0.000 A 
ATOM      6  C   UNL     1      39.361  34.933  39.906  0.00  0.00    +0.000 A 
ATOM      7  N   UNL     1      38.448  33.978  39.773  0.00  0.00    +0.000 NA
ATOM      8  C   UNL     1      38.389  32.858  40.467  0.00  0.00    +0.000 A 
ATOM      9  N   UNL     1      39.352  32.597  41.447  0.00  0.00    +0.000 NA
ATOM     10  H   UNL     1      41.012  33.323  42.358  0.00  0.00    +0.000 HD
ATOM     11  H   UNL     1      39.424  35.840  39.356  0.00  0.00    +0.000 HD
BRANCH   8  13
ATOM     12  C   UNL     1      37.623  30.832  39.367  0.00  0.00    +0.000 A 
ATOM     13  C   UNL     1      37.363  31.834  40.286  0.00  0.00    +0.000 A 
ATOM     14  C   UNL     1      36.172  31.843  40.992  0.00  0.00    +0.000 A 
ATOM     15  H   UNL     1      35.995  32.648  41.711  0.00  0.00    +0.000 HD
ATOM     16  C   UNL     1      35.192  30.885  40.834  0.00  0.00    +0.000 A 
ATOM     17  H   UNL     1      34.282  30.919  41.395  0.00  0.00    +0.000 HD
ATOM     18  C   UNL     1      35.410  29.866  39.928  0.00  0.00    +0.000 A 
ATOM     19  C   UNL     1      36.604  29.882  39.239  0.00  0.00    +0.000 A 
BRANCH  12  21
ATOM     20  H   UNL     1      40.222  30.686  39.210  0.00  0.00    +0.000 HD
ATOM     21  S   UNL     1      39.085  30.748  38.445  0.00  0.00    +0.000 S 
ATOM     22  O   UNL     1      39.064  29.435  37.676  0.00  0.00    +0.000 OA
ATOM     23  O   UNL     1      39.135  31.812  37.392  0.00  0.00    +0.000 OA
ENDBRANCH  12  21
ENDBRANCH   8  13
ENDBRANCH   1   5
BRANCH   1  24
ATOM     24  O   UNL     1      42.624  35.333  40.618  0.00  0.00    +0.000 OA
BRANCH  24  25
ATOM     25  C   UNL     1      43.873  35.237  41.206  0.00  0.00    +0.000 C 
ATOM     26  C   UNL     1      43.946  35.582  42.489  0.00  0.00    +0.000 C 
BRANCH  26  27
ATOM     27  C   UNL     1      45.231  35.539  43.306  0.00  0.00    +0.000 C 
ATOM     28  H   UNL     1      45.470  36.531  43.697  0.00  0.00    +0.000 HD
ATOM     29  H   UNL     1      46.060  35.215  42.644  0.00  0.00    +0.000 HD
BRANCH  27  30
ATOM     30  O   UNL     1      45.006  34.658  44.347  0.00  0.00    +0.000 OA
BRANCH  30  32
ATOM     31  O   UNL     1      45.700  32.500  42.950  0.00  0.00    +0.000 OA
ATOM     32  P   UNL     1      46.000  33.303  44.195  0.00  0.00    +0.000 P 
BRANCH  32  33
ATOM     33  O   UNL     1      47.632  33.789  44.096  0.00  0.00    +0.000 OA
ATOM     34  H   UNL     1      47.783  34.398  44.849  0.00  0.00    +0.000 HD
ENDBRANCH  32  33
BRANCH  32  35
ATOM     35  O   UNL     1      45.861  32.324  45.561  0.00  0.00    +0.000 OA
BRANCH  35  36
ATOM     36  C   UNL     1      46.203  32.989  46.723  0.00  0.00    +0.000 C 
ATOM     37  C   UNL     1      47.059  32.302  47.738  0.00  0.00    +0.000 C 
ATOM     38  C   UNL     1      45.567  32.443  47.980  0.00  0.00    +0.000 C 
ATOM     39  H   UNL     1      46.352  34.078  46.592  0.00  0.00    +0.000 HD
ATOM     40  H   UNL     1      47.488  31.318  47.553  0.00  0.00    +0.000 HD
ATOM     41  H   UNL     1      47.667  32.974  48.376  0.00  0.00    +0.000 HD
ATOM     42  H   UNL     1      45.216  33.238  48.697  0.00  0.00    +0.000 HD
ATOM     43  H   UNL     1      45.019  31.499  47.948  0.00  0.00    +0.000 HD
ENDBRANCH  35  36
ENDBRANCH  32  35
ENDBRANCH  30  32
ENDBRANCH  27  30
ENDBRANCH  26  27
ENDBRANCH  24  25
ENDBRANCH   1  24
TORSDOF 11
