
 OpenBabel03252506423D

 43 46  0  0  1  0  0  0  0  0999 V2000
   49.3580   32.9560   41.6020 N   0  0  1  0  0  0  0  0  0  0  0  0
   50.7510   33.0110   41.9220 C   0  0  0  0  0  0  0  0  0  0  0  0
   51.5160   31.7600   41.7010 C   0  0  0  0  0  0  0  0  0  0  0  0
   50.9920   30.6720   42.5880 C   0  0  0  0  0  0  0  0  0  0  0  0
   49.5250   30.8220   42.7830 C   0  0  0  0  0  0  0  0  0  0  0  0
   48.8720   31.5910   41.7100 C   0  0  2  0  0  0  0  0  0  0  0  0
   50.8750   33.2710   43.0120 H   0  0  0  0  0  0  0  0  0  0  0  0
   51.2890   33.8190   41.3460 H   0  0  0  0  0  0  0  0  0  0  0  0
   51.7210   31.4560   40.6800 H   0  0  0  0  0  0  0  0  0  0  0  0
   52.5590   31.9830   42.1180 H   0  0  0  0  0  0  0  0  0  0  0  0
   51.2570   29.6560   42.1700 H   0  0  0  0  0  0  0  0  0  0  0  0
   51.4860   30.7060   43.5830 H   0  0  0  0  0  0  0  0  0  0  0  0
   49.1240   29.8310   42.9190 H   0  0  0  0  0  0  0  0  0  0  0  0
   49.3180   31.3690   43.7460 H   0  0  0  0  0  0  0  0  0  0  0  0
   47.8290   31.8050   42.1270 H   0  0  0  0  0  0  0  0  0  0  0  0
   47.9380   31.6980   39.4390 C   0  0  0  0  0  0  0  0  0  0  0  0
   48.6040   30.9480   40.4260 C   0  0  0  0  0  0  0  0  0  0  0  0
   48.9740   29.6410   40.0740 C   0  0  0  0  0  0  0  0  0  0  0  0
   49.4990   29.0390   40.8040 H   0  0  0  0  0  0  0  0  0  0  0  0
   48.7440   29.0460   38.8760 C   0  0  0  0  0  0  0  0  0  0  0  0
   49.0580   28.0310   38.6720 H   0  0  0  0  0  0  0  0  0  0  0  0
   48.0980   29.7570   37.9020 C   0  0  0  0  0  3  0  0  0  0  0  0
   47.7200   31.0470   38.2130 C   0  0  0  0  0  3  0  0  0  0  0  0
   47.3260   33.7470   40.9340 H   0  0  0  0  0  0  0  0  0  0  0  0
   47.3780   33.3110   39.6100 S   0  0  0  0  0  0  0  0  0  0  0  0
   47.9500   34.3310   38.7110 O   0  0  0  0  0  0  0  0  0  0  0  0
   45.8870   33.3480   39.2450 O   0  0  0  0  0  0  0  0  0  0  0  0
   47.4100   34.5720   42.0600 C   0  0  1  0  0  0  0  0  0  0  0  0
   48.6630   35.2930   41.9850 C   0  0  0  0  0  0  0  0  0  0  0  0
   48.7020   33.8850   42.4830 C   0  0  2  0  0  0  0  0  0  0  0  0
   46.9660   34.0750   41.1600 H   0  0  0  0  0  0  0  0  0  0  0  0
   48.8170   36.1110   42.7420 H   0  0  0  0  0  0  0  0  0  0  0  0
   49.1440   35.5530   41.0320 H   0  0  0  0  0  0  0  0  0  0  0  0
   48.8570   33.7230   43.5630 H   0  0  0  0  0  0  0  0  0  0  0  0
   45.6220   36.0410   43.0680 C   0  0  0  0  0  0  0  0  0  0  0  0
   46.4090   34.8570   43.1180 C   0  0  0  0  0  0  0  0  0  0  0  0
   46.2020   34.0040   44.1860 C   0  0  0  0  0  0  0  0  0  0  0  0
   45.2640   34.3580   45.1030 N   0  0  0  0  0  0  0  0  0  0  0  0
   44.5310   35.4850   45.0320 C   0  0  0  0  0  0  0  0  0  0  0  0
   44.7050   36.3510   43.9980 N   0  0  0  0  0  0  0  0  0  0  0  0
   45.8320   36.6710   42.2040 H   0  0  0  0  0  0  0  0  0  0  0  0
   46.7710   33.0900   44.2780 H   0  0  0  0  0  0  0  0  0  0  0  0
   43.7960   35.7130   45.7940 H   0  0  0  0  0  0  0  0  0  0  0  0
  1  6  1  0  0  0  0
  1  2  1  1  0  0  0
  1 30  1  0  0  0  0
  2  7  1  0  0  0  0
  3  2  1  0  0  0  0
  3 10  1  0  0  0  0
  3  4  1  0  0  0  0
  4  5  1  0  0  0  0
  4 12  1  0  0  0  0
  5 13  1  0  0  0  0
  5 14  1  0  0  0  0
  6 15  1  1  0  0  0
  6  5  1  0  0  0  0
  8  2  1  0  0  0  0
  9  3  1  0  0  0  0
 11  4  1  0  0  0  0
 16 25  1  0  0  0  0
 16 17  1  0  0  0  0
 17  6  1  0  0  0  0
 18 17  2  0  0  0  0
 18 19  1  0  0  0  0
 20 18  1  0  0  0  0
 21 20  1  0  0  0  0
 22 23  1  0  0  0  0
 22 20  2  0  0  0  0
 23 16  2  0  0  0  0
 25 24  1  0  0  0  0
 26 25  2  0  0  0  0
 27 25  2  0  0  0  0
 28 31  1  6  0  0  0
 28 30  1  0  0  0  0
 28 36  1  0  0  0  0
 29 28  1  0  0  0  0
 29 30  1  0  0  0  0
 29 32  1  0  0  0  0
 30 34  1  1  0  0  0
 33 29  1  0  0  0  0
 35 36  2  0  0  0  0
 35 40  1  0  0  0  0
 36 37  1  0  0  0  0
 37 42  1  0  0  0  0
 37 38  2  0  0  0  0
 39 38  1  0  0  0  0
 39 43  1  0  0  0  0
 40 39  2  0  0  0  0
 41 35  1  0  0  0  0
M  END
>  <minimizedAffinity>
-4.77325344

>  <minimizedRMSD>
0.87592715

$$$$
