
     RDKit          3D

 32 34  0  0  0  0  0  0  0  0999 V2000
   44.6276   35.4624   45.1306 C   0  0  0  0  0  0  0  0  0  0  0  0
   45.0934   35.7124   43.8140 C   0  0  0  0  0  0  0  0  0  0  0  0
   46.0472   34.8161   43.3577 C   0  0  0  0  0  0  0  0  0  0  0  0
   46.4921   33.7719   44.1468 N   0  0  0  0  0  0  0  0  0  0  0  0
   46.0125   33.5917   45.3807 C   0  0  0  0  0  0  0  0  0  0  0  0
   45.0717   34.4432   45.8783 N   0  0  0  0  0  0  0  0  0  0  0  0
   46.5396   34.9786   41.9291 C   0  0  1  0  0  0  0  0  0  0  0  0
   48.0581   35.2767   41.9377 C   0  0  0  0  0  0  0  0  0  0  0  0
   47.3907   33.9770   41.3968 C   0  0  2  0  0  0  0  0  0  0  0  0
   44.6501   36.8110   43.0163 N   0  0  0  0  0  0  0  0  0  0  0  0
   43.8850   36.1345   45.5241 H   0  0  0  0  0  0  0  0  0  0  0  0
   46.4689   32.7339   45.8485 H   0  0  0  0  0  0  0  0  0  0  0  0
   45.9555   35.7006   41.3506 H   0  0  0  0  0  0  0  0  0  0  0  0
   48.3429   36.0281   41.2091 H   0  0  0  0  0  0  0  0  0  0  0  0
   48.6177   35.2220   42.8693 H   0  0  0  0  0  0  0  0  0  0  0  0
   47.6216   33.0969   42.0821 H   0  0  0  0  0  0  0  0  0  0  0  0
   45.3039   37.5924   43.2480 H   0  0  0  0  0  0  0  0  0  0  0  0
   43.8433   36.7494   42.3754 H   0  0  0  0  0  0  0  0  0  0  0  0
   49.7470   32.3973   41.4883 H   0  0  0  0  0  0  0  0  0  0  0  0
   49.4546   31.8003   40.2922 S   0  0  0  0  0  0  0  0  0  0  0  0
   50.8076   31.6438   39.6032 O   0  0  0  0  0  0  0  0  0  0  0  0
   48.8608   30.4591   40.5781 O   0  0  0  0  0  0  0  0  0  0  0  0
   48.4271   32.7871   39.3120 C   0  0  0  0  0  0  0  0  0  0  0  0
   47.6327   33.6702   39.9677 C   0  0  0  0  0  0  0  0  0  0  0  0
   46.8177   34.4848   39.1682 C   0  0  0  0  0  0  0  0  0  0  0  0
   46.1111   35.2559   39.5052 H   0  0  0  0  0  0  0  0  0  0  0  0
   46.8215   34.3934   37.7838 C   0  0  0  0  0  0  0  0  0  0  0  0
   46.2149   34.9958   37.1254 H   0  0  0  0  0  0  0  0  0  0  0  0
   47.6351   33.4913   37.1672 C   0  0  0  0  0  0  0  0  0  0  0  0
   48.4416   32.6847   37.9396 C   0  0  0  0  0  0  0  0  0  0  0  0
   47.7231   33.3303   36.1027 H   0  0  0  0  0  0  0  0  0  0  0  0
   49.1133   31.9458   37.5248 H   0  0  0  0  0  0  0  0  0  0  0  0
  1  6  2  0
  2  1  1  0
  3  2  2  0
  3  4  1  0
  4  5  2  0
  5  6  1  0
  7  3  1  0
  8  7  1  0
  9  8  1  0
  9  7  1  0
 10  2  1  0
  1 11  1  0
  5 12  1  0
  7 13  1  6
  8 14  1  0
  8 15  1  0
  9 16  1  1
 10 17  1  0
 10 18  1  0
 19 20  1  0
 20 21  2  0
 20 22  2  0
 20 23  1  0
 23 24  2  0
 24 25  1  0
 25 26  1  0
 25 27  2  0
 27 28  1  0
 27 29  1  0
 29 30  2  0
 30 23  1  0
 29 31  1  0
 30 32  1  0
  9 24  1  0
M  ISO  8  11  14  12  14  13  13  14  13  15  13  16  13  19  12  26  15
M  ISO  1  28  16
M  END
>  <DihAtoms>  (1) 
7,8,23,22

>  <DihDeg>  (1) 
-106.08923943840409

$$$$
