
     RDKit          3D

 47 50  0  0  0  0  0  0  0  0999 V2000
   43.9664   34.6402   42.3694 C   0  0  1  0  0  0  0  0  0  0  0  0
   44.1516   36.1272   41.9060 C   0  0  0  0  0  0  0  0  0  0  0  0
   44.0029   34.9351   40.9668 C   0  0  2  0  0  0  0  0  0  0  0  0
   45.1149   34.1132   43.1344 C   0  0  0  0  0  0  0  0  0  0  0  0
   46.3604   34.0622   42.4894 C   0  0  0  0  0  0  0  0  0  0  0  0
   47.4564   33.5727   43.1977 C   0  0  0  0  0  0  0  0  0  0  0  0
   47.2593   33.1706   44.4770 N   0  0  0  0  0  0  0  0  0  0  0  0
   46.0631   33.2316   45.0615 C   0  0  0  0  0  0  0  0  0  0  0  0
   45.0169   33.7036   44.3714 N   0  0  0  0  0  0  0  0  0  0  0  0
   46.0493   32.7444   46.4852 C   0  0  0  0  0  0  0  0  0  0  0  0
   45.0840   33.3992   47.2331 F   0  0  0  0  0  0  0  0  0  0  0  0
   47.2803   33.0717   47.0901 F   0  0  0  0  0  0  0  0  0  0  0  0
   45.9541   31.3804   46.5090 F   0  0  0  0  0  0  0  0  0  0  0  0
   42.6642   34.7895   40.2704 C   0  0  0  0  0  0  0  0  0  0  0  0
   42.5054   35.1948   38.9613 C   0  0  0  0  0  0  0  0  0  0  0  0
   41.3131   35.0616   38.2887 C   0  0  0  0  0  0  0  0  0  0  0  0
   40.2765   34.5126   38.9510 N   0  0  0  0  0  0  0  0  0  0  0  0
   40.4237   34.1083   40.2461 C   0  0  0  0  0  0  0  0  0  0  0  0
   41.5952   34.2429   40.8978 N   0  0  0  0  0  0  0  0  0  0  0  0
   39.3148   33.4876   41.0150 C   0  0  0  0  0  0  0  0  0  0  0  0
   38.3983   32.7116   40.1037 C   0  0  0  0  0  0  0  0  0  0  0  0
   42.9812   34.4673   42.8976 H   0  0  0  0  0  0  0  0  0  0  0  0
   43.2838   36.7747   42.0901 H   0  0  0  0  0  0  0  0  0  0  0  0
   45.1539   36.5500   42.0188 H   0  0  0  0  0  0  0  0  0  0  0  0
   44.8180   34.8242   40.2568 H   0  0  0  0  0  0  0  0  0  0  0  0
   46.4899   34.3944   41.4558 H   0  0  0  0  0  0  0  0  0  0  0  0
   48.4513   33.5079   42.7528 H   0  0  0  0  0  0  0  0  0  0  0  0
   43.3682   35.6295   38.4734 H   0  0  0  0  0  0  0  0  0  0  0  0
   41.2592   35.4009   37.2636 H   0  0  0  0  0  0  0  0  0  0  0  0
   38.7691   34.1916   41.6531 H   0  0  0  0  0  0  0  0  0  0  0  0
   39.7414   32.7232   41.7262 H   0  0  0  0  0  0  0  0  0  0  0  0
   39.0265   31.8978   39.6245 H   0  0  0  0  0  0  0  0  0  0  0  0
   38.0781   33.3522   39.2701 H   0  0  0  0  0  0  0  0  0  0  0  0
   37.7984   32.9419   44.4253 H   0  0  0  0  0  0  0  0  0  0  0  0
   38.4362   32.5642   43.2464 S   0  0  0  0  0  0  0  0  0  0  0  0
   39.4106   31.4845   43.6514 O   0  0  0  0  0  0  0  0  0  0  0  0
   39.1387   33.7957   42.7701 O   0  0  0  0  0  0  0  0  0  0  0  0
   37.2288   31.9666   42.1446 C   0  0  0  0  0  0  0  0  0  0  0  0
   37.2718   32.0694   40.7753 C   0  0  0  0  0  0  0  0  0  0  0  0
   36.2151   31.5371   40.0452 C   0  0  0  0  0  0  0  0  0  0  0  0
   36.2722   31.6316   38.9624 H   0  0  0  0  0  0  0  0  0  0  0  0
   35.1001   30.8996   40.5879 C   0  0  0  0  0  0  0  0  0  0  0  0
   34.3442   30.5269   39.9269 H   0  0  0  0  0  0  0  0  0  0  0  0
   35.0746   30.8049   41.9765 C   0  0  0  0  0  0  0  0  0  0  0  0
   36.1197   31.3307   42.7062 C   0  0  0  0  0  0  0  0  0  0  0  0
   34.2312   30.3198   42.4331 H   0  0  0  0  0  0  0  0  0  0  0  0
   36.0026   31.2050   43.7831 H   0  0  0  0  0  0  0  0  0  0  0  0
  1  4  1  0
  2  1  1  0
  3  2  1  0
  3  1  1  0
  4  9  1  0
  5  4  2  0
  5  6  1  0
  6  7  2  0
  7  8  1  0
  8 10  1  0
  9  8  2  0
 10 13  1  0
 10 12  1  0
 10 11  1  0
 14 19  1  0
 14  3  1  0
 15 14  2  0
 16 17  2  0
 16 15  1  0
 17 18  1  0
 18 19  2  0
 18 20  1  0
 21 20  1  0
  1 22  1  1
  2 23  1  0
  2 24  1  0
  3 25  1  6
  5 26  1  0
  6 27  1  0
 15 28  1  0
 16 29  1  0
 20 30  1  0
 20 31  1  0
 21 32  1  0
 21 33  1  0
 34 35  1  0
 35 36  2  0
 35 37  2  0
 35 38  1  0
 38 39  2  0
 39 40  1  0
 40 41  1  0
 40 42  2  0
 42 43  1  0
 42 44  1  0
 44 45  2  0
 45 38  1  0
 44 46  1  0
 45 47  1  0
 21 39  1  0
M  ISO  8  22  13  23  13  24  13  25  13  26  14  27  14  28  14  29  14
M  ISO  7  30   8  31   8  32   8  33   8  34  12  41  15  43  16
M  END
>  <DihAtoms>  (1) 
19,20,38,37

>  <DihDeg>  (1) 
77.43719766084256

$$$$
