
 OpenBabel03242512033D

 50 53  0  0  1  0  0  0  0  0999 V2000
   39.2350   26.0740   41.3690 C   0  0  2  0  0  0  0  0  0  0  0  0
   40.4240   25.1620   41.4080 C   0  0  0  0  0  0  0  0  0  0  0  0
   40.8070   24.7870   42.7850 C   0  0  0  0  0  0  0  0  0  0  0  0
   41.0510   25.9890   43.6800 C   0  0  0  0  0  0  0  0  0  0  0  0
   40.0790   27.1080   43.4570 C   0  0  0  0  0  0  0  0  0  0  0  0
   38.8620   26.6870   42.6670 C   0  0  1  0  0  0  0  0  0  0  0  0
   39.5320   26.9080   40.6620 H   0  0  0  0  0  0  0  0  0  0  0  0
   40.1460   24.2410   40.8600 H   0  0  0  0  0  0  0  0  0  0  0  0
   41.3080   25.5730   40.8810 H   0  0  0  0  0  0  0  0  0  0  0  0
   40.0730   24.0860   43.2160 H   0  0  0  0  0  0  0  0  0  0  0  0
   41.7840   24.2470   42.7500 H   0  0  0  0  0  0  0  0  0  0  0  0
   42.1000   26.3430   43.5250 H   0  0  0  0  0  0  0  0  0  0  0  0
   41.0010   25.6120   44.7230 H   0  0  0  0  0  0  0  0  0  0  0  0
   39.7280   27.4510   44.4400 H   0  0  0  0  0  0  0  0  0  0  0  0
   40.5810   27.9520   42.9500 H   0  0  0  0  0  0  0  0  0  0  0  0
   38.2640   26.0760   43.3570 H   0  0  0  0  0  0  0  0  0  0  0  0
   38.0560   25.4520   40.7350 C   0  0  0  0  0  0  0  0  0  0  0  0
   37.7840   25.9550   39.4750 C   0  0  0  0  0  0  0  0  0  0  0  0
   36.6910   25.4530   38.7480 C   0  0  0  0  0  0  0  0  0  0  0  0
   35.9480   24.4520   39.3870 N   0  0  0  0  0  0  0  0  0  0  0  0
   36.2570   23.9970   40.6190 C   0  0  0  0  0  0  0  0  0  0  0  0
   37.3110   24.5060   41.2790 N   0  0  0  0  0  0  0  0  0  0  0  0
   38.2150   26.7070   38.8320 H   0  0  0  0  0  0  0  0  0  0  0  0
   36.3370   25.7230   37.7670 H   0  0  0  0  0  0  0  0  0  0  0  0
   35.6450   23.2300   41.0480 H   0  0  0  0  0  0  0  0  0  0  0  0
   38.0510   27.9230   42.3850 C   0  0  2  0  0  0  0  0  0  0  0  0
   37.3270   28.5690   43.5490 C   0  0  0  0  0  0  0  0  0  0  0  0
   36.5640   27.8840   42.4840 C   0  0  1  0  0  0  0  0  0  0  0  0
   38.5590   28.6600   41.7290 H   0  0  0  0  0  0  0  0  0  0  0  0
   37.3240   28.1000   44.5420 H   0  0  0  0  0  0  0  0  0  0  0  0
   37.2490   29.6770   43.5820 H   0  0  0  0  0  0  0  0  0  0  0  0
   36.1700   26.8610   42.6690 H   0  0  0  0  0  0  0  0  0  0  0  0
   35.8920   28.6090   41.3640 C   0  0  0  0  0  0  0  0  0  0  0  0
   34.8160   28.7450   41.6650 H   0  0  0  0  0  0  0  0  0  0  0  0
   35.8740   27.9490   40.4760 H   0  0  0  0  0  0  0  0  0  0  0  0
   36.4360   29.9740   41.0880 C   0  0  0  0  0  0  0  0  0  0  0  0
   37.4220   30.0690   41.6380 H   0  0  0  0  0  0  0  0  0  0  0  0
   35.7880   30.7150   41.5970 H   0  0  0  0  0  0  0  0  0  0  0  0
   37.4170   31.3950   39.3130 C   0  0  0  0  0  0  0  0  0  0  0  0
   36.7400   30.2550   39.6870 C   0  0  0  0  0  0  0  0  0  0  0  0
   36.3720   29.4010   38.6410 C   0  0  0  0  0  0  0  0  0  0  0  0
   35.8390   28.5090   38.9560 H   0  0  0  0  0  0  0  0  0  0  0  0
   36.6470   29.6390   37.2920 C   0  0  0  0  0  0  0  0  0  0  0  0
   36.2980   28.8880   36.6070 H   0  0  0  0  0  0  0  0  0  0  0  0
   37.3240   30.7880   36.9720 C   0  0  0  0  0  3  0  0  0  0  0  0
   37.7020   31.6530   37.9790 C   0  0  0  0  0  3  0  0  0  0  0  0
   37.2480   32.5670   41.5970 H   0  0  0  0  0  0  0  0  0  0  0  0
   37.9770   32.6050   40.4230 S   0  0  0  0  0  0  0  0  0  0  0  0
   39.3820   32.1940   40.8460 O   0  0  0  0  0  0  0  0  0  0  0  0
   37.9040   33.9960   39.9290 O   0  0  0  0  0  0  0  0  0  0  0  0
  1  7  1  6  0  0  0
  1  2  1  0  0  0  0
  1  6  1  0  0  0  0
  2  3  1  0  0  0  0
  3 10  1  0  0  0  0
  3  4  1  0  0  0  0
  4 13  1  0  0  0  0
  5  4  1  0  0  0  0
  5 14  1  0  0  0  0
  6 16  1  1  0  0  0
  6  5  1  0  0  0  0
  8  2  1  0  0  0  0
  9  2  1  0  0  0  0
 11  3  1  0  0  0  0
 12  4  1  0  0  0  0
 15  5  1  0  0  0  0
 17 22  1  0  0  0  0
 17  1  1  0  0  0  0
 18 17  2  0  0  0  0
 19 20  2  0  0  0  0
 19 18  1  0  0  0  0
 20 21  1  0  0  0  0
 21 25  1  0  0  0  0
 21 22  2  0  0  0  0
 23 18  1  0  0  0  0
 24 19  1  0  0  0  0
 26 29  1  6  0  0  0
 26 28  1  0  0  0  0
 26  6  1  0  0  0  0
 26 27  1  0  0  0  0
 27 31  1  0  0  0  0
 27 30  1  0  0  0  0
 28 32  1  1  0  0  0
 28 27  1  0  0  0  0
 33 34  1  0  0  0  0
 33 28  1  0  0  0  0
 35 33  1  0  0  0  0
 36 33  1  0  0  0  0
 36 38  1  0  0  0  0
 36 37  1  0  0  0  0
 39 40  1  0  0  0  0
 39 48  1  0  0  0  0
 40 36  1  0  0  0  0
 41 42  1  0  0  0  0
 41 40  2  0  0  0  0
 43 41  1  0  0  0  0
 44 43  1  0  0  0  0
 45 43  2  0  0  0  0
 45 46  1  0  0  0  0
 46 39  2  0  0  0  0
 48 49  2  0  0  0  0
 48 47  1  0  0  0  0
 50 48  2  0  0  0  0
M  END
>  <minimizedAffinity>
-5.88879967

$$$$

 OpenBabel03242512033D

 50 53  0  0  1  0  0  0  0  0999 V2000
   39.0700   26.9980   42.8500 C   0  0  2  0  0  0  0  0  0  0  0  0
   40.1900   26.4440   43.6790 C   0  0  0  0  0  0  0  0  0  0  0  0
   40.7450   25.1930   43.1210 C   0  0  0  0  0  0  0  0  0  0  0  0
   39.6880   24.1240   42.9030 C   0  0  0  0  0  0  0  0  0  0  0  0
   38.3920   24.6620   42.3770 C   0  0  0  0  0  0  0  0  0  0  0  0
   38.5080   26.0690   41.8390 C   0  0  1  0  0  0  0  0  0  0  0  0
   38.2520   27.2410   43.5930 H   0  0  0  0  0  0  0  0  0  0  0  0
   40.9930   27.2070   43.6910 H   0  0  0  0  0  0  0  0  0  0  0  0
   39.9110   26.2820   44.7390 H   0  0  0  0  0  0  0  0  0  0  0  0
   41.3280   25.3980   42.2090 H   0  0  0  0  0  0  0  0  0  0  0  0
   41.4540   24.7540   43.8640 H   0  0  0  0  0  0  0  0  0  0  0  0
   39.5280   23.5800   43.8660 H   0  0  0  0  0  0  0  0  0  0  0  0
   40.1350   23.3890   42.2010 H   0  0  0  0  0  0  0  0  0  0  0  0
   38.0720   24.0190   41.5450 H   0  0  0  0  0  0  0  0  0  0  0  0
   37.6180   24.6250   43.1660 H   0  0  0  0  0  0  0  0  0  0  0  0
   39.0510   25.9730   40.8890 H   0  0  0  0  0  0  0  0  0  0  0  0
   39.4040   28.2950   42.2280 C   0  0  0  0  0  0  0  0  0  0  0  0
   38.9100   29.3800   42.9290 C   0  0  0  0  0  0  0  0  0  0  0  0
   39.1540   30.6810   42.4570 C   0  0  0  0  0  0  0  0  0  0  0  0
   39.9020   30.7650   41.2770 N   0  0  0  0  0  0  0  0  0  0  0  0
   40.3610   29.6730   40.6310 C   0  0  0  0  0  0  0  0  0  0  0  0
   40.1030   28.4470   41.1180 N   0  0  0  0  0  0  0  0  0  0  0  0
   38.3230   29.5210   43.8240 H   0  0  0  0  0  0  0  0  0  0  0  0
   38.8510   31.6290   42.8700 H   0  0  0  0  0  0  0  0  0  0  0  0
   40.9270   29.8110   39.7320 H   0  0  0  0  0  0  0  0  0  0  0  0
   37.1230   26.5400   41.4900 C   0  0  2  0  0  0  0  0  0  0  0  0
   36.6230   26.2700   40.0850 C   0  0  0  0  0  0  0  0  0  0  0  0
   36.9320   27.6500   40.5130 C   0  0  1  0  0  0  0  0  0  0  0  0
   36.3600   26.3280   42.2680 H   0  0  0  0  0  0  0  0  0  0  0  0
   37.2820   25.8260   39.3270 H   0  0  0  0  0  0  0  0  0  0  0  0
   35.5490   26.0240   39.9370 H   0  0  0  0  0  0  0  0  0  0  0  0
   37.8900   28.1170   40.1970 H   0  0  0  0  0  0  0  0  0  0  0  0
   35.8870   28.6260   40.9460 C   0  0  0  0  0  0  0  0  0  0  0  0
   36.4050   29.3930   41.5850 H   0  0  0  0  0  0  0  0  0  0  0  0
   35.1740   28.1080   41.6160 H   0  0  0  0  0  0  0  0  0  0  0  0
   35.2280   29.3720   39.8290 C   0  0  0  0  0  0  0  0  0  0  0  0
   34.5250   30.1310   40.2910 H   0  0  0  0  0  0  0  0  0  0  0  0
   34.5430   28.6770   39.3050 H   0  0  0  0  0  0  0  0  0  0  0  0
   36.3270   29.8030   37.6530 C   0  0  0  0  0  0  0  0  0  0  0  0
   36.1290   30.1400   38.9740 C   0  0  0  0  0  0  0  0  0  0  0  0
   36.8440   31.2560   39.4260 C   0  0  0  0  0  0  0  0  0  0  0  0
   36.6730   31.5050   40.4690 H   0  0  0  0  0  0  0  0  0  0  0  0
   37.7120   32.0120   38.6350 C   0  0  0  0  0  0  0  0  0  0  0  0
   38.1870   32.8400   39.1280 H   0  0  0  0  0  0  0  0  0  0  0  0
   37.8740   31.6350   37.3260 C   0  0  0  0  0  3  0  0  0  0  0  0
   37.1850   30.5390   36.8470 C   0  0  0  0  0  3  0  0  0  0  0  0
   35.4000   27.4040   37.7350 H   0  0  0  0  0  0  0  0  0  0  0  0
   35.5570   28.4640   36.8620 S   0  0  0  0  0  0  0  0  0  0  0  0
   34.1310   28.9020   36.5500 O   0  0  0  0  0  0  0  0  0  0  0  0
   36.2720   27.9330   35.6820 O   0  0  0  0  0  0  0  0  0  0  0  0
  1  7  1  1  0  0  0
  1  2  1  0  0  0  0
  2  8  1  0  0  0  0
  2  9  1  0  0  0  0
  3  2  1  0  0  0  0
  3 11  1  0  0  0  0
  4  3  1  0  0  0  0
  4 12  1  0  0  0  0
  5  4  1  0  0  0  0
  5 15  1  0  0  0  0
  6 16  1  6  0  0  0
  6  5  1  0  0  0  0
  6  1  1  0  0  0  0
 10  3  1  0  0  0  0
 13  4  1  0  0  0  0
 14  5  1  0  0  0  0
 17  1  1  0  0  0  0
 17 18  1  0  0  0  0
 18 23  1  0  0  0  0
 19 24  1  0  0  0  0
 19 18  2  0  0  0  0
 20 19  1  0  0  0  0
 21 22  1  0  0  0  0
 21 20  2  0  0  0  0
 22 17  2  0  0  0  0
 25 21  1  0  0  0  0
 26  6  1  0  0  0  0
 26 29  1  1  0  0  0
 27 28  1  0  0  0  0
 27 26  1  0  0  0  0
 28 32  1  6  0  0  0
 28 33  1  0  0  0  0
 28 26  1  0  0  0  0
 30 27  1  0  0  0  0
 31 27  1  0  0  0  0
 33 34  1  0  0  0  0
 33 35  1  0  0  0  0
 36 37  1  0  0  0  0
 36 33  1  0  0  0  0
 38 36  1  0  0  0  0
 39 40  1  0  0  0  0
 40 41  2  0  0  0  0
 40 36  1  0  0  0  0
 41 42  1  0  0  0  0
 43 44  1  0  0  0  0
 43 41  1  0  0  0  0
 45 43  2  0  0  0  0
 46 45  1  0  0  0  0
 46 39  2  0  0  0  0
 48 39  1  0  0  0  0
 48 47  1  0  0  0  0
 49 48  2  0  0  0  0
 50 48  2  0  0  0  0
M  END
>  <minimizedAffinity>
-5.8636117

$$$$

 OpenBabel03242512033D

 50 53  0  0  1  0  0  0  0  0999 V2000
   37.5590   26.4060   40.2290 C   0  0  2  0  0  0  0  0  0  0  0  0
   37.0790   25.1750   39.5200 C   0  0  0  0  0  0  0  0  0  0  0  0
   36.4670   24.1930   40.4380 C   0  0  0  0  0  0  0  0  0  0  0  0
   37.3850   23.8020   41.5830 C   0  0  0  0  0  0  0  0  0  0  0  0
   38.1700   24.9510   42.1390 C   0  0  0  0  0  0  0  0  0  0  0  0
   37.6390   26.2970   41.7060 C   0  0  1  0  0  0  0  0  0  0  0  0
   38.6060   26.5780   39.8350 H   0  0  0  0  0  0  0  0  0  0  0  0
   36.3100   25.4990   38.7910 H   0  0  0  0  0  0  0  0  0  0  0  0
   37.8700   24.6780   38.9230 H   0  0  0  0  0  0  0  0  0  0  0  0
   35.4850   24.5480   40.7900 H   0  0  0  0  0  0  0  0  0  0  0  0
   36.2820   23.2450   39.8760 H   0  0  0  0  0  0  0  0  0  0  0  0
   38.0690   22.9910   41.2310 H   0  0  0  0  0  0  0  0  0  0  0  0
   36.7330   23.3450   42.3570 H   0  0  0  0  0  0  0  0  0  0  0  0
   38.1000   24.9080   43.2350 H   0  0  0  0  0  0  0  0  0  0  0  0
   39.2340   24.8570   41.8530 H   0  0  0  0  0  0  0  0  0  0  0  0
   36.7070   26.4370   42.2710 H   0  0  0  0  0  0  0  0  0  0  0  0
   36.8110   27.6190   39.8420 C   0  0  0  0  0  0  0  0  0  0  0  0
   37.2580   28.1810   38.6590 C   0  0  0  0  0  0  0  0  0  0  0  0
   36.6370   29.3400   38.1630 C   0  0  0  0  0  0  0  0  0  0  0  0
   35.5840   29.8400   38.9380 N   0  0  0  0  0  0  0  0  0  0  0  0
   35.1880   29.2530   40.0870 C   0  0  0  0  0  0  0  0  0  0  0  0
   35.8110   28.1450   40.5240 N   0  0  0  0  0  0  0  0  0  0  0  0
   38.0340   27.9600   37.9420 H   0  0  0  0  0  0  0  0  0  0  0  0
   36.8500   29.9050   37.2700 H   0  0  0  0  0  0  0  0  0  0  0  0
   34.3750   29.6900   40.6300 H   0  0  0  0  0  0  0  0  0  0  0  0
   38.5970   27.3460   42.2010 C   0  0  2  0  0  0  0  0  0  0  0  0
   39.0600   27.2520   43.6410 C   0  0  0  0  0  0  0  0  0  0  0  0
   38.1570   28.3430   43.2190 C   0  0  1  0  0  0  0  0  0  0  0  0
   39.4220   27.5780   41.4970 H   0  0  0  0  0  0  0  0  0  0  0  0
   38.6410   26.4960   44.3200 H   0  0  0  0  0  0  0  0  0  0  0  0
   40.1050   27.5380   43.8870 H   0  0  0  0  0  0  0  0  0  0  0  0
   37.0730   28.2740   43.4510 H   0  0  0  0  0  0  0  0  0  0  0  0
   38.6330   29.7260   42.9150 C   0  0  0  0  0  0  0  0  0  0  0  0
   39.5350   29.9090   43.5620 H   0  0  0  0  0  0  0  0  0  0  0  0
   37.8670   30.4480   43.2560 H   0  0  0  0  0  0  0  0  0  0  0  0
   39.0710   29.9390   41.5000 C   0  0  0  0  0  0  0  0  0  0  0  0
   38.3730   29.3470   40.8320 H   0  0  0  0  0  0  0  0  0  0  0  0
   40.0470   29.4340   41.3600 H   0  0  0  0  0  0  0  0  0  0  0  0
   40.1120   32.1250   40.9820 C   0  0  0  0  0  0  0  0  0  0  0  0
   38.9960   31.3170   41.0230 C   0  0  0  0  0  0  0  0  0  0  0  0
   37.8070   31.9080   40.5800 C   0  0  0  0  0  0  0  0  0  0  0  0
   36.9400   31.2550   40.6210 H   0  0  0  0  0  0  0  0  0  0  0  0
   37.7000   33.2210   40.1180 C   0  0  0  0  0  0  0  0  0  0  0  0
   36.7160   33.5280   39.8130 H   0  0  0  0  0  0  0  0  0  0  0  0
   38.8400   33.9840   40.0960 C   0  0  0  0  0  3  0  0  0  0  0  0
   40.0310   33.4340   40.5260 C   0  0  0  0  0  3  0  0  0  0  0  0
   42.0090   30.3880   40.9410 H   0  0  0  0  0  0  0  0  0  0  0  0
   41.6970   31.6240   41.4760 S   0  0  0  0  0  0  0  0  0  0  0  0
   42.6840   32.5750   40.8100 O   0  0  0  0  0  0  0  0  0  0  0  0
   41.8960   31.5100   42.9360 O   0  0  0  0  0  0  0  0  0  0  0  0
  1  7  1  6  0  0  0
  1  6  1  0  0  0  0
  2  1  1  0  0  0  0
  2  3  1  0  0  0  0
  3 10  1  0  0  0  0
  3  4  1  0  0  0  0
  4  5  1  0  0  0  0
  4 13  1  0  0  0  0
  5 14  1  0  0  0  0
  6  5  1  0  0  0  0
  6 26  1  0  0  0  0
  6 16  1  1  0  0  0
  8  2  1  0  0  0  0
  9  2  1  0  0  0  0
 11  3  1  0  0  0  0
 12  4  1  0  0  0  0
 15  5  1  0  0  0  0
 17  1  1  0  0  0  0
 17 22  1  0  0  0  0
 18 17  2  0  0  0  0
 19 18  1  0  0  0  0
 19 20  2  0  0  0  0
 20 21  1  0  0  0  0
 21 22  2  0  0  0  0
 21 25  1  0  0  0  0
 23 18  1  0  0  0  0
 24 19  1  0  0  0  0
 26 29  1  6  0  0  0
 26 28  1  0  0  0  0
 26 27  1  0  0  0  0
 27 31  1  0  0  0  0
 27 30  1  0  0  0  0
 28 32  1  1  0  0  0
 28 27  1  0  0  0  0
 33 28  1  0  0  0  0
 33 35  1  0  0  0  0
 33 34  1  0  0  0  0
 36 33  1  0  0  0  0
 37 36  1  0  0  0  0
 38 36  1  0  0  0  0
 39 40  1  0  0  0  0
 39 48  1  0  0  0  0
 40 36  1  0  0  0  0
 41 42  1  0  0  0  0
 41 40  2  0  0  0  0
 43 41  1  0  0  0  0
 44 43  1  0  0  0  0
 45 43  2  0  0  0  0
 45 46  1  0  0  0  0
 46 39  2  0  0  0  0
 47 48  1  0  0  0  0
 48 50  2  0  0  0  0
 49 48  2  0  0  0  0
M  END
>  <minimizedAffinity>
-5.67811632

$$$$

 OpenBabel03242512033D

 50 53  0  0  1  0  0  0  0  0999 V2000
   39.5220   26.2090   41.4360 C   0  0  2  0  0  0  0  0  0  0  0  0
   40.7830   25.3970   41.4580 C   0  0  0  0  0  0  0  0  0  0  0  0
   41.2420   25.0980   42.8300 C   0  0  0  0  0  0  0  0  0  0  0  0
   41.4190   26.3440   43.6800 C   0  0  0  0  0  0  0  0  0  0  0  0
   40.3520   27.3740   43.4610 C   0  0  0  0  0  0  0  0  0  0  0  0
   39.1460   26.8320   42.7290 C   0  0  1  0  0  0  0  0  0  0  0  0
   39.7260   27.0410   40.6960 H   0  0  0  0  0  0  0  0  0  0  0  0
   40.5610   24.4400   40.9480 H   0  0  0  0  0  0  0  0  0  0  0  0
   41.6110   25.8600   40.8860 H   0  0  0  0  0  0  0  0  0  0  0  0
   40.5830   24.3550   43.3080 H   0  0  0  0  0  0  0  0  0  0  0  0
   42.2580   24.6370   42.7740 H   0  0  0  0  0  0  0  0  0  0  0  0
   42.4290   26.7750   43.4750 H   0  0  0  0  0  0  0  0  0  0  0  0
   41.4360   25.9980   44.7340 H   0  0  0  0  0  0  0  0  0  0  0  0
   40.0080   27.7190   44.4460 H   0  0  0  0  0  0  0  0  0  0  0  0
   40.7660   28.2390   42.9120 H   0  0  0  0  0  0  0  0  0  0  0  0
   38.6240   26.1970   43.4590 H   0  0  0  0  0  0  0  0  0  0  0  0
   38.3760   25.4750   40.8650 C   0  0  0  0  0  0  0  0  0  0  0  0
   38.2050   25.6980   39.5110 C   0  0  0  0  0  0  0  0  0  0  0  0
   37.1540   25.0600   38.8290 C   0  0  0  0  0  0  0  0  0  0  0  0
   36.3460   24.2260   39.6110 N   0  0  0  0  0  0  0  0  0  0  0  0
   36.5560   24.0430   40.9310 C   0  0  0  0  0  0  0  0  0  0  0  0
   37.5740   24.6740   41.5430 N   0  0  0  0  0  0  0  0  0  0  0  0
   38.6980   26.2910   38.7560 H   0  0  0  0  0  0  0  0  0  0  0  0
   36.8760   25.1160   37.7900 H   0  0  0  0  0  0  0  0  0  0  0  0
   35.8980   23.3910   41.4680 H   0  0  0  0  0  0  0  0  0  0  0  0
   38.2290   27.9890   42.4420 C   0  0  2  0  0  0  0  0  0  0  0  0
   37.4360   28.5620   43.6000 C   0  0  0  0  0  0  0  0  0  0  0  0
   36.7500   27.8140   42.5260 C   0  0  1  0  0  0  0  0  0  0  0  0
   38.6730   28.7720   41.7930 H   0  0  0  0  0  0  0  0  0  0  0  0
   37.4660   28.0910   44.5920 H   0  0  0  0  0  0  0  0  0  0  0  0
   37.2560   29.6580   43.6350 H   0  0  0  0  0  0  0  0  0  0  0  0
   36.4500   26.7580   42.7030 H   0  0  0  0  0  0  0  0  0  0  0  0
   36.0260   28.4770   41.4000 C   0  0  0  0  0  0  0  0  0  0  0  0
   35.7170   29.4940   41.7690 H   0  0  0  0  0  0  0  0  0  0  0  0
   35.0850   27.9270   41.2110 H   0  0  0  0  0  0  0  0  0  0  0  0
   36.8500   28.6990   40.1710 C   0  0  0  0  0  0  0  0  0  0  0  0
   36.3090   28.2130   39.3030 H   0  0  0  0  0  0  0  0  0  0  0  0
   37.7770   28.0980   40.2630 H   0  0  0  0  0  0  0  0  0  0  0  0
   37.1430   30.4670   38.4640 C   0  0  0  0  0  0  0  0  0  0  0  0
   37.0360   30.0950   39.7860 C   0  0  0  0  0  0  0  0  0  0  0  0
   37.1170   31.1390   40.7150 C   0  0  0  0  0  0  0  0  0  0  0  0
   37.0310   30.8250   41.7510 H   0  0  0  0  0  0  0  0  0  0  0  0
   37.2940   32.4830   40.3810 C   0  0  0  0  0  0  0  0  0  0  0  0
   37.3370   33.1660   41.2090 H   0  0  0  0  0  0  0  0  0  0  0  0
   37.3940   32.8020   39.0500 C   0  0  0  0  0  3  0  0  0  0  0  0
   37.3180   31.7970   38.1070 C   0  0  0  0  0  3  0  0  0  0  0  0
   36.0120   28.4870   37.2740 H   0  0  0  0  0  0  0  0  0  0  0  0
   37.0730   29.3600   37.1300 S   0  0  0  0  0  0  0  0  0  0  0  0
   36.7120   30.1810   35.8980 O   0  0  0  0  0  0  0  0  0  0  0  0
   38.2790   28.5260   36.9390 O   0  0  0  0  0  0  0  0  0  0  0  0
  1  7  1  6  0  0  0
  1  2  1  0  0  0  0
  1  6  1  0  0  0  0
  2  3  1  0  0  0  0
  3 10  1  0  0  0  0
  3  4  1  0  0  0  0
  4 13  1  0  0  0  0
  5  4  1  0  0  0  0
  5 14  1  0  0  0  0
  6 16  1  1  0  0  0
  6  5  1  0  0  0  0
  8  2  1  0  0  0  0
  9  2  1  0  0  0  0
 11  3  1  0  0  0  0
 12  4  1  0  0  0  0
 15  5  1  0  0  0  0
 17  1  1  0  0  0  0
 17 22  1  0  0  0  0
 18 17  2  0  0  0  0
 19 18  1  0  0  0  0
 19 20  2  0  0  0  0
 20 21  1  0  0  0  0
 21 25  1  0  0  0  0
 21 22  2  0  0  0  0
 23 18  1  0  0  0  0
 24 19  1  0  0  0  0
 26 29  1  6  0  0  0
 26 28  1  0  0  0  0
 26  6  1  0  0  0  0
 26 27  1  0  0  0  0
 27 31  1  0  0  0  0
 27 30  1  0  0  0  0
 28 32  1  1  0  0  0
 28 27  1  0  0  0  0
 33 34  1  0  0  0  0
 33 28  1  0  0  0  0
 35 33  1  0  0  0  0
 36 38  1  0  0  0  0
 36 33  1  0  0  0  0
 37 36  1  0  0  0  0
 39 40  1  0  0  0  0
 40 36  1  0  0  0  0
 40 41  2  0  0  0  0
 41 42  1  0  0  0  0
 43 41  1  0  0  0  0
 43 44  1  0  0  0  0
 45 43  2  0  0  0  0
 46 39  2  0  0  0  0
 46 45  1  0  0  0  0
 48 47  1  0  0  0  0
 48 39  1  0  0  0  0
 49 48  2  0  0  0  0
 50 48  2  0  0  0  0
M  END
>  <minimizedAffinity>
-5.66584778

$$$$

 OpenBabel03242512033D

 50 53  0  0  1  0  0  0  0  0999 V2000
   36.9440   26.8600   41.2890 C   0  0  2  0  0  0  0  0  0  0  0  0
   37.0740   25.8650   42.4040 C   0  0  0  0  0  0  0  0  0  0  0  0
   37.6250   24.5720   41.9500 C   0  0  0  0  0  0  0  0  0  0  0  0
   36.8340   23.9610   40.8060 C   0  0  0  0  0  0  0  0  0  0  0  0
   36.3680   24.9660   39.7960 C   0  0  0  0  0  0  0  0  0  0  0  0
   37.0680   26.2990   39.9210 C   0  0  1  0  0  0  0  0  0  0  0  0
   35.8990   27.2820   41.3980 H   0  0  0  0  0  0  0  0  0  0  0  0
   37.7710   26.3000   43.1470 H   0  0  0  0  0  0  0  0  0  0  0  0
   36.1230   25.6900   42.9460 H   0  0  0  0  0  0  0  0  0  0  0  0
   38.6970   24.6660   41.7140 H   0  0  0  0  0  0  0  0  0  0  0  0
   37.5430   23.8350   42.7860 H   0  0  0  0  0  0  0  0  0  0  0  0
   35.9660   23.4000   41.2320 H   0  0  0  0  0  0  0  0  0  0  0  0
   37.4980   23.2020   40.3440 H   0  0  0  0  0  0  0  0  0  0  0  0
   36.5950   24.5700   38.7970 H   0  0  0  0  0  0  0  0  0  0  0  0
   35.2750   25.1080   39.8780 H   0  0  0  0  0  0  0  0  0  0  0  0
   38.0850   26.1310   39.5380 H   0  0  0  0  0  0  0  0  0  0  0  0
   37.8350   28.0250   41.4520 C   0  0  0  0  0  0  0  0  0  0  0  0
   39.1780   27.6990   41.3770 C   0  0  0  0  0  0  0  0  0  0  0  0
   40.1460   28.7090   41.5100 C   0  0  0  0  0  0  0  0  0  0  0  0
   39.6470   30.0010   41.7140 N   0  0  0  0  0  0  0  0  0  0  0  0
   38.3250   30.2650   41.7800 C   0  0  0  0  0  0  0  0  0  0  0  0
   37.4340   29.2670   41.6470 N   0  0  0  0  0  0  0  0  0  0  0  0
   39.7480   26.7920   41.2380 H   0  0  0  0  0  0  0  0  0  0  0  0
   41.2210   28.6380   41.4780 H   0  0  0  0  0  0  0  0  0  0  0  0
   38.0140   31.2770   41.9390 H   0  0  0  0  0  0  0  0  0  0  0  0
   36.4080   27.2530   38.9630 C   0  0  2  0  0  0  0  0  0  0  0  0
   36.5970   27.0020   37.4800 C   0  0  0  0  0  0  0  0  0  0  0  0
   37.2350   28.1680   38.1250 C   0  0  1  0  0  0  0  0  0  0  0  0
   35.3620   27.5120   39.2270 H   0  0  0  0  0  0  0  0  0  0  0  0
   37.2640   26.2060   37.1230 H   0  0  0  0  0  0  0  0  0  0  0  0
   35.7530   27.2160   36.7890 H   0  0  0  0  0  0  0  0  0  0  0  0
   38.3160   28.1270   38.3790 H   0  0  0  0  0  0  0  0  0  0  0  0
   36.6730   29.5510   38.0550 C   0  0  0  0  0  0  0  0  0  0  0  0
   36.5050   29.8860   39.1160 H   0  0  0  0  0  0  0  0  0  0  0  0
   35.6690   29.5030   37.5920 H   0  0  0  0  0  0  0  0  0  0  0  0
   37.5780   30.5610   37.4240 C   0  0  0  0  0  0  0  0  0  0  0  0
   36.9970   31.0730   36.5970 H   0  0  0  0  0  0  0  0  0  0  0  0
   38.3750   30.0190   36.8780 H   0  0  0  0  0  0  0  0  0  0  0  0
   39.3710   31.8760   38.5140 C   0  0  0  0  0  0  0  0  0  0  0  0
   38.0310   31.6330   38.3070 C   0  0  0  0  0  0  0  0  0  0  0  0
   37.1510   32.4770   38.9950 C   0  0  0  0  0  0  0  0  0  0  0  0
   36.1000   32.2700   38.8180 H   0  0  0  0  0  0  0  0  0  0  0  0
   37.5500   33.5110   39.8450 C   0  0  0  0  0  0  0  0  0  0  0  0
   36.7540   34.0710   40.3000 H   0  0  0  0  0  0  0  0  0  0  0  0
   38.8960   33.7120   40.0170 C   0  0  0  0  0  3  0  0  0  0  0  0
   39.7920   32.8970   39.3540 C   0  0  0  0  0  3  0  0  0  0  0  0
   40.1470   30.0730   36.8510 H   0  0  0  0  0  0  0  0  0  0  0  0
   40.6520   30.9670   37.7760 S   0  0  0  0  0  0  0  0  0  0  0  0
   41.4590   31.9510   36.9370 O   0  0  0  0  0  0  0  0  0  0  0  0
   41.4850   30.1800   38.7090 O   0  0  0  0  0  0  0  0  0  0  0  0
  1  7  1  1  0  0  0
  1 17  1  0  0  0  0
  1  2  1  0  0  0  0
  2  9  1  0  0  0  0
  2  8  1  0  0  0  0
  3  2  1  0  0  0  0
  3 11  1  0  0  0  0
  4 12  1  0  0  0  0
  4  3  1  0  0  0  0
  5 15  1  0  0  0  0
  5  6  1  0  0  0  0
  5  4  1  0  0  0  0
  6 16  1  6  0  0  0
  6  1  1  0  0  0  0
 10  3  1  0  0  0  0
 13  4  1  0  0  0  0
 14  5  1  0  0  0  0
 17 22  1  0  0  0  0
 18 17  2  0  0  0  0
 18 19  1  0  0  0  0
 19 20  2  0  0  0  0
 20 21  1  0  0  0  0
 21 25  1  0  0  0  0
 22 21  2  0  0  0  0
 23 18  1  0  0  0  0
 24 19  1  0  0  0  0
 26 29  1  1  0  0  0
 26  6  1  0  0  0  0
 27 28  1  0  0  0  0
 27 26  1  0  0  0  0
 28 32  1  1  0  0  0
 28 26  1  0  0  0  0
 30 27  1  0  0  0  0
 31 27  1  0  0  0  0
 33 28  1  0  0  0  0
 33 34  1  0  0  0  0
 35 33  1  0  0  0  0
 36 33  1  0  0  0  0
 36 40  1  0  0  0  0
 37 36  1  0  0  0  0
 38 36  1  0  0  0  0
 39 46  1  0  0  0  0
 40 39  2  0  0  0  0
 40 41  1  0  0  0  0
 41 43  2  0  0  0  0
 42 41  1  0  0  0  0
 43 45  1  0  0  0  0
 43 44  1  0  0  0  0
 46 45  2  0  0  0  0
 47 48  1  0  0  0  0
 48 39  1  0  0  0  0
 48 50  2  0  0  0  0
 49 48  2  0  0  0  0
M  END
>  <minimizedAffinity>
-5.56775522

$$$$

 OpenBabel03242512033D

 50 53  0  0  1  0  0  0  0  0999 V2000
   40.5900   28.0490   43.1190 C   0  0  2  0  0  0  0  0  0  0  0  0
   41.6470   27.1440   43.6800 C   0  0  0  0  0  0  0  0  0  0  0  0
   41.5740   25.7750   43.1280 C   0  0  0  0  0  0  0  0  0  0  0  0
   40.2060   25.1390   43.3040 C   0  0  0  0  0  0  0  0  0  0  0  0
   39.0700   26.0910   43.0820 C   0  0  0  0  0  0  0  0  0  0  0  0
   39.4920   27.3670   42.3910 C   0  0  1  0  0  0  0  0  0  0  0  0
   40.1420   28.5650   44.0220 H   0  0  0  0  0  0  0  0  0  0  0  0
   42.6270   27.5790   43.4040 H   0  0  0  0  0  0  0  0  0  0  0  0
   41.6380   27.0950   44.7870 H   0  0  0  0  0  0  0  0  0  0  0  0
   41.9110   25.7590   42.0790 H   0  0  0  0  0  0  0  0  0  0  0  0
   42.2750   25.1210   43.7010 H   0  0  0  0  0  0  0  0  0  0  0  0
   40.1500   24.6900   44.3250 H   0  0  0  0  0  0  0  0  0  0  0  0
   40.1670   24.2910   42.5890 H   0  0  0  0  0  0  0  0  0  0  0  0
   38.3350   25.5950   42.4330 H   0  0  0  0  0  0  0  0  0  0  0  0
   38.5820   26.3300   44.0450 H   0  0  0  0  0  0  0  0  0  0  0  0
   39.6820   27.0830   41.3470 H   0  0  0  0  0  0  0  0  0  0  0  0
   41.1480   29.1440   42.3020 C   0  0  0  0  0  0  0  0  0  0  0  0
   41.6580   28.7160   41.0900 C   0  0  0  0  0  0  0  0  0  0  0  0
   42.2190   29.6510   40.2030 C   0  0  0  0  0  0  0  0  0  0  0  0
   42.2110   30.9800   40.6430 N   0  0  0  0  0  0  0  0  0  0  0  0
   41.7000   31.3450   41.8370 C   0  0  0  0  0  0  0  0  0  0  0  0
   41.1740   30.4170   42.6540 N   0  0  0  0  0  0  0  0  0  0  0  0
   41.7640   27.7670   40.5860 H   0  0  0  0  0  0  0  0  0  0  0  0
   42.6570   29.4980   39.2300 H   0  0  0  0  0  0  0  0  0  0  0  0
   41.7270   32.3800   42.1090 H   0  0  0  0  0  0  0  0  0  0  0  0
   38.3030   28.2890   42.3690 C   0  0  2  0  0  0  0  0  0  0  0  0
   37.4470   28.3610   43.6170 C   0  0  0  0  0  0  0  0  0  0  0  0
   36.9210   27.7310   42.3880 C   0  0  1  0  0  0  0  0  0  0  0  0
   38.5080   29.2860   41.9280 H   0  0  0  0  0  0  0  0  0  0  0  0
   37.6380   27.6980   44.4720 H   0  0  0  0  0  0  0  0  0  0  0  0
   37.0010   29.3370   43.9050 H   0  0  0  0  0  0  0  0  0  0  0  0
   36.9010   26.6220   42.3100 H   0  0  0  0  0  0  0  0  0  0  0  0
   36.0030   28.4300   41.4390 C   0  0  0  0  0  0  0  0  0  0  0  0
   35.8320   29.4610   41.8540 H   0  0  0  0  0  0  0  0  0  0  0  0
   35.0170   27.9280   41.4640 H   0  0  0  0  0  0  0  0  0  0  0  0
   36.5510   28.6080   40.0580 C   0  0  0  0  0  0  0  0  0  0  0  0
   35.7720   28.2280   39.3280 H   0  0  0  0  0  0  0  0  0  0  0  0
   37.3920   27.8990   39.9250 H   0  0  0  0  0  0  0  0  0  0  0  0
   37.0740   30.3260   38.3530 C   0  0  0  0  0  0  0  0  0  0  0  0
   36.8170   29.9890   39.6640 C   0  0  0  0  0  0  0  0  0  0  0  0
   36.8320   31.0530   40.5750 C   0  0  0  0  0  0  0  0  0  0  0  0
   36.6280   30.7660   41.6020 H   0  0  0  0  0  0  0  0  0  0  0  0
   37.0820   32.3830   40.2320 C   0  0  0  0  0  0  0  0  0  0  0  0
   37.0580   33.0850   41.0450 H   0  0  0  0  0  0  0  0  0  0  0  0
   37.3300   32.6660   38.9130 C   0  0  0  0  0  3  0  0  0  0  0  0
   37.3250   31.6410   37.9880 C   0  0  0  0  0  3  0  0  0  0  0  0
   36.1220   28.2360   37.1950 H   0  0  0  0  0  0  0  0  0  0  0  0
   37.1110   29.1880   37.0440 S   0  0  0  0  0  0  0  0  0  0  0  0
   36.7030   29.9510   35.7890 O   0  0  0  0  0  0  0  0  0  0  0  0
   38.3820   28.4500   36.8870 O   0  0  0  0  0  0  0  0  0  0  0  0
  1  2  1  0  0  0  0
  1  7  1  1  0  0  0
  2  9  1  0  0  0  0
  3  4  1  0  0  0  0
  3  2  1  0  0  0  0
  3 11  1  0  0  0  0
  4 12  1  0  0  0  0
  5  4  1  0  0  0  0
  5 15  1  0  0  0  0
  6 16  1  6  0  0  0
  6  5  1  0  0  0  0
  6  1  1  0  0  0  0
  8  2  1  0  0  0  0
 10  3  1  0  0  0  0
 13  4  1  0  0  0  0
 14  5  1  0  0  0  0
 17 22  1  0  0  0  0
 17  1  1  0  0  0  0
 18 17  2  0  0  0  0
 19 20  2  0  0  0  0
 19 18  1  0  0  0  0
 20 21  1  0  0  0  0
 21 25  1  0  0  0  0
 21 22  2  0  0  0  0
 23 18  1  0  0  0  0
 24 19  1  0  0  0  0
 26 29  1  6  0  0  0
 26 28  1  0  0  0  0
 26  6  1  0  0  0  0
 26 27  1  0  0  0  0
 27 31  1  0  0  0  0
 27 30  1  0  0  0  0
 28 32  1  1  0  0  0
 28 27  1  0  0  0  0
 33 35  1  0  0  0  0
 33 34  1  0  0  0  0
 33 28  1  0  0  0  0
 36 33  1  0  0  0  0
 37 36  1  0  0  0  0
 38 36  1  0  0  0  0
 39 40  1  0  0  0  0
 40 36  1  0  0  0  0
 40 41  2  0  0  0  0
 41 42  1  0  0  0  0
 43 41  1  0  0  0  0
 43 44  1  0  0  0  0
 45 43  2  0  0  0  0
 46 39  2  0  0  0  0
 46 45  1  0  0  0  0
 48 47  1  0  0  0  0
 48 39  1  0  0  0  0
 49 48  2  0  0  0  0
 50 48  2  0  0  0  0
M  END
>  <minimizedAffinity>
-5.45946503

$$$$

 OpenBabel03242512033D

 50 53  0  0  1  0  0  0  0  0999 V2000
   37.4890   26.3100   40.2870 C   0  0  2  0  0  0  0  0  0  0  0  0
   36.9790   25.0700   39.6150 C   0  0  0  0  0  0  0  0  0  0  0  0
   36.4740   24.0690   40.5770 C   0  0  0  0  0  0  0  0  0  0  0  0
   37.4990   23.6960   41.6350 C   0  0  0  0  0  0  0  0  0  0  0  0
   38.3020   24.8620   42.1280 C   0  0  0  0  0  0  0  0  0  0  0  0
   37.7010   26.1970   41.7510 C   0  0  1  0  0  0  0  0  0  0  0  0
   38.4930   26.5100   39.8040 H   0  0  0  0  0  0  0  0  0  0  0  0
   36.1410   25.3770   38.9600 H   0  0  0  0  0  0  0  0  0  0  0  0
   37.7260   24.5960   38.9490 H   0  0  0  0  0  0  0  0  0  0  0  0
   35.5190   24.3980   41.0170 H   0  0  0  0  0  0  0  0  0  0  0  0
   36.2650   23.1190   40.0280 H   0  0  0  0  0  0  0  0  0  0  0  0
   38.1690   22.9040   41.2190 H   0  0  0  0  0  0  0  0  0  0  0  0
   36.9300   23.2190   42.4600 H   0  0  0  0  0  0  0  0  0  0  0  0
   38.3290   24.8130   43.2250 H   0  0  0  0  0  0  0  0  0  0  0  0
   39.3380   24.7970   41.7480 H   0  0  0  0  0  0  0  0  0  0  0  0
   36.8200   26.3110   42.3970 H   0  0  0  0  0  0  0  0  0  0  0  0
   36.6800   27.5050   39.9750 C   0  0  0  0  0  0  0  0  0  0  0  0
   36.8260   27.9360   38.6690 C   0  0  0  0  0  0  0  0  0  0  0  0
   36.1130   29.0640   38.2260 C   0  0  0  0  0  0  0  0  0  0  0  0
   35.2890   29.6710   39.1820 N   0  0  0  0  0  0  0  0  0  0  0  0
   35.1840   29.2090   40.4450 C   0  0  0  0  0  0  0  0  0  0  0  0
   35.8850   28.1280   40.8260 N   0  0  0  0  0  0  0  0  0  0  0  0
   37.3980   27.6220   37.8090 H   0  0  0  0  0  0  0  0  0  0  0  0
   36.1030   29.5330   37.2560 H   0  0  0  0  0  0  0  0  0  0  0  0
   34.5350   29.7230   41.1240 H   0  0  0  0  0  0  0  0  0  0  0  0
   38.6730   27.2670   42.1670 C   0  0  2  0  0  0  0  0  0  0  0  0
   39.2100   27.2170   43.5840 C   0  0  0  0  0  0  0  0  0  0  0  0
   38.2760   28.2890   43.1780 C   0  0  1  0  0  0  0  0  0  0  0  0
   39.4580   27.4860   41.4150 H   0  0  0  0  0  0  0  0  0  0  0  0
   38.8340   26.4780   44.3040 H   0  0  0  0  0  0  0  0  0  0  0  0
   40.2630   27.5190   43.7670 H   0  0  0  0  0  0  0  0  0  0  0  0
   37.2050   28.2160   43.4680 H   0  0  0  0  0  0  0  0  0  0  0  0
   38.7220   29.6670   42.8120 C   0  0  0  0  0  0  0  0  0  0  0  0
   39.4510   29.9930   43.6040 H   0  0  0  0  0  0  0  0  0  0  0  0
   37.8580   30.3530   42.8980 H   0  0  0  0  0  0  0  0  0  0  0  0
   39.4380   29.7640   41.5020 C   0  0  0  0  0  0  0  0  0  0  0  0
   39.4020   28.7420   41.0140 H   0  0  0  0  0  0  0  0  0  0  0  0
   40.5170   29.9100   41.7080 H   0  0  0  0  0  0  0  0  0  0  0  0
   39.2430   30.6860   39.2130 C   0  0  0  0  0  0  0  0  0  0  0  0
   38.8470   30.6830   40.5330 C   0  0  0  0  0  0  0  0  0  0  0  0
   37.8540   31.6100   40.8680 C   0  0  0  0  0  0  0  0  0  0  0  0
   37.5560   31.5910   41.9120 H   0  0  0  0  0  0  0  0  0  0  0  0
   37.2680   32.5010   39.9670 C   0  0  0  0  0  0  0  0  0  0  0  0
   36.5180   33.1520   40.3770 H   0  0  0  0  0  0  0  0  0  0  0  0
   37.6960   32.4650   38.6640 C   0  0  0  0  0  3  0  0  0  0  0  0
   38.6750   31.5630   38.2990 C   0  0  0  0  0  3  0  0  0  0  0  0
   40.5770   28.4900   39.3210 H   0  0  0  0  0  0  0  0  0  0  0  0
   40.4550   29.6340   38.5550 S   0  0  0  0  0  0  0  0  0  0  0  0
   39.9200   29.1310   37.2200 O   0  0  0  0  0  0  0  0  0  0  0  0
   41.8090   30.2170   38.4550 O   0  0  0  0  0  0  0  0  0  0  0  0
  1  7  1  6  0  0  0
  1  6  1  0  0  0  0
  2  1  1  0  0  0  0
  2  3  1  0  0  0  0
  3 10  1  0  0  0  0
  3  4  1  0  0  0  0
  4  5  1  0  0  0  0
  4 13  1  0  0  0  0
  5 14  1  0  0  0  0
  6  5  1  0  0  0  0
  6 26  1  0  0  0  0
  6 16  1  1  0  0  0
  8  2  1  0  0  0  0
  9  2  1  0  0  0  0
 11  3  1  0  0  0  0
 12  4  1  0  0  0  0
 15  5  1  0  0  0  0
 17  1  1  0  0  0  0
 17 22  1  0  0  0  0
 18 17  2  0  0  0  0
 19 18  1  0  0  0  0
 19 20  2  0  0  0  0
 20 21  1  0  0  0  0
 21 22  2  0  0  0  0
 21 25  1  0  0  0  0
 23 18  1  0  0  0  0
 24 19  1  0  0  0  0
 26 29  1  6  0  0  0
 26 28  1  0  0  0  0
 26 27  1  0  0  0  0
 27 31  1  0  0  0  0
 27 30  1  0  0  0  0
 28 32  1  1  0  0  0
 28 27  1  0  0  0  0
 33 35  1  0  0  0  0
 33 28  1  0  0  0  0
 33 34  1  0  0  0  0
 36 38  1  0  0  0  0
 36 33  1  0  0  0  0
 37 36  1  0  0  0  0
 39 40  1  0  0  0  0
 40 41  2  0  0  0  0
 40 36  1  0  0  0  0
 41 42  1  0  0  0  0
 43 44  1  0  0  0  0
 43 41  1  0  0  0  0
 45 43  2  0  0  0  0
 46 45  1  0  0  0  0
 46 39  2  0  0  0  0
 48 39  1  0  0  0  0
 48 47  1  0  0  0  0
 49 48  2  0  0  0  0
 50 48  2  0  0  0  0
M  END
>  <minimizedAffinity>
-5.39593935

$$$$

 OpenBabel03242512033D

 50 53  0  0  1  0  0  0  0  0999 V2000
   36.8100   28.7590   36.5390 C   0  0  2  0  0  0  0  0  0  0  0  0
   36.9780   28.8430   35.0510 C   0  0  0  0  0  0  0  0  0  0  0  0
   36.0020   29.7550   34.4200 C   0  0  0  0  0  0  0  0  0  0  0  0
   34.5630   29.4050   34.7560 C   0  0  0  0  0  0  0  0  0  0  0  0
   34.3670   28.9780   36.1790 C   0  0  0  0  0  0  0  0  0  0  0  0
   35.5410   29.3180   37.0670 C   0  0  1  0  0  0  0  0  0  0  0  0
   36.8250   27.6510   36.7710 H   0  0  0  0  0  0  0  0  0  0  0  0
   37.9960   29.2350   34.8610 H   0  0  0  0  0  0  0  0  0  0  0  0
   36.9350   27.8550   34.5500 H   0  0  0  0  0  0  0  0  0  0  0  0
   36.2430   30.8050   34.6510 H   0  0  0  0  0  0  0  0  0  0  0  0
   36.0760   29.6450   33.3100 H   0  0  0  0  0  0  0  0  0  0  0  0
   34.2160   28.6080   34.0530 H   0  0  0  0  0  0  0  0  0  0  0  0
   33.9630   30.3100   34.5200 H   0  0  0  0  0  0  0  0  0  0  0  0
   33.4920   29.5110   36.5740 H   0  0  0  0  0  0  0  0  0  0  0  0
   34.1660   27.8910   36.2240 H   0  0  0  0  0  0  0  0  0  0  0  0
   35.4920   30.4070   37.2070 H   0  0  0  0  0  0  0  0  0  0  0  0
   37.9620   29.3100   37.2780 C   0  0  0  0  0  0  0  0  0  0  0  0
   38.9800   28.3910   37.4660 C   0  0  0  0  0  0  0  0  0  0  0  0
   40.1440   28.7760   38.1520 C   0  0  0  0  0  0  0  0  0  0  0  0
   40.1720   30.1020   38.5990 N   0  0  0  0  0  0  0  0  0  0  0  0
   39.1510   30.9580   38.3890 C   0  0  0  0  0  0  0  0  0  0  0  0
   38.0550   30.5470   37.7290 N   0  0  0  0  0  0  0  0  0  0  0  0
   39.1420   27.3530   37.2150 H   0  0  0  0  0  0  0  0  0  0  0  0
   41.0250   28.2000   38.3860 H   0  0  0  0  0  0  0  0  0  0  0  0
   39.2390   31.9590   38.7600 H   0  0  0  0  0  0  0  0  0  0  0  0
   35.2850   28.7050   38.4160 C   0  0  2  0  0  0  0  0  0  0  0  0
   33.9590   29.0070   39.0860 C   0  0  0  0  0  0  0  0  0  0  0  0
   35.2140   29.5660   39.6310 C   0  0  1  0  0  0  0  0  0  0  0  0
   35.5730   27.6360   38.4930 H   0  0  0  0  0  0  0  0  0  0  0  0
   33.2510   29.7190   38.6400 H   0  0  0  0  0  0  0  0  0  0  0  0
   33.4690   28.2100   39.6850 H   0  0  0  0  0  0  0  0  0  0  0  0
   35.4720   30.6270   39.4240 H   0  0  0  0  0  0  0  0  0  0  0  0
   35.9320   28.9760   40.8000 C   0  0  0  0  0  0  0  0  0  0  0  0
   35.2240   28.2470   41.2820 H   0  0  0  0  0  0  0  0  0  0  0  0
   36.1020   29.7710   41.5500 H   0  0  0  0  0  0  0  0  0  0  0  0
   37.1670   28.2070   40.4510 C   0  0  0  0  0  0  0  0  0  0  0  0
   38.0210   28.6330   41.0610 H   0  0  0  0  0  0  0  0  0  0  0  0
   37.4480   28.4570   39.4090 H   0  0  0  0  0  0  0  0  0  0  0  0
   37.6400   26.2990   41.9560 C   0  0  0  0  0  0  0  0  0  0  0  0
   37.1280   26.7820   40.7720 C   0  0  0  0  0  0  0  0  0  0  0  0
   36.5790   25.8220   39.9140 C   0  0  0  0  0  0  0  0  0  0  0  0
   36.1810   26.2230   38.9870 H   0  0  0  0  0  0  0  0  0  0  0  0
   36.5250   24.4540   40.1900 C   0  0  0  0  0  0  0  0  0  0  0  0
   36.0710   23.8440   39.4310 H   0  0  0  0  0  0  0  0  0  0  0  0
   37.0470   24.0230   41.3830 C   0  0  0  0  0  3  0  0  0  0  0  0
   37.5980   24.9430   42.2520 C   0  0  0  0  0  3  0  0  0  0  0  0
   38.7160   26.5290   44.2810 H   0  0  0  0  0  0  0  0  0  0  0  0
   38.3720   27.2880   43.1790 S   0  0  0  0  0  0  0  0  0  0  0  0
   39.7100   27.7570   42.6200 O   0  0  0  0  0  0  0  0  0  0  0  0
   37.5310   28.3960   43.6790 O   0  0  0  0  0  0  0  0  0  0  0  0
  1  7  1  1  0  0  0
  1  6  1  0  0  0  0
  1 17  1  0  0  0  0
  2  1  1  0  0  0  0
  3 10  1  0  0  0  0
  3  4  1  0  0  0  0
  3  2  1  0  0  0  0
  4  5  1  0  0  0  0
  5 15  1  0  0  0  0
  5 14  1  0  0  0  0
  5  6  1  0  0  0  0
  6 16  1  1  0  0  0
  6 26  1  0  0  0  0
  8  2  1  0  0  0  0
  9  2  1  0  0  0  0
 11  3  1  0  0  0  0
 12  4  1  0  0  0  0
 13  4  1  0  0  0  0
 17 18  2  0  0  0  0
 17 22  1  0  0  0  0
 18 19  1  0  0  0  0
 19 24  1  0  0  0  0
 19 20  2  0  0  0  0
 21 20  1  0  0  0  0
 21 25  1  0  0  0  0
 22 21  2  0  0  0  0
 23 18  1  0  0  0  0
 26 29  1  1  0  0  0
 26 27  1  0  0  0  0
 26 28  1  0  0  0  0
 27 28  1  0  0  0  0
 27 31  1  0  0  0  0
 28 32  1  6  0  0  0
 28 33  1  0  0  0  0
 30 27  1  0  0  0  0
 33 34  1  0  0  0  0
 33 35  1  0  0  0  0
 36 40  1  0  0  0  0
 36 33  1  0  0  0  0
 36 37  1  0  0  0  0
 38 36  1  0  0  0  0
 39 46  1  0  0  0  0
 39 48  1  0  0  0  0
 40 39  2  0  0  0  0
 41 43  2  0  0  0  0
 41 40  1  0  0  0  0
 42 41  1  0  0  0  0
 43 45  1  0  0  0  0
 44 43  1  0  0  0  0
 45 46  2  0  0  0  0
 48 50  2  0  0  0  0
 48 47  1  0  0  0  0
 49 48  2  0  0  0  0
M  END
>  <minimizedAffinity>
-5.3955121

$$$$

 OpenBabel03242512033D

 50 53  0  0  1  0  0  0  0  0999 V2000
   37.7630   28.9980   38.4760 C   0  0  2  0  0  0  0  0  0  0  0  0
   37.2160   30.3930   38.4210 C   0  0  0  0  0  0  0  0  0  0  0  0
   36.5820   30.8050   39.6900 C   0  0  0  0  0  0  0  0  0  0  0  0
   35.4970   29.8450   40.1470 C   0  0  0  0  0  0  0  0  0  0  0  0
   35.8390   28.4040   39.9210 C   0  0  0  0  0  0  0  0  0  0  0  0
   37.3040   28.1810   39.6260 C   0  0  1  0  0  0  0  0  0  0  0  0
   37.3920   28.5030   37.5280 H   0  0  0  0  0  0  0  0  0  0  0  0
   38.0710   31.0690   38.2230 H   0  0  0  0  0  0  0  0  0  0  0  0
   36.5050   30.5510   37.5860 H   0  0  0  0  0  0  0  0  0  0  0  0
   37.3430   30.9780   40.4680 H   0  0  0  0  0  0  0  0  0  0  0  0
   36.0590   31.7790   39.5290 H   0  0  0  0  0  0  0  0  0  0  0  0
   34.5440   30.1110   39.6280 H   0  0  0  0  0  0  0  0  0  0  0  0
   35.3330   30.0570   41.2250 H   0  0  0  0  0  0  0  0  0  0  0  0
   35.6020   27.8520   40.8410 H   0  0  0  0  0  0  0  0  0  0  0  0
   35.2240   27.9930   39.0990 H   0  0  0  0  0  0  0  0  0  0  0  0
   37.8190   28.3300   40.5850 H   0  0  0  0  0  0  0  0  0  0  0  0
   39.2350   28.9530   38.3680 C   0  0  0  0  0  0  0  0  0  0  0  0
   39.6780   28.5840   37.1100 C   0  0  0  0  0  0  0  0  0  0  0  0
   41.0590   28.5030   36.8580 C   0  0  0  0  0  0  0  0  0  0  0  0
   41.8900   28.8140   37.9400 N   0  0  0  0  0  0  0  0  0  0  0  0
   41.4050   29.1680   39.1480 C   0  0  0  0  0  0  0  0  0  0  0  0
   40.0770   29.2320   39.3460 N   0  0  0  0  0  0  0  0  0  0  0  0
   39.2140   28.3060   36.1770 H   0  0  0  0  0  0  0  0  0  0  0  0
   41.5760   28.2370   35.9500 H   0  0  0  0  0  0  0  0  0  0  0  0
   42.0990   29.3920   39.9320 H   0  0  0  0  0  0  0  0  0  0  0  0
   37.4820   26.7300   39.2710 C   0  0  2  0  0  0  0  0  0  0  0  0
   36.5270   26.1330   38.2570 C   0  0  0  0  0  0  0  0  0  0  0  0
   36.4560   25.7260   39.6760 C   0  0  1  0  0  0  0  0  0  0  0  0
   38.5360   26.4290   39.1000 H   0  0  0  0  0  0  0  0  0  0  0  0
   35.6830   26.7160   37.8650 H   0  0  0  0  0  0  0  0  0  0  0  0
   36.9120   25.3740   37.5410 H   0  0  0  0  0  0  0  0  0  0  0  0
   35.6650   26.1570   40.3260 H   0  0  0  0  0  0  0  0  0  0  0  0
   37.0600   24.4630   40.1960 C   0  0  0  0  0  0  0  0  0  0  0  0
   38.1160   24.4260   39.8120 H   0  0  0  0  0  0  0  0  0  0  0  0
   36.5400   23.6040   39.7310 H   0  0  0  0  0  0  0  0  0  0  0  0
   37.1420   24.3780   41.6870 C   0  0  0  0  0  0  0  0  0  0  0  0
   37.9670   23.6450   41.9450 H   0  0  0  0  0  0  0  0  0  0  0  0
   36.2280   23.8740   42.0570 H   0  0  0  0  0  0  0  0  0  0  0  0
   38.8110   26.0170   42.5000 C   0  0  0  0  0  0  0  0  0  0  0  0
   37.4980   25.6220   42.3660 C   0  0  0  0  0  0  0  0  0  0  0  0
   36.5470   26.4880   42.9190 C   0  0  0  0  0  0  0  0  0  0  0  0
   35.5190   26.1580   42.8030 H   0  0  0  0  0  0  0  0  0  0  0  0
   36.8520   27.6830   43.5730 C   0  0  0  0  0  0  0  0  0  0  0  0
   36.0100   28.2380   43.9440 H   0  0  0  0  0  0  0  0  0  0  0  0
   38.1750   28.0330   43.6800 C   0  0  0  0  0  3  0  0  0  0  0  0
   39.1390   27.2020   43.1450 C   0  0  0  0  0  3  0  0  0  0  0  0
   39.7650   23.8780   41.4380 H   0  0  0  0  0  0  0  0  0  0  0  0
   40.1670   25.1170   41.8990 S   0  0  0  0  0  0  0  0  0  0  0  0
   40.6520   25.8390   40.6480 O   0  0  0  0  0  0  0  0  0  0  0  0
   41.2440   24.8700   42.8810 O   0  0  0  0  0  0  0  0  0  0  0  0
  1  7  1  6  0  0  0
  1  6  1  0  0  0  0
  2  1  1  0  0  0  0
  2  3  1  0  0  0  0
  3  4  1  0  0  0  0
  3 10  1  0  0  0  0
  4 13  1  0  0  0  0
  5  4  1  0  0  0  0
  5 14  1  0  0  0  0
  6  5  1  0  0  0  0
  6 16  1  1  0  0  0
  8  2  1  0  0  0  0
  9  2  1  0  0  0  0
 11  3  1  0  0  0  0
 12  4  1  0  0  0  0
 15  5  1  0  0  0  0
 17  1  1  0  0  0  0
 17 22  1  0  0  0  0
 18 17  2  0  0  0  0
 19 18  1  0  0  0  0
 19 20  2  0  0  0  0
 20 21  1  0  0  0  0
 21 22  2  0  0  0  0
 21 25  1  0  0  0  0
 23 18  1  0  0  0  0
 24 19  1  0  0  0  0
 26 29  1  6  0  0  0
 26  6  1  0  0  0  0
 26 28  1  0  0  0  0
 27 26  1  0  0  0  0
 27 28  1  0  0  0  0
 28 33  1  0  0  0  0
 28 32  1  1  0  0  0
 30 27  1  0  0  0  0
 31 27  1  0  0  0  0
 33 36  1  0  0  0  0
 34 33  1  0  0  0  0
 35 33  1  0  0  0  0
 36 37  1  0  0  0  0
 36 38  1  0  0  0  0
 36 40  1  0  0  0  0
 39 46  1  0  0  0  0
 40 39  2  0  0  0  0
 40 41  1  0  0  0  0
 41 43  2  0  0  0  0
 42 41  1  0  0  0  0
 43 45  1  0  0  0  0
 43 44  1  0  0  0  0
 46 45  2  0  0  0  0
 47 48  1  0  0  0  0
 48 39  1  0  0  0  0
 48 50  2  0  0  0  0
 49 48  2  0  0  0  0
M  END
>  <minimizedAffinity>
-5.37657118

$$$$
