
 OpenBabel03242516143D

 44 47  0  0  0  0  0  0  0  0999 V2000
   48.0880   33.5600   42.0540 C   0  0  0  0  0  0  0  0  0  0  0  0
   49.3970   34.0710   42.6520 C   0  0  0  0  0  0  0  0  0  0  0  0
   48.9440   32.7080   42.9050 C   0  0  0  0  0  0  0  0  0  0  0  0
   50.2360   34.3380   41.9760 H   0  0  0  0  0  0  0  0  0  0  0  0
   49.2710   34.8410   43.4620 H   0  0  0  0  0  0  0  0  0  0  0  0
   49.5310   31.9040   42.4130 H   0  0  0  0  0  0  0  0  0  0  0  0
   48.6660   32.4540   43.9460 H   0  0  0  0  0  0  0  0  0  0  0  0
   48.1440   33.3650   40.5850 C   0  0  0  0  0  0  0  0  0  0  0  0
   48.1710   34.6510   39.7600 C   0  0  0  0  0  0  0  0  0  0  0  0
   48.3580   34.1930   38.3160 C   0  0  0  0  0  0  0  0  0  0  0  0
   47.1900   33.5970   37.8900 O   0  0  0  0  0  0  0  0  0  0  0  0
   47.1370   32.3650   38.5920 C   0  0  0  0  0  0  0  0  0  0  0  0
   46.8970   32.6550   40.0700 C   0  0  0  0  0  0  0  0  0  0  0  0
   49.0340   32.7710   40.2460 H   0  0  0  0  0  0  0  0  0  0  0  0
   47.2500   35.2110   39.8650 H   0  0  0  0  0  0  0  0  0  0  0  0
   49.0980   35.2490   39.9980 H   0  0  0  0  0  0  0  0  0  0  0  0
   49.2550   33.5940   38.1730 H   0  0  0  0  0  0  0  0  0  0  0  0
   48.4290   35.1550   37.7360 H   0  0  0  0  0  0  0  0  0  0  0  0
   46.3710   31.6900   38.1870 H   0  0  0  0  0  0  0  0  0  0  0  0
   48.1700   31.9090   38.5440 H   0  0  0  0  0  0  0  0  0  0  0  0
   46.7620   31.6780   40.5730 H   0  0  0  0  0  0  0  0  0  0  0  0
   46.0040   33.3200   40.1470 H   0  0  0  0  0  0  0  0  0  0  0  0
   46.5170   35.4680   42.4320 C   0  0  0  0  0  0  0  0  0  0  0  0
   46.8360   34.1220   42.6330 C   0  0  0  0  0  0  0  0  0  0  0  0
   45.9350   33.3650   43.3990 C   0  0  0  0  0  0  0  0  0  0  0  0
   44.8260   33.9460   43.8990 N   0  0  0  0  0  0  0  0  0  0  0  0
   44.5750   35.2370   43.6730 C   0  0  0  0  0  0  0  0  0  0  0  0
   45.3840   35.9980   42.9600 N   0  0  0  0  0  0  0  0  0  0  0  0
   43.4150   35.8820   44.1700 N   0  0  0  0  0  0  0  0  0  0  0  0
   47.1930   36.0500   41.8520 H   0  0  0  0  0  0  0  0  0  0  0  0
   43.3320   36.4820   45.0170 H   0  0  0  0  0  0  0  0  0  0  0  0
   42.6150   35.6560   43.5330 H   0  0  0  0  0  0  0  0  0  0  0  0
   46.5160   31.4640   44.9330 C   0  0  0  0  0  0  0  0  0  0  0  0
   46.1630   31.9630   43.6970 C   0  0  0  0  0  0  0  0  0  0  0  0
   45.9720   31.0560   42.6790 C   0  0  0  0  0  0  0  0  0  0  0  0
   45.6790   31.2950   41.6730 H   0  0  0  0  0  0  0  0  0  0  0  0
   46.1180   29.6800   42.8430 C   0  0  0  0  0  0  0  0  0  0  0  0
   45.9680   28.9590   42.0370 H   0  0  0  0  0  0  0  0  0  0  0  0
   46.4750   29.2010   44.0970 C   0  0  0  0  0  0  0  0  0  0  0  0
   46.6720   30.1110   45.1430 C   0  0  0  0  0  0  0  0  0  0  0  0
   47.3530   33.7670   45.7990 H   0  0  0  0  0  0  0  0  0  0  0  0
   46.7830   32.6150   46.2380 S   0  0  0  0  0  0  0  0  0  0  0  0
   45.4890   32.9850   46.9060 O   0  0  0  0  0  0  0  0  0  0  0  0
   47.6440   31.9390   47.2900 O   0  0  0  0  0  0  0  0  0  0  0  0
  1 24  1  0  0  0  0
  1  2  1  0  0  0  0
  1  3  1  0  0  0  0
  2  3  1  0  0  0  0
  2  5  1  0  0  0  0
  3  7  1  0  0  0  0
  4  2  1  0  0  0  0
  6  3  1  0  0  0  0
  8  1  1  0  0  0  0
  9 15  1  0  0  0  0
  9 16  1  0  0  0  0
  9  8  1  0  0  0  0
 10  9  1  0  0  0  0
 11 10  1  0  0  0  0
 11 12  1  0  0  0  0
 12 13  1  0  0  0  0
 13 22  1  0  0  0  0
 13 21  1  0  0  0  0
 13  8  1  0  0  0  0
 14  8  1  0  0  0  0
 17 10  1  0  0  0  0
 18 10  1  0  0  0  0
 19 12  1  0  0  0  0
 20 12  1  0  0  0  0
 23 24  2  0  0  0  0
 23 28  1  0  0  0  0
 24 25  1  0  0  0  0
 25 34  1  0  0  0  0
 25 26  2  0  0  0  0
 27 26  1  0  0  0  0
 27 29  1  0  0  0  0
 28 27  2  0  0  0  0
 29 31  1  0  0  0  0
 30 23  1  0  0  0  0
 32 29  1  0  0  0  0
 33 40  1  0  0  0  0
 33 42  1  0  0  0  0
 34 33  2  0  0  0  0
 35 37  2  0  0  0  0
 35 34  1  0  0  0  0
 36 35  1  0  0  0  0
 37 39  1  0  0  0  0
 38 37  1  0  0  0  0
 39 40  2  0  0  0  0
 41 42  1  0  0  0  0
 42 43  2  0  0  0  0
 42 44  2  0  0  0  0
M  END
>  <minimizedAffinity>
-5.25760603

>  <minimizedRMSD>
1.82184088

$$$$
