
 OpenBabel03242515503D

 23 24  0  0  0  0  0  0  0  0999 V2000
   45.7600   34.5380   44.1590 C   0  0  0  0  0  0  0  0  0  0  0  0
   46.7530   33.7370   43.6140 C   0  0  0  0  0  0  0  0  0  0  0  0
   47.2820   32.7020   44.3850 C   0  0  0  0  0  0  0  0  0  0  0  0
   48.0630   32.1000   43.9070 H   0  0  0  0  0  0  0  0  0  0  0  0
   46.8660   32.4310   45.6650 C   0  0  0  0  0  0  0  0  0  0  0  0
   47.3500   31.6040   46.1580 H   0  0  0  0  0  0  0  0  0  0  0  0
   45.8780   33.2140   46.2290 C   0  0  0  0  0  0  0  0  0  0  0  0
   45.3750   34.2180   45.4640 C   0  0  0  0  0  0  0  0  0  0  0  0
   48.6480   35.1800   40.8490 C   0  0  0  0  0  0  0  0  0  0  0  0
   48.1720   34.4930   39.7330 C   0  0  0  0  0  0  0  0  0  0  0  0
   47.1920   33.5270   39.9300 C   0  0  0  0  0  0  0  0  0  0  0  0
   46.7600   33.3110   41.1910 N   0  0  0  0  0  0  0  0  0  0  0  0
   47.2320   33.9830   42.2530 C   0  0  0  0  0  0  0  0  0  0  0  0
   48.1800   34.9200   42.0680 N   0  0  0  0  0  0  0  0  0  0  0  0
   49.4100   35.9430   40.7590 H   0  0  0  0  0  0  0  0  0  0  0  0
   46.8460   33.0190   39.0680 H   0  0  0  0  0  0  0  0  0  0  0  0
   48.7460   34.8570   38.4820 N   0  0  0  0  0  0  0  0  0  0  0  0
   49.6590   34.3900   38.2920 H   0  0  0  0  0  0  0  0  0  0  0  0
   48.4070   35.5140   37.7170 H   0  0  0  0  0  0  0  0  0  0  0  0
   45.8620   36.3960   42.3240 H   0  0  0  0  0  0  0  0  0  0  0  0
   45.0440   35.8490   43.2730 S   0  0  0  0  0  0  0  0  0  0  0  0
   44.8030   36.9780   44.2680 O   0  0  0  0  0  0  0  0  0  0  0  0
   43.6910   35.4690   42.7360 O   0  0  0  0  0  0  0  0  0  0  0  0
  1  8  1  0  0  0  0
  2  1  2  0  0  0  0
  2  3  1  0  0  0  0
  3  5  2  0  0  0  0
  4  3  1  0  0  0  0
  5  6  1  0  0  0  0
  5  7  1  0  0  0  0
  8  7  2  0  0  0  0
  9 14  1  0  0  0  0
 10 11  1  0  0  0  0
 10  9  2  0  0  0  0
 11 12  2  0  0  0  0
 12 13  1  0  0  0  0
 13  2  1  0  0  0  0
 14 13  2  0  0  0  0
 15  9  1  0  0  0  0
 16 11  1  0  0  0  0
 17 10  1  0  0  0  0
 18 17  1  0  0  0  0
 19 17  1  0  0  0  0
 20 21  1  0  0  0  0
 21  1  1  0  0  0  0
 21 22  2  0  0  0  0
 23 21  2  0  0  0  0
M  END
>  <minimizedAffinity>
-4.90915012

>  <minimizedRMSD>
4.36259651

$$$$
