
 OpenBabel03252509073D

 44 47  0  0  0  0  0  0  0  0999 V2000
   47.3930   31.7430   39.2470 C   0  0  0  0  0  0  0  0  0  0  0  0
   47.0250   33.0510   39.1340 C   0  0  0  0  0  0  0  0  0  0  0  0
   47.6980   33.8780   38.2510 C   0  0  0  0  0  0  0  0  0  0  0  0
   48.7330   33.4030   37.4900 C   0  0  0  0  0  0  0  0  0  0  0  0
   49.1430   32.0780   37.5730 C   0  0  0  0  0  0  0  0  0  0  0  0
   48.4520   31.2580   38.4680 C   0  0  0  0  0  0  0  0  0  0  0  0
   47.4330   34.9100   38.1380 H   0  0  0  0  0  0  0  0  0  0  0  0
   49.2820   33.9910   36.8000 H   0  0  0  0  0  0  0  0  0  0  0  0
   49.9320   31.6130   37.0280 H   0  0  0  0  0  0  0  0  0  0  0  0
   48.7440   30.2010   38.5640 H   0  0  0  0  0  0  0  0  0  0  0  0
   45.4020   35.7030   43.2580 Cl  0  0  0  0  0  0  0  0  0  0  0  0
   45.1610   34.8460   41.7540 C   0  0  0  0  0  0  0  0  0  0  0  0
   46.2120   34.3140   41.0780 C   0  0  0  0  0  0  0  0  0  0  0  0
   45.9340   33.6620   39.8850 C   0  0  0  0  0  0  0  0  0  0  0  0
   44.6660   33.5650   39.4140 C   0  0  0  0  0  0  0  0  0  0  0  0
   43.6150   34.0930   40.0840 C   0  0  0  0  0  0  0  0  0  0  0  0
   43.8770   34.7410   41.2720 C   0  0  0  0  0  0  0  0  0  0  0  0
   44.4780   33.0620   38.4850 H   0  0  0  0  0  0  0  0  0  0  0  0
   42.6160   33.9970   39.6820 H   0  0  0  0  0  0  0  0  0  0  0  0
   43.0240   35.1610   41.8030 H   0  0  0  0  0  0  0  0  0  0  0  0
   49.6200   35.7360   41.9240 C   0  0  0  0  0  0  0  0  0  0  0  0
   48.3290   35.6010   41.4050 C   0  0  0  0  0  0  0  0  0  0  0  0
   47.5630   34.4630   41.6150 C   0  0  0  0  0  0  0  0  0  0  0  0
   48.1610   33.5180   42.3460 N   0  0  0  0  0  0  0  0  0  0  0  0
   49.3970   33.6360   42.8480 C   0  0  0  0  0  0  0  0  0  0  0  0
   50.1200   34.7340   42.6380 N   0  0  0  0  0  0  0  0  0  0  0  0
   50.1580   36.6340   41.7270 H   0  0  0  0  0  0  0  0  0  0  0  0
   47.9030   36.4150   40.8160 H   0  0  0  0  0  0  0  0  0  0  0  0
   49.6710   32.7430   43.4080 H   0  0  0  0  0  0  0  0  0  0  0  0
   46.6620   30.6990   40.3590 S   0  0  0  0  0  0  0  0  0  0  0  0
   46.7220   29.2530   39.7590 O   0  0  0  0  0  0  0  0  0  0  0  0
   47.5620   30.6120   41.5580 O   0  0  0  0  0  0  0  0  0  0  0  0
   44.4540   30.9080   42.0430 C   0  0  0  0  0  0  0  0  0  0  0  0
   44.9870   30.6850   40.7500 C   0  0  0  0  0  0  0  0  0  0  0  0
   43.9440   30.4620   39.8600 C   0  0  0  0  0  0  0  0  0  0  0  0
   44.1950   30.2950   38.8210 H   0  0  0  0  0  0  0  0  0  0  0  0
   42.5940   30.4450   40.1280 C   0  0  0  0  0  0  0  0  0  0  0  0
   41.8630   30.2600   39.3570 H   0  0  0  0  0  0  0  0  0  0  0  0
   42.2320   30.6740   41.4170 C   0  0  0  0  0  3  0  0  0  0  0  0
   43.1310   30.9130   42.4200 C   0  0  0  0  0  3  0  0  0  0  0  0
   46.8760   31.4050   42.8780 H   0  0  0  0  0  0  0  0  0  0  0  0
   45.6130   31.2900   43.3340 S   0  0  0  0  0  0  0  0  0  0  0  0
   45.6310   30.1530   44.3460 O   0  0  0  0  0  0  0  0  0  0  0  0
   45.0810   32.4720   44.0570 O   0  0  0  0  0  0  0  0  0  0  0  0
  1 30  1  0  0  0  0
  2  1  1  0  0  0  0
  2 14  1  0  0  0  0
  3  2  2  0  0  0  0
  4  5  2  0  0  0  0
  4  3  1  0  0  0  0
  5  6  1  0  0  0  0
  6 10  1  0  0  0  0
  6  1  2  0  0  0  0
  7  3  1  0  0  0  0
  8  4  1  0  0  0  0
  9  5  1  0  0  0  0
 12 11  1  0  0  0  0
 13 23  1  0  0  0  0
 13 12  2  0  0  0  0
 14 13  1  0  0  0  0
 15 14  2  0  0  0  0
 15 16  1  0  0  0  0
 16 17  2  0  0  0  0
 17 12  1  0  0  0  0
 17 20  1  0  0  0  0
 18 15  1  0  0  0  0
 19 16  1  0  0  0  0
 21 26  1  0  0  0  0
 22 23  1  0  0  0  0
 22 21  2  0  0  0  0
 23 24  2  0  0  0  0
 24 25  1  0  0  0  0
 25 29  1  0  0  0  0
 26 25  2  0  0  0  0
 27 21  1  0  0  0  0
 28 22  1  0  0  0  0
 30 34  1  0  0  0  0
 30 32  2  0  0  0  0
 31 30  2  0  0  0  0
 33 40  1  0  0  0  0
 33 42  1  0  0  0  0
 34 33  2  0  0  0  0
 35 37  2  0  0  0  0
 35 34  1  0  0  0  0
 36 35  1  0  0  0  0
 37 39  1  0  0  0  0
 38 37  1  0  0  0  0
 39 40  2  0  0  0  0
 41 42  1  0  0  0  0
 42 44  2  0  0  0  0
 42 43  2  0  0  0  0
M  END
>  <minimizedAffinity>
-4.79409742

>  <minimizedRMSD>
1.35418451

$$$$
