
     RDKit          3D

 45 48  0  0  0  0  0  0  0  0999 V2000
   47.1911   34.5606   42.0141 C   0  0  1  0  0  0  0  0  0  0  0  0
   48.2994   35.4363   41.6976 C   0  0  0  0  0  0  0  0  0  0  0  0
   48.6132   34.1262   42.3415 C   0  0  2  0  0  0  0  0  0  0  0  0
   45.5117   36.0337   43.1911 C   0  0  0  0  0  0  0  0  0  0  0  0
   46.2802   34.8372   43.1532 C   0  0  0  0  0  0  0  0  0  0  0  0
   46.1397   33.9622   44.2142 C   0  0  0  0  0  0  0  0  0  0  0  0
   45.2824   34.3082   45.2092 N   0  0  0  0  0  0  0  0  0  0  0  0
   44.5661   35.4482   45.2201 C   0  0  0  0  0  0  0  0  0  0  0  0
   44.6754   36.3355   44.1958 N   0  0  0  0  0  0  0  0  0  0  0  0
   49.3062   33.1917   41.4947 N   0  0  0  0  0  0  0  0  0  0  0  0
   50.6460   33.1176   41.9884 C   0  0  0  0  0  0  0  0  0  0  0  0
   51.3392   31.8222   41.7875 C   0  0  0  0  0  0  0  0  0  0  0  0
   50.6262   30.7363   42.5345 C   0  0  0  0  0  0  0  0  0  0  0  0
   49.1608   30.9947   42.5557 C   0  0  0  0  0  0  0  0  0  0  0  0
   48.7102   31.8684   41.4583 C   0  0  2  0  0  0  0  0  0  0  0  0
   46.7345   33.8926   41.2398 H   0  0  0  0  0  0  0  0  0  0  0  0
   48.4053   36.3601   42.3333 H   0  0  0  0  0  0  0  0  0  0  0  0
   48.6262   35.6355   40.6678 H   0  0  0  0  0  0  0  0  0  0  0  0
   48.9087   34.1300   43.4052 H   0  0  0  0  0  0  0  0  0  0  0  0
   45.6662   36.6811   42.3281 H   0  0  0  0  0  0  0  0  0  0  0  0
   46.6981   33.0369   44.2409 H   0  0  0  0  0  0  0  0  0  0  0  0
   43.8974   35.6703   46.0418 H   0  0  0  0  0  0  0  0  0  0  0  0
   50.6478   33.3109   43.0978 H   0  0  0  0  0  0  0  0  0  0  0  0
   51.3118   33.9081   41.5327 H   0  0  0  0  0  0  0  0  0  0  0  0
   51.6500   31.5544   40.7840 H   0  0  0  0  0  0  0  0  0  0  0  0
   52.3334   31.9375   42.3444 H   0  0  0  0  0  0  0  0  0  0  0  0
   50.8664   29.7249   42.0918 H   0  0  0  0  0  0  0  0  0  0  0  0
   50.9888   30.6786   43.5835 H   0  0  0  0  0  0  0  0  0  0  0  0
   48.6739   30.0335   42.5801 H   0  0  0  0  0  0  0  0  0  0  0  0
   48.8734   31.5069   43.5170 H   0  0  0  0  0  0  0  0  0  0  0  0
   47.6414   32.1437   41.7545 H   0  0  0  0  0  0  0  0  0  0  0  0
   49.5638   34.5288   39.1188 H   0  0  0  0  0  0  0  0  0  0  0  0
   50.2607   33.3244   39.2055 S   0  0  0  0  0  0  0  0  0  0  0  0
   51.2590   33.3373   40.2931 O   0  0  0  0  0  0  0  0  0  0  0  0
   51.1391   33.4179   37.9508 O   0  0  0  0  0  0  0  0  0  0  0  0
   49.2590   31.9384   39.0642 C   0  0  0  0  0  0  0  0  0  0  0  0
   48.5616   31.3151   40.1143 C   0  0  0  0  0  0  0  0  0  0  0  0
   47.7939   30.1896   39.7742 C   0  0  0  0  0  0  0  0  0  0  0  0
   47.2551   29.6765   40.5591 H   0  0  0  0  0  0  0  0  0  0  0  0
   47.6698   29.6599   38.5315 C   0  0  0  0  0  0  0  0  0  0  0  0
   47.0590   28.7882   38.3397 H   0  0  0  0  0  0  0  0  0  0  0  0
   48.3394   30.2505   37.4948 C   0  0  0  0  0  0  0  0  0  0  0  0
   49.1047   31.3595   37.7926 C   0  0  0  0  0  0  0  0  0  0  0  0
   48.2903   29.8873   36.4782 H   0  0  0  0  0  0  0  0  0  0  0  0
   49.6338   31.8164   36.9398 H   0  0  0  0  0  0  0  0  0  0  0  0
  1  3  1  0
  1  5  1  0
  2  1  1  0
  2  3  1  0
  4  9  2  0
  5  4  1  0
  5  6  2  0
  6  7  1  0
  8  7  2  0
  9  8  1  0
 10 11  1  0
 10  3  1  0
 12 11  1  0
 12 13  1  0
 13 14  1  0
 15 10  1  0
 15 14  1  0
  1 16  1  6
  2 17  1  0
  2 18  1  0
  3 19  1  1
  4 20  1  0
  6 21  1  0
  8 22  1  0
 11 23  1  0
 11 24  1  0
 12 25  1  0
 12 26  1  0
 13 27  1  0
 13 28  1  0
 14 29  1  0
 14 30  1  0
 15 31  1  1
 32 33  1  0
 33 34  2  0
 33 35  2  0
 33 36  1  0
 36 37  2  0
 37 38  1  0
 38 39  1  0
 38 40  2  0
 40 41  1  0
 40 42  1  0
 42 43  2  0
 43 36  1  0
 42 44  1  0
 43 45  1  0
 15 37  1  0
M  ISO  8  16  13  17  13  18  13  19  13  20  14  21  14  22  14  23  13
M  ISO  8  24  13  25  13  26  13  27  13  28  13  29  13  30  13  31  13
M  ISO  3  32  12  39  15  41  16
M  END
>  <DihAtoms>  (1) 
9,14,36,35

>  <DihDeg>  (1) 
-150.7752689494894

$$$$
