
 OpenBabel03252505113D

 47 50  0  0  1  0  0  0  0  0999 V2000
   44.5570   35.5550   44.6010 C   0  0  0  0  0  0  0  0  0  0  0  0
   45.2550   35.6040   43.3750 C   0  0  0  0  0  0  0  0  0  0  0  0
   46.3750   34.7250   43.2120 C   0  0  0  0  0  0  0  0  0  0  0  0
   46.7060   33.9030   44.2260 N   0  0  0  0  0  0  0  0  0  0  0  0
   46.0160   33.8860   45.3800 C   0  0  0  0  0  0  0  0  0  0  0  0
   44.9380   34.7120   45.5760 N   0  0  0  0  0  0  0  0  0  0  0  0
   43.7050   36.2160   44.7390 H   0  0  0  0  0  0  0  0  0  0  0  0
   44.9870   36.2590   42.5740 H   0  0  0  0  0  0  0  0  0  0  0  0
   46.4210   32.9660   46.4650 C   0  0  2  0  0  0  0  0  0  0  0  0
   46.9380   31.7290   45.7600 C   0  0  0  0  0  0  0  0  0  0  0  0
   46.0390   30.5540   45.7790 C   0  0  0  0  0  0  0  0  0  0  0  0
   45.7780   30.2880   47.2570 C   0  0  0  0  0  0  0  0  0  0  0  0
   44.9920   31.3670   47.8770 C   0  0  0  0  0  0  0  0  0  0  0  0
   45.3760   32.7300   47.4210 C   0  0  0  0  0  0  0  0  0  0  0  0
   47.2930   33.4650   46.9620 H   0  0  0  0  0  0  0  0  0  0  0  0
   47.2230   31.9180   44.7030 H   0  0  0  0  0  0  0  0  0  0  0  0
   47.8850   31.4190   46.2490 H   0  0  0  0  0  0  0  0  0  0  0  0
   45.1100   30.6220   45.2160 H   0  0  0  0  0  0  0  0  0  0  0  0
   46.6270   29.6870   45.4290 H   0  0  0  0  0  0  0  0  0  0  0  0
   46.6970   30.0160   47.7760 H   0  0  0  0  0  0  0  0  0  0  0  0
   45.1050   29.4060   47.2620 H   0  0  0  0  0  0  0  0  0  0  0  0
   44.2000   31.3690   48.5880 H   0  0  0  0  0  0  0  0  0  0  0  0
   44.6920   33.8640   47.9350 N   0  0  0  0  0  0  0  0  0  0  0  0
   43.6920   34.0690   47.6910 H   0  0  0  0  0  0  0  0  0  0  0  0
   45.1650   34.5330   48.5750 H   0  0  0  0  0  0  0  0  0  0  0  0
   47.1060   34.7550   41.9550 C   0  0  0  0  0  0  0  0  0  0  0  0
   48.2340   35.5120   41.8960 C   0  0  0  0  0  0  0  0  0  0  0  0
   48.9050   35.5110   40.6610 C   0  0  0  0  0  0  0  0  0  0  0  0
   48.3450   34.7430   39.6470 C   0  0  0  0  0  0  0  0  0  0  0  0
   47.2110   33.9800   39.7030 C   0  0  0  0  0  0  0  0  0  0  0  0
   46.5980   34.0210   40.9330 N   0  0  0  0  0  0  0  0  0  0  0  0
   48.5650   36.0670   42.7630 H   0  0  0  0  0  0  0  0  0  0  0  0
   49.7970   36.1110   40.6190 H   0  0  0  0  0  0  0  0  0  0  0  0
   48.9800   34.8560   38.7830 H   0  0  0  0  0  0  0  0  0  0  0  0
   46.7330   33.2650   38.6720 O   0  0  0  0  0  0  0  0  0  0  0  0
   45.8150   32.4510   36.9040 C   0  0  0  0  0  0  0  0  0  0  0  0
   47.0270   32.9480   37.4340 C   0  0  0  0  0  0  0  0  0  0  0  0
   48.0680   32.9460   36.5500 C   0  0  0  0  0  0  0  0  0  0  0  0
   48.9660   33.3220   36.9690 H   0  0  0  0  0  0  0  0  0  0  0  0
   48.0510   32.5230   35.2450 C   0  0  0  0  0  0  0  0  0  0  0  0
   48.9620   32.5900   34.6850 H   0  0  0  0  0  0  0  0  0  0  0  0
   46.8410   32.0540   34.7960 C   0  0  0  0  0  3  0  0  0  0  0  0
   45.6980   32.0010   35.5920 C   0  0  0  0  0  3  0  0  0  0  0  0
   43.3110   31.8300   36.7710 H   0  0  0  0  0  0  0  0  0  0  0  0
   44.2360   32.2740   37.6830 S   0  0  0  0  0  0  0  0  0  0  0  0
   44.3630   31.3520   38.8390 O   0  0  0  0  0  0  0  0  0  0  0  0
   43.7740   33.6090   38.1590 O   0  0  0  0  0  0  0  0  0  0  0  0
  1  7  1  0  0  0  0
  1  6  1  0  0  0  0
  2  1  2  0  0  0  0
  3  2  1  0  0  0  0
  3  4  2  0  0  0  0
  4  5  1  0  0  0  0
  5  6  2  0  0  0  0
  5  9  1  0  0  0  0
  8  2  1  0  0  0  0
  9 15  1  1  0  0  0
  9 14  1  0  0  0  0
 10 11  1  0  0  0  0
 10 17  1  0  0  0  0
 10  9  1  0  0  0  0
 11 12  1  0  0  0  0
 12 21  1  0  0  0  0
 12 20  1  0  0  0  0
 12 13  1  0  0  0  0
 13 22  1  0  0  0  0
 14 13  2  0  0  0  0
 14 23  1  0  0  0  0
 16 10  1  0  0  0  0
 18 11  1  0  0  0  0
 19 11  1  0  0  0  0
 23 25  1  0  0  0  0
 24 23  1  0  0  0  0
 26  3  1  0  0  0  0
 27 26  1  0  0  0  0
 27 32  1  0  0  0  0
 28 27  2  0  0  0  0
 29 30  2  0  0  0  0
 29 28  1  0  0  0  0
 30 31  1  0  0  0  0
 31 26  2  0  0  0  0
 33 28  1  0  0  0  0
 34 29  1  0  0  0  0
 35 30  1  0  0  0  0
 36 37  1  0  0  0  0
 36 45  1  0  0  0  0
 37 35  1  0  0  0  0
 38 39  1  0  0  0  0
 38 37  2  0  0  0  0
 40 38  1  0  0  0  0
 41 40  1  0  0  0  0
 42 40  2  0  0  0  0
 42 43  1  0  0  0  0
 43 36  2  0  0  0  0
 44 45  1  0  0  0  0
 45 47  2  0  0  0  0
 45 46  2  0  0  0  0
M  END
>  <minimizedAffinity>
-7.32088375

>  <minimizedRMSD>
1.17714036

$$$$
