
 OpenBabel03242519493D

 41 43  0  0  1  0  0  0  0  0999 V2000
   38.9880   30.6570   39.3340 C   0  0  2  0  0  0  0  0  0  0  0  0
   38.9300   32.1330   39.3980 C   0  0  1  0  0  0  0  0  0  0  0  0
   38.2230   32.3950   40.6640 O   0  0  0  0  0  0  0  0  0  0  0  0
   37.0950   31.5990   40.3670 C   0  0  0  0  0  0  0  0  0  0  0  0
   37.7870   30.2400   40.1760 C   0  0  2  0  0  0  0  0  0  0  0  0
   38.9480   30.2250   38.3280 H   0  0  0  0  0  0  0  0  0  0  0  0
   38.2360   32.5170   38.6150 H   0  0  0  0  0  0  0  0  0  0  0  0
   36.2900   31.6420   41.0440 H   0  0  0  0  0  0  0  0  0  0  0  0
   36.8030   31.8910   39.3270 H   0  0  0  0  0  0  0  0  0  0  0  0
   37.0810   29.5920   39.6100 H   0  0  0  0  0  0  0  0  0  0  0  0
   41.8950   33.7680   38.0530 C   0  0  0  0  0  0  0  0  0  0  0  0
   42.6100   34.1580   39.1880 C   0  0  0  0  0  0  0  0  0  0  0  0
   42.0670   33.8470   40.4550 C   0  0  0  0  0  0  0  0  0  0  0  0
   40.8820   33.1890   40.5120 N   0  0  0  0  0  0  0  0  0  0  0  0
   40.2110   32.8240   39.3990 C   0  0  0  0  0  0  0  0  0  0  0  0
   40.7100   33.1100   38.1670 N   0  0  0  0  0  0  0  0  0  0  0  0
   43.5490   34.6790   39.0990 H   0  0  0  0  0  0  0  0  0  0  0  0
   42.5880   34.1290   41.3630 H   0  0  0  0  0  0  0  0  0  0  0  0
   42.3830   34.0510   36.7700 O   0  0  0  0  0  0  0  0  0  0  0  0
   43.2800   34.5250   36.7000 H   0  0  0  0  0  0  0  0  0  0  0  0
   40.1770   30.2050   40.0130 O   0  0  0  0  0  0  0  0  0  0  0  0
   39.9840   30.3560   40.9850 H   0  0  0  0  0  0  0  0  0  0  0  0
   38.1590   29.7730   41.3850 O   0  0  0  0  0  0  0  0  0  0  0  0
   37.1990   29.2890   42.2250 C   0  0  0  0  0  0  0  0  0  0  0  0
   36.6810   28.3920   41.6820 H   0  0  0  0  0  0  0  0  0  0  0  0
   36.4540   29.9830   42.4970 H   0  0  0  0  0  0  0  0  0  0  0  0
   37.7540   28.5330   43.4200 C   0  0  0  0  0  0  0  0  0  0  0  0
   37.1030   28.6320   44.3060 H   0  0  0  0  0  0  0  0  0  0  0  0
   38.7490   28.8670   43.7450 H   0  0  0  0  0  0  0  0  0  0  0  0
   39.2270   26.6200   42.9320 C   0  0  0  0  0  0  0  0  0  0  0  0
   37.9320   27.1280   42.9900 C   0  0  0  0  0  0  0  0  0  0  0  0
   36.9050   26.2790   42.6390 C   0  0  0  0  0  0  0  0  0  0  0  0
   35.8830   26.6180   42.6570 H   0  0  0  0  0  0  0  0  0  0  0  0
   37.0630   24.9710   42.2390 C   0  0  0  0  0  0  0  0  0  0  0  0
   36.2140   24.3410   41.9720 H   0  0  0  0  0  0  0  0  0  0  0  0
   38.3280   24.4300   42.1690 C   0  0  0  0  0  3  0  0  0  0  0  0
   39.3670   25.2860   42.5230 C   0  0  0  0  0  3  0  0  0  0  0  0
   40.6860   28.0620   44.5220 H   0  0  0  0  0  0  0  0  0  0  0  0
   40.7120   27.4380   43.2990 S   0  0  0  0  0  0  0  0  0  0  0  0
   41.8050   26.3770   43.4040 O   0  0  0  0  0  0  0  0  0  0  0  0
   41.1760   28.3930   42.2690 O   0  0  0  0  0  0  0  0  0  0  0  0
  1  6  1  6  0  0  0
  1  2  1  0  0  0  0
  1 21  1  0  0  0  0
  1  5  1  0  0  0  0
  2  7  1  6  0  0  0
  2 15  1  0  0  0  0
  2  3  1  0  0  0  0
  4  3  1  0  0  0  0
  4  8  1  0  0  0  0
  5 10  1  6  0  0  0
  5  4  1  0  0  0  0
  5 23  1  0  0  0  0
  9  4  1  0  0  0  0
 11 16  2  0  0  0  0
 11 12  1  0  0  0  0
 12 13  2  0  0  0  0
 13 14  1  0  0  0  0
 13 18  1  0  0  0  0
 15 14  2  0  0  0  0
 16 15  1  0  0  0  0
 17 12  1  0  0  0  0
 19 11  1  0  0  0  0
 20 19  1  0  0  0  0
 21 22  1  0  0  0  0
 23 24  1  0  0  0  0
 24 26  1  0  0  0  0
 24 27  1  0  0  0  0
 25 24  1  0  0  0  0
 27 29  1  0  0  0  0
 27 28  1  0  0  0  0
 30 31  1  0  0  0  0
 30 39  1  0  0  0  0
 31 27  1  0  0  0  0
 32 33  1  0  0  0  0
 32 31  2  0  0  0  0
 34 32  1  0  0  0  0
 35 34  1  0  0  0  0
 36 34  2  0  0  0  0
 36 37  1  0  0  0  0
 37 30  2  0  0  0  0
 39 40  2  0  0  0  0
 39 38  1  0  0  0  0
 41 39  2  0  0  0  0
M  END
>  <minimizedAffinity>
-5.87518501

$$$$

 OpenBabel03242519493D

 41 43  0  0  1  0  0  0  0  0999 V2000
   38.0710   27.3090   37.9500 C   0  0  2  0  0  0  0  0  0  0  0  0
   36.7760   28.0140   38.0650 C   0  0  1  0  0  0  0  0  0  0  0  0
   36.0430   27.2240   39.0690 O   0  0  0  0  0  0  0  0  0  0  0  0
   36.1790   25.9850   38.4060 C   0  0  0  0  0  0  0  0  0  0  0  0
   37.7120   25.8860   38.3660 C   0  0  2  0  0  0  0  0  0  0  0  0
   38.5370   27.3360   36.9580 H   0  0  0  0  0  0  0  0  0  0  0  0
   36.1880   27.8770   37.1290 H   0  0  0  0  0  0  0  0  0  0  0  0
   35.6510   25.1670   38.8080 H   0  0  0  0  0  0  0  0  0  0  0  0
   35.9050   26.1970   37.3410 H   0  0  0  0  0  0  0  0  0  0  0  0
   37.9710   25.1400   37.5810 H   0  0  0  0  0  0  0  0  0  0  0  0
   36.3200   30.9260   40.2090 C   0  0  0  0  0  0  0  0  0  0  0  0
   36.8960   31.9720   39.4840 C   0  0  0  0  0  0  0  0  0  0  0  0
   37.4540   31.6770   38.2200 C   0  0  0  0  0  0  0  0  0  0  0  0
   37.4050   30.3970   37.7680 N   0  0  0  0  0  0  0  0  0  0  0  0
   36.8420   29.4050   38.4890 C   0  0  0  0  0  0  0  0  0  0  0  0
   36.2980   29.6600   39.7090 N   0  0  0  0  0  0  0  0  0  0  0  0
   36.9140   32.9740   39.8780 H   0  0  0  0  0  0  0  0  0  0  0  0
   37.9110   32.4570   37.6220 H   0  0  0  0  0  0  0  0  0  0  0  0
   35.7530   31.1570   41.4690 O   0  0  0  0  0  0  0  0  0  0  0  0
   35.7580   32.1110   41.8210 H   0  0  0  0  0  0  0  0  0  0  0  0
   38.9820   27.8370   38.9340 O   0  0  0  0  0  0  0  0  0  0  0  0
   38.6400   27.4850   39.8080 H   0  0  0  0  0  0  0  0  0  0  0  0
   38.1570   25.6000   39.6060 O   0  0  0  0  0  0  0  0  0  0  0  0
   37.6750   24.4890   40.2350 C   0  0  0  0  0  0  0  0  0  0  0  0
   38.5800   23.7710   40.4200 H   0  0  0  0  0  0  0  0  0  0  0  0
   36.9380   23.9570   39.7010 H   0  0  0  0  0  0  0  0  0  0  0  0
   37.2830   24.7260   41.6840 C   0  0  0  0  0  0  0  0  0  0  0  0
   36.9010   23.8070   42.1620 H   0  0  0  0  0  0  0  0  0  0  0  0
   36.4960   25.4810   41.8230 H   0  0  0  0  0  0  0  0  0  0  0  0
   38.4260   26.5890   42.8200 C   0  0  0  0  0  0  0  0  0  0  0  0
   38.4770   25.2750   42.3640 C   0  0  0  0  0  0  0  0  0  0  0  0
   39.6460   24.5770   42.5810 C   0  0  0  0  0  0  0  0  0  0  0  0
   39.7470   23.5590   42.2450 H   0  0  0  0  0  0  0  0  0  0  0  0
   40.7600   25.0800   43.2130 C   0  0  0  0  0  0  0  0  0  0  0  0
   41.6620   24.4830   43.3600 H   0  0  0  0  0  0  0  0  0  0  0  0
   40.7500   26.3770   43.6800 C   0  0  0  0  0  3  0  0  0  0  0  0
   39.5710   27.0840   43.4610 C   0  0  0  0  0  3  0  0  0  0  0  0
   36.5120   27.6840   41.4520 H   0  0  0  0  0  0  0  0  0  0  0  0
   37.1130   27.7150   42.6870 S   0  0  0  0  0  0  0  0  0  0  0  0
   36.0350   27.2790   43.6770 O   0  0  0  0  0  0  0  0  0  0  0  0
   37.4430   29.1120   43.0400 O   0  0  0  0  0  0  0  0  0  0  0  0
  1  6  1  6  0  0  0
  1  2  1  0  0  0  0
  1  5  1  0  0  0  0
  1 21  1  0  0  0  0
  2  7  1  6  0  0  0
  2 15  1  0  0  0  0
  2  3  1  0  0  0  0
  4  8  1  0  0  0  0
  4  3  1  0  0  0  0
  5 10  1  6  0  0  0
  5  4  1  0  0  0  0
  5 23  1  0  0  0  0
  9  4  1  0  0  0  0
 11 19  1  0  0  0  0
 12 17  1  0  0  0  0
 12 11  2  0  0  0  0
 13 12  1  0  0  0  0
 14 13  2  0  0  0  0
 14 15  1  0  0  0  0
 15 16  2  0  0  0  0
 16 11  1  0  0  0  0
 18 13  1  0  0  0  0
 19 20  1  0  0  0  0
 21 22  1  0  0  0  0
 23 24  1  0  0  0  0
 24 25  1  0  0  0  0
 24 27  1  0  0  0  0
 26 24  1  0  0  0  0
 27 29  1  0  0  0  0
 27 28  1  0  0  0  0
 27 31  1  0  0  0  0
 30 37  1  0  0  0  0
 31 32  1  0  0  0  0
 31 30  2  0  0  0  0
 32 34  2  0  0  0  0
 33 32  1  0  0  0  0
 34 35  1  0  0  0  0
 34 36  1  0  0  0  0
 37 36  2  0  0  0  0
 38 39  1  0  0  0  0
 39 30  1  0  0  0  0
 39 41  2  0  0  0  0
 39 40  2  0  0  0  0
M  END
>  <minimizedAffinity>
-5.67968798

$$$$

 OpenBabel03242519493D

 41 43  0  0  1  0  0  0  0  0999 V2000
   38.1160   27.1420   38.2270 C   0  0  2  0  0  0  0  0  0  0  0  0
   36.8410   27.8870   38.1410 C   0  0  1  0  0  0  0  0  0  0  0  0
   35.9460   27.1420   39.0430 O   0  0  0  0  0  0  0  0  0  0  0  0
   36.1370   25.8850   38.4310 C   0  0  0  0  0  0  0  0  0  0  0  0
   37.6560   25.7410   38.6150 C   0  0  2  0  0  0  0  0  0  0  0  0
   38.7210   27.1320   37.3130 H   0  0  0  0  0  0  0  0  0  0  0  0
   36.3900   27.7450   37.1320 H   0  0  0  0  0  0  0  0  0  0  0  0
   35.5310   25.0920   38.7680 H   0  0  0  0  0  0  0  0  0  0  0  0
   36.0260   26.0790   37.3340 H   0  0  0  0  0  0  0  0  0  0  0  0
   38.0010   24.9700   37.8910 H   0  0  0  0  0  0  0  0  0  0  0  0
   36.3060   30.8340   40.2170 C   0  0  0  0  0  0  0  0  0  0  0  0
   36.9040   31.8690   39.4950 C   0  0  0  0  0  0  0  0  0  0  0  0
   37.5050   31.5540   38.2550 C   0  0  0  0  0  0  0  0  0  0  0  0
   37.4750   30.2670   37.8240 N   0  0  0  0  0  0  0  0  0  0  0  0
   36.8890   29.2850   38.5420 C   0  0  0  0  0  0  0  0  0  0  0  0
   36.3040   29.5600   39.7390 N   0  0  0  0  0  0  0  0  0  0  0  0
   36.9070   32.8770   39.8720 H   0  0  0  0  0  0  0  0  0  0  0  0
   37.9800   32.3250   37.6600 H   0  0  0  0  0  0  0  0  0  0  0  0
   35.6960   31.0850   41.4530 O   0  0  0  0  0  0  0  0  0  0  0  0
   35.6870   32.0450   41.7880 H   0  0  0  0  0  0  0  0  0  0  0  0
   38.8930   27.6680   39.3220 O   0  0  0  0  0  0  0  0  0  0  0  0
   38.4170   27.3470   40.1440 H   0  0  0  0  0  0  0  0  0  0  0  0
   37.9090   25.4710   39.9120 O   0  0  0  0  0  0  0  0  0  0  0  0
   37.1860   24.4930   40.5300 C   0  0  0  0  0  0  0  0  0  0  0  0
   37.6740   23.4680   40.2480 H   0  0  0  0  0  0  0  0  0  0  0  0
   36.1670   24.4550   40.2660 H   0  0  0  0  0  0  0  0  0  0  0  0
   37.3980   24.4320   42.0340 C   0  0  0  0  0  0  0  0  0  0  0  0
   38.1960   23.7190   42.3070 H   0  0  0  0  0  0  0  0  0  0  0  0
   36.5130   24.1170   42.6040 H   0  0  0  0  0  0  0  0  0  0  0  0
   38.9930   26.1360   42.8210 C   0  0  0  0  0  0  0  0  0  0  0  0
   37.6830   25.8140   42.4810 C   0  0  0  0  0  0  0  0  0  0  0  0
   36.7400   26.8140   42.5860 C   0  0  0  0  0  0  0  0  0  0  0  0
   35.7080   26.6220   42.3430 H   0  0  0  0  0  0  0  0  0  0  0  0
   36.9960   28.1010   42.9990 C   0  0  0  0  0  0  0  0  0  0  0  0
   36.2110   28.8560   43.0640 H   0  0  0  0  0  0  0  0  0  0  0  0
   38.2800   28.4610   43.3450 C   0  0  0  0  0  3  0  0  0  0  0  0
   39.2340   27.4520   43.2410 C   0  0  0  0  0  3  0  0  0  0  0  0
   40.0780   23.7940   43.0910 H   0  0  0  0  0  0  0  0  0  0  0  0
   40.3850   25.1020   42.8030 S   0  0  0  0  0  0  0  0  0  0  0  0
   40.9270   25.0900   41.3760 O   0  0  0  0  0  0  0  0  0  0  0  0
   41.5090   25.5430   43.6570 O   0  0  0  0  0  0  0  0  0  0  0  0
  1  6  1  6  0  0  0
  1  5  1  0  0  0  0
  1 21  1  0  0  0  0
  2  7  1  6  0  0  0
  2  1  1  0  0  0  0
  2 15  1  0  0  0  0
  2  3  1  0  0  0  0
  4  5  1  0  0  0  0
  4  8  1  0  0  0  0
  4  3  1  0  0  0  0
  5 10  1  6  0  0  0
  5 23  1  0  0  0  0
  9  4  1  0  0  0  0
 11 19  1  0  0  0  0
 12 17  1  0  0  0  0
 12 11  2  0  0  0  0
 13 12  1  0  0  0  0
 14 13  2  0  0  0  0
 14 15  1  0  0  0  0
 15 16  2  0  0  0  0
 16 11  1  0  0  0  0
 18 13  1  0  0  0  0
 19 20  1  0  0  0  0
 21 22  1  0  0  0  0
 23 24  1  0  0  0  0
 24 27  1  0  0  0  0
 25 24  1  0  0  0  0
 26 24  1  0  0  0  0
 27 28  1  0  0  0  0
 27 31  1  0  0  0  0
 27 29  1  0  0  0  0
 30 37  1  0  0  0  0
 31 32  1  0  0  0  0
 31 30  2  0  0  0  0
 32 34  2  0  0  0  0
 33 32  1  0  0  0  0
 34 35  1  0  0  0  0
 34 36  1  0  0  0  0
 37 36  2  0  0  0  0
 39 30  1  0  0  0  0
 39 38  1  0  0  0  0
 39 41  2  0  0  0  0
 40 39  2  0  0  0  0
M  END
>  <minimizedAffinity>
-5.65864086

$$$$

 OpenBabel03242519493D

 41 43  0  0  1  0  0  0  0  0999 V2000
   39.0200   30.4870   38.5170 C   0  0  2  0  0  0  0  0  0  0  0  0
   38.8670   31.9520   38.6460 C   0  0  1  0  0  0  0  0  0  0  0  0
   37.9940   32.1040   39.8220 O   0  0  0  0  0  0  0  0  0  0  0  0
   36.9610   31.2680   39.3460 C   0  0  0  0  0  0  0  0  0  0  0  0
   37.7500   29.9600   39.1770 C   0  0  2  0  0  0  0  0  0  0  0  0
   39.1310   30.1110   37.4930 H   0  0  0  0  0  0  0  0  0  0  0  0
   38.2540   32.3420   37.8000 H   0  0  0  0  0  0  0  0  0  0  0  0
   36.0760   31.2300   39.9160 H   0  0  0  0  0  0  0  0  0  0  0  0
   36.7840   31.6030   38.2920 H   0  0  0  0  0  0  0  0  0  0  0  0
   37.1600   29.3090   38.4940 H   0  0  0  0  0  0  0  0  0  0  0  0
   41.9320   33.7190   37.7760 C   0  0  0  0  0  0  0  0  0  0  0  0
   42.4280   34.1610   39.0040 C   0  0  0  0  0  0  0  0  0  0  0  0
   41.6960   33.8410   40.1710 C   0  0  0  0  0  0  0  0  0  0  0  0
   40.5510   33.1230   40.0450 N   0  0  0  0  0  0  0  0  0  0  0  0
   40.0950   32.7080   38.8440 C   0  0  0  0  0  0  0  0  0  0  0  0
   40.7790   33.0020   37.7060 N   0  0  0  0  0  0  0  0  0  0  0  0
   43.3410   34.7290   39.0610 H   0  0  0  0  0  0  0  0  0  0  0  0
   42.0430   34.1620   41.1450 H   0  0  0  0  0  0  0  0  0  0  0  0
   42.6140   34.0070   36.5860 O   0  0  0  0  0  0  0  0  0  0  0  0
   43.4860   34.5260   36.6550 H   0  0  0  0  0  0  0  0  0  0  0  0
   40.1400   30.0600   39.3180 O   0  0  0  0  0  0  0  0  0  0  0  0
   39.8200   30.1450   40.2640 H   0  0  0  0  0  0  0  0  0  0  0  0
   37.9970   29.4460   40.3990 O   0  0  0  0  0  0  0  0  0  0  0  0
   37.0140   29.5010   41.3440 C   0  0  0  0  0  0  0  0  0  0  0  0
   36.3330   28.5620   41.1940 H   0  0  0  0  0  0  0  0  0  0  0  0
   36.4030   30.3590   41.3030 H   0  0  0  0  0  0  0  0  0  0  0  0
   37.4990   29.2000   42.7520 C   0  0  0  0  0  0  0  0  0  0  0  0
   37.2290   28.1780   43.0690 H   0  0  0  0  0  0  0  0  0  0  0  0
   37.0910   29.8670   43.5240 H   0  0  0  0  0  0  0  0  0  0  0  0
   39.8040   28.3370   42.8750 C   0  0  0  0  0  0  0  0  0  0  0  0
   38.9600   29.4390   42.7590 C   0  0  0  0  0  0  0  0  0  0  0  0
   39.5530   30.6790   42.6580 C   0  0  0  0  0  0  0  0  0  0  0  0
   38.9520   31.5690   42.5730 H   0  0  0  0  0  0  0  0  0  0  0  0
   40.9100   30.9090   42.6630 C   0  0  0  0  0  0  0  0  0  0  0  0
   41.3280   31.9130   42.5800 H   0  0  0  0  0  0  0  0  0  0  0  0
   41.7790   29.8460   42.7770 C   0  0  0  0  0  3  0  0  0  0  0  0
   41.1820   28.5920   42.8790 C   0  0  0  0  0  3  0  0  0  0  0  0
   38.1530   26.4940   43.6580 H   0  0  0  0  0  0  0  0  0  0  0  0
   39.3620   26.6670   43.0290 S   0  0  0  0  0  0  0  0  0  0  0  0
   39.1730   26.1130   41.6190 O   0  0  0  0  0  0  0  0  0  0  0  0
   40.3780   25.8030   43.6680 O   0  0  0  0  0  0  0  0  0  0  0  0
  1  6  1  6  0  0  0
  1  2  1  0  0  0  0
  1  5  1  0  0  0  0
  1 21  1  0  0  0  0
  2  7  1  6  0  0  0
  2 15  1  0  0  0  0
  2  3  1  0  0  0  0
  4  3  1  0  0  0  0
  4  8  1  0  0  0  0
  5 10  1  6  0  0  0
  5  4  1  0  0  0  0
  5 23  1  0  0  0  0
  9  4  1  0  0  0  0
 11 12  1  0  0  0  0
 12 17  1  0  0  0  0
 12 13  2  0  0  0  0
 13 18  1  0  0  0  0
 14 13  1  0  0  0  0
 15 14  2  0  0  0  0
 16 11  2  0  0  0  0
 16 15  1  0  0  0  0
 19 20  1  0  0  0  0
 19 11  1  0  0  0  0
 21 22  1  0  0  0  0
 23 24  1  0  0  0  0
 24 27  1  0  0  0  0
 25 24  1  0  0  0  0
 26 24  1  0  0  0  0
 27 31  1  0  0  0  0
 27 28  1  0  0  0  0
 27 29  1  0  0  0  0
 30 37  1  0  0  0  0
 30 39  1  0  0  0  0
 31 30  2  0  0  0  0
 32 34  2  0  0  0  0
 32 31  1  0  0  0  0
 33 32  1  0  0  0  0
 34 36  1  0  0  0  0
 35 34  1  0  0  0  0
 36 37  2  0  0  0  0
 39 38  1  0  0  0  0
 39 41  2  0  0  0  0
 40 39  2  0  0  0  0
M  END
>  <minimizedAffinity>
-5.48431444

$$$$

 OpenBabel03242519493D

 41 43  0  0  1  0  0  0  0  0999 V2000
   35.8290   29.6860   40.5280 C   0  0  2  0  0  0  0  0  0  0  0  0
   36.2310   30.3810   39.2860 C   0  0  1  0  0  0  0  0  0  0  0  0
   37.6850   30.5540   39.4450 O   0  0  0  0  0  0  0  0  0  0  0  0
   37.6180   31.2060   40.6950 C   0  0  0  0  0  0  0  0  0  0  0  0
   36.9120   30.1130   41.5140 C   0  0  2  0  0  0  0  0  0  0  0  0
   34.8260   29.9240   40.9000 H   0  0  0  0  0  0  0  0  0  0  0  0
   35.8310   31.4210   39.2900 H   0  0  0  0  0  0  0  0  0  0  0  0
   38.5170   31.5950   41.0800 H   0  0  0  0  0  0  0  0  0  0  0  0
   36.8260   31.9880   40.5690 H   0  0  0  0  0  0  0  0  0  0  0  0
   36.4880   30.6050   42.4170 H   0  0  0  0  0  0  0  0  0  0  0  0
   36.9020   28.7290   36.1080 C   0  0  0  0  0  0  0  0  0  0  0  0
   35.6420   28.3220   35.6660 C   0  0  0  0  0  0  0  0  0  0  0  0
   34.5230   28.6260   36.4750 C   0  0  0  0  0  0  0  0  0  0  0  0
   34.7230   29.2960   37.6380 N   0  0  0  0  0  0  0  0  0  0  0  0
   35.9530   29.6770   38.0420 C   0  0  0  0  0  0  0  0  0  0  0  0
   37.0470   29.3980   37.2840 N   0  0  0  0  0  0  0  0  0  0  0  0
   35.5260   27.7930   34.7350 H   0  0  0  0  0  0  0  0  0  0  0  0
   33.5260   28.3310   36.1710 H   0  0  0  0  0  0  0  0  0  0  0  0
   38.0480   28.4550   35.3500 O   0  0  0  0  0  0  0  0  0  0  0  0
   37.9230   27.9730   34.4630 H   0  0  0  0  0  0  0  0  0  0  0  0
   35.9520   28.2630   40.3310 O   0  0  0  0  0  0  0  0  0  0  0  0
   36.9400   28.0960   40.3190 H   0  0  0  0  0  0  0  0  0  0  0  0
   37.7910   29.1190   41.7530 O   0  0  0  0  0  0  0  0  0  0  0  0
   37.9030   28.6370   43.0240 C   0  0  0  0  0  0  0  0  0  0  0  0
   37.0050   27.9090   43.2020 H   0  0  0  0  0  0  0  0  0  0  0  0
   37.8880   29.3680   43.7830 H   0  0  0  0  0  0  0  0  0  0  0  0
   39.0350   27.6380   43.2040 C   0  0  0  0  0  0  0  0  0  0  0  0
   39.3410   27.5500   44.2610 H   0  0  0  0  0  0  0  0  0  0  0  0
   39.9500   27.8870   42.6500 H   0  0  0  0  0  0  0  0  0  0  0  0
   39.5120   25.5040   42.0700 C   0  0  0  0  0  0  0  0  0  0  0  0
   38.5650   26.3560   42.6310 C   0  0  0  0  0  0  0  0  0  0  0  0
   37.2520   25.9400   42.6120 C   0  0  0  0  0  0  0  0  0  0  0  0
   36.4740   26.5600   43.0250 H   0  0  0  0  0  0  0  0  0  0  0  0
   36.8070   24.7500   42.0830 C   0  0  0  0  0  0  0  0  0  0  0  0
   35.7540   24.4680   42.0940 H   0  0  0  0  0  0  0  0  0  0  0  0
   37.7120   23.8780   41.5180 C   0  0  0  0  0  3  0  0  0  0  0  0
   39.0400   24.2960   41.5360 C   0  0  0  0  0  3  0  0  0  0  0  0
   41.5760   27.0760   42.0110 H   0  0  0  0  0  0  0  0  0  0  0  0
   41.2230   25.7500   41.9350 S   0  0  0  0  0  0  0  0  0  0  0  0
   41.8780   25.0830   43.1430 O   0  0  0  0  0  0  0  0  0  0  0  0
   41.8560   25.1400   40.7460 O   0  0  0  0  0  0  0  0  0  0  0  0
  1  6  1  1  0  0  0
  1  5  1  0  0  0  0
  2  7  1  6  0  0  0
  2  3  1  0  0  0  0
  2  1  1  0  0  0  0
  3  4  1  0  0  0  0
  4  8  1  0  0  0  0
  4  5  1  0  0  0  0
  5 23  1  0  0  0  0
  5 10  1  1  0  0  0
  9  4  1  0  0  0  0
 11 16  1  0  0  0  0
 12 11  2  0  0  0  0
 12 13  1  0  0  0  0
 13 14  2  0  0  0  0
 14 15  1  0  0  0  0
 15  2  1  0  0  0  0
 16 15  2  0  0  0  0
 17 12  1  0  0  0  0
 18 13  1  0  0  0  0
 19 11  1  0  0  0  0
 20 19  1  0  0  0  0
 21  1  1  0  0  0  0
 22 21  1  0  0  0  0
 23 24  1  0  0  0  0
 24 25  1  0  0  0  0
 24 27  1  0  0  0  0
 24 26  1  0  0  0  0
 27 28  1  0  0  0  0
 29 27  1  0  0  0  0
 30 31  1  0  0  0  0
 31 27  1  0  0  0  0
 32 31  2  0  0  0  0
 32 33  1  0  0  0  0
 34 35  1  0  0  0  0
 34 32  1  0  0  0  0
 36 37  1  0  0  0  0
 36 34  2  0  0  0  0
 37 30  2  0  0  0  0
 39 38  1  0  0  0  0
 39 30  1  0  0  0  0
 39 40  2  0  0  0  0
 41 39  2  0  0  0  0
M  END
>  <minimizedAffinity>
-5.3778553

$$$$

 OpenBabel03242519493D

 41 43  0  0  1  0  0  0  0  0999 V2000
   38.8590   29.6730   38.1720 C   0  0  2  0  0  0  0  0  0  0  0  0
   38.5450   31.0740   37.8190 C   0  0  1  0  0  0  0  0  0  0  0  0
   37.1210   31.2060   38.1690 O   0  0  0  0  0  0  0  0  0  0  0  0
   36.6800   30.1090   37.3980 C   0  0  0  0  0  0  0  0  0  0  0  0
   37.5000   28.9890   38.0580 C   0  0  2  0  0  0  0  0  0  0  0  0
   39.6130   29.1840   37.5450 H   0  0  0  0  0  0  0  0  0  0  0  0
   38.5660   31.1970   36.7120 H   0  0  0  0  0  0  0  0  0  0  0  0
   35.6390   29.9660   37.3220 H   0  0  0  0  0  0  0  0  0  0  0  0
   37.1730   30.2410   36.4020 H   0  0  0  0  0  0  0  0  0  0  0  0
   37.5180   28.1340   37.3450 H   0  0  0  0  0  0  0  0  0  0  0  0
   39.3380   33.6060   40.3160 C   0  0  0  0  0  0  0  0  0  0  0  0
   40.6260   34.0250   39.9760 C   0  0  0  0  0  0  0  0  0  0  0  0
   41.2440   33.4290   38.8530 C   0  0  0  0  0  0  0  0  0  0  0  0
   40.5620   32.4810   38.1610 N   0  0  0  0  0  0  0  0  0  0  0  0
   39.3170   32.0950   38.5120 C   0  0  0  0  0  0  0  0  0  0  0  0
   38.6990   32.6520   39.5880 N   0  0  0  0  0  0  0  0  0  0  0  0
   41.1330   34.7810   40.5520 H   0  0  0  0  0  0  0  0  0  0  0  0
   42.2420   33.7230   38.5510 H   0  0  0  0  0  0  0  0  0  0  0  0
   38.6760   34.1600   41.4200 O   0  0  0  0  0  0  0  0  0  0  0  0
   39.1570   34.8870   41.9430 H   0  0  0  0  0  0  0  0  0  0  0  0
   39.2630   29.6160   39.5550 O   0  0  0  0  0  0  0  0  0  0  0  0
   38.4170   29.7680   40.0700 H   0  0  0  0  0  0  0  0  0  0  0  0
   36.9700   28.7230   39.2680 O   0  0  0  0  0  0  0  0  0  0  0  0
   36.0680   27.7050   39.3790 C   0  0  0  0  0  0  0  0  0  0  0  0
   35.8860   27.2810   38.3030 H   0  0  0  0  0  0  0  0  0  0  0  0
   35.1340   27.9770   39.7860 H   0  0  0  0  0  0  0  0  0  0  0  0
   36.6350   26.4490   40.0180 C   0  0  0  0  0  0  0  0  0  0  0  0
   37.3200   25.9140   39.3360 H   0  0  0  0  0  0  0  0  0  0  0  0
   35.8780   25.7100   40.3150 H   0  0  0  0  0  0  0  0  0  0  0  0
   38.6720   26.7450   41.3710 C   0  0  0  0  0  0  0  0  0  0  0  0
   37.2890   26.8700   41.2770 C   0  0  0  0  0  0  0  0  0  0  0  0
   36.6260   27.3800   42.3720 C   0  0  0  0  0  0  0  0  0  0  0  0
   35.5550   27.4930   42.3620 H   0  0  0  0  0  0  0  0  0  0  0  0
   37.2270   27.7750   43.5460 C   0  0  0  0  0  0  0  0  0  0  0  0
   36.6540   28.1730   44.3850 H   0  0  0  0  0  0  0  0  0  0  0  0
   38.5940   27.6670   43.6800 C   0  0  0  0  0  3  0  0  0  0  0  0
   39.2660   27.1520   42.5740 C   0  0  0  0  0  3  0  0  0  0  0  0
   39.2080   26.0560   38.9270 H   0  0  0  0  0  0  0  0  0  0  0  0
   39.7720   26.1330   40.1770 S   0  0  0  0  0  0  0  0  0  0  0  0
   40.9140   27.1390   40.0490 O   0  0  0  0  0  0  0  0  0  0  0  0
   40.4090   24.8410   40.5110 O   0  0  0  0  0  0  0  0  0  0  0  0
  1  6  1  6  0  0  0
  1 21  1  0  0  0  0
  2  7  1  6  0  0  0
  2  3  1  0  0  0  0
  2  1  1  0  0  0  0
  2 15  1  0  0  0  0
  4  5  1  0  0  0  0
  4  3  1  0  0  0  0
  5 10  1  6  0  0  0
  5  1  1  0  0  0  0
  5 23  1  0  0  0  0
  8  4  1  0  0  0  0
  9  4  1  0  0  0  0
 11 19  1  0  0  0  0
 12 11  1  0  0  0  0
 12 17  1  0  0  0  0
 13 12  2  0  0  0  0
 14 15  2  0  0  0  0
 14 13  1  0  0  0  0
 15 16  1  0  0  0  0
 16 11  2  0  0  0  0
 18 13  1  0  0  0  0
 19 20  1  0  0  0  0
 21 22  1  0  0  0  0
 23 24  1  0  0  0  0
 24 26  1  0  0  0  0
 24 27  1  0  0  0  0
 25 24  1  0  0  0  0
 27 29  1  0  0  0  0
 27 31  1  0  0  0  0
 28 27  1  0  0  0  0
 30 37  1  0  0  0  0
 31 30  2  0  0  0  0
 31 32  1  0  0  0  0
 32 34  2  0  0  0  0
 33 32  1  0  0  0  0
 34 36  1  0  0  0  0
 34 35  1  0  0  0  0
 37 36  2  0  0  0  0
 38 39  1  0  0  0  0
 39 41  2  0  0  0  0
 39 30  1  0  0  0  0
 40 39  2  0  0  0  0
M  END
>  <minimizedAffinity>
-5.31082916

$$$$

 OpenBabel03242519493D

 41 43  0  0  1  0  0  0  0  0999 V2000
   39.1620   29.7640   37.6920 C   0  0  2  0  0  0  0  0  0  0  0  0
   38.8610   31.2020   37.5270 C   0  0  1  0  0  0  0  0  0  0  0  0
   37.5520   31.3580   38.1830 O   0  0  0  0  0  0  0  0  0  0  0  0
   36.8970   30.3520   37.4400 C   0  0  0  0  0  0  0  0  0  0  0  0
   37.7720   29.1470   37.8170 C   0  0  2  0  0  0  0  0  0  0  0  0
   39.7380   29.3050   36.8800 H   0  0  0  0  0  0  0  0  0  0  0  0
   38.6550   31.4240   36.4540 H   0  0  0  0  0  0  0  0  0  0  0  0
   35.8570   30.2580   37.5770 H   0  0  0  0  0  0  0  0  0  0  0  0
   37.1770   30.5540   36.3750 H   0  0  0  0  0  0  0  0  0  0  0  0
   37.5910   28.3600   37.0510 H   0  0  0  0  0  0  0  0  0  0  0  0
   41.6500   33.5420   37.6890 C   0  0  0  0  0  0  0  0  0  0  0  0
   41.6940   33.9230   39.0320 C   0  0  0  0  0  0  0  0  0  0  0  0
   40.7460   33.3580   39.9140 C   0  0  0  0  0  0  0  0  0  0  0  0
   39.8390   32.4770   39.4200 N   0  0  0  0  0  0  0  0  0  0  0  0
   39.8190   32.1270   38.1170 C   0  0  0  0  0  0  0  0  0  0  0  0
   40.7190   32.6550   37.2450 N   0  0  0  0  0  0  0  0  0  0  0  0
   42.4300   34.6250   39.3840 H   0  0  0  0  0  0  0  0  0  0  0  0
   40.7430   33.6240   40.9650 H   0  0  0  0  0  0  0  0  0  0  0  0
   42.5630   34.0700   36.7670 O   0  0  0  0  0  0  0  0  0  0  0  0
   43.2670   34.7170   37.1160 H   0  0  0  0  0  0  0  0  0  0  0  0
   39.8430   29.5680   38.9470 O   0  0  0  0  0  0  0  0  0  0  0  0
   39.1340   29.7050   39.6420 H   0  0  0  0  0  0  0  0  0  0  0  0
   37.4940   28.7930   39.0880 O   0  0  0  0  0  0  0  0  0  0  0  0
   36.3520   28.0890   39.3370 C   0  0  0  0  0  0  0  0  0  0  0  0
   35.9410   27.7160   38.3070 H   0  0  0  0  0  0  0  0  0  0  0  0
   35.5880   28.6320   39.8180 H   0  0  0  0  0  0  0  0  0  0  0  0
   36.5950   26.7340   39.9800 C   0  0  0  0  0  0  0  0  0  0  0  0
   37.1450   26.0520   39.3080 H   0  0  0  0  0  0  0  0  0  0  0  0
   35.6800   26.1960   40.2630 H   0  0  0  0  0  0  0  0  0  0  0  0
   38.6160   26.5220   41.3740 C   0  0  0  0  0  0  0  0  0  0  0  0
   37.3100   26.9880   41.2510 C   0  0  0  0  0  0  0  0  0  0  0  0
   36.7750   27.6570   42.3310 C   0  0  0  0  0  0  0  0  0  0  0  0
   35.7660   28.0340   42.2980 H   0  0  0  0  0  0  0  0  0  0  0  0
   37.4330   27.8980   43.5160 C   0  0  0  0  0  0  0  0  0  0  0  0
   36.9620   28.4350   44.3410 H   0  0  0  0  0  0  0  0  0  0  0  0
   38.7270   27.4540   43.6770 C   0  0  0  0  0  3  0  0  0  0  0  0
   39.2690   26.7780   42.5880 C   0  0  0  0  0  3  0  0  0  0  0  0
   38.7910   24.7660   39.4710 H   0  0  0  0  0  0  0  0  0  0  0  0
   39.5500   25.6450   40.2050 S   0  0  0  0  0  0  0  0  0  0  0  0
   40.0900   26.6580   39.1980 O   0  0  0  0  0  0  0  0  0  0  0  0
   40.7340   24.9420   40.7440 O   0  0  0  0  0  0  0  0  0  0  0  0
  1  6  1  6  0  0  0
  1  5  1  0  0  0  0
  1 21  1  0  0  0  0
  2  7  1  6  0  0  0
  2  1  1  0  0  0  0
  2 15  1  0  0  0  0
  2  3  1  0  0  0  0
  4  8  1  0  0  0  0
  4  5  1  0  0  0  0
  4  3  1  0  0  0  0
  5 10  1  6  0  0  0
  5 23  1  0  0  0  0
  9  4  1  0  0  0  0
 11 12  1  0  0  0  0
 12 17  1  0  0  0  0
 12 13  2  0  0  0  0
 13 18  1  0  0  0  0
 14 13  1  0  0  0  0
 15 14  2  0  0  0  0
 16 11  2  0  0  0  0
 16 15  1  0  0  0  0
 19 20  1  0  0  0  0
 19 11  1  0  0  0  0
 21 22  1  0  0  0  0
 23 24  1  0  0  0  0
 24 26  1  0  0  0  0
 24 27  1  0  0  0  0
 25 24  1  0  0  0  0
 27 29  1  0  0  0  0
 27 31  1  0  0  0  0
 28 27  1  0  0  0  0
 30 37  1  0  0  0  0
 31 30  2  0  0  0  0
 31 32  1  0  0  0  0
 32 34  2  0  0  0  0
 33 32  1  0  0  0  0
 34 36  1  0  0  0  0
 34 35  1  0  0  0  0
 37 36  2  0  0  0  0
 38 39  1  0  0  0  0
 39 41  2  0  0  0  0
 39 30  1  0  0  0  0
 40 39  2  0  0  0  0
M  END
>  <minimizedAffinity>
-5.29234266

$$$$

 OpenBabel03242519493D

 41 43  0  0  1  0  0  0  0  0999 V2000
   36.4290   30.2440   38.3510 C   0  0  2  0  0  0  0  0  0  0  0  0
   36.2020   30.9420   39.6350 C   0  0  1  0  0  0  0  0  0  0  0  0
   36.1470   29.8460   40.6170 O   0  0  0  0  0  0  0  0  0  0  0  0
   35.1360   29.1130   39.9590 C   0  0  0  0  0  0  0  0  0  0  0  0
   35.8370   28.8630   38.6150 C   0  0  2  0  0  0  0  0  0  0  0  0
   35.9800   30.7160   37.4700 H   0  0  0  0  0  0  0  0  0  0  0  0
   35.1750   31.3750   39.6510 H   0  0  0  0  0  0  0  0  0  0  0  0
   34.7460   28.2760   40.4650 H   0  0  0  0  0  0  0  0  0  0  0  0
   34.3500   29.8700   39.7060 H   0  0  0  0  0  0  0  0  0  0  0  0
   35.0460   28.5970   37.8780 H   0  0  0  0  0  0  0  0  0  0  0  0
   39.1330   32.2520   41.3580 C   0  0  0  0  0  0  0  0  0  0  0  0
   39.2530   33.5580   40.8760 C   0  0  0  0  0  0  0  0  0  0  0  0
   38.2980   34.0100   39.9370 C   0  0  0  0  0  0  0  0  0  0  0  0
   37.3150   33.1600   39.5470 N   0  0  0  0  0  0  0  0  0  0  0  0
   37.2230   31.9030   40.0280 C   0  0  0  0  0  0  0  0  0  0  0  0
   38.1270   31.4410   40.9330 N   0  0  0  0  0  0  0  0  0  0  0  0
   40.0490   34.2010   41.2120 H   0  0  0  0  0  0  0  0  0  0  0  0
   38.3510   35.0160   39.5380 H   0  0  0  0  0  0  0  0  0  0  0  0
   40.0510   31.7480   42.2890 O   0  0  0  0  0  0  0  0  0  0  0  0
   40.7860   32.3720   42.6140 H   0  0  0  0  0  0  0  0  0  0  0  0
   37.8480   30.0810   38.1500 O   0  0  0  0  0  0  0  0  0  0  0  0
   38.1160   29.3780   38.8110 H   0  0  0  0  0  0  0  0  0  0  0  0
   36.7960   27.9330   38.7960 O   0  0  0  0  0  0  0  0  0  0  0  0
   36.4340   26.6990   39.2520 C   0  0  0  0  0  0  0  0  0  0  0  0
   36.4320   25.9740   38.3340 H   0  0  0  0  0  0  0  0  0  0  0  0
   35.4860   26.6520   39.7090 H   0  0  0  0  0  0  0  0  0  0  0  0
   37.5090   26.0090   40.0750 C   0  0  0  0  0  0  0  0  0  0  0  0
   38.4510   25.8980   39.5100 H   0  0  0  0  0  0  0  0  0  0  0  0
   37.2440   24.9970   40.4100 H   0  0  0  0  0  0  0  0  0  0  0  0
   38.8280   27.5650   41.4580 C   0  0  0  0  0  0  0  0  0  0  0  0
   37.6720   26.8030   41.3140 C   0  0  0  0  0  0  0  0  0  0  0  0
   36.7570   26.8440   42.3440 C   0  0  0  0  0  0  0  0  0  0  0  0
   35.8470   26.2700   42.2940 H   0  0  0  0  0  0  0  0  0  0  0  0
   36.9010   27.5800   43.4990 C   0  0  0  0  0  0  0  0  0  0  0  0
   36.1440   27.5770   44.2850 H   0  0  0  0  0  0  0  0  0  0  0  0
   38.0310   28.3470   43.6800 C   0  0  0  0  0  3  0  0  0  0  0  0
   38.9560   28.3070   42.6400 C   0  0  0  0  0  3  0  0  0  0  0  0
   40.1460   26.7350   39.3820 H   0  0  0  0  0  0  0  0  0  0  0  0
   40.1550   27.7090   40.3500 S   0  0  0  0  0  0  0  0  0  0  0  0
   39.9850   29.0300   39.6030 O   0  0  0  0  0  0  0  0  0  0  0  0
   41.4940   27.7690   40.9750 O   0  0  0  0  0  0  0  0  0  0  0  0
  1  6  1  6  0  0  0
  1  5  1  0  0  0  0
  1  2  1  0  0  0  0
  2  7  1  6  0  0  0
  2 15  1  0  0  0  0
  2  3  1  0  0  0  0
  4  8  1  0  0  0  0
  4  3  1  0  0  0  0
  5 10  1  6  0  0  0
  5 23  1  0  0  0  0
  5  4  1  0  0  0  0
  9  4  1  0  0  0  0
 11 19  1  0  0  0  0
 12 17  1  0  0  0  0
 12 11  2  0  0  0  0
 13 12  1  0  0  0  0
 14 13  2  0  0  0  0
 14 15  1  0  0  0  0
 15 16  2  0  0  0  0
 16 11  1  0  0  0  0
 18 13  1  0  0  0  0
 19 20  1  0  0  0  0
 21  1  1  0  0  0  0
 21 22  1  0  0  0  0
 23 24  1  0  0  0  0
 24 26  1  0  0  0  0
 24 27  1  0  0  0  0
 25 24  1  0  0  0  0
 27 29  1  0  0  0  0
 27 31  1  0  0  0  0
 28 27  1  0  0  0  0
 30 37  1  0  0  0  0
 31 30  2  0  0  0  0
 31 32  1  0  0  0  0
 32 34  2  0  0  0  0
 33 32  1  0  0  0  0
 34 36  1  0  0  0  0
 34 35  1  0  0  0  0
 37 36  2  0  0  0  0
 38 39  1  0  0  0  0
 39 41  2  0  0  0  0
 39 30  1  0  0  0  0
 40 39  2  0  0  0  0
M  END
>  <minimizedAffinity>
-5.25884485

$$$$

 OpenBabel03242519493D

 41 43  0  0  1  0  0  0  0  0999 V2000
   36.4010   28.3950   41.9390 C   0  0  2  0  0  0  0  0  0  0  0  0
   37.6270   29.2050   42.1050 C   0  0  1  0  0  0  0  0  0  0  0  0
   38.6880   28.1950   42.2630 O   0  0  0  0  0  0  0  0  0  0  0  0
   38.0760   27.5090   43.3350 C   0  0  0  0  0  0  0  0  0  0  0  0
   36.7600   27.0970   42.6550 C   0  0  2  0  0  0  0  0  0  0  0  0
   35.4830   28.8390   42.3410 H   0  0  0  0  0  0  0  0  0  0  0  0
   37.6020   29.7290   43.0890 H   0  0  0  0  0  0  0  0  0  0  0  0
   38.6390   26.7500   43.8000 H   0  0  0  0  0  0  0  0  0  0  0  0
   37.7600   28.3130   44.0470 H   0  0  0  0  0  0  0  0  0  0  0  0
   36.0380   26.8500   43.4650 H   0  0  0  0  0  0  0  0  0  0  0  0
   37.4950   32.1700   39.9920 C   0  0  0  0  0  0  0  0  0  0  0  0
   38.4620   31.9310   39.0130 C   0  0  0  0  0  0  0  0  0  0  0  0
   39.1810   30.7150   39.0710 C   0  0  0  0  0  0  0  0  0  0  0  0
   38.9000   29.8400   40.0700 N   0  0  0  0  0  0  0  0  0  0  0  0
   37.9590   30.0960   41.0030 C   0  0  0  0  0  0  0  0  0  0  0  0
   37.2530   31.2580   40.9720 N   0  0  0  0  0  0  0  0  0  0  0  0
   38.6550   32.6520   38.2370 H   0  0  0  0  0  0  0  0  0  0  0  0
   39.9400   30.4870   38.3320 H   0  0  0  0  0  0  0  0  0  0  0  0
   36.7530   33.3590   39.9870 O   0  0  0  0  0  0  0  0  0  0  0  0
   36.9290   34.0220   39.2360 H   0  0  0  0  0  0  0  0  0  0  0  0
   36.2260   28.0900   40.5410 O   0  0  0  0  0  0  0  0  0  0  0  0
   36.9400   27.4170   40.3390 H   0  0  0  0  0  0  0  0  0  0  0  0
   37.0190   26.1000   41.7850 O   0  0  0  0  0  0  0  0  0  0  0  0
   36.9990   24.8130   42.2390 C   0  0  0  0  0  0  0  0  0  0  0  0
   36.0030   24.3270   41.8630 H   0  0  0  0  0  0  0  0  0  0  0  0
   37.0400   24.7080   43.2870 H   0  0  0  0  0  0  0  0  0  0  0  0
   37.9770   23.8960   41.5240 C   0  0  0  0  0  0  0  0  0  0  0  0
   37.6920   23.7340   40.4700 H   0  0  0  0  0  0  0  0  0  0  0  0
   38.0620   22.8930   41.9650 H   0  0  0  0  0  0  0  0  0  0  0  0
   39.8780   25.1330   40.5630 C   0  0  0  0  0  0  0  0  0  0  0  0
   39.3180   24.5050   41.6720 C   0  0  0  0  0  0  0  0  0  0  0  0
   40.0590   24.4960   42.8340 C   0  0  0  0  0  0  0  0  0  0  0  0
   39.6810   24.0190   43.7220 H   0  0  0  0  0  0  0  0  0  0  0  0
   41.3060   25.0610   42.9790 C   0  0  0  0  0  0  0  0  0  0  0  0
   41.8510   25.0260   43.9240 H   0  0  0  0  0  0  0  0  0  0  0  0
   41.8960   25.6930   41.9060 C   0  0  0  0  0  3  0  0  0  0  0  0
   41.1480   25.7020   40.7310 C   0  0  0  0  0  3  0  0  0  0  0  0
   38.2650   24.3320   38.6950 H   0  0  0  0  0  0  0  0  0  0  0  0
   39.2020   25.2970   38.9750 S   0  0  0  0  0  0  0  0  0  0  0  0
   38.4460   26.6240   38.9340 O   0  0  0  0  0  0  0  0  0  0  0  0
   40.1870   25.3610   37.8740 O   0  0  0  0  0  0  0  0  0  0  0  0
  1  2  1  0  0  0  0
  1  6  1  1  0  0  0
  1  5  1  0  0  0  0
  2  3  1  0  0  0  0
  2  7  1  1  0  0  0
  3  4  1  0  0  0  0
  4  8  1  0  0  0  0
  4  9  1  0  0  0  0
  5  4  1  0  0  0  0
  5 10  1  1  0  0  0
 11 16  1  0  0  0  0
 12 13  1  0  0  0  0
 12 11  2  0  0  0  0
 13 14  2  0  0  0  0
 14 15  1  0  0  0  0
 15  2  1  0  0  0  0
 16 15  2  0  0  0  0
 17 12  1  0  0  0  0
 18 13  1  0  0  0  0
 19 11  1  0  0  0  0
 20 19  1  0  0  0  0
 21  1  1  0  0  0  0
 22 21  1  0  0  0  0
 23 24  1  0  0  0  0
 23  5  1  0  0  0  0
 24 26  1  0  0  0  0
 25 24  1  0  0  0  0
 27 31  1  0  0  0  0
 27 29  1  0  0  0  0
 27 24  1  0  0  0  0
 28 27  1  0  0  0  0
 30 37  2  0  0  0  0
 30 31  1  0  0  0  0
 31 32  2  0  0  0  0
 32 34  1  0  0  0  0
 32 33  1  0  0  0  0
 34 35  1  0  0  0  0
 36 34  2  0  0  0  0
 37 36  1  0  0  0  0
 38 39  1  0  0  0  0
 39 30  1  0  0  0  0
 40 39  2  0  0  0  0
 41 39  2  0  0  0  0
M  END
>  <minimizedAffinity>
-5.22537613

$$$$
