
 OpenBabel03252503503D

 24 25  0  0  0  0  0  0  0  0999 V2000
   47.2620   34.9260   42.5250 C   0  0  0  0  0  0  0  0  0  0  0  0
   47.3790   33.9200   43.4900 C   0  0  0  0  0  0  0  0  0  0  0  0
   46.3530   33.7240   44.4070 C   0  0  0  0  0  0  0  0  0  0  0  0
   45.2790   34.5380   44.3060 N   0  0  0  0  0  0  0  0  0  0  0  0
   45.1660   35.5140   43.3690 C   0  0  0  0  0  0  0  0  0  0  0  0
   46.1580   35.7060   42.4810 N   0  0  0  0  0  0  0  0  0  0  0  0
   48.2600   33.3170   43.5060 H   0  0  0  0  0  0  0  0  0  0  0  0
   44.3010   36.1560   43.3020 H   0  0  0  0  0  0  0  0  0  0  0  0
   45.9760   31.4110   45.1210 C   0  0  0  0  0  0  0  0  0  0  0  0
   46.4120   32.6950   45.4370 C   0  0  0  0  0  0  0  0  0  0  0  0
   46.8860   32.9550   46.7070 C   0  0  0  0  0  0  0  0  0  0  0  0
   47.2330   33.9170   47.0080 H   0  0  0  0  0  0  0  0  0  0  0  0
   46.9510   31.9880   47.7000 C   0  0  0  0  0  0  0  0  0  0  0  0
   47.3280   32.2070   48.7030 H   0  0  0  0  0  0  0  0  0  0  0  0
   46.5300   30.7060   47.4280 C   0  0  0  0  0  3  0  0  0  0  0  0
   46.0620   30.4750   46.1560 C   0  0  0  0  0  3  0  0  0  0  0  0
   44.5050   31.8900   43.0240 H   0  0  0  0  0  0  0  0  0  0  0  0
   45.3580   30.9640   43.5520 S   0  0  0  0  0  0  0  0  0  0  0  0
   44.5110   29.7130   43.7510 O   0  0  0  0  0  0  0  0  0  0  0  0
   46.4550   30.5640   42.5950 O   0  0  0  0  0  0  0  0  0  0  0  0
   48.3910   35.0920   41.5700 C   0  0  0  0  0  0  0  0  0  0  0  0
   47.9850   34.9740   40.2640 F   0  0  0  0  0  0  0  0  0  0  0  0
   48.9870   36.3320   41.8210 F   0  0  0  0  0  0  0  0  0  0  0  0
   49.3790   34.1570   41.8540 F   0  0  0  0  0  0  0  0  0  0  0  0
  1  2  1  0  0  0  0
  2  7  1  0  0  0  0
  2  3  2  0  0  0  0
  3 10  1  0  0  0  0
  4  3  1  0  0  0  0
  5  4  2  0  0  0  0
  6  1  2  0  0  0  0
  6  5  1  0  0  0  0
  8  5  1  0  0  0  0
  9 10  2  0  0  0  0
  9 16  1  0  0  0  0
 10 11  1  0  0  0  0
 11 12  1  0  0  0  0
 11 13  2  0  0  0  0
 13 14  1  0  0  0  0
 15 13  1  0  0  0  0
 16 15  2  0  0  0  0
 17 18  1  0  0  0  0
 18 19  2  0  0  0  0
 18  9  1  0  0  0  0
 20 18  2  0  0  0  0
 21 23  1  0  0  0  0
 21 24  1  0  0  0  0
 21  1  1  0  0  0  0
 22 21  1  0  0  0  0
M  END
>  <minimizedAffinity>
-4.94589949

>  <minimizedRMSD>
0.790974915

$$$$
