
 OpenBabel03242519543D

 43 45  0  0  1  0  0  0  0  0999 V2000
   47.3360   34.1450   42.4890 C   0  0  2  0  0  0  0  0  0  0  0  0
   48.6580   34.7970   42.6190 C   0  0  0  0  0  0  0  0  0  0  0  0
   48.9130   35.7980   41.5430 C   0  0  0  0  0  0  0  0  0  0  0  0
   48.7520   35.2390   40.1500 C   0  0  0  0  0  0  0  0  0  0  0  0
   47.6480   34.2380   40.0180 C   0  0  2  0  0  0  0  0  0  0  0  0
   46.6690   34.3330   41.1700 C   0  0  0  0  0  0  0  0  0  0  0  0
   47.5290   33.0350   42.6260 H   0  0  0  0  0  0  0  0  0  0  0  0
   49.4950   34.0740   42.6760 H   0  0  0  0  0  0  0  0  0  0  0  0
   48.6700   35.3490   43.5870 H   0  0  0  0  0  0  0  0  0  0  0  0
   48.3200   36.7300   41.6930 H   0  0  0  0  0  0  0  0  0  0  0  0
   49.9760   36.1200   41.6380 H   0  0  0  0  0  0  0  0  0  0  0  0
   49.7260   34.8490   39.7580 H   0  0  0  0  0  0  0  0  0  0  0  0
   48.5160   36.1060   39.4830 H   0  0  0  0  0  0  0  0  0  0  0  0
   47.0270   34.4460   39.1000 H   0  0  0  0  0  0  0  0  0  0  0  0
   45.9700   33.4490   41.0490 H   0  0  0  0  0  0  0  0  0  0  0  0
   46.0560   35.2010   41.0070 H   0  0  0  0  0  0  0  0  0  0  0  0
   46.3940   34.4970   43.5640 C   0  0  0  0  0  0  0  0  0  0  0  0
   45.6130   35.6150   43.2870 C   0  0  0  0  0  0  0  0  0  0  0  0
   44.6620   36.0500   44.2140 C   0  0  0  0  0  0  0  0  0  0  0  0
   44.5700   35.3110   45.3810 N   0  0  0  0  0  0  0  0  0  0  0  0
   45.3460   34.2350   45.6110 C   0  0  0  0  0  0  0  0  0  0  0  0
   46.2440   33.8420   44.7060 N   0  0  0  0  0  0  0  0  0  0  0  0
   45.5170   36.3330   42.4850 H   0  0  0  0  0  0  0  0  0  0  0  0
   43.9710   36.8570   44.2160 H   0  0  0  0  0  0  0  0  0  0  0  0
   45.2180   33.6990   46.5570 H   0  0  0  0  0  0  0  0  0  0  0  0
   48.2350   32.8860   39.8340 C   0  0  0  0  0  0  0  0  0  0  0  0
   48.4080   32.7970   38.7160 H   0  0  0  0  0  0  0  0  0  0  0  0
   49.2370   32.8930   40.2560 H   0  0  0  0  0  0  0  0  0  0  0  0
   47.3480   31.7530   40.1800 C   0  0  0  0  0  0  0  0  0  0  0  0
   46.2520   32.0000   40.2310 H   0  0  0  0  0  0  0  0  0  0  0  0
   47.3910   31.0320   39.3350 H   0  0  0  0  0  0  0  0  0  0  0  0
   47.0280   30.4570   42.3700 C   0  0  0  0  0  0  0  0  0  0  0  0
   47.7960   31.0680   41.4160 C   0  0  0  0  0  0  0  0  0  0  0  0
   49.1750   31.0510   41.6740 C   0  0  0  0  0  0  0  0  0  0  0  0
   49.8450   31.5270   40.9380 H   0  0  0  0  0  0  0  0  0  0  0  0
   49.8060   30.4970   42.7620 C   0  0  0  0  0  0  0  0  0  0  0  0
   50.8810   30.5430   42.8580 H   0  0  0  0  0  0  0  0  0  0  0  0
   49.0000   29.8930   43.7030 C   0  0  0  0  0  3  0  0  0  0  0  0
   47.6390   29.8830   43.4940 C   0  0  0  0  0  3  0  0  0  0  0  0
   44.8260   29.6480   43.2090 H   0  0  0  0  0  0  0  0  0  0  0  0
   45.3290   30.3970   42.1390 S   0  0  0  0  0  0  0  0  0  0  0  0
   44.8970   29.6200   40.9370 O   0  0  0  0  0  0  0  0  0  0  0  0
   44.6230   31.7130   42.2900 O   0  0  0  0  0  0  0  0  0  0  0  0
  1  2  1  0  0  0  0
  1  7  1  1  0  0  0
  1 17  1  0  0  0  0
  2  8  1  0  0  0  0
  2  9  1  0  0  0  0
  3 11  1  0  0  0  0
  3 10  1  0  0  0  0
  3  2  1  0  0  0  0
  4  3  1  0  0  0  0
  5 14  1  6  0  0  0
  5  4  1  0  0  0  0
  5  6  1  0  0  0  0
  6  1  1  0  0  0  0
 12  4  1  0  0  0  0
 13  4  1  0  0  0  0
 15  6  1  0  0  0  0
 16  6  1  0  0  0  0
 17 22  1  0  0  0  0
 18 17  2  0  0  0  0
 18 19  1  0  0  0  0
 19 24  1  0  0  0  0
 19 20  2  0  0  0  0
 20 21  1  0  0  0  0
 21 25  1  0  0  0  0
 22 21  2  0  0  0  0
 23 18  1  0  0  0  0
 26  5  1  0  0  0  0
 26 29  1  0  0  0  0
 26 28  1  0  0  0  0
 27 26  1  0  0  0  0
 29 30  1  0  0  0  0
 29 33  1  0  0  0  0
 31 29  1  0  0  0  0
 32 39  1  0  0  0  0
 33 34  1  0  0  0  0
 33 32  2  0  0  0  0
 34 36  2  0  0  0  0
 35 34  1  0  0  0  0
 36 37  1  0  0  0  0
 36 38  1  0  0  0  0
 39 38  2  0  0  0  0
 41 43  2  0  0  0  0
 41 32  1  0  0  0  0
 41 40  1  0  0  0  0
 42 41  2  0  0  0  0
M  END
>  <minimizedAffinity>
-5.01225996

>  <minimizedRMSD>
2.28084755

$$$$
