REMARK  Name = 
REMARK  9 active torsions:
REMARK  status: ('A' for Active; 'I' for Inactive)
REMARK    1  A    between atoms: C_1  and  C_9
REMARK    2  A    between atoms: C_2  and  C_13
REMARK    3  A    between atoms: C_13  and  N_14
REMARK    4  A    between atoms: N_14  and  S_15
REMARK    5  A    between atoms: S_15  and  O_16
REMARK    6  A    between atoms: S_15  and  O_17
REMARK    7  A    between atoms: S_15  and  O_18
REMARK    8  A    between atoms: O_18  and  C_36
REMARK    9  A    between atoms: S_32  and  C_35
REMARK                            x       y       z     vdW  Elec       q    Type
REMARK                         _______ _______ _______ _____ _____    ______ ____
ROOT
ATOM      1  C   UNL     1      43.482  35.218  42.073  0.00  0.00    +0.000 C 
ATOM      2  H   UNL     1      43.917  34.191  42.126  0.00  0.00    +0.000 HD
ATOM      3  H   UNL     1      44.251  35.894  41.642  0.00  0.00    +0.000 HD
ENDROOT
BRANCH   1   5
ATOM      4  C   UNL     1      42.213  34.175  40.193  0.00  0.00    +0.000 A 
ATOM      5  C   UNL     1      42.293  35.140  41.196  0.00  0.00    +0.000 A 
ATOM      6  C   UNL     1      41.239  36.013  41.344  0.00  0.00    +0.000 A 
ATOM      7  C   UNL     1      40.147  35.937  40.534  0.00  0.00    +0.000 A 
ATOM      8  C   UNL     1      40.033  35.005  39.543  0.00  0.00    +0.000 A 
ATOM      9  C   UNL     1      41.113  34.128  39.407  0.00  0.00    +0.000 A 
ATOM     10  H   UNL     1      41.230  36.787  42.099  0.00  0.00    +0.000 HD
ATOM     11  H   UNL     1      39.310  36.615  40.638  0.00  0.00    +0.000 HD
ATOM     12  H   UNL     1      39.224  34.847  38.843  0.00  0.00    +0.000 HD
ATOM     13  H   UNL     1      41.156  33.338  38.659  0.00  0.00    +0.000 HD
BRANCH   4  16
ATOM     14  C   UNL     1      44.612  31.289  40.601  0.00  0.00    +0.000 A 
ATOM     15  C   UNL     1      43.476  32.092  40.789  0.00  0.00    +0.000 A 
ATOM     16  C   UNL     1      43.348  33.274  40.072  0.00  0.00    +0.000 A 
ATOM     17  N   UNL     1      44.343  33.598  39.211  0.00  0.00    +0.000 NA
ATOM     18  C   UNL     1      45.431  32.809  39.044  0.00  0.00    +0.000 A 
ATOM     19  N   UNL     1      45.570  31.669  39.727  0.00  0.00    +0.000 NA
ATOM     20  H   UNL     1      44.744  30.371  41.137  0.00  0.00    +0.000 HD
ATOM     21  H   UNL     1      42.707  31.818  41.470  0.00  0.00    +0.000 HD
ATOM     22  H   UNL     1      46.220  33.088  38.347  0.00  0.00    +0.000 HD
ENDBRANCH   4  16
ENDBRANCH   1   5
BRANCH   1  23
ATOM     23  N   UNL     1      43.215  35.670  43.401  0.00  0.00    +0.000 NA
ATOM     24  H   UNL     1      42.498  35.132  43.916  0.00  0.00    +0.000 HD
BRANCH  23  25
ATOM     25  S   UNL     1      44.655  35.835  44.341  0.00  0.00    +0.000 S 
BRANCH  25  26
ATOM     26  O   UNL     1      45.827  35.218  43.646  0.00  0.00    +0.000 OA
ATOM     27  H   UNL     1      46.427  34.495  43.951  0.00  0.00    +0.000 HD
ENDBRANCH  25  26
BRANCH  25  28
ATOM     28  O   UNL     1      44.496  35.303  45.703  0.00  0.00    +0.000 OA
ATOM     29  H   UNL     1      43.959  34.483  45.911  0.00  0.00    +0.000 HD
ENDBRANCH  25  28
BRANCH  25  30
ATOM     30  O   UNL     1      44.921  37.514  44.442  0.00  0.00    +0.000 OA
BRANCH  30  32
ATOM     31  C   UNL     1      44.217  39.544  45.703  0.00  0.00    +0.000 A 
ATOM     32  C   UNL     1      44.616  38.210  45.598  0.00  0.00    +0.000 A 
ATOM     33  C   UNL     1      44.746  37.424  46.724  0.00  0.00    +0.000 A 
ATOM     34  H   UNL     1      45.047  36.385  46.745  0.00  0.00    +0.000 HD
ATOM     35  C   UNL     1      44.487  37.924  48.004  0.00  0.00    +0.000 A 
ATOM     36  H   UNL     1      44.582  37.329  48.904  0.00  0.00    +0.000 HD
ATOM     37  C   UNL     1      44.092  39.254  48.091  0.00  0.00    +0.000 A 
ATOM     38  C   UNL     1      43.971  40.009  46.955  0.00  0.00    +0.000 A 
BRANCH  31  40
ATOM     39  H   UNL     1      42.867  40.136  43.629  0.00  0.00    +0.000 HD
ATOM     40  S   UNL     1      44.096  40.413  44.199  0.00  0.00    +0.000 S 
ATOM     41  O   UNL     1      44.246  41.901  44.397  0.00  0.00    +0.000 OA
ATOM     42  O   UNL     1      45.206  40.000  43.242  0.00  0.00    +0.000 OA
ENDBRANCH  31  40
ENDBRANCH  30  32
ENDBRANCH  25  30
ENDBRANCH  23  25
ENDBRANCH   1  23
TORSDOF 9
