REMARK  Name = 
REMARK  4 active torsions:
REMARK  status: ('A' for Active; 'I' for Inactive)
REMARK    1  A    between atoms: C_3  and  C_9
REMARK    2  A    between atoms: C_8  and  C_15
REMARK    3  A    between atoms: C_13  and  C_28
REMARK    4  A    between atoms: S_24  and  C_27
REMARK                            x       y       z     vdW  Elec       q    Type
REMARK                         _______ _______ _______ _____ _____    ______ ____
ROOT
ATOM      1  C   UNL     1      47.965  34.639  40.098  0.00  0.00    +0.000 A 
ATOM      2  C   UNL     1      46.816  33.989  40.489  0.00  0.00    +0.000 A 
ATOM      3  C   UNL     1      46.161  33.248  39.532  0.00  0.00    +0.000 A 
ATOM      4  C   UNL     1      46.608  33.135  38.222  0.00  0.00    +0.000 A 
ATOM      5  C   UNL     1      47.758  33.801  37.879  0.00  0.00    +0.000 A 
ATOM      6  C   UNL     1      48.447  34.557  38.812  0.00  0.00    +0.000 A 
ATOM      7  H   UNL     1      45.253  32.739  39.856  0.00  0.00    +0.000 HD
ATOM      8  H   UNL     1      46.041  32.540  37.540  0.00  0.00    +0.000 HD
ATOM      9  H   UNL     1      48.107  33.713  36.856  0.00  0.00    +0.000 HD
ENDROOT
BRANCH   2  12
ATOM     10  C   UNL     1      44.909  35.039  43.557  0.00  0.00    +0.000 A 
ATOM     11  C   UNL     1      45.291  34.921  42.219  0.00  0.00    +0.000 A 
ATOM     12  C   UNL     1      46.389  34.136  41.867  0.00  0.00    +0.000 A 
ATOM     13  N   UNL     1      47.032  33.519  42.888  0.00  0.00    +0.000 NA
ATOM     14  C   UNL     1      46.652  33.642  44.163  0.00  0.00    +0.000 A 
ATOM     15  N   UNL     1      45.593  34.400  44.500  0.00  0.00    +0.000 NA
ATOM     16  N   UNL     1      43.783  35.852  43.859  0.00  0.00    +0.000 N 
ATOM     17  H   UNL     1      44.759  35.427  41.410  0.00  0.00    +0.000 HD
ATOM     18  H   UNL     1      47.244  33.099  44.907  0.00  0.00    +0.000 HD
ATOM     19  H   UNL     1      42.961  35.358  44.276  0.00  0.00    +0.000 HD
ATOM     20  H   UNL     1      43.724  36.872  43.698  0.00  0.00    +0.000 HD
ENDBRANCH   2  12
BRANCH   6  22
ATOM     21  C   UNL     1      50.818  34.668  37.976  0.00  0.00    +0.000 A 
ATOM     22  C   UNL     1      49.669  35.266  38.452  0.00  0.00    +0.000 A 
ATOM     23  C   UNL     1      49.601  36.641  38.627  0.00  0.00    +0.000 A 
ATOM     24  H   UNL     1      48.758  37.206  38.991  0.00  0.00    +0.000 HD
ATOM     25  C   UNL     1      50.710  37.400  38.313  0.00  0.00    +0.000 A 
ATOM     26  H   UNL     1      50.708  38.493  38.434  0.00  0.00    +0.000 HD
ATOM     27  C   UNL     1      51.881  36.812  37.830  0.00  0.00    +0.000 A 
ATOM     28  C   UNL     1      51.927  35.427  37.662  0.00  0.00    +0.000 A 
BRANCH  21  30
ATOM     29  H   UNL     1      51.521  32.578  36.659  0.00  0.00    +0.000 HD
ATOM     30  S   UNL     1      50.811  32.920  37.787  0.00  0.00    +0.000 S 
ATOM     31  O   UNL     1      49.420  32.398  37.627  0.00  0.00    +0.000 OA
ATOM     32  O   UNL     1      51.528  32.256  38.951  0.00  0.00    +0.000 OA
ENDBRANCH  21  30
ENDBRANCH   6  22
BRANCH   1  34
ATOM     33  N   UNL     1      49.321  36.087  41.810  0.00  0.00    +0.000 NA
ATOM     34  C   UNL     1      48.710  35.436  41.042  0.00  0.00    +0.000 C 
ENDBRANCH   1  34
TORSDOF 4
