
 OpenBabel03242518283D

 24 25  0  0  0  0  0  0  0  0999 V2000
   47.1280   33.7130   41.1400 O   0  0  0  0  0  0  0  0  0  0  0  0
   48.6010   32.7970   39.4010 C   0  0  0  0  0  0  0  0  0  0  0  0
   48.1860   32.9160   40.7000 C   0  0  0  0  0  0  0  0  0  0  0  0
   48.8270   32.2120   41.7150 C   0  0  0  0  0  0  0  0  0  0  0  0
   48.5610   32.2500   42.7650 H   0  0  0  0  0  0  0  0  0  0  0  0
   49.8980   31.3870   41.3700 C   0  0  0  0  0  0  0  0  0  0  0  0
   50.4330   30.8160   42.1190 H   0  0  0  0  0  0  0  0  0  0  0  0
   50.3340   31.2500   40.0760 C   0  0  0  0  0  0  0  0  0  0  0  0
   49.6660   31.9700   39.0970 C   0  0  0  0  0  0  0  0  0  0  0  0
   46.6380   34.3030   38.8280 H   0  0  0  0  0  0  0  0  0  0  0  0
   47.7150   33.7310   38.2280 S   0  0  0  0  0  0  0  0  0  0  0  0
   47.1990   32.7770   37.1780 O   0  0  0  0  0  0  0  0  0  0  0  0
   48.5970   34.7110   37.5120 O   0  0  0  0  0  0  0  0  0  0  0  0
   47.3100   34.7940   41.9840 C   0  0  0  0  0  0  0  0  0  0  0  0
   48.2000   35.6320   41.6770 O   0  0  0  0  0  0  0  0  0  0  0  0
   46.4490   34.8300   43.1230 C   0  0  0  0  0  0  0  0  0  0  0  0
   45.5480   35.8830   43.1170 C   0  0  0  0  0  0  0  0  0  0  0  0
   44.6680   35.9790   44.2110 C   0  0  0  0  0  0  0  0  0  0  0  0
   44.7470   35.0500   45.2020 N   0  0  0  0  0  0  0  0  0  0  0  0
   45.6480   34.0430   45.1540 C   0  0  0  0  0  0  0  0  0  0  0  0
   46.4920   33.9380   44.1200 N   0  0  0  0  0  0  0  0  0  0  0  0
   45.4410   36.6460   42.3610 H   0  0  0  0  0  0  0  0  0  0  0  0
   43.9380   36.7890   44.2550 H   0  0  0  0  0  0  0  0  0  0  0  0
   45.7330   33.2850   45.9340 H   0  0  0  0  0  0  0  0  0  0  0  0
  1 14  1  0  0  0  0
  2  3  1  0  0  0  0
  3  1  1  0  0  0  0
  3  4  2  0  0  0  0
  4  5  1  0  0  0  0
  6  4  1  0  0  0  0
  6  7  1  0  0  0  0
  8  6  2  0  0  0  0
  9  2  2  0  0  0  0
  9  8  1  0  0  0  0
 11 10  1  0  0  0  0
 11  2  1  0  0  0  0
 12 11  2  0  0  0  0
 13 11  2  0  0  0  0
 14 16  1  0  0  0  0
 15 14  2  0  0  0  0
 16 21  1  0  0  0  0
 17 16  2  0  0  0  0
 17 18  1  0  0  0  0
 18 23  1  0  0  0  0
 18 19  2  0  0  0  0
 20 19  1  0  0  0  0
 20 24  1  0  0  0  0
 21 20  2  0  0  0  0
 22 17  1  0  0  0  0
M  END
>  <minimizedAffinity>
-4.36470699

>  <minimizedRMSD>
2.89321613

$$$$
