
     RDKit          3D

 32 33  0  0  0  0  0  0  0  0999 V2000
   45.4996   34.9101   44.1486 C   0  0  0  0  0  0  0  0  0  0  0  0
   46.5430   34.2374   43.5209 C   0  0  0  0  0  0  0  0  0  0  0  0
   47.1556   33.1722   44.2220 C   0  0  0  0  0  0  0  0  0  0  0  0
   46.6801   32.8836   45.4577 N   0  0  0  0  0  0  0  0  0  0  0  0
   45.6640   33.5679   46.0223 C   0  0  0  0  0  0  0  0  0  0  0  0
   45.0713   34.5903   45.3570 N   0  0  0  0  0  0  0  0  0  0  0  0
   44.8698   36.0307   43.3871 C   0  0  0  0  0  0  0  0  0  0  0  0
   45.3026   33.1384   47.2970 O   0  0  0  0  0  0  0  0  0  0  0  0
   45.3549   31.7208   49.4454 O   0  0  0  0  0  0  0  0  0  0  0  0
   45.6119   31.6014   47.9345 P   0  0  1  0  0  0  0  0  0  0  0  0
   44.5863   30.4166   47.3445 O   0  0  0  0  0  0  0  0  0  0  0  0
   47.2118   31.1696   47.6510 O   0  0  0  0  0  0  0  0  0  0  0  0
   46.9340   34.4553   42.5358 H   0  0  0  0  0  0  0  0  0  0  0  0
   47.9724   32.6160   43.7779 H   0  0  0  0  0  0  0  0  0  0  0  0
   44.0150   36.4212   43.9601 H   0  0  0  0  0  0  0  0  0  0  0  0
   44.5456   35.6530   42.3799 H   0  0  0  0  0  0  0  0  0  0  0  0
   45.5990   36.8527   43.1917 H   0  0  0  0  0  0  0  0  0  0  0  0
   43.7837   30.2956   47.9216 H   0  0  0  0  0  0  0  0  0  0  0  0
   44.7194   30.6441   48.5195 H   0  0  0  0  0  0  0  0  0  0  0  0
   45.3482   29.9357   49.5056 S   0  0  0  0  0  0  0  0  0  0  0  0
   45.6189   30.7562   50.7200 O   0  0  0  0  0  0  0  0  0  0  0  0
   44.4361   28.8040   49.9392 O   0  0  0  0  0  0  0  0  0  0  0  0
   46.8510   29.2775   48.9200 C   0  0  0  0  0  0  0  0  0  0  0  0
   47.6877   29.9256   48.0355 C   0  0  0  0  0  0  0  0  0  0  0  0
   48.8764   29.4227   47.5625 C   0  0  0  0  0  0  0  0  0  0  0  0
   49.4864   29.9635   46.8801 H   0  0  0  0  0  0  0  0  0  0  0  0
   49.2107   28.1536   48.0502 C   0  0  0  0  0  0  0  0  0  0  0  0
   50.1394   27.7132   47.7068 H   0  0  0  0  0  0  0  0  0  0  0  0
   48.4081   27.4644   48.9357 C   0  0  0  0  0  0  0  0  0  0  0  0
   47.2217   28.0110   49.3832 C   0  0  0  0  0  0  0  0  0  0  0  0
   48.6726   26.4806   49.3105 H   0  0  0  0  0  0  0  0  0  0  0  0
   46.5962   27.4770   50.0716 H   0  0  0  0  0  0  0  0  0  0  0  0
  1  6  2  0
  2  1  1  0
  2  3  2  0
  3  4  1  0
  4  5  2  0
  5  8  1  0
  6  5  1  0
  7  1  1  0
 10  8  1  6
 10  9  2  0
 11 10  1  0
 12 10  1  0
  2 13  1  0
  3 14  1  0
  7 15  1  0
  7 16  1  0
  7 17  1  0
 11 18  1  0
 19 20  1  0
 20 21  2  0
 20 22  2  0
 20 23  1  0
 23 24  2  0
 24 25  1  0
 25 26  1  0
 25 27  2  0
 27 28  1  0
 27 29  1  0
 29 30  2  0
 30 23  1  0
 29 31  1  0
 30 32  1  0
 12 24  1  0
M  ISO  8  13  14  14  14  15   8  16   8  17   8  18   3  19  12  26  15
M  ISO  1  28  16
M  END
>  <DihAtoms>  (1) 
9,11,23,22

>  <DihDeg>  (1) 
179.99961604640347

$$$$
