REMARK  Name = 
REMARK  3 active torsions:
REMARK  status: ('A' for Active; 'I' for Inactive)
REMARK    1  A    between atoms: C_2  and  C_14
REMARK    2  A    between atoms: C_3  and  C_28
REMARK    3  A    between atoms: S_24  and  C_27
REMARK                            x       y       z     vdW  Elec       q    Type
REMARK                         _______ _______ _______ _____ _____    ______ ____
ROOT
ATOM      1  C   UNL     1      47.217  31.354  45.077  0.00  0.00    +0.000 A 
ATOM      2  C   UNL     1      46.874  32.680  45.087  0.00  0.00    +0.000 A 
ATOM      3  C   UNL     1      46.269  33.319  46.177  0.00  0.00    +0.000 A 
ATOM      4  C   UNL     1      45.998  32.562  47.325  0.00  0.00    +0.000 A 
ATOM      5  N   UNL     1      45.446  32.815  48.536  0.00  0.00    +0.000 N 
ATOM      6  C   UNL     1      45.445  31.664  49.267  0.00  0.00    +0.000 A 
ATOM      7  N   UNL     1      46.006  30.711  48.479  0.00  0.00    +0.000 NA
ATOM      8  C   UNL     1      46.349  31.235  47.295  0.00  0.00    +0.000 A 
ATOM      9  C   UNL     1      46.945  30.598  46.224  0.00  0.00    +0.000 A 
ATOM     10  H   UNL     1      47.685  30.933  44.186  0.00  0.00    +0.000 HD
ATOM     11  H   UNL     1      45.090  33.750  48.828  0.00  0.00    +0.000 HD
ATOM     12  H   UNL     1      45.062  31.578  50.272  0.00  0.00    +0.000 HD
ATOM     13  H   UNL     1      47.210  29.545  46.234  0.00  0.00    +0.000 HD
ENDROOT
BRANCH   2  18
ATOM     14  C   UNL     1      46.532  35.205  42.415  0.00  0.00    +0.000 A 
ATOM     15  C   UNL     1      47.731  35.068  41.716  0.00  0.00    +0.000 A 
ATOM     16  C   UNL     1      48.649  34.111  42.164  0.00  0.00    +0.000 A 
ATOM     17  N   UNL     1      48.313  33.368  43.261  0.00  0.00    +0.000 NA
ATOM     18  C   UNL     1      47.136  33.528  43.917  0.00  0.00    +0.000 A 
ATOM     19  N   UNL     1      46.255  34.434  43.503  0.00  0.00    +0.000 NA
ATOM     20  H   UNL     1      45.837  35.950  42.052  0.00  0.00    +0.000 HD
ATOM     21  H   UNL     1      48.014  35.639  40.856  0.00  0.00    +0.000 HD
ATOM     22  H   UNL     1      49.617  33.903  41.712  0.00  0.00    +0.000 HD
ENDBRANCH   2  18
BRANCH   3  24
ATOM     23  C   UNL     1      44.830  35.172  46.822  0.00  0.00    +0.000 A 
ATOM     24  C   UNL     1      45.927  34.712  46.139  0.00  0.00    +0.000 A 
ATOM     25  C   UNL     1      46.696  35.609  45.414  0.00  0.00    +0.000 A 
ATOM     26  H   UNL     1      47.555  35.213  44.886  0.00  0.00    +0.000 HD
ATOM     27  C   UNL     1      46.408  36.956  45.344  0.00  0.00    +0.000 A 
ATOM     28  H   UNL     1      47.045  37.636  44.756  0.00  0.00    +0.000 HD
ATOM     29  C   UNL     1      45.307  37.440  46.026  0.00  0.00    +0.000 A 
ATOM     30  C   UNL     1      44.542  36.539  46.750  0.00  0.00    +0.000 A 
BRANCH  23  32
ATOM     31  H   UNL     1      44.067  34.263  49.121  0.00  0.00    +0.000 HD
ATOM     32  S   UNL     1      43.790  34.149  47.762  0.00  0.00    +0.000 S 
ATOM     33  O   UNL     1      43.775  32.728  47.327  0.00  0.00    +0.000 OA
ATOM     34  O   UNL     1      42.381  34.679  47.616  0.00  0.00    +0.000 OA
ENDBRANCH  23  32
ENDBRANCH   3  24
TORSDOF 3
