
 OpenBabel03252503533D

 39 41  0  0  1  0  0  0  0  0999 V2000
   46.6660   32.8330   45.1250 N   0  0  0  0  0  0  0  0  0  0  0  0
   46.4150   33.2970   46.4930 C   0  0  0  0  0  0  0  0  0  0  0  0
   47.1470   32.3350   47.4090 C   0  0  0  0  0  0  0  0  0  0  0  0
   46.4630   30.9980   47.3550 C   0  0  0  0  0  0  0  0  0  0  0  0
   46.3320   30.5750   45.9280 C   0  0  0  0  0  0  0  0  0  0  0  0
   47.0120   31.4710   44.9500 C   0  0  1  0  0  0  0  0  0  0  0  0
   46.8860   34.3030   46.5840 H   0  0  0  0  0  0  0  0  0  0  0  0
   45.3570   33.2980   46.7560 H   0  0  0  0  0  0  0  0  0  0  0  0
   48.2270   32.2740   47.1620 H   0  0  0  0  0  0  0  0  0  0  0  0
   47.0820   32.6940   48.4420 H   0  0  0  0  0  0  0  0  0  0  0  0
   45.5020   31.1000   47.8920 H   0  0  0  0  0  0  0  0  0  0  0  0
   47.0640   30.2380   47.9220 H   0  0  0  0  0  0  0  0  0  0  0  0
   46.6370   29.5190   45.7560 H   0  0  0  0  0  0  0  0  0  0  0  0
   45.2260   30.6470   45.6960 H   0  0  0  0  0  0  0  0  0  0  0  0
   48.1000   31.3480   45.0450 H   0  0  0  0  0  0  0  0  0  0  0  0
   47.4840   34.9460   42.2050 C   0  0  0  0  0  0  0  0  0  0  0  0
   47.6490   34.1050   43.3080 C   0  0  0  0  0  0  0  0  0  0  0  0
   46.5450   33.7200   44.0460 C   0  0  0  0  0  0  0  0  0  0  0  0
   45.3310   34.1860   43.6640 N   0  0  0  0  0  0  0  0  0  0  0  0
   45.1670   35.0080   42.5920 C   0  0  0  0  0  0  0  0  0  0  0  0
   46.2480   35.3850   41.8630 N   0  0  0  0  0  0  0  0  0  0  0  0
   48.6650   33.8440   43.5310 H   0  0  0  0  0  0  0  0  0  0  0  0
   44.1810   35.3630   42.3160 H   0  0  0  0  0  0  0  0  0  0  0  0
   48.7020   35.2990   41.4130 C   0  0  0  0  0  0  0  0  0  0  0  0
   48.4450   35.3070   40.0460 F   0  0  0  0  0  0  0  0  0  0  0  0
   49.1290   36.5370   41.8440 F   0  0  0  0  0  0  0  0  0  0  0  0
   49.7090   34.3820   41.6810 F   0  0  0  0  0  0  0  0  0  0  0  0
   47.5600   30.5130   42.6740 C   0  0  0  0  0  0  0  0  0  0  0  0
   46.5880   30.8740   43.6230 C   0  0  0  0  0  0  0  0  0  0  0  0
   45.2570   30.6160   43.2840 C   0  0  0  0  0  0  0  0  0  0  0  0
   44.4960   30.8870   44.0030 H   0  0  0  0  0  0  0  0  0  0  0  0
   44.9560   30.0390   42.0680 C   0  0  0  0  0  0  0  0  0  0  0  0
   43.8970   29.8770   41.8880 H   0  0  0  0  0  0  0  0  0  0  0  0
   45.9380   29.6980   41.1610 C   0  0  0  0  0  3  0  0  0  0  0  0
   47.2530   29.9410   41.4740 C   0  0  0  0  0  3  0  0  0  0  0  0
   49.5080   31.9020   43.7100 H   0  0  0  0  0  0  0  0  0  0  0  0
   49.2630   30.7790   42.9690 S   0  0  0  0  0  0  0  0  0  0  0  0
   49.8760   29.6190   43.7040 O   0  0  0  0  0  0  0  0  0  0  0  0
   49.9830   30.9540   41.6400 O   0  0  0  0  0  0  0  0  0  0  0  0
  1  2  1  0  0  0  0
  2  7  1  0  0  0  0
  2  8  1  0  0  0  0
  2  3  1  0  0  0  0
  3 10  1  0  0  0  0
  4  3  1  0  0  0  0
  4 11  1  0  0  0  0
  4 12  1  0  0  0  0
  5  4  1  0  0  0  0
  6 15  1  1  0  0  0
  6  1  1  0  0  0  0
  6  5  1  0  0  0  0
  9  3  1  0  0  0  0
 13  5  1  0  0  0  0
 14  5  1  0  0  0  0
 16 17  1  0  0  0  0
 17 22  1  0  0  0  0
 17 18  2  0  0  0  0
 18  1  1  0  0  0  0
 19 18  1  0  0  0  0
 20 19  2  0  0  0  0
 21 16  2  0  0  0  0
 21 20  1  0  0  0  0
 23 20  1  0  0  0  0
 24 27  1  0  0  0  0
 24 26  1  0  0  0  0
 24 16  1  0  0  0  0
 25 24  1  0  0  0  0
 28 37  1  0  0  0  0
 28 29  1  0  0  0  0
 29  6  1  0  0  0  0
 30 29  2  0  0  0  0
 30 31  1  0  0  0  0
 32 30  1  0  0  0  0
 33 32  1  0  0  0  0
 34 35  1  0  0  0  0
 34 32  2  0  0  0  0
 35 28  2  0  0  0  0
 37 38  2  0  0  0  0
 37 36  1  0  0  0  0
 39 37  2  0  0  0  0
M  END
>  <minimizedAffinity>
-5.046978

>  <minimizedRMSD>
2.06034636

$$$$
