
 OpenBabel03252502503D

 37 39  0  0  0  0  0  0  0  0999 V2000
   44.6100   36.2070   43.9750 C   0  0  0  0  0  0  0  0  0  0  0  0
   44.8150   35.4020   45.1000 C   0  0  0  0  0  0  0  0  0  0  0  0
   45.5300   34.2260   44.9250 C   0  0  0  0  0  0  0  0  0  0  0  0
   45.9930   33.9110   43.6890 N   0  0  0  0  0  0  0  0  0  0  0  0
   45.7750   34.7180   42.6140 C   0  0  0  0  0  0  0  0  0  0  0  0
   45.0870   35.8580   42.7650 N   0  0  0  0  0  0  0  0  0  0  0  0
   44.0680   37.1420   44.0040 H   0  0  0  0  0  0  0  0  0  0  0  0
   44.4060   35.7520   46.0170 H   0  0  0  0  0  0  0  0  0  0  0  0
   48.5200   35.6950   42.0010 Cl  0  0  0  0  0  0  0  0  0  0  0  0
   47.5530   34.7070   40.9270 C   0  0  0  0  0  0  0  0  0  0  0  0
   46.3040   34.3140   41.3120 C   0  0  0  0  0  0  0  0  0  0  0  0
   45.5040   33.5220   40.4740 C   0  0  0  0  0  0  0  0  0  0  0  0
   46.0510   33.1750   39.2680 C   0  0  0  0  0  0  0  0  0  0  0  0
   47.2920   33.5650   38.8850 C   0  0  0  0  0  0  0  0  0  0  0  0
   48.0600   34.3320   39.7010 C   0  0  0  0  0  0  0  0  0  0  0  0
   44.5000   33.2180   40.8050 H   0  0  0  0  0  0  0  0  0  0  0  0
   45.3780   32.5590   38.6630 H   0  0  0  0  0  0  0  0  0  0  0  0
   47.5940   33.2180   37.9070 H   0  0  0  0  0  0  0  0  0  0  0  0
   49.0370   34.6100   39.3470 H   0  0  0  0  0  0  0  0  0  0  0  0
   45.7480   33.3700   46.1250 C   0  0  0  0  0  0  0  0  0  0  0  0
   44.7860   33.3020   46.6300 H   0  0  0  0  0  0  0  0  0  0  0  0
   46.5020   33.8760   46.7510 H   0  0  0  0  0  0  0  0  0  0  0  0
   46.3160   32.0060   45.7640 C   0  0  0  0  0  0  0  0  0  0  0  0
   45.4100   31.3380   45.7120 H   0  0  0  0  0  0  0  0  0  0  0  0
   46.7820   32.0100   44.7620 H   0  0  0  0  0  0  0  0  0  0  0  0
   47.5940   30.1510   46.6680 C   0  0  0  0  0  0  0  0  0  0  0  0
   47.1630   31.4500   46.8300 C   0  0  0  0  0  0  0  0  0  0  0  0
   47.5280   32.1810   47.9650 C   0  0  0  0  0  0  0  0  0  0  0  0
   47.1630   33.1940   48.0430 H   0  0  0  0  0  0  0  0  0  0  0  0
   48.3320   31.6110   48.9490 C   0  0  0  0  0  0  0  0  0  0  0  0
   48.6130   32.1930   49.8340 H   0  0  0  0  0  0  0  0  0  0  0  0
   48.7600   30.2960   48.7680 C   0  0  0  0  0  3  0  0  0  0  0  0
   48.3960   29.5820   47.6500 C   0  0  0  0  0  3  0  0  0  0  0  0
   46.2680   29.6760   44.4830 H   0  0  0  0  0  0  0  0  0  0  0  0
   47.2110   29.1440   45.3120 S   0  0  0  0  0  0  0  0  0  0  0  0
   48.4600   28.9570   44.4770 O   0  0  0  0  0  0  0  0  0  0  0  0
   46.7730   27.8060   45.8070 O   0  0  0  0  0  0  0  0  0  0  0  0
  1  7  1  0  0  0  0
  1  2  1  0  0  0  0
  2  8  1  0  0  0  0
  3  2  2  0  0  0  0
  3 20  1  0  0  0  0
  4  3  1  0  0  0  0
  5  6  1  0  0  0  0
  5  4  2  0  0  0  0
  6  1  2  0  0  0  0
 10 11  1  0  0  0  0
 10  9  1  0  0  0  0
 11  5  1  0  0  0  0
 12 16  1  0  0  0  0
 12 11  2  0  0  0  0
 13 12  1  0  0  0  0
 14 13  2  0  0  0  0
 14 15  1  0  0  0  0
 15 10  2  0  0  0  0
 17 13  1  0  0  0  0
 18 14  1  0  0  0  0
 19 15  1  0  0  0  0
 20 21  1  0  0  0  0
 20 22  1  0  0  0  0
 23 20  1  0  0  0  0
 23 27  1  0  0  0  0
 24 23  1  0  0  0  0
 25 23  1  0  0  0  0
 26 27  2  0  0  0  0
 26 33  1  0  0  0  0
 27 28  1  0  0  0  0
 28 29  1  0  0  0  0
 28 30  2  0  0  0  0
 30 31  1  0  0  0  0
 32 30  1  0  0  0  0
 33 32  2  0  0  0  0
 34 35  1  0  0  0  0
 35 37  2  0  0  0  0
 35 26  1  0  0  0  0
 36 35  2  0  0  0  0
M  END
>  <minimizedAffinity>
-5.7504015

>  <minimizedRMSD>
2.02258825

$$$$
