
     RDKit          3D

 46 49  0  0  0  0  0  0  0  0999 V2000
   45.2777   35.2727   43.1382 Cl  0  0  0  0  0  0  0  0  0  0  0  0
   45.1523   34.5210   41.5658 C   0  0  0  0  0  0  0  0  0  0  0  0
   46.2632   34.1378   40.8846 C   0  0  0  0  0  0  0  0  0  0  0  0
   46.0737   33.5614   39.6366 C   0  0  0  0  0  0  0  0  0  0  0  0
   44.8316   33.3918   39.1189 C   0  0  0  0  0  0  0  0  0  0  0  0
   43.7208   33.7715   39.7945 C   0  0  0  0  0  0  0  0  0  0  0  0
   43.8952   34.3430   41.0356 C   0  0  0  0  0  0  0  0  0  0  0  0
   49.5424   35.7534   41.8796 C   0  0  0  0  0  0  0  0  0  0  0  0
   48.2806   35.5484   41.3110 C   0  0  0  0  0  0  0  0  0  0  0  0
   47.5812   34.3612   41.4743 C   0  0  0  0  0  0  0  0  0  0  0  0
   48.2103   33.4423   42.2128 N   0  0  0  0  0  0  0  0  0  0  0  0
   49.4173   33.6266   42.7623 C   0  0  0  0  0  0  0  0  0  0  0  0
   50.0769   34.7717   42.5970 N   0  0  0  0  0  0  0  0  0  0  0  0
   47.7773   31.8631   38.9784 C   0  0  0  0  0  0  0  0  0  0  0  0
   47.2331   33.1092   38.8755 C   0  0  0  0  0  0  0  0  0  0  0  0
   47.7830   34.0265   37.9960 C   0  0  0  0  0  0  0  0  0  0  0  0
   48.8681   33.7011   37.2259 C   0  0  0  0  0  0  0  0  0  0  0  0
   49.4547   32.4445   37.2979 C   0  0  0  0  0  0  0  0  0  0  0  0
   48.8869   31.5318   38.1898 C   0  0  0  0  0  0  0  0  0  0  0  0
   47.2006   30.7221   40.0850 S   0  0  0  0  0  0  0  0  0  0  0  0
   46.8085   29.4369   39.2790 O   0  0  0  0  0  0  0  0  0  0  0  0
   48.3676   30.2660   40.9134 O   0  0  0  0  0  0  0  0  0  0  0  0
   44.7128   32.9503   38.1494 H   0  0  0  0  0  0  0  0  0  0  0  0
   42.7450   33.6208   39.3540 H   0  0  0  0  0  0  0  0  0  0  0  0
   42.9955   34.6438   41.5707 H   0  0  0  0  0  0  0  0  0  0  0  0
   50.0286   36.6858   41.7180 H   0  0  0  0  0  0  0  0  0  0  0  0
   47.8272   36.3437   40.7195 H   0  0  0  0  0  0  0  0  0  0  0  0
   49.7259   32.7432   43.3178 H   0  0  0  0  0  0  0  0  0  0  0  0
   47.3788   35.0134   37.8913 H   0  0  0  0  0  0  0  0  0  0  0  0
   49.3282   34.3632   36.5380 H   0  0  0  0  0  0  0  0  0  0  0  0
   50.2970   32.0936   36.7447 H   0  0  0  0  0  0  0  0  0  0  0  0
   49.3213   30.5244   38.2772 H   0  0  0  0  0  0  0  0  0  0  0  0
   46.6239   27.9787   40.5932 H   0  0  0  0  0  0  0  0  0  0  0  0
   45.9990   28.2578   41.7550 S   0  0  0  0  0  0  0  0  0  0  0  0
   45.0035   27.1289   41.9808 O   0  0  0  0  0  0  0  0  0  0  0  0
   46.8670   28.2847   42.9587 O   0  0  0  0  0  0  0  0  0  0  0  0
   45.1318   29.8062   41.7088 C   0  0  0  0  0  0  0  0  0  0  0  0
   45.7339   30.8574   40.9745 C   0  0  0  0  0  0  0  0  0  0  0  0
   44.9570   32.0026   41.0951 C   0  0  0  0  0  0  0  0  0  0  0  0
   45.3032   32.8999   40.5998 H   0  0  0  0  0  0  0  0  0  0  0  0
   43.7833   32.1553   41.7956 C   0  0  0  0  0  0  0  0  0  0  0  0
   43.2554   33.0956   41.8234 H   0  0  0  0  0  0  0  0  0  0  0  0
   43.3238   31.0574   42.4514 C   0  0  0  0  0  0  0  0  0  0  0  0
   43.9665   29.8500   42.4394 C   0  0  0  0  0  0  0  0  0  0  0  0
   42.4051   31.1227   43.0158 H   0  0  0  0  0  0  0  0  0  0  0  0
   43.5992   29.0005   42.9548 H   0  0  0  0  0  0  0  0  0  0  0  0
  2  1  1  0
  3 10  1  0
  3  2  2  0
  4  3  1  0
  5  4  2  0
  5  6  1  0
  6  7  2  0
  7  2  1  0
  8 13  2  0
  9 10  2  0
  9  8  1  0
 10 11  1  0
 11 12  2  0
 13 12  1  0
 14 20  1  0
 15 14  1  0
 15  4  1  0
 16 15  2  0
 17 18  2  0
 17 16  1  0
 18 19  1  0
 19 14  2  0
 20 22  2  0
 21 20  2  0
  5 23  1  0
  6 24  1  0
  7 25  1  0
  8 26  1  0
  9 27  1  0
 12 28  1  0
 16 29  1  0
 17 30  1  0
 18 31  1  0
 19 32  1  0
 33 34  1  0
 34 35  2  0
 34 36  2  0
 34 37  1  0
 37 38  2  0
 38 39  1  0
 39 40  1  0
 39 41  2  0
 41 42  1  0
 41 43  1  0
 43 44  2  0
 44 37  1  0
 43 45  1  0
 44 46  1  0
 20 38  1  0
M  ISO  8  23  14  24  14  25  14  26  14  27  14  28  14  29  14  30  14
M  ISO  5  31  14  32  14  33  12  40  15  42  16
M  END
>  <DihAtoms>  (1) 
13,19,37,36

>  <DihDeg>  (1) 
77.84406970533831

$$$$
