REMARK  Name = 
REMARK  4 active torsions:
REMARK  status: ('A' for Active; 'I' for Inactive)
REMARK    1  A    between atoms: C_1  and  C_7
REMARK    2  A    between atoms: C_7  and  C_8
REMARK    3  A    between atoms: C_8  and  C_21
REMARK    4  A    between atoms: S_17  and  C_20
REMARK                            x       y       z     vdW  Elec       q    Type
REMARK                         _______ _______ _______ _____ _____    ______ ____
ROOT
ATOM      1  C   UNL     1      49.498  34.818  42.556  0.00  0.00    +0.000 C 
ATOM      2  H   UNL     1      49.639  35.528  43.367  0.00  0.00    +0.000 HD
ATOM      3  H   UNL     1      49.061  35.321  41.645  0.00  0.00    +0.000 HD
ENDROOT
BRANCH   1   5
ATOM      4  C   UNL     1      51.092  32.942  42.411  0.00  0.00    +0.000 A 
ATOM      5  C   UNL     1      50.823  34.268  42.136  0.00  0.00    +0.000 A 
ATOM      6  C   UNL     1      51.804  34.994  41.490  0.00  0.00    +0.000 A 
ATOM      7  H   UNL     1      51.611  36.014  41.273  0.00  0.00    +0.000 HD
ATOM      8  C   UNL     1      53.010  34.437  41.126  0.00  0.00    +0.000 A 
ATOM      9  H   UNL     1      53.764  35.032  40.618  0.00  0.00    +0.000 HD
ATOM     10  C   UNL     1      53.286  33.123  41.394  0.00  0.00    +0.000 A 
ATOM     11  C   UNL     1      52.314  32.384  42.040  0.00  0.00    +0.000 A 
BRANCH   4  13
ATOM     12  H   UNL     1      48.821  31.774  42.419  0.00  0.00    +0.000 HD
ATOM     13  S   UNL     1      49.904  31.975  43.220  0.00  0.00    +0.000 S 
ATOM     14  O   UNL     1      49.498  32.585  44.553  0.00  0.00    +0.000 OA
ATOM     15  O   UNL     1      50.474  30.596  43.496  0.00  0.00    +0.000 OA
ENDBRANCH   4  13
ENDBRANCH   1   5
BRANCH   1  16
ATOM     16  C   UNL     1      48.575  33.662  42.885  0.00  0.00    +0.000 C 
ATOM     17  H   UNL     1      48.434  33.102  41.929  0.00  0.00    +0.000 HD
ATOM     18  H   UNL     1      49.078  33.082  43.652  0.00  0.00    +0.000 HD
BRANCH  16  19
ATOM     19  C   UNL     1      47.276  34.197  43.296  0.00  0.00    +0.000 A 
ATOM     20  C   UNL     1      46.629  35.184  42.565  0.00  0.00    +0.000 A 
ATOM     21  C   UNL     1      45.375  35.646  43.028  0.00  0.00    +0.000 A 
ATOM     22  N   UNL     1      44.880  35.084  44.174  0.00  0.00    +0.000 NA
ATOM     23  C   UNL     1      45.552  34.119  44.855  0.00  0.00    +0.000 A 
ATOM     24  N   UNL     1      46.748  33.687  44.402  0.00  0.00    +0.000 NA
ATOM     25  H   UNL     1      47.040  35.597  41.683  0.00  0.00    +0.000 HD
ATOM     26  H   UNL     1      44.815  36.417  42.505  0.00  0.00    +0.000 HD
ATOM     27  H   UNL     1      45.136  33.690  45.763  0.00  0.00    +0.000 HD
ENDBRANCH  16  19
ENDBRANCH   1  16
TORSDOF 4
