
 OpenBabel03242520113D

 32 34  0  0  0  0  0  0  0  0999 V2000
   39.1760   31.4920   38.9090 C   0  0  0  0  0  0  0  0  0  0  0  0
   38.1120   32.3080   38.6580 C   0  0  0  0  0  0  0  0  0  0  0  0
   36.9500   32.1550   39.3790 C   0  0  0  0  0  0  0  0  0  0  0  0
   36.8880   31.1530   40.3640 C   0  0  0  0  0  0  0  0  0  0  0  0
   37.9790   30.3470   40.5910 C   0  0  0  0  0  0  0  0  0  0  0  0
   39.0550   30.5500   39.8640 N   0  0  0  0  0  0  0  0  0  0  0  0
   38.2130   33.0560   37.8970 H   0  0  0  0  0  0  0  0  0  0  0  0
   36.1180   32.8110   39.1670 H   0  0  0  0  0  0  0  0  0  0  0  0
   35.9510   31.1080   40.8720 H   0  0  0  0  0  0  0  0  0  0  0  0
   42.0910   32.8900   37.1900 C   0  0  0  0  0  0  0  0  0  0  0  0
   42.8000   31.7350   36.8530 C   0  0  0  0  0  0  0  0  0  0  0  0
   42.2920   30.4860   37.2050 C   0  0  0  0  0  0  0  0  0  0  0  0
   41.1120   30.4850   37.8700 N   0  0  0  0  0  0  0  0  0  0  0  0
   40.4440   31.5860   38.1890 C   0  0  0  0  0  0  0  0  0  0  0  0
   40.9420   32.7890   37.8430 N   0  0  0  0  0  0  0  0  0  0  0  0
   42.6340   34.1610   36.8160 N   0  0  0  0  0  0  0  0  0  0  0  0
   43.7520   31.7840   36.3130 H   0  0  0  0  0  0  0  0  0  0  0  0
   42.8110   29.5620   36.9620 H   0  0  0  0  0  0  0  0  0  0  0  0
   42.3960   34.3930   35.8110 H   0  0  0  0  0  0  0  0  0  0  0  0
   43.1950   34.8560   37.3480 H   0  0  0  0  0  0  0  0  0  0  0  0
   38.9750   28.9940   42.4230 C   0  0  0  0  0  0  0  0  0  0  0  0
   37.9090   29.3140   41.6110 C   0  0  0  0  0  0  0  0  0  0  0  0
   36.7810   28.5630   41.8620 C   0  0  0  0  0  0  0  0  0  0  0  0
   35.8800   28.7160   41.2960 H   0  0  0  0  0  0  0  0  0  0  0  0
   36.6690   27.5750   42.8170 C   0  0  0  0  0  0  0  0  0  0  0  0
   35.7740   27.0110   42.9850 H   0  0  0  0  0  0  0  0  0  0  0  0
   37.7580   27.2950   43.6010 C   0  0  0  0  0  3  0  0  0  0  0  0
   38.9040   27.9990   43.4050 C   0  0  0  0  0  3  0  0  0  0  0  0
   40.8100   29.8890   40.9320 H   0  0  0  0  0  0  0  0  0  0  0  0
   40.4920   29.8430   42.2510 S   0  0  0  0  0  0  0  0  0  0  0  0
   41.6120   29.0830   42.9270 O   0  0  0  0  0  0  0  0  0  0  0  0
   40.4480   31.1900   42.9130 O   0  0  0  0  0  0  0  0  0  0  0  0
  1  6  1  0  0  0  0
  2  1  2  0  0  0  0
  2  3  1  0  0  0  0
  3  4  2  0  0  0  0
  4  5  1  0  0  0  0
  4  9  1  0  0  0  0
  5 22  1  0  0  0  0
  6  5  2  0  0  0  0
  7  2  1  0  0  0  0
  8  3  1  0  0  0  0
 10 15  1  0  0  0  0
 11 10  2  0  0  0  0
 11 12  1  0  0  0  0
 12 13  2  0  0  0  0
 13 14  1  0  0  0  0
 14  1  1  0  0  0  0
 15 14  2  0  0  0  0
 16 10  1  0  0  0  0
 16 20  1  0  0  0  0
 17 11  1  0  0  0  0
 18 12  1  0  0  0  0
 19 16  1  0  0  0  0
 21 28  1  0  0  0  0
 22 23  1  0  0  0  0
 22 21  2  0  0  0  0
 23 25  2  0  0  0  0
 24 23  1  0  0  0  0
 25 26  1  0  0  0  0
 25 27  1  0  0  0  0
 28 27  2  0  0  0  0
 29 30  1  0  0  0  0
 30 21  1  0  0  0  0
 30 32  2  0  0  0  0
 30 31  2  0  0  0  0
M  END
>  <minimizedAffinity>
-6.10939169

$$$$

 OpenBabel03242520113D

 32 34  0  0  0  0  0  0  0  0999 V2000
   39.0590   31.6590   39.0950 C   0  0  0  0  0  0  0  0  0  0  0  0
   38.1240   32.6510   39.0590 C   0  0  0  0  0  0  0  0  0  0  0  0
   36.9870   32.5450   39.8270 C   0  0  0  0  0  0  0  0  0  0  0  0
   36.8160   31.4070   40.6350 C   0  0  0  0  0  0  0  0  0  0  0  0
   37.7780   30.4250   40.6470 C   0  0  0  0  0  0  0  0  0  0  0  0
   38.8380   30.5930   39.8890 N   0  0  0  0  0  0  0  0  0  0  0  0
   38.3040   33.4980   38.4260 H   0  0  0  0  0  0  0  0  0  0  0  0
   36.2570   33.3410   39.7860 H   0  0  0  0  0  0  0  0  0  0  0  0
   35.9070   31.4100   41.1940 H   0  0  0  0  0  0  0  0  0  0  0  0
   41.9440   32.9160   37.2230 C   0  0  0  0  0  0  0  0  0  0  0  0
   42.5810   31.7280   36.8570 C   0  0  0  0  0  0  0  0  0  0  0  0
   42.0350   30.5050   37.2420 C   0  0  0  0  0  0  0  0  0  0  0  0
   40.8920   30.5610   37.9660 N   0  0  0  0  0  0  0  0  0  0  0  0
   40.2920   31.6930   38.3120 C   0  0  0  0  0  0  0  0  0  0  0  0
   40.8260   32.8700   37.9340 N   0  0  0  0  0  0  0  0  0  0  0  0
   42.5240   34.1590   36.8140 N   0  0  0  0  0  0  0  0  0  0  0  0
   43.5060   31.7320   36.2700 H   0  0  0  0  0  0  0  0  0  0  0  0
   42.4990   29.5570   36.9790 H   0  0  0  0  0  0  0  0  0  0  0  0
   42.2470   34.3980   35.8210 H   0  0  0  0  0  0  0  0  0  0  0  0
   43.1430   34.8300   37.3140 H   0  0  0  0  0  0  0  0  0  0  0  0
   37.1910   28.0330   40.9830 C   0  0  0  0  0  0  0  0  0  0  0  0
   37.5950   29.2510   41.4850 C   0  0  0  0  0  0  0  0  0  0  0  0
   37.8070   29.2430   42.8460 C   0  0  0  0  0  0  0  0  0  0  0  0
   38.1260   30.1310   43.3600 H   0  0  0  0  0  0  0  0  0  0  0  0
   37.6470   28.1550   43.6780 C   0  0  0  0  0  0  0  0  0  0  0  0
   37.8220   28.1860   44.7350 H   0  0  0  0  0  0  0  0  0  0  0  0
   37.2430   26.9650   43.1310 C   0  0  0  0  0  3  0  0  0  0  0  0
   37.0160   26.9050   41.7920 C   0  0  0  0  0  3  0  0  0  0  0  0
   36.2310   28.9640   38.8380 H   0  0  0  0  0  0  0  0  0  0  0  0
   36.8750   27.8510   39.2750 S   0  0  0  0  0  0  0  0  0  0  0  0
   35.9320   26.6950   39.0240 O   0  0  0  0  0  0  0  0  0  0  0  0
   38.1290   27.5350   38.5130 O   0  0  0  0  0  0  0  0  0  0  0  0
  1  6  1  0  0  0  0
  2  1  2  0  0  0  0
  2  3  1  0  0  0  0
  3  4  2  0  0  0  0
  4  5  1  0  0  0  0
  4  9  1  0  0  0  0
  5 22  1  0  0  0  0
  6  5  2  0  0  0  0
  7  2  1  0  0  0  0
  8  3  1  0  0  0  0
 10 15  1  0  0  0  0
 11 10  2  0  0  0  0
 11 12  1  0  0  0  0
 12 13  2  0  0  0  0
 13 14  1  0  0  0  0
 14  1  1  0  0  0  0
 15 14  2  0  0  0  0
 16 10  1  0  0  0  0
 16 20  1  0  0  0  0
 17 11  1  0  0  0  0
 18 12  1  0  0  0  0
 19 16  1  0  0  0  0
 21 22  2  0  0  0  0
 21 28  1  0  0  0  0
 22 23  1  0  0  0  0
 23 24  1  0  0  0  0
 23 25  2  0  0  0  0
 25 26  1  0  0  0  0
 27 25  1  0  0  0  0
 28 27  2  0  0  0  0
 29 30  1  0  0  0  0
 30 21  1  0  0  0  0
 31 30  2  0  0  0  0
 32 30  2  0  0  0  0
M  END
>  <minimizedAffinity>
-6.1004529

$$$$

 OpenBabel03242520113D

 32 34  0  0  0  0  0  0  0  0999 V2000
   37.4010   28.9930   41.2430 C   0  0  0  0  0  0  0  0  0  0  0  0
   37.3480   29.2420   42.5830 C   0  0  0  0  0  0  0  0  0  0  0  0
   37.3600   28.1930   43.4730 C   0  0  0  0  0  0  0  0  0  0  0  0
   37.4260   26.8800   42.9760 C   0  0  0  0  0  0  0  0  0  0  0  0
   37.4770   26.6630   41.6190 C   0  0  0  0  0  0  0  0  0  0  0  0
   37.4620   27.7120   40.8280 N   0  0  0  0  0  0  0  0  0  0  0  0
   37.2990   30.2630   42.9080 H   0  0  0  0  0  0  0  0  0  0  0  0
   37.3180   28.4110   44.5310 H   0  0  0  0  0  0  0  0  0  0  0  0
   37.4310   26.1320   43.7370 H   0  0  0  0  0  0  0  0  0  0  0  0
   37.2970   32.3070   39.6910 C   0  0  0  0  0  0  0  0  0  0  0  0
   37.3750   31.9850   38.3340 C   0  0  0  0  0  0  0  0  0  0  0  0
   37.4620   30.6500   37.9450 C   0  0  0  0  0  0  0  0  0  0  0  0
   37.4650   29.7340   38.9440 N   0  0  0  0  0  0  0  0  0  0  0  0
   37.3910   30.0470   40.2310 C   0  0  0  0  0  0  0  0  0  0  0  0
   37.3070   31.3400   40.5970 N   0  0  0  0  0  0  0  0  0  0  0  0
   37.2080   33.6870   40.0640 N   0  0  0  0  0  0  0  0  0  0  0  0
   37.3700   32.7610   37.5600 H   0  0  0  0  0  0  0  0  0  0  0  0
   37.5250   30.3550   36.9000 H   0  0  0  0  0  0  0  0  0  0  0  0
   36.2110   34.0340   39.9960 H   0  0  0  0  0  0  0  0  0  0  0  0
   37.9320   34.3660   40.3760 H   0  0  0  0  0  0  0  0  0  0  0  0
   38.7190   24.5800   41.0730 C   0  0  0  0  0  0  0  0  0  0  0  0
   37.5460   25.3030   41.1110 C   0  0  0  0  0  0  0  0  0  0  0  0
   36.4570   24.6120   40.6270 C   0  0  0  0  0  0  0  0  0  0  0  0
   35.4830   25.0640   40.6030 H   0  0  0  0  0  0  0  0  0  0  0  0
   36.4760   23.3220   40.1370 C   0  0  0  0  0  0  0  0  0  0  0  0
   35.6070   22.8150   39.7680 H   0  0  0  0  0  0  0  0  0  0  0  0
   37.6680   22.6450   40.1200 C   0  0  0  0  0  3  0  0  0  0  0  0
   38.7820   23.2700   40.5840 C   0  0  0  0  0  3  0  0  0  0  0  0
   40.0440   26.6400   41.6950 H   0  0  0  0  0  0  0  0  0  0  0  0
   40.2060   25.2930   41.6480 S   0  0  0  0  0  0  0  0  0  0  0  0
   41.3350   25.0400   40.6730 O   0  0  0  0  0  0  0  0  0  0  0  0
   40.6400   24.6870   42.9510 O   0  0  0  0  0  0  0  0  0  0  0  0
  1  2  1  0  0  0  0
  2  7  1  0  0  0  0
  2  3  2  0  0  0  0
  3  8  1  0  0  0  0
  4  3  1  0  0  0  0
  4  9  1  0  0  0  0
  5  4  2  0  0  0  0
  6  1  2  0  0  0  0
  6  5  1  0  0  0  0
 10 16  1  0  0  0  0
 10 15  1  0  0  0  0
 11 10  2  0  0  0  0
 12 11  1  0  0  0  0
 12 13  2  0  0  0  0
 13 14  1  0  0  0  0
 14 15  2  0  0  0  0
 14  1  1  0  0  0  0
 16 20  1  0  0  0  0
 17 11  1  0  0  0  0
 18 12  1  0  0  0  0
 19 16  1  0  0  0  0
 21 22  1  0  0  0  0
 21 30  1  0  0  0  0
 22  5  1  0  0  0  0
 23 22  2  0  0  0  0
 24 23  1  0  0  0  0
 25 23  1  0  0  0  0
 26 25  1  0  0  0  0
 27 25  2  0  0  0  0
 27 28  1  0  0  0  0
 28 21  2  0  0  0  0
 30 29  1  0  0  0  0
 30 32  2  0  0  0  0
 31 30  2  0  0  0  0
M  END
>  <minimizedAffinity>
-5.95935535

$$$$

 OpenBabel03242520113D

 32 34  0  0  0  0  0  0  0  0999 V2000
   39.0320   31.7650   39.2190 C   0  0  0  0  0  0  0  0  0  0  0  0
   38.0170   31.8960   38.3170 C   0  0  0  0  0  0  0  0  0  0  0  0
   36.9220   31.0660   38.3960 C   0  0  0  0  0  0  0  0  0  0  0  0
   36.8770   30.0960   39.4130 C   0  0  0  0  0  0  0  0  0  0  0  0
   37.9170   29.9900   40.3060 C   0  0  0  0  0  0  0  0  0  0  0  0
   38.9310   30.8150   40.1700 N   0  0  0  0  0  0  0  0  0  0  0  0
   38.1020   32.6530   37.5620 H   0  0  0  0  0  0  0  0  0  0  0  0
   36.1280   31.1860   37.6730 H   0  0  0  0  0  0  0  0  0  0  0  0
   35.9920   29.5000   39.3980 H   0  0  0  0  0  0  0  0  0  0  0  0
   41.8790   33.7220   38.0070 C   0  0  0  0  0  0  0  0  0  0  0  0
   42.4500   34.1590   39.2040 C   0  0  0  0  0  0  0  0  0  0  0  0
   41.8740   33.7910   40.4190 C   0  0  0  0  0  0  0  0  0  0  0  0
   40.7670   33.0130   40.3450 N   0  0  0  0  0  0  0  0  0  0  0  0
   40.2280   32.6030   39.2040 C   0  0  0  0  0  0  0  0  0  0  0  0
   40.7930   32.9630   38.0360 N   0  0  0  0  0  0  0  0  0  0  0  0
   42.4910   34.1130   36.7730 N   0  0  0  0  0  0  0  0  0  0  0  0
   43.3480   34.7880   39.2150 H   0  0  0  0  0  0  0  0  0  0  0  0
   42.2860   34.1090   41.3740 H   0  0  0  0  0  0  0  0  0  0  0  0
   43.3040   33.4780   36.5350 H   0  0  0  0  0  0  0  0  0  0  0  0
   42.2730   34.8830   36.1080 H   0  0  0  0  0  0  0  0  0  0  0  0
   38.1800   27.6620   41.1350 C   0  0  0  0  0  0  0  0  0  0  0  0
   37.8640   28.9850   41.3550 C   0  0  0  0  0  0  0  0  0  0  0  0
   37.4970   29.2560   42.6540 C   0  0  0  0  0  0  0  0  0  0  0  0
   37.2260   30.2510   42.9550 H   0  0  0  0  0  0  0  0  0  0  0  0
   37.4320   28.3350   43.6800 C   0  0  0  0  0  0  0  0  0  0  0  0
   37.1420   28.5820   44.6810 H   0  0  0  0  0  0  0  0  0  0  0  0
   37.7570   27.0310   43.4110 C   0  0  0  0  0  3  0  0  0  0  0  0
   38.1280   26.6960   42.1470 C   0  0  0  0  0  3  0  0  0  0  0  0
   37.8560   27.7140   38.6290 H   0  0  0  0  0  0  0  0  0  0  0  0
   38.6710   27.1310   39.5460 S   0  0  0  0  0  0  0  0  0  0  0  0
   38.4720   25.6380   39.3930 O   0  0  0  0  0  0  0  0  0  0  0  0
   40.1310   27.3810   39.3070 O   0  0  0  0  0  0  0  0  0  0  0  0
  1  6  1  0  0  0  0
  2  3  1  0  0  0  0
  2  1  2  0  0  0  0
  3  4  2  0  0  0  0
  4  5  1  0  0  0  0
  5 22  1  0  0  0  0
  6  5  2  0  0  0  0
  7  2  1  0  0  0  0
  8  3  1  0  0  0  0
  9  4  1  0  0  0  0
 10 15  2  0  0  0  0
 10 11  1  0  0  0  0
 11 17  1  0  0  0  0
 11 12  2  0  0  0  0
 12 18  1  0  0  0  0
 13 12  1  0  0  0  0
 14  1  1  0  0  0  0
 14 13  2  0  0  0  0
 15 14  1  0  0  0  0
 16 10  1  0  0  0  0
 19 16  1  0  0  0  0
 20 16  1  0  0  0  0
 21 22  2  0  0  0  0
 21 28  1  0  0  0  0
 22 23  1  0  0  0  0
 23 24  1  0  0  0  0
 23 25  2  0  0  0  0
 25 26  1  0  0  0  0
 27 25  1  0  0  0  0
 28 27  2  0  0  0  0
 29 30  1  0  0  0  0
 30 21  1  0  0  0  0
 31 30  2  0  0  0  0
 32 30  2  0  0  0  0
M  END
>  <minimizedAffinity>
-5.79568005

$$$$

 OpenBabel03242520113D

 32 34  0  0  0  0  0  0  0  0999 V2000
   39.0800   30.9440   38.5930 C   0  0  0  0  0  0  0  0  0  0  0  0
   38.1230   31.9040   38.7440 C   0  0  0  0  0  0  0  0  0  0  0  0
   36.9240   31.5840   39.3380 C   0  0  0  0  0  0  0  0  0  0  0  0
   36.7140   30.2660   39.7790 C   0  0  0  0  0  0  0  0  0  0  0  0
   37.7000   29.3220   39.6120 C   0  0  0  0  0  0  0  0  0  0  0  0
   38.8190   29.6980   39.0360 N   0  0  0  0  0  0  0  0  0  0  0  0
   38.3350   32.8930   38.3900 H   0  0  0  0  0  0  0  0  0  0  0  0
   36.1780   32.3580   39.4490 H   0  0  0  0  0  0  0  0  0  0  0  0
   35.7580   30.1110   40.2280 H   0  0  0  0  0  0  0  0  0  0  0  0
   41.9440   32.7040   37.1430 C   0  0  0  0  0  0  0  0  0  0  0  0
   42.7920   31.6430   36.8190 C   0  0  0  0  0  0  0  0  0  0  0  0
   42.3960   30.3340   37.0900 C   0  0  0  0  0  0  0  0  0  0  0  0
   41.1790   30.1850   37.6660 N   0  0  0  0  0  0  0  0  0  0  0  0
   40.3780   31.1980   37.9730 C   0  0  0  0  0  0  0  0  0  0  0  0
   40.7700   32.4580   37.7060 N   0  0  0  0  0  0  0  0  0  0  0  0
   42.3750   34.0390   36.8540 N   0  0  0  0  0  0  0  0  0  0  0  0
   43.7700   31.8120   36.3530 H   0  0  0  0  0  0  0  0  0  0  0  0
   43.0250   29.4800   36.8550 H   0  0  0  0  0  0  0  0  0  0  0  0
   42.1850   34.2870   35.8420 H   0  0  0  0  0  0  0  0  0  0  0  0
   42.8210   34.7650   37.4500 H   0  0  0  0  0  0  0  0  0  0  0  0
   37.9310   27.5010   41.2880 C   0  0  0  0  0  0  0  0  0  0  0  0
   37.4760   27.9610   40.0710 C   0  0  0  0  0  0  0  0  0  0  0  0
   36.7940   27.0120   39.3440 C   0  0  0  0  0  0  0  0  0  0  0  0
   36.3870   27.2450   38.3770 H   0  0  0  0  0  0  0  0  0  0  0  0
   36.5580   25.7110   39.7390 C   0  0  0  0  0  0  0  0  0  0  0  0
   36.0210   24.9990   39.1460 H   0  0  0  0  0  0  0  0  0  0  0  0
   37.0310   25.3010   40.9590 C   0  0  0  0  0  3  0  0  0  0  0  0
   37.7130   26.1900   41.7280 C   0  0  0  0  0  3  0  0  0  0  0  0
   39.7070   29.2700   41.6060 H   0  0  0  0  0  0  0  0  0  0  0  0
   38.8180   28.5660   42.3510 S   0  0  0  0  0  0  0  0  0  0  0  0
   39.6380   27.7710   43.3440 O   0  0  0  0  0  0  0  0  0  0  0  0
   37.8950   29.4230   43.1680 O   0  0  0  0  0  0  0  0  0  0  0  0
  1  2  2  0  0  0  0
  1  6  1  0  0  0  0
  2  3  1  0  0  0  0
  3  8  1  0  0  0  0
  3  4  2  0  0  0  0
  4  9  1  0  0  0  0
  5  4  1  0  0  0  0
  5 22  1  0  0  0  0
  6  5  2  0  0  0  0
  7  2  1  0  0  0  0
 10 15  1  0  0  0  0
 11 12  1  0  0  0  0
 11 10  2  0  0  0  0
 12 13  2  0  0  0  0
 13 14  1  0  0  0  0
 14  1  1  0  0  0  0
 15 14  2  0  0  0  0
 16 10  1  0  0  0  0
 16 20  1  0  0  0  0
 17 11  1  0  0  0  0
 18 12  1  0  0  0  0
 19 16  1  0  0  0  0
 21 28  1  0  0  0  0
 21 30  1  0  0  0  0
 22 21  2  0  0  0  0
 23 25  2  0  0  0  0
 23 22  1  0  0  0  0
 24 23  1  0  0  0  0
 25 27  1  0  0  0  0
 26 25  1  0  0  0  0
 27 28  2  0  0  0  0
 29 30  1  0  0  0  0
 30 32  2  0  0  0  0
 30 31  2  0  0  0  0
M  END
>  <minimizedAffinity>
-5.6711421

$$$$

 OpenBabel03242520113D

 32 34  0  0  0  0  0  0  0  0999 V2000
   37.0640   30.5640   38.9180 C   0  0  0  0  0  0  0  0  0  0  0  0
   36.9810   31.9040   39.1570 C   0  0  0  0  0  0  0  0  0  0  0  0
   37.6220   32.4440   40.2480 C   0  0  0  0  0  0  0  0  0  0  0  0
   38.3540   31.5940   41.0960 C   0  0  0  0  0  0  0  0  0  0  0  0
   38.4170   30.2460   40.8260 C   0  0  0  0  0  0  0  0  0  0  0  0
   37.7800   29.8010   39.7680 N   0  0  0  0  0  0  0  0  0  0  0  0
   36.4100   32.5070   38.4780 H   0  0  0  0  0  0  0  0  0  0  0  0
   37.5450   33.5080   40.4200 H   0  0  0  0  0  0  0  0  0  0  0  0
   38.8170   32.0980   41.9130 H   0  0  0  0  0  0  0  0  0  0  0  0
   36.4740   29.2070   35.5690 C   0  0  0  0  0  0  0  0  0  0  0  0
   35.1820   28.6940   35.6960 C   0  0  0  0  0  0  0  0  0  0  0  0
   34.5110   28.8060   36.9130 C   0  0  0  0  0  0  0  0  0  0  0  0
   35.1840   29.4250   37.9130 N   0  0  0  0  0  0  0  0  0  0  0  0
   36.4130   29.9100   37.7850 C   0  0  0  0  0  0  0  0  0  0  0  0
   37.0520   29.7970   36.6050 N   0  0  0  0  0  0  0  0  0  0  0  0
   37.1410   29.0790   34.3080 N   0  0  0  0  0  0  0  0  0  0  0  0
   34.6760   28.2000   34.8590 H   0  0  0  0  0  0  0  0  0  0  0  0
   33.5050   28.4200   37.0560 H   0  0  0  0  0  0  0  0  0  0  0  0
   36.8440   29.8480   33.6430 H   0  0  0  0  0  0  0  0  0  0  0  0
   37.8340   28.3870   33.9610 H   0  0  0  0  0  0  0  0  0  0  0  0
   38.5940   28.3510   42.4240 C   0  0  0  0  0  0  0  0  0  0  0  0
   39.1760   29.3730   41.7070 C   0  0  0  0  0  0  0  0  0  0  0  0
   40.5340   29.4810   41.9060 C   0  0  0  0  0  0  0  0  0  0  0  0
   41.1070   30.2390   41.4030 H   0  0  0  0  0  0  0  0  0  0  0  0
   41.2930   28.6770   42.7300 C   0  0  0  0  0  0  0  0  0  0  0  0
   42.3510   28.7900   42.8600 H   0  0  0  0  0  0  0  0  0  0  0  0
   40.6670   27.6730   43.4220 C   0  0  0  0  0  3  0  0  0  0  0  0
   39.3260   27.5110   43.2710 C   0  0  0  0  0  3  0  0  0  0  0  0
   36.2460   29.2580   42.1870 H   0  0  0  0  0  0  0  0  0  0  0  0
   36.8760   28.0600   42.2980 S   0  0  0  0  0  0  0  0  0  0  0  0
   36.3450   27.4220   43.5630 O   0  0  0  0  0  0  0  0  0  0  0  0
   36.5590   27.1020   41.1870 O   0  0  0  0  0  0  0  0  0  0  0  0
  1  2  2  0  0  0  0
  1  6  1  0  0  0  0
  2  3  1  0  0  0  0
  3  8  1  0  0  0  0
  3  4  2  0  0  0  0
  4  9  1  0  0  0  0
  5  4  1  0  0  0  0
  5 22  1  0  0  0  0
  6  5  2  0  0  0  0
  7  2  1  0  0  0  0
 10 11  2  0  0  0  0
 10 15  1  0  0  0  0
 11 12  1  0  0  0  0
 12 18  1  0  0  0  0
 12 13  2  0  0  0  0
 14 13  1  0  0  0  0
 14  1  1  0  0  0  0
 15 14  2  0  0  0  0
 16 10  1  0  0  0  0
 17 11  1  0  0  0  0
 19 16  1  0  0  0  0
 20 16  1  0  0  0  0
 21 28  1  0  0  0  0
 22 23  1  0  0  0  0
 22 21  2  0  0  0  0
 23 25  2  0  0  0  0
 24 23  1  0  0  0  0
 25 26  1  0  0  0  0
 25 27  1  0  0  0  0
 28 27  2  0  0  0  0
 29 30  1  0  0  0  0
 30 21  1  0  0  0  0
 30 31  2  0  0  0  0
 32 30  2  0  0  0  0
M  END
>  <minimizedAffinity>
-5.59342813

$$$$

 OpenBabel03242520113D

 32 34  0  0  0  0  0  0  0  0999 V2000
   37.5270   30.0680   39.1920 C   0  0  0  0  0  0  0  0  0  0  0  0
   36.3530   30.1950   38.5090 C   0  0  0  0  0  0  0  0  0  0  0  0
   35.5170   29.1090   38.3820 C   0  0  0  0  0  0  0  0  0  0  0  0
   35.8960   27.8870   38.9640 C   0  0  0  0  0  0  0  0  0  0  0  0
   37.0870   27.7930   39.6450 C   0  0  0  0  0  0  0  0  0  0  0  0
   37.8360   28.8700   39.7260 N   0  0  0  0  0  0  0  0  0  0  0  0
   36.1130   31.1490   38.0850 H   0  0  0  0  0  0  0  0  0  0  0  0
   34.5910   29.2300   37.8380 H   0  0  0  0  0  0  0  0  0  0  0  0
   35.1880   27.1030   38.8160 H   0  0  0  0  0  0  0  0  0  0  0  0
   39.0790   33.1320   40.4580 C   0  0  0  0  0  0  0  0  0  0  0  0
   40.2410   33.2000   39.6860 C   0  0  0  0  0  0  0  0  0  0  0  0
   40.4980   32.2110   38.7390 C   0  0  0  0  0  0  0  0  0  0  0  0
   39.5730   31.2260   38.6340 N   0  0  0  0  0  0  0  0  0  0  0  0
   38.4720   31.1680   39.3710 C   0  0  0  0  0  0  0  0  0  0  0  0
   38.2310   32.1280   40.2840 N   0  0  0  0  0  0  0  0  0  0  0  0
   38.8380   34.1610   41.4250 N   0  0  0  0  0  0  0  0  0  0  0  0
   40.9620   34.0160   39.8060 H   0  0  0  0  0  0  0  0  0  0  0  0
   41.3900   32.2250   38.1170 H   0  0  0  0  0  0  0  0  0  0  0  0
   38.4030   35.0130   40.9710 H   0  0  0  0  0  0  0  0  0  0  0  0
   39.0130   34.2010   42.4490 H   0  0  0  0  0  0  0  0  0  0  0  0
   37.4490   26.3080   41.6050 C   0  0  0  0  0  0  0  0  0  0  0  0
   37.4730   26.5260   40.2450 C   0  0  0  0  0  0  0  0  0  0  0  0
   37.8940   25.4340   39.5190 C   0  0  0  0  0  0  0  0  0  0  0  0
   37.9570   25.4750   38.4470 H   0  0  0  0  0  0  0  0  0  0  0  0
   38.2680   24.2150   40.0450 C   0  0  0  0  0  0  0  0  0  0  0  0
   38.5910   23.3850   39.4480 H   0  0  0  0  0  0  0  0  0  0  0  0
   38.2270   24.0470   41.4050 C   0  0  0  0  0  3  0  0  0  0  0  0
   37.8200   25.0870   42.1800 C   0  0  0  0  0  3  0  0  0  0  0  0
   36.5140   28.6320   41.9410 H   0  0  0  0  0  0  0  0  0  0  0  0
   36.9390   27.5800   42.6880 S   0  0  0  0  0  0  0  0  0  0  0  0
   38.1070   28.0900   43.5040 O   0  0  0  0  0  0  0  0  0  0  0  0
   35.9240   27.0890   43.6780 O   0  0  0  0  0  0  0  0  0  0  0  0
  1 14  1  0  0  0  0
  1  6  1  0  0  0  0
  2  1  2  0  0  0  0
  3  2  1  0  0  0  0
  3  4  2  0  0  0  0
  4  5  1  0  0  0  0
  5  6  2  0  0  0  0
  5 22  1  0  0  0  0
  7  2  1  0  0  0  0
  8  3  1  0  0  0  0
  9  4  1  0  0  0  0
 10 16  1  0  0  0  0
 11 17  1  0  0  0  0
 11 10  2  0  0  0  0
 12 11  1  0  0  0  0
 13 12  2  0  0  0  0
 13 14  1  0  0  0  0
 14 15  2  0  0  0  0
 15 10  1  0  0  0  0
 16 20  1  0  0  0  0
 18 12  1  0  0  0  0
 19 16  1  0  0  0  0
 21 28  1  0  0  0  0
 21 30  1  0  0  0  0
 22 21  2  0  0  0  0
 23 25  2  0  0  0  0
 23 22  1  0  0  0  0
 24 23  1  0  0  0  0
 25 27  1  0  0  0  0
 26 25  1  0  0  0  0
 27 28  2  0  0  0  0
 29 30  1  0  0  0  0
 30 31  2  0  0  0  0
 30 32  2  0  0  0  0
M  END
>  <minimizedAffinity>
-5.48766994

$$$$

 OpenBabel03242520113D

 32 34  0  0  0  0  0  0  0  0999 V2000
   37.6140   26.7230   41.6640 C   0  0  0  0  0  0  0  0  0  0  0  0
   36.9050   26.6840   42.8290 C   0  0  0  0  0  0  0  0  0  0  0  0
   36.9290   27.7670   43.6780 C   0  0  0  0  0  0  0  0  0  0  0  0
   37.6890   28.8940   43.3210 C   0  0  0  0  0  0  0  0  0  0  0  0
   38.3920   28.9000   42.1390 C   0  0  0  0  0  0  0  0  0  0  0  0
   38.3240   27.8320   41.3770 N   0  0  0  0  0  0  0  0  0  0  0  0
   36.3420   25.8000   43.0520 H   0  0  0  0  0  0  0  0  0  0  0  0
   36.3610   27.7180   44.5960 H   0  0  0  0  0  0  0  0  0  0  0  0
   37.6480   29.6840   44.0370 H   0  0  0  0  0  0  0  0  0  0  0  0
   37.9140   23.3490   40.2740 C   0  0  0  0  0  0  0  0  0  0  0  0
   37.6950   23.5840   38.9150 C   0  0  0  0  0  0  0  0  0  0  0  0
   37.4460   24.8810   38.4690 C   0  0  0  0  0  0  0  0  0  0  0  0
   37.4350   25.8480   39.4180 N   0  0  0  0  0  0  0  0  0  0  0  0
   37.6440   25.6180   40.7080 C   0  0  0  0  0  0  0  0  0  0  0  0
   37.8840   24.3610   41.1290 N   0  0  0  0  0  0  0  0  0  0  0  0
   38.1690   22.0080   40.7050 N   0  0  0  0  0  0  0  0  0  0  0  0
   37.7130   22.7690   38.1820 H   0  0  0  0  0  0  0  0  0  0  0  0
   37.2700   25.1080   37.4200 H   0  0  0  0  0  0  0  0  0  0  0  0
   39.1870   21.7520   40.5680 H   0  0  0  0  0  0  0  0  0  0  0  0
   37.5430   21.2830   41.1110 H   0  0  0  0  0  0  0  0  0  0  0  0
   38.7290   31.0170   40.8800 C   0  0  0  0  0  0  0  0  0  0  0  0
   39.1760   30.0700   41.7750 C   0  0  0  0  0  0  0  0  0  0  0  0
   40.4250   30.3420   42.2870 C   0  0  0  0  0  0  0  0  0  0  0  0
   40.8860   29.6800   42.9970 H   0  0  0  0  0  0  0  0  0  0  0  0
   41.2020   31.4370   41.9720 C   0  0  0  0  0  0  0  0  0  0  0  0
   42.1720   31.6170   42.3910 H   0  0  0  0  0  0  0  0  0  0  0  0
   40.7130   32.3510   41.0750 C   0  0  0  0  0  3  0  0  0  0  0  0
   39.4850   32.1420   40.5320 C   0  0  0  0  0  3  0  0  0  0  0  0
   37.0890   29.6020   39.5760 H   0  0  0  0  0  0  0  0  0  0  0  0
   37.1620   30.8410   40.1280 S   0  0  0  0  0  0  0  0  0  0  0  0
   37.0030   31.8200   38.9850 O   0  0  0  0  0  0  0  0  0  0  0  0
   36.0510   31.1440   41.0900 O   0  0  0  0  0  0  0  0  0  0  0  0
  1  2  1  0  0  0  0
  2  7  1  0  0  0  0
  2  3  2  0  0  0  0
  3  8  1  0  0  0  0
  4  3  1  0  0  0  0
  4  9  1  0  0  0  0
  5  4  2  0  0  0  0
  6  1  2  0  0  0  0
  6  5  1  0  0  0  0
 10 16  1  0  0  0  0
 10 15  1  0  0  0  0
 11 10  2  0  0  0  0
 12 11  1  0  0  0  0
 12 13  2  0  0  0  0
 13 14  1  0  0  0  0
 14 15  2  0  0  0  0
 14  1  1  0  0  0  0
 16 20  1  0  0  0  0
 17 11  1  0  0  0  0
 18 12  1  0  0  0  0
 19 16  1  0  0  0  0
 21 22  1  0  0  0  0
 22  5  1  0  0  0  0
 22 23  2  0  0  0  0
 23 24  1  0  0  0  0
 25 23  1  0  0  0  0
 25 26  1  0  0  0  0
 27 25  2  0  0  0  0
 28 21  2  0  0  0  0
 28 27  1  0  0  0  0
 29 30  1  0  0  0  0
 30 21  1  0  0  0  0
 30 32  2  0  0  0  0
 31 30  2  0  0  0  0
M  END
>  <minimizedAffinity>
-5.4142704

$$$$

 OpenBabel03242520113D

 32 34  0  0  0  0  0  0  0  0999 V2000
   38.9280   28.5590   42.6360 C   0  0  0  0  0  0  0  0  0  0  0  0
   38.1680   28.1040   43.6730 C   0  0  0  0  0  0  0  0  0  0  0  0
   36.8760   27.6890   43.4420 C   0  0  0  0  0  0  0  0  0  0  0  0
   36.3690   27.7450   42.1320 C   0  0  0  0  0  0  0  0  0  0  0  0
   37.1620   28.2100   41.1090 C   0  0  0  0  0  0  0  0  0  0  0  0
   38.3850   28.5890   41.4030 N   0  0  0  0  0  0  0  0  0  0  0  0
   38.6040   28.0820   44.6520 H   0  0  0  0  0  0  0  0  0  0  0  0
   36.2900   27.3310   44.2760 H   0  0  0  0  0  0  0  0  0  0  0  0
   35.3620   27.4030   42.0470 H   0  0  0  0  0  0  0  0  0  0  0  0
   41.8450   30.7610   42.8390 C   0  0  0  0  0  0  0  0  0  0  0  0
   42.8710   29.8480   43.0940 C   0  0  0  0  0  0  0  0  0  0  0  0
   42.5760   28.4900   43.1960 C   0  0  0  0  0  0  0  0  0  0  0  0
   41.2750   28.1460   43.0360 N   0  0  0  0  0  0  0  0  0  0  0  0
   40.3050   29.0190   42.7950 C   0  0  0  0  0  0  0  0  0  0  0  0
   40.6010   30.3290   42.6970 N   0  0  0  0  0  0  0  0  0  0  0  0
   42.1750   32.1510   42.7380 N   0  0  0  0  0  0  0  0  0  0  0  0
   43.9100   30.1730   43.2160 H   0  0  0  0  0  0  0  0  0  0  0  0
   43.3430   27.7450   43.3930 H   0  0  0  0  0  0  0  0  0  0  0  0
   42.5310   32.3870   41.7700 H   0  0  0  0  0  0  0  0  0  0  0  0
   42.1230   32.9250   43.4310 H   0  0  0  0  0  0  0  0  0  0  0  0
   36.3400   29.4500   39.1190 C   0  0  0  0  0  0  0  0  0  0  0  0
   36.6310   28.2640   39.7570 C   0  0  0  0  0  0  0  0  0  0  0  0
   36.3710   27.1490   38.9920 C   0  0  0  0  0  0  0  0  0  0  0  0
   36.5560   26.1620   39.3750 H   0  0  0  0  0  0  0  0  0  0  0  0
   35.8690   27.1540   37.7080 C   0  0  0  0  0  0  0  0  0  0  0  0
   35.6790   26.2640   37.1410 H   0  0  0  0  0  0  0  0  0  0  0  0
   35.5950   28.3600   37.1150 C   0  0  0  0  0  3  0  0  0  0  0  0
   35.8290   29.5010   37.8170 C   0  0  0  0  0  3  0  0  0  0  0  0
   36.0620   31.9620   39.1790 H   0  0  0  0  0  0  0  0  0  0  0  0
   36.6060   30.9720   39.9340 S   0  0  0  0  0  0  0  0  0  0  0  0
   38.0850   31.2800   40.0260 O   0  0  0  0  0  0  0  0  0  0  0  0
   36.1010   30.9370   41.3470 O   0  0  0  0  0  0  0  0  0  0  0  0
  1 14  1  0  0  0  0
  1  2  1  0  0  0  0
  2  7  1  0  0  0  0
  3  2  2  0  0  0  0
  3  8  1  0  0  0  0
  4  3  1  0  0  0  0
  5  6  1  0  0  0  0
  5  4  2  0  0  0  0
  6  1  2  0  0  0  0
  9  4  1  0  0  0  0
 10 11  1  0  0  0  0
 11 12  2  0  0  0  0
 11 17  1  0  0  0  0
 12 18  1  0  0  0  0
 13 12  1  0  0  0  0
 14 13  2  0  0  0  0
 15 14  1  0  0  0  0
 15 10  2  0  0  0  0
 16 10  1  0  0  0  0
 16 20  1  0  0  0  0
 19 16  1  0  0  0  0
 21 22  1  0  0  0  0
 21 30  1  0  0  0  0
 22  5  1  0  0  0  0
 23 24  1  0  0  0  0
 23 22  2  0  0  0  0
 25 23  1  0  0  0  0
 26 25  1  0  0  0  0
 27 25  2  0  0  0  0
 27 28  1  0  0  0  0
 28 21  2  0  0  0  0
 29 30  1  0  0  0  0
 30 31  2  0  0  0  0
 30 32  2  0  0  0  0
M  END
>  <minimizedAffinity>
-5.39323902

$$$$
