
 OpenBabel03242522473D

 44 47  0  0  0  0  0  0  0  0999 V2000
   45.7470   34.6840   43.9930 C   0  0  0  0  0  0  0  0  0  0  0  0
   46.7980   33.9540   43.4020 C   0  0  0  0  0  0  0  0  0  0  0  0
   47.3840   32.9030   44.1400 C   0  0  0  0  0  0  0  0  0  0  0  0
   46.8810   32.6690   45.3860 N   0  0  0  0  0  0  0  0  0  0  0  0
   45.8680   33.3950   45.9190 C   0  0  0  0  0  0  0  0  0  0  0  0
   45.3280   34.3770   45.2190 N   0  0  0  0  0  0  0  0  0  0  0  0
   45.1610   35.7360   43.2450 N   0  0  0  0  0  0  0  0  0  0  0  0
   48.1930   32.3110   43.7340 H   0  0  0  0  0  0  0  0  0  0  0  0
   45.6900   36.6560   43.1690 H   0  0  0  0  0  0  0  0  0  0  0  0
   44.2590   35.8340   42.7080 H   0  0  0  0  0  0  0  0  0  0  0  0
   47.2960   34.2160   42.0710 C   0  0  0  0  0  0  0  0  0  0  0  0
   48.2840   35.0900   41.6790 C   0  0  0  0  0  0  0  0  0  0  0  0
   48.6540   35.2230   40.3610 C   0  0  0  0  0  0  0  0  0  0  0  0
   48.0320   34.4680   39.3600 C   0  0  0  0  0  0  0  0  0  0  0  0
   48.4350   34.6500   38.0990 N   0  0  0  0  0  0  0  0  0  0  0  0
   47.8410   33.9310   37.1070 C   0  0  0  0  0  0  0  0  0  0  0  0
   46.8410   33.0430   37.4760 C   0  0  0  0  0  0  0  0  0  0  0  0
   46.4190   32.8460   38.7680 C   0  0  0  0  0  0  0  0  0  0  0  0
   47.0440   33.5950   39.7580 C   0  0  0  0  0  0  0  0  0  0  0  0
   46.6700   33.4590   41.0880 C   0  0  0  0  0  0  0  0  0  0  0  0
   48.7360   35.6460   42.4940 H   0  0  0  0  0  0  0  0  0  0  0  0
   49.4490   35.9300   40.1000 H   0  0  0  0  0  0  0  0  0  0  0  0
   48.1200   34.0270   36.0640 H   0  0  0  0  0  0  0  0  0  0  0  0
   46.3610   32.4640   36.6790 H   0  0  0  0  0  0  0  0  0  0  0  0
   45.6230   32.1350   39.0150 H   0  0  0  0  0  0  0  0  0  0  0  0
   45.8810   32.7470   41.2820 H   0  0  0  0  0  0  0  0  0  0  0  0
   45.4350   33.0310   47.2790 C   0  0  0  0  0  0  0  0  0  0  0  0
   46.0790   33.5410   48.0480 H   0  0  0  0  0  0  0  0  0  0  0  0
   44.4310   33.4420   47.4500 H   0  0  0  0  0  0  0  0  0  0  0  0
   45.5030   31.5180   47.5010 C   0  0  0  0  0  0  0  0  0  0  0  0
   45.1180   30.9810   46.6080 H   0  0  0  0  0  0  0  0  0  0  0  0
   44.7140   31.3510   48.3110 H   0  0  0  0  0  0  0  0  0  0  0  0
   47.2080   29.7450   47.6080 C   0  0  0  0  0  0  0  0  0  0  0  0
   46.7980   31.0340   47.9820 C   0  0  0  0  0  0  0  0  0  0  0  0
   47.6680   31.7600   48.7640 C   0  0  0  0  0  0  0  0  0  0  0  0
   47.4020   32.7550   49.0740 H   0  0  0  0  0  0  0  0  0  0  0  0
   48.9190   31.3360   49.2210 C   0  0  0  0  0  0  0  0  0  0  0  0
   49.5340   31.9770   49.8290 H   0  0  0  0  0  0  0  0  0  0  0  0
   49.3160   30.0530   48.8440 C   0  0  0  0  0  0  0  0  0  0  0  0
   48.4610   29.3100   48.0620 C   0  0  0  0  0  0  0  0  0  0  0  0
   46.9300   27.4570   46.5770 H   0  0  0  0  0  0  0  0  0  0  0  0
   46.2560   28.6720   46.6270 S   0  0  0  0  0  0  0  0  0  0  0  0
   44.9160   28.3430   47.2130 O   0  0  0  0  0  0  0  0  0  0  0  0
   46.0690   29.2080   45.2530 O   0  0  0  0  0  0  0  0  0  0  0  0
  1  6  1  0  0  0  0
  2  1  2  0  0  0  0
  2  3  1  0  0  0  0
  3  4  2  0  0  0  0
  4  5  1  0  0  0  0
  5 27  1  0  0  0  0
  6  5  2  0  0  0  0
  7  1  1  0  0  0  0
  8  3  1  0  0  0  0
  9  7  1  0  0  0  0
 10  7  1  0  0  0  0
 11  2  1  0  0  0  0
 12 11  1  0  0  0  0
 12 21  1  0  0  0  0
 13 12  2  0  0  0  0
 14 19  1  0  0  0  0
 14 13  1  0  0  0  0
 15 14  2  0  0  0  0
 16 17  2  0  0  0  0
 16 15  1  0  0  0  0
 17 18  1  0  0  0  0
 18 25  1  0  0  0  0
 18 19  2  0  0  0  0
 19 20  1  0  0  0  0
 20 26  1  0  0  0  0
 20 11  2  0  0  0  0
 22 13  1  0  0  0  0
 23 16  1  0  0  0  0
 24 17  1  0  0  0  0
 27 29  1  0  0  0  0
 27 30  1  0  0  0  0
 27 28  1  0  0  0  0
 30 34  1  0  0  0  0
 30 32  1  0  0  0  0
 31 30  1  0  0  0  0
 33 34  2  0  0  0  0
 33 40  1  0  0  0  0
 34 35  1  0  0  0  0
 35 36  1  0  0  0  0
 35 37  2  0  0  0  0
 37 38  1  0  0  0  0
 39 37  1  0  0  0  0
 40 39  2  0  0  0  0
 41 42  1  0  0  0  0
 42 43  2  0  0  0  0
 42 33  1  0  0  0  0
 44 42  2  0  0  0  0
M  END
>  <minimizedAffinity>
-6.61449862

>  <minimizedRMSD>
2.89548993

$$$$
