
 OpenBabel03252509243D

 30 32  0  0  1  0  0  0  0  0999 V2000
   46.3030   34.9460   42.0540 C   0  0  1  0  0  0  0  0  0  0  0  0
   47.8230   35.1730   41.8760 C   0  0  0  0  0  0  0  0  0  0  0  0
   47.0120   33.9690   41.3090 C   0  0  2  0  0  0  0  0  0  0  0  0
   45.6890   35.7500   41.6390 H   0  0  0  0  0  0  0  0  0  0  0  0
   48.0490   35.9840   41.1910 H   0  0  0  0  0  0  0  0  0  0  0  0
   48.5010   34.9950   42.7070 H   0  0  0  0  0  0  0  0  0  0  0  0
   47.2830   33.0120   41.8640 H   0  0  0  0  0  0  0  0  0  0  0  0
   44.7550   35.0570   45.4790 C   0  0  0  0  0  0  0  0  0  0  0  0
   45.0340   35.4260   44.1380 C   0  0  0  0  0  0  0  0  0  0  0  0
   46.0020   34.6540   43.5150 C   0  0  0  0  0  0  0  0  0  0  0  0
   46.6300   33.6140   44.1750 N   0  0  0  0  0  0  0  0  0  0  0  0
   46.3210   33.3180   45.4400 C   0  0  0  0  0  0  0  0  0  0  0  0
   45.3740   34.0450   46.0990 N   0  0  0  0  0  0  0  0  0  0  0  0
   44.0080   35.6320   46.0000 H   0  0  0  0  0  0  0  0  0  0  0  0
   46.9040   32.4830   45.7930 H   0  0  0  0  0  0  0  0  0  0  0  0
   44.4020   36.5220   43.4730 N   0  0  0  0  0  0  0  0  0  0  0  0
   45.0070   37.3470   43.6820 H   0  0  0  0  0  0  0  0  0  0  0  0
   43.5330   36.4190   42.9260 H   0  0  0  0  0  0  0  0  0  0  0  0
   46.1980   33.2370   38.9350 C   0  0  0  0  0  0  0  0  0  0  0  0
   47.0370   33.8050   39.8370 C   0  0  0  0  0  0  0  0  0  0  0  0
   48.1910   34.4080   39.3170 C   0  0  0  0  0  0  0  0  0  0  0  0
   48.9880   34.9170   39.8770 H   0  0  0  0  0  0  0  0  0  0  0  0
   48.4610   34.4260   37.9560 C   0  0  0  0  0  0  0  0  0  0  0  0
   49.3320   34.8770   37.5060 H   0  0  0  0  0  0  0  0  0  0  0  0
   47.5890   33.8440   37.0860 C   0  0  0  0  0  3  0  0  0  0  0  0
   46.4520   33.2470   37.5830 C   0  0  0  0  0  3  0  0  0  0  0  0
   44.0950   31.7860   38.6090 H   0  0  0  0  0  0  0  0  0  0  0  0
   44.7880   32.4660   39.5740 S   0  0  0  0  0  0  0  0  0  0  0  0
   43.8120   33.5320   40.0650 O   0  0  0  0  0  0  0  0  0  0  0  0
   45.1060   31.5080   40.6760 O   0  0  0  0  0  0  0  0  0  0  0  0
  1  4  1  6  0  0  0
  1 10  1  0  0  0  0
  2  1  1  0  0  0  0
  2  6  1  0  0  0  0
  3  7  1  1  0  0  0
  3  2  1  0  0  0  0
  3  1  1  0  0  0  0
  5  2  1  0  0  0  0
  8 14  1  0  0  0  0
  8 13  1  0  0  0  0
  9  8  2  0  0  0  0
 10  9  1  0  0  0  0
 10 11  2  0  0  0  0
 11 12  1  0  0  0  0
 12 15  1  0  0  0  0
 12 13  2  0  0  0  0
 16 17  1  0  0  0  0
 16  9  1  0  0  0  0
 18 16  1  0  0  0  0
 19 28  1  0  0  0  0
 19 20  1  0  0  0  0
 20  3  1  0  0  0  0
 21 20  2  0  0  0  0
 21 22  1  0  0  0  0
 23 21  1  0  0  0  0
 24 23  1  0  0  0  0
 25 26  1  0  0  0  0
 25 23  2  0  0  0  0
 26 19  2  0  0  0  0
 27 28  1  0  0  0  0
 28 29  2  0  0  0  0
 28 30  2  0  0  0  0
M  END
>  <minimizedAffinity>
-5.43583584

>  <minimizedRMSD>
2.74777818

$$$$
