
 OpenBabel03252505103D

 47 50  0  0  1  0  0  0  0  0999 V2000
   44.6240   35.4310   44.7480 C   0  0  0  0  0  0  0  0  0  0  0  0
   45.2920   35.5090   43.5070 C   0  0  0  0  0  0  0  0  0  0  0  0
   46.4020   34.6280   43.2930 C   0  0  0  0  0  0  0  0  0  0  0  0
   46.7530   33.7780   44.2780 N   0  0  0  0  0  0  0  0  0  0  0  0
   46.0910   33.7350   45.4470 C   0  0  0  0  0  0  0  0  0  0  0  0
   45.0230   34.5610   45.6910 N   0  0  0  0  0  0  0  0  0  0  0  0
   43.7800   36.0940   44.9240 H   0  0  0  0  0  0  0  0  0  0  0  0
   45.0090   36.1860   42.7300 H   0  0  0  0  0  0  0  0  0  0  0  0
   46.5180   32.7850   46.4980 C   0  0  2  0  0  0  0  0  0  0  0  0
   47.0040   31.5620   45.7490 C   0  0  0  0  0  0  0  0  0  0  0  0
   46.0960   30.3930   45.7640 C   0  0  0  0  0  0  0  0  0  0  0  0
   45.8720   30.0940   47.2410 C   0  0  0  0  0  0  0  0  0  0  0  0
   45.1130   31.1630   47.9090 C   0  0  0  0  0  0  0  0  0  0  0  0
   45.4970   32.5340   47.4770 C   0  0  0  0  0  0  0  0  0  0  0  0
   47.4070   33.2640   46.9830 H   0  0  0  0  0  0  0  0  0  0  0  0
   47.2620   31.7740   44.6900 H   0  0  0  0  0  0  0  0  0  0  0  0
   47.9610   31.2310   46.2050 H   0  0  0  0  0  0  0  0  0  0  0  0
   45.1510   30.4830   45.2290 H   0  0  0  0  0  0  0  0  0  0  0  0
   46.6660   29.5310   45.3770 H   0  0  0  0  0  0  0  0  0  0  0  0
   46.8020   29.8010   47.7280 H   0  0  0  0  0  0  0  0  0  0  0  0
   45.1920   29.2170   47.2440 H   0  0  0  0  0  0  0  0  0  0  0  0
   44.3400   31.1540   48.6420 H   0  0  0  0  0  0  0  0  0  0  0  0
   44.8370   33.6610   48.0370 N   0  0  0  0  0  0  0  0  0  0  0  0
   43.8330   33.8800   47.8250 H   0  0  0  0  0  0  0  0  0  0  0  0
   45.3340   34.3090   48.6800 H   0  0  0  0  0  0  0  0  0  0  0  0
   47.1020   34.6860   42.0200 C   0  0  0  0  0  0  0  0  0  0  0  0
   48.2120   35.4680   41.9420 C   0  0  0  0  0  0  0  0  0  0  0  0
   48.8530   35.4940   40.6910 C   0  0  0  0  0  0  0  0  0  0  0  0
   48.2860   34.7240   39.6840 C   0  0  0  0  0  0  0  0  0  0  0  0
   47.1700   33.9360   39.7590 C   0  0  0  0  0  0  0  0  0  0  0  0
   46.5860   33.9510   41.0030 N   0  0  0  0  0  0  0  0  0  0  0  0
   48.5510   36.0220   42.8060 H   0  0  0  0  0  0  0  0  0  0  0  0
   49.7300   36.1140   40.6350 H   0  0  0  0  0  0  0  0  0  0  0  0
   48.8970   34.8600   38.8060 H   0  0  0  0  0  0  0  0  0  0  0  0
   46.6840   33.2200   38.7320 O   0  0  0  0  0  0  0  0  0  0  0  0
   45.7370   32.4510   36.9590 C   0  0  0  0  0  0  0  0  0  0  0  0
   46.9640   32.9070   37.4890 C   0  0  0  0  0  0  0  0  0  0  0  0
   48.0020   32.8830   36.6020 C   0  0  0  0  0  0  0  0  0  0  0  0
   48.9120   33.2270   37.0220 H   0  0  0  0  0  0  0  0  0  0  0  0
   47.9690   32.4740   35.2920 C   0  0  0  0  0  0  0  0  0  0  0  0
   48.8800   32.5190   34.7300 H   0  0  0  0  0  0  0  0  0  0  0  0
   46.7440   32.0440   34.8430 C   0  0  0  0  0  3  0  0  0  0  0  0
   45.6030   32.0170   35.6430 C   0  0  0  0  0  3  0  0  0  0  0  0
   43.2210   31.8760   36.8350 H   0  0  0  0  0  0  0  0  0  0  0  0
   44.1560   32.3130   37.7410 S   0  0  0  0  0  0  0  0  0  0  0  0
   44.2660   31.4020   38.9080 O   0  0  0  0  0  0  0  0  0  0  0  0
   43.7200   33.6630   38.2010 O   0  0  0  0  0  0  0  0  0  0  0  0
  1  7  1  0  0  0  0
  1  6  1  0  0  0  0
  2  1  2  0  0  0  0
  3  2  1  0  0  0  0
  3  4  2  0  0  0  0
  4  5  1  0  0  0  0
  5  6  2  0  0  0  0
  5  9  1  0  0  0  0
  8  2  1  0  0  0  0
  9 15  1  1  0  0  0
  9 14  1  0  0  0  0
 10 11  1  0  0  0  0
 10 17  1  0  0  0  0
 10  9  1  0  0  0  0
 11 12  1  0  0  0  0
 12 21  1  0  0  0  0
 12 20  1  0  0  0  0
 12 13  1  0  0  0  0
 13 22  1  0  0  0  0
 14 13  2  0  0  0  0
 14 23  1  0  0  0  0
 16 10  1  0  0  0  0
 18 11  1  0  0  0  0
 19 11  1  0  0  0  0
 23 25  1  0  0  0  0
 24 23  1  0  0  0  0
 26  3  1  0  0  0  0
 27 26  1  0  0  0  0
 27 32  1  0  0  0  0
 28 27  2  0  0  0  0
 29 30  2  0  0  0  0
 29 28  1  0  0  0  0
 30 31  1  0  0  0  0
 31 26  2  0  0  0  0
 33 28  1  0  0  0  0
 34 29  1  0  0  0  0
 35 30  1  0  0  0  0
 36 37  1  0  0  0  0
 36 45  1  0  0  0  0
 37 35  1  0  0  0  0
 38 39  1  0  0  0  0
 38 37  2  0  0  0  0
 40 38  1  0  0  0  0
 41 40  1  0  0  0  0
 42 40  2  0  0  0  0
 42 43  1  0  0  0  0
 43 36  2  0  0  0  0
 44 45  1  0  0  0  0
 45 47  2  0  0  0  0
 45 46  2  0  0  0  0
M  END
>  <minimizedAffinity>
-7.27565908

>  <minimizedRMSD>
1.5838058

$$$$
