
     RDKit          3D

 45 47  0  0  0  0  0  0  0  0999 V2000
   47.3238   34.0678   42.5111 C   0  0  2  0  0  0  0  0  0  0  0  0
   48.6678   34.6692   42.6550 C   0  0  0  0  0  0  0  0  0  0  0  0
   48.9362   35.7270   41.6394 C   0  0  0  0  0  0  0  0  0  0  0  0
   48.7333   35.2618   40.2167 C   0  0  0  0  0  0  0  0  0  0  0  0
   47.5955   34.3053   40.0448 C   0  0  2  0  0  0  0  0  0  0  0  0
   46.6411   34.3577   41.2195 C   0  0  0  0  0  0  0  0  0  0  0  0
   46.4126   34.3798   43.6241 C   0  0  0  0  0  0  0  0  0  0  0  0
   45.6047   35.4910   43.3966 C   0  0  0  0  0  0  0  0  0  0  0  0
   44.6785   35.8904   44.3645 C   0  0  0  0  0  0  0  0  0  0  0  0
   44.6366   35.1238   45.5167 N   0  0  0  0  0  0  0  0  0  0  0  0
   45.4369   34.0575   45.6984 C   0  0  0  0  0  0  0  0  0  0  0  0
   46.3114   33.6989   44.7546 N   0  0  0  0  0  0  0  0  0  0  0  0
   48.1360   32.9496   39.7658 C   0  0  0  0  0  0  0  0  0  0  0  0
   47.1396   31.9401   39.3437 C   0  0  0  0  0  0  0  0  0  0  0  0
   47.4842   32.9460   42.5755 H   0  0  0  0  0  0  0  0  0  0  0  0
   49.4831   33.9190   42.6511 H   0  0  0  0  0  0  0  0  0  0  0  0
   48.7155   35.1589   43.6547 H   0  0  0  0  0  0  0  0  0  0  0  0
   48.3757   36.6663   41.8574 H   0  0  0  0  0  0  0  0  0  0  0  0
   50.0098   36.0100   41.7331 H   0  0  0  0  0  0  0  0  0  0  0  0
   49.6872   34.8672   39.7834 H   0  0  0  0  0  0  0  0  0  0  0  0
   48.5130   36.1753   39.6100 H   0  0  0  0  0  0  0  0  0  0  0  0
   46.9660   34.5890   39.1542 H   0  0  0  0  0  0  0  0  0  0  0  0
   45.9122   33.5055   41.0570 H   0  0  0  0  0  0  0  0  0  0  0  0
   46.0528   35.2531   41.1220 H   0  0  0  0  0  0  0  0  0  0  0  0
   45.4712   36.2240   42.6153 H   0  0  0  0  0  0  0  0  0  0  0  0
   43.9747   36.6850   44.4059 H   0  0  0  0  0  0  0  0  0  0  0  0
   45.3495   33.4986   46.6346 H   0  0  0  0  0  0  0  0  0  0  0  0
   48.8159   33.0895   38.8682 H   0  0  0  0  0  0  0  0  0  0  0  0
   48.8156   32.6853   40.5732 H   0  0  0  0  0  0  0  0  0  0  0  0
   46.2568   31.8219   40.0304 H   0  0  0  0  0  0  0  0  0  0  0  0
   46.6682   32.3134   38.4100 H   0  0  0  0  0  0  0  0  0  0  0  0
   45.1202   28.0339   38.9843 H   0  0  0  0  0  0  0  0  0  0  0  0
   45.5404   29.2623   39.5083 S   0  0  0  0  0  0  0  0  0  0  0  0
   44.6716   30.2552   38.8037 O   0  0  0  0  0  0  0  0  0  0  0  0
   45.2354   29.1272   40.9711 O   0  0  0  0  0  0  0  0  0  0  0  0
   47.2088   29.3850   39.1258 C   0  0  0  0  0  0  0  0  0  0  0  0
   47.7756   30.6297   39.0681 C   0  0  0  0  0  0  0  0  0  0  0  0
   49.1367   30.6386   38.7263 C   0  0  0  0  0  0  0  0  0  0  0  0
   49.6473   31.6132   38.6633 H   0  0  0  0  0  0  0  0  0  0  0  0
   49.9275   29.5486   38.4540 C   0  0  0  0  0  0  0  0  0  0  0  0
   50.9702   29.6740   38.2001 H   0  0  0  0  0  0  0  0  0  0  0  0
   49.3237   28.3117   38.5226 C   0  0  0  0  0  0  0  0  0  0  0  0
   47.9870   28.2509   38.8543 C   0  0  0  0  0  0  0  0  0  0  0  0
   49.9051   27.4254   38.3173 H   0  0  0  0  0  0  0  0  0  0  0  0
   47.4643   27.2831   38.9207 H   0  0  0  0  0  0  0  0  0  0  0  0
  1  2  1  0
  1  7  1  0
  3  2  1  0
  4  3  1  0
  5  4  1  0
  5  6  1  0
  6  1  1  0
  7 12  1  0
  8  7  2  0
  8  9  1  0
  9 10  2  0
 10 11  1  0
 12 11  2  0
 13  5  1  0
 14 13  1  0
  1 15  1  6
  2 16  1  0
  2 17  1  0
  3 18  1  0
  3 19  1  0
  4 20  1  0
  4 21  1  0
  5 22  1  6
  6 23  1  0
  6 24  1  0
  8 25  1  0
  9 26  1  0
 11 27  1  0
 13 28  1  0
 13 29  1  0
 14 30  1  0
 14 31  1  0
 32 33  1  0
 33 34  2  0
 33 35  2  0
 33 36  1  0
 36 37  2  0
 37 38  1  0
 38 39  1  0
 38 40  2  0
 40 41  1  0
 40 42  1  0
 42 43  2  0
 43 36  1  0
 42 44  1  0
 43 45  1  0
 14 37  1  0
M  ISO  8  15  13  16  13  17  13  18  13  19  13  20  13  21  13  22  13
M  ISO  8  23  13  24  13  25  14  26  14  27  14  28   8  29   8  30   8
M  ISO  4  31   8  32  12  39  15  41  16
M  END
>  <DihAtoms>  (1) 
12,13,36,35

>  <DihDeg>  (1) 
79.53072560737094

$$$$
