
 OpenBabel03252507053D

 50 53  0  0  0  0  0  0  0  0999 V2000
   36.4370   29.5590   38.3750 N   0  0  0  0  0  0  0  0  0  0  0  0
   37.3660   29.2470   37.3330 C   0  0  0  0  0  0  0  0  0  0  0  0
   37.1640   30.4830   36.4560 C   0  0  0  0  0  0  0  0  0  0  0  0
   37.4660   31.7350   37.1300 C   0  0  0  0  0  0  0  0  0  0  0  0
   37.3830   31.7850   38.5740 C   0  0  0  0  0  0  0  0  0  0  0  0
   36.8000   30.6230   39.3330 C   0  0  0  0  0  0  0  0  0  0  0  0
   38.4030   29.0990   37.5770 H   0  0  0  0  0  0  0  0  0  0  0  0
   37.0120   28.3580   36.7770 H   0  0  0  0  0  0  0  0  0  0  0  0
   37.8670   30.3220   35.5880 H   0  0  0  0  0  0  0  0  0  0  0  0
   36.1550   30.3860   36.0200 H   0  0  0  0  0  0  0  0  0  0  0  0
   36.7990   32.5360   36.7190 H   0  0  0  0  0  0  0  0  0  0  0  0
   38.5100   32.0760   36.8610 H   0  0  0  0  0  0  0  0  0  0  0  0
   37.6830   32.6040   39.1590 H   0  0  0  0  0  0  0  0  0  0  0  0
   35.2340   29.0060   38.5730 C   0  0  0  0  0  0  0  0  0  0  0  0
   35.0120   28.7850   39.6740 H   0  0  0  0  0  0  0  0  0  0  0  0
   34.3940   29.6680   38.2750 H   0  0  0  0  0  0  0  0  0  0  0  0
   35.0540   27.6950   37.8960 C   0  0  0  0  0  0  0  0  0  0  0  0
   35.0700   26.8220   38.6070 H   0  0  0  0  0  0  0  0  0  0  0  0
   35.8930   27.5310   37.1670 H   0  0  0  0  0  0  0  0  0  0  0  0
   33.8090   27.7510   37.1110 C   0  0  0  0  0  0  0  0  0  0  0  0
   33.3000   26.6170   36.5220 C   0  0  0  0  0  0  0  0  0  0  0  0
   32.1320   26.7230   35.7840 C   0  0  0  0  0  0  0  0  0  0  0  0
   31.5420   27.9560   35.6810 N   0  0  0  0  0  0  0  0  0  0  0  0
   32.0560   29.0270   36.2620 C   0  0  0  0  0  0  0  0  0  0  0  0
   33.1880   28.8980   36.9680 N   0  0  0  0  0  0  0  0  0  0  0  0
   33.5940   25.5830   36.4990 H   0  0  0  0  0  0  0  0  0  0  0  0
   31.5880   25.9510   35.2520 H   0  0  0  0  0  0  0  0  0  0  0  0
   31.3490   30.2990   36.1250 C   0  0  0  0  0  0  0  0  0  0  0  0
   31.4010   31.0120   34.9300 C   0  0  0  0  0  0  0  0  0  0  0  0
   30.7320   32.2120   34.8210 C   0  0  0  0  0  0  0  0  0  0  0  0
   30.0520   32.5970   35.9510 C   0  0  0  0  0  0  0  0  0  0  0  0
   29.9710   31.9180   37.1670 C   0  0  0  0  0  0  0  0  0  0  0  0
   30.6560   30.7470   37.1940 N   0  0  0  0  0  0  0  0  0  0  0  0
   31.9590   30.6440   34.0790 H   0  0  0  0  0  0  0  0  0  0  0  0
   30.7140   32.8250   33.9510 H   0  0  0  0  0  0  0  0  0  0  0  0
   29.5000   33.5440   35.9250 H   0  0  0  0  0  0  0  0  0  0  0  0
   29.4090   32.3090   37.9920 H   0  0  0  0  0  0  0  0  0  0  0  0
   36.6020   30.5720   41.0360 S   0  0  0  0  0  0  0  0  0  0  0  0
   38.4490   29.4760   42.2970 C   0  0  0  0  0  0  0  0  0  0  0  0
   37.0910   29.2260   41.9870 C   0  0  0  0  0  0  0  0  0  0  0  0
   36.5830   28.0850   42.5150 C   0  0  0  0  0  0  0  0  0  0  0  0
   35.5770   27.9440   42.2320 H   0  0  0  0  0  0  0  0  0  0  0  0
   37.2200   27.1710   43.2950 C   0  0  0  0  0  0  0  0  0  0  0  0
   36.6660   26.3270   43.6250 H   0  0  0  0  0  0  0  0  0  0  0  0
   38.5340   27.4610   43.5650 C   0  0  0  0  0  3  0  0  0  0  0  0
   39.1880   28.5900   43.0940 C   0  0  0  0  0  3  0  0  0  0  0  0
   38.7670   31.9440   41.6830 H   0  0  0  0  0  0  0  0  0  0  0  0
   39.5280   30.8080   41.8470 S   0  0  0  0  0  0  0  0  0  0  0  0
   40.2200   30.4310   40.5720 O   0  0  0  0  0  0  0  0  0  0  0  0
   40.5020   31.0150   42.9530 O   0  0  0  0  0  0  0  0  0  0  0  0
  1 14  1  0  0  0  0
  1  6  1  0  0  0  0
  2  7  1  0  0  0  0
  2  1  1  0  0  0  0
  3  4  1  0  0  0  0
  3  2  1  0  0  0  0
  4  5  1  0  0  0  0
  5 13  1  0  0  0  0
  5  6  2  0  0  0  0
  6 38  1  0  0  0  0
  8  2  1  0  0  0  0
  9  3  1  0  0  0  0
 10  3  1  0  0  0  0
 11  4  1  0  0  0  0
 12  4  1  0  0  0  0
 14 15  1  0  0  0  0
 16 14  1  0  0  0  0
 17 14  1  0  0  0  0
 17 18  1  0  0  0  0
 19 17  1  0  0  0  0
 20 17  1  0  0  0  0
 21 20  2  0  0  0  0
 22 21  1  0  0  0  0
 23 22  2  0  0  0  0
 23 24  1  0  0  0  0
 24 25  2  0  0  0  0
 25 20  1  0  0  0  0
 26 21  1  0  0  0  0
 27 22  1  0  0  0  0
 28 24  1  0  0  0  0
 28 33  1  0  0  0  0
 29 28  2  0  0  0  0
 30 29  1  0  0  0  0
 30 31  2  0  0  0  0
 31 32  1  0  0  0  0
 32 33  2  0  0  0  0
 32 37  1  0  0  0  0
 34 29  1  0  0  0  0
 35 30  1  0  0  0  0
 36 31  1  0  0  0  0
 38 40  1  0  0  0  0
 39 46  1  0  0  0  0
 40 39  2  0  0  0  0
 40 41  1  0  0  0  0
 41 43  2  0  0  0  0
 42 41  1  0  0  0  0
 43 45  1  0  0  0  0
 43 44  1  0  0  0  0
 46 45  2  0  0  0  0
 47 48  1  0  0  0  0
 48 39  1  0  0  0  0
 48 50  2  0  0  0  0
 49 48  2  0  0  0  0
M  END
>  <minimizedAffinity>
-6.22102451

$$$$

 OpenBabel03252507053D

 50 53  0  0  0  0  0  0  0  0999 V2000
   35.8150   29.6890   40.2970 N   0  0  0  0  0  0  0  0  0  0  0  0
   34.5850   29.1790   39.7720 C   0  0  0  0  0  0  0  0  0  0  0  0
   35.1470   28.3350   38.6280 C   0  0  0  0  0  0  0  0  0  0  0  0
   36.0560   27.2880   39.0630 C   0  0  0  0  0  0  0  0  0  0  0  0
   36.7500   27.4490   40.3220 C   0  0  0  0  0  0  0  0  0  0  0  0
   36.6820   28.7630   41.0550 C   0  0  0  0  0  0  0  0  0  0  0  0
   33.9380   28.6040   40.4090 H   0  0  0  0  0  0  0  0  0  0  0  0
   33.9960   30.0110   39.3410 H   0  0  0  0  0  0  0  0  0  0  0  0
   34.2320   27.8880   38.1410 H   0  0  0  0  0  0  0  0  0  0  0  0
   35.5370   29.0520   37.8830 H   0  0  0  0  0  0  0  0  0  0  0  0
   36.8240   27.1220   38.2650 H   0  0  0  0  0  0  0  0  0  0  0  0
   35.5050   26.3030   39.1290 H   0  0  0  0  0  0  0  0  0  0  0  0
   37.3410   26.7080   40.7750 H   0  0  0  0  0  0  0  0  0  0  0  0
   36.2980   30.9290   40.1570 C   0  0  0  0  0  0  0  0  0  0  0  0
   35.4890   31.7100   39.9420 H   0  0  0  0  0  0  0  0  0  0  0  0
   36.7820   31.3160   41.0790 H   0  0  0  0  0  0  0  0  0  0  0  0
   37.2570   31.0800   39.0320 C   0  0  0  0  0  0  0  0  0  0  0  0
   36.7540   31.1950   38.0320 H   0  0  0  0  0  0  0  0  0  0  0  0
   37.9010   30.1620   38.9630 H   0  0  0  0  0  0  0  0  0  0  0  0
   38.1520   32.2100   39.3390 C   0  0  0  0  0  0  0  0  0  0  0  0
   37.6770   33.3220   39.9940 C   0  0  0  0  0  0  0  0  0  0  0  0
   38.5560   34.3630   40.2500 C   0  0  0  0  0  0  0  0  0  0  0  0
   39.8550   34.2280   39.8370 N   0  0  0  0  0  0  0  0  0  0  0  0
   40.2810   33.1430   39.2110 C   0  0  0  0  0  0  0  0  0  0  0  0
   39.4100   32.1520   38.9740 N   0  0  0  0  0  0  0  0  0  0  0  0
   36.7240   33.6050   40.4040 H   0  0  0  0  0  0  0  0  0  0  0  0
   38.3680   35.3080   40.7460 H   0  0  0  0  0  0  0  0  0  0  0  0
   41.6890   33.0690   38.8300 C   0  0  0  0  0  0  0  0  0  0  0  0
   42.4860   32.0130   39.2670 C   0  0  0  0  0  0  0  0  0  0  0  0
   43.8140   31.9620   38.9010 C   0  0  0  0  0  0  0  0  0  0  0  0
   44.2320   33.0030   38.1080 C   0  0  0  0  0  0  0  0  0  0  0  0
   43.4740   34.0780   37.6450 C   0  0  0  0  0  0  0  0  0  0  0  0
   42.1790   34.0560   38.0490 N   0  0  0  0  0  0  0  0  0  0  0  0
   42.0840   31.2260   39.8920 H   0  0  0  0  0  0  0  0  0  0  0  0
   44.4970   31.1970   39.1850 H   0  0  0  0  0  0  0  0  0  0  0  0
   45.2800   33.0170   37.7840 H   0  0  0  0  0  0  0  0  0  0  0  0
   43.9020   34.8420   37.0270 H   0  0  0  0  0  0  0  0  0  0  0  0
   37.4920   29.1010   42.5270 S   0  0  0  0  0  0  0  0  0  0  0  0
   39.9160   28.6130   42.8270 C   0  0  0  0  0  0  0  0  0  0  0  0
   39.0890   29.7350   42.5840 C   0  0  0  0  0  0  0  0  0  0  0  0
   39.7460   30.9140   42.4480 C   0  0  0  0  0  0  0  0  0  0  0  0
   39.0770   31.7130   42.2910 H   0  0  0  0  0  0  0  0  0  0  0  0
   41.0870   31.1330   42.5160 C   0  0  0  0  0  0  0  0  0  0  0  0
   41.4350   32.1290   42.3840 H   0  0  0  0  0  0  0  0  0  0  0  0
   41.8430   30.0120   42.7520 C   0  0  0  0  0  3  0  0  0  0  0  0
   41.3100   28.7420   42.9140 C   0  0  0  0  0  3  0  0  0  0  0  0
   38.2110   26.8090   43.4620 H   0  0  0  0  0  0  0  0  0  0  0  0
   39.5280   26.9010   43.0700 S   0  0  0  0  0  0  0  0  0  0  0  0
   40.4450   26.3650   44.1250 O   0  0  0  0  0  0  0  0  0  0  0  0
   39.7140   26.1910   41.7750 O   0  0  0  0  0  0  0  0  0  0  0  0
  1  6  1  0  0  0  0
  2  1  1  0  0  0  0
  2  7  1  0  0  0  0
  3  4  1  0  0  0  0
  3  2  1  0  0  0  0
  4 12  1  0  0  0  0
  4  5  1  0  0  0  0
  5 13  1  0  0  0  0
  5  6  2  0  0  0  0
  6 38  1  0  0  0  0
  8  2  1  0  0  0  0
  9  3  1  0  0  0  0
 10  3  1  0  0  0  0
 11  4  1  0  0  0  0
 14  1  1  0  0  0  0
 14 16  1  0  0  0  0
 15 14  1  0  0  0  0
 17 20  1  0  0  0  0
 17 14  1  0  0  0  0
 18 17  1  0  0  0  0
 19 17  1  0  0  0  0
 20 21  1  0  0  0  0
 21 22  2  0  0  0  0
 21 26  1  0  0  0  0
 22 27  1  0  0  0  0
 23 22  1  0  0  0  0
 24 23  2  0  0  0  0
 25 24  1  0  0  0  0
 25 20  2  0  0  0  0
 28 24  1  0  0  0  0
 28 29  1  0  0  0  0
 29 34  1  0  0  0  0
 30 35  1  0  0  0  0
 30 29  2  0  0  0  0
 31 30  1  0  0  0  0
 32 33  1  0  0  0  0
 32 31  2  0  0  0  0
 33 28  2  0  0  0  0
 36 31  1  0  0  0  0
 37 32  1  0  0  0  0
 38 40  1  0  0  0  0
 39 46  1  0  0  0  0
 39 48  1  0  0  0  0
 40 39  2  0  0  0  0
 41 43  2  0  0  0  0
 41 40  1  0  0  0  0
 42 41  1  0  0  0  0
 43 45  1  0  0  0  0
 44 43  1  0  0  0  0
 45 46  2  0  0  0  0
 48 47  1  0  0  0  0
 48 49  2  0  0  0  0
 50 48  2  0  0  0  0
M  END
>  <minimizedAffinity>
-6.03695726

$$$$

 OpenBabel03252507053D

 50 53  0  0  0  0  0  0  0  0999 V2000
   37.8430   26.2090   41.7510 N   0  0  0  0  0  0  0  0  0  0  0  0
   38.7140   25.1270   42.0920 C   0  0  0  0  0  0  0  0  0  0  0  0
   37.6950   23.9880   42.0770 C   0  0  0  0  0  0  0  0  0  0  0  0
   37.0390   23.8050   40.7920 C   0  0  0  0  0  0  0  0  0  0  0  0
   36.9580   24.9310   39.8870 C   0  0  0  0  0  0  0  0  0  0  0  0
   37.3650   26.3030   40.3560 C   0  0  0  0  0  0  0  0  0  0  0  0
   39.5590   24.9120   41.4640 H   0  0  0  0  0  0  0  0  0  0  0  0
   39.0800   25.2610   43.1280 H   0  0  0  0  0  0  0  0  0  0  0  0
   38.3010   23.0740   42.3450 H   0  0  0  0  0  0  0  0  0  0  0  0
   37.0390   24.1540   42.9490 H   0  0  0  0  0  0  0  0  0  0  0  0
   35.9980   23.4310   40.9690 H   0  0  0  0  0  0  0  0  0  0  0  0
   37.5420   22.9720   40.2180 H   0  0  0  0  0  0  0  0  0  0  0  0
   36.6040   24.8760   38.9000 H   0  0  0  0  0  0  0  0  0  0  0  0
   37.3750   27.1570   42.5730 C   0  0  0  0  0  0  0  0  0  0  0  0
   37.0150   28.0960   42.0260 H   0  0  0  0  0  0  0  0  0  0  0  0
   36.4760   26.8370   43.1420 H   0  0  0  0  0  0  0  0  0  0  0  0
   38.3810   27.6630   43.5430 C   0  0  0  0  0  0  0  0  0  0  0  0
   39.0000   26.8470   44.0080 H   0  0  0  0  0  0  0  0  0  0  0  0
   37.8570   28.1900   44.3860 H   0  0  0  0  0  0  0  0  0  0  0  0
   39.2110   28.6710   42.8590 C   0  0  0  0  0  0  0  0  0  0  0  0
   40.5830   28.5740   42.8730 C   0  0  0  0  0  0  0  0  0  0  0  0
   41.3210   29.5530   42.2250 C   0  0  0  0  0  0  0  0  0  0  0  0
   40.6430   30.5660   41.6010 N   0  0  0  0  0  0  0  0  0  0  0  0
   39.3210   30.6290   41.6040 C   0  0  0  0  0  0  0  0  0  0  0  0
   38.6320   29.6720   42.2400 N   0  0  0  0  0  0  0  0  0  0  0  0
   41.2850   27.8680   43.2790 H   0  0  0  0  0  0  0  0  0  0  0  0
   42.3960   29.6460   42.1310 H   0  0  0  0  0  0  0  0  0  0  0  0
   38.6760   31.7290   40.8920 C   0  0  0  0  0  0  0  0  0  0  0  0
   37.6180   31.4830   40.0200 C   0  0  0  0  0  0  0  0  0  0  0  0
   37.0250   32.5330   39.3510 C   0  0  0  0  0  0  0  0  0  0  0  0
   37.5610   33.7670   39.6280 C   0  0  0  0  0  0  0  0  0  0  0  0
   38.6160   34.0620   40.4920 C   0  0  0  0  0  0  0  0  0  0  0  0
   39.1450   32.9760   41.1090 N   0  0  0  0  0  0  0  0  0  0  0  0
   37.2490   30.4800   39.8520 H   0  0  0  0  0  0  0  0  0  0  0  0
   36.2140   32.4430   38.6680 H   0  0  0  0  0  0  0  0  0  0  0  0
   37.1300   34.6420   39.1260 H   0  0  0  0  0  0  0  0  0  0  0  0
   38.9580   35.0670   40.6360 H   0  0  0  0  0  0  0  0  0  0  0  0
   37.2760   27.7250   39.4020 S   0  0  0  0  0  0  0  0  0  0  0  0
   35.9930   28.2120   37.3250 C   0  0  0  0  0  0  0  0  0  0  0  0
   35.8040   28.2970   38.7240 C   0  0  0  0  0  0  0  0  0  0  0  0
   34.5860   28.7520   39.1120 C   0  0  0  0  0  0  0  0  0  0  0  0
   34.5140   28.8130   40.1620 H   0  0  0  0  0  0  0  0  0  0  0  0
   33.5450   29.1270   38.3210 C   0  0  0  0  0  0  0  0  0  0  0  0
   32.6550   29.4600   38.7960 H   0  0  0  0  0  0  0  0  0  0  0  0
   33.7800   29.0250   36.9720 C   0  0  0  0  0  3  0  0  0  0  0  0
   34.9760   28.5770   36.4300 C   0  0  0  0  0  3  0  0  0  0  0  0
   38.5260   27.8920   37.1010 H   0  0  0  0  0  0  0  0  0  0  0  0
   37.3830   27.6880   36.3590 S   0  0  0  0  0  0  0  0  0  0  0  0
   37.4040   28.5000   35.1000 O   0  0  0  0  0  0  0  0  0  0  0  0
   37.2300   26.2360   36.0670 O   0  0  0  0  0  0  0  0  0  0  0  0
  1  2  1  0  0  0  0
  1 14  1  0  0  0  0
  2  8  1  0  0  0  0
  3  2  1  0  0  0  0
  3  9  1  0  0  0  0
  3 10  1  0  0  0  0
  4 11  1  0  0  0  0
  4  3  1  0  0  0  0
  5  6  2  0  0  0  0
  5  4  1  0  0  0  0
  6  1  1  0  0  0  0
  7  2  1  0  0  0  0
 12  4  1  0  0  0  0
 13  5  1  0  0  0  0
 14 16  1  0  0  0  0
 14 17  1  0  0  0  0
 15 14  1  0  0  0  0
 17 18  1  0  0  0  0
 17 19  1  0  0  0  0
 20 21  1  0  0  0  0
 20 17  1  0  0  0  0
 21 26  1  0  0  0  0
 22 21  2  0  0  0  0
 23 24  2  0  0  0  0
 23 22  1  0  0  0  0
 24 25  1  0  0  0  0
 25 20  2  0  0  0  0
 27 22  1  0  0  0  0
 28 33  1  0  0  0  0
 28 24  1  0  0  0  0
 29 28  2  0  0  0  0
 30 31  2  0  0  0  0
 30 29  1  0  0  0  0
 31 32  1  0  0  0  0
 32 37  1  0  0  0  0
 32 33  2  0  0  0  0
 34 29  1  0  0  0  0
 35 30  1  0  0  0  0
 36 31  1  0  0  0  0
 38  6  1  0  0  0  0
 39 40  1  0  0  0  0
 40 41  2  0  0  0  0
 40 38  1  0  0  0  0
 41 42  1  0  0  0  0
 43 44  1  0  0  0  0
 43 41  1  0  0  0  0
 45 43  2  0  0  0  0
 46 45  1  0  0  0  0
 46 39  2  0  0  0  0
 48 47  1  0  0  0  0
 48 39  1  0  0  0  0
 49 48  2  0  0  0  0
 50 48  2  0  0  0  0
M  END
>  <minimizedAffinity>
-5.90663481

$$$$

 OpenBabel03252507053D

 50 53  0  0  0  0  0  0  0  0999 V2000
   37.7210   30.9620   40.5400 N   0  0  0  0  0  0  0  0  0  0  0  0
   36.7650   31.7190   39.7920 C   0  0  0  0  0  0  0  0  0  0  0  0
   37.1010   31.2080   38.3910 C   0  0  0  0  0  0  0  0  0  0  0  0
   36.9350   29.7720   38.2350 C   0  0  0  0  0  0  0  0  0  0  0  0
   37.0210   28.9320   39.4100 C   0  0  0  0  0  0  0  0  0  0  0  0
   37.4730   29.5170   40.7210 C   0  0  0  0  0  0  0  0  0  0  0  0
   35.7180   31.6130   40.0130 H   0  0  0  0  0  0  0  0  0  0  0  0
   37.0220   32.7950   39.8470 H   0  0  0  0  0  0  0  0  0  0  0  0
   36.3860   31.7640   37.7170 H   0  0  0  0  0  0  0  0  0  0  0  0
   38.0950   31.6220   38.1460 H   0  0  0  0  0  0  0  0  0  0  0  0
   37.6850   29.4010   37.4910 H   0  0  0  0  0  0  0  0  0  0  0  0
   35.9350   29.5500   37.7580 H   0  0  0  0  0  0  0  0  0  0  0  0
   36.8100   27.9030   39.4220 H   0  0  0  0  0  0  0  0  0  0  0  0
   38.8560   31.4140   41.0860 C   0  0  0  0  0  0  0  0  0  0  0  0
   38.9300   31.2150   42.2110 H   0  0  0  0  0  0  0  0  0  0  0  0
   39.7640   30.9160   40.6830 H   0  0  0  0  0  0  0  0  0  0  0  0
   39.0410   32.8830   40.9650 C   0  0  0  0  0  0  0  0  0  0  0  0
   39.2700   33.3850   41.9460 H   0  0  0  0  0  0  0  0  0  0  0  0
   38.0950   33.3500   40.5780 H   0  0  0  0  0  0  0  0  0  0  0  0
   40.0850   33.1330   39.9550 C   0  0  0  0  0  0  0  0  0  0  0  0
   40.6220   34.3890   39.7970 C   0  0  0  0  0  0  0  0  0  0  0  0
   41.5930   34.5760   38.8260 C   0  0  0  0  0  0  0  0  0  0  0  0
   41.9700   33.4950   38.0740 N   0  0  0  0  0  0  0  0  0  0  0  0
   41.4360   32.2980   38.2520 C   0  0  0  0  0  0  0  0  0  0  0  0
   40.4970   32.1460   39.1950 N   0  0  0  0  0  0  0  0  0  0  0  0
   40.4780   35.3370   40.2850 H   0  0  0  0  0  0  0  0  0  0  0  0
   42.1240   35.4810   38.5570 H   0  0  0  0  0  0  0  0  0  0  0  0
   41.9150   31.1930   37.4250 C   0  0  0  0  0  0  0  0  0  0  0  0
   41.2670   29.9600   37.4480 C   0  0  0  0  0  0  0  0  0  0  0  0
   41.7360   28.9270   36.6640 C   0  0  0  0  0  0  0  0  0  0  0  0
   42.8410   29.2350   35.9080 C   0  0  0  0  0  0  0  0  0  0  0  0
   43.5210   30.4510   35.8510 C   0  0  0  0  0  0  0  0  0  0  0  0
   42.9990   31.4150   36.6510 N   0  0  0  0  0  0  0  0  0  0  0  0
   40.3990   29.7920   38.0710 H   0  0  0  0  0  0  0  0  0  0  0  0
   41.3090   27.9540   36.6160 H   0  0  0  0  0  0  0  0  0  0  0  0
   43.2600   28.4530   35.2640 H   0  0  0  0  0  0  0  0  0  0  0  0
   44.3790   30.5860   35.2230 H   0  0  0  0  0  0  0  0  0  0  0  0
   37.6610   28.6250   42.1730 S   0  0  0  0  0  0  0  0  0  0  0  0
   39.1310   26.6760   42.6640 C   0  0  0  0  0  0  0  0  0  0  0  0
   37.8170   26.9130   42.1980 C   0  0  0  0  0  0  0  0  0  0  0  0
   37.0890   25.7970   41.9430 C   0  0  0  0  0  0  0  0  0  0  0  0
   36.1290   26.0380   41.5780 H   0  0  0  0  0  0  0  0  0  0  0  0
   37.4740   24.5000   42.0840 C   0  0  0  0  0  0  0  0  0  0  0  0
   36.7690   23.7440   41.8370 H   0  0  0  0  0  0  0  0  0  0  0  0
   38.7570   24.3260   42.5400 C   0  0  0  0  0  3  0  0  0  0  0  0
   39.6170   25.3720   42.8410 C   0  0  0  0  0  3  0  0  0  0  0  0
   39.8600   28.9570   43.5780 H   0  0  0  0  0  0  0  0  0  0  0  0
   40.4320   27.7900   43.1220 S   0  0  0  0  0  0  0  0  0  0  0  0
   41.2750   28.0390   41.9090 O   0  0  0  0  0  0  0  0  0  0  0  0
   41.2240   27.1620   44.2150 O   0  0  0  0  0  0  0  0  0  0  0  0
  1  6  1  0  0  0  0
  1 14  1  0  0  0  0
  2  8  1  0  0  0  0
  2  7  1  0  0  0  0
  2  1  1  0  0  0  0
  3  2  1  0  0  0  0
  4  3  1  0  0  0  0
  4  5  1  0  0  0  0
  5 13  1  0  0  0  0
  5  6  2  0  0  0  0
  6 38  1  0  0  0  0
  9  3  1  0  0  0  0
 10  3  1  0  0  0  0
 11  4  1  0  0  0  0
 12  4  1  0  0  0  0
 14 15  1  0  0  0  0
 16 14  1  0  0  0  0
 17 14  1  0  0  0  0
 17 18  1  0  0  0  0
 19 17  1  0  0  0  0
 20 17  1  0  0  0  0
 21 20  1  0  0  0  0
 21 26  1  0  0  0  0
 22 21  2  0  0  0  0
 23 24  2  0  0  0  0
 23 22  1  0  0  0  0
 24 25  1  0  0  0  0
 25 20  2  0  0  0  0
 27 22  1  0  0  0  0
 28 29  1  0  0  0  0
 28 24  1  0  0  0  0
 29 34  1  0  0  0  0
 30 29  2  0  0  0  0
 31 30  1  0  0  0  0
 32 31  2  0  0  0  0
 32 33  1  0  0  0  0
 33 28  2  0  0  0  0
 35 30  1  0  0  0  0
 36 31  1  0  0  0  0
 37 32  1  0  0  0  0
 38 40  1  0  0  0  0
 39 46  1  0  0  0  0
 39 48  1  0  0  0  0
 40 39  2  0  0  0  0
 41 43  2  0  0  0  0
 41 40  1  0  0  0  0
 42 41  1  0  0  0  0
 43 45  1  0  0  0  0
 44 43  1  0  0  0  0
 45 46  2  0  0  0  0
 48 47  1  0  0  0  0
 48 50  2  0  0  0  0
 49 48  2  0  0  0  0
M  END
>  <minimizedAffinity>
-5.90064096

$$$$

 OpenBabel03252507053D

 50 53  0  0  0  0  0  0  0  0999 V2000
   36.3740   28.9300   37.7800 N   0  0  0  0  0  0  0  0  0  0  0  0
   37.0090   29.0200   36.5010 C   0  0  0  0  0  0  0  0  0  0  0  0
   36.9730   30.5380   36.3240 C   0  0  0  0  0  0  0  0  0  0  0  0
   37.6840   31.2650   37.3630 C   0  0  0  0  0  0  0  0  0  0  0  0
   37.8590   30.6380   38.6550 C   0  0  0  0  0  0  0  0  0  0  0  0
   37.1450   29.3510   38.9680 C   0  0  0  0  0  0  0  0  0  0  0  0
   38.0020   28.6280   36.3760 H   0  0  0  0  0  0  0  0  0  0  0  0
   36.3580   28.5590   35.7330 H   0  0  0  0  0  0  0  0  0  0  0  0
   37.4580   30.7090   35.3190 H   0  0  0  0  0  0  0  0  0  0  0  0
   35.9120   30.8020   36.1710 H   0  0  0  0  0  0  0  0  0  0  0  0
   37.1750   32.2510   37.5250 H   0  0  0  0  0  0  0  0  0  0  0  0
   38.7180   31.5410   37.0010 H   0  0  0  0  0  0  0  0  0  0  0  0
   38.4460   31.0310   39.4330 H   0  0  0  0  0  0  0  0  0  0  0  0
   35.1230   28.5240   38.0310 C   0  0  0  0  0  0  0  0  0  0  0  0
   34.9280   28.3130   39.1390 H   0  0  0  0  0  0  0  0  0  0  0  0
   34.3570   29.2900   37.7820 H   0  0  0  0  0  0  0  0  0  0  0  0
   34.7510   27.2580   37.3480 C   0  0  0  0  0  0  0  0  0  0  0  0
   34.7470   26.3670   38.0360 H   0  0  0  0  0  0  0  0  0  0  0  0
   35.4970   27.0350   36.5380 H   0  0  0  0  0  0  0  0  0  0  0  0
   33.4490   27.4580   36.6880 C   0  0  0  0  0  0  0  0  0  0  0  0
   32.7800   26.3970   36.1230 C   0  0  0  0  0  0  0  0  0  0  0  0
   31.5630   26.6380   35.5040 C   0  0  0  0  0  0  0  0  0  0  0  0
   31.0890   27.9230   35.4890 N   0  0  0  0  0  0  0  0  0  0  0  0
   31.7560   28.9210   36.0440 C   0  0  0  0  0  0  0  0  0  0  0  0
   32.9310   28.6620   36.6340 N   0  0  0  0  0  0  0  0  0  0  0  0
   32.9690   25.3410   36.0470 H   0  0  0  0  0  0  0  0  0  0  0  0
   30.9000   25.9390   35.0080 H   0  0  0  0  0  0  0  0  0  0  0  0
   31.1660   30.2570   36.0070 C   0  0  0  0  0  0  0  0  0  0  0  0
   31.2420   31.0330   34.8530 C   0  0  0  0  0  0  0  0  0  0  0  0
   30.6840   32.2930   34.8380 C   0  0  0  0  0  0  0  0  0  0  0  0
   30.0840   32.6700   36.0150 C   0  0  0  0  0  0  0  0  0  0  0  0
   29.9820   31.9300   37.1930 C   0  0  0  0  0  0  0  0  0  0  0  0
   30.5560   30.7030   37.1270 N   0  0  0  0  0  0  0  0  0  0  0  0
   31.7330   30.6670   33.9600 H   0  0  0  0  0  0  0  0  0  0  0  0
   30.6930   32.9560   34.0050 H   0  0  0  0  0  0  0  0  0  0  0  0
   29.6210   33.6630   36.0640 H   0  0  0  0  0  0  0  0  0  0  0  0
   29.4890   32.3210   38.0600 H   0  0  0  0  0  0  0  0  0  0  0  0
   37.2300   28.5290   40.4710 S   0  0  0  0  0  0  0  0  0  0  0  0
   37.2130   26.5550   41.9870 C   0  0  0  0  0  0  0  0  0  0  0  0
   37.0420   26.8260   40.6100 C   0  0  0  0  0  0  0  0  0  0  0  0
   36.7690   25.7430   39.8410 C   0  0  0  0  0  0  0  0  0  0  0  0
   36.6740   26.0050   38.8240 H   0  0  0  0  0  0  0  0  0  0  0  0
   36.6440   24.4480   40.2390 C   0  0  0  0  0  0  0  0  0  0  0  0
   36.4260   23.7190   39.4970 H   0  0  0  0  0  0  0  0  0  0  0  0
   36.8190   24.2400   41.5840 C   0  0  0  0  0  3  0  0  0  0  0  0
   37.1030   25.2510   42.4910 C   0  0  0  0  0  3  0  0  0  0  0  0
   37.7540   28.8980   42.8740 H   0  0  0  0  0  0  0  0  0  0  0  0
   37.5750   27.6200   43.3570 S   0  0  0  0  0  0  0  0  0  0  0  0
   38.8180   27.1140   44.0200 O   0  0  0  0  0  0  0  0  0  0  0  0
   36.4130   27.5980   44.2870 O   0  0  0  0  0  0  0  0  0  0  0  0
  1 14  1  0  0  0  0
  1  6  1  0  0  0  0
  2  1  1  0  0  0  0
  3  2  1  0  0  0  0
  3  4  1  0  0  0  0
  4 11  1  0  0  0  0
  4  5  1  0  0  0  0
  5  6  2  0  0  0  0
  5 13  1  0  0  0  0
  6 38  1  0  0  0  0
  7  2  1  0  0  0  0
  8  2  1  0  0  0  0
  9  3  1  0  0  0  0
 10  3  1  0  0  0  0
 12  4  1  0  0  0  0
 14 15  1  0  0  0  0
 16 14  1  0  0  0  0
 17 14  1  0  0  0  0
 17 18  1  0  0  0  0
 19 17  1  0  0  0  0
 20 17  1  0  0  0  0
 21 20  2  0  0  0  0
 22 21  1  0  0  0  0
 23 22  2  0  0  0  0
 23 24  1  0  0  0  0
 24 25  2  0  0  0  0
 25 20  1  0  0  0  0
 26 21  1  0  0  0  0
 27 22  1  0  0  0  0
 28 24  1  0  0  0  0
 28 33  1  0  0  0  0
 29 28  2  0  0  0  0
 30 29  1  0  0  0  0
 30 31  2  0  0  0  0
 31 36  1  0  0  0  0
 31 32  1  0  0  0  0
 32 37  1  0  0  0  0
 33 32  2  0  0  0  0
 34 29  1  0  0  0  0
 35 30  1  0  0  0  0
 38 40  1  0  0  0  0
 39 46  1  0  0  0  0
 39 48  1  0  0  0  0
 40 39  2  0  0  0  0
 41 43  2  0  0  0  0
 41 40  1  0  0  0  0
 42 41  1  0  0  0  0
 43 45  1  0  0  0  0
 44 43  1  0  0  0  0
 45 46  2  0  0  0  0
 47 48  1  0  0  0  0
 48 49  2  0  0  0  0
 48 50  2  0  0  0  0
M  END
>  <minimizedAffinity>
-5.82578754

$$$$

 OpenBabel03252507053D

 50 53  0  0  0  0  0  0  0  0999 V2000
   40.0030   32.4510   39.8130 N   0  0  0  0  0  0  0  0  0  0  0  0
   40.8600   33.2530   40.6300 C   0  0  0  0  0  0  0  0  0  0  0  0
   40.5520   34.6230   40.0250 C   0  0  0  0  0  0  0  0  0  0  0  0
   39.1530   35.0050   40.1240 C   0  0  0  0  0  0  0  0  0  0  0  0
   38.1540   33.9650   40.2380 C   0  0  0  0  0  0  0  0  0  0  0  0
   38.5470   32.5230   40.0540 C   0  0  0  0  0  0  0  0  0  0  0  0
   40.7260   33.2500   41.6970 H   0  0  0  0  0  0  0  0  0  0  0  0
   41.9160   33.0010   40.4150 H   0  0  0  0  0  0  0  0  0  0  0  0
   41.1990   35.3350   40.6150 H   0  0  0  0  0  0  0  0  0  0  0  0
   40.9940   34.6160   39.0140 H   0  0  0  0  0  0  0  0  0  0  0  0
   38.8900   35.6390   39.2380 H   0  0  0  0  0  0  0  0  0  0  0  0
   39.0020   35.6890   41.0110 H   0  0  0  0  0  0  0  0  0  0  0  0
   37.1340   34.1360   40.4210 H   0  0  0  0  0  0  0  0  0  0  0  0
   40.3710   31.6420   38.8110 C   0  0  0  0  0  0  0  0  0  0  0  0
   39.4870   31.1370   38.2870 H   0  0  0  0  0  0  0  0  0  0  0  0
   40.8820   32.1770   37.9830 H   0  0  0  0  0  0  0  0  0  0  0  0
   41.2360   30.5110   39.2360 C   0  0  0  0  0  0  0  0  0  0  0  0
   41.6770   30.6500   40.2620 H   0  0  0  0  0  0  0  0  0  0  0  0
   42.1010   30.4130   38.5260 H   0  0  0  0  0  0  0  0  0  0  0  0
   40.4520   29.2680   39.1310 C   0  0  0  0  0  0  0  0  0  0  0  0
   39.7230   28.9920   37.9980 C   0  0  0  0  0  0  0  0  0  0  0  0
   38.9930   27.8150   37.9520 C   0  0  0  0  0  0  0  0  0  0  0  0
   39.0370   26.9840   39.0410 N   0  0  0  0  0  0  0  0  0  0  0  0
   39.7500   27.2780   40.1160 C   0  0  0  0  0  0  0  0  0  0  0  0
   40.4450   28.4230   40.1350 N   0  0  0  0  0  0  0  0  0  0  0  0
   39.5760   29.4910   37.0570 H   0  0  0  0  0  0  0  0  0  0  0  0
   38.3660   27.4320   37.1560 H   0  0  0  0  0  0  0  0  0  0  0  0
   39.7640   26.3240   41.2230 C   0  0  0  0  0  0  0  0  0  0  0  0
   40.6090   26.5180   42.3130 C   0  0  0  0  0  0  0  0  0  0  0  0
   40.6120   25.6040   43.3460 C   0  0  0  0  0  0  0  0  0  0  0  0
   39.7440   24.5520   43.1860 C   0  0  0  0  0  0  0  0  0  0  0  0
   38.8800   24.3160   42.1150 C   0  0  0  0  0  0  0  0  0  0  0  0
   38.9370   25.2590   41.1410 N   0  0  0  0  0  0  0  0  0  0  0  0
   41.2680   27.3740   42.3690 H   0  0  0  0  0  0  0  0  0  0  0  0
   41.2210   25.6680   44.2160 H   0  0  0  0  0  0  0  0  0  0  0  0
   39.7010   23.7920   43.9750 H   0  0  0  0  0  0  0  0  0  0  0  0
   38.2400   23.4580   42.0900 H   0  0  0  0  0  0  0  0  0  0  0  0
   37.4580   31.2000   40.1190 S   0  0  0  0  0  0  0  0  0  0  0  0
   36.5640   29.0420   40.9810 C   0  0  0  0  0  0  0  0  0  0  0  0
   37.4810   30.0400   41.3870 C   0  0  0  0  0  0  0  0  0  0  0  0
   38.0990   29.8040   42.5710 C   0  0  0  0  0  0  0  0  0  0  0  0
   38.7510   30.5910   42.8290 H   0  0  0  0  0  0  0  0  0  0  0  0
   37.9390   28.7340   43.3960 C   0  0  0  0  0  0  0  0  0  0  0  0
   38.5080   28.7100   44.2930 H   0  0  0  0  0  0  0  0  0  0  0  0
   37.0390   27.7970   42.9560 C   0  0  0  0  0  3  0  0  0  0  0  0
   36.3320   27.9040   41.7670 C   0  0  0  0  0  3  0  0  0  0  0  0
   35.9810   29.8190   38.6090 H   0  0  0  0  0  0  0  0  0  0  0  0
   35.5370   28.9090   39.5430 S   0  0  0  0  0  0  0  0  0  0  0  0
   34.1260   29.1990   39.9530 O   0  0  0  0  0  0  0  0  0  0  0  0
   35.6720   27.5300   38.9980 O   0  0  0  0  0  0  0  0  0  0  0  0
  1  6  1  0  0  0  0
  1  2  1  0  0  0  0
  2  7  1  0  0  0  0
  3  4  1  0  0  0  0
  3  9  1  0  0  0  0
  3  2  1  0  0  0  0
  4  5  1  0  0  0  0
  4 12  1  0  0  0  0
  5 13  1  0  0  0  0
  6 38  1  0  0  0  0
  6  5  2  0  0  0  0
  8  2  1  0  0  0  0
 10  3  1  0  0  0  0
 11  4  1  0  0  0  0
 14 17  1  0  0  0  0
 14  1  1  0  0  0  0
 15 14  1  0  0  0  0
 16 14  1  0  0  0  0
 17 18  1  0  0  0  0
 19 17  1  0  0  0  0
 20 17  1  0  0  0  0
 20 25  1  0  0  0  0
 21 20  2  0  0  0  0
 22 21  1  0  0  0  0
 22 23  2  0  0  0  0
 23 24  1  0  0  0  0
 24 25  2  0  0  0  0
 24 28  1  0  0  0  0
 26 21  1  0  0  0  0
 27 22  1  0  0  0  0
 28 29  1  0  0  0  0
 29 34  1  0  0  0  0
 29 30  2  0  0  0  0
 30 35  1  0  0  0  0
 31 30  1  0  0  0  0
 31 36  1  0  0  0  0
 32 31  2  0  0  0  0
 33 28  2  0  0  0  0
 33 32  1  0  0  0  0
 37 32  1  0  0  0  0
 38 40  1  0  0  0  0
 39 40  2  0  0  0  0
 39 46  1  0  0  0  0
 40 41  1  0  0  0  0
 41 42  1  0  0  0  0
 41 43  2  0  0  0  0
 43 44  1  0  0  0  0
 45 43  1  0  0  0  0
 46 45  2  0  0  0  0
 47 48  1  0  0  0  0
 48 49  2  0  0  0  0
 48 39  1  0  0  0  0
 50 48  2  0  0  0  0
M  END
>  <minimizedAffinity>
-5.73231077

$$$$

 OpenBabel03252507053D

 50 53  0  0  0  0  0  0  0  0999 V2000
   39.7470   27.5000   38.3310 N   0  0  0  0  0  0  0  0  0  0  0  0
   40.5230   27.3900   37.1340 C   0  0  0  0  0  0  0  0  0  0  0  0
   40.8400   28.8700   36.9190 C   0  0  0  0  0  0  0  0  0  0  0  0
   41.5740   29.4770   38.0170 C   0  0  0  0  0  0  0  0  0  0  0  0
   41.4660   28.8900   39.3340 C   0  0  0  0  0  0  0  0  0  0  0  0
   40.4570   27.8020   39.5920 C   0  0  0  0  0  0  0  0  0  0  0  0
   41.4140   26.7880   37.1360 H   0  0  0  0  0  0  0  0  0  0  0  0
   39.8750   27.0430   36.3060 H   0  0  0  0  0  0  0  0  0  0  0  0
   41.4570   28.8840   35.9740 H   0  0  0  0  0  0  0  0  0  0  0  0
   39.8850   29.3480   36.6360 H   0  0  0  0  0  0  0  0  0  0  0  0
   41.2790   30.5550   38.0950 H   0  0  0  0  0  0  0  0  0  0  0  0
   42.6770   29.5060   37.7720 H   0  0  0  0  0  0  0  0  0  0  0  0
   42.0360   29.1840   40.1660 H   0  0  0  0  0  0  0  0  0  0  0  0
   38.4190   27.3850   38.4440 C   0  0  0  0  0  0  0  0  0  0  0  0
   38.0000   26.4450   37.9440 H   0  0  0  0  0  0  0  0  0  0  0  0
   38.0760   27.2840   39.4960 H   0  0  0  0  0  0  0  0  0  0  0  0
   37.6620   28.4990   37.8150 C   0  0  0  0  0  0  0  0  0  0  0  0
   36.7140   28.1620   37.3100 H   0  0  0  0  0  0  0  0  0  0  0  0
   38.2950   28.9820   37.0220 H   0  0  0  0  0  0  0  0  0  0  0  0
   37.4100   29.5220   38.8450 C   0  0  0  0  0  0  0  0  0  0  0  0
   36.4220   29.3430   39.7850 C   0  0  0  0  0  0  0  0  0  0  0  0
   36.2170   30.3400   40.7260 C   0  0  0  0  0  0  0  0  0  0  0  0
   37.0130   31.4540   40.6720 N   0  0  0  0  0  0  0  0  0  0  0  0
   37.9570   31.5940   39.7560 C   0  0  0  0  0  0  0  0  0  0  0  0
   38.1330   30.6170   38.8560 N   0  0  0  0  0  0  0  0  0  0  0  0
   35.7220   28.5560   40.0010 H   0  0  0  0  0  0  0  0  0  0  0  0
   35.4940   30.3780   41.5320 H   0  0  0  0  0  0  0  0  0  0  0  0
   38.7800   32.8020   39.7860 C   0  0  0  0  0  0  0  0  0  0  0  0
   40.0930   32.7740   39.3240 C   0  0  0  0  0  0  0  0  0  0  0  0
   40.8560   33.9210   39.3650 C   0  0  0  0  0  0  0  0  0  0  0  0
   40.2130   35.0220   39.8780 C   0  0  0  0  0  0  0  0  0  0  0  0
   38.9030   35.0980   40.3510 C   0  0  0  0  0  0  0  0  0  0  0  0
   38.2200   33.9280   40.2770 N   0  0  0  0  0  0  0  0  0  0  0  0
   40.5330   31.8660   38.9320 H   0  0  0  0  0  0  0  0  0  0  0  0
   41.8660   33.9960   39.0350 H   0  0  0  0  0  0  0  0  0  0  0  0
   40.7700   35.9650   39.9360 H   0  0  0  0  0  0  0  0  0  0  0  0
   38.4970   36.0120   40.7330 H   0  0  0  0  0  0  0  0  0  0  0  0
   40.1960   27.0550   41.1130 S   0  0  0  0  0  0  0  0  0  0  0  0
   38.0210   26.4400   42.1580 C   0  0  0  0  0  0  0  0  0  0  0  0
   38.9270   27.5260   42.1730 C   0  0  0  0  0  0  0  0  0  0  0  0
   38.5770   28.5550   42.9850 C   0  0  0  0  0  0  0  0  0  0  0  0
   39.2790   29.3410   42.9370 H   0  0  0  0  0  0  0  0  0  0  0  0
   37.4730   28.6560   43.7740 C   0  0  0  0  0  0  0  0  0  0  0  0
   37.3550   29.5390   44.3520 H   0  0  0  0  0  0  0  0  0  0  0  0
   36.6280   27.5760   43.7220 C   0  0  0  0  0  3  0  0  0  0  0  0
   36.8550   26.4550   42.9370 C   0  0  0  0  0  3  0  0  0  0  0  0
   38.6330   25.1220   40.0470 H   0  0  0  0  0  0  0  0  0  0  0  0
   38.0450   24.9050   41.2730 S   0  0  0  0  0  0  0  0  0  0  0  0
   36.6300   24.4380   41.1190 O   0  0  0  0  0  0  0  0  0  0  0  0
   38.8590   23.9290   42.0500 O   0  0  0  0  0  0  0  0  0  0  0  0
  1 14  1  0  0  0  0
  1  6  1  0  0  0  0
  2  7  1  0  0  0  0
  2  1  1  0  0  0  0
  3  2  1  0  0  0  0
  3  4  1  0  0  0  0
  4 11  1  0  0  0  0
  4  5  1  0  0  0  0
  5  6  2  0  0  0  0
  5 13  1  0  0  0  0
  6 38  1  0  0  0  0
  8  2  1  0  0  0  0
  9  3  1  0  0  0  0
 10  3  1  0  0  0  0
 12  4  1  0  0  0  0
 14 16  1  0  0  0  0
 15 14  1  0  0  0  0
 17 14  1  0  0  0  0
 17 20  1  0  0  0  0
 18 17  1  0  0  0  0
 19 17  1  0  0  0  0
 20 25  2  0  0  0  0
 20 21  1  0  0  0  0
 21 26  1  0  0  0  0
 21 22  2  0  0  0  0
 22 27  1  0  0  0  0
 23 22  1  0  0  0  0
 24 28  1  0  0  0  0
 24 23  2  0  0  0  0
 25 24  1  0  0  0  0
 28 33  1  0  0  0  0
 29 30  1  0  0  0  0
 29 28  2  0  0  0  0
 30 31  2  0  0  0  0
 31 36  1  0  0  0  0
 31 32  1  0  0  0  0
 32 37  1  0  0  0  0
 33 32  2  0  0  0  0
 34 29  1  0  0  0  0
 35 30  1  0  0  0  0
 38 40  1  0  0  0  0
 39 40  2  0  0  0  0
 39 46  1  0  0  0  0
 40 41  1  0  0  0  0
 41 43  2  0  0  0  0
 42 41  1  0  0  0  0
 43 44  1  0  0  0  0
 45 43  1  0  0  0  0
 46 45  2  0  0  0  0
 47 48  1  0  0  0  0
 48 50  2  0  0  0  0
 48 39  1  0  0  0  0
 49 48  2  0  0  0  0
M  END
>  <minimizedAffinity>
-5.73039818

$$$$

 OpenBabel03252507053D

 50 53  0  0  0  0  0  0  0  0999 V2000
   38.2240   26.3340   41.5950 N   0  0  0  0  0  0  0  0  0  0  0  0
   39.5190   25.8480   41.9630 C   0  0  0  0  0  0  0  0  0  0  0  0
   39.1040   24.5110   42.5770 C   0  0  0  0  0  0  0  0  0  0  0  0
   38.4100   23.6310   41.6520 C   0  0  0  0  0  0  0  0  0  0  0  0
   37.7160   24.2150   40.5250 C   0  0  0  0  0  0  0  0  0  0  0  0
   37.5520   25.7090   40.4360 C   0  0  0  0  0  0  0  0  0  0  0  0
   40.2700   25.7210   41.2040 H   0  0  0  0  0  0  0  0  0  0  0  0
   39.9390   26.4890   42.7610 H   0  0  0  0  0  0  0  0  0  0  0  0
   40.0790   24.0470   42.9080 H   0  0  0  0  0  0  0  0  0  0  0  0
   38.5790   24.7570   43.5170 H   0  0  0  0  0  0  0  0  0  0  0  0
   37.6730   23.0130   42.2270 H   0  0  0  0  0  0  0  0  0  0  0  0
   39.1330   22.8760   41.2220 H   0  0  0  0  0  0  0  0  0  0  0  0
   37.2780   23.6650   39.7450 H   0  0  0  0  0  0  0  0  0  0  0  0
   37.5200   27.2930   42.2070 C   0  0  0  0  0  0  0  0  0  0  0  0
   36.7180   27.7640   41.5400 H   0  0  0  0  0  0  0  0  0  0  0  0
   36.9380   26.9210   43.0770 H   0  0  0  0  0  0  0  0  0  0  0  0
   38.3400   28.4480   42.6590 C   0  0  0  0  0  0  0  0  0  0  0  0
   39.4470   28.2780   42.5460 H   0  0  0  0  0  0  0  0  0  0  0  0
   38.1540   28.6360   43.7510 H   0  0  0  0  0  0  0  0  0  0  0  0
   37.8840   29.6470   41.9330 C   0  0  0  0  0  0  0  0  0  0  0  0
   36.5730   29.7710   41.5380 C   0  0  0  0  0  0  0  0  0  0  0  0
   36.1950   30.9130   40.8490 C   0  0  0  0  0  0  0  0  0  0  0  0
   37.1510   31.8620   40.5980 N   0  0  0  0  0  0  0  0  0  0  0  0
   38.4050   31.7130   40.9940 C   0  0  0  0  0  0  0  0  0  0  0  0
   38.7440   30.5990   41.6570 N   0  0  0  0  0  0  0  0  0  0  0  0
   35.6910   29.1650   41.6500 H   0  0  0  0  0  0  0  0  0  0  0  0
   35.2210   31.1840   40.4600 H   0  0  0  0  0  0  0  0  0  0  0  0
   39.3550   32.7860   40.7100 C   0  0  0  0  0  0  0  0  0  0  0  0
   40.7170   32.5130   40.5980 C   0  0  0  0  0  0  0  0  0  0  0  0
   41.6000   33.5390   40.3350 C   0  0  0  0  0  0  0  0  0  0  0  0
   41.0200   34.7770   40.2030 C   0  0  0  0  0  0  0  0  0  0  0  0
   39.6660   35.0980   40.3060 C   0  0  0  0  0  0  0  0  0  0  0  0
   38.8640   34.0350   40.5660 N   0  0  0  0  0  0  0  0  0  0  0  0
   41.1010   31.5080   40.7150 H   0  0  0  0  0  0  0  0  0  0  0  0
   42.6530   33.4270   40.2320 H   0  0  0  0  0  0  0  0  0  0  0  0
   41.6720   35.6330   39.9920 H   0  0  0  0  0  0  0  0  0  0  0  0
   39.3170   36.1040   40.1850 H   0  0  0  0  0  0  0  0  0  0  0  0
   36.7150   26.5260   39.1820 S   0  0  0  0  0  0  0  0  0  0  0  0
   36.1350   28.5560   37.8630 C   0  0  0  0  0  0  0  0  0  0  0  0
   37.2670   28.0080   38.5090 C   0  0  0  0  0  0  0  0  0  0  0  0
   38.3890   28.7680   38.4430 C   0  0  0  0  0  0  0  0  0  0  0  0
   39.2020   28.2980   38.9230 H   0  0  0  0  0  0  0  0  0  0  0  0
   38.5430   29.9760   37.8380 C   0  0  0  0  0  0  0  0  0  0  0  0
   39.5000   30.4360   37.8840 H   0  0  0  0  0  0  0  0  0  0  0  0
   37.4150   30.4620   37.2260 C   0  0  0  0  0  3  0  0  0  0  0  0
   36.1980   29.7960   37.2110 C   0  0  0  0  0  3  0  0  0  0  0  0
   34.2330   27.0570   38.7020 H   0  0  0  0  0  0  0  0  0  0  0  0
   34.4800   27.9480   37.6810 S   0  0  0  0  0  0  0  0  0  0  0  0
   34.3770   27.2810   36.3440 O   0  0  0  0  0  0  0  0  0  0  0  0
   33.5430   29.1010   37.7880 O   0  0  0  0  0  0  0  0  0  0  0  0
  1  2  1  0  0  0  0
  1 14  1  0  0  0  0
  2  3  1  0  0  0  0
  2  8  1  0  0  0  0
  3  9  1  0  0  0  0
  3 10  1  0  0  0  0
  4 11  1  0  0  0  0
  4  3  1  0  0  0  0
  5  4  1  0  0  0  0
  6  5  2  0  0  0  0
  6  1  1  0  0  0  0
  7  2  1  0  0  0  0
 12  4  1  0  0  0  0
 13  5  1  0  0  0  0
 14 17  1  0  0  0  0
 14 16  1  0  0  0  0
 15 14  1  0  0  0  0
 17 19  1  0  0  0  0
 18 17  1  0  0  0  0
 20 17  1  0  0  0  0
 21 26  1  0  0  0  0
 21 20  2  0  0  0  0
 22 21  1  0  0  0  0
 23 22  2  0  0  0  0
 23 24  1  0  0  0  0
 24 25  2  0  0  0  0
 25 20  1  0  0  0  0
 27 22  1  0  0  0  0
 28 24  1  0  0  0  0
 29 28  1  0  0  0  0
 29 34  1  0  0  0  0
 30 29  2  0  0  0  0
 31 32  2  0  0  0  0
 31 30  1  0  0  0  0
 32 33  1  0  0  0  0
 33 28  2  0  0  0  0
 35 30  1  0  0  0  0
 36 31  1  0  0  0  0
 37 32  1  0  0  0  0
 38  6  1  0  0  0  0
 39 40  1  0  0  0  0
 40 38  1  0  0  0  0
 41 40  2  0  0  0  0
 41 42  1  0  0  0  0
 43 44  1  0  0  0  0
 43 41  1  0  0  0  0
 45 43  2  0  0  0  0
 46 45  1  0  0  0  0
 46 39  2  0  0  0  0
 48 50  2  0  0  0  0
 48 39  1  0  0  0  0
 48 47  1  0  0  0  0
 49 48  2  0  0  0  0
M  END
>  <minimizedAffinity>
-5.72565365

$$$$

 OpenBabel03252507053D

 50 53  0  0  0  0  0  0  0  0999 V2000
   37.4890   31.7510   39.8610 N   0  0  0  0  0  0  0  0  0  0  0  0
   37.4070   32.6770   38.7740 C   0  0  0  0  0  0  0  0  0  0  0  0
   37.3250   33.9760   39.5740 C   0  0  0  0  0  0  0  0  0  0  0  0
   38.4750   34.2090   40.4330 C   0  0  0  0  0  0  0  0  0  0  0  0
   39.2530   33.0730   40.8760 C   0  0  0  0  0  0  0  0  0  0  0  0
   38.7570   31.6750   40.6150 C   0  0  0  0  0  0  0  0  0  0  0  0
   38.1980   32.7070   38.0460 H   0  0  0  0  0  0  0  0  0  0  0  0
   36.4510   32.5310   38.2370 H   0  0  0  0  0  0  0  0  0  0  0  0
   37.2520   34.7800   38.7850 H   0  0  0  0  0  0  0  0  0  0  0  0
   36.3340   33.9720   40.0620 H   0  0  0  0  0  0  0  0  0  0  0  0
   38.1370   34.7710   41.3420 H   0  0  0  0  0  0  0  0  0  0  0  0
   39.1990   34.9110   39.9240 H   0  0  0  0  0  0  0  0  0  0  0  0
   40.1570   33.1410   41.4060 H   0  0  0  0  0  0  0  0  0  0  0  0
   36.5180   30.9430   40.3050 C   0  0  0  0  0  0  0  0  0  0  0  0
   36.8970   30.1180   41.0030 H   0  0  0  0  0  0  0  0  0  0  0  0
   35.7610   31.4690   40.9250 H   0  0  0  0  0  0  0  0  0  0  0  0
   35.8060   30.2080   39.2280 C   0  0  0  0  0  0  0  0  0  0  0  0
   35.5130   30.8630   38.3610 H   0  0  0  0  0  0  0  0  0  0  0  0
   34.8540   29.7720   39.6370 H   0  0  0  0  0  0  0  0  0  0  0  0
   36.6490   29.0750   38.8090 C   0  0  0  0  0  0  0  0  0  0  0  0
   37.1900   29.0330   37.5450 C   0  0  0  0  0  0  0  0  0  0  0  0
   37.9670   27.9410   37.1940 C   0  0  0  0  0  0  0  0  0  0  0  0
   38.1590   26.9570   38.1290 N   0  0  0  0  0  0  0  0  0  0  0  0
   37.6270   27.0290   39.3380 C   0  0  0  0  0  0  0  0  0  0  0  0
   36.8770   28.0940   39.6500 N   0  0  0  0  0  0  0  0  0  0  0  0
   37.1730   29.6930   36.6960 H   0  0  0  0  0  0  0  0  0  0  0  0
   38.4690   27.7330   36.2560 H   0  0  0  0  0  0  0  0  0  0  0  0
   37.9040   25.9500   40.2840 C   0  0  0  0  0  0  0  0  0  0  0  0
   36.9050   25.4800   41.1330 C   0  0  0  0  0  0  0  0  0  0  0  0
   37.1850   24.4650   42.0230 C   0  0  0  0  0  0  0  0  0  0  0  0
   38.4780   24.0010   41.9760 C   0  0  0  0  0  0  0  0  0  0  0  0
   39.5090   24.4380   41.1450 C   0  0  0  0  0  0  0  0  0  0  0  0
   39.1530   25.4380   40.3000 N   0  0  0  0  0  0  0  0  0  0  0  0
   35.9060   25.8970   41.1120 H   0  0  0  0  0  0  0  0  0  0  0  0
   36.4890   24.0430   42.7080 H   0  0  0  0  0  0  0  0  0  0  0  0
   38.7610   23.1930   42.6610 H   0  0  0  0  0  0  0  0  0  0  0  0
   40.4880   24.0040   41.1910 H   0  0  0  0  0  0  0  0  0  0  0  0
   39.5570   30.2470   41.1240 S   0  0  0  0  0  0  0  0  0  0  0  0
   39.9270   28.2620   42.5820 C   0  0  0  0  0  0  0  0  0  0  0  0
   38.8810   29.1650   42.2770 C   0  0  0  0  0  0  0  0  0  0  0  0
   37.7250   28.9540   42.9530 C   0  0  0  0  0  0  0  0  0  0  0  0
   36.9790   29.6430   42.6670 H   0  0  0  0  0  0  0  0  0  0  0  0
   37.4630   27.9890   43.8760 C   0  0  0  0  0  0  0  0  0  0  0  0
   36.4940   27.9690   44.3120 H   0  0  0  0  0  0  0  0  0  0  0  0
   38.5100   27.1410   44.1360 C   0  0  0  0  0  3  0  0  0  0  0  0
   39.7500   27.2350   43.5200 C   0  0  0  0  0  3  0  0  0  0  0  0
   41.6060   28.6200   40.6790 H   0  0  0  0  0  0  0  0  0  0  0  0
   41.5850   28.1380   41.9690 S   0  0  0  0  0  0  0  0  0  0  0  0
   41.9870   26.6960   42.0140 O   0  0  0  0  0  0  0  0  0  0  0  0
   42.4660   28.9760   42.8290 O   0  0  0  0  0  0  0  0  0  0  0  0
  1 14  1  0  0  0  0
  1  6  1  0  0  0  0
  2  3  1  0  0  0  0
  2  1  1  0  0  0  0
  3 10  1  0  0  0  0
  3  4  1  0  0  0  0
  4  5  1  0  0  0  0
  4 11  1  0  0  0  0
  5 13  1  0  0  0  0
  6  5  2  0  0  0  0
  6 38  1  0  0  0  0
  7  2  1  0  0  0  0
  8  2  1  0  0  0  0
  9  3  1  0  0  0  0
 12  4  1  0  0  0  0
 14 16  1  0  0  0  0
 14 15  1  0  0  0  0
 17 19  1  0  0  0  0
 17 14  1  0  0  0  0
 18 17  1  0  0  0  0
 20 17  1  0  0  0  0
 20 25  1  0  0  0  0
 21 20  2  0  0  0  0
 22 21  1  0  0  0  0
 22 23  2  0  0  0  0
 23 24  1  0  0  0  0
 24 25  2  0  0  0  0
 24 28  1  0  0  0  0
 26 21  1  0  0  0  0
 27 22  1  0  0  0  0
 28 33  2  0  0  0  0
 28 29  1  0  0  0  0
 29 30  2  0  0  0  0
 30 35  1  0  0  0  0
 31 30  1  0  0  0  0
 31 36  1  0  0  0  0
 32 37  1  0  0  0  0
 32 31  2  0  0  0  0
 33 32  1  0  0  0  0
 34 29  1  0  0  0  0
 38 40  1  0  0  0  0
 39 46  1  0  0  0  0
 40 39  2  0  0  0  0
 40 41  1  0  0  0  0
 41 43  2  0  0  0  0
 42 41  1  0  0  0  0
 43 45  1  0  0  0  0
 43 44  1  0  0  0  0
 46 45  2  0  0  0  0
 47 48  1  0  0  0  0
 48 49  2  0  0  0  0
 48 39  1  0  0  0  0
 48 50  2  0  0  0  0
M  END
>  <minimizedAffinity>
-5.70189619

$$$$
