REMARK  Name = 
REMARK  4 active torsions:
REMARK  status: ('A' for Active; 'I' for Inactive)
REMARK    1  A    between atoms: C_3  and  C_10
REMARK    2  A    between atoms: C_7  and  C_14
REMARK    3  A    between atoms: N_17  and  C_32
REMARK    4  A    between atoms: S_28  and  C_31
REMARK                            x       y       z     vdW  Elec       q    Type
REMARK                         _______ _______ _______ _____ _____    ______ ____
ROOT
ATOM      1  F   UNL     1      45.104  33.283  41.180  0.00  0.00    +0.000 F 
ATOM      2  C   UNL     1      46.286  33.941  41.002  0.00  0.00    +0.000 A 
ATOM      3  C   UNL     1      46.816  34.733  41.989  0.00  0.00    +0.000 A 
ATOM      4  C   UNL     1      48.003  35.355  41.725  0.00  0.00    +0.000 A 
ATOM      5  C   UNL     1      48.691  35.230  40.531  0.00  0.00    +0.000 A 
ATOM      6  C   UNL     1      48.115  34.430  39.587  0.00  0.00    +0.000 A 
ATOM      7  C   UNL     1      46.925  33.782  39.798  0.00  0.00    +0.000 A 
ATOM      8  H   UNL     1      48.407  35.979  42.522  0.00  0.00    +0.000 HD
ATOM      9  H   UNL     1      49.633  35.745  40.369  0.00  0.00    +0.000 HD
ATOM     10  H   UNL     1      48.598  34.287  38.630  0.00  0.00    +0.000 HD
ENDROOT
BRANCH   3  13
ATOM     11  C   UNL     1      44.491  35.941  44.731  0.00  0.00    +0.000 A 
ATOM     12  C   UNL     1      45.173  35.868  43.511  0.00  0.00    +0.000 A 
ATOM     13  C   UNL     1      46.077  34.855  43.246  0.00  0.00    +0.000 A 
ATOM     14  N   UNL     1      46.247  33.943  44.259  0.00  0.00    +0.000 NA
ATOM     15  C   UNL     1      45.581  34.029  45.426  0.00  0.00    +0.000 A 
ATOM     16  N   UNL     1      44.714  35.013  45.664  0.00  0.00    +0.000 NA
ATOM     17  H   UNL     1      43.792  36.750  44.899  0.00  0.00    +0.000 HD
ATOM     18  H   UNL     1      45.027  36.600  42.718  0.00  0.00    +0.000 HD
ATOM     19  H   UNL     1      45.847  33.219  46.103  0.00  0.00    +0.000 HD
ENDBRANCH   3  13
BRANCH   7  20
ATOM     20  C   UNL     1      46.328  32.929  38.770  0.00  0.00    +0.000 A 
ATOM     21  C   UNL     1      46.746  31.660  38.403  0.00  0.00    +0.000 A 
ATOM     22  C   UNL     1      45.898  31.210  37.386  0.00  0.00    +0.000 A 
ATOM     23  N   UNL     1      45.025  32.199  37.183  0.00  0.00    +0.000 N 
ATOM     24  N   UNL     1      45.261  33.227  37.993  0.00  0.00    +0.000 NA
ATOM     25  H   UNL     1      47.597  31.190  38.887  0.00  0.00    +0.000 HD
ATOM     26  H   UNL     1      46.052  30.244  36.960  0.00  0.00    +0.000 HD
BRANCH  23  28
ATOM     27  C   UNL     1      44.096  32.398  34.852  0.00  0.00    +0.000 A 
ATOM     28  C   UNL     1      44.020  32.029  36.189  0.00  0.00    +0.000 A 
ATOM     29  C   UNL     1      42.849  31.425  36.638  0.00  0.00    +0.000 A 
ATOM     30  H   UNL     1      42.714  31.105  37.683  0.00  0.00    +0.000 HD
ATOM     31  C   UNL     1      41.769  31.187  35.790  0.00  0.00    +0.000 A 
ATOM     32  H   UNL     1      40.856  30.708  36.172  0.00  0.00    +0.000 HD
ATOM     33  C   UNL     1      41.869  31.567  34.450  0.00  0.00    +0.000 A 
ATOM     34  C   UNL     1      43.029  32.163  34.010  0.00  0.00    +0.000 A 
BRANCH  27  36
ATOM     35  H   UNL     1      46.684  32.488  34.887  0.00  0.00    +0.000 HD
ATOM     36  S   UNL     1      45.593  33.150  34.355  0.00  0.00    +0.000 S 
ATOM     37  O   UNL     1      45.611  34.618  34.687  0.00  0.00    +0.000 OA
ATOM     38  O   UNL     1      45.680  32.984  32.855  0.00  0.00    +0.000 OA
ENDBRANCH  27  36
ENDBRANCH  23  28
ENDBRANCH   7  20
TORSDOF 4
