
     RDKit          3D

 41 43  0  0  0  0  0  0  0  0999 V2000
   46.2366   34.8348   43.3034 C   0  0  0  0  0  0  0  0  0  0  0  0
   46.3993   33.8662   44.2964 C   0  0  0  0  0  0  0  0  0  0  0  0
   45.6141   33.9162   45.4329 C   0  0  0  0  0  0  0  0  0  0  0  0
   44.7108   34.9211   45.5399 N   0  0  0  0  0  0  0  0  0  0  0  0
   44.5537   35.8677   44.5749 C   0  0  0  0  0  0  0  0  0  0  0  0
   45.3194   35.8203   43.4556 N   0  0  0  0  0  0  0  0  0  0  0  0
   45.7099   32.9289   46.4251 N   0  0  0  0  0  0  0  0  0  0  0  0
   45.2274   33.1994   47.7835 C   0  0  0  0  0  0  0  0  0  0  0  0
   45.9553   32.2273   48.6932 C   0  0  0  0  0  0  0  0  0  0  0  0
   45.4621   30.8359   48.4089 C   0  0  0  0  0  0  0  0  0  0  0  0
   45.5711   30.5701   46.9434 C   0  0  0  0  0  0  0  0  0  0  0  0
   46.2491   31.6457   46.1651 C   0  0  1  0  0  0  0  0  0  0  0  0
   47.0782   34.7140   42.0717 C   0  0  0  0  0  0  0  0  0  0  0  0
   46.3006   34.5736   40.9267 F   0  0  0  0  0  0  0  0  0  0  0  0
   47.8665   35.8430   41.9998 F   0  0  0  0  0  0  0  0  0  0  0  0
   47.9160   33.6138   42.1905 F   0  0  0  0  0  0  0  0  0  0  0  0
   47.1780   33.1532   44.1115 H   0  0  0  0  0  0  0  0  0  0  0  0
   43.8223   36.6583   44.6935 H   0  0  0  0  0  0  0  0  0  0  0  0
   45.5477   34.2350   48.0395 H   0  0  0  0  0  0  0  0  0  0  0  0
   44.1531   33.0474   47.8921 H   0  0  0  0  0  0  0  0  0  0  0  0
   47.0555   32.3204   48.5960 H   0  0  0  0  0  0  0  0  0  0  0  0
   45.7119   32.4535   49.7370 H   0  0  0  0  0  0  0  0  0  0  0  0
   44.4352   30.7627   48.8125 H   0  0  0  0  0  0  0  0  0  0  0  0
   46.0793   30.0894   48.9770 H   0  0  0  0  0  0  0  0  0  0  0  0
   46.0299   29.5830   46.7111 H   0  0  0  0  0  0  0  0  0  0  0  0
   44.5041   30.5405   46.5646 H   0  0  0  0  0  0  0  0  0  0  0  0
   47.3234   31.6380   46.4012 H   0  0  0  0  0  0  0  0  0  0  0  0
   47.8597   29.4407   46.5696 H   0  0  0  0  0  0  0  0  0  0  0  0
   48.1511   29.4127   45.2331 S   0  0  0  0  0  0  0  0  0  0  0  0
   48.3806   27.9745   44.8594 O   0  0  0  0  0  0  0  0  0  0  0  0
   49.4471   30.1846   45.0407 O   0  0  0  0  0  0  0  0  0  0  0  0
   46.8974   30.1307   44.2460 C   0  0  0  0  0  0  0  0  0  0  0  0
   46.0799   31.1616   44.7395 C   0  0  0  0  0  0  0  0  0  0  0  0
   45.1115   31.6644   43.8640 C   0  0  0  0  0  0  0  0  0  0  0  0
   44.4725   32.4568   44.2278 H   0  0  0  0  0  0  0  0  0  0  0  0
   45.0005   31.1459   42.5917 C   0  0  0  0  0  0  0  0  0  0  0  0
   44.2217   31.5962   41.9808 H   0  0  0  0  0  0  0  0  0  0  0  0
   45.8219   30.1329   42.1424 C   0  0  0  0  0  0  0  0  0  0  0  0
   46.7800   29.6239   42.9855 C   0  0  0  0  0  0  0  0  0  0  0  0
   45.6110   29.8351   41.1236 H   0  0  0  0  0  0  0  0  0  0  0  0
   47.3972   28.8356   42.5928 H   0  0  0  0  0  0  0  0  0  0  0  0
  1  6  2  0
  1  2  1  0
  2  3  2  0
  3  4  1  0
  3  7  1  0
  5  4  2  0
  6  5  1  0
  7  8  1  0
  8  9  1  0
 10  9  1  0
 11 10  1  0
 12  7  1  0
 12 11  1  0
 13 16  1  0
 13  1  1  0
 14 13  1  0
 15 13  1  0
  2 17  1  0
  5 18  1  0
  8 19  1  0
  8 20  1  0
  9 21  1  0
  9 22  1  0
 10 23  1  0
 10 24  1  0
 11 25  1  0
 11 26  1  0
 12 27  1  1
 28 29  1  0
 29 30  2  0
 29 31  2  0
 29 32  1  0
 32 33  2  0
 33 34  1  0
 34 35  1  0
 34 36  2  0
 36 37  1  0
 36 38  1  0
 38 39  2  0
 39 32  1  0
 38 40  1  0
 39 41  1  0
 12 33  1  0
M  ISO  8  17  14  18  14  19  13  20  13  21  13  22  13  23  13  24  13
M  ISO  6  25  13  26  13  27  13  28  12  35  15  37  16
M  END
>  <DihAtoms>  (1) 
6,11,32,31

>  <DihDeg>  (1) 
145.50629827980958

$$$$
