REMARK  Name = 
REMARK  6 active torsions:
REMARK  status: ('A' for Active; 'I' for Inactive)
REMARK    1  A    between atoms: C_1  and  O_18
REMARK    2  A    between atoms: C_2  and  C_14
REMARK    3  A    between atoms: C_5  and  C_9
REMARK    4  A    between atoms: C_13  and  C_32
REMARK    5  A    between atoms: O_18  and  C_19
REMARK    6  A    between atoms: S_28  and  C_31
REMARK                            x       y       z     vdW  Elec       q    Type
REMARK                         _______ _______ _______ _____ _____    ______ ____
ROOT
ATOM      1  F   UNL     1      47.673  29.918  44.808  0.00  0.00    +0.000 F 
ATOM      2  C   UNL     1      47.595  30.642  45.965  0.00  0.00    +0.000 A 
ATOM      3  C   UNL     1      47.041  31.903  45.960  0.00  0.00    +0.000 A 
ATOM      4  C   UNL     1      47.003  32.567  47.180  0.00  0.00    +0.000 A 
ATOM      5  C   UNL     1      47.493  31.996  48.328  0.00  0.00    +0.000 A 
ATOM      6  C   UNL     1      48.042  30.721  48.278  0.00  0.00    +0.000 A 
ATOM      7  C   UNL     1      48.105  30.008  47.074  0.00  0.00    +0.000 A 
ATOM      8  H   UNL     1      46.571  33.556  47.192  0.00  0.00    +0.000 HD
ATOM      9  H   UNL     1      47.453  32.528  49.260  0.00  0.00    +0.000 HD
ATOM     10  H   UNL     1      48.445  30.217  49.151  0.00  0.00    +0.000 HD
ENDROOT
BRANCH   7  12
ATOM     11  C   UNL     1      49.555  28.387  46.006  0.00  0.00    +0.000 A 
ATOM     12  C   UNL     1      48.684  28.669  47.033  0.00  0.00    +0.000 A 
ATOM     13  C   UNL     1      48.390  27.684  47.984  0.00  0.00    +0.000 A 
ATOM     14  H   UNL     1      47.696  27.981  48.763  0.00  0.00    +0.000 HD
ATOM     15  C   UNL     1      48.974  26.437  47.886  0.00  0.00    +0.000 A 
ATOM     16  H   UNL     1      48.695  25.732  48.660  0.00  0.00    +0.000 HD
ATOM     17  C   UNL     1      49.854  26.130  46.861  0.00  0.00    +0.000 A 
ATOM     18  C   UNL     1      50.118  27.130  45.942  0.00  0.00    +0.000 A 
BRANCH  11  20
ATOM     19  H   UNL     1      51.102  30.277  45.140  0.00  0.00    +0.000 HD
ATOM     20  S   UNL     1      50.019  29.512  44.747  0.00  0.00    +0.000 S 
ATOM     21  O   UNL     1      48.820  30.360  44.433  0.00  0.00    +0.000 OA
ATOM     22  O   UNL     1      50.380  28.740  43.486  0.00  0.00    +0.000 OA
ENDBRANCH  11  20
ENDBRANCH   7  12
BRANCH   3  27
ATOM     23  C   UNL     1      46.816  34.101  43.069  0.00  0.00    +0.000 A 
ATOM     24  C   UNL     1      45.643  33.712  42.431  0.00  0.00    +0.000 A 
ATOM     25  C   UNL     1      44.905  32.654  43.020  0.00  0.00    +0.000 A 
ATOM     26  N   UNL     1      45.376  32.088  44.156  0.00  0.00    +0.000 NA
ATOM     27  C   UNL     1      46.521  32.506  44.733  0.00  0.00    +0.000 A 
ATOM     28  N   UNL     1      47.236  33.510  44.188  0.00  0.00    +0.000 NA
ATOM     29  H   UNL     1      43.987  32.330  42.545  0.00  0.00    +0.000 HD
BRANCH  24  30
ATOM     30  C   UNL     1      45.201  34.385  41.190  0.00  0.00    +0.000 C 
ATOM     31  F   UNL     1      44.908  35.713  41.468  0.00  0.00    +0.000 F 
ATOM     32  F   UNL     1      46.270  34.391  40.312  0.00  0.00    +0.000 F 
ATOM     33  F   UNL     1      44.125  33.829  40.584  0.00  0.00    +0.000 F 
ENDBRANCH  24  30
BRANCH  23  34
ATOM     34  O   UNL     1      47.511  35.116  42.491  0.00  0.00    +0.000 OA
BRANCH  34  35
ATOM     35  C   UNL     1      48.814  35.051  41.954  0.00  0.00    +0.000 C 
ATOM     36  F   UNL     1      49.702  35.282  43.000  0.00  0.00    +0.000 F 
ATOM     37  F   UNL     1      49.013  33.832  41.353  0.00  0.00    +0.000 F 
ATOM     38  F   UNL     1      49.010  36.099  41.082  0.00  0.00    +0.000 F 
ENDBRANCH  34  35
ENDBRANCH  23  34
ENDBRANCH   3  27
TORSDOF 6
