
     RDKit          3D

 42 44  0  0  0  0  0  0  0  0999 V2000
   47.0681   32.6652   44.7915 C   0  0  0  0  0  0  0  0  0  0  0  0
   46.4813   34.5216   43.2955 C   0  0  0  0  0  0  0  0  0  0  0  0
   46.2749   33.8586   44.4867 C   0  0  0  0  0  0  0  0  0  0  0  0
   45.3504   34.2596   45.4127 C   0  0  0  0  0  0  0  0  0  0  0  0
   44.5887   35.3790   45.1422 C   0  0  0  0  0  0  0  0  0  0  0  0
   44.7309   36.0922   43.9852 C   0  0  0  0  0  0  0  0  0  0  0  0
   45.6900   35.6284   43.0879 C   0  0  0  0  0  0  0  0  0  0  0  0
   47.6553   34.0477   42.0854 S   0  0  0  0  0  0  0  0  0  0  0  0
   48.9977   34.7151   42.3007 O   0  0  0  0  0  0  0  0  0  0  0  0
   47.1951   34.5571   40.7403 O   0  0  0  0  0  0  0  0  0  0  0  0
   46.3354   31.6027   45.5873 C   0  0  0  0  0  0  0  0  0  0  0  0
   47.3933   32.1533   47.7772 C   0  0  0  0  0  0  0  0  0  0  0  0
   47.1693   31.2370   46.7112 C   0  0  0  0  0  0  0  0  0  0  0  0
   47.7953   29.9913   46.8186 C   0  0  0  0  0  0  0  0  0  0  0  0
   48.5660   29.7326   47.9125 N   0  0  0  0  0  0  0  0  0  0  0  0
   48.7484   30.6190   48.8861 C   0  0  0  0  0  0  0  0  0  0  0  0
   48.1729   31.8116   48.8232 N   0  0  0  0  0  0  0  0  0  0  0  0
   47.4774   32.1648   43.8908 H   0  0  0  0  0  0  0  0  0  0  0  0
   47.9876   33.0313   45.3375 H   0  0  0  0  0  0  0  0  0  0  0  0
   45.1219   33.8227   46.3505 H   0  0  0  0  0  0  0  0  0  0  0  0
   43.8279   35.7737   45.8192 H   0  0  0  0  0  0  0  0  0  0  0  0
   44.1682   36.9752   43.7117 H   0  0  0  0  0  0  0  0  0  0  0  0
   45.8223   36.1798   42.1586 H   0  0  0  0  0  0  0  0  0  0  0  0
   47.7994   32.7125   41.9529 H   0  0  0  0  0  0  0  0  0  0  0  0
   46.2001   30.6659   44.9659 H   0  0  0  0  0  0  0  0  0  0  0  0
   45.3153   31.8767   45.8786 H   0  0  0  0  0  0  0  0  0  0  0  0
   46.9464   33.1415   47.7752 H   0  0  0  0  0  0  0  0  0  0  0  0
   47.6664   29.2517   46.0453 H   0  0  0  0  0  0  0  0  0  0  0  0
   51.1973   32.4929   48.3732 H   0  0  0  0  0  0  0  0  0  0  0  0
   51.7167   31.2716   48.6924 S   0  0  0  0  0  0  0  0  0  0  0  0
   51.8089   30.3394   47.5077 O   0  0  0  0  0  0  0  0  0  0  0  0
   53.1696   31.5661   49.0488 O   0  0  0  0  0  0  0  0  0  0  0  0
   50.9399   30.5265   50.0683 C   0  0  0  0  0  0  0  0  0  0  0  0
   49.5853   30.2826   50.0319 C   0  0  0  0  0  0  0  0  0  0  0  0
   49.0405   29.6911   51.1559 C   0  0  0  0  0  0  0  0  0  0  0  0
   47.9770   29.4603   51.2182 H   0  0  0  0  0  0  0  0  0  0  0  0
   49.7692   29.3455   52.2752 C   0  0  0  0  0  0  0  0  0  0  0  0
   49.3412   28.8830   53.1530 H   0  0  0  0  0  0  0  0  0  0  0  0
   51.1260   29.5938   52.3023 C   0  0  0  0  0  0  0  0  0  0  0  0
   51.6720   30.1841   51.1817 C   0  0  0  0  0  0  0  0  0  0  0  0
   51.7948   29.3664   53.1224 H   0  0  0  0  0  0  0  0  0  0  0  0
   52.7431   30.4026   51.1510 H   0  0  0  0  0  0  0  0  0  0  0  0
  1 11  1  0
  2  3  2  0
  3  1  1  0
  3  4  1  0
  5  4  2  0
  6  5  1  0
  7  2  1  0
  7  6  2  0
  8  9  2  0
  8  2  1  0
 10  8  2  0
 11 13  1  0
 12 17  2  0
 13 14  2  0
 13 12  1  0
 14 15  1  0
 15 16  2  0
 17 16  1  0
  1 18  1  0
  1 19  1  0
  4 20  1  0
  5 21  1  0
  6 22  1  0
  7 23  1  0
  8 24  1  0
 11 25  1  0
 11 26  1  0
 12 27  1  0
 14 28  1  0
 29 30  1  0
 30 31  2  0
 30 32  2  0
 30 33  1  0
 33 34  2  0
 34 35  1  0
 35 36  1  0
 35 37  2  0
 37 38  1  0
 37 39  1  0
 39 40  2  0
 40 33  1  0
 39 41  1  0
 40 42  1  0
 16 34  1  0
M  ISO  8  18   8  19   8  20  14  21  14  22  14  23  14  24  11  25   8
M  ISO  6  26   8  27  14  28  14  29  12  36  15  38  16
M  END
>  <DihAtoms>  (1) 
14,15,33,32

>  <DihDeg>  (1) 
-0.0009015439057723227

$$$$
