
 OpenBabel03252508593D

 48 50  0  0  1  0  0  0  0  0999 V2000
   47.0310   34.2020   43.0530 N   0  0  0  0  0  0  0  0  0  0  0  0
   46.7180   35.5390   42.6780 C   0  0  0  0  0  0  0  0  0  0  0  0
   45.2800   35.9370   42.8270 C   0  0  0  0  0  0  0  0  0  0  0  0
   44.5600   35.2640   43.9600 C   0  0  0  0  0  0  0  0  0  0  0  0
   45.4860   34.3960   44.7790 C   0  0  0  0  0  0  0  0  0  0  0  0
   46.1040   33.4170   43.7160 C   0  0  2  0  0  0  0  0  0  0  0  0
   47.0370   35.8510   41.6810 H   0  0  0  0  0  0  0  0  0  0  0  0
   47.3040   36.2060   43.3790 H   0  0  0  0  0  0  0  0  0  0  0  0
   45.1950   37.0290   42.9830 H   0  0  0  0  0  0  0  0  0  0  0  0
   44.7750   35.7540   41.8390 H   0  0  0  0  0  0  0  0  0  0  0  0
   43.8170   34.5710   43.5080 H   0  0  0  0  0  0  0  0  0  0  0  0
   43.9910   35.9740   44.5820 H   0  0  0  0  0  0  0  0  0  0  0  0
   44.8620   33.7940   45.4680 H   0  0  0  0  0  0  0  0  0  0  0  0
   46.2990   34.9490   45.2720 H   0  0  0  0  0  0  0  0  0  0  0  0
   45.2280   33.0320   43.1560 H   0  0  0  0  0  0  0  0  0  0  0  0
   47.9990   33.5640   42.2000 C   0  0  0  0  0  0  0  0  0  0  0  0
   48.6030   34.3820   41.7300 H   0  0  0  0  0  0  0  0  0  0  0  0
   48.7090   32.9130   42.7110 H   0  0  0  0  0  0  0  0  0  0  0  0
   47.2710   32.7660   41.1590 C   0  0  0  0  0  0  0  0  0  0  0  0
   46.2180   33.1060   41.0730 H   0  0  0  0  0  0  0  0  0  0  0  0
   47.2520   31.6750   41.3600 H   0  0  0  0  0  0  0  0  0  0  0  0
   49.2780   32.2690   38.0210 C   0  0  0  0  0  0  0  0  0  0  0  0
   48.6790   32.0470   39.2760 C   0  0  0  0  0  0  0  0  0  0  0  0
   47.8930   33.0190   39.8350 C   0  0  0  0  0  0  0  0  0  0  0  0
   47.7300   34.1530   39.1440 N   0  0  0  0  0  0  0  0  0  0  0  0
   48.3000   34.3700   37.9440 C   0  0  0  0  0  0  0  0  0  0  0  0
   49.0750   33.4320   37.3760 N   0  0  0  0  0  0  0  0  0  0  0  0
   49.9020   31.5010   37.5760 H   0  0  0  0  0  0  0  0  0  0  0  0
   48.8930   31.0870   39.7260 H   0  0  0  0  0  0  0  0  0  0  0  0
   48.1090   35.3230   37.4600 H   0  0  0  0  0  0  0  0  0  0  0  0
   46.7170   32.4720   44.5230 O   0  0  0  0  0  0  0  0  0  0  0  0
   44.7530   30.9860   43.5310 O   0  0  0  0  0  0  0  0  0  0  0  0
   45.9960   30.9620   44.4340 P   0  0  2  0  0  0  0  0  0  0  0  0
   45.3810   30.6280   45.9980 O   0  0  0  0  0  0  0  0  0  0  0  0
   44.9800   29.7120   45.9170 H   0  0  0  0  0  0  0  0  0  0  0  0
   47.0310   29.7360   44.0350 O   0  0  0  0  0  0  0  0  0  0  0  0
   48.0280   28.9250   42.1560 C   0  0  0  0  0  0  0  0  0  0  0  0
   48.1760   29.7580   43.2730 C   0  0  0  0  0  0  0  0  0  0  0  0
   49.3700   30.4300   43.4290 C   0  0  0  0  0  0  0  0  0  0  0  0
   49.3680   31.0400   44.3210 H   0  0  0  0  0  0  0  0  0  0  0  0
   50.3840   30.2810   42.5070 C   0  0  0  0  0  0  0  0  0  0  0  0
   51.2900   30.8470   42.7050 H   0  0  0  0  0  0  0  0  0  0  0  0
   50.2530   29.4650   41.4020 C   0  0  0  0  0  3  0  0  0  0  0  0
   49.0660   28.7820   41.2270 C   0  0  0  0  0  3  0  0  0  0  0  0
   46.8990   26.9880   40.8710 H   0  0  0  0  0  0  0  0  0  0  0  0
   46.5910   27.9770   41.7670 S   0  0  0  0  0  0  0  0  0  0  0  0
   46.0560   27.3010   43.0020 O   0  0  0  0  0  0  0  0  0  0  0  0
   45.5500   28.9290   41.2080 O   0  0  0  0  0  0  0  0  0  0  0  0
  1  6  1  0  0  0  0
  2  3  1  0  0  0  0
  2  1  1  0  0  0  0
  2  8  1  0  0  0  0
  3  9  1  0  0  0  0
  3  4  1  0  0  0  0
  4 12  1  0  0  0  0
  4  5  1  0  0  0  0
  5 14  1  0  0  0  0
  5 13  1  0  0  0  0
  6 15  1  6  0  0  0
  6 31  1  0  0  0  0
  6  5  1  0  0  0  0
  7  2  1  0  0  0  0
 10  3  1  0  0  0  0
 11  4  1  0  0  0  0
 16 18  1  0  0  0  0
 16  1  1  0  0  0  0
 17 16  1  0  0  0  0
 19 21  1  0  0  0  0
 19 16  1  0  0  0  0
 20 19  1  0  0  0  0
 22 23  1  0  0  0  0
 23 29  1  0  0  0  0
 23 24  2  0  0  0  0
 24 19  1  0  0  0  0
 25 24  1  0  0  0  0
 26 25  2  0  0  0  0
 27 26  1  0  0  0  0
 27 22  2  0  0  0  0
 28 22  1  0  0  0  0
 30 26  1  0  0  0  0
 33 32  2  6  0  0  0
 33 31  1  0  0  0  0
 33 34  1  0  0  0  0
 35 34  1  0  0  0  0
 36 33  1  0  0  0  0
 37 38  1  0  0  0  0
 38 39  2  0  0  0  0
 38 36  1  0  0  0  0
 39 40  1  0  0  0  0
 41 42  1  0  0  0  0
 41 39  1  0  0  0  0
 43 41  2  0  0  0  0
 44 43  1  0  0  0  0
 44 37  2  0  0  0  0
 45 46  1  0  0  0  0
 46 37  1  0  0  0  0
 46 47  2  0  0  0  0
 48 46  2  0  0  0  0
M  END
>  <minimizedAffinity>
-3.56232619

>  <minimizedRMSD>
2.27845836

$$$$
