REMARK  Name = 
REMARK  5 active torsions:
REMARK  status: ('A' for Active; 'I' for Inactive)
REMARK    1  A    between atoms: C_2  and  C_14
REMARK    2  A    between atoms: C_11  and  O_20
REMARK    3  A    between atoms: C_12  and  C_16
REMARK    4  A    between atoms: O_20  and  C_32
REMARK    5  A    between atoms: S_28  and  C_31
REMARK                            x       y       z     vdW  Elec       q    Type
REMARK                         _______ _______ _______ _____ _____    ______ ____
ROOT
ATOM      1  C   UNL     1      45.914  33.257  41.652  0.00  0.00    +0.000 A 
ATOM      2  C   UNL     1      47.045  33.985  41.305  0.00  0.00    +0.000 A 
ATOM      3  C   UNL     1      48.034  34.092  42.276  0.00  0.00    +0.000 A 
ATOM      4  N   UNL     1      47.819  33.480  43.480  0.00  0.00    +0.000 NA
ATOM      5  C   UNL     1      46.710  32.784  43.776  0.00  0.00    +0.000 A 
ATOM      6  N   UNL     1      45.747  32.671  42.851  0.00  0.00    +0.000 NA
ATOM      7  H   UNL     1      45.081  33.096  40.983  0.00  0.00    +0.000 HD
ENDROOT
BRANCH   5   9
ATOM      8  C   UNL     1      46.961  30.849  45.281  0.00  0.00    +0.000 A 
ATOM      9  C   UNL     1      46.579  32.173  45.081  0.00  0.00    +0.000 A 
ATOM     10  C   UNL     1      46.061  32.965  46.101  0.00  0.00    +0.000 A 
ATOM     11  C   UNL     1      45.914  32.423  47.380  0.00  0.00    +0.000 A 
ATOM     12  N   UNL     1      45.456  32.896  48.578  0.00  0.00    +0.000 N 
ATOM     13  C   UNL     1      45.569  31.847  49.481  0.00  0.00    +0.000 A 
ATOM     14  N   UNL     1      46.089  30.772  48.815  0.00  0.00    +0.000 NA
ATOM     15  C   UNL     1      46.304  31.110  47.535  0.00  0.00    +0.000 A 
ATOM     16  C   UNL     1      46.815  30.308  46.554  0.00  0.00    +0.000 A 
ATOM     17  H   UNL     1      47.355  30.294  44.441  0.00  0.00    +0.000 HD
ATOM     18  H   UNL     1      45.766  33.993  45.941  0.00  0.00    +0.000 HD
ATOM     19  H   UNL     1      45.127  33.864  48.629  0.00  0.00    +0.000 HD
ATOM     20  H   UNL     1      45.255  32.016  50.503  0.00  0.00    +0.000 HD
ATOM     21  H   UNL     1      47.106  29.298  46.709  0.00  0.00    +0.000 HD
ENDBRANCH   5   9
BRANCH   3  22
ATOM     22  C   UNL     1      49.277  34.849  41.998  0.00  0.00    +0.000 C 
ATOM     23  F   UNL     1      48.986  36.010  41.271  0.00  0.00    +0.000 F 
ATOM     24  F   UNL     1      49.874  35.254  43.155  0.00  0.00    +0.000 F 
ATOM     25  F   UNL     1      50.119  34.051  41.264  0.00  0.00    +0.000 F 
ENDBRANCH   3  22
BRANCH   2  26
ATOM     26  O   UNL     1      47.170  34.560  40.082  0.00  0.00    +0.000 OA
BRANCH  26  28
ATOM     27  C   UNL     1      46.441  33.584  38.133  0.00  0.00    +0.000 A 
ATOM     28  C   UNL     1      46.202  34.514  39.123  0.00  0.00    +0.000 A 
ATOM     29  C   UNL     1      45.051  35.270  39.042  0.00  0.00    +0.000 A 
ATOM     30  H   UNL     1      44.944  35.976  39.863  0.00  0.00    +0.000 HD
ATOM     31  C   UNL     1      44.122  35.164  38.043  0.00  0.00    +0.000 A 
ATOM     32  H   UNL     1      43.242  35.815  38.075  0.00  0.00    +0.000 HD
ATOM     33  C   UNL     1      44.362  34.234  37.052  0.00  0.00    +0.000 A 
ATOM     34  C   UNL     1      45.514  33.445  37.092  0.00  0.00    +0.000 A 
BRANCH  27  36
ATOM     35  H   UNL     1      48.657  32.462  38.934  0.00  0.00    +0.000 HD
ATOM     36  S   UNL     1      47.759  32.449  37.931  0.00  0.00    +0.000 S 
ATOM     37  O   UNL     1      47.204  31.046  37.762  0.00  0.00    +0.000 OA
ATOM     38  O   UNL     1      48.495  32.743  36.641  0.00  0.00    +0.000 OA
ENDBRANCH  27  36
ENDBRANCH  26  28
ENDBRANCH   2  26
TORSDOF 5
