REMARK  Name = 
REMARK  4 active torsions:
REMARK  status: ('A' for Active; 'I' for Inactive)
REMARK    1  A    between atoms: C_2  and  N_12
REMARK    2  A    between atoms: C_11  and  S_13
REMARK    3  A    between atoms: S_13  and  C_30
REMARK    4  A    between atoms: S_26  and  C_29
REMARK                            x       y       z     vdW  Elec       q    Type
REMARK                         _______ _______ _______ _____ _____    ______ ____
ROOT
ATOM      1  C   UNL     1      44.500  35.747  44.987  0.00  0.00    +0.000 A 
ATOM      2  C   UNL     1      45.135  35.708  43.735  0.00  0.00    +0.000 A 
ATOM      3  C   UNL     1      46.018  34.705  43.483  0.00  0.00    +0.000 A 
ATOM      4  N   UNL     1      46.223  33.808  44.470  0.00  0.00    +0.000 NA
ATOM      5  C   UNL     1      45.623  33.845  45.656  0.00  0.00    +0.000 A 
ATOM      6  N   UNL     1      44.743  34.815  45.951  0.00  0.00    +0.000 NA
ATOM      7  N   UNL     1      45.932  32.838  46.608  0.00  0.00    +0.000 N 
ATOM      8  C   UNL     1      45.147  32.558  47.807  0.00  0.00    +0.000 C 
ATOM      9  C   UNL     1      46.251  32.242  48.810  0.00  0.00    +0.000 C 
ATOM     10  C   UNL     1      47.528  32.073  48.031  0.00  0.00    +0.000 C 
ATOM     11  C   UNL     1      47.039  31.907  46.610  0.00  0.00    +0.000 C 
ATOM     12  H   UNL     1      43.778  36.520  45.265  0.00  0.00    +0.000 HD
ATOM     13  H   UNL     1      46.476  34.707  42.529  0.00  0.00    +0.000 HD
ATOM     14  H   UNL     1      44.452  31.716  47.665  0.00  0.00    +0.000 HD
ATOM     15  H   UNL     1      44.627  33.451  48.184  0.00  0.00    +0.000 HD
ATOM     16  H   UNL     1      45.984  31.280  49.288  0.00  0.00    +0.000 HD
ATOM     17  H   UNL     1      46.307  32.988  49.617  0.00  0.00    +0.000 HD
ATOM     18  H   UNL     1      48.114  31.184  48.374  0.00  0.00    +0.000 HD
ATOM     19  H   UNL     1      48.102  33.015  48.131  0.00  0.00    +0.000 HD
ATOM     20  H   UNL     1      47.859  32.212  45.951  0.00  0.00    +0.000 HD
ENDROOT
BRANCH   2  21
ATOM     21  N   UNL     1      44.752  36.775  42.862  0.00  0.00    +0.000 N 
ATOM     22  H   UNL     1      43.809  37.028  42.531  0.00  0.00    +0.000 HD
ATOM     23  H   UNL     1      45.682  37.226  42.652  0.00  0.00    +0.000 HD
ENDBRANCH   2  21
BRANCH  11  24
ATOM     24  S   UNL     1      46.491  30.203  46.401  0.00  0.00    +0.000 S 
BRANCH  24  26
ATOM     25  C   UNL     1      46.445  29.786  43.596  0.00  0.00    +0.000 A 
ATOM     26  C   UNL     1      45.779  29.913  44.793  0.00  0.00    +0.000 A 
ATOM     27  C   UNL     1      44.385  29.814  44.817  0.00  0.00    +0.000 A 
ATOM     28  H   UNL     1      43.775  29.902  45.716  0.00  0.00    +0.000 HD
ATOM     29  C   UNL     1      43.699  29.589  43.637  0.00  0.00    +0.000 A 
ATOM     30  H   UNL     1      42.621  29.509  43.638  0.00  0.00    +0.000 HD
ATOM     31  C   UNL     1      44.353  29.460  42.435  0.00  0.00    +0.000 A 
ATOM     32  C   UNL     1      45.729  29.561  42.436  0.00  0.00    +0.000 A 
BRANCH  25  34
ATOM     33  H   UNL     1      48.679  29.026  44.588  0.00  0.00    +0.000 HD
ATOM     34  S   UNL     1      48.183  29.927  43.690  0.00  0.00    +0.000 S 
ATOM     35  O   UNL     1      48.778  29.563  42.338  0.00  0.00    +0.000 OA
ATOM     36  O   UNL     1      48.641  31.324  43.964  0.00  0.00    +0.000 OA
ENDBRANCH  25  34
ENDBRANCH  24  26
ENDBRANCH  11  24
TORSDOF 4
