
 OpenBabel03252505073D

 46 49  0  0  1  0  0  0  0  0999 V2000
   44.5830   35.5720   44.6450 C   0  0  0  0  0  0  0  0  0  0  0  0
   45.2320   35.5780   43.3860 C   0  0  0  0  0  0  0  0  0  0  0  0
   46.3130   34.6620   43.1940 C   0  0  0  0  0  0  0  0  0  0  0  0
   46.6570   33.8430   44.2190 N   0  0  0  0  0  0  0  0  0  0  0  0
   46.0150   33.8710   45.3970 C   0  0  0  0  0  0  0  0  0  0  0  0
   44.9770   34.7310   45.6210 N   0  0  0  0  0  0  0  0  0  0  0  0
   43.7600   36.2440   44.8460 H   0  0  0  0  0  0  0  0  0  0  0  0
   44.9110   36.2460   42.6250 H   0  0  0  0  0  0  0  0  0  0  0  0
   46.4350   32.9590   46.4770 C   0  0  2  0  0  0  0  0  0  0  0  0
   46.9810   31.7390   45.7940 C   0  0  0  0  0  0  0  0  0  0  0  0
   46.1080   30.5420   45.8080 C   0  0  0  0  0  0  0  0  0  0  0  0
   45.8200   30.2770   47.2830 C   0  0  0  0  0  0  0  0  0  0  0  0
   45.0310   31.3380   47.8950 C   0  0  0  0  0  0  0  0  0  0  0  0
   45.3860   32.7190   47.4430 C   0  0  0  0  0  0  0  0  0  0  0  0
   47.2790   33.4980   46.9980 H   0  0  0  0  0  0  0  0  0  0  0  0
   47.9270   31.4610   46.3070 H   0  0  0  0  0  0  0  0  0  0  0  0
   47.2820   31.9340   44.7400 H   0  0  0  0  0  0  0  0  0  0  0  0
   45.2040   30.5770   45.2040 H   0  0  0  0  0  0  0  0  0  0  0  0
   46.7180   29.6770   45.4800 H   0  0  0  0  0  0  0  0  0  0  0  0
   45.1690   29.3760   47.2720 H   0  0  0  0  0  0  0  0  0  0  0  0
   46.7480   30.0080   47.8010 H   0  0  0  0  0  0  0  0  0  0  0  0
   44.2450   31.4060   48.5970 H   0  0  0  0  0  0  0  0  0  0  0  0
   44.6940   33.8510   47.9570 N   0  0  0  0  0  0  0  0  0  0  0  0
   45.3810   34.3690   48.5720 H   0  0  0  0  0  0  0  0  0  0  0  0
   43.7160   33.9510   47.6570 H   0  0  0  0  0  0  0  0  0  0  0  0
   46.9900   34.6490   41.9160 C   0  0  0  0  0  0  0  0  0  0  0  0
   48.1340   35.3720   41.7820 C   0  0  0  0  0  0  0  0  0  0  0  0
   48.7500   35.3230   40.5160 C   0  0  0  0  0  0  0  0  0  0  0  0
   48.1350   34.5560   39.5510 C   0  0  0  0  0  0  0  0  0  0  0  0
   46.9870   33.8340   39.6890 C   0  0  0  0  0  0  0  0  0  0  0  0
   46.4600   33.9330   40.9330 N   0  0  0  0  0  0  0  0  0  0  0  0
   48.5360   35.9410   42.6010 H   0  0  0  0  0  0  0  0  0  0  0  0
   49.6500   35.8770   40.3710 H   0  0  0  0  0  0  0  0  0  0  0  0
   48.6680   34.5720   38.6120 H   0  0  0  0  0  0  0  0  0  0  0  0
   45.0010   32.9620   38.5590 C   0  0  0  0  0  0  0  0  0  0  0  0
   46.3790   33.0380   38.6330 C   0  0  0  0  0  0  0  0  0  0  0  0
   47.1630   32.3700   37.7180 C   0  0  0  0  0  0  0  0  0  0  0  0
   48.2440   32.3910   37.7230 H   0  0  0  0  0  0  0  0  0  0  0  0
   46.6210   31.6070   36.7060 C   0  0  0  0  0  0  0  0  0  0  0  0
   47.2360   31.0790   35.9830 H   0  0  0  0  0  0  0  0  0  0  0  0
   45.2540   31.4900   36.5770 C   0  0  0  0  0  0  0  0  0  0  0  0
   44.5110   32.1750   37.5130 C   0  0  0  0  0  0  0  0  0  0  0  0
   44.5450   34.6560   40.4660 H   0  0  0  0  0  0  0  0  0  0  0  0
   43.9260   33.7570   39.6510 S   0  0  0  0  0  0  0  0  0  0  0  0
   42.8550   34.4560   38.8420 O   0  0  0  0  0  0  0  0  0  0  0  0
   43.1780   32.7210   40.4770 O   0  0  0  0  0  0  0  0  0  0  0  0
  1  7  1  0  0  0  0
  1  6  1  0  0  0  0
  2  1  2  0  0  0  0
  3  2  1  0  0  0  0
  3  4  2  0  0  0  0
  4  5  1  0  0  0  0
  5  6  2  0  0  0  0
  5  9  1  0  0  0  0
  8  2  1  0  0  0  0
  9 15  1  1  0  0  0
  9 14  1  0  0  0  0
 10 11  1  0  0  0  0
 10 16  1  0  0  0  0
 10  9  1  0  0  0  0
 11 12  1  0  0  0  0
 12 21  1  0  0  0  0
 12 13  1  0  0  0  0
 13 22  1  0  0  0  0
 14 13  2  0  0  0  0
 14 23  1  0  0  0  0
 17 10  1  0  0  0  0
 18 11  1  0  0  0  0
 19 11  1  0  0  0  0
 20 12  1  0  0  0  0
 23 24  1  0  0  0  0
 25 23  1  0  0  0  0
 26  3  1  0  0  0  0
 27 26  1  0  0  0  0
 27 32  1  0  0  0  0
 28 27  2  0  0  0  0
 29 30  2  0  0  0  0
 29 28  1  0  0  0  0
 30 31  1  0  0  0  0
 31 26  2  0  0  0  0
 33 28  1  0  0  0  0
 34 29  1  0  0  0  0
 35 36  1  0  0  0  0
 35 44  1  0  0  0  0
 36 30  1  0  0  0  0
 37 38  1  0  0  0  0
 37 36  2  0  0  0  0
 39 37  1  0  0  0  0
 40 39  1  0  0  0  0
 41 39  2  0  0  0  0
 41 42  1  0  0  0  0
 42 35  2  0  0  0  0
 44 43  1  0  0  0  0
 44 46  2  0  0  0  0
 45 44  2  0  0  0  0
M  END
>  <minimizedAffinity>
-7.38814545

>  <minimizedRMSD>
0.643219888

$$$$
