
 OpenBabel03242511463D

 47 49  0  0  0  0  0  0  0  0999 V2000
   45.0110   35.7010   43.9390 C   0  0  0  0  0  0  0  0  0  0  0  0
   44.3660   35.8660   42.7020 C   0  0  0  0  0  0  0  0  0  0  0  0
   44.1430   34.7130   41.9610 C   0  0  0  0  0  0  0  0  0  0  0  0
   44.5400   33.5100   42.4380 N   0  0  0  0  0  0  0  0  0  0  0  0
   45.1540   33.4250   43.6370 C   0  0  0  0  0  0  0  0  0  0  0  0
   45.3920   34.4820   44.3800 N   0  0  0  0  0  0  0  0  0  0  0  0
   45.2050   36.5520   44.5440 H   0  0  0  0  0  0  0  0  0  0  0  0
   44.0780   36.8340   42.3780 H   0  0  0  0  0  0  0  0  0  0  0  0
   45.5620   32.0950   44.1040 C   0  0  0  0  0  0  0  0  0  0  0  0
   44.8010   31.7170   44.8360 H   0  0  0  0  0  0  0  0  0  0  0  0
   45.6100   31.4200   43.2240 H   0  0  0  0  0  0  0  0  0  0  0  0
   46.9390   32.1720   44.7030 C   0  0  0  0  0  0  0  0  0  0  0  0
   47.6720   31.5320   44.1480 H   0  0  0  0  0  0  0  0  0  0  0  0
   47.3510   33.2120   44.5900 H   0  0  0  0  0  0  0  0  0  0  0  0
   46.9410   31.8190   46.1040 C   0  0  0  0  0  0  0  0  0  0  0  0
   46.8020   32.6390   47.2090 C   0  0  0  0  0  0  0  0  0  0  0  0
   46.8140   32.2090   48.4850 C   0  0  0  0  0  0  0  0  0  0  0  0
   46.9770   30.8580   48.7080 C   0  0  0  0  0  0  0  0  0  0  0  0
   47.1180   30.0230   47.6250 C   0  0  0  0  0  0  0  0  0  0  0  0
   47.1010   30.4890   46.3300 C   0  0  0  0  0  0  0  0  0  0  0  0
   46.6760   33.7050   46.9680 H   0  0  0  0  0  0  0  0  0  0  0  0
   46.6980   32.9370   49.2660 H   0  0  0  0  0  0  0  0  0  0  0  0
   46.9820   30.5550   49.7660 H   0  0  0  0  0  0  0  0  0  0  0  0
   47.2370   28.9860   47.9760 H   0  0  0  0  0  0  0  0  0  0  0  0
   48.6310   28.9410   45.2810 C   0  0  0  0  0  0  0  0  0  0  0  0
   49.8170   29.2890   45.6630 O   0  0  0  0  0  0  0  0  0  0  0  0
   47.2750   29.3620   45.4560 N   0  0  0  0  0  0  0  0  0  0  0  0
   49.0720   28.1230   44.7150 H   0  0  0  0  0  0  0  0  0  0  0  0
   46.6260   28.7840   44.9190 H   0  0  0  0  0  0  0  0  0  0  0  0
   43.4570   34.8600   40.6410 C   0  0  0  0  0  0  0  0  0  0  0  0
   44.0360   35.6660   40.1010 H   0  0  0  0  0  0  0  0  0  0  0  0
   43.5730   33.9420   40.0760 H   0  0  0  0  0  0  0  0  0  0  0  0
   42.0740   35.3940   40.8010 C   0  0  0  0  0  0  0  0  0  0  0  0
   41.7340   35.0530   41.8250 H   0  0  0  0  0  0  0  0  0  0  0  0
   42.1850   36.5050   40.9440 H   0  0  0  0  0  0  0  0  0  0  0  0
   40.1370   34.0900   39.9600 C   0  0  0  0  0  0  0  0  0  0  0  0
   41.1170   35.0340   39.7550 C   0  0  0  0  0  0  0  0  0  0  0  0
   41.1960   35.6660   38.5180 C   0  0  0  0  0  0  0  0  0  0  0  0
   41.9760   36.4110   38.3690 H   0  0  0  0  0  0  0  0  0  0  0  0
   40.3430   35.4030   37.4660 C   0  0  0  0  0  0  0  0  0  0  0  0
   40.4440   35.9220   36.5160 H   0  0  0  0  0  0  0  0  0  0  0  0
   39.3530   34.4570   37.6530 C   0  0  0  0  0  0  0  0  0  0  0  0
   39.2810   33.8370   38.8800 C   0  0  0  0  0  0  0  0  0  0  0  0
   39.7090   34.0570   42.5330 H   0  0  0  0  0  0  0  0  0  0  0  0
   39.9510   33.2340   41.4720 S   0  0  0  0  0  0  0  0  0  0  0  0
   41.1090   32.3160   41.6580 O   0  0  0  0  0  0  0  0  0  0  0  0
   38.7130   32.3620   41.3530 O   0  0  0  0  0  0  0  0  0  0  0  0
  1  6  1  0  0  0  0
  1  7  1  0  0  0  0
  2  1  2  0  0  0  0
  3  4  2  0  0  0  0
  3  2  1  0  0  0  0
  4  5  1  0  0  0  0
  5  9  1  0  0  0  0
  5  6  2  0  0  0  0
  8  2  1  0  0  0  0
  9 12  1  0  0  0  0
  9 10  1  0  0  0  0
 11  9  1  0  0  0  0
 12 15  1  0  0  0  0
 13 12  1  0  0  0  0
 14 12  1  0  0  0  0
 15 20  2  0  0  0  0
 15 16  1  0  0  0  0
 16 17  2  0  0  0  0
 17 18  1  0  0  0  0
 17 22  1  0  0  0  0
 18 23  1  0  0  0  0
 19 24  1  0  0  0  0
 19 18  2  0  0  0  0
 20 19  1  0  0  0  0
 21 16  1  0  0  0  0
 25 27  1  0  0  0  0
 25 26  2  0  0  0  0
 27 20  1  0  0  0  0
 28 25  1  0  0  0  0
 29 27  1  0  0  0  0
 30 33  1  0  0  0  0
 30  3  1  0  0  0  0
 31 30  1  0  0  0  0
 32 30  1  0  0  0  0
 33 35  1  0  0  0  0
 33 34  1  0  0  0  0
 36 45  1  0  0  0  0
 37 36  1  0  0  0  0
 37 33  1  0  0  0  0
 38 37  2  0  0  0  0
 39 38  1  0  0  0  0
 40 42  2  0  0  0  0
 40 38  1  0  0  0  0
 41 40  1  0  0  0  0
 42 43  1  0  0  0  0
 43 36  2  0  0  0  0
 45 46  2  0  0  0  0
 45 44  1  0  0  0  0
 47 45  2  0  0  0  0
M  END
>  <minimizedAffinity>
-6.00529814

>  <minimizedRMSD>
2.504498

$$$$
