REMARK  Name = 
REMARK  5 active torsions:
REMARK  status: ('A' for Active; 'I' for Inactive)
REMARK    1  A    between atoms: C_1  and  C_7
REMARK    2  A    between atoms: C_5  and  C_13
REMARK    3  A    between atoms: C_13  and  C_14
REMARK    4  A    between atoms: C_14  and  C_37
REMARK    5  A    between atoms: S_33  and  C_36
REMARK                            x       y       z     vdW  Elec       q    Type
REMARK                         _______ _______ _______ _____ _____    ______ ____
ROOT
ATOM      1  C   UNL     1      47.324  34.068  42.511  0.00  0.00    +0.000 C 
ATOM      2  C   UNL     1      48.668  34.669  42.655  0.00  0.00    +0.000 C 
ATOM      3  C   UNL     1      48.936  35.727  41.639  0.00  0.00    +0.000 C 
ATOM      4  C   UNL     1      48.733  35.262  40.217  0.00  0.00    +0.000 C 
ATOM      5  C   UNL     1      47.596  34.305  40.045  0.00  0.00    +0.000 C 
ATOM      6  C   UNL     1      46.641  34.358  41.219  0.00  0.00    +0.000 C 
ATOM      7  H   UNL     1      47.484  32.946  42.575  0.00  0.00    +0.000 HD
ATOM      8  H   UNL     1      49.483  33.919  42.651  0.00  0.00    +0.000 HD
ATOM      9  H   UNL     1      48.715  35.159  43.655  0.00  0.00    +0.000 HD
ATOM     10  H   UNL     1      48.376  36.666  41.857  0.00  0.00    +0.000 HD
ATOM     11  H   UNL     1      50.010  36.010  41.733  0.00  0.00    +0.000 HD
ATOM     12  H   UNL     1      49.687  34.867  39.783  0.00  0.00    +0.000 HD
ATOM     13  H   UNL     1      48.513  36.175  39.610  0.00  0.00    +0.000 HD
ATOM     14  H   UNL     1      46.966  34.589  39.154  0.00  0.00    +0.000 HD
ATOM     15  H   UNL     1      45.912  33.505  41.057  0.00  0.00    +0.000 HD
ATOM     16  H   UNL     1      46.053  35.253  41.122  0.00  0.00    +0.000 HD
ENDROOT
BRANCH   1  17
ATOM     17  C   UNL     1      46.413  34.380  43.624  0.00  0.00    +0.000 A 
ATOM     18  C   UNL     1      45.605  35.491  43.397  0.00  0.00    +0.000 A 
ATOM     19  C   UNL     1      44.678  35.890  44.364  0.00  0.00    +0.000 A 
ATOM     20  N   UNL     1      44.637  35.124  45.517  0.00  0.00    +0.000 NA
ATOM     21  C   UNL     1      45.437  34.057  45.698  0.00  0.00    +0.000 A 
ATOM     22  N   UNL     1      46.311  33.699  44.755  0.00  0.00    +0.000 NA
ATOM     23  H   UNL     1      45.471  36.224  42.615  0.00  0.00    +0.000 HD
ATOM     24  H   UNL     1      43.975  36.685  44.406  0.00  0.00    +0.000 HD
ATOM     25  H   UNL     1      45.349  33.499  46.635  0.00  0.00    +0.000 HD
ENDBRANCH   1  17
BRANCH   5  26
ATOM     26  C   UNL     1      48.136  32.950  39.766  0.00  0.00    +0.000 C 
ATOM     27  H   UNL     1      48.816  33.090  38.868  0.00  0.00    +0.000 HD
ATOM     28  H   UNL     1      48.816  32.685  40.573  0.00  0.00    +0.000 HD
BRANCH  26  29
ATOM     29  C   UNL     1      47.140  31.940  39.344  0.00  0.00    +0.000 C 
ATOM     30  H   UNL     1      46.257  31.822  40.030  0.00  0.00    +0.000 HD
ATOM     31  H   UNL     1      46.668  32.313  38.410  0.00  0.00    +0.000 HD
BRANCH  29  33
ATOM     32  C   UNL     1      47.474  29.411  39.614  0.00  0.00    +0.000 A 
ATOM     33  C   UNL     1      47.776  30.630  39.068  0.00  0.00    +0.000 A 
ATOM     34  C   UNL     1      48.839  30.615  38.153  0.00  0.00    +0.000 A 
ATOM     35  H   UNL     1      49.127  31.568  37.679  0.00  0.00    +0.000 HD
ATOM     36  C   UNL     1      49.583  29.526  37.767  0.00  0.00    +0.000 A 
ATOM     37  H   UNL     1      50.384  29.631  37.050  0.00  0.00    +0.000 HD
ATOM     38  C   UNL     1      49.252  28.316  38.339  0.00  0.00    +0.000 A 
ATOM     39  C   UNL     1      48.214  28.279  39.244  0.00  0.00    +0.000 A 
BRANCH  32  41
ATOM     40  H   UNL     1      45.748  27.978  40.697  0.00  0.00    +0.000 HD
ATOM     41  S   UNL     1      46.171  29.312  40.726  0.00  0.00    +0.000 S 
ATOM     42  O   UNL     1      44.951  30.073  40.315  0.00  0.00    +0.000 OA
ATOM     43  O   UNL     1      46.550  29.514  42.164  0.00  0.00    +0.000 OA
ENDBRANCH  32  41
ENDBRANCH  29  33
ENDBRANCH  26  29
ENDBRANCH   5  26
TORSDOF 5
