
 OpenBabel03242521573D

 51 55  0  0  0  0  0  0  0  0999 V2000
   36.5680   26.9350   39.8430 C   0  0  0  0  0  0  0  0  0  0  0  0
   36.6150   25.5450   39.8370 C   0  0  0  0  0  0  0  0  0  0  0  0
   36.9280   24.7890   40.9730 C   0  0  0  0  0  0  0  0  0  0  0  0
   37.2070   25.4030   42.1630 C   0  0  0  0  0  0  0  0  0  0  0  0
   37.1730   26.8100   42.1950 C   0  0  0  0  0  0  0  0  0  0  0  0
   37.5130   27.3870   43.3760 C   0  0  0  0  0  0  0  0  0  0  0  0
   37.5680   28.7840   43.4180 C   0  0  0  0  0  0  0  0  0  0  0  0
   37.2730   29.5200   42.2190 C   0  0  0  0  0  0  0  0  0  0  0  0
   36.9470   28.7870   41.1020 C   0  0  0  0  0  0  0  0  0  0  0  0
   36.8570   27.4690   41.0050 C   0  0  0  0  0  0  0  0  0  0  0  0
   36.3930   25.0340   38.8850 H   0  0  0  0  0  0  0  0  0  0  0  0
   36.9340   23.7250   40.8450 H   0  0  0  0  0  0  0  0  0  0  0  0
   37.4410   24.7890   43.0320 H   0  0  0  0  0  0  0  0  0  0  0  0
   37.7320   26.7830   44.2480 H   0  0  0  0  0  0  0  0  0  0  0  0
   37.8400   29.1670   44.3890 H   0  0  0  0  0  0  0  0  0  0  0  0
   37.3950   30.5420   42.5460 H   0  0  0  0  0  0  0  0  0  0  0  0
   38.5460   29.9070   39.8190 C   0  0  0  0  0  0  0  0  0  0  0  0
   37.1540   29.9210   40.2200 C   0  0  0  0  0  0  0  0  0  0  0  0
   36.5440   31.0210   39.7830 C   0  0  0  0  0  0  0  0  0  0  0  0
   37.1430   32.0310   39.0460 C   0  0  0  0  0  0  0  0  0  0  0  0
   38.4670   31.9880   38.6840 C   0  0  0  0  0  0  0  0  0  0  0  0
   39.1860   30.8910   39.0870 C   0  0  0  0  0  0  0  0  0  0  0  0
   35.5100   30.9400   40.1290 H   0  0  0  0  0  0  0  0  0  0  0  0
   36.3680   32.7750   38.8570 H   0  0  0  0  0  0  0  0  0  0  0  0
   38.5920   32.8920   38.1430 H   0  0  0  0  0  0  0  0  0  0  0  0
   39.4940   28.8900   40.1030 O   0  0  0  0  0  0  0  0  0  0  0  0
   39.4160   28.0130   39.5680 H   0  0  0  0  0  0  0  0  0  0  0  0
   40.4910   30.9210   38.7180 O   0  0  0  0  0  0  0  0  0  0  0  0
   42.1100   31.5180   37.5100 C   0  0  0  0  0  0  0  0  0  0  0  0
   41.2400   30.4330   37.8280 C   0  0  0  0  0  0  0  0  0  0  0  0
   41.5260   29.3270   37.0910 C   0  0  0  0  0  0  0  0  0  0  0  0
   40.8940   28.4910   37.3010 H   0  0  0  0  0  0  0  0  0  0  0  0
   42.4710   29.0800   36.1270 C   0  0  0  0  0  0  0  0  0  0  0  0
   42.5480   28.1210   35.6430 H   0  0  0  0  0  0  0  0  0  0  0  0
   43.2730   30.1650   35.8710 C   0  0  0  0  0  3  0  0  0  0  0  0
   43.1150   31.3560   36.5280 C   0  0  0  0  0  3  0  0  0  0  0  0
   40.7970   33.4340   38.6800 H   0  0  0  0  0  0  0  0  0  0  0  0
   42.0600   33.1290   38.2520 S   0  0  0  0  0  0  0  0  0  0  0  0
   42.9550   33.1030   39.4440 O   0  0  0  0  0  0  0  0  0  0  0  0
   42.6200   34.1530   37.3130 O   0  0  0  0  0  0  0  0  0  0  0  0
   34.5420   28.8980   37.3990 C   0  0  0  0  0  0  0  0  0  0  0  0
   35.5130   29.1080   36.3920 C   0  0  0  0  0  0  0  0  0  0  0  0
   36.7530   28.5470   36.6140 C   0  0  0  0  0  0  0  0  0  0  0  0
   36.8810   27.8780   37.7600 N   0  0  0  0  0  0  0  0  0  0  0  0
   35.9940   27.6640   38.7240 C   0  0  0  0  0  0  0  0  0  0  0  0
   34.8290   28.1950   38.4980 N   0  0  0  0  0  0  0  0  0  0  0  0
   33.5630   29.3270   37.2450 H   0  0  0  0  0  0  0  0  0  0  0  0
   35.3150   29.6670   35.5000 H   0  0  0  0  0  0  0  0  0  0  0  0
   37.8000   28.6160   35.6640 N   0  0  0  0  0  0  0  0  0  0  0  0
   38.2410   27.8040   35.1810 H   0  0  0  0  0  0  0  0  0  0  0  0
   38.1580   29.5580   35.4280 H   0  0  0  0  0  0  0  0  0  0  0  0
  1 10  1  0  0  0  0
  2  1  2  0  0  0  0
  2  3  1  0  0  0  0
  3  4  2  0  0  0  0
  4  5  1  0  0  0  0
  4 13  1  0  0  0  0
  5  6  1  0  0  0  0
  6  7  2  0  0  0  0
  6 14  1  0  0  0  0
  7 15  1  0  0  0  0
  8 16  1  0  0  0  0
  8  7  1  0  0  0  0
  9  8  2  0  0  0  0
 10  9  1  0  0  0  0
 10  5  2  0  0  0  0
 11  2  1  0  0  0  0
 12  3  1  0  0  0  0
 17 26  1  0  0  0  0
 17 18  1  0  0  0  0
 18  9  1  0  0  0  0
 19 23  1  0  0  0  0
 19 18  2  0  0  0  0
 20 19  1  0  0  0  0
 21 20  2  0  0  0  0
 21 22  1  0  0  0  0
 22 17  2  0  0  0  0
 24 20  1  0  0  0  0
 25 21  1  0  0  0  0
 27 26  1  0  0  0  0
 28 22  1  0  0  0  0
 29 30  1  0  0  0  0
 29 38  1  0  0  0  0
 30 28  1  0  0  0  0
 31 32  1  0  0  0  0
 31 30  2  0  0  0  0
 33 31  1  0  0  0  0
 34 33  1  0  0  0  0
 35 33  2  0  0  0  0
 35 36  1  0  0  0  0
 36 29  2  0  0  0  0
 38 37  1  0  0  0  0
 38 39  2  0  0  0  0
 40 38  2  0  0  0  0
 41 46  1  0  0  0  0
 42 43  1  0  0  0  0
 42 41  2  0  0  0  0
 43 44  2  0  0  0  0
 44 45  1  0  0  0  0
 45  1  1  0  0  0  0
 46 45  2  0  0  0  0
 47 41  1  0  0  0  0
 48 42  1  0  0  0  0
 49 43  1  0  0  0  0
 50 49  1  0  0  0  0
 51 49  1  0  0  0  0
M  END
>  <minimizedAffinity>
-7.57756805

$$$$

 OpenBabel03242521573D

 51 55  0  0  0  0  0  0  0  0999 V2000
   36.8500   27.0950   39.7740 C   0  0  0  0  0  0  0  0  0  0  0  0
   36.9580   25.7140   39.6530 C   0  0  0  0  0  0  0  0  0  0  0  0
   37.1680   24.8670   40.7490 C   0  0  0  0  0  0  0  0  0  0  0  0
   37.2780   25.3790   42.0120 C   0  0  0  0  0  0  0  0  0  0  0  0
   37.1800   26.7750   42.1620 C   0  0  0  0  0  0  0  0  0  0  0  0
   37.3530   27.2530   43.4220 C   0  0  0  0  0  0  0  0  0  0  0  0
   37.3420   28.6410   43.5910 C   0  0  0  0  0  0  0  0  0  0  0  0
   37.1590   29.4740   42.4330 C   0  0  0  0  0  0  0  0  0  0  0  0
   36.9980   28.8360   41.2260 C   0  0  0  0  0  0  0  0  0  0  0  0
   36.9770   27.5290   41.0050 C   0  0  0  0  0  0  0  0  0  0  0  0
   36.8720   25.2850   38.6400 H   0  0  0  0  0  0  0  0  0  0  0  0
   37.2360   23.8200   40.5300 H   0  0  0  0  0  0  0  0  0  0  0  0
   37.4350   24.6960   42.8470 H   0  0  0  0  0  0  0  0  0  0  0  0
   37.4940   26.5790   44.2580 H   0  0  0  0  0  0  0  0  0  0  0  0
   37.4810   28.9420   44.6170 H   0  0  0  0  0  0  0  0  0  0  0  0
   37.1960   30.4650   42.8600 H   0  0  0  0  0  0  0  0  0  0  0  0
   38.6950   30.1970   40.3760 C   0  0  0  0  0  0  0  0  0  0  0  0
   37.2580   30.0510   40.4770 C   0  0  0  0  0  0  0  0  0  0  0  0
   36.6360   31.1230   39.9900 C   0  0  0  0  0  0  0  0  0  0  0  0
   37.2610   32.2400   39.4570 C   0  0  0  0  0  0  0  0  0  0  0  0
   38.6270   32.3470   39.3790 C   0  0  0  0  0  0  0  0  0  0  0  0
   39.3630   31.2920   39.8560 C   0  0  0  0  0  0  0  0  0  0  0  0
   35.5670   30.9200   40.1070 H   0  0  0  0  0  0  0  0  0  0  0  0
   36.4660   32.9240   39.1560 H   0  0  0  0  0  0  0  0  0  0  0  0
   38.7640   33.3000   38.9310 H   0  0  0  0  0  0  0  0  0  0  0  0
   39.6690   29.2510   40.7900 O   0  0  0  0  0  0  0  0  0  0  0  0
   39.7940   28.4170   40.1980 H   0  0  0  0  0  0  0  0  0  0  0  0
   40.7050   31.4710   39.7700 O   0  0  0  0  0  0  0  0  0  0  0  0
   42.3640   32.7100   39.3870 C   0  0  0  0  0  0  0  0  0  0  0  0
   41.6320   32.0370   40.4100 C   0  0  0  0  0  0  0  0  0  0  0  0
   42.1780   32.2440   41.6380 C   0  0  0  0  0  0  0  0  0  0  0  0
   41.6570   31.7550   42.4320 H   0  0  0  0  0  0  0  0  0  0  0  0
   43.2730   32.9620   42.0510 C   0  0  0  0  0  0  0  0  0  0  0  0
   43.5570   33.0120   43.0890 H   0  0  0  0  0  0  0  0  0  0  0  0
   43.9290   33.5830   41.0160 C   0  0  0  0  0  3  0  0  0  0  0  0
   43.5070   33.4740   39.7180 C   0  0  0  0  0  3  0  0  0  0  0  0
   40.6260   32.5520   37.4590 H   0  0  0  0  0  0  0  0  0  0  0  0
   41.9730   32.6860   37.6560 S   0  0  0  0  0  0  0  0  0  0  0  0
   42.3930   33.9960   37.0830 O   0  0  0  0  0  0  0  0  0  0  0  0
   42.7730   31.6310   36.9560 O   0  0  0  0  0  0  0  0  0  0  0  0
   36.3050   29.1010   36.6750 C   0  0  0  0  0  0  0  0  0  0  0  0
   34.9010   29.2550   36.7290 C   0  0  0  0  0  0  0  0  0  0  0  0
   34.2670   28.6930   37.8170 C   0  0  0  0  0  0  0  0  0  0  0  0
   35.0640   28.0690   38.6830 N   0  0  0  0  0  0  0  0  0  0  0  0
   36.3810   27.9040   38.6620 C   0  0  0  0  0  0  0  0  0  0  0  0
   36.9650   28.4430   37.6320 N   0  0  0  0  0  0  0  0  0  0  0  0
   36.8220   29.5350   35.8320 H   0  0  0  0  0  0  0  0  0  0  0  0
   34.3420   29.7750   35.9770 H   0  0  0  0  0  0  0  0  0  0  0  0
   32.8750   28.8270   38.0390 N   0  0  0  0  0  0  0  0  0  0  0  0
   32.4290   29.3070   38.8500 H   0  0  0  0  0  0  0  0  0  0  0  0
   32.2450   28.4090   37.3310 H   0  0  0  0  0  0  0  0  0  0  0  0
  1 10  1  0  0  0  0
  2  1  2  0  0  0  0
  2  3  1  0  0  0  0
  3  4  2  0  0  0  0
  4  5  1  0  0  0  0
  4 13  1  0  0  0  0
  5  6  1  0  0  0  0
  6  7  2  0  0  0  0
  6 14  1  0  0  0  0
  7 15  1  0  0  0  0
  8 16  1  0  0  0  0
  8  7  1  0  0  0  0
  9  8  2  0  0  0  0
 10  9  1  0  0  0  0
 10  5  2  0  0  0  0
 11  2  1  0  0  0  0
 12  3  1  0  0  0  0
 17 18  1  0  0  0  0
 17 26  1  0  0  0  0
 18  9  1  0  0  0  0
 19 23  1  0  0  0  0
 19 18  2  0  0  0  0
 20 19  1  0  0  0  0
 21 20  2  0  0  0  0
 21 22  1  0  0  0  0
 22 17  2  0  0  0  0
 24 20  1  0  0  0  0
 25 21  1  0  0  0  0
 27 26  1  0  0  0  0
 28 22  1  0  0  0  0
 28 30  1  0  0  0  0
 29 36  2  0  0  0  0
 29 30  1  0  0  0  0
 30 31  2  0  0  0  0
 31 33  1  0  0  0  0
 31 32  1  0  0  0  0
 33 34  1  0  0  0  0
 35 33  2  0  0  0  0
 36 35  1  0  0  0  0
 37 38  1  0  0  0  0
 38 29  1  0  0  0  0
 39 38  2  0  0  0  0
 40 38  2  0  0  0  0
 41 42  2  0  0  0  0
 41 46  1  0  0  0  0
 42 43  1  0  0  0  0
 43 49  1  0  0  0  0
 43 44  2  0  0  0  0
 45 44  1  0  0  0  0
 45  1  1  0  0  0  0
 46 45  2  0  0  0  0
 47 41  1  0  0  0  0
 48 42  1  0  0  0  0
 49 50  1  0  0  0  0
 51 49  1  0  0  0  0
M  END
>  <minimizedAffinity>
-7.27423477

$$$$

 OpenBabel03242521573D

 51 55  0  0  0  0  0  0  0  0999 V2000
   36.6170   26.9540   39.8920 C   0  0  0  0  0  0  0  0  0  0  0  0
   36.6800   25.5680   39.7940 C   0  0  0  0  0  0  0  0  0  0  0  0
   36.9490   24.7390   40.8900 C   0  0  0  0  0  0  0  0  0  0  0  0
   37.1640   25.2740   42.1310 C   0  0  0  0  0  0  0  0  0  0  0  0
   37.1130   26.6740   42.2560 C   0  0  0  0  0  0  0  0  0  0  0  0
   37.3900   27.1730   43.4880 C   0  0  0  0  0  0  0  0  0  0  0  0
   37.4270   28.5650   43.6270 C   0  0  0  0  0  0  0  0  0  0  0  0
   37.1800   29.3780   42.4670 C   0  0  0  0  0  0  0  0  0  0  0  0
   36.9150   28.7200   41.2890 C   0  0  0  0  0  0  0  0  0  0  0  0
   36.8450   27.4100   41.1000 C   0  0  0  0  0  0  0  0  0  0  0  0
   36.5090   25.1210   38.8000 H   0  0  0  0  0  0  0  0  0  0  0  0
   36.9730   23.6870   40.6910 H   0  0  0  0  0  0  0  0  0  0  0  0
   37.3640   24.6040   42.9670 H   0  0  0  0  0  0  0  0  0  0  0  0
   37.5750   26.5130   44.3270 H   0  0  0  0  0  0  0  0  0  0  0  0
   37.6480   28.8830   44.6330 H   0  0  0  0  0  0  0  0  0  0  0  0
   37.2740   30.3760   42.8680 H   0  0  0  0  0  0  0  0  0  0  0  0
   38.5800   30.0220   40.2960 C   0  0  0  0  0  0  0  0  0  0  0  0
   37.1500   29.9120   40.4960 C   0  0  0  0  0  0  0  0  0  0  0  0
   36.5200   30.9870   40.0270 C   0  0  0  0  0  0  0  0  0  0  0  0
   37.1310   32.0770   39.4270 C   0  0  0  0  0  0  0  0  0  0  0  0
   38.4910   32.1510   39.2550 C   0  0  0  0  0  0  0  0  0  0  0  0
   39.2340   31.0900   39.7070 C   0  0  0  0  0  0  0  0  0  0  0  0
   35.4570   30.8110   40.2200 H   0  0  0  0  0  0  0  0  0  0  0  0
   36.3320   32.7720   39.1640 H   0  0  0  0  0  0  0  0  0  0  0  0
   38.6170   33.0910   38.7770 H   0  0  0  0  0  0  0  0  0  0  0  0
   39.5580   29.0630   40.6660 O   0  0  0  0  0  0  0  0  0  0  0  0
   39.6250   28.2140   40.0870 H   0  0  0  0  0  0  0  0  0  0  0  0
   40.5710   31.2360   39.5270 O   0  0  0  0  0  0  0  0  0  0  0  0
   42.5650   31.7900   39.1370 C   0  0  0  0  0  0  0  0  0  0  0  0
   41.5740   31.6720   40.1560 C   0  0  0  0  0  0  0  0  0  0  0  0
   42.0520   32.0540   41.3700 C   0  0  0  0  0  0  0  0  0  0  0  0
   41.3380   31.9780   42.1610 H   0  0  0  0  0  0  0  0  0  0  0  0
   43.2800   32.5170   41.7720 C   0  0  0  0  0  0  0  0  0  0  0  0
   43.4780   32.7750   42.7990 H   0  0  0  0  0  0  0  0  0  0  0  0
   44.1840   32.6060   40.7420 C   0  0  0  0  0  3  0  0  0  0  0  0
   43.8600   32.2590   39.4580 C   0  0  0  0  0  3  0  0  0  0  0  0
   43.4820   31.5940   36.7110 H   0  0  0  0  0  0  0  0  0  0  0  0
   42.3320   31.3900   37.4240 S   0  0  0  0  0  0  0  0  0  0  0  0
   41.9930   29.9400   37.3440 O   0  0  0  0  0  0  0  0  0  0  0  0
   41.1610   32.1390   36.8670 O   0  0  0  0  0  0  0  0  0  0  0  0
   34.6960   29.0840   37.5030 C   0  0  0  0  0  0  0  0  0  0  0  0
   35.6970   29.3260   36.5350 C   0  0  0  0  0  0  0  0  0  0  0  0
   36.9190   28.7290   36.7580 C   0  0  0  0  0  0  0  0  0  0  0  0
   37.0040   27.9980   37.8700 N   0  0  0  0  0  0  0  0  0  0  0  0
   36.0880   27.7530   38.7980 C   0  0  0  0  0  0  0  0  0  0  0  0
   34.9390   28.3190   38.5710 N   0  0  0  0  0  0  0  0  0  0  0  0
   33.7300   29.5410   37.3470 H   0  0  0  0  0  0  0  0  0  0  0  0
   35.5350   29.9360   35.6690 H   0  0  0  0  0  0  0  0  0  0  0  0
   37.9930   28.8260   35.8400 N   0  0  0  0  0  0  0  0  0  0  0  0
   38.4300   28.0300   35.3260 H   0  0  0  0  0  0  0  0  0  0  0  0
   38.3750   29.7710   35.6640 H   0  0  0  0  0  0  0  0  0  0  0  0
  1 10  1  0  0  0  0
  2  1  2  0  0  0  0
  2  3  1  0  0  0  0
  3  4  2  0  0  0  0
  4  5  1  0  0  0  0
  4 13  1  0  0  0  0
  5  6  1  0  0  0  0
  6  7  2  0  0  0  0
  6 14  1  0  0  0  0
  7 15  1  0  0  0  0
  8 16  1  0  0  0  0
  8  7  1  0  0  0  0
  9  8  2  0  0  0  0
 10  9  1  0  0  0  0
 10  5  2  0  0  0  0
 11  2  1  0  0  0  0
 12  3  1  0  0  0  0
 17 18  1  0  0  0  0
 17 26  1  0  0  0  0
 18  9  1  0  0  0  0
 19 23  1  0  0  0  0
 19 18  2  0  0  0  0
 20 19  1  0  0  0  0
 21 20  2  0  0  0  0
 21 22  1  0  0  0  0
 22 17  2  0  0  0  0
 24 20  1  0  0  0  0
 25 21  1  0  0  0  0
 27 26  1  0  0  0  0
 28 22  1  0  0  0  0
 28 30  1  0  0  0  0
 29 36  2  0  0  0  0
 29 30  1  0  0  0  0
 30 31  2  0  0  0  0
 31 33  1  0  0  0  0
 31 32  1  0  0  0  0
 33 34  1  0  0  0  0
 35 33  2  0  0  0  0
 36 35  1  0  0  0  0
 37 38  1  0  0  0  0
 38 29  1  0  0  0  0
 39 38  2  0  0  0  0
 40 38  2  0  0  0  0
 41 46  1  0  0  0  0
 42 43  1  0  0  0  0
 42 41  2  0  0  0  0
 43 44  2  0  0  0  0
 44 45  1  0  0  0  0
 45  1  1  0  0  0  0
 46 45  2  0  0  0  0
 47 41  1  0  0  0  0
 48 42  1  0  0  0  0
 49 43  1  0  0  0  0
 50 49  1  0  0  0  0
 51 49  1  0  0  0  0
M  END
>  <minimizedAffinity>
-7.15006542

$$$$

 OpenBabel03242521573D

 51 55  0  0  0  0  0  0  0  0999 V2000
   36.7740   27.1050   39.7090 C   0  0  0  0  0  0  0  0  0  0  0  0
   36.8760   25.7190   39.6550 C   0  0  0  0  0  0  0  0  0  0  0  0
   37.1360   24.9300   40.7820 C   0  0  0  0  0  0  0  0  0  0  0  0
   37.3050   25.5060   42.0100 C   0  0  0  0  0  0  0  0  0  0  0  0
   37.2150   26.9080   42.0920 C   0  0  0  0  0  0  0  0  0  0  0  0
   37.4470   27.4500   43.3160 C   0  0  0  0  0  0  0  0  0  0  0  0
   37.4450   28.8450   43.4130 C   0  0  0  0  0  0  0  0  0  0  0  0
   37.2080   29.6180   42.2230 C   0  0  0  0  0  0  0  0  0  0  0  0
   36.9910   28.9180   41.0590 C   0  0  0  0  0  0  0  0  0  0  0  0
   36.9590   27.6020   40.9080 C   0  0  0  0  0  0  0  0  0  0  0  0
   36.7420   25.2380   38.6700 H   0  0  0  0  0  0  0  0  0  0  0  0
   37.1930   23.8730   40.6150 H   0  0  0  0  0  0  0  0  0  0  0  0
   37.5000   24.8670   42.8710 H   0  0  0  0  0  0  0  0  0  0  0  0
   37.6260   26.8200   44.1780 H   0  0  0  0  0  0  0  0  0  0  0  0
   37.6320   29.1990   44.4140 H   0  0  0  0  0  0  0  0  0  0  0  0
   37.2660   30.6290   42.5960 H   0  0  0  0  0  0  0  0  0  0  0  0
   38.6470   30.2180   40.0480 C   0  0  0  0  0  0  0  0  0  0  0  0
   37.2160   30.0920   40.2370 C   0  0  0  0  0  0  0  0  0  0  0  0
   36.5750   31.1450   39.7330 C   0  0  0  0  0  0  0  0  0  0  0  0
   37.1770   32.2280   39.1110 C   0  0  0  0  0  0  0  0  0  0  0  0
   38.5370   32.3170   38.9500 C   0  0  0  0  0  0  0  0  0  0  0  0
   39.2910   31.2790   39.4360 C   0  0  0  0  0  0  0  0  0  0  0  0
   35.5140   30.9590   39.9210 H   0  0  0  0  0  0  0  0  0  0  0  0
   36.3710   32.9040   38.8210 H   0  0  0  0  0  0  0  0  0  0  0  0
   38.6550   33.2460   38.4480 H   0  0  0  0  0  0  0  0  0  0  0  0
   39.6350   29.2840   40.4530 O   0  0  0  0  0  0  0  0  0  0  0  0
   39.7200   28.4210   39.8970 H   0  0  0  0  0  0  0  0  0  0  0  0
   40.6270   31.4400   39.2660 O   0  0  0  0  0  0  0  0  0  0  0  0
   42.2530   32.6240   39.8910 C   0  0  0  0  0  0  0  0  0  0  0  0
   41.4300   32.2820   38.7770 C   0  0  0  0  0  0  0  0  0  0  0  0
   41.7970   32.9550   37.6550 C   0  0  0  0  0  0  0  0  0  0  0  0
   41.2020   32.7250   36.7970 H   0  0  0  0  0  0  0  0  0  0  0  0
   42.7850   33.8770   37.4140 C   0  0  0  0  0  0  0  0  0  0  0  0
   42.9280   34.3110   36.4390 H   0  0  0  0  0  0  0  0  0  0  0  0
   43.5380   34.1600   38.5280 C   0  0  0  0  0  3  0  0  0  0  0  0
   43.2970   33.5650   39.7380 C   0  0  0  0  0  3  0  0  0  0  0  0
   40.8080   32.0710   41.9820 H   0  0  0  0  0  0  0  0  0  0  0  0
   42.0940   31.9630   41.5300 S   0  0  0  0  0  0  0  0  0  0  0  0
   42.4380   30.5130   41.4640 O   0  0  0  0  0  0  0  0  0  0  0  0
   43.0900   32.6010   42.4480 O   0  0  0  0  0  0  0  0  0  0  0  0
   36.0720   28.9110   36.5190 C   0  0  0  0  0  0  0  0  0  0  0  0
   34.6860   29.1450   36.6720 C   0  0  0  0  0  0  0  0  0  0  0  0
   34.1180   28.6980   37.8460 C   0  0  0  0  0  0  0  0  0  0  0  0
   34.9540   28.0940   38.6920 N   0  0  0  0  0  0  0  0  0  0  0  0
   36.2540   27.8570   38.5790 C   0  0  0  0  0  0  0  0  0  0  0  0
   36.7760   28.2890   37.4680 N   0  0  0  0  0  0  0  0  0  0  0  0
   36.5380   29.2550   35.6070 H   0  0  0  0  0  0  0  0  0  0  0  0
   34.0930   29.6390   35.9300 H   0  0  0  0  0  0  0  0  0  0  0  0
   32.7570   28.9220   38.1670 N   0  0  0  0  0  0  0  0  0  0  0  0
   32.4050   29.4830   38.9720 H   0  0  0  0  0  0  0  0  0  0  0  0
   32.0520   28.4900   37.5450 H   0  0  0  0  0  0  0  0  0  0  0  0
  1 10  1  0  0  0  0
  2  1  2  0  0  0  0
  2  3  1  0  0  0  0
  3  4  2  0  0  0  0
  4  5  1  0  0  0  0
  4 13  1  0  0  0  0
  5  6  1  0  0  0  0
  6  7  2  0  0  0  0
  6 14  1  0  0  0  0
  7 15  1  0  0  0  0
  8 16  1  0  0  0  0
  8  7  1  0  0  0  0
  9  8  2  0  0  0  0
 10  9  1  0  0  0  0
 10  5  2  0  0  0  0
 11  2  1  0  0  0  0
 12  3  1  0  0  0  0
 17 18  1  0  0  0  0
 17 26  1  0  0  0  0
 18  9  1  0  0  0  0
 19 23  1  0  0  0  0
 19 18  2  0  0  0  0
 20 19  1  0  0  0  0
 21 20  2  0  0  0  0
 21 22  1  0  0  0  0
 22 17  2  0  0  0  0
 24 20  1  0  0  0  0
 25 21  1  0  0  0  0
 27 26  1  0  0  0  0
 28 22  1  0  0  0  0
 29 38  1  0  0  0  0
 30 28  1  0  0  0  0
 30 29  2  0  0  0  0
 31 30  1  0  0  0  0
 32 31  1  0  0  0  0
 33 31  2  0  0  0  0
 33 35  1  0  0  0  0
 34 33  1  0  0  0  0
 35 36  2  0  0  0  0
 36 29  1  0  0  0  0
 38 37  1  0  0  0  0
 38 40  2  0  0  0  0
 39 38  2  0  0  0  0
 41 42  2  0  0  0  0
 41 46  1  0  0  0  0
 42 43  1  0  0  0  0
 43 49  1  0  0  0  0
 43 44  2  0  0  0  0
 45 44  1  0  0  0  0
 45  1  1  0  0  0  0
 46 45  2  0  0  0  0
 47 41  1  0  0  0  0
 48 42  1  0  0  0  0
 49 50  1  0  0  0  0
 51 49  1  0  0  0  0
M  END
>  <minimizedAffinity>
-7.13591337

$$$$

 OpenBabel03242521573D

 51 55  0  0  0  0  0  0  0  0999 V2000
   36.7020   27.0620   39.6690 C   0  0  0  0  0  0  0  0  0  0  0  0
   36.7160   25.6720   39.6400 C   0  0  0  0  0  0  0  0  0  0  0  0
   36.9300   24.8880   40.7800 C   0  0  0  0  0  0  0  0  0  0  0  0
   37.1390   25.4750   41.9980 C   0  0  0  0  0  0  0  0  0  0  0  0
   37.1380   26.8810   42.0550 C   0  0  0  0  0  0  0  0  0  0  0  0
   37.4080   27.4290   43.2670 C   0  0  0  0  0  0  0  0  0  0  0  0
   37.4930   28.8230   43.3390 C   0  0  0  0  0  0  0  0  0  0  0  0
   37.3010   29.5870   42.1360 C   0  0  0  0  0  0  0  0  0  0  0  0
   37.0370   28.8820   40.9860 C   0  0  0  0  0  0  0  0  0  0  0  0
   36.9220   27.5680   40.8580 C   0  0  0  0  0  0  0  0  0  0  0  0
   36.5490   25.1830   38.6650 H   0  0  0  0  0  0  0  0  0  0  0  0
   36.9200   23.8270   40.6330 H   0  0  0  0  0  0  0  0  0  0  0  0
   37.2970   24.8400   42.8700 H   0  0  0  0  0  0  0  0  0  0  0  0
   37.5500   26.8050   44.1400 H   0  0  0  0  0  0  0  0  0  0  0  0
   37.7050   29.1820   44.3340 H   0  0  0  0  0  0  0  0  0  0  0  0
   37.4240   30.6000   42.4900 H   0  0  0  0  0  0  0  0  0  0  0  0
   38.7570   30.0090   39.8790 C   0  0  0  0  0  0  0  0  0  0  0  0
   37.3330   30.0250   40.1420 C   0  0  0  0  0  0  0  0  0  0  0  0
   36.7720   31.1330   39.6610 C   0  0  0  0  0  0  0  0  0  0  0  0
   37.4430   32.1490   38.9980 C   0  0  0  0  0  0  0  0  0  0  0  0
   38.7960   32.1040   38.7670 C   0  0  0  0  0  0  0  0  0  0  0  0
   39.4690   30.9990   39.2240 C   0  0  0  0  0  0  0  0  0  0  0  0
   35.7090   31.0530   39.9040 H   0  0  0  0  0  0  0  0  0  0  0  0
   36.6930   32.8990   38.7440 H   0  0  0  0  0  0  0  0  0  0  0  0
   38.9770   33.0140   38.2510 H   0  0  0  0  0  0  0  0  0  0  0  0
   39.6690   28.9850   40.2410 O   0  0  0  0  0  0  0  0  0  0  0  0
   39.6400   28.1140   39.6900 H   0  0  0  0  0  0  0  0  0  0  0  0
   40.8040   31.0280   38.9840 O   0  0  0  0  0  0  0  0  0  0  0  0
   42.7030   31.6640   38.3330 C   0  0  0  0  0  0  0  0  0  0  0  0
   41.6060   30.8010   38.0370 C   0  0  0  0  0  0  0  0  0  0  0  0
   41.8190   30.0890   36.8990 C   0  0  0  0  0  0  0  0  0  0  0  0
   41.0170   29.4300   36.6440 H   0  0  0  0  0  0  0  0  0  0  0  0
   42.8680   30.0560   36.0150 C   0  0  0  0  0  0  0  0  0  0  0  0
   42.8580   29.4130   35.1500 H   0  0  0  0  0  0  0  0  0  0  0  0
   43.8880   30.9080   36.3600 C   0  0  0  0  0  3  0  0  0  0  0  0
   43.8290   31.6970   37.4770 C   0  0  0  0  0  3  0  0  0  0  0  0
   42.5070   32.0970   40.8900 H   0  0  0  0  0  0  0  0  0  0  0  0
   42.8080   32.7540   39.7280 S   0  0  0  0  0  0  0  0  0  0  0  0
   44.2190   33.2290   39.8220 O   0  0  0  0  0  0  0  0  0  0  0  0
   41.9580   33.9670   39.5080 O   0  0  0  0  0  0  0  0  0  0  0  0
   36.1230   28.8940   36.4690 C   0  0  0  0  0  0  0  0  0  0  0  0
   34.7340   29.1350   36.5750 C   0  0  0  0  0  0  0  0  0  0  0  0
   34.1220   28.6830   37.7250 C   0  0  0  0  0  0  0  0  0  0  0  0
   34.9240   28.0680   38.5950 N   0  0  0  0  0  0  0  0  0  0  0  0
   36.2270   27.8250   38.5260 C   0  0  0  0  0  0  0  0  0  0  0  0
   36.7890   28.2610   37.4380 N   0  0  0  0  0  0  0  0  0  0  0  0
   36.6230   29.2410   35.5770 H   0  0  0  0  0  0  0  0  0  0  0  0
   34.1700   29.6380   35.8160 H   0  0  0  0  0  0  0  0  0  0  0  0
   32.7520   28.9130   37.9990 N   0  0  0  0  0  0  0  0  0  0  0  0
   32.3740   29.4710   38.7960 H   0  0  0  0  0  0  0  0  0  0  0  0
   32.0670   28.4900   37.3500 H   0  0  0  0  0  0  0  0  0  0  0  0
  1 10  1  0  0  0  0
  2  1  2  0  0  0  0
  2  3  1  0  0  0  0
  3  4  2  0  0  0  0
  4  5  1  0  0  0  0
  4 13  1  0  0  0  0
  5  6  1  0  0  0  0
  6  7  2  0  0  0  0
  6 14  1  0  0  0  0
  7 15  1  0  0  0  0
  8 16  1  0  0  0  0
  8  7  1  0  0  0  0
  9  8  2  0  0  0  0
 10  9  1  0  0  0  0
 10  5  2  0  0  0  0
 11  2  1  0  0  0  0
 12  3  1  0  0  0  0
 17 18  1  0  0  0  0
 17 26  1  0  0  0  0
 18  9  1  0  0  0  0
 19 23  1  0  0  0  0
 19 18  2  0  0  0  0
 20 19  1  0  0  0  0
 21 20  2  0  0  0  0
 21 22  1  0  0  0  0
 22 17  2  0  0  0  0
 24 20  1  0  0  0  0
 25 21  1  0  0  0  0
 27 26  1  0  0  0  0
 28 22  1  0  0  0  0
 29 38  1  0  0  0  0
 30 29  1  0  0  0  0
 30 28  1  0  0  0  0
 31 30  2  0  0  0  0
 32 31  1  0  0  0  0
 33 35  2  0  0  0  0
 33 31  1  0  0  0  0
 34 33  1  0  0  0  0
 35 36  1  0  0  0  0
 36 29  2  0  0  0  0
 38 39  2  0  0  0  0
 38 37  1  0  0  0  0
 40 38  2  0  0  0  0
 41 42  2  0  0  0  0
 41 46  1  0  0  0  0
 42 43  1  0  0  0  0
 43 49  1  0  0  0  0
 43 44  2  0  0  0  0
 45 44  1  0  0  0  0
 45  1  1  0  0  0  0
 46 45  2  0  0  0  0
 47 41  1  0  0  0  0
 48 42  1  0  0  0  0
 49 50  1  0  0  0  0
 51 49  1  0  0  0  0
M  END
>  <minimizedAffinity>
-7.12965679

$$$$

 OpenBabel03242521573D

 51 55  0  0  0  0  0  0  0  0999 V2000
   36.6940   26.9470   39.8780 C   0  0  0  0  0  0  0  0  0  0  0  0
   36.8320   25.5660   39.7850 C   0  0  0  0  0  0  0  0  0  0  0  0
   37.1620   24.7580   40.8800 C   0  0  0  0  0  0  0  0  0  0  0  0
   37.3650   25.3100   42.1150 C   0  0  0  0  0  0  0  0  0  0  0  0
   37.2390   26.7060   42.2350 C   0  0  0  0  0  0  0  0  0  0  0  0
   37.5070   27.2250   43.4610 C   0  0  0  0  0  0  0  0  0  0  0  0
   37.4690   28.6170   43.5940 C   0  0  0  0  0  0  0  0  0  0  0  0
   37.1610   29.4100   42.4350 C   0  0  0  0  0  0  0  0  0  0  0  0
   36.9150   28.7330   41.2630 C   0  0  0  0  0  0  0  0  0  0  0  0
   36.9140   27.4200   41.0800 C   0  0  0  0  0  0  0  0  0  0  0  0
   36.6710   25.1060   38.7950 H   0  0  0  0  0  0  0  0  0  0  0  0
   37.2410   23.7080   40.6840 H   0  0  0  0  0  0  0  0  0  0  0  0
   37.6140   24.6560   42.9500 H   0  0  0  0  0  0  0  0  0  0  0  0
   37.7390   26.5800   44.2990 H   0  0  0  0  0  0  0  0  0  0  0  0
   37.6870   28.9520   44.5950 H   0  0  0  0  0  0  0  0  0  0  0  0
   37.2050   30.4140   42.8300 H   0  0  0  0  0  0  0  0  0  0  0  0
   38.4820   30.0640   40.1550 C   0  0  0  0  0  0  0  0  0  0  0  0
   37.0730   29.9330   40.4630 C   0  0  0  0  0  0  0  0  0  0  0  0
   36.3940   31.0010   40.0490 C   0  0  0  0  0  0  0  0  0  0  0  0
   36.9430   32.1030   39.4110 C   0  0  0  0  0  0  0  0  0  0  0  0
   38.2850   32.1970   39.1370 C   0  0  0  0  0  0  0  0  0  0  0  0
   39.0740   31.1440   39.5240 C   0  0  0  0  0  0  0  0  0  0  0  0
   35.3520   30.8090   40.3200 H   0  0  0  0  0  0  0  0  0  0  0  0
   36.1170   32.7880   39.2140 H   0  0  0  0  0  0  0  0  0  0  0  0
   38.3610   33.1410   38.6570 H   0  0  0  0  0  0  0  0  0  0  0  0
   39.4990   29.1170   40.4440 O   0  0  0  0  0  0  0  0  0  0  0  0
   39.5330   28.2720   39.8560 H   0  0  0  0  0  0  0  0  0  0  0  0
   40.3920   31.3100   39.2450 O   0  0  0  0  0  0  0  0  0  0  0  0
   42.0170   31.3620   37.9070 C   0  0  0  0  0  0  0  0  0  0  0  0
   41.1510   32.1630   38.7090 C   0  0  0  0  0  0  0  0  0  0  0  0
   41.4490   33.4850   38.6040 C   0  0  0  0  0  0  0  0  0  0  0  0
   40.8210   34.1180   39.1930 H   0  0  0  0  0  0  0  0  0  0  0  0
   42.4050   34.1610   37.8880 C   0  0  0  0  0  0  0  0  0  0  0  0
   42.4910   35.2340   37.9310 H   0  0  0  0  0  0  0  0  0  0  0  0
   43.2020   33.3300   37.1390 C   0  0  0  0  0  3  0  0  0  0  0  0
   43.0320   31.9710   37.1330 C   0  0  0  0  0  3  0  0  0  0  0  0
   42.9430   29.1260   36.9530 H   0  0  0  0  0  0  0  0  0  0  0  0
   41.9520   29.5930   37.7710 S   0  0  0  0  0  0  0  0  0  0  0  0
   42.1770   29.0310   39.1340 O   0  0  0  0  0  0  0  0  0  0  0  0
   40.5860   29.1530   37.3430 O   0  0  0  0  0  0  0  0  0  0  0  0
   34.6260   28.9600   37.5100 C   0  0  0  0  0  0  0  0  0  0  0  0
   35.5970   29.2470   36.5240 C   0  0  0  0  0  0  0  0  0  0  0  0
   36.8520   28.7150   36.7300 C   0  0  0  0  0  0  0  0  0  0  0  0
   36.9930   27.9970   37.8440 N   0  0  0  0  0  0  0  0  0  0  0  0
   36.1060   27.7100   38.7890 C   0  0  0  0  0  0  0  0  0  0  0  0
   34.9270   28.2150   38.5780 N   0  0  0  0  0  0  0  0  0  0  0  0
   33.6350   29.3650   37.3680 H   0  0  0  0  0  0  0  0  0  0  0  0
   35.3890   29.8420   35.6570 H   0  0  0  0  0  0  0  0  0  0  0  0
   37.9040   28.8620   35.7930 N   0  0  0  0  0  0  0  0  0  0  0  0
   38.3730   28.0870   35.2760 H   0  0  0  0  0  0  0  0  0  0  0  0
   38.2340   29.8250   35.6050 H   0  0  0  0  0  0  0  0  0  0  0  0
  1 10  1  0  0  0  0
  2  1  2  0  0  0  0
  2  3  1  0  0  0  0
  3  4  2  0  0  0  0
  4  5  1  0  0  0  0
  4 13  1  0  0  0  0
  5  6  1  0  0  0  0
  6  7  2  0  0  0  0
  6 14  1  0  0  0  0
  7 15  1  0  0  0  0
  8 16  1  0  0  0  0
  8  7  1  0  0  0  0
  9  8  2  0  0  0  0
 10  9  1  0  0  0  0
 10  5  2  0  0  0  0
 11  2  1  0  0  0  0
 12  3  1  0  0  0  0
 17 26  1  0  0  0  0
 17 18  1  0  0  0  0
 18  9  1  0  0  0  0
 19 23  1  0  0  0  0
 19 18  2  0  0  0  0
 20 19  1  0  0  0  0
 21 20  2  0  0  0  0
 21 22  1  0  0  0  0
 22 17  2  0  0  0  0
 24 20  1  0  0  0  0
 25 21  1  0  0  0  0
 27 26  1  0  0  0  0
 28 22  1  0  0  0  0
 29 30  1  0  0  0  0
 30 28  1  0  0  0  0
 31 30  2  0  0  0  0
 31 32  1  0  0  0  0
 33 34  1  0  0  0  0
 33 31  1  0  0  0  0
 35 33  2  0  0  0  0
 36 35  1  0  0  0  0
 36 29  2  0  0  0  0
 37 38  1  0  0  0  0
 38 29  1  0  0  0  0
 38 39  2  0  0  0  0
 40 38  2  0  0  0  0
 41 46  1  0  0  0  0
 42 43  1  0  0  0  0
 42 41  2  0  0  0  0
 43 44  2  0  0  0  0
 44 45  1  0  0  0  0
 45  1  1  0  0  0  0
 46 45  2  0  0  0  0
 47 41  1  0  0  0  0
 48 42  1  0  0  0  0
 49 43  1  0  0  0  0
 50 49  1  0  0  0  0
 51 49  1  0  0  0  0
M  END
>  <minimizedAffinity>
-7.11620617

$$$$

 OpenBabel03242521573D

 51 55  0  0  0  0  0  0  0  0999 V2000
   37.1410   25.8980   39.1510 C   0  0  0  0  0  0  0  0  0  0  0  0
   37.0090   24.8110   38.2920 C   0  0  0  0  0  0  0  0  0  0  0  0
   36.0240   24.7400   37.3000 C   0  0  0  0  0  0  0  0  0  0  0  0
   35.1310   25.7620   37.1320 C   0  0  0  0  0  0  0  0  0  0  0  0
   35.2370   26.8700   37.9920 C   0  0  0  0  0  0  0  0  0  0  0  0
   34.2970   27.8380   37.8360 C   0  0  0  0  0  0  0  0  0  0  0  0
   34.3270   28.9150   38.7290 C   0  0  0  0  0  0  0  0  0  0  0  0
   35.3340   28.9300   39.7550 C   0  0  0  0  0  0  0  0  0  0  0  0
   36.2140   27.8720   39.7810 C   0  0  0  0  0  0  0  0  0  0  0  0
   36.2510   26.8390   38.9530 C   0  0  0  0  0  0  0  0  0  0  0  0
   37.7220   23.9780   38.4150 H   0  0  0  0  0  0  0  0  0  0  0  0
   36.0210   23.8510   36.7010 H   0  0  0  0  0  0  0  0  0  0  0  0
   34.3790   25.6820   36.3470 H   0  0  0  0  0  0  0  0  0  0  0  0
   33.5570   27.7730   37.0490 H   0  0  0  0  0  0  0  0  0  0  0  0
   33.5550   29.6420   38.5390 H   0  0  0  0  0  0  0  0  0  0  0  0
   35.1130   29.8500   40.2740 H   0  0  0  0  0  0  0  0  0  0  0  0
   37.6480   29.2450   41.0110 C   0  0  0  0  0  0  0  0  0  0  0  0
   36.6590   28.1930   41.1240 C   0  0  0  0  0  0  0  0  0  0  0  0
   36.5690   27.7570   42.3790 C   0  0  0  0  0  0  0  0  0  0  0  0
   37.3160   28.2290   43.4480 C   0  0  0  0  0  0  0  0  0  0  0  0
   38.2490   29.2260   43.3050 C   0  0  0  0  0  0  0  0  0  0  0  0
   38.4180   29.7450   42.0460 C   0  0  0  0  0  0  0  0  0  0  0  0
   35.8040   26.9760   42.3640 H   0  0  0  0  0  0  0  0  0  0  0  0
   36.9970   27.6600   44.3220 H   0  0  0  0  0  0  0  0  0  0  0  0
   38.6240   29.3400   44.2920 H   0  0  0  0  0  0  0  0  0  0  0  0
   38.0030   29.9430   39.8280 O   0  0  0  0  0  0  0  0  0  0  0  0
   37.3360   30.6470   39.4800 H   0  0  0  0  0  0  0  0  0  0  0  0
   39.3700   30.7090   41.9700 O   0  0  0  0  0  0  0  0  0  0  0  0
   40.9590   31.9780   41.4230 C   0  0  0  0  0  0  0  0  0  0  0  0
   40.5940   30.8600   42.2320 C   0  0  0  0  0  0  0  0  0  0  0  0
   41.6500   30.3940   42.9500 C   0  0  0  0  0  0  0  0  0  0  0  0
   41.4150   29.5550   43.5690 H   0  0  0  0  0  0  0  0  0  0  0  0
   42.9600   30.7950   43.0310 C   0  0  0  0  0  0  0  0  0  0  0  0
   43.6670   30.2930   43.6700 H   0  0  0  0  0  0  0  0  0  0  0  0
   43.2410   31.8740   42.2280 C   0  0  0  0  0  3  0  0  0  0  0  0
   42.2880   32.4620   41.4410 C   0  0  0  0  0  3  0  0  0  0  0  0
   38.6820   33.1480   40.9640 H   0  0  0  0  0  0  0  0  0  0  0  0
   39.8680   32.8670   40.3430 S   0  0  0  0  0  0  0  0  0  0  0  0
   40.5270   34.1610   40.0050 O   0  0  0  0  0  0  0  0  0  0  0  0
   39.6900   32.1240   39.0550 O   0  0  0  0  0  0  0  0  0  0  0  0
   40.2870   26.8610   40.9140 C   0  0  0  0  0  0  0  0  0  0  0  0
   40.2570   25.9380   41.9840 C   0  0  0  0  0  0  0  0  0  0  0  0
   39.1970   25.0580   42.0020 C   0  0  0  0  0  0  0  0  0  0  0  0
   38.3260   25.1920   41.0020 N   0  0  0  0  0  0  0  0  0  0  0  0
   38.3220   26.0460   39.9860 C   0  0  0  0  0  0  0  0  0  0  0  0
   39.3300   26.8670   39.9810 N   0  0  0  0  0  0  0  0  0  0  0  0
   41.1090   27.5600   40.8790 H   0  0  0  0  0  0  0  0  0  0  0  0
   41.0080   25.9090   42.7490 H   0  0  0  0  0  0  0  0  0  0  0  0
   39.0740   24.0350   42.9730 N   0  0  0  0  0  0  0  0  0  0  0  0
   39.0780   23.0090   42.7830 H   0  0  0  0  0  0  0  0  0  0  0  0
   38.9700   24.3340   43.9580 H   0  0  0  0  0  0  0  0  0  0  0  0
  1 45  1  0  0  0  0
  2 11  1  0  0  0  0
  2  1  2  0  0  0  0
  3  2  1  0  0  0  0
  4  3  2  0  0  0  0
  4  5  1  0  0  0  0
  5 10  1  0  0  0  0
  6  5  2  0  0  0  0
  6  7  1  0  0  0  0
  7  8  2  0  0  0  0
  8  9  1  0  0  0  0
  8 16  1  0  0  0  0
  9 18  1  0  0  0  0
 10  1  1  0  0  0  0
 10  9  2  0  0  0  0
 12  3  1  0  0  0  0
 13  4  1  0  0  0  0
 14  6  1  0  0  0  0
 15  7  1  0  0  0  0
 17 18  2  0  0  0  0
 17 22  1  0  0  0  0
 18 19  1  0  0  0  0
 19 20  2  0  0  0  0
 20 24  1  0  0  0  0
 21 20  1  0  0  0  0
 21 25  1  0  0  0  0
 22 21  2  0  0  0  0
 23 19  1  0  0  0  0
 26 17  1  0  0  0  0
 27 26  1  0  0  0  0
 28 22  1  0  0  0  0
 28 30  1  0  0  0  0
 29 36  2  0  0  0  0
 29 30  1  0  0  0  0
 30 31  2  0  0  0  0
 31 33  1  0  0  0  0
 31 32  1  0  0  0  0
 33 34  1  0  0  0  0
 35 33  2  0  0  0  0
 36 35  1  0  0  0  0
 38 37  1  0  0  0  0
 38 29  1  0  0  0  0
 39 38  2  0  0  0  0
 40 38  2  0  0  0  0
 41 42  1  0  0  0  0
 42 43  2  0  0  0  0
 42 48  1  0  0  0  0
 43 49  1  0  0  0  0
 44 43  1  0  0  0  0
 45 44  2  0  0  0  0
 46 45  1  0  0  0  0
 46 41  2  0  0  0  0
 47 41  1  0  0  0  0
 49 51  1  0  0  0  0
 50 49  1  0  0  0  0
M  END
>  <minimizedAffinity>
-6.73331404

$$$$

 OpenBabel03242521573D

 51 55  0  0  0  0  0  0  0  0999 V2000
   37.8460   31.5170   40.4940 C   0  0  0  0  0  0  0  0  0  0  0  0
   37.6400   32.7740   39.9340 C   0  0  0  0  0  0  0  0  0  0  0  0
   38.6070   33.7860   39.9580 C   0  0  0  0  0  0  0  0  0  0  0  0
   39.8230   33.5730   40.5470 C   0  0  0  0  0  0  0  0  0  0  0  0
   40.0550   32.3130   41.1280 C   0  0  0  0  0  0  0  0  0  0  0  0
   41.2490   32.1570   41.7560 C   0  0  0  0  0  0  0  0  0  0  0  0
   41.4770   30.9430   42.4130 C   0  0  0  0  0  0  0  0  0  0  0  0
   40.4430   29.9440   42.3930 C   0  0  0  0  0  0  0  0  0  0  0  0
   39.2880   30.2570   41.7140 C   0  0  0  0  0  0  0  0  0  0  0  0
   39.0220   31.3760   41.0560 C   0  0  0  0  0  0  0  0  0  0  0  0
   36.6640   32.9620   39.4550 H   0  0  0  0  0  0  0  0  0  0  0  0
   38.3320   34.7120   39.4950 H   0  0  0  0  0  0  0  0  0  0  0  0
   40.5580   34.3770   40.5450 H   0  0  0  0  0  0  0  0  0  0  0  0
   41.9910   32.9450   41.7440 H   0  0  0  0  0  0  0  0  0  0  0  0
   42.4470   30.8930   42.8820 H   0  0  0  0  0  0  0  0  0  0  0  0
   40.8900   29.1450   42.9640 H   0  0  0  0  0  0  0  0  0  0  0  0
   38.6930   28.0100   41.4830 C   0  0  0  0  0  0  0  0  0  0  0  0
   38.5540   29.1720   42.3370 C   0  0  0  0  0  0  0  0  0  0  0  0
   37.6980   28.9330   43.3290 C   0  0  0  0  0  0  0  0  0  0  0  0
   37.0200   27.7420   43.5340 C   0  0  0  0  0  0  0  0  0  0  0  0
   37.1730   26.6590   42.7030 C   0  0  0  0  0  0  0  0  0  0  0  0
   38.0350   26.8040   41.6460 C   0  0  0  0  0  0  0  0  0  0  0  0
   37.6630   29.8570   43.9140 H   0  0  0  0  0  0  0  0  0  0  0  0
   36.4080   27.8850   44.4260 H   0  0  0  0  0  0  0  0  0  0  0  0
   36.5280   25.9360   43.1370 H   0  0  0  0  0  0  0  0  0  0  0  0
   39.5210   27.9030   40.3360 O   0  0  0  0  0  0  0  0  0  0  0  0
   40.5340   27.8050   40.4960 H   0  0  0  0  0  0  0  0  0  0  0  0
   38.1230   25.7070   40.8520 O   0  0  0  0  0  0  0  0  0  0  0  0
   38.1390   24.3380   39.2520 C   0  0  0  0  0  0  0  0  0  0  0  0
   37.3640   24.8400   40.3390 C   0  0  0  0  0  0  0  0  0  0  0  0
   36.1530   24.2280   40.4180 C   0  0  0  0  0  0  0  0  0  0  0  0
   35.5410   24.5790   41.2210 H   0  0  0  0  0  0  0  0  0  0  0  0
   35.5640   23.2470   39.6600 C   0  0  0  0  0  0  0  0  0  0  0  0
   34.5760   22.8800   39.8780 H   0  0  0  0  0  0  0  0  0  0  0  0
   36.3650   22.8100   38.6320 C   0  0  0  0  0  3  0  0  0  0  0  0
   37.6150   23.3240   38.4160 C   0  0  0  0  0  3  0  0  0  0  0  0
   40.3410   24.0350   37.9010 H   0  0  0  0  0  0  0  0  0  0  0  0
   39.7720   24.8780   38.8160 S   0  0  0  0  0  0  0  0  0  0  0  0
   39.6460   26.2230   38.1850 O   0  0  0  0  0  0  0  0  0  0  0  0
   40.6090   25.0540   40.0450 O   0  0  0  0  0  0  0  0  0  0  0  0
   35.0820   29.0160   40.2980 C   0  0  0  0  0  0  0  0  0  0  0  0
   35.4920   28.2910   39.1550 C   0  0  0  0  0  0  0  0  0  0  0  0
   36.6740   28.6910   38.5700 C   0  0  0  0  0  0  0  0  0  0  0  0
   37.2830   29.7210   39.1580 N   0  0  0  0  0  0  0  0  0  0  0  0
   36.9260   30.4240   40.2260 C   0  0  0  0  0  0  0  0  0  0  0  0
   35.8120   30.0320   40.7680 N   0  0  0  0  0  0  0  0  0  0  0  0
   34.1600   28.7190   40.7730 H   0  0  0  0  0  0  0  0  0  0  0  0
   34.9290   27.4740   38.7520 H   0  0  0  0  0  0  0  0  0  0  0  0
   37.2420   28.0150   37.4630 N   0  0  0  0  0  0  0  0  0  0  0  0
   38.1620   27.5230   37.4550 H   0  0  0  0  0  0  0  0  0  0  0  0
   36.6940   28.0100   36.5850 H   0  0  0  0  0  0  0  0  0  0  0  0
  1 10  1  0  0  0  0
  2  3  1  0  0  0  0
  2  1  2  0  0  0  0
  3  4  2  0  0  0  0
  4  5  1  0  0  0  0
  5  6  1  0  0  0  0
  6  7  2  0  0  0  0
  7 15  1  0  0  0  0
  8  7  1  0  0  0  0
  8 16  1  0  0  0  0
  9 18  1  0  0  0  0
  9  8  2  0  0  0  0
 10  5  2  0  0  0  0
 10  9  1  0  0  0  0
 11  2  1  0  0  0  0
 12  3  1  0  0  0  0
 13  4  1  0  0  0  0
 14  6  1  0  0  0  0
 17 22  2  0  0  0  0
 17 18  1  0  0  0  0
 18 19  2  0  0  0  0
 19 20  1  0  0  0  0
 19 23  1  0  0  0  0
 20 24  1  0  0  0  0
 21 25  1  0  0  0  0
 21 20  2  0  0  0  0
 22 21  1  0  0  0  0
 26 27  1  0  0  0  0
 26 17  1  0  0  0  0
 28 22  1  0  0  0  0
 29 30  1  0  0  0  0
 30 31  2  0  0  0  0
 30 28  1  0  0  0  0
 31 32  1  0  0  0  0
 33 34  1  0  0  0  0
 33 31  1  0  0  0  0
 35 33  2  0  0  0  0
 36 35  1  0  0  0  0
 36 29  2  0  0  0  0
 37 38  1  0  0  0  0
 38 29  1  0  0  0  0
 38 40  2  0  0  0  0
 39 38  2  0  0  0  0
 41 46  1  0  0  0  0
 41 47  1  0  0  0  0
 42 41  2  0  0  0  0
 43 42  1  0  0  0  0
 43 44  2  0  0  0  0
 44 45  1  0  0  0  0
 45  1  1  0  0  0  0
 45 46  2  0  0  0  0
 48 42  1  0  0  0  0
 49 43  1  0  0  0  0
 50 49  1  0  0  0  0
 51 49  1  0  0  0  0
M  END
>  <minimizedAffinity>
-6.72686148

$$$$

 OpenBabel03242521573D

 51 55  0  0  0  0  0  0  0  0999 V2000
   36.4650   25.9660   38.7230 C   0  0  0  0  0  0  0  0  0  0  0  0
   36.6930   24.6570   38.3130 C   0  0  0  0  0  0  0  0  0  0  0  0
   37.0440   23.6310   39.1990 C   0  0  0  0  0  0  0  0  0  0  0  0
   37.1800   23.8840   40.5360 C   0  0  0  0  0  0  0  0  0  0  0  0
   36.9630   25.2020   40.9780 C   0  0  0  0  0  0  0  0  0  0  0  0
   37.1650   25.4280   42.3010 C   0  0  0  0  0  0  0  0  0  0  0  0
   37.0360   26.7450   42.7570 C   0  0  0  0  0  0  0  0  0  0  0  0
   36.7090   27.7720   41.8060 C   0  0  0  0  0  0  0  0  0  0  0  0
   36.5370   27.3800   40.4990 C   0  0  0  0  0  0  0  0  0  0  0  0
   36.6240   26.1510   40.0110 C   0  0  0  0  0  0  0  0  0  0  0  0
   36.5870   24.4370   37.2370 H   0  0  0  0  0  0  0  0  0  0  0  0
   37.1940   22.6630   38.7640 H   0  0  0  0  0  0  0  0  0  0  0  0
   37.4480   23.0640   41.2030 H   0  0  0  0  0  0  0  0  0  0  0  0
   37.4160   24.6170   42.9720 H   0  0  0  0  0  0  0  0  0  0  0  0
   37.2070   26.8430   43.8170 H   0  0  0  0  0  0  0  0  0  0  0  0
   36.6800   28.6540   42.4280 H   0  0  0  0  0  0  0  0  0  0  0  0
   38.0380   28.9980   39.7330 C   0  0  0  0  0  0  0  0  0  0  0  0
   36.6390   28.7430   40.0110 C   0  0  0  0  0  0  0  0  0  0  0  0
   35.9170   29.8540   39.8730 C   0  0  0  0  0  0  0  0  0  0  0  0
   36.4170   31.0960   39.5170 C   0  0  0  0  0  0  0  0  0  0  0  0
   37.7500   31.3050   39.2630 C   0  0  0  0  0  0  0  0  0  0  0  0
   38.5820   30.2200   39.3770 C   0  0  0  0  0  0  0  0  0  0  0  0
   34.8870   29.5630   40.0990 H   0  0  0  0  0  0  0  0  0  0  0  0
   35.5640   31.7770   39.4970 H   0  0  0  0  0  0  0  0  0  0  0  0
   37.7860   32.3390   39.0240 H   0  0  0  0  0  0  0  0  0  0  0  0
   39.0920   28.0490   39.7760 O   0  0  0  0  0  0  0  0  0  0  0  0
   39.1450   27.3720   39.0010 H   0  0  0  0  0  0  0  0  0  0  0  0
   39.8880   30.4980   39.1360 O   0  0  0  0  0  0  0  0  0  0  0  0
   41.4500   30.7210   37.7420 C   0  0  0  0  0  0  0  0  0  0  0  0
   40.5880   31.4210   38.6370 C   0  0  0  0  0  0  0  0  0  0  0  0
   40.8270   32.7590   38.6230 C   0  0  0  0  0  0  0  0  0  0  0  0
   40.2000   33.3180   39.2830 H   0  0  0  0  0  0  0  0  0  0  0  0
   41.7230   33.5280   37.9230 C   0  0  0  0  0  0  0  0  0  0  0  0
   41.7670   34.5970   38.0460 H   0  0  0  0  0  0  0  0  0  0  0  0
   42.5200   32.7910   37.0810 C   0  0  0  0  0  3  0  0  0  0  0  0
   42.4060   31.4310   36.9780 C   0  0  0  0  0  3  0  0  0  0  0  0
   41.4810   28.2880   38.6610 H   0  0  0  0  0  0  0  0  0  0  0  0
   41.4510   28.9670   37.4740 S   0  0  0  0  0  0  0  0  0  0  0  0
   40.1800   28.6190   36.7770 O   0  0  0  0  0  0  0  0  0  0  0  0
   42.5680   28.5810   36.5530 O   0  0  0  0  0  0  0  0  0  0  0  0
   34.3560   28.4090   36.8480 C   0  0  0  0  0  0  0  0  0  0  0  0
   35.3110   28.8990   35.9280 C   0  0  0  0  0  0  0  0  0  0  0  0
   36.5710   28.3440   36.0040 C   0  0  0  0  0  0  0  0  0  0  0  0
   36.7310   27.4130   36.9440 N   0  0  0  0  0  0  0  0  0  0  0  0
   35.8590   26.9330   37.8230 C   0  0  0  0  0  0  0  0  0  0  0  0
   34.6750   27.4630   37.7360 N   0  0  0  0  0  0  0  0  0  0  0  0
   33.3620   28.8280   36.8060 H   0  0  0  0  0  0  0  0  0  0  0  0
   35.0890   29.6580   35.2060 H   0  0  0  0  0  0  0  0  0  0  0  0
   37.6090   28.6870   35.1030 N   0  0  0  0  0  0  0  0  0  0  0  0
   38.0730   28.0380   34.4320 H   0  0  0  0  0  0  0  0  0  0  0  0
   37.9320   29.6700   35.1130 H   0  0  0  0  0  0  0  0  0  0  0  0
  1 10  1  0  0  0  0
  2  1  2  0  0  0  0
  2  3  1  0  0  0  0
  3  4  2  0  0  0  0
  4  5  1  0  0  0  0
  4 13  1  0  0  0  0
  5  6  1  0  0  0  0
  6  7  2  0  0  0  0
  6 14  1  0  0  0  0
  7 15  1  0  0  0  0
  8 16  1  0  0  0  0
  8  7  1  0  0  0  0
  9  8  2  0  0  0  0
 10  9  1  0  0  0  0
 10  5  2  0  0  0  0
 11  2  1  0  0  0  0
 12  3  1  0  0  0  0
 17 26  1  0  0  0  0
 17 18  1  0  0  0  0
 18  9  1  0  0  0  0
 19 18  2  0  0  0  0
 19 23  1  0  0  0  0
 20 19  1  0  0  0  0
 21 22  1  0  0  0  0
 21 20  2  0  0  0  0
 22 17  2  0  0  0  0
 24 20  1  0  0  0  0
 25 21  1  0  0  0  0
 27 26  1  0  0  0  0
 28 22  1  0  0  0  0
 29 30  1  0  0  0  0
 30 28  1  0  0  0  0
 31 30  2  0  0  0  0
 31 32  1  0  0  0  0
 33 34  1  0  0  0  0
 33 31  1  0  0  0  0
 35 33  2  0  0  0  0
 36 35  1  0  0  0  0
 36 29  2  0  0  0  0
 38 29  1  0  0  0  0
 38 37  1  0  0  0  0
 39 38  2  0  0  0  0
 40 38  2  0  0  0  0
 41 46  1  0  0  0  0
 42 43  1  0  0  0  0
 42 41  2  0  0  0  0
 43 44  2  0  0  0  0
 44 45  1  0  0  0  0
 45  1  1  0  0  0  0
 46 45  2  0  0  0  0
 47 41  1  0  0  0  0
 48 42  1  0  0  0  0
 49 51  1  0  0  0  0
 49 43  1  0  0  0  0
 50 49  1  0  0  0  0
M  END
>  <minimizedAffinity>
-6.7088356

$$$$
