
 OpenBabel03252505503D

 25 26  0  0  0  0  0  0  0  0999 V2000
   38.1160   28.2380   43.4350 O   0  0  0  0  0  0  0  0  0  0  0  0
   39.1590   31.1910   41.7010 C   0  0  0  0  0  0  0  0  0  0  0  0
   38.0570   31.5240   40.9330 C   0  0  0  0  0  0  0  0  0  0  0  0
   36.9300   30.6930   41.0300 C   0  0  0  0  0  0  0  0  0  0  0  0
   36.9700   29.6280   41.8510 N   0  0  0  0  0  0  0  0  0  0  0  0
   38.0550   29.3340   42.5830 C   0  0  0  0  0  0  0  0  0  0  0  0
   39.1500   30.0990   42.5200 N   0  0  0  0  0  0  0  0  0  0  0  0
   40.0600   31.8010   41.6650 H   0  0  0  0  0  0  0  0  0  0  0  0
   36.0810   30.9640   40.4260 H   0  0  0  0  0  0  0  0  0  0  0  0
   38.1600   32.7260   40.0710 C   0  0  0  0  0  0  0  0  0  0  0  0
   38.6950   33.7180   40.8670 F   0  0  0  0  0  0  0  0  0  0  0  0
   36.9050   33.0550   39.6350 F   0  0  0  0  0  0  0  0  0  0  0  0
   38.9950   32.4080   38.9990 F   0  0  0  0  0  0  0  0  0  0  0  0
   39.3230   26.1600   42.8800 C   0  0  0  0  0  0  0  0  0  0  0  0
   38.2040   26.9460   42.9890 C   0  0  0  0  0  0  0  0  0  0  0  0
   37.0080   26.3440   42.5920 C   0  0  0  0  0  0  0  0  0  0  0  0
   36.0550   26.8430   42.6230 H   0  0  0  0  0  0  0  0  0  0  0  0
   36.9650   25.0520   42.1240 C   0  0  0  0  0  0  0  0  0  0  0  0
   36.0440   24.5780   41.8140 H   0  0  0  0  0  0  0  0  0  0  0  0
   38.1030   24.2700   42.0190 C   0  0  0  0  0  3  0  0  0  0  0  0
   39.2950   24.8630   42.4130 C   0  0  0  0  0  3  0  0  0  0  0  0
   40.7490   27.7060   44.4230 H   0  0  0  0  0  0  0  0  0  0  0  0
   40.8400   26.8570   43.3730 S   0  0  0  0  0  0  0  0  0  0  0  0
   41.8280   25.7390   43.6790 O   0  0  0  0  0  0  0  0  0  0  0  0
   41.4180   27.6620   42.2130 O   0  0  0  0  0  0  0  0  0  0  0  0
  2  7  1  0  0  0  0
  3  4  1  0  0  0  0
  3  2  2  0  0  0  0
  4  5  2  0  0  0  0
  5  6  1  0  0  0  0
  6  1  1  0  0  0  0
  7  6  2  0  0  0  0
  8  2  1  0  0  0  0
  9  4  1  0  0  0  0
 10 11  1  0  0  0  0
 10  3  1  0  0  0  0
 12 10  1  0  0  0  0
 13 10  1  0  0  0  0
 14 15  1  0  0  0  0
 14 23  1  0  0  0  0
 15  1  1  0  0  0  0
 16 17  1  0  0  0  0
 16 15  2  0  0  0  0
 18 16  1  0  0  0  0
 19 18  1  0  0  0  0
 20 18  2  0  0  0  0
 20 21  1  0  0  0  0
 21 14  2  0  0  0  0
 23 24  2  0  0  0  0
 23 22  1  0  0  0  0
 25 23  2  0  0  0  0
M  END
>  <minimizedAffinity>
-5.15892172

$$$$

 OpenBabel03252505503D

 25 26  0  0  0  0  0  0  0  0999 V2000
   36.6720   27.6510   41.7440 O   0  0  0  0  0  0  0  0  0  0  0  0
   37.8470   29.8740   39.1950 C   0  0  0  0  0  0  0  0  0  0  0  0
   37.3290   31.1010   39.5690 C   0  0  0  0  0  0  0  0  0  0  0  0
   36.5520   31.1430   40.7390 C   0  0  0  0  0  0  0  0  0  0  0  0
   36.3510   30.0080   41.4320 N   0  0  0  0  0  0  0  0  0  0  0  0
   36.8700   28.8340   41.0420 C   0  0  0  0  0  0  0  0  0  0  0  0
   37.6140   28.7500   39.9340 N   0  0  0  0  0  0  0  0  0  0  0  0
   38.4560   29.7840   38.2970 H   0  0  0  0  0  0  0  0  0  0  0  0
   36.1560   32.1040   41.0160 H   0  0  0  0  0  0  0  0  0  0  0  0
   37.6310   32.2660   38.7040 C   0  0  0  0  0  0  0  0  0  0  0  0
   38.9850   32.4930   38.8360 F   0  0  0  0  0  0  0  0  0  0  0  0
   36.8980   33.3350   39.1440 F   0  0  0  0  0  0  0  0  0  0  0  0
   37.2830   31.9250   37.3970 F   0  0  0  0  0  0  0  0  0  0  0  0
   37.9930   25.5750   41.9030 C   0  0  0  0  0  0  0  0  0  0  0  0
   37.7000   26.8780   42.2150 C   0  0  0  0  0  0  0  0  0  0  0  0
   38.5650   27.4850   43.1280 C   0  0  0  0  0  0  0  0  0  0  0  0
   38.4540   28.5020   43.4620 H   0  0  0  0  0  0  0  0  0  0  0  0
   39.6330   26.8140   43.6730 C   0  0  0  0  0  0  0  0  0  0  0  0
   40.3080   27.2760   44.3810 H   0  0  0  0  0  0  0  0  0  0  0  0
   39.9170   25.4980   43.3500 C   0  0  0  0  0  3  0  0  0  0  0  0
   39.0610   24.8890   42.4420 C   0  0  0  0  0  3  0  0  0  0  0  0
   35.6360   24.8440   41.0590 H   0  0  0  0  0  0  0  0  0  0  0  0
   36.9540   24.7730   40.7600 S   0  0  0  0  0  0  0  0  0  0  0  0
   37.2120   25.3340   39.3690 O   0  0  0  0  0  0  0  0  0  0  0  0
   37.3100   23.2900   40.7190 O   0  0  0  0  0  0  0  0  0  0  0  0
  1 15  1  0  0  0  0
  2  3  2  0  0  0  0
  2  7  1  0  0  0  0
  3  4  1  0  0  0  0
  4  9  1  0  0  0  0
  4  5  2  0  0  0  0
  6  5  1  0  0  0  0
  6  1  1  0  0  0  0
  7  6  2  0  0  0  0
  8  2  1  0  0  0  0
 10 11  1  0  0  0  0
 10 12  1  0  0  0  0
 10  3  1  0  0  0  0
 13 10  1  0  0  0  0
 14 15  2  0  0  0  0
 14 21  1  0  0  0  0
 15 16  1  0  0  0  0
 16 17  1  0  0  0  0
 16 18  2  0  0  0  0
 18 19  1  0  0  0  0
 20 18  1  0  0  0  0
 21 20  2  0  0  0  0
 23 22  1  0  0  0  0
 23 14  1  0  0  0  0
 24 23  2  0  0  0  0
 25 23  2  0  0  0  0
M  END
>  <minimizedAffinity>
-5.10408688

$$$$

 OpenBabel03252505503D

 25 26  0  0  0  0  0  0  0  0999 V2000
   36.8400   29.8690   41.9260 O   0  0  0  0  0  0  0  0  0  0  0  0
   37.1090   26.3670   42.6210 C   0  0  0  0  0  0  0  0  0  0  0  0
   37.0760   25.7830   41.3670 C   0  0  0  0  0  0  0  0  0  0  0  0
   36.9560   26.6390   40.2600 C   0  0  0  0  0  0  0  0  0  0  0  0
   36.8820   27.9670   40.4650 N   0  0  0  0  0  0  0  0  0  0  0  0
   36.9180   28.5010   41.6950 C   0  0  0  0  0  0  0  0  0  0  0  0
   37.0300   27.7220   42.7760 N   0  0  0  0  0  0  0  0  0  0  0  0
   37.2000   25.7510   43.5130 H   0  0  0  0  0  0  0  0  0  0  0  0
   36.9310   26.1700   39.2930 H   0  0  0  0  0  0  0  0  0  0  0  0
   37.1640   24.3050   41.2970 C   0  0  0  0  0  0  0  0  0  0  0  0
   37.7340   23.9030   42.4870 F   0  0  0  0  0  0  0  0  0  0  0  0
   37.9480   23.9680   40.2260 F   0  0  0  0  0  0  0  0  0  0  0  0
   35.8690   23.8100   41.1440 F   0  0  0  0  0  0  0  0  0  0  0  0
   38.7890   31.1930   41.1980 C   0  0  0  0  0  0  0  0  0  0  0  0
   37.4770   30.7980   41.1460 C   0  0  0  0  0  0  0  0  0  0  0  0
   36.7010   31.4280   40.1720 C   0  0  0  0  0  0  0  0  0  0  0  0
   35.6560   31.2170   40.0190 H   0  0  0  0  0  0  0  0  0  0  0  0
   37.2230   32.3790   39.3280 C   0  0  0  0  0  0  0  0  0  0  0  0
   36.6300   32.8720   38.5710 H   0  0  0  0  0  0  0  0  0  0  0  0
   38.5510   32.7680   39.3920 C   0  0  0  0  0  3  0  0  0  0  0  0
   39.3290   32.1440   40.3590 C   0  0  0  0  0  3  0  0  0  0  0  0
   39.2070   30.2190   43.5820 H   0  0  0  0  0  0  0  0  0  0  0  0
   39.8070   30.4300   42.3880 S   0  0  0  0  0  0  0  0  0  0  0  0
   40.3410   29.1210   41.8240 O   0  0  0  0  0  0  0  0  0  0  0  0
   41.0110   31.3260   42.6600 O   0  0  0  0  0  0  0  0  0  0  0  0
  2  7  1  0  0  0  0
  2  8  1  0  0  0  0
  3  2  2  0  0  0  0
  4  5  2  0  0  0  0
  4  3  1  0  0  0  0
  5  6  1  0  0  0  0
  6  1  1  0  0  0  0
  6  7  2  0  0  0  0
  9  4  1  0  0  0  0
 10  3  1  0  0  0  0
 10 11  1  0  0  0  0
 12 10  1  0  0  0  0
 13 10  1  0  0  0  0
 14 23  1  0  0  0  0
 15 14  1  0  0  0  0
 15  1  1  0  0  0  0
 16 15  2  0  0  0  0
 17 16  1  0  0  0  0
 18 20  2  0  0  0  0
 18 16  1  0  0  0  0
 19 18  1  0  0  0  0
 20 21  1  0  0  0  0
 21 14  2  0  0  0  0
 23 25  2  0  0  0  0
 23 22  1  0  0  0  0
 24 23  2  0  0  0  0
M  END
>  <minimizedAffinity>
-4.8848772

$$$$

 OpenBabel03252505503D

 25 26  0  0  0  0  0  0  0  0999 V2000
   37.6780   30.4380   41.7830 O   0  0  0  0  0  0  0  0  0  0  0  0
   37.3390   27.0560   42.9070 C   0  0  0  0  0  0  0  0  0  0  0  0
   37.5230   26.3100   41.7560 C   0  0  0  0  0  0  0  0  0  0  0  0
   37.7700   27.0130   40.5660 C   0  0  0  0  0  0  0  0  0  0  0  0
   37.8170   28.3570   40.5970 N   0  0  0  0  0  0  0  0  0  0  0  0
   37.6350   29.0500   41.7310 C   0  0  0  0  0  0  0  0  0  0  0  0
   37.3960   28.4200   42.8860 N   0  0  0  0  0  0  0  0  0  0  0  0
   37.1440   26.5620   43.8570 H   0  0  0  0  0  0  0  0  0  0  0  0
   37.9110   26.4190   39.6790 H   0  0  0  0  0  0  0  0  0  0  0  0
   37.4400   24.8340   41.8740 C   0  0  0  0  0  0  0  0  0  0  0  0
   38.5850   24.4430   42.5360 F   0  0  0  0  0  0  0  0  0  0  0  0
   37.3810   24.3020   40.6140 F   0  0  0  0  0  0  0  0  0  0  0  0
   36.2870   24.5320   42.5990 F   0  0  0  0  0  0  0  0  0  0  0  0
   38.8530   32.1480   40.4500 C   0  0  0  0  0  0  0  0  0  0  0  0
   38.7750   31.1680   41.4070 C   0  0  0  0  0  0  0  0  0  0  0  0
   39.9670   30.8880   42.0770 C   0  0  0  0  0  0  0  0  0  0  0  0
   40.0500   30.1430   42.8500 H   0  0  0  0  0  0  0  0  0  0  0  0
   41.1360   31.5510   41.7900 C   0  0  0  0  0  0  0  0  0  0  0  0
   42.0640   31.3400   42.3030 H   0  0  0  0  0  0  0  0  0  0  0  0
   41.2010   32.5370   40.8200 C   0  0  0  0  0  3  0  0  0  0  0  0
   40.0180   32.8220   40.1510 C   0  0  0  0  0  3  0  0  0  0  0  0
   36.2760   31.9650   40.0890 H   0  0  0  0  0  0  0  0  0  0  0  0
   37.3930   32.5470   39.5920 S   0  0  0  0  0  0  0  0  0  0  0  0
   37.2310   34.0600   39.5560 O   0  0  0  0  0  0  0  0  0  0  0  0
   37.5200   32.0750   38.1470 O   0  0  0  0  0  0  0  0  0  0  0  0
  2  8  1  0  0  0  0
  3 10  1  0  0  0  0
  3  2  2  0  0  0  0
  4  5  2  0  0  0  0
  4  3  1  0  0  0  0
  5  6  1  0  0  0  0
  6  1  1  0  0  0  0
  6  7  2  0  0  0  0
  7  2  1  0  0  0  0
  9  4  1  0  0  0  0
 10 11  1  0  0  0  0
 10 13  1  0  0  0  0
 12 10  1  0  0  0  0
 14 15  1  0  0  0  0
 15  1  1  0  0  0  0
 15 16  2  0  0  0  0
 16 17  1  0  0  0  0
 18 16  1  0  0  0  0
 18 19  1  0  0  0  0
 20 18  2  0  0  0  0
 21 14  2  0  0  0  0
 21 20  1  0  0  0  0
 23 22  1  0  0  0  0
 23 14  1  0  0  0  0
 24 23  2  0  0  0  0
 25 23  2  0  0  0  0
M  END
>  <minimizedAffinity>
-4.81642199

$$$$

 OpenBabel03252505503D

 25 26  0  0  0  0  0  0  0  0999 V2000
   36.3460   29.9660   41.4230 O   0  0  0  0  0  0  0  0  0  0  0  0
   34.2210   28.9640   38.7220 C   0  0  0  0  0  0  0  0  0  0  0  0
   34.9800   29.2280   37.5960 C   0  0  0  0  0  0  0  0  0  0  0  0
   36.2610   29.7680   37.7940 C   0  0  0  0  0  0  0  0  0  0  0  0
   36.6870   30.0000   39.0490 N   0  0  0  0  0  0  0  0  0  0  0  0
   35.9250   29.7310   40.1200 C   0  0  0  0  0  0  0  0  0  0  0  0
   34.6990   29.2170   39.9750 N   0  0  0  0  0  0  0  0  0  0  0  0
   33.2210   28.5450   38.6260 H   0  0  0  0  0  0  0  0  0  0  0  0
   36.8390   29.9680   36.9080 H   0  0  0  0  0  0  0  0  0  0  0  0
   34.3780   28.9230   36.2750 C   0  0  0  0  0  0  0  0  0  0  0  0
   33.0740   29.3670   36.3440 F   0  0  0  0  0  0  0  0  0  0  0  0
   34.4380   27.5710   36.0730 F   0  0  0  0  0  0  0  0  0  0  0  0
   35.1120   29.6080   35.3070 F   0  0  0  0  0  0  0  0  0  0  0  0
   38.5240   29.3190   42.3830 C   0  0  0  0  0  0  0  0  0  0  0  0
   37.1960   29.1290   42.0980 C   0  0  0  0  0  0  0  0  0  0  0  0
   36.6500   27.9290   42.5580 C   0  0  0  0  0  0  0  0  0  0  0  0
   35.6210   27.6490   42.4050 H   0  0  0  0  0  0  0  0  0  0  0  0
   37.4000   27.0060   43.2470 C   0  0  0  0  0  0  0  0  0  0  0  0
   36.9860   26.0740   43.6060 H   0  0  0  0  0  0  0  0  0  0  0  0
   38.7400   27.2100   43.5270 C   0  0  0  0  0  3  0  0  0  0  0  0
   39.2890   28.4020   43.0730 C   0  0  0  0  0  3  0  0  0  0  0  0
   38.4010   31.8540   41.7810 H   0  0  0  0  0  0  0  0  0  0  0  0
   39.2530   30.8040   41.8430 S   0  0  0  0  0  0  0  0  0  0  0  0
   40.4370   31.1360   42.7420 O   0  0  0  0  0  0  0  0  0  0  0  0
   39.8010   30.6060   40.4340 O   0  0  0  0  0  0  0  0  0  0  0  0
  1 15  1  0  0  0  0
  2  7  1  0  0  0  0
  3  4  1  0  0  0  0
  3  2  2  0  0  0  0
  4  5  2  0  0  0  0
  5  6  1  0  0  0  0
  6  1  1  0  0  0  0
  7  6  2  0  0  0  0
  8  2  1  0  0  0  0
  9  4  1  0  0  0  0
 10 11  1  0  0  0  0
 10  3  1  0  0  0  0
 12 10  1  0  0  0  0
 13 10  1  0  0  0  0
 14 21  1  0  0  0  0
 15 14  2  0  0  0  0
 15 16  1  0  0  0  0
 16 18  2  0  0  0  0
 17 16  1  0  0  0  0
 18 20  1  0  0  0  0
 18 19  1  0  0  0  0
 21 20  2  0  0  0  0
 22 23  1  0  0  0  0
 23 14  1  0  0  0  0
 23 24  2  0  0  0  0
 25 23  2  0  0  0  0
M  END
>  <minimizedAffinity>
-4.7987299

$$$$

 OpenBabel03252505503D

 25 26  0  0  0  0  0  0  0  0999 V2000
   35.7940   29.0650   40.2900 O   0  0  0  0  0  0  0  0  0  0  0  0
   37.9950   27.1160   42.3340 C   0  0  0  0  0  0  0  0  0  0  0  0
   37.9930   25.8750   41.7220 C   0  0  0  0  0  0  0  0  0  0  0  0
   37.2030   25.7250   40.5710 C   0  0  0  0  0  0  0  0  0  0  0  0
   36.4950   26.7770   40.1210 N   0  0  0  0  0  0  0  0  0  0  0  0
   36.5200   27.9670   40.7380 C   0  0  0  0  0  0  0  0  0  0  0  0
   37.2580   28.1530   41.8380 N   0  0  0  0  0  0  0  0  0  0  0  0
   38.5890   27.2870   43.2290 H   0  0  0  0  0  0  0  0  0  0  0  0
   37.2120   24.7540   40.1070 H   0  0  0  0  0  0  0  0  0  0  0  0
   38.8210   24.8070   42.3340 C   0  0  0  0  0  0  0  0  0  0  0  0
   39.2430   25.3060   43.5490 F   0  0  0  0  0  0  0  0  0  0  0  0
   39.8780   24.5490   41.5030 F   0  0  0  0  0  0  0  0  0  0  0  0
   38.0140   23.6790   42.4830 F   0  0  0  0  0  0  0  0  0  0  0  0
   36.7120   30.4820   38.4930 C   0  0  0  0  0  0  0  0  0  0  0  0
   36.3810   30.1990   39.7930 C   0  0  0  0  0  0  0  0  0  0  0  0
   36.6850   31.1980   40.7200 C   0  0  0  0  0  0  0  0  0  0  0  0
   36.4820   31.1100   41.7730 H   0  0  0  0  0  0  0  0  0  0  0  0
   37.2770   32.3810   40.3460 C   0  0  0  0  0  0  0  0  0  0  0  0
   37.5160   33.1600   41.0560 H   0  0  0  0  0  0  0  0  0  0  0  0
   37.6060   32.6540   39.0290 C   0  0  0  0  0  3  0  0  0  0  0  0
   37.3050   31.6640   38.1020 C   0  0  0  0  0  3  0  0  0  0  0  0
   36.8870   28.0600   37.5390 H   0  0  0  0  0  0  0  0  0  0  0  0
   36.3440   29.2760   37.2930 S   0  0  0  0  0  0  0  0  0  0  0  0
   34.8330   29.1610   37.1450 O   0  0  0  0  0  0  0  0  0  0  0  0
   36.8940   29.7310   35.9450 O   0  0  0  0  0  0  0  0  0  0  0  0
  1  6  1  0  0  0  0
  2  8  1  0  0  0  0
  3  2  2  0  0  0  0
  3 10  1  0  0  0  0
  4  3  1  0  0  0  0
  5  4  2  0  0  0  0
  5  6  1  0  0  0  0
  6  7  2  0  0  0  0
  7  2  1  0  0  0  0
  9  4  1  0  0  0  0
 10 13  1  0  0  0  0
 10 11  1  0  0  0  0
 12 10  1  0  0  0  0
 14 15  1  0  0  0  0
 15  1  1  0  0  0  0
 15 16  2  0  0  0  0
 16 17  1  0  0  0  0
 18 16  1  0  0  0  0
 18 19  1  0  0  0  0
 20 18  2  0  0  0  0
 21 14  2  0  0  0  0
 21 20  1  0  0  0  0
 23 22  1  0  0  0  0
 23 14  1  0  0  0  0
 24 23  2  0  0  0  0
 25 23  2  0  0  0  0
M  END
>  <minimizedAffinity>
-4.70801687

$$$$

 OpenBabel03252505503D

 25 26  0  0  0  0  0  0  0  0999 V2000
   37.2520   29.8260   41.2850 O   0  0  0  0  0  0  0  0  0  0  0  0
   37.1980   26.3840   42.2680 C   0  0  0  0  0  0  0  0  0  0  0  0
   38.5170   25.9880   42.1370 C   0  0  0  0  0  0  0  0  0  0  0  0
   39.4380   26.9500   41.6940 C   0  0  0  0  0  0  0  0  0  0  0  0
   39.0050   28.1950   41.4230 N   0  0  0  0  0  0  0  0  0  0  0  0
   37.7180   28.5470   41.5620 C   0  0  0  0  0  0  0  0  0  0  0  0
   36.8080   27.6600   41.9800 N   0  0  0  0  0  0  0  0  0  0  0  0
   36.4420   25.6780   42.6070 H   0  0  0  0  0  0  0  0  0  0  0  0
   40.4600   26.6260   41.5960 H   0  0  0  0  0  0  0  0  0  0  0  0
   38.8460   24.5800   42.4690 C   0  0  0  0  0  0  0  0  0  0  0  0
   39.5590   24.0950   41.3930 F   0  0  0  0  0  0  0  0  0  0  0  0
   37.6770   23.8920   42.6490 F   0  0  0  0  0  0  0  0  0  0  0  0
   39.6070   24.5890   43.6390 F   0  0  0  0  0  0  0  0  0  0  0  0
   38.2250   31.5310   39.7930 C   0  0  0  0  0  0  0  0  0  0  0  0
   37.4370   30.4460   40.0770 C   0  0  0  0  0  0  0  0  0  0  0  0
   36.7380   29.9130   38.9920 C   0  0  0  0  0  0  0  0  0  0  0  0
   36.0830   29.0620   39.0700 H   0  0  0  0  0  0  0  0  0  0  0  0
   36.8390   30.4460   37.7290 C   0  0  0  0  0  0  0  0  0  0  0  0
   36.3020   30.0400   36.8840 H   0  0  0  0  0  0  0  0  0  0  0  0
   37.6390   31.5430   37.4570 C   0  0  0  0  0  3  0  0  0  0  0  0
   38.3370   32.0780   38.5320 C   0  0  0  0  0  3  0  0  0  0  0  0
   38.4420   32.3190   42.2710 H   0  0  0  0  0  0  0  0  0  0  0  0
   39.1280   32.2300   41.1070 S   0  0  0  0  0  0  0  0  0  0  0  0
   40.4120   31.4370   41.3100 O   0  0  0  0  0  0  0  0  0  0  0  0
   39.5340   33.6520   40.7330 O   0  0  0  0  0  0  0  0  0  0  0  0
  1  6  1  0  0  0  0
  2  8  1  0  0  0  0
  3  2  1  0  0  0  0
  3 10  1  0  0  0  0
  4  3  2  0  0  0  0
  5  6  2  0  0  0  0
  5  4  1  0  0  0  0
  6  7  1  0  0  0  0
  7  2  2  0  0  0  0
  9  4  1  0  0  0  0
 10 12  1  0  0  0  0
 10 13  1  0  0  0  0
 11 10  1  0  0  0  0
 14 15  1  0  0  0  0
 14 23  1  0  0  0  0
 15  1  1  0  0  0  0
 16 17  1  0  0  0  0
 16 15  2  0  0  0  0
 18 16  1  0  0  0  0
 19 18  1  0  0  0  0
 20 18  2  0  0  0  0
 20 21  1  0  0  0  0
 21 14  2  0  0  0  0
 23 24  2  0  0  0  0
 23 22  1  0  0  0  0
 25 23  2  0  0  0  0
M  END
>  <minimizedAffinity>
-4.70787096

$$$$

 OpenBabel03252505503D

 25 26  0  0  0  0  0  0  0  0999 V2000
   36.8460   29.6690   41.9780 O   0  0  0  0  0  0  0  0  0  0  0  0
   36.6990   26.5980   40.1450 C   0  0  0  0  0  0  0  0  0  0  0  0
   36.9520   25.6340   41.1040 C   0  0  0  0  0  0  0  0  0  0  0  0
   37.1790   26.0760   42.4180 C   0  0  0  0  0  0  0  0  0  0  0  0
   37.1390   27.3940   42.6800 N   0  0  0  0  0  0  0  0  0  0  0  0
   36.8890   28.3030   41.7260 C   0  0  0  0  0  0  0  0  0  0  0  0
   36.6690   27.9250   40.4620 N   0  0  0  0  0  0  0  0  0  0  0  0
   36.5160   26.3110   39.1110 H   0  0  0  0  0  0  0  0  0  0  0  0
   37.3750   25.3140   43.1520 H   0  0  0  0  0  0  0  0  0  0  0  0
   36.9680   24.2170   40.6660 C   0  0  0  0  0  0  0  0  0  0  0  0
   37.6870   24.1940   39.4890 F   0  0  0  0  0  0  0  0  0  0  0  0
   35.6760   23.8080   40.4730 F   0  0  0  0  0  0  0  0  0  0  0  0
   37.5850   23.4700   41.6700 F   0  0  0  0  0  0  0  0  0  0  0  0
   38.7300   31.0440   41.1770 C   0  0  0  0  0  0  0  0  0  0  0  0
   37.4320   30.6010   41.1620 C   0  0  0  0  0  0  0  0  0  0  0  0
   36.6140   31.1760   40.1880 C   0  0  0  0  0  0  0  0  0  0  0  0
   35.5750   30.9230   40.0630 H   0  0  0  0  0  0  0  0  0  0  0  0
   37.0840   32.1230   39.3100 C   0  0  0  0  0  0  0  0  0  0  0  0
   36.4580   32.5750   38.5530 H   0  0  0  0  0  0  0  0  0  0  0  0
   38.3970   32.5620   39.3370 C   0  0  0  0  0  3  0  0  0  0  0  0
   39.2170   31.9920   40.3020 C   0  0  0  0  0  3  0  0  0  0  0  0
   39.2190   30.1080   43.5620 H   0  0  0  0  0  0  0  0  0  0  0  0
   39.7990   30.3500   42.3630 S   0  0  0  0  0  0  0  0  0  0  0  0
   40.4080   29.0720   41.8020 O   0  0  0  0  0  0  0  0  0  0  0  0
   40.9480   31.3180   42.6240 O   0  0  0  0  0  0  0  0  0  0  0  0
  2  7  2  0  0  0  0
  2  3  1  0  0  0  0
  3  4  2  0  0  0  0
  4  5  1  0  0  0  0
  4  9  1  0  0  0  0
  6  1  1  0  0  0  0
  6  5  2  0  0  0  0
  7  6  1  0  0  0  0
  8  2  1  0  0  0  0
 10  3  1  0  0  0  0
 10 13  1  0  0  0  0
 11 10  1  0  0  0  0
 12 10  1  0  0  0  0
 14 23  1  0  0  0  0
 15 14  1  0  0  0  0
 15  1  1  0  0  0  0
 16 15  2  0  0  0  0
 17 16  1  0  0  0  0
 18 20  2  0  0  0  0
 18 16  1  0  0  0  0
 19 18  1  0  0  0  0
 20 21  1  0  0  0  0
 21 14  2  0  0  0  0
 23 25  2  0  0  0  0
 23 22  1  0  0  0  0
 24 23  2  0  0  0  0
M  END
>  <minimizedAffinity>
-4.6855793

$$$$

 OpenBabel03252505503D

 25 26  0  0  0  0  0  0  0  0999 V2000
   37.1020   30.6370   41.1020 O   0  0  0  0  0  0  0  0  0  0  0  0
   40.3540   31.3620   39.7910 C   0  0  0  0  0  0  0  0  0  0  0  0
   40.4190   32.7430   39.8280 C   0  0  0  0  0  0  0  0  0  0  0  0
   39.2970   33.4290   40.3220 C   0  0  0  0  0  0  0  0  0  0  0  0
   38.2280   32.7230   40.7320 N   0  0  0  0  0  0  0  0  0  0  0  0
   38.1980   31.3830   40.6850 C   0  0  0  0  0  0  0  0  0  0  0  0
   39.2440   30.6920   40.2200 N   0  0  0  0  0  0  0  0  0  0  0  0
   41.1950   30.7810   39.4180 H   0  0  0  0  0  0  0  0  0  0  0  0
   39.3630   34.5030   40.3430 H   0  0  0  0  0  0  0  0  0  0  0  0
   41.6630   33.3850   39.3390 C   0  0  0  0  0  0  0  0  0  0  0  0
   42.5160   32.3520   39.0110 F   0  0  0  0  0  0  0  0  0  0  0  0
   42.1750   34.1600   40.3440 F   0  0  0  0  0  0  0  0  0  0  0  0
   41.3300   34.1610   38.2280 F   0  0  0  0  0  0  0  0  0  0  0  0
   36.7780   28.1930   41.1250 C   0  0  0  0  0  0  0  0  0  0  0  0
   37.2120   29.3840   41.6460 C   0  0  0  0  0  0  0  0  0  0  0  0
   37.8440   29.3000   42.8880 C   0  0  0  0  0  0  0  0  0  0  0  0
   38.2330   30.1560   43.4140 H   0  0  0  0  0  0  0  0  0  0  0  0
   38.0140   28.1010   43.5380 C   0  0  0  0  0  0  0  0  0  0  0  0
   38.5020   28.0260   44.4990 H   0  0  0  0  0  0  0  0  0  0  0  0
   37.5700   26.9050   43.0000 C   0  0  0  0  0  3  0  0  0  0  0  0
   36.9420   26.9820   41.7640 C   0  0  0  0  0  3  0  0  0  0  0  0
   35.6160   27.0250   39.1020 H   0  0  0  0  0  0  0  0  0  0  0  0
   35.9930   28.2370   39.5710 S   0  0  0  0  0  0  0  0  0  0  0  0
   34.7940   29.1730   39.6430 O   0  0  0  0  0  0  0  0  0  0  0  0
   36.9570   28.8200   38.5430 O   0  0  0  0  0  0  0  0  0  0  0  0
  1 15  1  0  0  0  0
  2  3  2  0  0  0  0
  2  7  1  0  0  0  0
  3  4  1  0  0  0  0
  4  9  1  0  0  0  0
  4  5  2  0  0  0  0
  6  5  1  0  0  0  0
  6  1  1  0  0  0  0
  7  6  2  0  0  0  0
  8  2  1  0  0  0  0
 10  3  1  0  0  0  0
 10 12  1  0  0  0  0
 11 10  1  0  0  0  0
 13 10  1  0  0  0  0
 14 15  2  0  0  0  0
 14 21  1  0  0  0  0
 15 16  1  0  0  0  0
 16 17  1  0  0  0  0
 16 18  2  0  0  0  0
 18 19  1  0  0  0  0
 20 18  1  0  0  0  0
 21 20  2  0  0  0  0
 22 23  1  0  0  0  0
 23 24  2  0  0  0  0
 23 14  1  0  0  0  0
 25 23  2  0  0  0  0
M  END
>  <minimizedAffinity>
-4.63955116

$$$$
