
     RDKit          3D

 42 45  0  0  0  0  0  0  0  0999 V2000
   46.0473   32.7137   46.6985 C   0  0  0  0  0  0  0  0  0  0  0  0
   45.5464   32.9431   48.0077 C   0  0  0  0  0  0  0  0  0  0  0  0
   45.7439   32.0856   49.0617 C   0  0  0  0  0  0  0  0  0  0  0  0
   46.4465   30.9500   48.8918 C   0  0  0  0  0  0  0  0  0  0  0  0
   46.9637   30.6681   47.6300 C   0  0  0  0  0  0  0  0  0  0  0  0
   47.6674   29.5093   47.4969 C   0  0  0  0  0  0  0  0  0  0  0  0
   48.2039   29.1665   46.2805 C   0  0  0  0  0  0  0  0  0  0  0  0
   47.9856   30.0539   45.2309 C   0  0  0  0  0  0  0  0  0  0  0  0
   47.2772   31.1792   45.4480 C   0  0  0  0  0  0  0  0  0  0  0  0
   46.7419   31.5530   46.6036 C   0  0  0  0  0  0  0  0  0  0  0  0
   44.4801   35.5301   45.1130 C   0  0  0  0  0  0  0  0  0  0  0  0
   45.1593   35.6047   43.8576 C   0  0  0  0  0  0  0  0  0  0  0  0
   46.1773   34.6584   43.5526 C   0  0  0  0  0  0  0  0  0  0  0  0
   46.4284   33.7430   44.4943 N   0  0  0  0  0  0  0  0  0  0  0  0
   45.8307   33.6538   45.6344 C   0  0  0  0  0  0  0  0  0  0  0  0
   44.8536   34.5617   45.9270 N   0  0  0  0  0  0  0  0  0  0  0  0
   44.7427   36.6553   42.9989 N   0  0  0  0  0  0  0  0  0  0  0  0
   47.2273   31.8317   44.2486 O   0  0  0  0  0  0  0  0  0  0  0  0
   44.9745   33.8395   48.2040 H   0  0  0  0  0  0  0  0  0  0  0  0
   45.3319   32.3271   50.0301 H   0  0  0  0  0  0  0  0  0  0  0  0
   46.5836   30.2987   49.7405 H   0  0  0  0  0  0  0  0  0  0  0  0
   47.8031   28.8466   48.3768 H   0  0  0  0  0  0  0  0  0  0  0  0
   48.7561   28.2094   46.2770 H   0  0  0  0  0  0  0  0  0  0  0  0
   48.4944   29.6229   44.3630 H   0  0  0  0  0  0  0  0  0  0  0  0
   43.7087   36.2540   45.3334 H   0  0  0  0  0  0  0  0  0  0  0  0
   46.6496   34.7662   42.5959 H   0  0  0  0  0  0  0  0  0  0  0  0
   44.3288   36.4523   42.0516 H   0  0  0  0  0  0  0  0  0  0  0  0
   44.8203   37.6799   43.2511 H   0  0  0  0  0  0  0  0  0  0  0  0
   50.8036   32.9657   43.8279 H   0  0  0  0  0  0  0  0  0  0  0  0
   50.2731   31.7226   44.0506 S   0  0  0  0  0  0  0  0  0  0  0  0
   49.7312   31.5697   45.4462 O   0  0  0  0  0  0  0  0  0  0  0  0
   51.4365   30.7601   43.9569 O   0  0  0  0  0  0  0  0  0  0  0  0
   49.1051   31.2800   42.8252 C   0  0  0  0  0  0  0  0  0  0  0  0
   47.7215   31.3620   43.0269 C   0  0  0  0  0  0  0  0  0  0  0  0
   46.9154   30.9576   41.9758 C   0  0  0  0  0  0  0  0  0  0  0  0
   45.8445   31.0119   42.1100 H   0  0  0  0  0  0  0  0  0  0  0  0
   47.4257   30.4960   40.7847 C   0  0  0  0  0  0  0  0  0  0  0  0
   46.7734   30.1871   39.9819 H   0  0  0  0  0  0  0  0  0  0  0  0
   48.7883   30.4271   40.6145 C   0  0  0  0  0  0  0  0  0  0  0  0
   49.6401   30.8135   41.6205 C   0  0  0  0  0  0  0  0  0  0  0  0
   49.2048   30.0685   39.6888 H   0  0  0  0  0  0  0  0  0  0  0  0
   50.7080   30.7513   41.4660 H   0  0  0  0  0  0  0  0  0  0  0  0
  1  2  2  0
  2  3  1  0
  4  3  2  0
  5  4  1  0
  6  5  2  0
  7  6  1  0
  8  9  1  0
  8  7  2  0
  9 10  2  0
 10  1  1  0
 10  5  1  0
 11 16  2  0
 12 11  1  0
 13 12  2  0
 13 14  1  0
 14 15  2  0
 15 16  1  0
 15  1  1  0
 17 12  1  0
 18  9  1  0
  2 19  1  0
  3 20  1  0
  4 21  1  0
  6 22  1  0
  7 23  1  0
  8 24  1  0
 11 25  1  0
 13 26  1  0
 17 27  1  0
 17 28  1  0
 29 30  1  0
 30 31  2  0
 30 32  2  0
 30 33  1  0
 33 34  2  0
 34 35  1  0
 35 36  1  0
 35 37  2  0
 37 38  1  0
 37 39  1  0
 39 40  2  0
 40 33  1  0
 39 41  1  0
 40 42  1  0
 18 34  1  0
M  ISO  8  19  14  20  14  21  14  22  14  23  14  24  14  25  14  26  14
M  ISO  3  29  12  36  15  38  16
M  END
>  <DihAtoms>  (1) 
8,17,33,32

>  <DihDeg>  (1) 
64.26870339755087

$$$$
