REMARK  Name = 
REMARK  8 active torsions:
REMARK  status: ('A' for Active; 'I' for Inactive)
REMARK    1  A    between atoms: C_1  and  C_6
REMARK    2  A    between atoms: C_3  and  O_10
REMARK    3  A    between atoms: O_10  and  P_12
REMARK    4  A    between atoms: P_12  and  O_13
REMARK    5  A    between atoms: P_12  and  O_14
REMARK    6  A    between atoms: O_14  and  C_15
REMARK    7  A    between atoms: C_19  and  C_37
REMARK    8  A    between atoms: S_33  and  C_36
REMARK                            x       y       z     vdW  Elec       q    Type
REMARK                         _______ _______ _______ _____ _____    ______ ____
ROOT
ATOM      1  O   UNL     1      46.738  34.071  37.276  0.00  0.00    +0.000 OA
ENDROOT
BRANCH   1   2
ATOM      2  C   UNL     1      45.782  33.084  37.033  0.00  0.00    +0.000 A 
ATOM      3  C   UNL     1      45.672  32.285  35.910  0.00  0.00    +0.000 A 
ATOM      4  C   UNL     1      44.666  31.350  35.819  0.00  0.00    +0.000 A 
ATOM      5  C   UNL     1      43.767  31.205  36.841  0.00  0.00    +0.000 A 
ATOM      6  C   UNL     1      43.909  32.029  37.959  0.00  0.00    +0.000 A 
ATOM      7  N   UNL     1      44.908  32.945  38.030  0.00  0.00    +0.000 NA
ATOM      8  H   UNL     1      46.432  32.482  35.167  0.00  0.00    +0.000 HD
ATOM      9  H   UNL     1      44.686  30.791  34.901  0.00  0.00    +0.000 HD
ATOM     10  H   UNL     1      43.034  30.466  36.617  0.00  0.00    +0.000 HD
BRANCH   6  12
ATOM     11  C   UNL     1      42.084  32.933  39.495  0.00  0.00    +0.000 A 
ATOM     12  C   UNL     1      42.934  31.973  39.027  0.00  0.00    +0.000 A 
ATOM     13  C   UNL     1      42.795  30.764  39.678  0.00  0.00    +0.000 A 
ATOM     14  H   UNL     1      43.408  29.902  39.408  0.00  0.00    +0.000 HD
ATOM     15  C   UNL     1      41.913  30.514  40.691  0.00  0.00    +0.000 A 
ATOM     16  H   UNL     1      41.806  29.566  41.210  0.00  0.00    +0.000 HD
ATOM     17  C   UNL     1      41.081  31.503  41.132  0.00  0.00    +0.000 A 
ATOM     18  C   UNL     1      41.180  32.730  40.513  0.00  0.00    +0.000 A 
BRANCH  11  20
ATOM     19  H   UNL     1      42.367  34.537  37.458  0.00  0.00    +0.000 HD
ATOM     20  S   UNL     1      42.013  34.513  38.762  0.00  0.00    +0.000 S 
ATOM     21  O   UNL     1      42.732  35.567  39.525  0.00  0.00    +0.000 OA
ATOM     22  O   UNL     1      40.539  34.994  38.760  0.00  0.00    +0.000 OA
ENDBRANCH  11  20
ENDBRANCH   6  12
ENDBRANCH   1   2
BRANCH   1  24
ATOM     23  O   UNL     1      48.515  32.403  37.986  0.00  0.00    +0.000 OA
ATOM     24  P   UNL     1      48.099  33.854  38.233  0.00  0.00    +0.000 P 
BRANCH  24  25
ATOM     25  O   UNL     1      49.335  34.798  37.578  0.00  0.00    +0.000 OA
ATOM     26  H   UNL     1      49.801  34.336  36.831  0.00  0.00    +0.000 HD
ENDBRANCH  24  25
BRANCH  24  27
ATOM     27  O   UNL     1      47.763  34.140  39.810  0.00  0.00    +0.000 OA
BRANCH  27  30
ATOM     28  C   UNL     1      48.078  35.472  41.804  0.00  0.00    +0.000 C 
ATOM     29  C   UNL     1      49.319  34.695  41.691  0.00  0.00    +0.000 C 
ATOM     30  C   UNL     1      48.481  35.086  40.457  0.00  0.00    +0.000 C 
ATOM     31  H   UNL     1      48.154  36.523  42.159  0.00  0.00    +0.000 HD
ATOM     32  H   UNL     1      50.311  35.170  41.817  0.00  0.00    +0.000 HD
ATOM     33  H   UNL     1      49.336  33.589  41.831  0.00  0.00    +0.000 HD
ATOM     34  H   UNL     1      49.021  35.809  39.816  0.00  0.00    +0.000 HD
BRANCH  28  37
ATOM     35  C   UNL     1      46.050  32.935  43.753  0.00  0.00    +0.000 A 
ATOM     36  C   UNL     1      47.149  33.612  43.231  0.00  0.00    +0.000 A 
ATOM     37  C   UNL     1      46.918  34.723  42.396  0.00  0.00    +0.000 A 
ATOM     38  N   UNL     1      45.634  35.100  42.124  0.00  0.00    +0.000 NA
ATOM     39  C   UNL     1      44.591  34.407  42.658  0.00  0.00    +0.000 A 
ATOM     40  N   UNL     1      44.795  33.338  43.462  0.00  0.00    +0.000 NA
ATOM     41  H   UNL     1      46.168  32.085  44.393  0.00  0.00    +0.000 HD
ATOM     42  H   UNL     1      48.150  33.291  43.463  0.00  0.00    +0.000 HD
ATOM     43  H   UNL     1      43.689  34.879  42.318  0.00  0.00    +0.000 HD
ENDBRANCH  28  37
ENDBRANCH  27  30
ENDBRANCH  24  27
ENDBRANCH   1  24
TORSDOF 8
