
 OpenBabel03242519503D

 53 56  0  0  1  0  0  0  0  0999 V2000
   37.3290   33.1290   39.8670 C   0  0  0  0  0  0  0  0  0  0  0  0
   36.7430   33.1080   40.7730 H   0  0  0  0  0  0  0  0  0  0  0  0
   36.9010   33.9040   39.1890 H   0  0  0  0  0  0  0  0  0  0  0  0
   37.2870   30.6950   39.9530 C   0  0  0  0  0  0  0  0  0  0  0  0
   37.2950   31.8460   39.1560 C   0  0  0  0  0  0  0  0  0  0  0  0
   37.2900   31.5840   37.8040 C   0  0  0  0  0  0  0  0  0  0  0  0
   37.2800   30.3590   37.2300 C   0  0  0  0  0  0  0  0  0  0  0  0
   37.2740   29.2300   38.0530 C   0  0  0  0  0  0  0  0  0  0  0  0
   37.2780   29.3960   39.4680 C   0  0  0  0  0  0  0  0  0  0  0  0
   37.2950   32.4780   37.2130 H   0  0  0  0  0  0  0  0  0  0  0  0
   37.2770   30.2820   36.1510 H   0  0  0  0  0  0  0  0  0  0  0  0
   37.2650   28.3040   37.5370 H   0  0  0  0  0  0  0  0  0  0  0  0
   37.2870   30.6570   41.3310 O   0  0  0  0  0  0  0  0  0  0  0  0
   37.8730   31.2750   41.8640 H   0  0  0  0  0  0  0  0  0  0  0  0
   37.2720   28.2680   40.1150 O   0  0  0  0  0  0  0  0  0  0  0  0
   37.6420   26.6960   41.9450 C   0  0  0  0  0  0  0  0  0  0  0  0
   37.2660   27.1860   40.7340 C   0  0  0  0  0  0  0  0  0  0  0  0
   36.6850   26.2430   39.8560 C   0  0  0  0  0  0  0  0  0  0  0  0
   36.2880   26.3380   38.8220 H   0  0  0  0  0  0  0  0  0  0  0  0
   36.4790   24.8790   40.1440 C   0  0  0  0  0  0  0  0  0  0  0  0
   36.0530   24.0780   39.5600 H   0  0  0  0  0  0  0  0  0  0  0  0
   36.8880   24.4610   41.3960 C   0  0  0  0  0  3  0  0  0  0  0  0
   37.4530   25.3790   42.2480 C   0  0  0  0  0  3  0  0  0  0  0  0
   38.7070   27.0560   44.1760 H   0  0  0  0  0  0  0  0  0  0  0  0
   38.3610   27.8260   43.0560 S   0  0  0  0  0  0  0  0  0  0  0  0
   39.6050   28.4480   42.5410 O   0  0  0  0  0  0  0  0  0  0  0  0
   37.3550   28.8050   43.6070 O   0  0  0  0  0  0  0  0  0  0  0  0
   38.7860   33.5350   40.1190 C   0  0  0  0  0  0  0  0  0  0  0  0
   39.1540   33.7430   41.0760 H   0  0  0  0  0  0  0  0  0  0  0  0
   38.7040   34.7330   39.7730 H   0  0  0  0  0  0  0  0  0  0  0  0
   39.6160   33.1400   39.1500 O   0  0  0  0  0  0  0  0  0  0  0  0
   41.5110   33.1850   37.7080 C   0  0  2  0  0  0  0  0  0  0  0  0
   42.4510   32.1550   38.1470 C   0  0  1  0  0  0  0  0  0  0  0  0
   41.8300   31.6490   39.3990 O   0  0  0  0  0  0  0  0  0  0  0  0
   41.7410   32.8760   40.0470 C   0  0  0  0  0  0  0  0  0  0  0  0
   40.8290   33.6630   38.9450 C   0  0  2  0  0  0  0  0  0  0  0  0
   41.9510   34.0120   37.1270 H   0  0  0  0  0  0  0  0  0  0  0  0
   43.4030   32.5790   38.5430 H   0  0  0  0  0  0  0  0  0  0  0  0
   41.1500   32.8120   40.9560 H   0  0  0  0  0  0  0  0  0  0  0  0
   42.6940   33.3980   40.0970 H   0  0  0  0  0  0  0  0  0  0  0  0
   41.0470   34.6730   39.3360 H   0  0  0  0  0  0  0  0  0  0  0  0
   43.9880   30.1620   35.5060 C   0  0  0  0  0  0  0  0  0  0  0  0
   43.2690   28.9720   35.5230 C   0  0  0  0  0  0  0  0  0  0  0  0
   42.2230   28.8380   36.4470 C   0  0  0  0  0  0  0  0  0  0  0  0
   41.9540   29.8650   37.2830 N   0  0  0  0  0  0  0  0  0  0  0  0
   42.6610   31.0140   37.2550 C   0  0  0  0  0  0  0  0  0  0  0  0
   43.6850   31.1750   36.3660 N   0  0  0  0  0  0  0  0  0  0  0  0
   43.5090   28.1610   34.8370 H   0  0  0  0  0  0  0  0  0  0  0  0
   41.6330   27.9420   36.5060 H   0  0  0  0  0  0  0  0  0  0  0  0
   45.0440   30.3580   34.6040 O   0  0  0  0  0  0  0  0  0  0  0  0
   45.9630   30.1250   35.0000 H   0  0  0  0  0  0  0  0  0  0  0  0
   40.4910   32.5530   36.8820 O   0  0  0  0  0  0  0  0  0  0  0  0
   39.5980   32.8110   37.2220 H   0  0  0  0  0  0  0  0  0  0  0  0
  1 28  1  0  0  0  0
  1  2  1  0  0  0  0
  3  1  1  0  0  0  0
  4 13  1  0  0  0  0
  5  1  1  0  0  0  0
  5  4  2  0  0  0  0
  6  5  1  0  0  0  0
  7  6  2  0  0  0  0
  7  8  1  0  0  0  0
  8  9  2  0  0  0  0
  9  4  1  0  0  0  0
  9 15  1  0  0  0  0
 10  6  1  0  0  0  0
 11  7  1  0  0  0  0
 12  8  1  0  0  0  0
 13 14  1  0  0  0  0
 15 17  1  0  0  0  0
 16 23  1  0  0  0  0
 16 25  1  0  0  0  0
 17 16  2  0  0  0  0
 18 20  2  0  0  0  0
 18 17  1  0  0  0  0
 19 18  1  0  0  0  0
 20 22  1  0  0  0  0
 21 20  1  0  0  0  0
 22 23  2  0  0  0  0
 25 27  2  0  0  0  0
 25 24  1  0  0  0  0
 26 25  2  0  0  0  0
 28 29  1  0  0  0  0
 30 28  1  0  0  0  0
 31 28  1  0  0  0  0
 32 37  1  6  0  0  0
 32 33  1  0  0  0  0
 32 36  1  0  0  0  0
 33 38  1  1  0  0  0
 33 34  1  0  0  0  0
 34 35  1  0  0  0  0
 35 40  1  0  0  0  0
 35 39  1  0  0  0  0
 36 31  1  0  0  0  0
 36 41  1  1  0  0  0
 36 35  1  0  0  0  0
 42 43  2  0  0  0  0
 42 47  1  0  0  0  0
 43 44  1  0  0  0  0
 44 49  1  0  0  0  0
 44 45  2  0  0  0  0
 46 45  1  0  0  0  0
 46 33  1  0  0  0  0
 47 46  2  0  0  0  0
 48 43  1  0  0  0  0
 50 51  1  0  0  0  0
 50 42  1  0  0  0  0
 52 53  1  0  0  0  0
 52 32  1  0  0  0  0
M  END
>  <minimizedAffinity>
-6.81592035

$$$$

 OpenBabel03242519503D

 53 56  0  0  1  0  0  0  0  0999 V2000
   37.5780   31.1030   37.8150 C   0  0  0  0  0  0  0  0  0  0  0  0
   38.4010   30.5940   37.3370 H   0  0  0  0  0  0  0  0  0  0  0  0
   36.8940   31.4880   37.0230 H   0  0  0  0  0  0  0  0  0  0  0  0
   39.4030   32.3510   38.8350 C   0  0  0  0  0  0  0  0  0  0  0  0
   38.0250   32.2480   38.6160 C   0  0  0  0  0  0  0  0  0  0  0  0
   37.2920   33.2480   39.2150 C   0  0  0  0  0  0  0  0  0  0  0  0
   37.7880   34.2620   39.9610 C   0  0  0  0  0  0  0  0  0  0  0  0
   39.1680   34.3360   40.1620 C   0  0  0  0  0  0  0  0  0  0  0  0
   40.0140   33.3470   39.5810 C   0  0  0  0  0  0  0  0  0  0  0  0
   36.2400   33.1500   39.0330 H   0  0  0  0  0  0  0  0  0  0  0  0
   37.1070   34.9900   40.3810 H   0  0  0  0  0  0  0  0  0  0  0  0
   39.4870   35.1550   40.7540 H   0  0  0  0  0  0  0  0  0  0  0  0
   40.3720   31.4960   38.3550 O   0  0  0  0  0  0  0  0  0  0  0  0
   40.2340   30.5000   38.3670 H   0  0  0  0  0  0  0  0  0  0  0  0
   41.2740   33.5330   39.8460 O   0  0  0  0  0  0  0  0  0  0  0  0
   43.6720   33.7430   39.4430 C   0  0  0  0  0  0  0  0  0  0  0  0
   42.4810   33.7100   40.0990 C   0  0  0  0  0  0  0  0  0  0  0  0
   42.5540   33.9350   41.4930 C   0  0  0  0  0  0  0  0  0  0  0  0
   41.7710   33.9680   42.2810 H   0  0  0  0  0  0  0  0  0  0  0  0
   43.7370   34.1820   42.2180 C   0  0  0  0  0  0  0  0  0  0  0  0
   43.9110   34.3630   43.2680 H   0  0  0  0  0  0  0  0  0  0  0  0
   44.9030   34.1990   41.4790 C   0  0  0  0  0  3  0  0  0  0  0  0
   44.8310   33.9800   40.1240 C   0  0  0  0  0  3  0  0  0  0  0  0
   42.9160   34.5660   37.2090 H   0  0  0  0  0  0  0  0  0  0  0  0
   43.6250   33.4710   37.7250 S   0  0  0  0  0  0  0  0  0  0  0  0
   44.9670   33.4700   37.0930 O   0  0  0  0  0  0  0  0  0  0  0  0
   42.7590   32.2940   37.3570 O   0  0  0  0  0  0  0  0  0  0  0  0
   36.7370   30.1650   38.6890 C   0  0  0  0  0  0  0  0  0  0  0  0
   35.9290   29.6180   38.3110 H   0  0  0  0  0  0  0  0  0  0  0  0
   36.0290   31.0270   39.2530 H   0  0  0  0  0  0  0  0  0  0  0  0
   37.3840   29.7450   39.7800 O   0  0  0  0  0  0  0  0  0  0  0  0
   37.7650   29.2470   42.0780 C   0  0  2  0  0  0  0  0  0  0  0  0
   37.1670   27.9460   42.3750 C   0  0  1  0  0  0  0  0  0  0  0  0
   36.4660   27.6050   41.1090 O   0  0  0  0  0  0  0  0  0  0  0  0
   35.6940   28.7590   41.0310 C   0  0  0  0  0  0  0  0  0  0  0  0
   36.9040   29.8560   41.0230 C   0  0  2  0  0  0  0  0  0  0  0  0
   37.9000   29.9160   42.9440 H   0  0  0  0  0  0  0  0  0  0  0  0
   36.3050   28.0170   43.0780 H   0  0  0  0  0  0  0  0  0  0  0  0
   35.1870   28.8440   40.0750 H   0  0  0  0  0  0  0  0  0  0  0  0
   35.1120   28.9410   41.9320 H   0  0  0  0  0  0  0  0  0  0  0  0
   36.2600   30.7190   41.2710 H   0  0  0  0  0  0  0  0  0  0  0  0
   38.5270   24.5610   42.3490 C   0  0  0  0  0  0  0  0  0  0  0  0
   39.6800   24.6580   43.1210 C   0  0  0  0  0  0  0  0  0  0  0  0
   40.0050   25.9030   43.6800 C   0  0  0  0  0  0  0  0  0  0  0  0
   39.1930   26.9560   43.4480 N   0  0  0  0  0  0  0  0  0  0  0  0
   38.0770   26.8470   42.6960 C   0  0  0  0  0  0  0  0  0  0  0  0
   37.7330   25.6490   42.1390 N   0  0  0  0  0  0  0  0  0  0  0  0
   40.3170   23.7910   43.2900 H   0  0  0  0  0  0  0  0  0  0  0  0
   40.8840   26.0370   44.2860 H   0  0  0  0  0  0  0  0  0  0  0  0
   38.1470   23.3450   41.7650 O   0  0  0  0  0  0  0  0  0  0  0  0
   38.4760   23.2400   40.7980 H   0  0  0  0  0  0  0  0  0  0  0  0
   39.0730   29.0250   41.4780 O   0  0  0  0  0  0  0  0  0  0  0  0
   39.1300   29.5400   40.6350 H   0  0  0  0  0  0  0  0  0  0  0  0
  1  5  1  0  0  0  0
  1 28  1  0  0  0  0
  2  1  1  0  0  0  0
  3  1  1  0  0  0  0
  4  9  1  0  0  0  0
  5  4  2  0  0  0  0
  5  6  1  0  0  0  0
  6  7  2  0  0  0  0
  7  8  1  0  0  0  0
  7 11  1  0  0  0  0
  8 12  1  0  0  0  0
  9 15  1  0  0  0  0
  9  8  2  0  0  0  0
 10  6  1  0  0  0  0
 13 14  1  0  0  0  0
 13  4  1  0  0  0  0
 15 17  1  0  0  0  0
 16 17  2  0  0  0  0
 16 23  1  0  0  0  0
 17 18  1  0  0  0  0
 18 20  2  0  0  0  0
 18 19  1  0  0  0  0
 20 21  1  0  0  0  0
 22 20  1  0  0  0  0
 23 22  2  0  0  0  0
 24 25  1  0  0  0  0
 25 16  1  0  0  0  0
 26 25  2  0  0  0  0
 27 25  2  0  0  0  0
 28 30  1  0  0  0  0
 28 31  1  0  0  0  0
 29 28  1  0  0  0  0
 31 36  1  0  0  0  0
 32 33  1  0  0  0  0
 32 37  1  1  0  0  0
 33 46  1  0  0  0  0
 33 38  1  1  0  0  0
 34 33  1  0  0  0  0
 35 34  1  0  0  0  0
 35 40  1  0  0  0  0
 36 35  1  0  0  0  0
 36 41  1  1  0  0  0
 36 32  1  0  0  0  0
 39 35  1  0  0  0  0
 42 43  1  0  0  0  0
 43 48  1  0  0  0  0
 43 44  2  0  0  0  0
 44 49  1  0  0  0  0
 45 44  1  0  0  0  0
 46 45  2  0  0  0  0
 47 42  2  0  0  0  0
 47 46  1  0  0  0  0
 50 42  1  0  0  0  0
 51 50  1  0  0  0  0
 52 32  1  0  0  0  0
 53 52  1  0  0  0  0
M  END
>  <minimizedAffinity>
-6.55145788

$$$$

 OpenBabel03242519503D

 53 56  0  0  1  0  0  0  0  0999 V2000
   37.2870   27.2920   43.3990 C   0  0  0  0  0  0  0  0  0  0  0  0
   36.8210   26.8370   44.2600 H   0  0  0  0  0  0  0  0  0  0  0  0
   36.8260   28.2940   43.2380 H   0  0  0  0  0  0  0  0  0  0  0  0
   36.9060   27.2310   40.9950 C   0  0  0  0  0  0  0  0  0  0  0  0
   37.0840   26.5050   42.1780 C   0  0  0  0  0  0  0  0  0  0  0  0
   37.0170   25.1400   42.0060 C   0  0  0  0  0  0  0  0  0  0  0  0
   36.8020   24.4940   40.8370 C   0  0  0  0  0  0  0  0  0  0  0  0
   36.6280   25.2470   39.6740 C   0  0  0  0  0  0  0  0  0  0  0  0
   36.6800   26.6700   39.7470 C   0  0  0  0  0  0  0  0  0  0  0  0
   37.1570   24.6050   42.9240 H   0  0  0  0  0  0  0  0  0  0  0  0
   36.7720   23.4130   40.8300 H   0  0  0  0  0  0  0  0  0  0  0  0
   36.4650   24.6770   38.7960 H   0  0  0  0  0  0  0  0  0  0  0  0
   36.9270   28.6040   40.8690 O   0  0  0  0  0  0  0  0  0  0  0  0
   36.4680   29.1910   41.5430 H   0  0  0  0  0  0  0  0  0  0  0  0
   36.5020   27.2470   38.5960 O   0  0  0  0  0  0  0  0  0  0  0  0
   36.5070   29.0210   36.9190 C   0  0  0  0  0  0  0  0  0  0  0  0
   36.3320   27.8000   37.4920 C   0  0  0  0  0  0  0  0  0  0  0  0
   35.7980   26.8050   36.6410 C   0  0  0  0  0  0  0  0  0  0  0  0
   35.5470   25.7370   36.8150 H   0  0  0  0  0  0  0  0  0  0  0  0
   35.4490   26.9910   35.2890 C   0  0  0  0  0  0  0  0  0  0  0  0
   35.0380   26.3160   34.5540 H   0  0  0  0  0  0  0  0  0  0  0  0
   35.6570   28.2590   34.7820 C   0  0  0  0  0  3  0  0  0  0  0  0
   36.1760   29.2250   35.6110 C   0  0  0  0  0  3  0  0  0  0  0  0
   38.2320   29.6650   38.6060 H   0  0  0  0  0  0  0  0  0  0  0  0
   37.1620   30.2730   37.9330 S   0  0  0  0  0  0  0  0  0  0  0  0
   37.7090   31.4220   37.1710 O   0  0  0  0  0  0  0  0  0  0  0  0
   36.2230   30.6540   39.0500 O   0  0  0  0  0  0  0  0  0  0  0  0
   38.7870   27.5360   43.6050 C   0  0  0  0  0  0  0  0  0  0  0  0
   39.4610   26.7600   43.8010 H   0  0  0  0  0  0  0  0  0  0  0  0
   38.7440   27.9420   44.7870 H   0  0  0  0  0  0  0  0  0  0  0  0
   39.2130   28.6770   43.0550 O   0  0  0  0  0  0  0  0  0  0  0  0
   40.8370   30.3280   42.5020 C   0  0  2  0  0  0  0  0  0  0  0  0
   40.7450   30.6060   41.0700 C   0  0  1  0  0  0  0  0  0  0  0  0
   39.7560   29.6020   40.5980 O   0  0  0  0  0  0  0  0  0  0  0  0
   40.4180   28.4780   41.0810 C   0  0  0  0  0  0  0  0  0  0  0  0
   40.4710   28.8910   42.6600 C   0  0  2  0  0  0  0  0  0  0  0  0
   41.8060   30.5670   42.9710 H   0  0  0  0  0  0  0  0  0  0  0  0
   41.6530   30.2840   40.5080 H   0  0  0  0  0  0  0  0  0  0  0  0
   39.8040   27.5850   41.0100 H   0  0  0  0  0  0  0  0  0  0  0  0
   41.4480   28.4150   40.7380 H   0  0  0  0  0  0  0  0  0  0  0  0
   41.2490   28.1550   42.9310 H   0  0  0  0  0  0  0  0  0  0  0  0
   38.3520   33.2410   40.2690 C   0  0  0  0  0  0  0  0  0  0  0  0
   39.1500   34.3470   40.0010 C   0  0  0  0  0  0  0  0  0  0  0  0
   40.5430   34.2000   40.0800 C   0  0  0  0  0  0  0  0  0  0  0  0
   41.0550   32.9960   40.4140 N   0  0  0  0  0  0  0  0  0  0  0  0
   40.2680   31.9300   40.6720 C   0  0  0  0  0  0  0  0  0  0  0  0
   38.9080   32.0420   40.6030 N   0  0  0  0  0  0  0  0  0  0  0  0
   38.7090   35.3060   39.7340 H   0  0  0  0  0  0  0  0  0  0  0  0
   41.2100   35.0200   39.8830 H   0  0  0  0  0  0  0  0  0  0  0  0
   36.9540   33.3230   40.2040 O   0  0  0  0  0  0  0  0  0  0  0  0
   36.5180   33.5180   41.1140 H   0  0  0  0  0  0  0  0  0  0  0  0
   39.8090   31.1020   43.1860 O   0  0  0  0  0  0  0  0  0  0  0  0
   39.2870   30.4950   43.7690 H   0  0  0  0  0  0  0  0  0  0  0  0
  1 28  1  0  0  0  0
  1  2  1  0  0  0  0
  3  1  1  0  0  0  0
  4  5  1  0  0  0  0
  5  1  1  0  0  0  0
  6  5  2  0  0  0  0
  6 10  1  0  0  0  0
  7  6  1  0  0  0  0
  8  9  1  0  0  0  0
  8  7  2  0  0  0  0
  9  4  2  0  0  0  0
 11  7  1  0  0  0  0
 12  8  1  0  0  0  0
 13  4  1  0  0  0  0
 13 14  1  0  0  0  0
 15  9  1  0  0  0  0
 16 17  1  0  0  0  0
 16 25  1  0  0  0  0
 17 15  1  0  0  0  0
 18 19  1  0  0  0  0
 18 17  2  0  0  0  0
 20 18  1  0  0  0  0
 21 20  1  0  0  0  0
 22 20  2  0  0  0  0
 22 23  1  0  0  0  0
 23 16  2  0  0  0  0
 25 24  1  0  0  0  0
 25 27  2  0  0  0  0
 26 25  2  0  0  0  0
 28 29  1  0  0  0  0
 28 30  1  0  0  0  0
 31 28  1  0  0  0  0
 32 36  1  0  0  0  0
 32 37  1  1  0  0  0
 32 52  1  0  0  0  0
 33 38  1  6  0  0  0
 33 32  1  0  0  0  0
 34 33  1  0  0  0  0
 34 35  1  0  0  0  0
 35 36  1  0  0  0  0
 36 41  1  1  0  0  0
 36 31  1  0  0  0  0
 39 35  1  0  0  0  0
 40 35  1  0  0  0  0
 42 47  1  0  0  0  0
 43 44  1  0  0  0  0
 43 42  2  0  0  0  0
 44 45  2  0  0  0  0
 45 46  1  0  0  0  0
 46 33  1  0  0  0  0
 47 46  2  0  0  0  0
 48 43  1  0  0  0  0
 49 44  1  0  0  0  0
 50 42  1  0  0  0  0
 50 51  1  0  0  0  0
 52 53  1  0  0  0  0
M  END
>  <minimizedAffinity>
-6.19873953

$$$$

 OpenBabel03242519503D

 53 56  0  0  1  0  0  0  0  0999 V2000
   37.5320   26.7640   43.5120 C   0  0  0  0  0  0  0  0  0  0  0  0
   37.2670   26.1910   44.3870 H   0  0  0  0  0  0  0  0  0  0  0  0
   36.9390   27.7080   43.5170 H   0  0  0  0  0  0  0  0  0  0  0  0
   36.9050   26.8430   41.1600 C   0  0  0  0  0  0  0  0  0  0  0  0
   37.2250   26.0500   42.2680 C   0  0  0  0  0  0  0  0  0  0  0  0
   37.1800   24.6970   42.0130 C   0  0  0  0  0  0  0  0  0  0  0  0
   36.8620   24.1190   40.8320 C   0  0  0  0  0  0  0  0  0  0  0  0
   36.5470   24.9390   39.7450 C   0  0  0  0  0  0  0  0  0  0  0  0
   36.5670   26.3540   39.9070 C   0  0  0  0  0  0  0  0  0  0  0  0
   37.4290   24.1090   42.8740 H   0  0  0  0  0  0  0  0  0  0  0  0
   36.8620   23.0400   40.7550 H   0  0  0  0  0  0  0  0  0  0  0  0
   36.3100   24.4200   38.8510 H   0  0  0  0  0  0  0  0  0  0  0  0
   36.8740   28.2210   41.1240 O   0  0  0  0  0  0  0  0  0  0  0  0
   36.4710   28.7470   41.8800 H   0  0  0  0  0  0  0  0  0  0  0  0
   36.2540   26.9970   38.8210 O   0  0  0  0  0  0  0  0  0  0  0  0
   36.4890   27.8850   36.5600 C   0  0  0  0  0  0  0  0  0  0  0  0
   35.9540   27.6130   37.7800 C   0  0  0  0  0  0  0  0  0  0  0  0
   34.6710   28.1600   38.0120 C   0  0  0  0  0  0  0  0  0  0  0  0
   33.9930   28.1140   38.8900 H   0  0  0  0  0  0  0  0  0  0  0  0
   33.9400   28.9410   37.0940 C   0  0  0  0  0  0  0  0  0  0  0  0
   32.9680   29.4060   37.1610 H   0  0  0  0  0  0  0  0  0  0  0  0
   34.5530   29.1710   35.8780 C   0  0  0  0  0  3  0  0  0  0  0  0
   35.8000   28.6390   35.6540 C   0  0  0  0  0  3  0  0  0  0  0  0
   38.3080   27.5270   34.8860 H   0  0  0  0  0  0  0  0  0  0  0  0
   38.0670   27.2290   36.2350 S   0  0  0  0  0  0  0  0  0  0  0  0
   39.1450   27.8640   37.0310 O   0  0  0  0  0  0  0  0  0  0  0  0
   38.0760   25.7210   36.2620 O   0  0  0  0  0  0  0  0  0  0  0  0
   39.0070   27.1830   43.5100 C   0  0  0  0  0  0  0  0  0  0  0  0
   39.7870   26.4920   43.4170 H   0  0  0  0  0  0  0  0  0  0  0  0
   39.1520   27.3450   44.7400 H   0  0  0  0  0  0  0  0  0  0  0  0
   39.1900   28.4570   43.1530 O   0  0  0  0  0  0  0  0  0  0  0  0
   40.1400   30.1400   41.7620 C   0  0  2  0  0  0  0  0  0  0  0  0
   40.1280   29.6600   40.3810 C   0  0  1  0  0  0  0  0  0  0  0  0
   39.6480   28.2600   40.5190 O   0  0  0  0  0  0  0  0  0  0  0  0
   40.6150   27.8430   41.4260 C   0  0  0  0  0  0  0  0  0  0  0  0
   40.3180   28.9270   42.6110 C   0  0  2  0  0  0  0  0  0  0  0  0
   40.8860   30.9200   41.9870 H   0  0  0  0  0  0  0  0  0  0  0  0
   41.1520   29.4900   39.9740 H   0  0  0  0  0  0  0  0  0  0  0  0
   40.3900   26.8620   41.8350 H   0  0  0  0  0  0  0  0  0  0  0  0
   41.6290   28.0270   41.0790 H   0  0  0  0  0  0  0  0  0  0  0  0
   41.2730   28.7630   43.1400 H   0  0  0  0  0  0  0  0  0  0  0  0
   39.1750   31.7330   37.5340 C   0  0  0  0  0  0  0  0  0  0  0  0
   37.7860   31.6760   37.5290 C   0  0  0  0  0  0  0  0  0  0  0  0
   37.1460   30.9240   38.5250 C   0  0  0  0  0  0  0  0  0  0  0  0
   37.8980   30.2850   39.4470 N   0  0  0  0  0  0  0  0  0  0  0  0
   39.2460   30.3480   39.4390 C   0  0  0  0  0  0  0  0  0  0  0  0
   39.8990   31.0730   38.4820 N   0  0  0  0  0  0  0  0  0  0  0  0
   37.2050   32.2010   36.7730 H   0  0  0  0  0  0  0  0  0  0  0  0
   36.0740   30.8450   38.5720 H   0  0  0  0  0  0  0  0  0  0  0  0
   39.8740   32.4690   36.5660 O   0  0  0  0  0  0  0  0  0  0  0  0
   40.1700   31.9020   35.7630 H   0  0  0  0  0  0  0  0  0  0  0  0
   38.8230   30.6810   42.0700 O   0  0  0  0  0  0  0  0  0  0  0  0
   38.4960   30.2680   42.9090 H   0  0  0  0  0  0  0  0  0  0  0  0
  1  3  1  0  0  0  0
  1  2  1  0  0  0  0
  4  5  1  0  0  0  0
  5  1  1  0  0  0  0
  6  5  2  0  0  0  0
  6 10  1  0  0  0  0
  7  6  1  0  0  0  0
  8  9  1  0  0  0  0
  8  7  2  0  0  0  0
  9  4  2  0  0  0  0
 11  7  1  0  0  0  0
 12  8  1  0  0  0  0
 13  4  1  0  0  0  0
 13 14  1  0  0  0  0
 15  9  1  0  0  0  0
 16 17  1  0  0  0  0
 17 18  2  0  0  0  0
 17 15  1  0  0  0  0
 18 19  1  0  0  0  0
 20 21  1  0  0  0  0
 20 18  1  0  0  0  0
 22 20  2  0  0  0  0
 23 22  1  0  0  0  0
 23 16  2  0  0  0  0
 24 25  1  0  0  0  0
 25 27  2  0  0  0  0
 25 16  1  0  0  0  0
 25 26  2  0  0  0  0
 28  1  1  0  0  0  0
 28 30  1  0  0  0  0
 29 28  1  0  0  0  0
 31 28  1  0  0  0  0
 32 37  1  1  0  0  0
 32 52  1  0  0  0  0
 32 36  1  0  0  0  0
 33 38  1  6  0  0  0
 33 34  1  0  0  0  0
 33 32  1  0  0  0  0
 34 35  1  0  0  0  0
 35 39  1  0  0  0  0
 35 36  1  0  0  0  0
 36 41  1  1  0  0  0
 36 31  1  0  0  0  0
 40 35  1  0  0  0  0
 42 47  1  0  0  0  0
 43 42  2  0  0  0  0
 43 44  1  0  0  0  0
 44 49  1  0  0  0  0
 44 45  2  0  0  0  0
 46 45  1  0  0  0  0
 46 33  1  0  0  0  0
 47 46  2  0  0  0  0
 48 43  1  0  0  0  0
 50 42  1  0  0  0  0
 51 50  1  0  0  0  0
 52 53  1  0  0  0  0
M  END
>  <minimizedAffinity>
-5.92538214

$$$$

 OpenBabel03242519503D

 53 56  0  0  1  0  0  0  0  0999 V2000
   37.4230   30.8410   37.8430 C   0  0  0  0  0  0  0  0  0  0  0  0
   36.7390   30.9970   37.0230 H   0  0  0  0  0  0  0  0  0  0  0  0
   38.3190   30.3020   37.4560 H   0  0  0  0  0  0  0  0  0  0  0  0
   37.7080   29.1620   39.5840 C   0  0  0  0  0  0  0  0  0  0  0  0
   36.8340   30.0220   38.9080 C   0  0  0  0  0  0  0  0  0  0  0  0
   35.5310   29.9450   39.3470 C   0  0  0  0  0  0  0  0  0  0  0  0
   35.0680   29.1380   40.3280 C   0  0  0  0  0  0  0  0  0  0  0  0
   35.9650   28.2910   40.9830 C   0  0  0  0  0  0  0  0  0  0  0  0
   37.3380   28.2970   40.6020 C   0  0  0  0  0  0  0  0  0  0  0  0
   34.8810   30.6110   38.8160 H   0  0  0  0  0  0  0  0  0  0  0  0
   34.0170   29.1680   40.5840 H   0  0  0  0  0  0  0  0  0  0  0  0
   35.5340   27.6880   41.7410 H   0  0  0  0  0  0  0  0  0  0  0  0
   39.0620   29.0320   39.3580 O   0  0  0  0  0  0  0  0  0  0  0  0
   39.4290   29.0070   38.4230 H   0  0  0  0  0  0  0  0  0  0  0  0
   38.0620   27.4630   41.2890 O   0  0  0  0  0  0  0  0  0  0  0  0
   39.8970   26.6680   42.6880 C   0  0  0  0  0  0  0  0  0  0  0  0
   38.7580   26.6650   41.9460 C   0  0  0  0  0  0  0  0  0  0  0  0
   38.1090   25.4130   41.8410 C   0  0  0  0  0  0  0  0  0  0  0  0
   37.1820   25.0990   41.3160 H   0  0  0  0  0  0  0  0  0  0  0  0
   38.5520   24.2130   42.4350 C   0  0  0  0  0  0  0  0  0  0  0  0
   38.1460   23.2140   42.4220 H   0  0  0  0  0  0  0  0  0  0  0  0
   39.7170   24.3010   43.1720 C   0  0  0  0  0  3  0  0  0  0  0  0
   40.3460   25.5190   43.2720 C   0  0  0  0  0  3  0  0  0  0  0  0
   39.8130   29.0290   43.5000 H   0  0  0  0  0  0  0  0  0  0  0  0
   40.7250   28.1910   42.8420 S   0  0  0  0  0  0  0  0  0  0  0  0
   41.9460   28.1140   43.6800 O   0  0  0  0  0  0  0  0  0  0  0  0
   40.9210   28.8710   41.5110 O   0  0  0  0  0  0  0  0  0  0  0  0
   37.9370   32.1580   38.4370 C   0  0  0  0  0  0  0  0  0  0  0  0
   37.3240   32.8040   38.9860 H   0  0  0  0  0  0  0  0  0  0  0  0
   37.9140   32.8480   37.3950 H   0  0  0  0  0  0  0  0  0  0  0  0
   39.2610   32.1720   38.6150 O   0  0  0  0  0  0  0  0  0  0  0  0
   41.1270   33.6510   38.6450 C   0  0  2  0  0  0  0  0  0  0  0  0
   42.2590   32.9540   39.2530 C   0  0  1  0  0  0  0  0  0  0  0  0
   41.6580   31.6720   39.7040 O   0  0  0  0  0  0  0  0  0  0  0  0
   40.6450   32.2270   40.4770 C   0  0  0  0  0  0  0  0  0  0  0  0
   39.9100   33.1070   39.3150 C   0  0  2  0  0  0  0  0  0  0  0  0
   41.1700   34.7520   38.6860 H   0  0  0  0  0  0  0  0  0  0  0  0
   42.5640   33.3960   40.2300 H   0  0  0  0  0  0  0  0  0  0  0  0
   39.9290   31.4780   40.8040 H   0  0  0  0  0  0  0  0  0  0  0  0
   41.0160   32.9320   41.2180 H   0  0  0  0  0  0  0  0  0  0  0  0
   39.3400   33.7430   40.0140 H   0  0  0  0  0  0  0  0  0  0  0  0
   44.4780   30.9300   37.1820 C   0  0  0  0  0  0  0  0  0  0  0  0
   45.4230   31.8380   36.7160 C   0  0  0  0  0  0  0  0  0  0  0  0
   45.3170   33.1770   37.1230 C   0  0  0  0  0  0  0  0  0  0  0  0
   44.3070   33.5330   37.9460 N   0  0  0  0  0  0  0  0  0  0  0  0
   43.3970   32.6400   38.3890 C   0  0  0  0  0  0  0  0  0  0  0  0
   43.4730   31.3300   38.0110 N   0  0  0  0  0  0  0  0  0  0  0  0
   46.2260   31.5230   36.0530 H   0  0  0  0  0  0  0  0  0  0  0  0
   46.0190   33.9230   36.7960 H   0  0  0  0  0  0  0  0  0  0  0  0
   44.5300   29.5780   36.8130 O   0  0  0  0  0  0  0  0  0  0  0  0
   43.9430   29.3580   36.0000 H   0  0  0  0  0  0  0  0  0  0  0  0
   41.0470   33.2600   37.2440 O   0  0  0  0  0  0  0  0  0  0  0  0
   40.1240   32.9610   37.0470 H   0  0  0  0  0  0  0  0  0  0  0  0
  1 28  1  0  0  0  0
  1  5  1  0  0  0  0
  2  1  1  0  0  0  0
  3  1  1  0  0  0  0
  4  9  1  0  0  0  0
  5  6  1  0  0  0  0
  5  4  2  0  0  0  0
  6  7  2  0  0  0  0
  7 11  1  0  0  0  0
  7  8  1  0  0  0  0
  8 12  1  0  0  0  0
  9  8  2  0  0  0  0
  9 15  1  0  0  0  0
 10  6  1  0  0  0  0
 13  4  1  0  0  0  0
 14 13  1  0  0  0  0
 15 17  1  0  0  0  0
 16 25  1  0  0  0  0
 16 23  1  0  0  0  0
 17 16  2  0  0  0  0
 18 17  1  0  0  0  0
 18 20  2  0  0  0  0
 19 18  1  0  0  0  0
 20 22  1  0  0  0  0
 21 20  1  0  0  0  0
 22 23  2  0  0  0  0
 25 24  1  0  0  0  0
 25 26  2  0  0  0  0
 27 25  2  0  0  0  0
 28 31  1  0  0  0  0
 28 29  1  0  0  0  0
 30 28  1  0  0  0  0
 31 36  1  0  0  0  0
 32 37  1  1  0  0  0
 32 33  1  0  0  0  0
 32 36  1  0  0  0  0
 33 34  1  0  0  0  0
 33 38  1  1  0  0  0
 34 35  1  0  0  0  0
 35 39  1  0  0  0  0
 35 40  1  0  0  0  0
 36 41  1  1  0  0  0
 36 35  1  0  0  0  0
 42 47  1  0  0  0  0
 43 44  1  0  0  0  0
 43 42  2  0  0  0  0
 44 45  2  0  0  0  0
 45 46  1  0  0  0  0
 46 33  1  0  0  0  0
 47 46  2  0  0  0  0
 48 43  1  0  0  0  0
 49 44  1  0  0  0  0
 50 42  1  0  0  0  0
 51 50  1  0  0  0  0
 52 32  1  0  0  0  0
 53 52  1  0  0  0  0
M  END
>  <minimizedAffinity>
-5.84660292

$$$$

 OpenBabel03242519503D

 53 56  0  0  1  0  0  0  0  0999 V2000
   38.0680   31.6460   37.3600 C   0  0  0  0  0  0  0  0  0  0  0  0
   37.5900   32.5660   37.0570 H   0  0  0  0  0  0  0  0  0  0  0  0
   38.0220   30.9290   36.5070 H   0  0  0  0  0  0  0  0  0  0  0  0
   37.3470   29.6240   38.5090 C   0  0  0  0  0  0  0  0  0  0  0  0
   37.3950   31.0230   38.5050 C   0  0  0  0  0  0  0  0  0  0  0  0
   36.7720   31.6030   39.5880 C   0  0  0  0  0  0  0  0  0  0  0  0
   36.1520   30.9470   40.5950 C   0  0  0  0  0  0  0  0  0  0  0  0
   36.1200   29.5510   40.5700 C   0  0  0  0  0  0  0  0  0  0  0  0
   36.7380   28.8560   39.4900 C   0  0  0  0  0  0  0  0  0  0  0  0
   36.8230   32.6730   39.5640 H   0  0  0  0  0  0  0  0  0  0  0  0
   35.6980   31.5170   41.3940 H   0  0  0  0  0  0  0  0  0  0  0  0
   35.6200   29.1030   41.3900 H   0  0  0  0  0  0  0  0  0  0  0  0
   37.8870   28.7860   37.5580 O   0  0  0  0  0  0  0  0  0  0  0  0
   37.8000   28.9930   36.5780 H   0  0  0  0  0  0  0  0  0  0  0  0
   36.6360   27.5630   39.5890 O   0  0  0  0  0  0  0  0  0  0  0  0
   36.1530   25.2660   38.9200 C   0  0  0  0  0  0  0  0  0  0  0  0
   36.5380   26.3240   39.6830 C   0  0  0  0  0  0  0  0  0  0  0  0
   36.9680   26.0010   40.9900 C   0  0  0  0  0  0  0  0  0  0  0  0
   37.3340   26.6330   41.8280 H   0  0  0  0  0  0  0  0  0  0  0  0
   37.0220   24.7020   41.5330 C   0  0  0  0  0  0  0  0  0  0  0  0
   37.3280   24.3410   42.5020 H   0  0  0  0  0  0  0  0  0  0  0  0
   36.6150   23.6830   40.6940 C   0  0  0  0  0  3  0  0  0  0  0  0
   36.1960   23.9990   39.4240 C   0  0  0  0  0  3  0  0  0  0  0  0
   34.4720   26.4160   37.4740 H   0  0  0  0  0  0  0  0  0  0  0  0
   35.6160   25.6220   37.3040 S   0  0  0  0  0  0  0  0  0  0  0  0
   36.5950   26.4120   36.5190 O   0  0  0  0  0  0  0  0  0  0  0  0
   35.0860   24.4010   36.5960 O   0  0  0  0  0  0  0  0  0  0  0  0
   39.5550   31.8360   37.6820 C   0  0  0  0  0  0  0  0  0  0  0  0
   39.9870   32.7810   37.8020 H   0  0  0  0  0  0  0  0  0  0  0  0
   40.0150   31.6520   36.5350 H   0  0  0  0  0  0  0  0  0  0  0  0
   40.1080   30.7640   38.2560 O   0  0  0  0  0  0  0  0  0  0  0  0
   41.4220   29.6330   39.8890 C   0  0  2  0  0  0  0  0  0  0  0  0
   41.0070   30.0900   41.2140 C   0  0  1  0  0  0  0  0  0  0  0  0
   40.0370   31.1730   40.9050 O   0  0  0  0  0  0  0  0  0  0  0  0
   40.8860   31.9310   40.1070 C   0  0  0  0  0  0  0  0  0  0  0  0
   41.2310   30.8010   38.9800 C   0  0  2  0  0  0  0  0  0  0  0  0
   42.4420   29.2190   39.8270 H   0  0  0  0  0  0  0  0  0  0  0  0
   41.8020   30.6670   41.7410 H   0  0  0  0  0  0  0  0  0  0  0  0
   40.3550   32.7300   39.5970 H   0  0  0  0  0  0  0  0  0  0  0  0
   41.8220   32.1790   40.6010 H   0  0  0  0  0  0  0  0  0  0  0  0
   42.1120   31.3280   38.5740 H   0  0  0  0  0  0  0  0  0  0  0  0
   38.3630   28.6510   43.2750 C   0  0  0  0  0  0  0  0  0  0  0  0
   38.8750   27.4190   43.6650 C   0  0  0  0  0  0  0  0  0  0  0  0
   40.1600   27.0630   43.2290 C   0  0  0  0  0  0  0  0  0  0  0  0
   40.8490   27.9250   42.4500 N   0  0  0  0  0  0  0  0  0  0  0  0
   40.3380   29.1190   42.0790 C   0  0  0  0  0  0  0  0  0  0  0  0
   39.0900   29.4940   42.4880 N   0  0  0  0  0  0  0  0  0  0  0  0
   38.2970   26.7430   44.2930 H   0  0  0  0  0  0  0  0  0  0  0  0
   40.6080   26.1230   43.4990 H   0  0  0  0  0  0  0  0  0  0  0  0
   37.0860   29.0650   43.6800 O   0  0  0  0  0  0  0  0  0  0  0  0
   36.3540   28.8490   42.9920 H   0  0  0  0  0  0  0  0  0  0  0  0
   40.4940   28.6000   39.4480 O   0  0  0  0  0  0  0  0  0  0  0  0
   40.1630   28.8310   38.5440 H   0  0  0  0  0  0  0  0  0  0  0  0
  1 28  1  0  0  0  0
  1  5  1  0  0  0  0
  2  1  1  0  0  0  0
  3  1  1  0  0  0  0
  4  9  1  0  0  0  0
  5  4  2  0  0  0  0
  5  6  1  0  0  0  0
  6  7  2  0  0  0  0
  7 11  1  0  0  0  0
  8  7  1  0  0  0  0
  8 12  1  0  0  0  0
  9 15  1  0  0  0  0
  9  8  2  0  0  0  0
 10  6  1  0  0  0  0
 13  4  1  0  0  0  0
 14 13  1  0  0  0  0
 15 17  1  0  0  0  0
 16 23  2  0  0  0  0
 16 17  1  0  0  0  0
 17 18  2  0  0  0  0
 18 20  1  0  0  0  0
 18 19  1  0  0  0  0
 20 21  1  0  0  0  0
 22 20  2  0  0  0  0
 23 22  1  0  0  0  0
 25 24  1  0  0  0  0
 25 16  1  0  0  0  0
 26 25  2  0  0  0  0
 27 25  2  0  0  0  0
 28 29  1  0  0  0  0
 28 31  1  0  0  0  0
 30 28  1  0  0  0  0
 31 36  1  0  0  0  0
 32 37  1  6  0  0  0
 32 33  1  0  0  0  0
 33 38  1  1  0  0  0
 33 46  1  0  0  0  0
 34 33  1  0  0  0  0
 35 40  1  0  0  0  0
 35 34  1  0  0  0  0
 36 41  1  6  0  0  0
 36 32  1  0  0  0  0
 36 35  1  0  0  0  0
 39 35  1  0  0  0  0
 42 43  1  0  0  0  0
 42 50  1  0  0  0  0
 43 48  1  0  0  0  0
 44 49  1  0  0  0  0
 44 43  2  0  0  0  0
 45 44  1  0  0  0  0
 46 45  2  0  0  0  0
 46 47  1  0  0  0  0
 47 42  2  0  0  0  0
 51 50  1  0  0  0  0
 52 32  1  0  0  0  0
 53 52  1  0  0  0  0
M  END
>  <minimizedAffinity>
-5.82155895

$$$$

 OpenBabel03242519503D

 53 56  0  0  1  0  0  0  0  0999 V2000
   36.6710   27.8220   39.3510 C   0  0  0  0  0  0  0  0  0  0  0  0
   35.9710   27.0250   39.1500 H   0  0  0  0  0  0  0  0  0  0  0  0
   37.5650   27.6770   38.7010 H   0  0  0  0  0  0  0  0  0  0  0  0
   38.4580   28.1930   40.9630 C   0  0  0  0  0  0  0  0  0  0  0  0
   37.1260   27.8220   40.7460 C   0  0  0  0  0  0  0  0  0  0  0  0
   36.4480   27.4890   41.8970 C   0  0  0  0  0  0  0  0  0  0  0  0
   36.9560   27.4950   43.1510 C   0  0  0  0  0  0  0  0  0  0  0  0
   38.2890   27.8700   43.3350 C   0  0  0  0  0  0  0  0  0  0  0  0
   39.0760   28.2330   42.2040 C   0  0  0  0  0  0  0  0  0  0  0  0
   35.4310   27.2090   41.7070 H   0  0  0  0  0  0  0  0  0  0  0  0
   36.3200   27.2120   43.9790 H   0  0  0  0  0  0  0  0  0  0  0  0
   38.6200   27.8530   44.3420 H   0  0  0  0  0  0  0  0  0  0  0  0
   39.3660   28.5770   40.0000 O   0  0  0  0  0  0  0  0  0  0  0  0
   39.4270   28.0860   39.1250 H   0  0  0  0  0  0  0  0  0  0  0  0
   40.2960   28.5590   42.5140 O   0  0  0  0  0  0  0  0  0  0  0  0
   42.6680   28.2690   43.0100 C   0  0  0  0  0  0  0  0  0  0  0  0
   41.4650   28.8720   42.8120 C   0  0  0  0  0  0  0  0  0  0  0  0
   41.4590   30.2750   42.9780 C   0  0  0  0  0  0  0  0  0  0  0  0
   40.6480   31.0290   42.8870 H   0  0  0  0  0  0  0  0  0  0  0  0
   42.5770   31.0610   43.3230 C   0  0  0  0  0  0  0  0  0  0  0  0
   42.6890   32.1230   43.4760 H   0  0  0  0  0  0  0  0  0  0  0  0
   43.7610   30.3730   43.5060 C   0  0  0  0  0  3  0  0  0  0  0  0
   43.7650   29.0080   43.3450 C   0  0  0  0  0  3  0  0  0  0  0  0
   42.2450   26.3140   41.5140 H   0  0  0  0  0  0  0  0  0  0  0  0
   42.7180   26.5410   42.8150 S   0  0  0  0  0  0  0  0  0  0  0  0
   44.0880   25.9790   42.8970 O   0  0  0  0  0  0  0  0  0  0  0  0
   41.7010   25.8390   43.6790 O   0  0  0  0  0  0  0  0  0  0  0  0
   36.1030   29.2020   38.9990 C   0  0  0  0  0  0  0  0  0  0  0  0
   35.2050   29.5590   39.4000 H   0  0  0  0  0  0  0  0  0  0  0  0
   35.6180   28.9200   37.8820 H   0  0  0  0  0  0  0  0  0  0  0  0
   37.0330   30.0560   38.5640 O   0  0  0  0  0  0  0  0  0  0  0  0
   38.0940   32.1400   38.1080 C   0  0  2  0  0  0  0  0  0  0  0  0
   38.9350   32.4900   39.2510 C   0  0  1  0  0  0  0  0  0  0  0  0
   38.6150   31.4270   40.2390 O   0  0  0  0  0  0  0  0  0  0  0  0
   37.2390   31.6290   40.2590 C   0  0  0  0  0  0  0  0  0  0  0  0
   36.9380   31.3850   38.6730 C   0  0  2  0  0  0  0  0  0  0  0  0
   37.7720   32.9860   37.4780 H   0  0  0  0  0  0  0  0  0  0  0  0
   38.5720   33.3940   39.7930 H   0  0  0  0  0  0  0  0  0  0  0  0
   36.7230   30.8420   40.8020 H   0  0  0  0  0  0  0  0  0  0  0  0
   36.9660   32.6590   40.4760 H   0  0  0  0  0  0  0  0  0  0  0  0
   35.9360   31.8480   38.6880 H   0  0  0  0  0  0  0  0  0  0  0  0
   42.1310   33.3290   37.7050 C   0  0  0  0  0  0  0  0  0  0  0  0
   43.0690   32.6810   38.5010 C   0  0  0  0  0  0  0  0  0  0  0  0
   42.6100   31.9250   39.5900 C   0  0  0  0  0  0  0  0  0  0  0  0
   41.2810   31.8550   39.8250 N   0  0  0  0  0  0  0  0  0  0  0  0
   40.3830   32.4910   39.0430 C   0  0  0  0  0  0  0  0  0  0  0  0
   40.7990   33.2340   37.9750 N   0  0  0  0  0  0  0  0  0  0  0  0
   44.1340   32.7550   38.2880 H   0  0  0  0  0  0  0  0  0  0  0  0
   43.2880   31.4010   40.2400 H   0  0  0  0  0  0  0  0  0  0  0  0
   42.5260   34.0980   36.6010 O   0  0  0  0  0  0  0  0  0  0  0  0
   42.6290   35.0970   36.8200 H   0  0  0  0  0  0  0  0  0  0  0  0
   38.8310   31.2100   37.2640 O   0  0  0  0  0  0  0  0  0  0  0  0
   38.2640   30.4180   37.0880 H   0  0  0  0  0  0  0  0  0  0  0  0
  1  5  1  0  0  0  0
  2  1  1  0  0  0  0
  3  1  1  0  0  0  0
  4  9  1  0  0  0  0
  5  4  2  0  0  0  0
  5  6  1  0  0  0  0
  6  7  2  0  0  0  0
  7  8  1  0  0  0  0
  7 11  1  0  0  0  0
  8 12  1  0  0  0  0
  9 15  1  0  0  0  0
  9  8  2  0  0  0  0
 10  6  1  0  0  0  0
 13  4  1  0  0  0  0
 14 13  1  0  0  0  0
 15 17  1  0  0  0  0
 16 23  1  0  0  0  0
 17 18  1  0  0  0  0
 17 16  2  0  0  0  0
 18 20  2  0  0  0  0
 19 18  1  0  0  0  0
 20 21  1  0  0  0  0
 20 22  1  0  0  0  0
 23 22  2  0  0  0  0
 24 25  1  0  0  0  0
 25 26  2  0  0  0  0
 25 16  1  0  0  0  0
 25 27  2  0  0  0  0
 28  1  1  0  0  0  0
 28 29  1  0  0  0  0
 30 28  1  0  0  0  0
 31 36  1  0  0  0  0
 31 28  1  0  0  0  0
 32 37  1  6  0  0  0
 32 36  1  0  0  0  0
 32 33  1  0  0  0  0
 33 38  1  1  0  0  0
 33 34  1  0  0  0  0
 34 35  1  0  0  0  0
 35 40  1  0  0  0  0
 35 39  1  0  0  0  0
 36 41  1  6  0  0  0
 36 35  1  0  0  0  0
 42 47  2  0  0  0  0
 42 43  1  0  0  0  0
 43 44  2  0  0  0  0
 44 45  1  0  0  0  0
 44 49  1  0  0  0  0
 46 33  1  0  0  0  0
 46 45  2  0  0  0  0
 47 46  1  0  0  0  0
 48 43  1  0  0  0  0
 50 51  1  0  0  0  0
 50 42  1  0  0  0  0
 52 32  1  0  0  0  0
 53 52  1  0  0  0  0
M  END
>  <minimizedAffinity>
-5.79152346

$$$$

 OpenBabel03242519503D

 53 56  0  0  1  0  0  0  0  0999 V2000
   39.5930   24.6120   41.7970 C   0  0  0  0  0  0  0  0  0  0  0  0
   40.4310   25.0340   41.2630 H   0  0  0  0  0  0  0  0  0  0  0  0
   39.8660   23.5800   42.1200 H   0  0  0  0  0  0  0  0  0  0  0  0
   38.1550   25.5860   40.0900 C   0  0  0  0  0  0  0  0  0  0  0  0
   38.3930   24.5150   40.9590 C   0  0  0  0  0  0  0  0  0  0  0  0
   37.4320   23.5300   40.9020 C   0  0  0  0  0  0  0  0  0  0  0  0
   36.3360   23.5320   40.1080 C   0  0  0  0  0  0  0  0  0  0  0  0
   36.1260   24.6160   39.2530 C   0  0  0  0  0  0  0  0  0  0  0  0
   37.0660   25.6880   39.2380 C   0  0  0  0  0  0  0  0  0  0  0  0
   37.6350   22.7200   41.5730 H   0  0  0  0  0  0  0  0  0  0  0  0
   35.6510   22.6960   40.1530 H   0  0  0  0  0  0  0  0  0  0  0  0
   35.2500   24.5520   38.6600 H   0  0  0  0  0  0  0  0  0  0  0  0
   38.9480   26.7030   39.9350 O   0  0  0  0  0  0  0  0  0  0  0  0
   39.3470   27.1670   40.7330 H   0  0  0  0  0  0  0  0  0  0  0  0
   36.7530   26.6310   38.4000 O   0  0  0  0  0  0  0  0  0  0  0  0
   35.5490   28.5460   37.4830 C   0  0  0  0  0  0  0  0  0  0  0  0
   36.4510   27.5350   37.5960 C   0  0  0  0  0  0  0  0  0  0  0  0
   37.3510   27.4050   36.5140 C   0  0  0  0  0  0  0  0  0  0  0  0
   38.1810   26.6920   36.3210 H   0  0  0  0  0  0  0  0  0  0  0  0
   37.3720   28.2260   35.3690 C   0  0  0  0  0  0  0  0  0  0  0  0
   38.0020   28.2200   34.4930 H   0  0  0  0  0  0  0  0  0  0  0  0
   36.4250   29.2300   35.3310 C   0  0  0  0  0  3  0  0  0  0  0  0
   35.5500   29.3550   36.3840 C   0  0  0  0  0  3  0  0  0  0  0  0
   34.1580   27.4340   39.2350 H   0  0  0  0  0  0  0  0  0  0  0  0
   34.4230   28.7390   38.7960 S   0  0  0  0  0  0  0  0  0  0  0  0
   34.9820   29.4920   39.9450 O   0  0  0  0  0  0  0  0  0  0  0  0
   33.0750   29.2260   38.3250 O   0  0  0  0  0  0  0  0  0  0  0  0
   39.2620   25.3890   43.0770 C   0  0  0  0  0  0  0  0  0  0  0  0
   39.8390   25.3120   43.9460 H   0  0  0  0  0  0  0  0  0  0  0  0
   38.3370   24.6610   43.4970 H   0  0  0  0  0  0  0  0  0  0  0  0
   38.5240   26.4800   42.8510 O   0  0  0  0  0  0  0  0  0  0  0  0
   37.9780   28.7970   42.8900 C   0  0  2  0  0  0  0  0  0  0  0  0
   39.0040   29.5270   42.1470 C   0  0  1  0  0  0  0  0  0  0  0  0
   40.0010   28.4710   41.8310 O   0  0  0  0  0  0  0  0  0  0  0  0
   40.2130   28.0470   43.1380 C   0  0  0  0  0  0  0  0  0  0  0  0
   38.6770   27.6340   43.5080 C   0  0  2  0  0  0  0  0  0  0  0  0
   37.4180   29.3900   43.6320 H   0  0  0  0  0  0  0  0  0  0  0  0
   39.6120   30.1990   42.7960 H   0  0  0  0  0  0  0  0  0  0  0  0
   40.8020   27.1350   43.1780 H   0  0  0  0  0  0  0  0  0  0  0  0
   40.4890   28.8600   43.8070 H   0  0  0  0  0  0  0  0  0  0  0  0
   38.8390   27.6090   44.6000 H   0  0  0  0  0  0  0  0  0  0  0  0
   37.4890   32.0000   39.9350 C   0  0  0  0  0  0  0  0  0  0  0  0
   37.7920   31.5390   38.6580 C   0  0  0  0  0  0  0  0  0  0  0  0
   38.5230   30.3480   38.5370 C   0  0  0  0  0  0  0  0  0  0  0  0
   38.9030   29.6960   39.6570 N   0  0  0  0  0  0  0  0  0  0  0  0
   38.6010   30.1570   40.8900 C   0  0  0  0  0  0  0  0  0  0  0  0
   37.8910   31.3140   41.0410 N   0  0  0  0  0  0  0  0  0  0  0  0
   37.4730   32.0860   37.7730 H   0  0  0  0  0  0  0  0  0  0  0  0
   38.7860   29.9430   37.5760 H   0  0  0  0  0  0  0  0  0  0  0  0
   36.7600   33.1840   40.1230 O   0  0  0  0  0  0  0  0  0  0  0  0
   37.3560   34.0080   40.2620 H   0  0  0  0  0  0  0  0  0  0  0  0
   37.0200   28.2550   41.9370 O   0  0  0  0  0  0  0  0  0  0  0  0
   36.9040   27.2880   42.1140 H   0  0  0  0  0  0  0  0  0  0  0  0
  1  3  1  0  0  0  0
  1 28  1  0  0  0  0
  2  1  1  0  0  0  0
  4  5  1  0  0  0  0
  5  1  1  0  0  0  0
  6  5  2  0  0  0  0
  6 10  1  0  0  0  0
  7 11  1  0  0  0  0
  7  6  1  0  0  0  0
  8  7  2  0  0  0  0
  9  8  1  0  0  0  0
  9  4  2  0  0  0  0
 12  8  1  0  0  0  0
 13  4  1  0  0  0  0
 13 14  1  0  0  0  0
 15  9  1  0  0  0  0
 16 17  1  0  0  0  0
 16 25  1  0  0  0  0
 17 15  1  0  0  0  0
 18 17  2  0  0  0  0
 19 18  1  0  0  0  0
 20 18  1  0  0  0  0
 21 20  1  0  0  0  0
 22 20  2  0  0  0  0
 22 23  1  0  0  0  0
 23 16  2  0  0  0  0
 25 24  1  0  0  0  0
 25 26  2  0  0  0  0
 27 25  2  0  0  0  0
 28 30  1  0  0  0  0
 28 29  1  0  0  0  0
 31 28  1  0  0  0  0
 31 36  1  0  0  0  0
 32 36  1  0  0  0  0
 32 37  1  1  0  0  0
 33 38  1  1  0  0  0
 33 32  1  0  0  0  0
 34 33  1  0  0  0  0
 34 35  1  0  0  0  0
 35 39  1  0  0  0  0
 35 36  1  0  0  0  0
 35 40  1  0  0  0  0
 36 41  1  1  0  0  0
 42 50  1  0  0  0  0
 42 47  1  0  0  0  0
 43 42  2  0  0  0  0
 44 43  1  0  0  0  0
 44 45  2  0  0  0  0
 45 46  1  0  0  0  0
 46 47  2  0  0  0  0
 46 33  1  0  0  0  0
 48 43  1  0  0  0  0
 49 44  1  0  0  0  0
 50 51  1  0  0  0  0
 52 53  1  0  0  0  0
 52 32  1  0  0  0  0
M  END
>  <minimizedAffinity>
-5.76632214

$$$$

 OpenBabel03242519503D

 53 56  0  0  1  0  0  0  0  0999 V2000
   37.5900   31.2100   38.0560 C   0  0  0  0  0  0  0  0  0  0  0  0
   37.2470   31.4380   37.0580 H   0  0  0  0  0  0  0  0  0  0  0  0
   38.6830   30.9930   38.0110 H   0  0  0  0  0  0  0  0  0  0  0  0
   37.7030   29.2040   39.4330 C   0  0  0  0  0  0  0  0  0  0  0  0
   36.9220   30.0280   38.6140 C   0  0  0  0  0  0  0  0  0  0  0  0
   35.6320   29.5780   38.4440 C   0  0  0  0  0  0  0  0  0  0  0  0
   35.1020   28.4560   38.9830 C   0  0  0  0  0  0  0  0  0  0  0  0
   35.9080   27.6540   39.7940 C   0  0  0  0  0  0  0  0  0  0  0  0
   37.2600   28.0350   40.0330 C   0  0  0  0  0  0  0  0  0  0  0  0
   35.0530   30.2250   37.8150 H   0  0  0  0  0  0  0  0  0  0  0  0
   34.0700   28.2080   38.7740 H   0  0  0  0  0  0  0  0  0  0  0  0
   35.4280   26.7930   40.1830 H   0  0  0  0  0  0  0  0  0  0  0  0
   39.0220   29.4100   39.7770 O   0  0  0  0  0  0  0  0  0  0  0  0
   39.6920   29.7180   39.0940 H   0  0  0  0  0  0  0  0  0  0  0  0
   37.8970   27.2030   40.8030 O   0  0  0  0  0  0  0  0  0  0  0  0
   38.7900   25.0780   41.6040 C   0  0  0  0  0  0  0  0  0  0  0  0
   38.5070   26.4060   41.5420 C   0  0  0  0  0  0  0  0  0  0  0  0
   39.0270   27.1840   42.6010 C   0  0  0  0  0  0  0  0  0  0  0  0
   38.9660   28.2710   42.8230 H   0  0  0  0  0  0  0  0  0  0  0  0
   39.7910   26.6890   43.6770 C   0  0  0  0  0  0  0  0  0  0  0  0
   40.2330   27.1810   44.5300 H   0  0  0  0  0  0  0  0  0  0  0  0
   40.0350   25.3300   43.6660 C   0  0  0  0  0  3  0  0  0  0  0  0
   39.5280   24.5750   42.6350 C   0  0  0  0  0  3  0  0  0  0  0  0
   36.7730   24.2030   40.4170 H   0  0  0  0  0  0  0  0  0  0  0  0
   38.1680   24.0850   40.3170 S   0  0  0  0  0  0  0  0  0  0  0  0
   38.5600   24.5570   38.9670 O   0  0  0  0  0  0  0  0  0  0  0  0
   38.4090   22.6170   40.5600 O   0  0  0  0  0  0  0  0  0  0  0  0
   37.4240   32.3920   39.0180 C   0  0  0  0  0  0  0  0  0  0  0  0
   36.6830   32.4160   39.7570 H   0  0  0  0  0  0  0  0  0  0  0  0
   36.8320   33.1750   38.2450 H   0  0  0  0  0  0  0  0  0  0  0  0
   38.5400   33.1130   39.1590 O   0  0  0  0  0  0  0  0  0  0  0  0
   40.3490   34.1700   40.2910 C   0  0  2  0  0  0  0  0  0  0  0  0
   41.2140   33.1320   40.8510 C   0  0  1  0  0  0  0  0  0  0  0  0
   40.4630   31.8820   40.5640 O   0  0  0  0  0  0  0  0  0  0  0  0
   39.2770   32.2550   41.1860 C   0  0  0  0  0  0  0  0  0  0  0  0
   38.9680   33.6070   40.3250 C   0  0  2  0  0  0  0  0  0  0  0  0
   40.4110   35.1550   40.7830 H   0  0  0  0  0  0  0  0  0  0  0  0
   41.2130   33.1240   41.9660 H   0  0  0  0  0  0  0  0  0  0  0  0
   38.4720   31.5570   40.9750 H   0  0  0  0  0  0  0  0  0  0  0  0
   39.4210   32.5660   42.2190 H   0  0  0  0  0  0  0  0  0  0  0  0
   38.2280   34.0140   41.0360 H   0  0  0  0  0  0  0  0  0  0  0  0
   43.9680   31.6020   39.0120 C   0  0  0  0  0  0  0  0  0  0  0  0
   44.9820   32.5500   39.0770 C   0  0  0  0  0  0  0  0  0  0  0  0
   44.7360   33.7420   39.7740 C   0  0  0  0  0  0  0  0  0  0  0  0
   43.5290   33.9250   40.3520 N   0  0  0  0  0  0  0  0  0  0  0  0
   42.5530   32.9940   40.2800 C   0  0  0  0  0  0  0  0  0  0  0  0
   42.7630   31.8230   39.6090 N   0  0  0  0  0  0  0  0  0  0  0  0
   45.9450   32.3770   38.6000 H   0  0  0  0  0  0  0  0  0  0  0  0
   45.4820   34.5120   39.8580 H   0  0  0  0  0  0  0  0  0  0  0  0
   44.1520   30.3890   38.3310 O   0  0  0  0  0  0  0  0  0  0  0  0
   43.8190   30.4150   37.3600 H   0  0  0  0  0  0  0  0  0  0  0  0
   40.6970   34.3490   38.8880 O   0  0  0  0  0  0  0  0  0  0  0  0
   39.8730   34.2890   38.3440 H   0  0  0  0  0  0  0  0  0  0  0  0
  1  5  1  0  0  0  0
  1 28  1  0  0  0  0
  2  1  1  0  0  0  0
  3  1  1  0  0  0  0
  4 13  1  0  0  0  0
  4  9  1  0  0  0  0
  5  4  2  0  0  0  0
  6  5  1  0  0  0  0
  6  7  2  0  0  0  0
  7  8  1  0  0  0  0
  8  9  2  0  0  0  0
  8 12  1  0  0  0  0
  9 15  1  0  0  0  0
 10  6  1  0  0  0  0
 11  7  1  0  0  0  0
 14 13  1  0  0  0  0
 15 17  1  0  0  0  0
 16 23  1  0  0  0  0
 17 16  2  0  0  0  0
 17 18  1  0  0  0  0
 18 19  1  0  0  0  0
 18 20  2  0  0  0  0
 20 21  1  0  0  0  0
 22 20  1  0  0  0  0
 23 22  2  0  0  0  0
 25 24  1  0  0  0  0
 25 27  2  0  0  0  0
 25 16  1  0  0  0  0
 26 25  2  0  0  0  0
 28 31  1  0  0  0  0
 28 29  1  0  0  0  0
 30 28  1  0  0  0  0
 31 36  1  0  0  0  0
 32 36  1  0  0  0  0
 32 37  1  1  0  0  0
 32 33  1  0  0  0  0
 33 38  1  1  0  0  0
 34 33  1  0  0  0  0
 34 35  1  0  0  0  0
 35 40  1  0  0  0  0
 36 41  1  1  0  0  0
 36 35  1  0  0  0  0
 39 35  1  0  0  0  0
 42 43  2  0  0  0  0
 42 47  1  0  0  0  0
 43 44  1  0  0  0  0
 44 49  1  0  0  0  0
 44 45  2  0  0  0  0
 46 45  1  0  0  0  0
 46 33  1  0  0  0  0
 47 46  2  0  0  0  0
 48 43  1  0  0  0  0
 50 42  1  0  0  0  0
 51 50  1  0  0  0  0
 52 32  1  0  0  0  0
 53 52  1  0  0  0  0
M  END
>  <minimizedAffinity>
-5.71041918

$$$$
