
     RDKit          3D

 52 55  0  0  0  0  0  0  0  0999 V2000
   47.3190   33.6254   42.8388 C   0  0  0  0  0  0  0  0  0  0  0  0
   48.4222   33.4137   43.4399 O   0  0  0  0  0  0  0  0  0  0  0  0
   47.0224   33.1177   41.5464 N   0  0  0  0  0  0  0  0  0  0  0  0
   45.8085   32.4963   41.0223 C   0  0  0  0  0  0  0  0  0  0  0  0
   45.3811   33.1882   39.7350 C   0  0  0  0  0  0  0  0  0  0  0  0
   46.4233   33.0264   38.6766 C   0  0  0  0  0  0  0  0  0  0  0  0
   47.6973   32.4645   39.3060 C   0  0  0  0  0  0  0  0  0  0  0  0
   48.0575   33.1921   40.5423 C   0  0  2  0  0  0  0  0  0  0  0  0
   45.9653   35.6542   42.9240 C   0  0  0  0  0  0  0  0  0  0  0  0
   46.3349   34.4200   43.5150 C   0  0  0  0  0  0  0  0  0  0  0  0
   45.7472   34.0276   44.7027 C   0  0  0  0  0  0  0  0  0  0  0  0
   44.8328   34.8549   45.2510 N   0  0  0  0  0  0  0  0  0  0  0  0
   44.4662   36.0339   44.7059 C   0  0  0  0  0  0  0  0  0  0  0  0
   45.0429   36.4159   43.5433 N   0  0  0  0  0  0  0  0  0  0  0  0
   46.1454   32.7709   45.2820 C   0  0  0  0  0  0  0  0  0  0  0  0
   45.7734   31.5992   44.7152 C   0  0  0  0  0  0  0  0  0  0  0  0
   46.1730   30.4139   45.2934 C   0  0  0  0  0  0  0  0  0  0  0  0
   46.9495   30.3633   46.4452 C   0  0  0  0  0  0  0  0  0  0  0  0
   47.3024   31.5898   46.9845 C   0  0  0  0  0  0  0  0  0  0  0  0
   46.8994   32.7315   46.4005 N   0  0  0  0  0  0  0  0  0  0  0  0
   49.4191   32.7995   41.0360 C   0  0  0  0  0  0  0  0  0  0  0  0
   44.9883   32.6113   41.7695 H   0  0  0  0  0  0  0  0  0  0  0  0
   45.9425   31.4266   40.7807 H   0  0  0  0  0  0  0  0  0  0  0  0
   45.2403   34.2756   39.9927 H   0  0  0  0  0  0  0  0  0  0  0  0
   44.4090   32.7105   39.4489 H   0  0  0  0  0  0  0  0  0  0  0  0
   46.1370   32.3140   37.8899 H   0  0  0  0  0  0  0  0  0  0  0  0
   46.6772   33.9807   38.1599 H   0  0  0  0  0  0  0  0  0  0  0  0
   47.4829   31.3976   39.4638 H   0  0  0  0  0  0  0  0  0  0  0  0
   48.4878   32.6096   38.5460 H   0  0  0  0  0  0  0  0  0  0  0  0
   48.1312   34.2897   40.2475 H   0  0  0  0  0  0  0  0  0  0  0  0
   46.4310   35.9480   41.9970 H   0  0  0  0  0  0  0  0  0  0  0  0
   43.7267   36.6571   45.1893 H   0  0  0  0  0  0  0  0  0  0  0  0
   45.1723   31.4768   43.8283 H   0  0  0  0  0  0  0  0  0  0  0  0
   45.9118   29.4404   44.8935 H   0  0  0  0  0  0  0  0  0  0  0  0
   47.2518   29.4069   46.8838 H   0  0  0  0  0  0  0  0  0  0  0  0
   47.9127   31.5776   47.8910 H   0  0  0  0  0  0  0  0  0  0  0  0
   49.8030   33.5744   41.7699 H   0  0  0  0  0  0  0  0  0  0  0  0
   49.4897   31.7993   41.4734 H   0  0  0  0  0  0  0  0  0  0  0  0
   51.6137   31.7749   42.4686 H   0  0  0  0  0  0  0  0  0  0  0  0
   52.3233   31.5163   41.3185 S   0  0  0  0  0  0  0  0  0  0  0  0
   53.7183   32.0669   41.5979 O   0  0  0  0  0  0  0  0  0  0  0  0
   52.5535   30.0315   41.1176 O   0  0  0  0  0  0  0  0  0  0  0  0
   51.6872   32.2946   39.9142 C   0  0  0  0  0  0  0  0  0  0  0  0
   50.4410   32.8649   39.9374 C   0  0  0  0  0  0  0  0  0  0  0  0
   50.1067   33.5167   38.7391 C   0  0  0  0  0  0  0  0  0  0  0  0
   49.1231   34.0064   38.6661 H   0  0  0  0  0  0  0  0  0  0  0  0
   50.8959   33.6133   37.6124 C   0  0  0  0  0  0  0  0  0  0  0  0
   50.5408   34.1395   36.7387 H   0  0  0  0  0  0  0  0  0  0  0  0
   52.1333   33.0091   37.6734 C   0  0  0  0  0  0  0  0  0  0  0  0
   52.5035   32.3656   38.8157 C   0  0  0  0  0  0  0  0  0  0  0  0
   52.7741   33.0661   36.8059 H   0  0  0  0  0  0  0  0  0  0  0  0
   53.4814   31.9081   38.8148 H   0  0  0  0  0  0  0  0  0  0  0  0
  1  2  2  0
  1 10  1  0
  3  1  1  0
  4  3  1  0
  5  4  1  0
  6  7  1  0
  6  5  1  0
  7  8  1  0
  8 21  1  0
  8  3  1  0
  9 10  2  0
  9 14  1  0
 10 11  1  0
 11 12  2  0
 11 15  1  0
 13 12  1  0
 14 13  2  0
 15 20  1  0
 16 15  2  0
 16 17  1  0
 17 18  2  0
 18 19  1  0
 20 19  2  0
  4 22  1  0
  4 23  1  0
  5 24  1  0
  5 25  1  0
  6 26  1  0
  6 27  1  0
  7 28  1  0
  7 29  1  0
  8 30  1  6
  9 31  1  0
 13 32  1  0
 16 33  1  0
 17 34  1  0
 18 35  1  0
 19 36  1  0
 21 37  1  0
 21 38  1  0
 39 40  1  0
 40 41  2  0
 40 42  2  0
 40 43  1  0
 43 44  2  0
 44 45  1  0
 45 46  1  0
 45 47  2  0
 47 48  1  0
 47 49  1  0
 49 50  2  0
 50 43  1  0
 49 51  1  0
 50 52  1  0
 21 44  1  0
M  ISO  8  22  13  23  13  24  13  25  13  26  13  27  13  28  13  29  13
M  ISO  8  30  13  31  14  32  14  33  14  34  14  35  14  36  14  37   8
M  ISO  4  38   8  39  12  46  15  48  16
M  END
>  <DihAtoms>  (1) 
7,20,43,42

>  <DihDeg>  (1) 
-88.24539851096176

$$$$
