
     RDKit          3D

 43 47  0  0  0  0  0  0  0  0999 V2000
   45.5037   34.8321   43.5360 C   0  0  0  0  0  0  0  0  0  0  0  0
   46.2126   33.7490   44.1137 C   0  0  0  0  0  0  0  0  0  0  0  0
   46.0284   33.5194   45.4667 C   0  0  0  0  0  0  0  0  0  0  0  0
   45.1963   34.3256   46.1564 N   0  0  0  0  0  0  0  0  0  0  0  0
   44.5286   35.3562   45.5813 C   0  0  0  0  0  0  0  0  0  0  0  0
   44.6883   35.5967   44.2865 N   0  0  0  0  0  0  0  0  0  0  0  0
   46.9810   32.6761   47.5429 C   0  0  0  0  0  0  0  0  0  0  0  0
   46.6854   32.4456   46.2053 C   0  0  0  0  0  0  0  0  0  0  0  0
   47.0261   31.2304   45.6642 C   0  0  0  0  0  0  0  0  0  0  0  0
   47.6443   30.2409   46.3913 C   0  0  0  0  0  0  0  0  0  0  0  0
   48.0672   28.9966   46.0834 N   0  0  0  0  0  0  0  0  0  0  0  0
   48.6250   28.4591   47.2345 C   0  0  0  0  0  0  0  0  0  0  0  0
   48.5327   29.3711   48.2060 N   0  0  0  0  0  0  0  0  0  0  0  0
   47.9364   30.4691   47.7139 C   0  0  0  0  0  0  0  0  0  0  0  0
   47.6066   31.6804   48.2871 C   0  0  0  0  0  0  0  0  0  0  0  0
   45.6920   35.0621   42.1678 O   0  0  0  0  0  0  0  0  0  0  0  0
   44.6155   34.9200   41.2936 C   0  0  0  0  0  0  0  0  0  0  0  0
   45.0152   33.8317   40.6092 C   0  0  0  0  0  0  0  0  0  0  0  0
   43.5594   33.6017   39.4025 S   0  0  0  0  0  0  0  0  0  0  0  0
   42.7174   35.1028   40.1454 C   0  0  0  0  0  0  0  0  0  0  0  0
   43.4529   35.3844   40.9001 N   0  0  0  0  0  0  0  0  0  0  0  0
   46.8806   33.1011   43.5625 H   0  0  0  0  0  0  0  0  0  0  0  0
   43.8725   35.9633   46.2091 H   0  0  0  0  0  0  0  0  0  0  0  0
   46.7423   33.6117   48.0404 H   0  0  0  0  0  0  0  0  0  0  0  0
   46.7810   31.0778   44.6092 H   0  0  0  0  0  0  0  0  0  0  0  0
   47.9900   28.5236   45.1513 H   0  0  0  0  0  0  0  0  0  0  0  0
   49.0593   27.4674   47.3217 H   0  0  0  0  0  0  0  0  0  0  0  0
   47.8227   31.8951   49.3303 H   0  0  0  0  0  0  0  0  0  0  0  0
   45.6968   32.8694   40.2302 H   0  0  0  0  0  0  0  0  0  0  0  0
   41.4712   36.1809   42.9163 H   0  0  0  0  0  0  0  0  0  0  0  0
   41.2396   37.1421   41.9988 S   0  0  0  0  0  0  0  0  0  0  0  0
   40.1124   37.9962   42.5414 O   0  0  0  0  0  0  0  0  0  0  0  0
   42.3906   38.0947   41.7997 O   0  0  0  0  0  0  0  0  0  0  0  0
   40.6858   36.5355   40.4586 C   0  0  0  0  0  0  0  0  0  0  0  0
   41.3751   35.6503   39.7033 C   0  0  0  0  0  0  0  0  0  0  0  0
   40.9629   35.1692   38.5097 C   0  0  0  0  0  0  0  0  0  0  0  0
   41.5541   34.4476   37.9233 H   0  0  0  0  0  0  0  0  0  0  0  0
   39.7599   35.6137   38.0359 C   0  0  0  0  0  0  0  0  0  0  0  0
   39.4272   35.2275   37.0760 H   0  0  0  0  0  0  0  0  0  0  0  0
   38.9565   36.5104   38.6963 C   0  0  0  0  0  0  0  0  0  0  0  0
   39.4635   36.9414   39.9028 C   0  0  0  0  0  0  0  0  0  0  0  0
   38.0130   36.8750   38.3507 H   0  0  0  0  0  0  0  0  0  0  0  0
   38.8710   37.6508   40.4681 H   0  0  0  0  0  0  0  0  0  0  0  0
  1  2  2  0
  1  6  1  0
  2  3  1  0
  3  4  2  0
  3  8  1  0
  5  4  1  0
  6  5  2  0
  7 15  2  0
  8  7  1  0
  9  8  2  0
  9 10  1  0
 10 14  2  0
 11 10  1  0
 11 12  1  0
 12 13  2  0
 14 13  1  0
 14 15  1  0
 16  1  1  0
 17 16  1  0
 18 17  2  0
 19 20  1  0
 19 18  1  0
 20 21  2  0
 21 17  1  0
  2 22  1  0
  5 23  1  0
  7 24  1  0
  9 25  1  0
 11 26  1  0
 12 27  1  0
 15 28  1  0
 18 29  1  0
 30 31  1  0
 31 32  2  0
 31 33  2  0
 31 34  1  0
 34 35  2  0
 35 36  1  0
 36 37  1  0
 36 38  2  0
 38 39  1  0
 38 40  1  0
 40 41  2  0
 41 34  1  0
 40 42  1  0
 41 43  1  0
 20 35  1  0
M  ISO  8  22  14  23  14  24  14  25  14  26   9  27  14  28  14  29  14
M  ISO  3  30  12  37  15  39  16
M  END
>  <DihAtoms>  (1) 
18,19,34,33

>  <DihDeg>  (1) 
-0.1019970802933386

$$$$
