
 OpenBabel03252500223D

 39 41  0  0  1  0  0  0  0  0999 V2000
   36.2050   28.9700   39.4670 C   0  0  1  0  0  0  0  0  0  0  0  0
   35.7780   29.2180   38.0180 C   0  0  0  0  0  0  0  0  0  0  0  0
   35.3090   28.0740   37.2280 C   0  0  0  0  0  0  0  0  0  0  0  0
   35.3530   26.7370   37.9240 C   0  0  0  0  0  0  0  0  0  0  0  0
   36.7290   26.7360   38.6520 C   0  0  0  0  0  0  0  0  0  0  0  0
   36.5280   27.5890   39.8290 C   0  0  1  0  0  0  0  0  0  0  0  0
   35.2700   29.4250   39.9400 H   0  0  0  0  0  0  0  0  0  0  0  0
   35.8260   30.1940   37.6110 H   0  0  0  0  0  0  0  0  0  0  0  0
   35.0210   28.2950   36.2350 H   0  0  0  0  0  0  0  0  0  0  0  0
   35.4300   26.0110   37.1020 H   0  0  0  0  0  0  0  0  0  0  0  0
   34.5320   26.5900   38.6270 H   0  0  0  0  0  0  0  0  0  0  0  0
   37.3850   27.1770   37.8650 H   0  0  0  0  0  0  0  0  0  0  0  0
   36.8460   25.6800   38.8030 H   0  0  0  0  0  0  0  0  0  0  0  0
   35.5050   27.1770   40.2010 H   0  0  0  0  0  0  0  0  0  0  0  0
   38.4670   29.9840   39.1020 C   0  0  0  0  0  0  0  0  0  0  0  0
   37.2340   29.9980   39.7500 C   0  0  0  0  0  0  0  0  0  0  0  0
   37.0500   30.9940   40.7300 C   0  0  0  0  0  0  0  0  0  0  0  0
   38.0430   31.8710   41.0020 N   0  0  0  0  0  0  0  0  0  0  0  0
   39.2230   31.7960   40.3280 C   0  0  0  0  0  0  0  0  0  0  0  0
   39.4240   30.8500   39.3830 N   0  0  0  0  0  0  0  0  0  0  0  0
   40.2590   32.7100   40.5930 N   0  0  0  0  0  0  0  0  0  0  0  0
   38.7100   29.2880   38.3240 H   0  0  0  0  0  0  0  0  0  0  0  0
   41.2490   32.5240   40.3730 H   0  0  0  0  0  0  0  0  0  0  0  0
   40.0440   33.6470   41.0420 H   0  0  0  0  0  0  0  0  0  0  0  0
   35.7830   31.0490   41.3770 N   0  0  0  0  0  0  0  0  0  0  0  0
   35.6460   30.4870   42.2480 H   0  0  0  0  0  0  0  0  0  0  0  0
   35.1260   31.6710   40.8740 H   0  0  0  0  0  0  0  0  0  0  0  0
   38.6210   27.3060   41.2850 C   0  0  0  0  0  0  0  0  0  0  0  0
   37.2790   27.5430   41.0510 C   0  0  0  0  0  0  0  0  0  0  0  0
   36.4670   27.8180   42.1690 C   0  0  0  0  0  0  0  0  0  0  0  0
   35.3830   28.0260   42.1400 H   0  0  0  0  0  0  0  0  0  0  0  0
   36.9480   27.8590   43.4490 C   0  0  0  0  0  0  0  0  0  0  0  0
   36.3530   28.0660   44.3270 H   0  0  0  0  0  0  0  0  0  0  0  0
   38.2800   27.6240   43.6800 C   0  0  0  0  0  3  0  0  0  0  0  0
   39.0770   27.3540   42.5910 C   0  0  0  0  0  3  0  0  0  0  0  0
   38.9260   26.8320   38.7510 H   0  0  0  0  0  0  0  0  0  0  0  0
   39.6000   26.9390   39.9620 S   0  0  0  0  0  0  0  0  0  0  0  0
   40.9730   27.4380   39.8890 O   0  0  0  0  0  0  0  0  0  0  0  0
   39.9330   25.4330   40.0920 O   0  0  0  0  0  0  0  0  0  0  0  0
  1 16  1  0  0  0  0
  1  6  1  0  0  0  0
  1  7  1  1  0  0  0
  2  1  1  0  0  0  0
  3  4  1  0  0  0  0
  3  2  2  0  0  0  0
  4 11  1  0  0  0  0
  4  5  1  0  0  0  0
  5 13  1  0  0  0  0
  5  6  1  0  0  0  0
  6 14  1  1  0  0  0
  6 29  1  0  0  0  0
  8  2  1  0  0  0  0
  9  3  1  0  0  0  0
 10  4  1  0  0  0  0
 12  5  1  0  0  0  0
 15 20  2  0  0  0  0
 15 16  1  0  0  0  0
 16 17  2  0  0  0  0
 17 18  1  0  0  0  0
 17 25  1  0  0  0  0
 19 21  1  0  0  0  0
 19 18  2  0  0  0  0
 20 19  1  0  0  0  0
 21 24  1  0  0  0  0
 22 15  1  0  0  0  0
 23 21  1  0  0  0  0
 25 26  1  0  0  0  0
 27 25  1  0  0  0  0
 28 35  1  0  0  0  0
 29 28  2  0  0  0  0
 29 30  1  0  0  0  0
 30 32  2  0  0  0  0
 31 30  1  0  0  0  0
 32 34  1  0  0  0  0
 32 33  1  0  0  0  0
 35 34  2  0  0  0  0
 36 37  1  0  0  0  0
 37 39  2  0  0  0  0
 37 28  1  0  0  0  0
 38 37  2  0  0  0  0
M  END
>  <minimizedAffinity>
-6.02317619

$$$$

 OpenBabel03252500223D

 39 41  0  0  1  0  0  0  0  0999 V2000
   35.8480   29.0530   39.1590 C   0  0  1  0  0  0  0  0  0  0  0  0
   34.7240   29.2060   38.1300 C   0  0  0  0  0  0  0  0  0  0  0  0
   34.3170   28.0210   37.3670 C   0  0  0  0  0  0  0  0  0  0  0  0
   35.1060   26.7640   37.6410 C   0  0  0  0  0  0  0  0  0  0  0  0
   36.5840   27.2510   37.6970 C   0  0  0  0  0  0  0  0  0  0  0  0
   36.7180   27.8850   39.0130 C   0  0  1  0  0  0  0  0  0  0  0  0
   35.1660   29.0810   40.0760 H   0  0  0  0  0  0  0  0  0  0  0  0
   34.2630   30.1470   37.9850 H   0  0  0  0  0  0  0  0  0  0  0  0
   33.5360   28.1730   36.6730 H   0  0  0  0  0  0  0  0  0  0  0  0
   35.0010   26.1770   36.7180 H   0  0  0  0  0  0  0  0  0  0  0  0
   34.8170   26.2680   38.5690 H   0  0  0  0  0  0  0  0  0  0  0  0
   36.6060   27.9590   36.8350 H   0  0  0  0  0  0  0  0  0  0  0  0
   37.0820   26.3150   37.5290 H   0  0  0  0  0  0  0  0  0  0  0  0
   36.1870   27.0870   39.6740 H   0  0  0  0  0  0  0  0  0  0  0  0
   37.2220   30.8780   38.1290 C   0  0  0  0  0  0  0  0  0  0  0  0
   36.5060   30.3790   39.2150 C   0  0  0  0  0  0  0  0  0  0  0  0
   36.5020   31.1710   40.3810 C   0  0  0  0  0  0  0  0  0  0  0  0
   37.1720   32.3450   40.4080 N   0  0  0  0  0  0  0  0  0  0  0  0
   37.8520   32.7670   39.3070 C   0  0  0  0  0  0  0  0  0  0  0  0
   37.8710   32.0270   38.1760 N   0  0  0  0  0  0  0  0  0  0  0  0
   38.5430   33.9930   39.3190 N   0  0  0  0  0  0  0  0  0  0  0  0
   37.2750   30.3740   37.1840 H   0  0  0  0  0  0  0  0  0  0  0  0
   39.3150   34.2140   38.6710 H   0  0  0  0  0  0  0  0  0  0  0  0
   38.2820   34.7470   40.0170 H   0  0  0  0  0  0  0  0  0  0  0  0
   35.7440   30.6980   41.4900 N   0  0  0  0  0  0  0  0  0  0  0  0
   36.2180   30.0770   42.1860 H   0  0  0  0  0  0  0  0  0  0  0  0
   34.7710   31.0470   41.4620 H   0  0  0  0  0  0  0  0  0  0  0  0
   38.2020   27.9310   41.1040 C   0  0  0  0  0  0  0  0  0  0  0  0
   37.9350   28.0580   39.7540 C   0  0  0  0  0  0  0  0  0  0  0  0
   39.0140   28.3870   38.9090 C   0  0  0  0  0  0  0  0  0  0  0  0
   38.9540   28.5210   37.8150 H   0  0  0  0  0  0  0  0  0  0  0  0
   40.2880   28.5800   39.3670 C   0  0  0  0  0  0  0  0  0  0  0  0
   41.1360   28.8320   38.7470 H   0  0  0  0  0  0  0  0  0  0  0  0
   40.5520   28.4540   40.7080 C   0  0  0  0  0  3  0  0  0  0  0  0
   39.5020   28.1330   41.5370 C   0  0  0  0  0  3  0  0  0  0  0  0
   35.6860   28.0790   41.7260 H   0  0  0  0  0  0  0  0  0  0  0  0
   36.9150   27.5750   42.1340 S   0  0  0  0  0  0  0  0  0  0  0  0
   36.8770   26.3110   42.8690 O   0  0  0  0  0  0  0  0  0  0  0  0
   37.0780   28.5170   43.3510 O   0  0  0  0  0  0  0  0  0  0  0  0
  1 16  1  0  0  0  0
  1  7  1  1  0  0  0
  2  1  1  0  0  0  0
  3  4  1  0  0  0  0
  3  2  2  0  0  0  0
  4  5  1  0  0  0  0
  4 11  1  0  0  0  0
  5  6  1  0  0  0  0
  6  1  1  0  0  0  0
  6 14  1  1  0  0  0
  6 29  1  0  0  0  0
  8  2  1  0  0  0  0
  9  3  1  0  0  0  0
 10  4  1  0  0  0  0
 12  5  1  0  0  0  0
 13  5  1  0  0  0  0
 15 20  2  0  0  0  0
 15 16  1  0  0  0  0
 16 17  2  0  0  0  0
 17 18  1  0  0  0  0
 17 25  1  0  0  0  0
 19 21  1  0  0  0  0
 19 18  2  0  0  0  0
 20 19  1  0  0  0  0
 21 24  1  0  0  0  0
 22 15  1  0  0  0  0
 23 21  1  0  0  0  0
 25 26  1  0  0  0  0
 27 25  1  0  0  0  0
 28 35  1  0  0  0  0
 28 37  1  0  0  0  0
 29 28  2  0  0  0  0
 30 32  2  0  0  0  0
 30 29  1  0  0  0  0
 31 30  1  0  0  0  0
 32 34  1  0  0  0  0
 33 32  1  0  0  0  0
 34 35  2  0  0  0  0
 36 37  1  0  0  0  0
 37 38  2  0  0  0  0
 37 39  2  0  0  0  0
M  END
>  <minimizedAffinity>
-5.78291082

$$$$

 OpenBabel03252500223D

 39 41  0  0  1  0  0  0  0  0999 V2000
   40.5230   30.2070   40.1010 C   0  0  1  0  0  0  0  0  0  0  0  0
   41.6940   29.4240   40.7020 C   0  0  0  0  0  0  0  0  0  0  0  0
   41.5300   28.8520   42.0430 C   0  0  0  0  0  0  0  0  0  0  0  0
   40.2190   29.1520   42.7260 C   0  0  0  0  0  0  0  0  0  0  0  0
   39.9760   30.6610   42.4300 C   0  0  0  0  0  0  0  0  0  0  0  0
   39.5120   30.6970   41.0380 C   0  0  1  0  0  0  0  0  0  0  0  0
   40.2020   29.3870   39.3730 H   0  0  0  0  0  0  0  0  0  0  0  0
   42.5910   29.3070   40.1530 H   0  0  0  0  0  0  0  0  0  0  0  0
   42.3620   28.3170   42.4140 H   0  0  0  0  0  0  0  0  0  0  0  0
   40.4510   29.0740   43.7970 H   0  0  0  0  0  0  0  0  0  0  0  0
   39.3930   28.5380   42.3610 H   0  0  0  0  0  0  0  0  0  0  0  0
   40.9980   31.0750   42.5890 H   0  0  0  0  0  0  0  0  0  0  0  0
   39.2690   30.8800   43.2080 H   0  0  0  0  0  0  0  0  0  0  0  0
   38.7410   29.8250   41.0620 H   0  0  0  0  0  0  0  0  0  0  0  0
   41.9910   32.1950   39.6910 C   0  0  0  0  0  0  0  0  0  0  0  0
   41.1450   31.2040   39.1990 C   0  0  0  0  0  0  0  0  0  0  0  0
   40.8630   31.2470   37.8190 C   0  0  0  0  0  0  0  0  0  0  0  0
   41.4020   32.2160   37.0450 N   0  0  0  0  0  0  0  0  0  0  0  0
   42.2190   33.1530   37.5970 C   0  0  0  0  0  0  0  0  0  0  0  0
   42.5060   33.1340   38.9180 N   0  0  0  0  0  0  0  0  0  0  0  0
   42.7950   34.1590   36.8000 N   0  0  0  0  0  0  0  0  0  0  0  0
   42.2930   32.2480   40.7180 H   0  0  0  0  0  0  0  0  0  0  0  0
   43.1410   35.0540   37.1790 H   0  0  0  0  0  0  0  0  0  0  0  0
   42.8920   34.0230   35.7520 H   0  0  0  0  0  0  0  0  0  0  0  0
   40.0310   30.2190   37.2890 N   0  0  0  0  0  0  0  0  0  0  0  0
   38.9980   30.3770   37.2740 H   0  0  0  0  0  0  0  0  0  0  0  0
   40.5870   29.4060   36.9710 H   0  0  0  0  0  0  0  0  0  0  0  0
   37.6050   31.6480   39.6100 C   0  0  0  0  0  0  0  0  0  0  0  0
   38.7110   31.7250   40.4350 C   0  0  0  0  0  0  0  0  0  0  0  0
   39.1580   33.0100   40.8000 C   0  0  0  0  0  0  0  0  0  0  0  0
   40.0230   33.2290   41.4490 H   0  0  0  0  0  0  0  0  0  0  0  0
   38.5490   34.1600   40.3770 C   0  0  0  0  0  0  0  0  0  0  0  0
   38.8650   35.1600   40.6380 H   0  0  0  0  0  0  0  0  0  0  0  0
   37.4510   34.0820   39.5580 C   0  0  0  0  0  3  0  0  0  0  0  0
   37.0110   32.8290   39.1980 C   0  0  0  0  0  3  0  0  0  0  0  0
   38.0470   29.1220   39.2040 H   0  0  0  0  0  0  0  0  0  0  0  0
   37.0790   30.1180   39.1330 S   0  0  0  0  0  0  0  0  0  0  0  0
   35.7030   29.6920   39.3810 O   0  0  0  0  0  0  0  0  0  0  0  0
   37.0090   30.1610   37.5880 O   0  0  0  0  0  0  0  0  0  0  0  0
  1  7  1  6  0  0  0
  1  2  1  0  0  0  0
  1  6  1  0  0  0  0
  2  3  2  0  0  0  0
  3  9  1  0  0  0  0
  3  4  1  0  0  0  0
  4 10  1  0  0  0  0
  5 12  1  0  0  0  0
  5  4  1  0  0  0  0
  5 13  1  0  0  0  0
  6 14  1  6  0  0  0
  6  5  1  0  0  0  0
  8  2  1  0  0  0  0
 11  4  1  0  0  0  0
 15 22  1  0  0  0  0
 16 15  1  0  0  0  0
 16  1  1  0  0  0  0
 17 16  2  0  0  0  0
 18 19  2  0  0  0  0
 18 17  1  0  0  0  0
 19 20  1  0  0  0  0
 20 15  2  0  0  0  0
 21 23  1  0  0  0  0
 21 19  1  0  0  0  0
 24 21  1  0  0  0  0
 25 17  1  0  0  0  0
 26 25  1  0  0  0  0
 27 25  1  0  0  0  0
 28 29  1  0  0  0  0
 29 30  2  0  0  0  0
 29  6  1  0  0  0  0
 30 31  1  0  0  0  0
 32 33  1  0  0  0  0
 32 30  1  0  0  0  0
 34 32  2  0  0  0  0
 35 34  1  0  0  0  0
 35 28  2  0  0  0  0
 37 36  1  0  0  0  0
 37 38  2  0  0  0  0
 37 28  1  0  0  0  0
 39 37  2  0  0  0  0
M  END
>  <minimizedAffinity>
-5.69542933

$$$$

 OpenBabel03252500223D

 39 41  0  0  1  0  0  0  0  0999 V2000
   38.3070   28.6070   40.8450 C   0  0  1  0  0  0  0  0  0  0  0  0
   39.1880   28.8130   42.0800 C   0  0  0  0  0  0  0  0  0  0  0  0
   39.0800   27.8470   43.1790 C   0  0  0  0  0  0  0  0  0  0  0  0
   38.0470   26.7630   42.9960 C   0  0  0  0  0  0  0  0  0  0  0  0
   36.8090   27.5130   42.4230 C   0  0  0  0  0  0  0  0  0  0  0  0
   37.1350   27.7450   41.0110 C   0  0  1  0  0  0  0  0  0  0  0  0
   39.1450   28.2180   40.1720 H   0  0  0  0  0  0  0  0  0  0  0  0
   39.8530   29.6360   42.1250 H   0  0  0  0  0  0  0  0  0  0  0  0
   39.7100   28.0280   44.0070 H   0  0  0  0  0  0  0  0  0  0  0  0
   37.7890   26.4650   44.0220 H   0  0  0  0  0  0  0  0  0  0  0  0
   38.3730   25.9660   42.3260 H   0  0  0  0  0  0  0  0  0  0  0  0
   36.8060   28.4310   43.0570 H   0  0  0  0  0  0  0  0  0  0  0  0
   36.0460   26.7960   42.6580 H   0  0  0  0  0  0  0  0  0  0  0  0
   37.5480   26.6940   40.7270 H   0  0  0  0  0  0  0  0  0  0  0  0
   37.4220   30.9410   41.0560 C   0  0  0  0  0  0  0  0  0  0  0  0
   38.0720   29.9650   40.3040 C   0  0  0  0  0  0  0  0  0  0  0  0
   38.4270   30.3210   38.9870 C   0  0  0  0  0  0  0  0  0  0  0  0
   38.1330   31.5520   38.5130 N   0  0  0  0  0  0  0  0  0  0  0  0
   37.4940   32.4540   39.3070 C   0  0  0  0  0  0  0  0  0  0  0  0
   37.1430   32.1380   40.5740 N   0  0  0  0  0  0  0  0  0  0  0  0
   37.1930   33.7430   38.8290 N   0  0  0  0  0  0  0  0  0  0  0  0
   37.1260   30.7910   42.0750 H   0  0  0  0  0  0  0  0  0  0  0  0
   36.4560   34.3390   39.2340 H   0  0  0  0  0  0  0  0  0  0  0  0
   37.7340   34.1500   38.0120 H   0  0  0  0  0  0  0  0  0  0  0  0
   39.1270   29.3510   38.2140 N   0  0  0  0  0  0  0  0  0  0  0  0
   38.5680   28.6780   37.6390 H   0  0  0  0  0  0  0  0  0  0  0  0
   40.1510   29.4410   38.3270 H   0  0  0  0  0  0  0  0  0  0  0  0
   36.1110   27.3710   38.6900 C   0  0  0  0  0  0  0  0  0  0  0  0
   36.1970   27.9460   39.9440 C   0  0  0  0  0  0  0  0  0  0  0  0
   35.2010   28.8790   40.2970 C   0  0  0  0  0  0  0  0  0  0  0  0
   35.1390   29.4170   41.2590 H   0  0  0  0  0  0  0  0  0  0  0  0
   34.1750   29.2270   39.4630 C   0  0  0  0  0  0  0  0  0  0  0  0
   33.3970   29.9380   39.7030 H   0  0  0  0  0  0  0  0  0  0  0  0
   34.0900   28.6550   38.2190 C   0  0  0  0  0  3  0  0  0  0  0  0
   35.0610   27.7450   37.8690 C   0  0  0  0  0  3  0  0  0  0  0  0
   38.4560   26.3110   39.0290 H   0  0  0  0  0  0  0  0  0  0  0  0
   37.3150   26.2810   38.2360 S   0  0  0  0  0  0  0  0  0  0  0  0
   36.9660   24.9800   37.6650 O   0  0  0  0  0  0  0  0  0  0  0  0
   37.9790   26.8880   36.9780 O   0  0  0  0  0  0  0  0  0  0  0  0
  1  7  1  6  0  0  0
  1  6  1  0  0  0  0
  1  2  1  0  0  0  0
  2  8  1  0  0  0  0
  2  3  2  0  0  0  0
  3  9  1  0  0  0  0
  4  3  1  0  0  0  0
  4 10  1  0  0  0  0
  5 13  1  0  0  0  0
  5  4  1  0  0  0  0
  5 12  1  0  0  0  0
  6 14  1  6  0  0  0
  6  5  1  0  0  0  0
 11  4  1  0  0  0  0
 15 22  1  0  0  0  0
 16  1  1  0  0  0  0
 16 15  2  0  0  0  0
 17 16  1  0  0  0  0
 18 17  2  0  0  0  0
 18 19  1  0  0  0  0
 19 20  2  0  0  0  0
 20 15  1  0  0  0  0
 21 23  1  0  0  0  0
 21 19  1  0  0  0  0
 24 21  1  0  0  0  0
 25 27  1  0  0  0  0
 25 17  1  0  0  0  0
 26 25  1  0  0  0  0
 28 29  1  0  0  0  0
 29 30  2  0  0  0  0
 29  6  1  0  0  0  0
 30 31  1  0  0  0  0
 32 33  1  0  0  0  0
 32 30  1  0  0  0  0
 34 32  2  0  0  0  0
 35 34  1  0  0  0  0
 35 28  2  0  0  0  0
 37 28  1  0  0  0  0
 37 36  1  0  0  0  0
 38 37  2  0  0  0  0
 39 37  2  0  0  0  0
M  END
>  <minimizedAffinity>
-5.59800673

$$$$

 OpenBabel03252500223D

 39 41  0  0  1  0  0  0  0  0999 V2000
   38.2470   28.8950   41.8780 C   0  0  1  0  0  0  0  0  0  0  0  0
   37.3700   28.7950   43.1300 C   0  0  0  0  0  0  0  0  0  0  0  0
   36.8520   27.4760   43.5100 C   0  0  0  0  0  0  0  0  0  0  0  0
   37.1970   26.3440   42.5750 C   0  0  0  0  0  0  0  0  0  0  0  0
   36.9780   26.9460   41.1560 C   0  0  0  0  0  0  0  0  0  0  0  0
   38.1560   27.7900   40.9240 C   0  0  1  0  0  0  0  0  0  0  0  0
   39.2340   29.0150   42.4420 H   0  0  0  0  0  0  0  0  0  0  0  0
   37.1520   29.6630   43.6950 H   0  0  0  0  0  0  0  0  0  0  0  0
   36.2570   27.4560   44.3830 H   0  0  0  0  0  0  0  0  0  0  0  0
   36.3940   25.6110   42.7350 H   0  0  0  0  0  0  0  0  0  0  0  0
   38.2190   25.9800   42.6980 H   0  0  0  0  0  0  0  0  0  0  0  0
   36.0270   27.5080   41.3100 H   0  0  0  0  0  0  0  0  0  0  0  0
   36.8830   26.0370   40.5930 H   0  0  0  0  0  0  0  0  0  0  0  0
   38.9930   27.0670   41.2880 H   0  0  0  0  0  0  0  0  0  0  0  0
   36.7680   30.6490   40.8720 C   0  0  0  0  0  0  0  0  0  0  0  0
   38.0170   30.2600   41.3520 C   0  0  0  0  0  0  0  0  0  0  0  0
   39.0540   31.2080   41.2430 C   0  0  0  0  0  0  0  0  0  0  0  0
   38.8130   32.4200   40.6940 N   0  0  0  0  0  0  0  0  0  0  0  0
   37.5660   32.7290   40.2460 C   0  0  0  0  0  0  0  0  0  0  0  0
   36.5530   31.8390   40.3380 N   0  0  0  0  0  0  0  0  0  0  0  0
   37.3000   33.9910   39.6830 N   0  0  0  0  0  0  0  0  0  0  0  0
   35.9010   30.0210   40.9240 H   0  0  0  0  0  0  0  0  0  0  0  0
   36.5050   34.1740   39.0520 H   0  0  0  0  0  0  0  0  0  0  0  0
   37.9300   34.8170   39.8990 H   0  0  0  0  0  0  0  0  0  0  0  0
   40.3290   30.8440   41.7620 N   0  0  0  0  0  0  0  0  0  0  0  0
   41.0060   30.3660   41.1240 H   0  0  0  0  0  0  0  0  0  0  0  0
   40.4260   31.1130   42.7570 H   0  0  0  0  0  0  0  0  0  0  0  0
   38.0610   28.4990   38.4600 C   0  0  0  0  0  0  0  0  0  0  0  0
   38.6900   28.1720   39.6470 C   0  0  0  0  0  0  0  0  0  0  0  0
   40.0980   28.2320   39.6710 C   0  0  0  0  0  0  0  0  0  0  0  0
   40.7350   28.0000   40.5420 H   0  0  0  0  0  0  0  0  0  0  0  0
   40.8470   28.5950   38.5870 C   0  0  0  0  0  0  0  0  0  0  0  0
   41.9270   28.6510   38.5720 H   0  0  0  0  0  0  0  0  0  0  0  0
   40.2230   28.9200   37.4090 C   0  0  0  0  0  3  0  0  0  0  0  0
   38.8480   28.8620   37.3810 C   0  0  0  0  0  3  0  0  0  0  0  0
   35.7920   27.8310   39.5290 H   0  0  0  0  0  0  0  0  0  0  0  0
   36.3790   28.3960   38.4030 S   0  0  0  0  0  0  0  0  0  0  0  0
   35.5930   29.4200   37.7160 O   0  0  0  0  0  0  0  0  0  0  0  0
   36.0630   27.2180   37.4510 O   0  0  0  0  0  0  0  0  0  0  0  0
  1  7  1  1  0  0  0
  1  2  1  0  0  0  0
  2  3  2  0  0  0  0
  2  8  1  0  0  0  0
  3  9  1  0  0  0  0
  4 11  1  0  0  0  0
  4 10  1  0  0  0  0
  4  3  1  0  0  0  0
  5 12  1  0  0  0  0
  5  4  1  0  0  0  0
  6  5  1  0  0  0  0
  6 14  1  1  0  0  0
  6  1  1  0  0  0  0
 13  5  1  0  0  0  0
 15 22  1  0  0  0  0
 15 16  1  0  0  0  0
 16  1  1  0  0  0  0
 17 16  2  0  0  0  0
 17 25  1  0  0  0  0
 18 17  1  0  0  0  0
 19 20  1  0  0  0  0
 19 18  2  0  0  0  0
 20 15  2  0  0  0  0
 21 24  1  0  0  0  0
 21 19  1  0  0  0  0
 23 21  1  0  0  0  0
 25 27  1  0  0  0  0
 26 25  1  0  0  0  0
 28 29  1  0  0  0  0
 29 30  2  0  0  0  0
 29  6  1  0  0  0  0
 30 31  1  0  0  0  0
 32 30  1  0  0  0  0
 33 32  1  0  0  0  0
 34 32  2  0  0  0  0
 35 34  1  0  0  0  0
 35 28  2  0  0  0  0
 37 28  1  0  0  0  0
 37 36  1  0  0  0  0
 38 37  2  0  0  0  0
 39 37  2  0  0  0  0
M  END
>  <minimizedAffinity>
-5.46965456

$$$$

 OpenBabel03252500223D

 39 41  0  0  1  0  0  0  0  0999 V2000
   38.5080   28.5740   40.6650 C   0  0  1  0  0  0  0  0  0  0  0  0
   38.9660   28.6830   42.1220 C   0  0  0  0  0  0  0  0  0  0  0  0
   38.8450   27.4970   42.9780 C   0  0  0  0  0  0  0  0  0  0  0  0
   38.2140   26.2880   42.3340 C   0  0  0  0  0  0  0  0  0  0  0  0
   37.0070   26.8690   41.5420 C   0  0  0  0  0  0  0  0  0  0  0  0
   37.6020   27.4710   40.3430 C   0  0  1  0  0  0  0  0  0  0  0  0
   39.5590   28.5280   40.2190 H   0  0  0  0  0  0  0  0  0  0  0  0
   39.3570   29.5960   42.4880 H   0  0  0  0  0  0  0  0  0  0  0  0
   39.1780   27.6190   43.9730 H   0  0  0  0  0  0  0  0  0  0  0  0
   37.7960   25.7230   43.1790 H   0  0  0  0  0  0  0  0  0  0  0  0
   38.8960   25.7460   41.6760 H   0  0  0  0  0  0  0  0  0  0  0  0
   36.6040   27.6020   42.2790 H   0  0  0  0  0  0  0  0  0  0  0  0
   36.4260   25.9730   41.4280 H   0  0  0  0  0  0  0  0  0  0  0  0
   38.3340   26.6190   40.0360 H   0  0  0  0  0  0  0  0  0  0  0  0
   38.6170   30.6050   39.2030 C   0  0  0  0  0  0  0  0  0  0  0  0
   38.0660   29.9380   40.2940 C   0  0  0  0  0  0  0  0  0  0  0  0
   37.1250   30.6560   41.0590 C   0  0  0  0  0  0  0  0  0  0  0  0
   36.8010   31.9250   40.7220 N   0  0  0  0  0  0  0  0  0  0  0  0
   37.3820   32.5120   39.6410 C   0  0  0  0  0  0  0  0  0  0  0  0
   38.2870   31.8450   38.8900 N   0  0  0  0  0  0  0  0  0  0  0  0
   37.0440   33.8270   39.2720 N   0  0  0  0  0  0  0  0  0  0  0  0
   39.3240   30.1510   38.5370 H   0  0  0  0  0  0  0  0  0  0  0  0
   37.6510   34.4280   38.6940 H   0  0  0  0  0  0  0  0  0  0  0  0
   36.1250   34.2520   39.5890 H   0  0  0  0  0  0  0  0  0  0  0  0
   36.5210   29.9790   42.1570 N   0  0  0  0  0  0  0  0  0  0  0  0
   36.9870   30.0380   43.0920 H   0  0  0  0  0  0  0  0  0  0  0  0
   35.6550   29.4900   41.8730 H   0  0  0  0  0  0  0  0  0  0  0  0
   37.3830   27.5480   37.7890 C   0  0  0  0  0  0  0  0  0  0  0  0
   36.9410   27.7000   39.0900 C   0  0  0  0  0  0  0  0  0  0  0  0
   35.6110   28.1280   39.2760 C   0  0  0  0  0  0  0  0  0  0  0  0
   35.1210   28.2930   40.2500 H   0  0  0  0  0  0  0  0  0  0  0  0
   34.7600   28.3910   38.2380 C   0  0  0  0  0  0  0  0  0  0  0  0
   33.7360   28.7200   38.3460 H   0  0  0  0  0  0  0  0  0  0  0  0
   35.1990   28.2400   36.9470 C   0  0  0  0  0  3  0  0  0  0  0  0
   36.4980   27.8230   36.7600 C   0  0  0  0  0  3  0  0  0  0  0  0
   39.7980   27.1880   38.6680 H   0  0  0  0  0  0  0  0  0  0  0  0
   38.9830   27.0730   37.5480 S   0  0  0  0  0  0  0  0  0  0  0  0
   39.3060   25.9830   36.6290 O   0  0  0  0  0  0  0  0  0  0  0  0
   39.6460   28.2210   36.7500 O   0  0  0  0  0  0  0  0  0  0  0  0
  1  7  1  6  0  0  0
  1  2  1  0  0  0  0
  2  8  1  0  0  0  0
  2  3  2  0  0  0  0
  3  9  1  0  0  0  0
  4  3  1  0  0  0  0
  4 10  1  0  0  0  0
  5 12  1  0  0  0  0
  5  4  1  0  0  0  0
  6 14  1  6  0  0  0
  6  1  1  0  0  0  0
  6  5  1  0  0  0  0
 11  4  1  0  0  0  0
 13  5  1  0  0  0  0
 15 16  1  0  0  0  0
 16  1  1  0  0  0  0
 16 17  2  0  0  0  0
 17 25  1  0  0  0  0
 18 17  1  0  0  0  0
 19 18  2  0  0  0  0
 20 15  2  0  0  0  0
 20 19  1  0  0  0  0
 21 24  1  0  0  0  0
 21 19  1  0  0  0  0
 22 15  1  0  0  0  0
 23 21  1  0  0  0  0
 25 26  1  0  0  0  0
 27 25  1  0  0  0  0
 28 29  1  0  0  0  0
 29 30  2  0  0  0  0
 29  6  1  0  0  0  0
 30 31  1  0  0  0  0
 32 33  1  0  0  0  0
 32 30  1  0  0  0  0
 34 32  2  0  0  0  0
 35 34  1  0  0  0  0
 35 28  2  0  0  0  0
 37 28  1  0  0  0  0
 37 36  1  0  0  0  0
 38 37  2  0  0  0  0
 39 37  2  0  0  0  0
M  END
>  <minimizedAffinity>
-5.4442935

$$$$

 OpenBabel03252500223D

 39 41  0  0  1  0  0  0  0  0999 V2000
   36.0410   28.2430   40.4530 C   0  0  1  0  0  0  0  0  0  0  0  0
   35.1590   29.2760   39.7470 C   0  0  0  0  0  0  0  0  0  0  0  0
   34.4650   28.8730   38.5180 C   0  0  0  0  0  0  0  0  0  0  0  0
   34.7470   27.4710   38.0390 C   0  0  0  0  0  0  0  0  0  0  0  0
   36.2860   27.3140   38.2150 C   0  0  0  0  0  0  0  0  0  0  0  0
   36.4760   27.0960   39.6540 C   0  0  1  0  0  0  0  0  0  0  0  0
   35.3090   28.0330   41.3050 H   0  0  0  0  0  0  0  0  0  0  0  0
   35.0620   30.2520   40.1460 H   0  0  0  0  0  0  0  0  0  0  0  0
   33.8650   29.6180   38.0700 H   0  0  0  0  0  0  0  0  0  0  0  0
   34.5560   27.5150   36.9570 H   0  0  0  0  0  0  0  0  0  0  0  0
   34.2040   26.7070   38.5980 H   0  0  0  0  0  0  0  0  0  0  0  0
   36.6430   28.3030   37.8440 H   0  0  0  0  0  0  0  0  0  0  0  0
   36.4550   26.4900   37.5480 H   0  0  0  0  0  0  0  0  0  0  0  0
   35.6360   26.3150   39.8490 H   0  0  0  0  0  0  0  0  0  0  0  0
   37.9540   29.8600   40.4100 C   0  0  0  0  0  0  0  0  0  0  0  0
   37.0960   29.0310   41.1300 C   0  0  0  0  0  0  0  0  0  0  0  0
   37.3350   28.9330   42.5150 C   0  0  0  0  0  0  0  0  0  0  0  0
   38.3520   29.6200   43.0800 N   0  0  0  0  0  0  0  0  0  0  0  0
   39.1500   30.4110   42.3120 C   0  0  0  0  0  0  0  0  0  0  0  0
   38.9430   30.5230   40.9810 N   0  0  0  0  0  0  0  0  0  0  0  0
   40.2050   31.1410   42.8910 N   0  0  0  0  0  0  0  0  0  0  0  0
   37.8540   30.0290   39.3560 H   0  0  0  0  0  0  0  0  0  0  0  0
   41.0170   31.4840   42.3550 H   0  0  0  0  0  0  0  0  0  0  0  0
   40.1960   31.3650   43.9270 H   0  0  0  0  0  0  0  0  0  0  0  0
   36.4460   28.1200   43.2760 N   0  0  0  0  0  0  0  0  0  0  0  0
   36.6790   27.1080   43.3940 H   0  0  0  0  0  0  0  0  0  0  0  0
   35.6410   28.6660   43.6310 H   0  0  0  0  0  0  0  0  0  0  0  0
   38.9410   26.4760   39.9970 C   0  0  0  0  0  0  0  0  0  0  0  0
   37.5880   26.4330   40.2740 C   0  0  0  0  0  0  0  0  0  0  0  0
   37.1750   25.6350   41.3600 C   0  0  0  0  0  0  0  0  0  0  0  0
   36.1330   25.5030   41.6990 H   0  0  0  0  0  0  0  0  0  0  0  0
   38.0470   24.9190   42.1320 C   0  0  0  0  0  0  0  0  0  0  0  0
   37.7640   24.2980   42.9710 H   0  0  0  0  0  0  0  0  0  0  0  0
   39.3900   24.9630   41.8570 C   0  0  0  0  0  3  0  0  0  0  0  0
   39.7980   25.7400   40.7970 C   0  0  0  0  0  3  0  0  0  0  0  0
   38.4210   27.9720   37.9400 H   0  0  0  0  0  0  0  0  0  0  0  0
   39.4490   27.3970   38.6780 S   0  0  0  0  0  0  0  0  0  0  0  0
   40.6990   28.1540   38.7340 O   0  0  0  0  0  0  0  0  0  0  0  0
   39.8720   26.3780   37.5930 O   0  0  0  0  0  0  0  0  0  0  0  0
  1 16  1  0  0  0  0
  1  7  1  1  0  0  0
  2  8  1  0  0  0  0
  2  1  1  0  0  0  0
  3  2  2  0  0  0  0
  4  5  1  0  0  0  0
  4  3  1  0  0  0  0
  4 11  1  0  0  0  0
  5  6  1  0  0  0  0
  6 14  1  1  0  0  0
  6 29  1  0  0  0  0
  6  1  1  0  0  0  0
  9  3  1  0  0  0  0
 10  4  1  0  0  0  0
 12  5  1  0  0  0  0
 13  5  1  0  0  0  0
 15 20  2  0  0  0  0
 15 16  1  0  0  0  0
 16 17  2  0  0  0  0
 17 18  1  0  0  0  0
 17 25  1  0  0  0  0
 19 21  1  0  0  0  0
 19 18  2  0  0  0  0
 20 19  1  0  0  0  0
 21 24  1  0  0  0  0
 22 15  1  0  0  0  0
 23 21  1  0  0  0  0
 25 26  1  0  0  0  0
 25 27  1  0  0  0  0
 28 29  2  0  0  0  0
 28 35  1  0  0  0  0
 29 30  1  0  0  0  0
 30 31  1  0  0  0  0
 30 32  2  0  0  0  0
 32 33  1  0  0  0  0
 34 32  1  0  0  0  0
 35 34  2  0  0  0  0
 36 37  1  0  0  0  0
 37 38  2  0  0  0  0
 37 28  1  0  0  0  0
 39 37  2  0  0  0  0
M  END
>  <minimizedAffinity>
-5.4291048

$$$$

 OpenBabel03252500223D

 39 41  0  0  1  0  0  0  0  0999 V2000
   38.0260   28.7910   38.1420 C   0  0  1  0  0  0  0  0  0  0  0  0
   37.2890   27.5500   37.6330 C   0  0  0  0  0  0  0  0  0  0  0  0
   36.8280   27.5390   36.2400 C   0  0  0  0  0  0  0  0  0  0  0  0
   37.0840   28.8030   35.4570 C   0  0  0  0  0  0  0  0  0  0  0  0
   36.7090   29.9430   36.4480 C   0  0  0  0  0  0  0  0  0  0  0  0
   37.8470   30.0230   37.3720 C   0  0  1  0  0  0  0  0  0  0  0  0
   39.0660   28.3180   38.1280 H   0  0  0  0  0  0  0  0  0  0  0  0
   37.1230   26.7290   38.2800 H   0  0  0  0  0  0  0  0  0  0  0  0
   36.3290   26.6600   35.9330 H   0  0  0  0  0  0  0  0  0  0  0  0
   36.3100   28.7960   34.6770 H   0  0  0  0  0  0  0  0  0  0  0  0
   38.1170   28.8970   35.1170 H   0  0  0  0  0  0  0  0  0  0  0  0
   35.7740   29.5340   36.8970 H   0  0  0  0  0  0  0  0  0  0  0  0
   36.5650   30.7440   35.7480 H   0  0  0  0  0  0  0  0  0  0  0  0
   38.7250   29.9780   36.6090 H   0  0  0  0  0  0  0  0  0  0  0  0
   38.7450   28.9120   40.5380 C   0  0  0  0  0  0  0  0  0  0  0  0
   37.7270   28.8530   39.5910 C   0  0  0  0  0  0  0  0  0  0  0  0
   36.4100   28.7860   40.0890 C   0  0  0  0  0  0  0  0  0  0  0  0
   36.1860   28.7780   41.4220 N   0  0  0  0  0  0  0  0  0  0  0  0
   37.2340   28.8370   42.2890 C   0  0  0  0  0  0  0  0  0  0  0  0
   38.5070   28.9020   41.8380 N   0  0  0  0  0  0  0  0  0  0  0  0
   37.0140   28.8420   43.6790 N   0  0  0  0  0  0  0  0  0  0  0  0
   39.7820   28.9890   40.2770 H   0  0  0  0  0  0  0  0  0  0  0  0
   37.7310   28.5650   44.3660 H   0  0  0  0  0  0  0  0  0  0  0  0
   36.0750   29.1400   44.0710 H   0  0  0  0  0  0  0  0  0  0  0  0
   35.3510   28.7640   39.1360 N   0  0  0  0  0  0  0  0  0  0  0  0
   35.0220   27.8370   38.7820 H   0  0  0  0  0  0  0  0  0  0  0  0
   35.0280   29.7200   38.9050 H   0  0  0  0  0  0  0  0  0  0  0  0
   39.4850   31.7010   38.4110 C   0  0  0  0  0  0  0  0  0  0  0  0
   38.2380   31.1690   38.1420 C   0  0  0  0  0  0  0  0  0  0  0  0
   37.1200   31.8450   38.6710 C   0  0  0  0  0  0  0  0  0  0  0  0
   36.0670   31.5410   38.5410 H   0  0  0  0  0  0  0  0  0  0  0  0
   37.2220   32.9830   39.4220 C   0  0  0  0  0  0  0  0  0  0  0  0
   36.3860   33.5250   39.8410 H   0  0  0  0  0  0  0  0  0  0  0  0
   38.4610   33.5100   39.6880 C   0  0  0  0  0  3  0  0  0  0  0  0
   39.5560   32.8530   39.1740 C   0  0  0  0  0  3  0  0  0  0  0  0
   40.6050   29.5620   37.4560 H   0  0  0  0  0  0  0  0  0  0  0  0
   40.8360   30.8840   37.8180 S   0  0  0  0  0  0  0  0  0  0  0  0
   41.8540   31.5920   37.0410 O   0  0  0  0  0  0  0  0  0  0  0  0
   41.7080   30.5600   39.0550 O   0  0  0  0  0  0  0  0  0  0  0  0
  1  7  1  6  0  0  0
  1 16  1  0  0  0  0
  2  1  1  0  0  0  0
  2  8  1  0  0  0  0
  3  2  2  0  0  0  0
  4  3  1  0  0  0  0
  4  5  1  0  0  0  0
  5 12  1  0  0  0  0
  5  6  1  0  0  0  0
  6 14  1  6  0  0  0
  6  1  1  0  0  0  0
  6 29  1  0  0  0  0
  9  3  1  0  0  0  0
 10  4  1  0  0  0  0
 11  4  1  0  0  0  0
 13  5  1  0  0  0  0
 15 20  1  0  0  0  0
 16 17  1  0  0  0  0
 16 15  2  0  0  0  0
 17 18  2  0  0  0  0
 18 19  1  0  0  0  0
 19 21  1  0  0  0  0
 20 19  2  0  0  0  0
 21 24  1  0  0  0  0
 21 23  1  0  0  0  0
 22 15  1  0  0  0  0
 25 17  1  0  0  0  0
 26 25  1  0  0  0  0
 27 25  1  0  0  0  0
 28 35  1  0  0  0  0
 29 28  2  0  0  0  0
 29 30  1  0  0  0  0
 30 32  2  0  0  0  0
 31 30  1  0  0  0  0
 32 34  1  0  0  0  0
 32 33  1  0  0  0  0
 35 34  2  0  0  0  0
 36 37  1  0  0  0  0
 37 28  1  0  0  0  0
 37 39  2  0  0  0  0
 38 37  2  0  0  0  0
M  END
>  <minimizedAffinity>
-5.34202814

$$$$

 OpenBabel03252500223D

 39 41  0  0  1  0  0  0  0  0999 V2000
   36.0330   28.2800   40.2340 C   0  0  1  0  0  0  0  0  0  0  0  0
   34.9040   29.2540   39.8860 C   0  0  0  0  0  0  0  0  0  0  0  0
   34.1190   29.0010   38.6730 C   0  0  0  0  0  0  0  0  0  0  0  0
   34.5540   27.8150   37.8490 C   0  0  0  0  0  0  0  0  0  0  0  0
   36.1070   27.9190   37.8270 C   0  0  0  0  0  0  0  0  0  0  0  0
   36.5310   27.4370   39.1470 C   0  0  1  0  0  0  0  0  0  0  0  0
   35.4730   27.7570   41.0820 H   0  0  0  0  0  0  0  0  0  0  0  0
   34.7080   30.0840   40.5130 H   0  0  0  0  0  0  0  0  0  0  0  0
   33.3490   29.6970   38.4760 H   0  0  0  0  0  0  0  0  0  0  0  0
   34.2070   28.0530   36.8330 H   0  0  0  0  0  0  0  0  0  0  0  0
   34.2270   26.8590   38.2630 H   0  0  0  0  0  0  0  0  0  0  0  0
   36.2430   29.0150   37.6670 H   0  0  0  0  0  0  0  0  0  0  0  0
   36.3120   27.3050   36.9710 H   0  0  0  0  0  0  0  0  0  0  0  0
   35.8650   26.4860   39.2340 H   0  0  0  0  0  0  0  0  0  0  0  0
   37.7620   30.0900   40.3330 C   0  0  0  0  0  0  0  0  0  0  0  0
   37.0320   29.0900   40.9690 C   0  0  0  0  0  0  0  0  0  0  0  0
   37.3450   28.8490   42.3220 C   0  0  0  0  0  0  0  0  0  0  0  0
   38.3110   29.5690   42.9350 N   0  0  0  0  0  0  0  0  0  0  0  0
   38.9840   30.5310   42.2470 C   0  0  0  0  0  0  0  0  0  0  0  0
   38.7030   30.7830   40.9490 N   0  0  0  0  0  0  0  0  0  0  0  0
   39.9840   31.2950   42.8770 N   0  0  0  0  0  0  0  0  0  0  0  0
   37.5940   30.3760   39.3130 H   0  0  0  0  0  0  0  0  0  0  0  0
   40.7280   31.7890   42.3620 H   0  0  0  0  0  0  0  0  0  0  0  0
   40.0010   31.3880   43.9330 H   0  0  0  0  0  0  0  0  0  0  0  0
   36.5840   27.8560   43.0030 N   0  0  0  0  0  0  0  0  0  0  0  0
   36.9270   26.8690   42.9830 H   0  0  0  0  0  0  0  0  0  0  0  0
   35.7440   28.2620   43.4520 H   0  0  0  0  0  0  0  0  0  0  0  0
   38.1530   25.7460   40.1910 C   0  0  0  0  0  0  0  0  0  0  0  0
   37.8120   26.8790   39.4770 C   0  0  0  0  0  0  0  0  0  0  0  0
   38.8650   27.6430   38.9350 C   0  0  0  0  0  0  0  0  0  0  0  0
   38.7490   28.5690   38.3450 H   0  0  0  0  0  0  0  0  0  0  0  0
   40.1820   27.3100   39.0860 C   0  0  0  0  0  0  0  0  0  0  0  0
   41.0130   27.8730   38.6840 H   0  0  0  0  0  0  0  0  0  0  0  0
   40.5200   26.1850   39.7950 C   0  0  0  0  0  3  0  0  0  0  0  0
   39.4950   25.4360   40.3270 C   0  0  0  0  0  3  0  0  0  0  0  0
   35.6430   25.4080   40.7630 H   0  0  0  0  0  0  0  0  0  0  0  0
   36.9070   24.8410   40.8780 S   0  0  0  0  0  0  0  0  0  0  0  0
   36.9550   23.3790   40.8710 O   0  0  0  0  0  0  0  0  0  0  0  0
   37.0330   25.0450   42.4070 O   0  0  0  0  0  0  0  0  0  0  0  0
  1 16  1  0  0  0  0
  1  7  1  1  0  0  0
  2  1  1  0  0  0  0
  2  8  1  0  0  0  0
  3  2  2  0  0  0  0
  4 11  1  0  0  0  0
  4  3  1  0  0  0  0
  5  4  1  0  0  0  0
  5  6  1  0  0  0  0
  6 14  1  1  0  0  0
  6 29  1  0  0  0  0
  6  1  1  0  0  0  0
  9  3  1  0  0  0  0
 10  4  1  0  0  0  0
 12  5  1  0  0  0  0
 13  5  1  0  0  0  0
 15 20  2  0  0  0  0
 15 16  1  0  0  0  0
 16 17  2  0  0  0  0
 17 18  1  0  0  0  0
 17 25  1  0  0  0  0
 19 21  1  0  0  0  0
 19 18  2  0  0  0  0
 20 19  1  0  0  0  0
 21 24  1  0  0  0  0
 22 15  1  0  0  0  0
 23 21  1  0  0  0  0
 25 27  1  0  0  0  0
 26 25  1  0  0  0  0
 28 35  1  0  0  0  0
 28 37  1  0  0  0  0
 29 28  2  0  0  0  0
 30 32  2  0  0  0  0
 30 29  1  0  0  0  0
 31 30  1  0  0  0  0
 32 34  1  0  0  0  0
 33 32  1  0  0  0  0
 34 35  2  0  0  0  0
 36 37  1  0  0  0  0
 37 39  2  0  0  0  0
 38 37  2  0  0  0  0
M  END
>  <minimizedAffinity>
-5.3369565

$$$$
