REMARK  Name = 
REMARK  4 active torsions:
REMARK  status: ('A' for Active; 'I' for Inactive)
REMARK    1  A    between atoms: C_1  and  C_13
REMARK    2  A    between atoms: C_3  and  N_7
REMARK    3  A    between atoms: C_12  and  C_33
REMARK    4  A    between atoms: S_29  and  C_32
REMARK                            x       y       z     vdW  Elec       q    Type
REMARK                         _______ _______ _______ _____ _____    ______ ____
ROOT
ATOM      1  N   UNL     1      45.710  32.929  46.425  0.00  0.00    +0.000 N 
ATOM      2  C   UNL     1      45.227  33.199  47.783  0.00  0.00    +0.000 C 
ATOM      3  C   UNL     1      45.955  32.227  48.693  0.00  0.00    +0.000 C 
ATOM      4  C   UNL     1      45.462  30.836  48.409  0.00  0.00    +0.000 C 
ATOM      5  C   UNL     1      45.571  30.570  46.943  0.00  0.00    +0.000 C 
ATOM      6  C   UNL     1      46.249  31.646  46.165  0.00  0.00    +0.000 C 
ATOM      7  H   UNL     1      45.548  34.235  48.039  0.00  0.00    +0.000 HD
ATOM      8  H   UNL     1      44.153  33.047  47.892  0.00  0.00    +0.000 HD
ATOM      9  H   UNL     1      47.056  32.320  48.596  0.00  0.00    +0.000 HD
ATOM     10  H   UNL     1      45.712  32.453  49.737  0.00  0.00    +0.000 HD
ATOM     11  H   UNL     1      44.435  30.763  48.812  0.00  0.00    +0.000 HD
ATOM     12  H   UNL     1      46.079  30.089  48.977  0.00  0.00    +0.000 HD
ATOM     13  H   UNL     1      46.030  29.583  46.711  0.00  0.00    +0.000 HD
ATOM     14  H   UNL     1      44.504  30.541  46.565  0.00  0.00    +0.000 HD
ATOM     15  H   UNL     1      47.323  31.638  46.401  0.00  0.00    +0.000 HD
ENDROOT
BRANCH   1  18
ATOM     16  C   UNL     1      46.237  34.835  43.303  0.00  0.00    +0.000 A 
ATOM     17  C   UNL     1      46.399  33.866  44.296  0.00  0.00    +0.000 A 
ATOM     18  C   UNL     1      45.614  33.916  45.433  0.00  0.00    +0.000 A 
ATOM     19  N   UNL     1      44.711  34.921  45.540  0.00  0.00    +0.000 NA
ATOM     20  C   UNL     1      44.554  35.868  44.575  0.00  0.00    +0.000 A 
ATOM     21  N   UNL     1      45.319  35.820  43.456  0.00  0.00    +0.000 NA
ATOM     22  H   UNL     1      47.178  33.153  44.111  0.00  0.00    +0.000 HD
ATOM     23  H   UNL     1      43.822  36.658  44.694  0.00  0.00    +0.000 HD
BRANCH  16  24
ATOM     24  C   UNL     1      47.078  34.714  42.072  0.00  0.00    +0.000 C 
ATOM     25  F   UNL     1      46.301  34.574  40.927  0.00  0.00    +0.000 F 
ATOM     26  F   UNL     1      47.867  35.843  42.000  0.00  0.00    +0.000 F 
ATOM     27  F   UNL     1      47.916  33.614  42.191  0.00  0.00    +0.000 F 
ENDBRANCH  16  24
ENDBRANCH   1  18
BRANCH   6  29
ATOM     28  C   UNL     1      45.189  30.113  44.455  0.00  0.00    +0.000 A 
ATOM     29  C   UNL     1      46.080  31.162  44.739  0.00  0.00    +0.000 A 
ATOM     30  C   UNL     1      46.747  31.729  43.648  0.00  0.00    +0.000 A 
ATOM     31  H   UNL     1      47.434  32.538  43.849  0.00  0.00    +0.000 HD
ATOM     32  C   UNL     1      46.512  31.252  42.377  0.00  0.00    +0.000 A 
ATOM     33  H   UNL     1      47.073  31.751  41.590  0.00  0.00    +0.000 HD
ATOM     34  C   UNL     1      45.629  30.219  42.136  0.00  0.00    +0.000 A 
ATOM     35  C   UNL     1      44.963  29.648  43.193  0.00  0.00    +0.000 A 
BRANCH  28  37
ATOM     36  H   UNL     1      44.029  30.129  46.791  0.00  0.00    +0.000 HD
ATOM     37  S   UNL     1      44.292  29.311  45.725  0.00  0.00    +0.000 S 
ATOM     38  O   UNL     1      42.970  28.803  45.220  0.00  0.00    +0.000 OA
ATOM     39  O   UNL     1      45.103  28.138  46.251  0.00  0.00    +0.000 OA
ENDBRANCH  28  37
ENDBRANCH   6  29
TORSDOF 4
