
     RDKit          3D

 39 41  0  0  0  0  0  0  0  0999 V2000
   46.8493   34.8734   42.7023 C   0  0  0  0  0  0  0  0  0  0  0  0
   48.0605   34.5362   42.0783 C   0  0  0  0  0  0  0  0  0  0  0  0
   48.7663   33.4609   42.5955 C   0  0  0  0  0  0  0  0  0  0  0  0
   48.2340   32.8111   43.6696 N   0  0  0  0  0  0  0  0  0  0  0  0
   47.0832   33.1495   44.2447 C   0  0  0  0  0  0  0  0  0  0  0  0
   46.3822   34.1920   43.7561 N   0  0  0  0  0  0  0  0  0  0  0  0
   45.9999   30.3663   43.5950 Cl  0  0  0  0  0  0  0  0  0  0  0  0
   46.0621   31.1298   45.1956 C   0  0  0  0  0  0  0  0  0  0  0  0
   46.5767   32.4059   45.3917 C   0  0  0  0  0  0  0  0  0  0  0  0
   46.6122   32.9687   46.6396 C   0  0  0  0  0  0  0  0  0  0  0  0
   46.1250   32.2504   47.7249 C   0  0  0  0  0  0  0  0  0  0  0  0
   45.6244   30.9943   47.4942 C   0  0  0  0  0  0  0  0  0  0  0  0
   45.0127   30.1028   48.8637 Cl  0  0  0  0  0  0  0  0  0  0  0  0
   45.5721   30.3979   46.2629 C   0  0  0  0  0  0  0  0  0  0  0  0
   48.5114   35.3193   40.9409 C   0  0  0  0  0  0  0  0  0  0  0  0
   48.1280   34.6116   39.6679 C   0  0  0  0  0  0  0  0  0  0  0  0
   46.2260   35.7021   42.3703 H   0  0  0  0  0  0  0  0  0  0  0  0
   49.7003   33.1638   42.1539 H   0  0  0  0  0  0  0  0  0  0  0  0
   47.0051   33.9585   46.8314 H   0  0  0  0  0  0  0  0  0  0  0  0
   46.1317   32.6556   48.7309 H   0  0  0  0  0  0  0  0  0  0  0  0
   45.1572   29.3891   46.1558 H   0  0  0  0  0  0  0  0  0  0  0  0
   47.9981   36.3021   40.9289 H   0  0  0  0  0  0  0  0  0  0  0  0
   49.5795   35.5267   41.0510 H   0  0  0  0  0  0  0  0  0  0  0  0
   48.4051   35.3120   38.8358 H   0  0  0  0  0  0  0  0  0  0  0  0
   47.0056   34.6080   39.6535 H   0  0  0  0  0  0  0  0  0  0  0  0
   45.7079   33.3255   40.3482 H   0  0  0  0  0  0  0  0  0  0  0  0
   46.1374   32.2617   39.5721 S   0  0  0  0  0  0  0  0  0  0  0  0
   45.4418   32.2164   38.2415 O   0  0  0  0  0  0  0  0  0  0  0  0
   45.6576   31.0206   40.3111 O   0  0  0  0  0  0  0  0  0  0  0  0
   47.8611   32.1838   39.4625 C   0  0  0  0  0  0  0  0  0  0  0  0
   48.7058   33.2732   39.5208 C   0  0  0  0  0  0  0  0  0  0  0  0
   50.0747   33.1161   39.4305 C   0  0  0  0  0  0  0  0  0  0  0  0
   50.7230   34.0055   39.4804 H   0  0  0  0  0  0  0  0  0  0  0  0
   50.6729   31.8879   39.2787 C   0  0  0  0  0  0  0  0  0  0  0  0
   51.7494   31.8198   39.2144 H   0  0  0  0  0  0  0  0  0  0  0  0
   49.8011   30.8106   39.2226 C   0  0  0  0  0  0  0  0  0  0  0  0
   48.4364   30.9183   39.3084 C   0  0  0  0  0  0  0  0  0  0  0  0
   50.2223   29.8239   39.1021 H   0  0  0  0  0  0  0  0  0  0  0  0
   47.8198   30.0078   39.2540 H   0  0  0  0  0  0  0  0  0  0  0  0
  1  6  2  0
  2  3  2  0
  2  1  1  0
  3  4  1  0
  4  5  2  0
  5  9  1  0
  6  5  1  0
  7  8  1  0
  8  9  2  0
  8 14  1  0
  9 10  1  0
 10 11  2  0
 12 11  1  0
 12 13  1  0
 14 12  2  0
 15  2  1  0
 16 15  1  0
  1 17  1  0
  3 18  1  0
 10 19  1  0
 11 20  1  0
 14 21  1  0
 15 22  1  0
 15 23  1  0
 16 24  1  0
 16 25  1  0
 26 27  1  0
 27 28  2  0
 27 29  2  0
 27 30  1  0
 30 31  2  0
 31 32  1  0
 32 33  1  0
 32 34  2  0
 34 35  1  0
 34 36  1  0
 36 37  2  0
 37 30  1  0
 36 38  1  0
 37 39  1  0
 16 31  1  0
M  ISO  8  17  14  18  14  19  14  20  14  21  14  22   8  23   8  24   8
M  ISO  4  25   8  26  12  33  15  35  16
M  END
>  <DihAtoms>  (1) 
14,15,30,29

>  <DihDeg>  (1) 
-77.94651141368574

$$$$
