
     RDKit          3D

 34 36  0  0  0  0  0  0  0  0999 V2000
   42.1089   31.9294   41.7032 Cl  0  0  0  0  0  0  0  0  0  0  0  0
   41.2659   33.3653   41.1086 C   0  0  0  0  0  0  0  0  0  0  0  0
   42.0773   34.4261   40.8419 C   0  0  0  0  0  0  0  0  0  0  0  0
   41.4747   35.5875   40.3668 C   0  0  0  0  0  0  0  0  0  0  0  0
   40.0910   35.6231   40.1846 C   0  0  0  0  0  0  0  0  0  0  0  0
   39.2693   34.5360   40.4592 C   0  0  0  0  0  0  0  0  0  0  0  0
   39.8998   33.3945   40.9310 C   0  0  0  0  0  0  0  0  0  0  0  0
   38.9874   31.9458   41.3247 Cl  0  0  0  0  0  0  0  0  0  0  0  0
   43.8245   34.5408   41.0189 S   0  0  0  0  0  0  0  0  0  0  0  0
   44.3595   34.6203   42.7267 C   0  0  0  0  0  0  0  0  0  0  0  0
   45.0300   33.4854   43.2087 C   0  0  0  0  0  0  0  0  0  0  0  0
   45.4714   33.4907   44.5424 C   0  0  0  0  0  0  0  0  0  0  0  0
   45.2273   34.5957   45.3009 N   0  0  0  0  0  0  0  0  0  0  0  0
   44.5772   35.6675   44.7949 C   0  0  0  0  0  0  0  0  0  0  0  0
   44.1388   35.7008   43.5225 N   0  0  0  0  0  0  0  0  0  0  0  0
   42.0105   36.4928   40.1199 H   0  0  0  0  0  0  0  0  0  0  0  0
   39.6043   36.5210   39.8146 H   0  0  0  0  0  0  0  0  0  0  0  0
   38.1994   34.5658   40.3175 H   0  0  0  0  0  0  0  0  0  0  0  0
   45.2119   32.6261   42.5949 H   0  0  0  0  0  0  0  0  0  0  0  0
   45.9865   32.6090   44.8995 H   0  0  0  0  0  0  0  0  0  0  0  0
   42.1248   34.6567   46.3970 H   0  0  0  0  0  0  0  0  0  0  0  0
   42.9636   35.1671   47.3494 S   0  0  0  0  0  0  0  0  0  0  0  0
   42.2112   35.4060   48.6510 O   0  0  0  0  0  0  0  0  0  0  0  0
   44.0538   34.1706   47.7203 O   0  0  0  0  0  0  0  0  0  0  0  0
   43.6670   36.6978   46.8823 C   0  0  0  0  0  0  0  0  0  0  0  0
   44.3736   36.7920   45.7021 C   0  0  0  0  0  0  0  0  0  0  0  0
   44.9117   38.0192   45.3725 C   0  0  0  0  0  0  0  0  0  0  0  0
   45.4903   38.1975   44.4559 H   0  0  0  0  0  0  0  0  0  0  0  0
   44.7697   39.1447   46.1732 C   0  0  0  0  0  0  0  0  0  0  0  0
   45.1981   40.1033   45.9015 H   0  0  0  0  0  0  0  0  0  0  0  0
   44.0662   39.0688   47.3567 C   0  0  0  0  0  0  0  0  0  0  0  0
   43.5424   37.8408   47.6612 C   0  0  0  0  0  0  0  0  0  0  0  0
   43.8978   39.8743   48.0457 H   0  0  0  0  0  0  0  0  0  0  0  0
   42.9752   37.7065   48.5797 H   0  0  0  0  0  0  0  0  0  0  0  0
  2  1  1  0
  3  9  1  0
  3  2  2  0
  4  3  1  0
  5  4  2  0
  5  6  1  0
  6  7  2  0
  7  2  1  0
  7  8  1  0
  9 10  1  0
 10 11  2  0
 10 15  1  0
 11 12  1  0
 12 13  2  0
 14 13  1  0
 15 14  2  0
  4 16  1  0
  5 17  1  0
  6 18  1  0
 11 19  1  0
 12 20  1  0
 21 22  1  0
 22 23  2  0
 22 24  2  0
 22 25  1  0
 25 26  2  0
 26 27  1  0
 27 28  1  0
 27 29  2  0
 29 30  1  0
 29 31  1  0
 31 32  2  0
 32 25  1  0
 31 33  1  0
 32 34  1  0
 14 26  1  0
M  ISO  8  16  14  17  14  18  14  19  14  20  14  21  12  28  15  30  16
M  END
>  <DihAtoms>  (1) 
12,13,25,24

>  <DihDeg>  (1) 
179.99853940533941

$$$$
