
     RDKit          3D

 43 45  0  0  0  0  0  0  0  0999 V2000
   46.8161   34.1131   43.0635 C   0  0  0  0  0  0  0  0  0  0  0  0
   45.6306   33.7043   42.4343 C   0  0  0  0  0  0  0  0  0  0  0  0
   44.9190   32.6628   43.0315 C   0  0  0  0  0  0  0  0  0  0  0  0
   45.3752   32.0926   44.1646 N   0  0  0  0  0  0  0  0  0  0  0  0
   46.5237   32.5194   44.7366 C   0  0  0  0  0  0  0  0  0  0  0  0
   47.2388   33.5229   44.1892 N   0  0  0  0  0  0  0  0  0  0  0  0
   47.6799   29.9309   44.8159 F   0  0  0  0  0  0  0  0  0  0  0  0
   47.5930   30.6674   45.9792 C   0  0  0  0  0  0  0  0  0  0  0  0
   47.0389   31.9188   45.9634 C   0  0  0  0  0  0  0  0  0  0  0  0
   46.9973   32.5817   47.1884 C   0  0  0  0  0  0  0  0  0  0  0  0
   47.4846   32.0063   48.3341 C   0  0  0  0  0  0  0  0  0  0  0  0
   48.0379   30.7270   48.2857 C   0  0  0  0  0  0  0  0  0  0  0  0
   48.1039   30.0163   47.0774 C   0  0  0  0  0  0  0  0  0  0  0  0
   48.6941   28.6538   47.0323 C   0  0  0  0  0  0  0  0  0  0  0  0
   45.1964   34.3736   41.2002 C   0  0  0  0  0  0  0  0  0  0  0  0
   44.9061   35.7068   41.4519 F   0  0  0  0  0  0  0  0  0  0  0  0
   46.2692   34.3765   40.3082 F   0  0  0  0  0  0  0  0  0  0  0  0
   44.1329   33.8159   40.5801 F   0  0  0  0  0  0  0  0  0  0  0  0
   47.5022   35.1156   42.4897 O   0  0  0  0  0  0  0  0  0  0  0  0
   48.8100   35.0584   41.9598 C   0  0  0  0  0  0  0  0  0  0  0  0
   49.7050   35.2844   42.9943 F   0  0  0  0  0  0  0  0  0  0  0  0
   49.0067   33.8437   41.3574 F   0  0  0  0  0  0  0  0  0  0  0  0
   49.0117   36.1048   41.0803 F   0  0  0  0  0  0  0  0  0  0  0  0
   44.0048   32.3571   42.5350 H   0  0  0  0  0  0  0  0  0  0  0  0
   46.5613   33.5736   47.1924 H   0  0  0  0  0  0  0  0  0  0  0  0
   47.4519   32.5235   49.2881 H   0  0  0  0  0  0  0  0  0  0  0  0
   48.4363   30.2295   49.1643 H   0  0  0  0  0  0  0  0  0  0  0  0
   49.3442   28.5310   47.9209 H   0  0  0  0  0  0  0  0  0  0  0  0
   49.3366   28.5196   46.1204 H   0  0  0  0  0  0  0  0  0  0  0  0
   45.2305   29.0547   49.5354 H   0  0  0  0  0  0  0  0  0  0  0  0
   46.4310   29.1068   48.8777 S   0  0  0  0  0  0  0  0  0  0  0  0
   47.5867   29.1528   49.8321 O   0  0  0  0  0  0  0  0  0  0  0  0
   46.4641   30.3887   48.0573 O   0  0  0  0  0  0  0  0  0  0  0  0
   46.5429   27.7593   47.7580 C   0  0  0  0  0  0  0  0  0  0  0  0
   47.6343   27.6278   46.9356 C   0  0  0  0  0  0  0  0  0  0  0  0
   47.6840   26.5550   46.0704 C   0  0  0  0  0  0  0  0  0  0  0  0
   48.5638   26.4651   45.4199 H   0  0  0  0  0  0  0  0  0  0  0  0
   46.6678   25.5979   45.9981 C   0  0  0  0  0  0  0  0  0  0  0  0
   46.7309   24.7547   45.3021 H   0  0  0  0  0  0  0  0  0  0  0  0
   45.5566   25.7334   46.8368 C   0  0  0  0  0  0  0  0  0  0  0  0
   45.5165   26.8170   47.7042 C   0  0  0  0  0  0  0  0  0  0  0  0
   44.7436   25.0238   46.8226 H   0  0  0  0  0  0  0  0  0  0  0  0
   44.6752   26.9590   48.3696 H   0  0  0  0  0  0  0  0  0  0  0  0
  1  6  2  0
  2  3  2  0
  2  1  1  0
  3  4  1  0
  4  5  2  0
  5  9  1  0
  6  5  1  0
  7  8  1  0
  8 13  2  0
  9  8  1  0
  9 10  2  0
 10 11  1  0
 12 11  2  0
 13 12  1  0
 14 13  1  0
 15 16  1  0
 15  2  1  0
 17 15  1  0
 18 15  1  0
 19  1  1  0
 20 19  1  0
 20 21  1  0
 22 20  1  0
 23 20  1  0
  3 24  1  0
 10 25  1  0
 11 26  1  0
 12 27  1  0
 14 28  1  0
 14 29  1  0
 30 31  1  0
 31 32  2  0
 31 33  2  0
 31 34  1  0
 34 35  2  0
 35 36  1  0
 36 37  1  0
 36 38  2  0
 38 39  1  0
 38 40  1  0
 40 41  2  0
 41 34  1  0
 40 42  1  0
 41 43  1  0
 14 35  1  0
M  ISO  8  24  14  25  14  26  14  27  14  28   8  29   8  30  12  37  15
M  ISO  1  39  16
M  END
>  <DihAtoms>  (1) 
12,13,34,33

>  <DihDeg>  (1) 
-179.96894178266504

$$$$
