REMARK  Name = 
REMARK  4 active torsions:
REMARK  status: ('A' for Active; 'I' for Inactive)
REMARK    1  A    between atoms: C_2  and  N_10
REMARK    2  A    between atoms: C_3  and  C_7
REMARK    3  A    between atoms: C_9  and  C_24
REMARK    4  A    between atoms: S_20  and  C_23
REMARK                            x       y       z     vdW  Elec       q    Type
REMARK                         _______ _______ _______ _____ _____    ______ ____
ROOT
ATOM      1  C   UNL     1      46.540  34.979  41.929  0.00  0.00    +0.000 C 
ATOM      2  C   UNL     1      48.058  35.277  41.938  0.00  0.00    +0.000 C 
ATOM      3  C   UNL     1      47.391  33.977  41.397  0.00  0.00    +0.000 C 
ATOM      4  H   UNL     1      45.956  35.701  41.351  0.00  0.00    +0.000 HD
ATOM      5  H   UNL     1      48.343  36.028  41.209  0.00  0.00    +0.000 HD
ATOM      6  H   UNL     1      48.618  35.222  42.869  0.00  0.00    +0.000 HD
ATOM      7  H   UNL     1      47.622  33.097  42.082  0.00  0.00    +0.000 HD
ENDROOT
BRANCH   1  10
ATOM      8  C   UNL     1      44.628  35.462  45.131  0.00  0.00    +0.000 A 
ATOM      9  C   UNL     1      45.093  35.712  43.814  0.00  0.00    +0.000 A 
ATOM     10  C   UNL     1      46.047  34.816  43.358  0.00  0.00    +0.000 A 
ATOM     11  N   UNL     1      46.492  33.772  44.147  0.00  0.00    +0.000 NA
ATOM     12  C   UNL     1      46.013  33.592  45.381  0.00  0.00    +0.000 A 
ATOM     13  N   UNL     1      45.072  34.443  45.878  0.00  0.00    +0.000 NA
ATOM     14  H   UNL     1      43.885  36.135  45.524  0.00  0.00    +0.000 HD
ATOM     15  H   UNL     1      46.469  32.734  45.849  0.00  0.00    +0.000 HD
BRANCH   9  16
ATOM     16  N   UNL     1      44.650  36.811  43.016  0.00  0.00    +0.000 N 
ATOM     17  H   UNL     1      45.304  37.592  43.248  0.00  0.00    +0.000 HD
ATOM     18  H   UNL     1      43.843  36.749  42.375  0.00  0.00    +0.000 HD
ENDBRANCH   9  16
ENDBRANCH   1  10
BRANCH   3  20
ATOM     19  C   UNL     1      47.733  32.522  39.251  0.00  0.00    +0.000 A 
ATOM     20  C   UNL     1      47.633  33.670  39.968  0.00  0.00    +0.000 A 
ATOM     21  C   UNL     1      47.752  34.866  39.245  0.00  0.00    +0.000 A 
ATOM     22  H   UNL     1      47.700  35.891  39.638  0.00  0.00    +0.000 HD
ATOM     23  C   UNL     1      47.959  34.877  37.873  0.00  0.00    +0.000 A 
ATOM     24  H   UNL     1      48.057  35.767  37.272  0.00  0.00    +0.000 HD
ATOM     25  C   UNL     1      48.053  33.699  37.193  0.00  0.00    +0.000 A 
ATOM     26  C   UNL     1      47.939  32.517  37.891  0.00  0.00    +0.000 A 
BRANCH  19  28
ATOM     27  H   UNL     1      47.996  31.204  41.448  0.00  0.00    +0.000 HD
ATOM     28  S   UNL     1      47.616  31.045  40.143  0.00  0.00    +0.000 S 
ATOM     29  O   UNL     1      48.611  30.036  39.576  0.00  0.00    +0.000 OA
ATOM     30  O   UNL     1      46.235  30.475  40.130  0.00  0.00    +0.000 OA
ENDBRANCH  19  28
ENDBRANCH   3  20
TORSDOF 4
