
     RDKit          3D

 54 57  0  0  0  0  0  0  0  0999 V2000
   47.5604   31.9669   46.4129 C   0  0  2  0  0  0  0  0  0  0  0  0
   47.3029   30.4967   45.9599 C   0  0  0  0  0  0  0  0  0  0  0  0
   48.1190   29.5739   46.7974 C   0  0  0  0  0  0  0  0  0  0  0  0
   48.1133   29.8456   48.2652 C   0  0  0  0  0  0  0  0  0  0  0  0
   48.1201   31.2452   48.6111 C   0  0  0  0  0  0  0  0  0  0  0  0
   47.1284   32.0967   47.7901 C   0  0  2  0  0  0  0  0  0  0  0  0
   46.9149   32.9157   45.5292 C   0  0  0  0  0  0  0  0  0  0  0  0
   45.8038   33.5906   46.0163 C   0  0  0  0  0  0  0  0  0  0  0  0
   45.1247   34.5121   45.1853 C   0  0  0  0  0  0  0  0  0  0  0  0
   45.6370   34.6821   43.9023 N   0  0  0  0  0  0  0  0  0  0  0  0
   46.7154   34.0006   43.4951 C   0  0  0  0  0  0  0  0  0  0  0  0
   47.3419   33.1344   44.2910 N   0  0  0  0  0  0  0  0  0  0  0  0
   47.2171   34.2427   42.1392 C   0  0  0  0  0  0  0  0  0  0  0  0
   48.1953   35.1713   41.8966 C   0  0  0  0  0  0  0  0  0  0  0  0
   48.6962   35.4313   40.6375 C   0  0  0  0  0  0  0  0  0  0  0  0
   48.1449   34.6853   39.6016 C   0  0  0  0  0  0  0  0  0  0  0  0
   47.1635   33.7511   39.8318 C   0  0  0  0  0  0  0  0  0  0  0  0
   46.7216   33.5523   41.1033 N   0  0  0  0  0  0  0  0  0  0  0  0
   45.7875   31.5295   47.9506 N   0  0  0  0  0  0  0  0  0  0  0  0
   45.1850   30.8444   49.0203 C   0  0  0  0  0  0  0  0  0  0  0  0
   44.7510   31.4371   50.0729 O   0  0  0  0  0  0  0  0  0  0  0  0
   45.0840   29.4317   48.8432 N   0  0  0  0  0  0  0  0  0  0  0  0
   48.6596   32.0602   46.3014 H   0  0  0  0  0  0  0  0  0  0  0  0
   46.2286   30.2915   45.9266 H   0  0  0  0  0  0  0  0  0  0  0  0
   47.6587   30.4830   44.9093 H   0  0  0  0  0  0  0  0  0  0  0  0
   49.1113   29.5080   46.3102 H   0  0  0  0  0  0  0  0  0  0  0  0
   47.6737   28.5454   46.6605 H   0  0  0  0  0  0  0  0  0  0  0  0
   49.2252   29.5923   48.4975 H   0  0  0  0  0  0  0  0  0  0  0  0
   47.7379   29.0682   48.9308 H   0  0  0  0  0  0  0  0  0  0  0  0
   49.0814   31.8130   48.5577 H   0  0  0  0  0  0  0  0  0  0  0  0
   47.7717   31.3800   49.6763 H   0  0  0  0  0  0  0  0  0  0  0  0
   47.2585   33.0749   48.2556 H   0  0  0  0  0  0  0  0  0  0  0  0
   45.2750   33.6436   46.9453 H   0  0  0  0  0  0  0  0  0  0  0  0
   44.2738   35.1066   45.3790 H   0  0  0  0  0  0  0  0  0  0  0  0
   48.5805   35.7146   42.7370 H   0  0  0  0  0  0  0  0  0  0  0  0
   49.4650   36.1724   40.5061 H   0  0  0  0  0  0  0  0  0  0  0  0
   48.5509   34.9062   38.6333 H   0  0  0  0  0  0  0  0  0  0  0  0
   45.0634   31.5272   47.1366 H   0  0  0  0  0  0  0  0  0  0  0  0
   44.5555   28.9695   48.0744 H   0  0  0  0  0  0  0  0  0  0  0  0
   45.3926   28.5198   49.2650 H   0  0  0  0  0  0  0  0  0  0  0  0
   48.9995   34.7095   37.4658 H   0  0  0  0  0  0  0  0  0  0  0  0
   47.7134   34.7614   36.9768 S   0  0  0  0  0  0  0  0  0  0  0  0
   47.8770   34.7288   35.4610 O   0  0  0  0  0  0  0  0  0  0  0  0
   47.0209   36.0499   37.3294 O   0  0  0  0  0  0  0  0  0  0  0  0
   46.7839   33.3526   37.4321 C   0  0  0  0  0  0  0  0  0  0  0  0
   46.5905   32.9753   38.7539 C   0  0  0  0  0  0  0  0  0  0  0  0
   45.8378   31.8441   38.9791 C   0  0  0  0  0  0  0  0  0  0  0  0
   45.6360   31.4770   39.9749 H   0  0  0  0  0  0  0  0  0  0  0  0
   45.2711   31.0723   37.9852 C   0  0  0  0  0  0  0  0  0  0  0  0
   44.6813   30.1838   38.1918 H   0  0  0  0  0  0  0  0  0  0  0  0
   45.4480   31.4242   36.6796 C   0  0  0  0  0  0  0  0  0  0  0  0
   46.1995   32.5547   36.4388 C   0  0  0  0  0  0  0  0  0  0  0  0
   45.0420   30.8802   35.8378 H   0  0  0  0  0  0  0  0  0  0  0  0
   46.3483   32.8465   35.3997 H   0  0  0  0  0  0  0  0  0  0  0  0
  1  6  1  0
  2  1  1  0
  2  3  1  0
  3  4  1  0
  4  5  1  0
  6 19  1  0
  6  5  1  0
  7  8  2  0
  7  1  1  0
  9  8  1  0
 10  9  2  0
 11 10  1  0
 11 12  2  0
 12  7  1  0
 13 11  1  0
 14 13  2  0
 15 14  1  0
 16 17  1  0
 16 15  2  0
 17 18  2  0
 18 13  1  0
 19 20  1  0
 20 21  2  0
 22 20  1  0
  1 23  1  1
  2 24  1  0
  2 25  1  0
  3 26  1  0
  3 27  1  0
  4 28  1  0
  4 29  1  0
  5 30  1  0
  5 31  1  0
  6 32  1  1
  8 33  1  0
  9 34  1  0
 14 35  1  0
 15 36  1  0
 16 37  1  0
 19 38  1  0
 22 39  1  0
 22 40  1  0
 41 42  1  0
 42 43  2  0
 42 44  2  0
 42 45  1  0
 45 46  2  0
 46 47  1  0
 47 48  1  0
 47 49  2  0
 49 50  1  0
 49 51  1  0
 51 52  2  0
 52 45  1  0
 51 53  1  0
 52 54  1  0
 17 46  1  0
M  ISO  8  23  13  24  13  25  13  26  13  27  13  28  13  29  13  30  13
M  ISO  8  31  13  32  13  33  14  34  14  35  14  36  14  37  14  41  12
M  ISO  2  48  15  50  16
M  END
>  <DihAtoms>  (1) 
15,16,45,44

>  <DihDeg>  (1) 
-179.83325883337253

$$$$
