
 OpenBabel03252506353D

 36 38  0  0  1  0  0  0  0  0999 V2000
   42.8650   34.1040   37.5370 C   0  0  0  0  0  0  0  0  0  0  0  0
   43.9960   33.2720   37.5330 C   0  0  0  0  0  0  0  0  0  0  0  0
   43.9480   32.1030   38.2270 C   0  0  0  0  0  0  0  0  0  0  0  0
   42.7990   31.8250   38.8790 N   0  0  0  0  0  0  0  0  0  0  0  0
   41.7280   32.6130   38.8830 C   0  0  0  0  0  0  0  0  0  0  0  0
   41.7280   33.7760   38.2130 N   0  0  0  0  0  0  0  0  0  0  0  0
   40.5830   32.2020   39.6140 N   0  0  0  0  0  0  0  0  0  0  0  0
   39.2500   32.7810   39.4670 C   0  0  0  0  0  0  0  0  0  0  0  0
   38.7680   32.7710   40.9130 C   0  0  0  0  0  0  0  0  0  0  0  0
   39.7290   31.9190   41.6990 C   0  0  0  0  0  0  0  0  0  0  0  0
   40.4770   31.1690   40.6210 C   0  0  1  0  0  0  0  0  0  0  0  0
   42.8250   35.0580   37.0040 H   0  0  0  0  0  0  0  0  0  0  0  0
   44.8180   31.5010   38.2010 H   0  0  0  0  0  0  0  0  0  0  0  0
   38.6060   32.1850   38.8030 H   0  0  0  0  0  0  0  0  0  0  0  0
   39.2850   33.8360   39.1560 H   0  0  0  0  0  0  0  0  0  0  0  0
   37.7700   32.2920   40.9150 H   0  0  0  0  0  0  0  0  0  0  0  0
   38.6280   33.7860   41.3140 H   0  0  0  0  0  0  0  0  0  0  0  0
   39.1990   31.2240   42.3970 H   0  0  0  0  0  0  0  0  0  0  0  0
   40.4140   32.6050   42.2350 H   0  0  0  0  0  0  0  0  0  0  0  0
   41.4450   30.8800   41.0440 H   0  0  0  0  0  0  0  0  0  0  0  0
   45.0900   33.7910   36.7710 N   0  0  0  0  0  0  0  0  0  0  0  0
   45.1110   34.0570   35.7760 H   0  0  0  0  0  0  0  0  0  0  0  0
   45.8580   33.8270   37.4940 H   0  0  0  0  0  0  0  0  0  0  0  0
   39.4470   29.7950   40.0760 S   0  0  0  0  0  0  0  0  0  0  0  0
   37.3760   28.8310   41.7580 C   0  0  0  0  0  0  0  0  0  0  0  0
   38.7130   28.9150   41.4420 C   0  0  0  0  0  0  0  0  0  0  0  0
   39.6510   28.2570   42.2430 C   0  0  0  0  0  0  0  0  0  0  0  0
   40.7270   28.2680   42.0690 H   0  0  0  0  0  0  0  0  0  0  0  0
   39.2200   27.5330   43.3390 C   0  0  0  0  0  0  0  0  0  0  0  0
   39.9320   27.0170   43.9680 H   0  0  0  0  0  0  0  0  0  0  0  0
   37.8880   27.4410   43.6650 C   0  0  0  0  0  3  0  0  0  0  0  0
   36.9800   28.0990   42.8610 C   0  0  0  0  0  3  0  0  0  0  0  0
   36.8290   29.7390   39.4290 H   0  0  0  0  0  0  0  0  0  0  0  0
   36.2990   29.6930   40.6870 S   0  0  0  0  0  0  0  0  0  0  0  0
   34.9930   28.9190   40.5790 O   0  0  0  0  0  0  0  0  0  0  0  0
   35.9210   31.0450   41.2030 O   0  0  0  0  0  0  0  0  0  0  0  0
  1  6  1  0  0  0  0
  2  1  2  0  0  0  0
  2  3  1  0  0  0  0
  3  4  2  0  0  0  0
  4  5  1  0  0  0  0
  5  7  1  0  0  0  0
  6  5  2  0  0  0  0
  7 11  1  0  0  0  0
  8  7  1  0  0  0  0
  8  9  1  0  0  0  0
  9 16  1  0  0  0  0
  9 17  1  0  0  0  0
  9 10  1  0  0  0  0
 10 19  1  0  0  0  0
 10 18  1  0  0  0  0
 11 20  1  1  0  0  0
 11 10  1  0  0  0  0
 12  1  1  0  0  0  0
 13  3  1  0  0  0  0
 14  8  1  0  0  0  0
 15  8  1  0  0  0  0
 21 23  1  0  0  0  0
 21  2  1  0  0  0  0
 22 21  1  0  0  0  0
 24 11  1  0  0  0  0
 24 26  1  0  0  0  0
 25 32  1  0  0  0  0
 26 25  2  0  0  0  0
 26 27  1  0  0  0  0
 27 29  2  0  0  0  0
 28 27  1  0  0  0  0
 29 31  1  0  0  0  0
 29 30  1  0  0  0  0
 32 31  2  0  0  0  0
 33 34  1  0  0  0  0
 34 36  2  0  0  0  0
 34 25  1  0  0  0  0
 35 34  2  0  0  0  0
M  END
>  <minimizedAffinity>
-5.6633358

$$$$

 OpenBabel03252506353D

 36 38  0  0  1  0  0  0  0  0999 V2000
   39.3260   32.6820   39.6510 C   0  0  0  0  0  0  0  0  0  0  0  0
   40.0440   32.6050   40.8550 C   0  0  0  0  0  0  0  0  0  0  0  0
   39.7760   31.5810   41.7100 C   0  0  0  0  0  0  0  0  0  0  0  0
   38.8240   30.7030   41.3320 N   0  0  0  0  0  0  0  0  0  0  0  0
   38.1430   30.7760   40.1930 C   0  0  0  0  0  0  0  0  0  0  0  0
   38.3730   31.7680   39.3170 N   0  0  0  0  0  0  0  0  0  0  0  0
   37.1630   29.7850   39.9190 N   0  0  0  0  0  0  0  0  0  0  0  0
   36.5670   29.5450   38.6080 C   0  0  0  0  0  0  0  0  0  0  0  0
   35.1260   29.2320   38.9970 C   0  0  0  0  0  0  0  0  0  0  0  0
   35.1010   29.0240   40.4880 C   0  0  0  0  0  0  0  0  0  0  0  0
   36.5620   28.8350   40.8290 C   0  0  1  0  0  0  0  0  0  0  0  0
   39.4840   33.4740   38.9130 H   0  0  0  0  0  0  0  0  0  0  0  0
   40.3380   31.5540   42.6060 H   0  0  0  0  0  0  0  0  0  0  0  0
   37.0500   28.7130   38.0740 H   0  0  0  0  0  0  0  0  0  0  0  0
   36.5340   30.4550   37.9910 H   0  0  0  0  0  0  0  0  0  0  0  0
   34.8560   28.2860   38.4910 H   0  0  0  0  0  0  0  0  0  0  0  0
   34.4210   29.9950   38.6330 H   0  0  0  0  0  0  0  0  0  0  0  0
   34.4900   28.1330   40.7760 H   0  0  0  0  0  0  0  0  0  0  0  0
   34.7180   29.9580   40.9440 H   0  0  0  0  0  0  0  0  0  0  0  0
   36.6830   29.1120   41.8820 H   0  0  0  0  0  0  0  0  0  0  0  0
   40.9970   33.6590   41.0260 N   0  0  0  0  0  0  0  0  0  0  0  0
   41.7830   33.9210   40.4130 H   0  0  0  0  0  0  0  0  0  0  0  0
   40.6820   34.0890   41.9360 H   0  0  0  0  0  0  0  0  0  0  0  0
   37.0150   27.1370   40.4320 S   0  0  0  0  0  0  0  0  0  0  0  0
   38.4770   25.1060   41.7680 C   0  0  0  0  0  0  0  0  0  0  0  0
   38.1070   26.4260   41.6480 C   0  0  0  0  0  0  0  0  0  0  0  0
   38.6140   27.3660   42.5520 C   0  0  0  0  0  0  0  0  0  0  0  0
   38.3770   28.4300   42.5330 H   0  0  0  0  0  0  0  0  0  0  0  0
   39.4770   26.9520   43.5490 C   0  0  0  0  0  0  0  0  0  0  0  0
   39.8780   27.6660   44.2560 H   0  0  0  0  0  0  0  0  0  0  0  0
   39.8540   25.6370   43.6790 C   0  0  0  0  0  3  0  0  0  0  0  0
   39.3410   24.7270   42.7770 C   0  0  0  0  0  3  0  0  0  0  0  0
   37.9720   24.5250   39.3270 H   0  0  0  0  0  0  0  0  0  0  0  0
   37.7830   24.0260   40.5840 S   0  0  0  0  0  0  0  0  0  0  0  0
   38.5230   22.6980   40.6390 O   0  0  0  0  0  0  0  0  0  0  0  0
   36.3510   23.6970   40.8630 O   0  0  0  0  0  0  0  0  0  0  0  0
  1  2  1  0  0  0  0
  2 21  1  0  0  0  0
  2  3  2  0  0  0  0
  3 13  1  0  0  0  0
  4  3  1  0  0  0  0
  5  4  2  0  0  0  0
  6  1  2  0  0  0  0
  6  5  1  0  0  0  0
  7  5  1  0  0  0  0
  7 11  1  0  0  0  0
  8  9  1  0  0  0  0
  8  7  1  0  0  0  0
  9 10  1  0  0  0  0
 10 18  1  0  0  0  0
 10 11  1  0  0  0  0
 10 19  1  0  0  0  0
 11 20  1  1  0  0  0
 12  1  1  0  0  0  0
 14  8  1  0  0  0  0
 15  8  1  0  0  0  0
 16  9  1  0  0  0  0
 17  9  1  0  0  0  0
 21 23  1  0  0  0  0
 22 21  1  0  0  0  0
 24 11  1  0  0  0  0
 24 26  1  0  0  0  0
 25 32  1  0  0  0  0
 26 25  2  0  0  0  0
 26 27  1  0  0  0  0
 27 29  2  0  0  0  0
 28 27  1  0  0  0  0
 29 31  1  0  0  0  0
 29 30  1  0  0  0  0
 32 31  2  0  0  0  0
 33 34  1  0  0  0  0
 34 35  2  0  0  0  0
 34 36  2  0  0  0  0
 34 25  1  0  0  0  0
M  END
>  <minimizedAffinity>
-5.54378128

$$$$

 OpenBabel03252506353D

 36 38  0  0  1  0  0  0  0  0999 V2000
   37.4840   32.1260   38.3280 C   0  0  0  0  0  0  0  0  0  0  0  0
   37.1150   32.4900   39.6340 C   0  0  0  0  0  0  0  0  0  0  0  0
   36.5830   31.5400   40.4490 C   0  0  0  0  0  0  0  0  0  0  0  0
   36.4460   30.3000   39.9350 N   0  0  0  0  0  0  0  0  0  0  0  0
   36.7940   29.9560   38.6990 C   0  0  0  0  0  0  0  0  0  0  0  0
   37.3240   30.8580   37.8570 N   0  0  0  0  0  0  0  0  0  0  0  0
   36.5930   28.6130   38.2830 N   0  0  0  0  0  0  0  0  0  0  0  0
   37.1970   28.0100   37.0980 C   0  0  0  0  0  0  0  0  0  0  0  0
   36.0530   27.1320   36.6030 C   0  0  0  0  0  0  0  0  0  0  0  0
   35.0240   27.0780   37.7000 C   0  0  0  0  0  0  0  0  0  0  0  0
   35.7840   27.5870   38.9040 C   0  0  1  0  0  0  0  0  0  0  0  0
   37.9190   32.8320   37.6140 H   0  0  0  0  0  0  0  0  0  0  0  0
   36.3180   31.8490   41.4250 H   0  0  0  0  0  0  0  0  0  0  0  0
   38.1010   27.4290   37.3380 H   0  0  0  0  0  0  0  0  0  0  0  0
   37.3910   28.7490   36.3060 H   0  0  0  0  0  0  0  0  0  0  0  0
   36.4710   26.1200   36.4430 H   0  0  0  0  0  0  0  0  0  0  0  0
   35.6620   27.4670   35.6300 H   0  0  0  0  0  0  0  0  0  0  0  0
   34.6380   26.0410   37.8620 H   0  0  0  0  0  0  0  0  0  0  0  0
   34.2160   27.7860   37.4300 H   0  0  0  0  0  0  0  0  0  0  0  0
   35.0440   27.9880   39.6050 H   0  0  0  0  0  0  0  0  0  0  0  0
   37.3560   33.8670   39.9380 N   0  0  0  0  0  0  0  0  0  0  0  0
   38.2440   34.3890   39.8950 H   0  0  0  0  0  0  0  0  0  0  0  0
   36.3940   34.1980   40.2140 H   0  0  0  0  0  0  0  0  0  0  0  0
   36.7850   26.2340   39.5480 S   0  0  0  0  0  0  0  0  0  0  0  0
   38.7180   26.1990   41.6230 C   0  0  0  0  0  0  0  0  0  0  0  0
   37.5020   26.6170   41.1340 C   0  0  0  0  0  0  0  0  0  0  0  0
   36.6900   27.4390   41.9220 C   0  0  0  0  0  0  0  0  0  0  0  0
   35.7140   27.8170   41.6180 H   0  0  0  0  0  0  0  0  0  0  0  0
   37.1240   27.8170   43.1800 C   0  0  0  0  0  0  0  0  0  0  0  0
   36.5090   28.4530   43.8020 H   0  0  0  0  0  0  0  0  0  0  0  0
   38.3370   27.4070   43.6790 C   0  0  0  0  0  3  0  0  0  0  0  0
   39.1210   26.5960   42.8840 C   0  0  0  0  0  3  0  0  0  0  0  0
   39.6300   25.6940   39.2860 H   0  0  0  0  0  0  0  0  0  0  0  0
   39.6440   25.1790   40.5500 S   0  0  0  0  0  0  0  0  0  0  0  0
   41.0960   25.1810   41.0030 O   0  0  0  0  0  0  0  0  0  0  0  0
   39.2150   23.7460   40.5930 O   0  0  0  0  0  0  0  0  0  0  0  0
  1  2  1  0  0  0  0
  2 21  1  0  0  0  0
  2  3  2  0  0  0  0
  3 13  1  0  0  0  0
  4  3  1  0  0  0  0
  5  4  2  0  0  0  0
  6  1  2  0  0  0  0
  6  5  1  0  0  0  0
  7  5  1  0  0  0  0
  7 11  1  0  0  0  0
  8 14  1  0  0  0  0
  8  7  1  0  0  0  0
  9  8  1  0  0  0  0
  9 10  1  0  0  0  0
 10 18  1  0  0  0  0
 10 11  1  0  0  0  0
 11 24  1  0  0  0  0
 11 20  1  1  0  0  0
 12  1  1  0  0  0  0
 15  8  1  0  0  0  0
 16  9  1  0  0  0  0
 17  9  1  0  0  0  0
 19 10  1  0  0  0  0
 21 23  1  0  0  0  0
 22 21  1  0  0  0  0
 24 26  1  0  0  0  0
 25 32  1  0  0  0  0
 26 25  2  0  0  0  0
 26 27  1  0  0  0  0
 27 29  2  0  0  0  0
 28 27  1  0  0  0  0
 29 31  1  0  0  0  0
 29 30  1  0  0  0  0
 32 31  2  0  0  0  0
 33 34  1  0  0  0  0
 34 36  2  0  0  0  0
 34 35  2  0  0  0  0
 34 25  1  0  0  0  0
M  END
>  <minimizedAffinity>
-5.34326458

$$$$

 OpenBabel03252506353D

 36 38  0  0  1  0  0  0  0  0999 V2000
   39.0710   32.9530   39.4800 C   0  0  0  0  0  0  0  0  0  0  0  0
   37.6780   32.7840   39.5400 C   0  0  0  0  0  0  0  0  0  0  0  0
   37.1760   31.5210   39.5750 C   0  0  0  0  0  0  0  0  0  0  0  0
   38.0670   30.5070   39.5490 N   0  0  0  0  0  0  0  0  0  0  0  0
   39.3850   30.6660   39.4920 C   0  0  0  0  0  0  0  0  0  0  0  0
   39.9280   31.8940   39.4560 N   0  0  0  0  0  0  0  0  0  0  0  0
   40.2110   29.5120   39.4670 N   0  0  0  0  0  0  0  0  0  0  0  0
   41.6490   29.5120   39.7190 C   0  0  0  0  0  0  0  0  0  0  0  0
   42.1220   28.4740   38.7080 C   0  0  0  0  0  0  0  0  0  0  0  0
   40.8990   27.7630   38.1920 C   0  0  0  0  0  0  0  0  0  0  0  0
   39.8370   28.1400   39.2000 C   0  0  1  0  0  0  0  0  0  0  0  0
   39.5520   33.9350   39.4500 H   0  0  0  0  0  0  0  0  0  0  0  0
   36.1230   31.4320   39.6210 H   0  0  0  0  0  0  0  0  0  0  0  0
   41.8930   29.2330   40.7560 H   0  0  0  0  0  0  0  0  0  0  0  0
   42.1230   30.4640   39.4350 H   0  0  0  0  0  0  0  0  0  0  0  0
   42.7570   27.7550   39.2600 H   0  0  0  0  0  0  0  0  0  0  0  0
   42.7560   28.9140   37.9230 H   0  0  0  0  0  0  0  0  0  0  0  0
   41.0470   26.6560   38.1410 H   0  0  0  0  0  0  0  0  0  0  0  0
   40.6590   28.1980   37.2020 H   0  0  0  0  0  0  0  0  0  0  0  0
   38.8690   28.0490   38.6960 H   0  0  0  0  0  0  0  0  0  0  0  0
   36.9490   34.0150   39.5520 N   0  0  0  0  0  0  0  0  0  0  0  0
   37.0220   34.7990   40.2180 H   0  0  0  0  0  0  0  0  0  0  0  0
   36.3270   33.9050   38.7080 H   0  0  0  0  0  0  0  0  0  0  0  0
   40.0410   27.0880   40.6490 S   0  0  0  0  0  0  0  0  0  0  0  0
   37.6700   26.3340   42.0110 C   0  0  0  0  0  0  0  0  0  0  0  0
   38.6820   27.2400   41.7930 C   0  0  0  0  0  0  0  0  0  0  0  0
   38.7050   28.4340   42.5210 C   0  0  0  0  0  0  0  0  0  0  0  0
   39.4650   29.2070   42.4150 H   0  0  0  0  0  0  0  0  0  0  0  0
   37.7090   28.6830   43.4480 C   0  0  0  0  0  0  0  0  0  0  0  0
   37.7120   29.6000   44.0190 H   0  0  0  0  0  0  0  0  0  0  0  0
   36.6930   27.7860   43.6740 C   0  0  0  0  0  3  0  0  0  0  0  0
   36.6900   26.6150   42.9440 C   0  0  0  0  0  3  0  0  0  0  0  0
   38.1640   25.1810   39.7800 H   0  0  0  0  0  0  0  0  0  0  0  0
   37.7470   24.8810   41.0450 S   0  0  0  0  0  0  0  0  0  0  0  0
   38.7960   23.9530   41.6390 O   0  0  0  0  0  0  0  0  0  0  0  0
   36.4700   24.1020   41.0600 O   0  0  0  0  0  0  0  0  0  0  0  0
  1  2  1  0  0  0  0
  2 21  1  0  0  0  0
  2  3  2  0  0  0  0
  3 13  1  0  0  0  0
  4  3  1  0  0  0  0
  5  4  2  0  0  0  0
  6  1  2  0  0  0  0
  6  5  1  0  0  0  0
  7  5  1  0  0  0  0
  7  8  1  0  0  0  0
  8 14  1  0  0  0  0
  9 16  1  0  0  0  0
  9  8  1  0  0  0  0
 10  9  1  0  0  0  0
 10 11  1  0  0  0  0
 11 20  1  6  0  0  0
 11  7  1  0  0  0  0
 11 24  1  0  0  0  0
 12  1  1  0  0  0  0
 15  8  1  0  0  0  0
 17  9  1  0  0  0  0
 18 10  1  0  0  0  0
 19 10  1  0  0  0  0
 21 22  1  0  0  0  0
 23 21  1  0  0  0  0
 24 26  1  0  0  0  0
 25 32  1  0  0  0  0
 26 25  2  0  0  0  0
 26 27  1  0  0  0  0
 27 29  2  0  0  0  0
 28 27  1  0  0  0  0
 29 31  1  0  0  0  0
 29 30  1  0  0  0  0
 32 31  2  0  0  0  0
 33 34  1  0  0  0  0
 34 36  2  0  0  0  0
 34 35  2  0  0  0  0
 34 25  1  0  0  0  0
M  END
>  <minimizedAffinity>
-5.28219509

$$$$

 OpenBabel03252506353D

 36 38  0  0  1  0  0  0  0  0999 V2000
   39.0310   33.7740   40.3900 C   0  0  0  0  0  0  0  0  0  0  0  0
   37.9210   33.1550   39.7920 C   0  0  0  0  0  0  0  0  0  0  0  0
   37.8820   31.7960   39.7430 C   0  0  0  0  0  0  0  0  0  0  0  0
   38.9280   31.1330   40.2790 N   0  0  0  0  0  0  0  0  0  0  0  0
   39.9790   31.7190   40.8440 C   0  0  0  0  0  0  0  0  0  0  0  0
   40.0630   33.0570   40.9180 N   0  0  0  0  0  0  0  0  0  0  0  0
   41.0150   30.9020   41.3680 N   0  0  0  0  0  0  0  0  0  0  0  0
   42.0580   31.3640   42.2790 C   0  0  0  0  0  0  0  0  0  0  0  0
   43.2610   30.5830   41.7630 C   0  0  0  0  0  0  0  0  0  0  0  0
   42.7410   29.5330   40.8180 C   0  0  0  0  0  0  0  0  0  0  0  0
   41.2620   29.4970   41.1320 C   0  0  1  0  0  0  0  0  0  0  0  0
   39.1360   34.8600   40.4700 H   0  0  0  0  0  0  0  0  0  0  0  0
   37.0300   31.3650   39.2860 H   0  0  0  0  0  0  0  0  0  0  0  0
   41.8260   31.1360   43.3310 H   0  0  0  0  0  0  0  0  0  0  0  0
   42.2930   32.4290   42.1400 H   0  0  0  0  0  0  0  0  0  0  0  0
   43.7230   30.0890   42.6400 H   0  0  0  0  0  0  0  0  0  0  0  0
   44.0310   31.2400   41.3320 H   0  0  0  0  0  0  0  0  0  0  0  0
   43.2250   28.5390   40.9870 H   0  0  0  0  0  0  0  0  0  0  0  0
   42.9050   29.9070   39.7880 H   0  0  0  0  0  0  0  0  0  0  0  0
   40.7540   29.1140   40.2400 H   0  0  0  0  0  0  0  0  0  0  0  0
   36.9470   34.0760   39.2940 N   0  0  0  0  0  0  0  0  0  0  0  0
   36.4360   34.8110   39.8060 H   0  0  0  0  0  0  0  0  0  0  0  0
   36.8940   33.8050   38.2770 H   0  0  0  0  0  0  0  0  0  0  0  0
   41.0300   28.5080   42.6210 S   0  0  0  0  0  0  0  0  0  0  0  0
   38.9370   26.6060   42.4040 C   0  0  0  0  0  0  0  0  0  0  0  0
   39.3740   27.8630   42.7530 C   0  0  0  0  0  0  0  0  0  0  0  0
   38.4630   28.7850   43.2800 C   0  0  0  0  0  0  0  0  0  0  0  0
   38.7180   29.8000   43.5830 H   0  0  0  0  0  0  0  0  0  0  0  0
   37.1400   28.4160   43.4400 C   0  0  0  0  0  0  0  0  0  0  0  0
   36.4230   29.1170   43.8460 H   0  0  0  0  0  0  0  0  0  0  0  0
   36.6920   27.1640   43.0950 C   0  0  0  0  0  3  0  0  0  0  0  0
   37.6080   26.2710   42.5770 C   0  0  0  0  0  3  0  0  0  0  0  0
   41.1410   26.2720   41.1460 H   0  0  0  0  0  0  0  0  0  0  0  0
   40.1630   25.5420   41.7590 S   0  0  0  0  0  0  0  0  0  0  0  0
   40.8300   24.8070   42.9130 O   0  0  0  0  0  0  0  0  0  0  0  0
   39.6020   24.4740   40.8760 O   0  0  0  0  0  0  0  0  0  0  0  0
  1 12  1  0  0  0  0
  1  6  1  0  0  0  0
  2  1  2  0  0  0  0
  3  2  1  0  0  0  0
  3  4  2  0  0  0  0
  4  5  1  0  0  0  0
  5  6  2  0  0  0  0
  5  7  1  0  0  0  0
  7  8  1  0  0  0  0
  8 14  1  0  0  0  0
  9  8  1  0  0  0  0
  9 16  1  0  0  0  0
 10 18  1  0  0  0  0
 10 11  1  0  0  0  0
 10  9  1  0  0  0  0
 11 20  1  6  0  0  0
 11  7  1  0  0  0  0
 11 24  1  0  0  0  0
 13  3  1  0  0  0  0
 15  8  1  0  0  0  0
 17  9  1  0  0  0  0
 19 10  1  0  0  0  0
 21  2  1  0  0  0  0
 21 22  1  0  0  0  0
 23 21  1  0  0  0  0
 24 26  1  0  0  0  0
 25 32  2  0  0  0  0
 25 26  1  0  0  0  0
 26 27  2  0  0  0  0
 27 29  1  0  0  0  0
 27 28  1  0  0  0  0
 29 30  1  0  0  0  0
 31 29  2  0  0  0  0
 32 31  1  0  0  0  0
 33 34  1  0  0  0  0
 34 25  1  0  0  0  0
 34 35  2  0  0  0  0
 36 34  2  0  0  0  0
M  END
>  <minimizedAffinity>
-5.27323198

$$$$

 OpenBabel03252506353D

 36 38  0  0  1  0  0  0  0  0999 V2000
   36.9860   30.0300   36.5540 C   0  0  0  0  0  0  0  0  0  0  0  0
   37.5570   28.7760   36.2800 C   0  0  0  0  0  0  0  0  0  0  0  0
   38.3690   28.2130   37.2140 C   0  0  0  0  0  0  0  0  0  0  0  0
   38.5700   28.9100   38.3520 N   0  0  0  0  0  0  0  0  0  0  0  0
   38.0300   30.0980   38.6110 C   0  0  0  0  0  0  0  0  0  0  0  0
   37.2210   30.6940   37.7200 N   0  0  0  0  0  0  0  0  0  0  0  0
   38.3260   30.7260   39.8490 N   0  0  0  0  0  0  0  0  0  0  0  0
   37.5840   31.8520   40.4090 C   0  0  0  0  0  0  0  0  0  0  0  0
   38.7150   32.6650   41.0290 C   0  0  0  0  0  0  0  0  0  0  0  0
   39.9420   31.7930   41.0350 C   0  0  0  0  0  0  0  0  0  0  0  0
   39.3780   30.4120   40.7910 C   0  0  1  0  0  0  0  0  0  0  0  0
   36.3220   30.5470   35.8550 H   0  0  0  0  0  0  0  0  0  0  0  0
   38.7810   27.2680   36.9740 H   0  0  0  0  0  0  0  0  0  0  0  0
   36.8370   31.5330   41.1510 H   0  0  0  0  0  0  0  0  0  0  0  0
   37.1340   32.4840   39.6290 H   0  0  0  0  0  0  0  0  0  0  0  0
   38.4170   32.8850   42.0720 H   0  0  0  0  0  0  0  0  0  0  0  0
   38.8510   33.6370   40.5310 H   0  0  0  0  0  0  0  0  0  0  0  0
   40.4930   31.8510   42.0070 H   0  0  0  0  0  0  0  0  0  0  0  0
   40.5720   32.1060   40.1790 H   0  0  0  0  0  0  0  0  0  0  0  0
   40.1820   29.8100   40.3540 H   0  0  0  0  0  0  0  0  0  0  0  0
   37.1940   28.2450   35.0020 N   0  0  0  0  0  0  0  0  0  0  0  0
   36.2520   28.0510   34.6300 H   0  0  0  0  0  0  0  0  0  0  0  0
   38.1370   28.1060   34.5510 H   0  0  0  0  0  0  0  0  0  0  0  0
   38.7250   29.7900   42.3510 S   0  0  0  0  0  0  0  0  0  0  0  0
   38.9320   27.0290   42.9680 C   0  0  0  0  0  0  0  0  0  0  0  0
   39.5110   28.2720   42.8570 C   0  0  0  0  0  0  0  0  0  0  0  0
   40.8670   28.4270   43.1600 C   0  0  0  0  0  0  0  0  0  0  0  0
   41.4090   29.3710   43.1010 H   0  0  0  0  0  0  0  0  0  0  0  0
   41.6030   27.3280   43.5650 C   0  0  0  0  0  0  0  0  0  0  0  0
   42.6520   27.4310   43.8020 H   0  0  0  0  0  0  0  0  0  0  0  0
   41.0350   26.0820   43.6790 C   0  0  0  0  0  3  0  0  0  0  0  0
   39.6960   25.9520   43.3760 C   0  0  0  0  0  3  0  0  0  0  0  0
   37.0010   27.6330   41.4000 H   0  0  0  0  0  0  0  0  0  0  0  0
   37.2340   26.9570   42.5630 S   0  0  0  0  0  0  0  0  0  0  0  0
   36.8520   25.5070   42.3050 O   0  0  0  0  0  0  0  0  0  0  0  0
   36.3490   27.4110   43.6790 O   0  0  0  0  0  0  0  0  0  0  0  0
  1  6  1  0  0  0  0
  2  1  2  0  0  0  0
  2  3  1  0  0  0  0
  3  4  2  0  0  0  0
  4  5  1  0  0  0  0
  5  7  1  0  0  0  0
  6  5  2  0  0  0  0
  7  8  1  0  0  0  0
  7 11  1  0  0  0  0
  8  9  1  0  0  0  0
  8 14  1  0  0  0  0
  9 10  1  0  0  0  0
  9 16  1  0  0  0  0
 10 18  1  0  0  0  0
 11 20  1  6  0  0  0
 11 10  1  0  0  0  0
 11 24  1  0  0  0  0
 12  1  1  0  0  0  0
 13  3  1  0  0  0  0
 15  8  1  0  0  0  0
 17  9  1  0  0  0  0
 19 10  1  0  0  0  0
 21  2  1  0  0  0  0
 22 21  1  0  0  0  0
 23 21  1  0  0  0  0
 24 26  1  0  0  0  0
 25 32  1  0  0  0  0
 26 25  2  0  0  0  0
 26 27  1  0  0  0  0
 27 29  2  0  0  0  0
 28 27  1  0  0  0  0
 29 31  1  0  0  0  0
 29 30  1  0  0  0  0
 32 31  2  0  0  0  0
 33 34  1  0  0  0  0
 34 25  1  0  0  0  0
 34 36  2  0  0  0  0
 35 34  2  0  0  0  0
M  END
>  <minimizedAffinity>
-5.24391699

$$$$

 OpenBabel03252506353D

 36 38  0  0  1  0  0  0  0  0999 V2000
   39.8280   31.2290   37.4570 C   0  0  0  0  0  0  0  0  0  0  0  0
   40.2130   32.4200   38.0940 C   0  0  0  0  0  0  0  0  0  0  0  0
   39.7420   32.6730   39.3440 C   0  0  0  0  0  0  0  0  0  0  0  0
   38.9260   31.7470   39.8890 N   0  0  0  0  0  0  0  0  0  0  0  0
   38.5600   30.6200   39.2870 C   0  0  0  0  0  0  0  0  0  0  0  0
   39.0000   30.3250   38.0530 N   0  0  0  0  0  0  0  0  0  0  0  0
   37.6910   29.7310   39.9730 N   0  0  0  0  0  0  0  0  0  0  0  0
   37.4540   28.3410   39.5930 C   0  0  0  0  0  0  0  0  0  0  0  0
   35.9640   28.2090   39.8900 C   0  0  0  0  0  0  0  0  0  0  0  0
   35.5580   29.4200   40.6860 C   0  0  0  0  0  0  0  0  0  0  0  0
   36.8830   29.9840   41.1460 C   0  0  1  0  0  0  0  0  0  0  0  0
   40.1650   30.9540   36.4540 H   0  0  0  0  0  0  0  0  0  0  0  0
   40.0540   33.5790   39.7930 H   0  0  0  0  0  0  0  0  0  0  0  0
   38.0650   27.6370   40.1790 H   0  0  0  0  0  0  0  0  0  0  0  0
   37.5750   28.1770   38.5130 H   0  0  0  0  0  0  0  0  0  0  0  0
   35.8400   27.3030   40.5130 H   0  0  0  0  0  0  0  0  0  0  0  0
   35.3710   28.0450   38.9770 H   0  0  0  0  0  0  0  0  0  0  0  0
   34.8990   29.1520   41.5500 H   0  0  0  0  0  0  0  0  0  0  0  0
   35.0640   30.1230   39.9870 H   0  0  0  0  0  0  0  0  0  0  0  0
   36.7280   31.0510   41.3380 H   0  0  0  0  0  0  0  0  0  0  0  0
   41.0820   33.2390   37.3050 N   0  0  0  0  0  0  0  0  0  0  0  0
   41.9970   32.9980   36.8970 H   0  0  0  0  0  0  0  0  0  0  0  0
   40.5400   34.1420   37.2550 H   0  0  0  0  0  0  0  0  0  0  0  0
   37.4360   29.0280   42.5690 S   0  0  0  0  0  0  0  0  0  0  0  0
   40.0420   27.9370   42.8230 C   0  0  0  0  0  0  0  0  0  0  0  0
   39.2100   29.0300   42.7390 C   0  0  0  0  0  0  0  0  0  0  0  0
   39.7590   30.3160   42.7840 C   0  0  0  0  0  0  0  0  0  0  0  0
   39.1790   31.2370   42.7240 H   0  0  0  0  0  0  0  0  0  0  0  0
   41.1280   30.4660   42.9120 C   0  0  0  0  0  0  0  0  0  0  0  0
   41.5680   31.4530   42.9480 H   0  0  0  0  0  0  0  0  0  0  0  0
   41.9680   29.3820   42.9970 C   0  0  0  0  0  3  0  0  0  0  0  0
   41.4050   28.1230   42.9500 C   0  0  0  0  0  3  0  0  0  0  0  0
   37.9020   26.5390   42.9530 H   0  0  0  0  0  0  0  0  0  0  0  0
   39.2440   26.3850   42.7540 S   0  0  0  0  0  0  0  0  0  0  0  0
   39.4120   25.8080   41.3570 O   0  0  0  0  0  0  0  0  0  0  0  0
   39.8500   25.3760   43.6780 O   0  0  0  0  0  0  0  0  0  0  0  0
  1  6  2  0  0  0  0
  1  2  1  0  0  0  0
  2  3  2  0  0  0  0
  3 13  1  0  0  0  0
  3  4  1  0  0  0  0
  5  4  2  0  0  0  0
  5  7  1  0  0  0  0
  6  5  1  0  0  0  0
  7 11  1  0  0  0  0
  8  9  1  0  0  0  0
  8  7  1  0  0  0  0
  8 14  1  0  0  0  0
  9 16  1  0  0  0  0
  9 10  1  0  0  0  0
 10 11  1  0  0  0  0
 10 18  1  0  0  0  0
 11 20  1  1  0  0  0
 11 24  1  0  0  0  0
 12  1  1  0  0  0  0
 15  8  1  0  0  0  0
 17  9  1  0  0  0  0
 19 10  1  0  0  0  0
 21  2  1  0  0  0  0
 22 21  1  0  0  0  0
 23 21  1  0  0  0  0
 24 26  1  0  0  0  0
 25 32  1  0  0  0  0
 26 27  1  0  0  0  0
 26 25  2  0  0  0  0
 27 29  2  0  0  0  0
 28 27  1  0  0  0  0
 29 30  1  0  0  0  0
 29 31  1  0  0  0  0
 32 31  2  0  0  0  0
 34 25  1  0  0  0  0
 34 33  1  0  0  0  0
 34 36  2  0  0  0  0
 35 34  2  0  0  0  0
M  END
>  <minimizedAffinity>
-5.1709137

$$$$

 OpenBabel03252506353D

 36 38  0  0  1  0  0  0  0  0999 V2000
   38.8150   31.9760   38.9950 C   0  0  0  0  0  0  0  0  0  0  0  0
   39.2940   31.3430   37.8360 C   0  0  0  0  0  0  0  0  0  0  0  0
   39.3740   29.9860   37.8210 C   0  0  0  0  0  0  0  0  0  0  0  0
   38.9830   29.3370   38.9380 N   0  0  0  0  0  0  0  0  0  0  0  0
   38.5310   29.9360   40.0360 C   0  0  0  0  0  0  0  0  0  0  0  0
   38.4330   31.2740   40.0980 N   0  0  0  0  0  0  0  0  0  0  0  0
   38.1550   29.1330   41.1450 N   0  0  0  0  0  0  0  0  0  0  0  0
   37.3630   29.6000   42.2790 C   0  0  0  0  0  0  0  0  0  0  0  0
   38.0390   28.8610   43.4290 C   0  0  0  0  0  0  0  0  0  0  0  0
   38.9430   27.8210   42.8230 C   0  0  0  0  0  0  0  0  0  0  0  0
   38.4560   27.7400   41.3940 C   0  0  1  0  0  0  0  0  0  0  0  0
   38.7210   33.0620   39.0850 H   0  0  0  0  0  0  0  0  0  0  0  0
   39.7370   29.5440   36.9310 H   0  0  0  0  0  0  0  0  0  0  0  0
   36.2970   29.3420   42.1790 H   0  0  0  0  0  0  0  0  0  0  0  0
   37.5010   30.6740   42.4710 H   0  0  0  0  0  0  0  0  0  0  0  0
   37.2360   28.3590   44.0030 H   0  0  0  0  0  0  0  0  0  0  0  0
   38.5410   29.5480   44.1270 H   0  0  0  0  0  0  0  0  0  0  0  0
   38.8580   26.8360   43.3460 H   0  0  0  0  0  0  0  0  0  0  0  0
   39.9740   28.2230   42.8540 H   0  0  0  0  0  0  0  0  0  0  0  0
   39.2910   27.3660   40.7920 H   0  0  0  0  0  0  0  0  0  0  0  0
   39.6480   32.2510   36.7890 N   0  0  0  0  0  0  0  0  0  0  0  0
   39.0600   32.9610   36.3260 H   0  0  0  0  0  0  0  0  0  0  0  0
   40.6590   32.0020   36.6210 H   0  0  0  0  0  0  0  0  0  0  0  0
   36.9770   26.7120   41.3630 S   0  0  0  0  0  0  0  0  0  0  0  0
   36.9780   24.9690   39.1240 C   0  0  0  0  0  0  0  0  0  0  0  0
   37.2250   25.1960   40.4590 C   0  0  0  0  0  0  0  0  0  0  0  0
   37.7310   24.1590   41.2490 C   0  0  0  0  0  0  0  0  0  0  0  0
   37.9560   24.2460   42.3120 H   0  0  0  0  0  0  0  0  0  0  0  0
   37.9730   22.9240   40.6760 C   0  0  0  0  0  0  0  0  0  0  0  0
   38.3650   22.1120   41.2730 H   0  0  0  0  0  0  0  0  0  0  0  0
   37.7310   22.6860   39.3440 C   0  0  0  0  0  3  0  0  0  0  0  0
   37.2310   23.7240   38.5840 C   0  0  0  0  0  3  0  0  0  0  0  0
   36.1890   27.4040   39.0770 H   0  0  0  0  0  0  0  0  0  0  0  0
   36.3490   26.3370   38.2390 S   0  0  0  0  0  0  0  0  0  0  0  0
   37.3720   26.7570   37.1940 O   0  0  0  0  0  0  0  0  0  0  0  0
   35.1050   26.0150   37.4730 O   0  0  0  0  0  0  0  0  0  0  0  0
  1 12  1  0  0  0  0
  1  6  1  0  0  0  0
  2  1  2  0  0  0  0
  3  2  1  0  0  0  0
  3  4  2  0  0  0  0
  4  5  1  0  0  0  0
  5  6  2  0  0  0  0
  5  7  1  0  0  0  0
  7 11  1  0  0  0  0
  7  8  1  0  0  0  0
  8 15  1  0  0  0  0
  8  9  1  0  0  0  0
  9 16  1  0  0  0  0
  9 17  1  0  0  0  0
 10 19  1  0  0  0  0
 10 18  1  0  0  0  0
 10  9  1  0  0  0  0
 11 20  1  6  0  0  0
 11 10  1  0  0  0  0
 13  3  1  0  0  0  0
 14  8  1  0  0  0  0
 21  2  1  0  0  0  0
 22 21  1  0  0  0  0
 23 21  1  0  0  0  0
 24 11  1  0  0  0  0
 25 26  1  0  0  0  0
 26 27  2  0  0  0  0
 26 24  1  0  0  0  0
 27 28  1  0  0  0  0
 29 27  1  0  0  0  0
 29 30  1  0  0  0  0
 31 29  2  0  0  0  0
 32 25  2  0  0  0  0
 32 31  1  0  0  0  0
 34 33  1  0  0  0  0
 34 25  1  0  0  0  0
 35 34  2  0  0  0  0
 36 34  2  0  0  0  0
M  END
>  <minimizedAffinity>
-5.07533455

$$$$

 OpenBabel03252506353D

 36 38  0  0  1  0  0  0  0  0999 V2000
   38.6400   31.9680   38.9290 C   0  0  0  0  0  0  0  0  0  0  0  0
   39.1310   31.3320   37.7770 C   0  0  0  0  0  0  0  0  0  0  0  0
   39.2810   29.9810   37.7930 C   0  0  0  0  0  0  0  0  0  0  0  0
   38.9440   29.3410   38.9320 N   0  0  0  0  0  0  0  0  0  0  0  0
   38.4800   29.9430   40.0240 C   0  0  0  0  0  0  0  0  0  0  0  0
   38.3140   31.2740   40.0560 N   0  0  0  0  0  0  0  0  0  0  0  0
   38.1650   29.1490   41.1580 N   0  0  0  0  0  0  0  0  0  0  0  0
   37.3690   29.6020   42.2950 C   0  0  0  0  0  0  0  0  0  0  0  0
   38.1020   28.9280   43.4500 C   0  0  0  0  0  0  0  0  0  0  0  0
   39.0480   27.9220   42.8530 C   0  0  0  0  0  0  0  0  0  0  0  0
   38.5430   27.7800   41.4350 C   0  0  1  0  0  0  0  0  0  0  0  0
   38.4910   33.0500   38.9950 H   0  0  0  0  0  0  0  0  0  0  0  0
   39.6520   29.5360   36.9070 H   0  0  0  0  0  0  0  0  0  0  0  0
   36.3170   29.2870   42.2210 H   0  0  0  0  0  0  0  0  0  0  0  0
   37.4550   30.6860   42.4590 H   0  0  0  0  0  0  0  0  0  0  0  0
   37.3360   28.4000   44.0500 H   0  0  0  0  0  0  0  0  0  0  0  0
   38.5790   29.6570   44.1220 H   0  0  0  0  0  0  0  0  0  0  0  0
   39.0240   26.9470   43.4000 H   0  0  0  0  0  0  0  0  0  0  0  0
   40.0580   28.3770   42.8550 H   0  0  0  0  0  0  0  0  0  0  0  0
   39.3850   27.4350   40.8270 H   0  0  0  0  0  0  0  0  0  0  0  0
   39.4200   32.2310   36.7020 N   0  0  0  0  0  0  0  0  0  0  0  0
   38.7880   32.8980   36.2340 H   0  0  0  0  0  0  0  0  0  0  0  0
   40.4390   32.0310   36.5220 H   0  0  0  0  0  0  0  0  0  0  0  0
   37.1180   26.6760   41.4550 S   0  0  0  0  0  0  0  0  0  0  0  0
   36.9060   24.7670   39.3680 C   0  0  0  0  0  0  0  0  0  0  0  0
   36.7250   26.0490   39.8340 C   0  0  0  0  0  0  0  0  0  0  0  0
   36.1710   27.0150   38.9880 C   0  0  0  0  0  0  0  0  0  0  0  0
   35.9920   28.0520   39.2690 H   0  0  0  0  0  0  0  0  0  0  0  0
   35.8160   26.6650   37.6980 C   0  0  0  0  0  0  0  0  0  0  0  0
   35.3870   27.4000   37.0310 H   0  0  0  0  0  0  0  0  0  0  0  0
   35.9920   25.3880   37.2210 C   0  0  0  0  0  3  0  0  0  0  0  0
   36.5400   24.4510   38.0740 C   0  0  0  0  0  3  0  0  0  0  0  0
   36.9880   23.7760   41.7270 H   0  0  0  0  0  0  0  0  0  0  0  0
   37.6030   23.6480   40.5140 S   0  0  0  0  0  0  0  0  0  0  0  0
   37.3330   22.2280   40.0390 O   0  0  0  0  0  0  0  0  0  0  0  0
   39.0910   23.7610   40.6090 O   0  0  0  0  0  0  0  0  0  0  0  0
  1 12  1  0  0  0  0
  1  6  1  0  0  0  0
  2  3  1  0  0  0  0
  2  1  2  0  0  0  0
  3  4  2  0  0  0  0
  4  5  1  0  0  0  0
  5  6  2  0  0  0  0
  5  7  1  0  0  0  0
  7 11  1  0  0  0  0
  7  8  1  0  0  0  0
  8 15  1  0  0  0  0
  8  9  1  0  0  0  0
  9 16  1  0  0  0  0
  9 17  1  0  0  0  0
 10 19  1  0  0  0  0
 10 18  1  0  0  0  0
 10  9  1  0  0  0  0
 11 20  1  6  0  0  0
 11 24  1  0  0  0  0
 11 10  1  0  0  0  0
 13  3  1  0  0  0  0
 14  8  1  0  0  0  0
 21  2  1  0  0  0  0
 22 21  1  0  0  0  0
 23 21  1  0  0  0  0
 25 26  1  0  0  0  0
 25 34  1  0  0  0  0
 26 24  1  0  0  0  0
 27 28  1  0  0  0  0
 27 26  2  0  0  0  0
 29 27  1  0  0  0  0
 30 29  1  0  0  0  0
 31 29  2  0  0  0  0
 31 32  1  0  0  0  0
 32 25  2  0  0  0  0
 34 36  2  0  0  0  0
 34 33  1  0  0  0  0
 35 34  2  0  0  0  0
M  END
>  <minimizedAffinity>
-5.06321239

$$$$
