
 OpenBabel03242515563D

 40 43  0  0  0  0  0  0  0  0999 V2000
   46.2950   32.5770   45.6930 C   0  0  0  0  0  0  0  0  0  0  0  0
   46.9550   32.6930   46.9450 C   0  0  0  0  0  0  0  0  0  0  0  0
   47.2480   31.6240   47.7560 C   0  0  0  0  0  0  0  0  0  0  0  0
   46.9080   30.3750   47.3840 C   0  0  0  0  0  0  0  0  0  0  0  0
   46.2560   30.1960   46.1660 C   0  0  0  0  0  0  0  0  0  0  0  0
   45.9270   28.9190   45.8260 C   0  0  0  0  0  0  0  0  0  0  0  0
   45.2810   28.6680   44.6400 C   0  0  0  0  0  0  0  0  0  0  0  0
   44.9970   29.7710   43.8400 C   0  0  0  0  0  0  0  0  0  0  0  0
   45.3570   31.0030   44.2530 C   0  0  0  0  0  0  0  0  0  0  0  0
   45.9830   31.2930   45.3870 C   0  0  0  0  0  0  0  0  0  0  0  0
   47.2520   33.6720   47.2960 H   0  0  0  0  0  0  0  0  0  0  0  0
   47.7520   31.7900   48.6950 H   0  0  0  0  0  0  0  0  0  0  0  0
   47.1520   29.5590   48.0430 H   0  0  0  0  0  0  0  0  0  0  0  0
   46.1840   28.0860   46.5120 H   0  0  0  0  0  0  0  0  0  0  0  0
   45.0590   27.6020   44.4560 H   0  0  0  0  0  0  0  0  0  0  0  0
   44.5030   29.3760   42.9470 H   0  0  0  0  0  0  0  0  0  0  0  0
   44.6150   35.6240   44.8030 C   0  0  0  0  0  0  0  0  0  0  0  0
   45.2680   36.0030   43.5900 C   0  0  0  0  0  0  0  0  0  0  0  0
   46.3080   35.1840   43.0680 C   0  0  0  0  0  0  0  0  0  0  0  0
   46.6040   34.0900   43.7740 N   0  0  0  0  0  0  0  0  0  0  0  0
   46.0310   33.7260   44.8710 C   0  0  0  0  0  0  0  0  0  0  0  0
   45.0320   34.5110   45.3730 N   0  0  0  0  0  0  0  0  0  0  0  0
   43.8260   36.2540   45.1900 H   0  0  0  0  0  0  0  0  0  0  0  0
   46.7600   35.5220   42.1550 H   0  0  0  0  0  0  0  0  0  0  0  0
   44.8040   37.2060   42.9960 N   0  0  0  0  0  0  0  0  0  0  0  0
   44.3790   37.2080   42.0320 H   0  0  0  0  0  0  0  0  0  0  0  0
   44.8550   38.1490   43.4720 H   0  0  0  0  0  0  0  0  0  0  0  0
   44.9440   31.8650   43.2770 O   0  0  0  0  0  0  0  0  0  0  0  0
   44.4480   31.7360   40.9110 C   0  0  0  0  0  0  0  0  0  0  0  0
   44.0450   31.5790   42.2430 C   0  0  0  0  0  0  0  0  0  0  0  0
   42.7490   31.1360   42.4520 C   0  0  0  0  0  0  0  0  0  0  0  0
   42.4170   31.0070   43.4720 H   0  0  0  0  0  0  0  0  0  0  0  0
   41.8850   30.8580   41.4180 C   0  0  0  0  0  0  0  0  0  0  0  0
   40.8800   30.5140   41.6100 H   0  0  0  0  0  0  0  0  0  0  0  0
   42.3080   31.0220   40.1200 C   0  0  0  0  0  3  0  0  0  0  0  0
   43.5820   31.4590   39.8490 C   0  0  0  0  0  3  0  0  0  0  0  0
   46.5060   33.2780   41.2590 H   0  0  0  0  0  0  0  0  0  0  0  0
   46.0560   32.2610   40.4590 S   0  0  0  0  0  0  0  0  0  0  0  0
   47.0320   31.1200   40.3730 O   0  0  0  0  0  0  0  0  0  0  0  0
   45.9830   32.8420   39.0640 O   0  0  0  0  0  0  0  0  0  0  0  0
  1  2  1  0  0  0  0
  2 11  1  0  0  0  0
  2  3  2  0  0  0  0
  3 12  1  0  0  0  0
  4  3  1  0  0  0  0
  4 13  1  0  0  0  0
  5  4  2  0  0  0  0
  6  5  1  0  0  0  0
  6 14  1  0  0  0  0
  7  6  2  0  0  0  0
  8  9  2  0  0  0  0
  8  7  1  0  0  0  0
  9 10  1  0  0  0  0
 10  1  2  0  0  0  0
 10  5  1  0  0  0  0
 15  7  1  0  0  0  0
 16  8  1  0  0  0  0
 17 23  1  0  0  0  0
 17 22  1  0  0  0  0
 18 17  2  0  0  0  0
 19 18  1  0  0  0  0
 19 20  2  0  0  0  0
 20 21  1  0  0  0  0
 21 22  2  0  0  0  0
 21  1  1  0  0  0  0
 24 19  1  0  0  0  0
 25 27  1  0  0  0  0
 25 18  1  0  0  0  0
 26 25  1  0  0  0  0
 28  9  1  0  0  0  0
 29 30  1  0  0  0  0
 30 31  2  0  0  0  0
 30 28  1  0  0  0  0
 31 32  1  0  0  0  0
 33 34  1  0  0  0  0
 33 31  1  0  0  0  0
 35 33  2  0  0  0  0
 36 35  1  0  0  0  0
 36 29  2  0  0  0  0
 38 29  1  0  0  0  0
 38 37  1  0  0  0  0
 39 38  2  0  0  0  0
 40 38  2  0  0  0  0
M  END
>  <minimizedAffinity>
-4.96422243

>  <minimizedRMSD>
3.61396933

$$$$
