
 OpenBabel03252508593D

 48 50  0  0  1  0  0  0  0  0999 V2000
   46.5740   34.5500   43.5010 N   0  0  0  0  0  0  0  0  0  0  0  0
   46.1070   35.6260   42.6960 C   0  0  0  0  0  0  0  0  0  0  0  0
   44.6290   35.8740   42.7350 C   0  0  0  0  0  0  0  0  0  0  0  0
   43.9750   35.5520   44.0480 C   0  0  0  0  0  0  0  0  0  0  0  0
   44.9850   35.1390   45.0920 C   0  0  0  0  0  0  0  0  0  0  0  0
   45.7380   33.9370   44.4180 C   0  0  2  0  0  0  0  0  0  0  0  0
   46.4040   35.6110   41.6450 H   0  0  0  0  0  0  0  0  0  0  0  0
   46.5930   36.5610   43.1090 H   0  0  0  0  0  0  0  0  0  0  0  0
   44.4080   36.9340   42.5060 H   0  0  0  0  0  0  0  0  0  0  0  0
   44.1680   35.3020   41.8830 H   0  0  0  0  0  0  0  0  0  0  0  0
   43.3310   34.6600   43.8810 H   0  0  0  0  0  0  0  0  0  0  0  0
   43.3120   36.3580   44.4000 H   0  0  0  0  0  0  0  0  0  0  0  0
   44.4260   34.7420   45.9620 H   0  0  0  0  0  0  0  0  0  0  0  0
   45.7150   35.9220   45.3440 H   0  0  0  0  0  0  0  0  0  0  0  0
   44.9260   33.2780   44.0470 H   0  0  0  0  0  0  0  0  0  0  0  0
   47.6280   33.7790   42.8970 C   0  0  0  0  0  0  0  0  0  0  0  0
   48.2850   34.5040   42.3500 H   0  0  0  0  0  0  0  0  0  0  0  0
   48.2740   33.2490   43.5980 H   0  0  0  0  0  0  0  0  0  0  0  0
   47.0180   32.7870   41.9520 C   0  0  0  0  0  0  0  0  0  0  0  0
   45.9410   33.0040   41.8000 H   0  0  0  0  0  0  0  0  0  0  0  0
   47.0990   31.7340   42.2920 H   0  0  0  0  0  0  0  0  0  0  0  0
   49.0650   32.0370   38.8910 C   0  0  0  0  0  0  0  0  0  0  0  0
   48.4490   31.9160   40.1520 C   0  0  0  0  0  0  0  0  0  0  0  0
   47.6590   32.9320   40.6200 C   0  0  0  0  0  0  0  0  0  0  0  0
   47.5080   34.0070   39.8400 N   0  0  0  0  0  0  0  0  0  0  0  0
   48.0960   34.1260   38.6330 C   0  0  0  0  0  0  0  0  0  0  0  0
   48.8750   33.1450   38.1520 N   0  0  0  0  0  0  0  0  0  0  0  0
   49.6920   31.2340   38.5170 H   0  0  0  0  0  0  0  0  0  0  0  0
   48.6530   30.9950   40.6800 H   0  0  0  0  0  0  0  0  0  0  0  0
   47.9140   35.0380   38.0720 H   0  0  0  0  0  0  0  0  0  0  0  0
   46.4470   33.4100   45.4860 O   0  0  0  0  0  0  0  0  0  0  0  0
   45.4080   31.1690   44.5110 O   0  0  0  0  0  0  0  0  0  0  0  0
   46.2500   31.7540   45.6550 P   0  0  2  0  0  0  0  0  0  0  0  0
   45.2880   31.5240   47.0540 O   0  0  0  0  0  0  0  0  0  0  0  0
   45.2100   30.5270   47.1410 H   0  0  0  0  0  0  0  0  0  0  0  0
   47.6600   30.9200   45.8790 O   0  0  0  0  0  0  0  0  0  0  0  0
   48.4060   28.7760   45.7240 C   0  0  0  0  0  0  0  0  0  0  0  0
   48.2860   30.0050   45.0640 C   0  0  0  0  0  0  0  0  0  0  0  0
   48.7800   30.1050   43.7810 C   0  0  0  0  0  0  0  0  0  0  0  0
   48.6320   31.0960   43.3750 H   0  0  0  0  0  0  0  0  0  0  0  0
   49.3760   29.0210   43.1720 C   0  0  0  0  0  0  0  0  0  0  0  0
   49.7380   29.1870   42.1620 H   0  0  0  0  0  0  0  0  0  0  0  0
   49.5020   27.8050   43.8100 C   0  0  0  0  0  3  0  0  0  0  0  0
   49.0130   27.6830   45.0940 C   0  0  0  0  0  3  0  0  0  0  0  0
   48.2380   27.1760   47.7460 H   0  0  0  0  0  0  0  0  0  0  0  0
   47.8440   28.4310   47.3610 S   0  0  0  0  0  0  0  0  0  0  0  0
   48.4500   29.4020   48.3400 O   0  0  0  0  0  0  0  0  0  0  0  0
   46.3330   28.5660   47.3670 O   0  0  0  0  0  0  0  0  0  0  0  0
  1  6  1  0  0  0  0
  2  3  1  0  0  0  0
  2  8  1  0  0  0  0
  2  1  1  0  0  0  0
  3  4  1  0  0  0  0
  4 12  1  0  0  0  0
  4  5  1  0  0  0  0
  5 14  1  0  0  0  0
  5 13  1  0  0  0  0
  6 15  1  6  0  0  0
  6  5  1  0  0  0  0
  6 31  1  0  0  0  0
  7  2  1  0  0  0  0
  9  3  1  0  0  0  0
 10  3  1  0  0  0  0
 11  4  1  0  0  0  0
 16  1  1  0  0  0  0
 16 18  1  0  0  0  0
 17 16  1  0  0  0  0
 19 21  1  0  0  0  0
 19 16  1  0  0  0  0
 20 19  1  0  0  0  0
 22 23  1  0  0  0  0
 23 24  2  0  0  0  0
 23 29  1  0  0  0  0
 24 19  1  0  0  0  0
 25 24  1  0  0  0  0
 26 25  2  0  0  0  0
 27 26  1  0  0  0  0
 27 22  2  0  0  0  0
 28 22  1  0  0  0  0
 30 26  1  0  0  0  0
 31 33  1  0  0  0  0
 33 32  2  6  0  0  0
 33 36  1  0  0  0  0
 33 34  1  0  0  0  0
 34 35  1  0  0  0  0
 37 46  1  0  0  0  0
 38 37  2  0  0  0  0
 38 36  1  0  0  0  0
 39 38  1  0  0  0  0
 40 39  1  0  0  0  0
 41 39  2  0  0  0  0
 41 43  1  0  0  0  0
 42 41  1  0  0  0  0
 43 44  2  0  0  0  0
 44 37  1  0  0  0  0
 46 48  2  0  0  0  0
 46 45  1  0  0  0  0
 46 47  2  0  0  0  0
M  END
>  <minimizedAffinity>
-4.17784739

>  <minimizedRMSD>
2.49947214

$$$$
