REMARK  Name = 
REMARK  5 active torsions:
REMARK  status: ('A' for Active; 'I' for Inactive)
REMARK    1  A    between atoms: C_1  and  C_11
REMARK    2  A    between atoms: C_6  and  N_19
REMARK    3  A    between atoms: C_9  and  C_13
REMARK    4  A    between atoms: C_17  and  C_40
REMARK    5  A    between atoms: S_36  and  C_39
REMARK                            x       y       z     vdW  Elec       q    Type
REMARK                         _______ _______ _______ _____ _____    ______ ____
ROOT
ATOM      1  C   UNL     1      44.582  35.578  44.619  0.00  0.00    +0.000 A 
ATOM      2  C   UNL     1      45.237  35.580  43.363  0.00  0.00    +0.000 A 
ATOM      3  C   UNL     1      46.319  34.664  43.179  0.00  0.00    +0.000 A 
ATOM      4  N   UNL     1      46.659  33.849  44.208  0.00  0.00    +0.000 NA
ATOM      5  C   UNL     1      46.011  33.880  45.383  0.00  0.00    +0.000 A 
ATOM      6  N   UNL     1      44.972  34.740  45.599  0.00  0.00    +0.000 NA
ATOM      7  H   UNL     1      43.757  36.250  44.814  0.00  0.00    +0.000 HD
ATOM      8  H   UNL     1      44.919  36.246  42.598  0.00  0.00    +0.000 HD
ENDROOT
BRANCH   5   9
ATOM      9  C   UNL     1      46.427  32.972  46.468  0.00  0.00    +0.000 C 
ATOM     10  C   UNL     1      46.982  31.752  45.791  0.00  0.00    +0.000 C 
ATOM     11  C   UNL     1      46.113  30.552  45.801  0.00  0.00    +0.000 C 
ATOM     12  C   UNL     1      45.816  30.289  47.275  0.00  0.00    +0.000 C 
ATOM     13  C   UNL     1      45.019  31.349  47.879  0.00  0.00    +0.000 C 
ATOM     14  C   UNL     1      45.372  32.730  47.427  0.00  0.00    +0.000 C 
ATOM     15  H   UNL     1      47.265  33.515  46.993  0.00  0.00    +0.000 HD
ATOM     16  H   UNL     1      47.925  31.479  46.311  0.00  0.00    +0.000 HD
ATOM     17  H   UNL     1      47.290  31.946  44.739  0.00  0.00    +0.000 HD
ATOM     18  H   UNL     1      45.213  30.583  45.191  0.00  0.00    +0.000 HD
ATOM     19  H   UNL     1      46.728  29.689  45.480  0.00  0.00    +0.000 HD
ATOM     20  H   UNL     1      45.168  29.386  47.261  0.00  0.00    +0.000 HD
ATOM     21  H   UNL     1      46.741  30.025  47.800  0.00  0.00    +0.000 HD
ATOM     22  H   UNL     1      44.227  31.415  48.575  0.00  0.00    +0.000 HD
BRANCH  14  23
ATOM     23  N   UNL     1      44.672  33.861  47.934  0.00  0.00    +0.000 N 
ATOM     24  H   UNL     1      45.353  34.382  48.552  0.00  0.00    +0.000 HD
ATOM     25  H   UNL     1      43.696  33.957  47.626  0.00  0.00    +0.000 HD
ENDBRANCH  14  23
ENDBRANCH   5   9
BRANCH   3  26
ATOM     26  C   UNL     1      47.002  34.648  41.904  0.00  0.00    +0.000 A 
ATOM     27  C   UNL     1      48.128  35.397  41.763  0.00  0.00    +0.000 A 
ATOM     28  C   UNL     1      48.751  35.344  40.501  0.00  0.00    +0.000 A 
ATOM     29  C   UNL     1      48.160  34.546  39.546  0.00  0.00    +0.000 A 
ATOM     30  C   UNL     1      47.031  33.797  39.691  0.00  0.00    +0.000 A 
ATOM     31  N   UNL     1      46.495  33.903  40.931  0.00  0.00    +0.000 NA
ATOM     32  H   UNL     1      48.512  35.990  42.575  0.00  0.00    +0.000 HD
ATOM     33  H   UNL     1      49.638  35.918  40.351  0.00  0.00    +0.000 HD
ATOM     34  H   UNL     1      48.697  34.560  38.609  0.00  0.00    +0.000 HD
BRANCH  30  36
ATOM     35  C   UNL     1      47.054  31.769  38.324  0.00  0.00    +0.000 A 
ATOM     36  C   UNL     1      46.448  32.969  38.645  0.00  0.00    +0.000 A 
ATOM     37  C   UNL     1      45.310  33.373  37.983  0.00  0.00    +0.000 A 
ATOM     38  H   UNL     1      44.791  34.299  38.188  0.00  0.00    +0.000 HD
ATOM     39  C   UNL     1      44.731  32.615  36.988  0.00  0.00    +0.000 A 
ATOM     40  H   UNL     1      43.834  32.930  36.464  0.00  0.00    +0.000 HD
ATOM     41  C   UNL     1      45.285  31.408  36.620  0.00  0.00    +0.000 A 
ATOM     42  C   UNL     1      46.422  31.044  37.309  0.00  0.00    +0.000 A 
BRANCH  35  44
ATOM     43  H   UNL     1      48.378  31.087  40.445  0.00  0.00    +0.000 HD
ATOM     44  S   UNL     1      48.480  31.167  39.089  0.00  0.00    +0.000 S 
ATOM     45  O   UNL     1      48.786  29.799  38.519  0.00  0.00    +0.000 OA
ATOM     46  O   UNL     1      49.672  32.029  38.698  0.00  0.00    +0.000 OA
ENDBRANCH  35  44
ENDBRANCH  30  36
ENDBRANCH   3  26
TORSDOF 5
