REMARK  Name = 
REMARK  9 active torsions:
REMARK  status: ('A' for Active; 'I' for Inactive)
REMARK    1  A    between atoms: N_1  and  C_7
REMARK    2  A    between atoms: C_6  and  O_15
REMARK    3  A    between atoms: C_7  and  C_8
REMARK    4  A    between atoms: C_8  and  C_11
REMARK    5  A    between atoms: O_15  and  P_17
REMARK    6  A    between atoms: P_17  and  O_18
REMARK    7  A    between atoms: P_17  and  O_19
REMARK    8  A    between atoms: O_19  and  C_42
REMARK    9  A    between atoms: S_38  and  C_41
REMARK                            x       y       z     vdW  Elec       q    Type
REMARK                         _______ _______ _______ _____ _____    ______ ____
ROOT
ATOM      1  N   UNL     1      47.171  34.157  43.087  0.00  0.00    +0.000 NA
ATOM      2  C   UNL     1      46.650  35.355  42.522  0.00  0.00    +0.000 C 
ATOM      3  C   UNL     1      45.186  35.594  42.740  0.00  0.00    +0.000 C 
ATOM      4  C   UNL     1      44.650  35.055  44.035  0.00  0.00    +0.000 C 
ATOM      5  C   UNL     1      45.745  34.470  44.896  0.00  0.00    +0.000 C 
ATOM      6  C   UNL     1      46.412  33.398  43.961  0.00  0.00    +0.000 C 
ATOM      7  H   UNL     1      46.849  35.518  41.461  0.00  0.00    +0.000 HD
ATOM      8  H   UNL     1      47.188  36.205  43.040  0.00  0.00    +0.000 HD
ATOM      9  H   UNL     1      44.963  36.678  42.715  0.00  0.00    +0.000 HD
ATOM     10  H   UNL     1      44.640  35.175  41.851  0.00  0.00    +0.000 HD
ATOM     11  H   UNL     1      43.979  34.205  43.781  0.00  0.00    +0.000 HD
ATOM     12  H   UNL     1      44.036  35.790  44.579  0.00  0.00    +0.000 HD
ATOM     13  H   UNL     1      45.262  33.931  45.735  0.00  0.00    +0.000 HD
ATOM     14  H   UNL     1      46.508  35.198  45.207  0.00  0.00    +0.000 HD
ATOM     15  H   UNL     1      45.559  32.813  43.562  0.00  0.00    +0.000 HD
ENDROOT
BRANCH   1  16
ATOM     16  C   UNL     1      48.152  33.498  42.266  0.00  0.00    +0.000 C 
ATOM     17  H   UNL     1      48.748  34.305  41.766  0.00  0.00    +0.000 HD
ATOM     18  H   UNL     1      48.868  32.879  42.807  0.00  0.00    +0.000 HD
BRANCH  16  19
ATOM     19  C   UNL     1      47.441  32.649  41.254  0.00  0.00    +0.000 C 
ATOM     20  H   UNL     1      46.364  32.912  41.212  0.00  0.00    +0.000 HD
ATOM     21  H   UNL     1      47.509  31.560  41.454  0.00  0.00    +0.000 HD
BRANCH  19  24
ATOM     22  C   UNL     1      49.334  32.285  38.028  0.00  0.00    +0.000 A 
ATOM     23  C   UNL     1      48.805  32.022  39.307  0.00  0.00    +0.000 A 
ATOM     24  C   UNL     1      47.989  32.944  39.906  0.00  0.00    +0.000 A 
ATOM     25  N   UNL     1      47.730  34.070  39.232  0.00  0.00    +0.000 NA
ATOM     26  C   UNL     1      48.234  34.325  38.009  0.00  0.00    +0.000 A 
ATOM     27  N   UNL     1      49.036  33.437  37.401  0.00  0.00    +0.000 NA
ATOM     28  H   UNL     1      49.981  31.556  37.551  0.00  0.00    +0.000 HD
ATOM     29  H   UNL     1      49.093  31.074  39.740  0.00  0.00    +0.000 HD
ATOM     30  H   UNL     1      47.967  35.268  37.541  0.00  0.00    +0.000 HD
ENDBRANCH  19  24
ENDBRANCH  16  19
ENDBRANCH   1  16
BRANCH   6  31
ATOM     31  O   UNL     1      47.207  32.697  44.854  0.00  0.00    +0.000 OA
BRANCH  31  33
ATOM     32  O   UNL     1      46.007  30.544  43.867  0.00  0.00    +0.000 OA
ATOM     33  P   UNL     1      46.675  31.130  45.120  0.00  0.00    +0.000 P 
BRANCH  33  34
ATOM     34  O   UNL     1      45.408  31.240  46.268  0.00  0.00    +0.000 OA
ATOM     35  H   UNL     1      45.130  30.288  46.423  0.00  0.00    +0.000 HD
ENDBRANCH  33  34
BRANCH  33  36
ATOM     36  O   UNL     1      47.824  30.118  45.744  0.00  0.00    +0.000 OA
BRANCH  36  38
ATOM     37  C   UNL     1      49.546  30.571  47.163  0.00  0.00    +0.000 A 
ATOM     38  C   UNL     1      49.187  30.280  45.841  0.00  0.00    +0.000 A 
ATOM     39  C   UNL     1      50.189  30.205  44.896  0.00  0.00    +0.000 A 
ATOM     40  H   UNL     1      49.795  29.975  43.917  0.00  0.00    +0.000 HD
ATOM     41  C   UNL     1      51.505  30.411  45.253  0.00  0.00    +0.000 A 
ATOM     42  H   UNL     1      52.231  30.334  44.449  0.00  0.00    +0.000 HD
ATOM     43  C   UNL     1      51.873  30.699  46.551  0.00  0.00    +0.000 A 
ATOM     44  C   UNL     1      50.885  30.779  47.511  0.00  0.00    +0.000 A 
BRANCH  37  46
ATOM     45  H   UNL     1      48.609  31.909  49.165  0.00  0.00    +0.000 HD
ATOM     46  S   UNL     1      48.428  30.713  48.521  0.00  0.00    +0.000 S 
ATOM     47  O   UNL     1      47.003  30.686  48.035  0.00  0.00    +0.000 OA
ATOM     48  O   UNL     1      48.679  29.539  49.449  0.00  0.00    +0.000 OA
ENDBRANCH  37  46
ENDBRANCH  36  38
ENDBRANCH  33  36
ENDBRANCH  31  33
ENDBRANCH   6  31
TORSDOF 9
