
     RDKit          3D

 39 42  0  0  0  0  0  0  0  0999 V2000
   45.9073   33.7101   45.4132 C   0  0  0  0  0  0  0  0  0  0  0  0
   44.9238   34.6202   45.6631 N   0  0  0  0  0  0  0  0  0  0  0  0
   44.5398   35.5975   44.8562 C   0  0  0  0  0  0  0  0  0  0  0  0
   45.1552   35.7435   43.6596 N   0  0  0  0  0  0  0  0  0  0  0  0
   46.1435   34.9080   43.2936 C   0  0  0  0  0  0  0  0  0  0  0  0
   46.7655   35.0696   42.0640 C   0  0  0  0  0  0  0  0  0  0  0  0
   47.7754   34.2262   41.6751 C   0  0  0  0  0  0  0  0  0  0  0  0
   48.1412   33.2256   42.5449 C   0  0  0  0  0  0  0  0  0  0  0  0
   47.4909   33.1064   43.7581 C   0  0  0  0  0  0  0  0  0  0  0  0
   46.4817   33.9203   44.1888 C   0  0  0  0  0  0  0  0  0  0  0  0
   47.6721   32.2839   48.1920 C   0  0  0  0  0  0  0  0  0  0  0  0
   47.2643   30.9466   48.2751 C   0  0  0  0  0  0  0  0  0  0  0  0
   46.3564   30.5114   47.3535 C   0  0  0  0  0  0  0  0  0  0  0  0
   45.9167   31.3855   46.4351 N   0  0  0  0  0  0  0  0  0  0  0  0
   46.2927   32.6475   46.3459 C   0  0  0  0  0  0  0  0  0  0  0  0
   47.1737   33.0647   47.2425 N   0  0  0  0  0  0  0  0  0  0  0  0
   47.8156   30.1521   49.2952 N   0  0  0  0  0  0  0  0  0  0  0  0
   43.7464   36.2777   45.1363 H   0  0  0  0  0  0  0  0  0  0  0  0
   46.4034   35.8921   41.4472 H   0  0  0  0  0  0  0  0  0  0  0  0
   48.1972   34.4325   40.7006 H   0  0  0  0  0  0  0  0  0  0  0  0
   48.9352   32.5750   42.2209 H   0  0  0  0  0  0  0  0  0  0  0  0
   47.8283   32.2888   44.4073 H   0  0  0  0  0  0  0  0  0  0  0  0
   48.4058   32.6420   48.9340 H   0  0  0  0  0  0  0  0  0  0  0  0
   47.0964   30.3512   50.0535 H   0  0  0  0  0  0  0  0  0  0  0  0
   48.6553   29.7809   48.7568 H   0  0  0  0  0  0  0  0  0  0  0  0
   44.7605   30.4981   50.0900 H   0  0  0  0  0  0  0  0  0  0  0  0
   45.4694   29.3112   50.0321 S   0  0  0  0  0  0  0  0  0  0  0  0
   46.8542   29.4344   50.5823 O   0  0  0  0  0  0  0  0  0  0  0  0
   44.7330   28.4086   51.0150 O   0  0  0  0  0  0  0  0  0  0  0  0
   45.4000   28.5539   48.4688 C   0  0  0  0  0  0  0  0  0  0  0  0
   45.8220   29.1666   47.2832 C   0  0  0  0  0  0  0  0  0  0  0  0
   45.6787   28.3936   46.1601 C   0  0  0  0  0  0  0  0  0  0  0  0
   45.9789   28.7896   45.2110 H   0  0  0  0  0  0  0  0  0  0  0  0
   45.1790   27.1164   46.0734 C   0  0  0  0  0  0  0  0  0  0  0  0
   45.0972   26.5708   45.1509 H   0  0  0  0  0  0  0  0  0  0  0  0
   44.7637   26.5123   47.2388 C   0  0  0  0  0  0  0  0  0  0  0  0
   44.8877   27.2494   48.3950 C   0  0  0  0  0  0  0  0  0  0  0  0
   44.3630   25.5147   47.2428 H   0  0  0  0  0  0  0  0  0  0  0  0
   44.5480   26.7350   49.2955 H   0  0  0  0  0  0  0  0  0  0  0  0
  1  2  2  0
  1 15  1  0
  3  2  1  0
  4  3  2  0
  5  4  1  0
  5 10  2  0
  6  5  1  0
  7  6  2  0
  7  8  1  0
  8  9  2  0
  9 10  1  0
 10  1  1  0
 11 12  2  0
 12 17  1  0
 13 12  1  0
 14 13  2  0
 15 14  1  0
 15 16  2  0
 16 11  1  0
  3 18  1  0
  6 19  1  0
  7 20  1  0
  8 21  1  0
  9 22  1  0
 11 23  1  0
 17 24  1  0
 17 25  1  0
 26 27  1  0
 27 28  2  0
 27 29  2  0
 27 30  1  0
 30 31  2  0
 31 32  1  0
 32 33  1  0
 32 34  2  0
 34 35  1  0
 34 36  1  0
 36 37  2  0
 37 30  1  0
 36 38  1  0
 37 39  1  0
 13 31  1  0
M  ISO  8  18  14  19  14  20  14  21  14  22  14  23  14  26  12  33  15
M  ISO  1  35  16
M  END
>  <DihAtoms>  (1) 
11,12,30,29

>  <DihDeg>  (1) 
-179.58237377966637

$$$$
