
     RDKit          3D

 29 30  0  0  0  0  0  0  0  0999 V2000
   45.1889   35.2115   44.0620 C   0  0  0  0  0  0  0  0  0  0  0  0
   46.2160   34.5910   43.3616 C   0  0  0  0  0  0  0  0  0  0  0  0
   46.9004   33.5633   44.0599 C   0  0  0  0  0  0  0  0  0  0  0  0
   46.5135   33.2678   45.3270 N   0  0  0  0  0  0  0  0  0  0  0  0
   45.5151   33.9050   45.9426 C   0  0  0  0  0  0  0  0  0  0  0  0
   44.8487   34.8830   45.3061 N   0  0  0  0  0  0  0  0  0  0  0  0
   46.5559   34.9717   42.0035 C   0  0  1  0  0  0  0  0  0  0  0  0
   48.0575   35.1927   41.9434 C   0  0  0  0  0  0  0  0  0  0  0  0
   44.5933   36.0077   43.6436 H   0  0  0  0  0  0  0  0  0  0  0  0
   47.7100   33.0381   43.5774 H   0  0  0  0  0  0  0  0  0  0  0  0
   45.2590   33.6165   46.9562 H   0  0  0  0  0  0  0  0  0  0  0  0
   46.1280   35.9895   41.8168 H   0  0  0  0  0  0  0  0  0  0  0  0
   48.2493   36.0499   42.6542 H   0  0  0  0  0  0  0  0  0  0  0  0
   48.3356   35.5270   40.9160 H   0  0  0  0  0  0  0  0  0  0  0  0
   48.6447   34.3640   42.3388 H   0  0  0  0  0  0  0  0  0  0  0  0
   48.0437   35.7607   38.9664 H   0  0  0  0  0  0  0  0  0  0  0  0
   48.2311   34.4957   39.4143 S   0  0  0  0  0  0  0  0  0  0  0  0
   49.2285   34.3805   40.5326 O   0  0  0  0  0  0  0  0  0  0  0  0
   48.8942   33.7531   38.2538 O   0  0  0  0  0  0  0  0  0  0  0  0
   46.7156   33.7436   39.7584 C   0  0  0  0  0  0  0  0  0  0  0  0
   46.0948   34.0395   40.9460 C   0  0  0  0  0  0  0  0  0  0  0  0
   44.8741   33.4150   41.2141 C   0  0  0  0  0  0  0  0  0  0  0  0
   44.2826   33.5571   42.1058 H   0  0  0  0  0  0  0  0  0  0  0  0
   44.2946   32.5268   40.3253 C   0  0  0  0  0  0  0  0  0  0  0  0
   43.3685   32.0120   40.4562 H   0  0  0  0  0  0  0  0  0  0  0  0
   44.9513   32.2575   39.1423 C   0  0  0  0  0  0  0  0  0  0  0  0
   46.1575   32.8582   38.8504 C   0  0  0  0  0  0  0  0  0  0  0  0
   44.5949   31.5811   38.3699 H   0  0  0  0  0  0  0  0  0  0  0  0
   46.7109   32.6798   37.9371 H   0  0  0  0  0  0  0  0  0  0  0  0
  1  6  2  0
  2  1  1  0
  2  3  2  0
  3  4  1  0
  4  5  2  0
  6  5  1  0
  7  2  1  0
  8  7  1  0
  1  9  1  0
  3 10  1  0
  5 11  1  0
  7 12  1  6
  8 13  1  0
  8 14  1  0
  8 15  1  0
 16 17  1  0
 17 18  2  0
 17 19  2  0
 17 20  1  0
 20 21  2  0
 21 22  1  0
 22 23  1  0
 22 24  2  0
 24 25  1  0
 24 26  1  0
 26 27  2  0
 27 20  1  0
 26 28  1  0
 27 29  1  0
  7 21  1  0
M  ISO  8   9  14  10  14  11  14  12   8  13   8  14   8  15   8  16  12
M  ISO  2  23  15  25  16
M  END
>  <DihAtoms>  (1) 
1,6,20,19

>  <DihDeg>  (1) 
78.35443212979767

$$$$
