
     RDKit          3D

 40 43  0  0  0  0  0  0  0  0999 V2000
   46.9609   30.8491   45.2809 C   0  0  0  0  0  0  0  0  0  0  0  0
   46.5790   32.1728   45.0811 C   0  0  0  0  0  0  0  0  0  0  0  0
   46.0614   32.9652   46.1011 C   0  0  0  0  0  0  0  0  0  0  0  0
   45.9143   32.4229   47.3796 C   0  0  0  0  0  0  0  0  0  0  0  0
   45.4557   32.8959   48.5783 N   0  0  0  0  0  0  0  0  0  0  0  0
   45.5694   31.8472   49.4811 C   0  0  0  0  0  0  0  0  0  0  0  0
   46.0894   30.7724   48.8153 N   0  0  0  0  0  0  0  0  0  0  0  0
   46.3037   31.1104   47.5352 C   0  0  0  0  0  0  0  0  0  0  0  0
   46.8148   30.3076   46.5545 C   0  0  0  0  0  0  0  0  0  0  0  0
   45.9140   33.2565   41.6517 C   0  0  0  0  0  0  0  0  0  0  0  0
   47.0453   33.9853   41.3049 C   0  0  0  0  0  0  0  0  0  0  0  0
   48.0337   34.0916   42.2755 C   0  0  0  0  0  0  0  0  0  0  0  0
   47.8194   33.4797   43.4797 N   0  0  0  0  0  0  0  0  0  0  0  0
   46.7098   32.7837   43.7755 C   0  0  0  0  0  0  0  0  0  0  0  0
   45.7468   32.6711   42.8512 N   0  0  0  0  0  0  0  0  0  0  0  0
   49.2772   34.8489   41.9985 C   0  0  0  0  0  0  0  0  0  0  0  0
   48.9855   36.0096   41.2713 F   0  0  0  0  0  0  0  0  0  0  0  0
   49.8741   35.2539   43.1551 F   0  0  0  0  0  0  0  0  0  0  0  0
   50.1190   34.0513   41.2645 F   0  0  0  0  0  0  0  0  0  0  0  0
   47.1697   34.5597   40.0821 O   0  0  0  0  0  0  0  0  0  0  0  0
   47.3554   30.2935   44.4413 H   0  0  0  0  0  0  0  0  0  0  0  0
   45.7663   33.9926   45.9410 H   0  0  0  0  0  0  0  0  0  0  0  0
   45.1268   33.8635   48.6287 H   0  0  0  0  0  0  0  0  0  0  0  0
   45.2550   32.0156   50.5034 H   0  0  0  0  0  0  0  0  0  0  0  0
   47.1056   29.2980   46.7086 H   0  0  0  0  0  0  0  0  0  0  0  0
   45.0811   33.0962   40.9826 H   0  0  0  0  0  0  0  0  0  0  0  0
   48.6567   32.4616   38.9340 H   0  0  0  0  0  0  0  0  0  0  0  0
   47.7586   32.4490   37.9305 S   0  0  0  0  0  0  0  0  0  0  0  0
   47.2039   31.0455   37.7619 O   0  0  0  0  0  0  0  0  0  0  0  0
   48.4954   32.7435   36.6413 O   0  0  0  0  0  0  0  0  0  0  0  0
   46.4406   33.5842   38.1330 C   0  0  0  0  0  0  0  0  0  0  0  0
   46.2016   34.5145   39.1226 C   0  0  0  0  0  0  0  0  0  0  0  0
   45.0510   35.2705   39.0418 C   0  0  0  0  0  0  0  0  0  0  0  0
   44.9443   35.9761   39.8627 H   0  0  0  0  0  0  0  0  0  0  0  0
   44.1224   35.1640   38.0427 C   0  0  0  0  0  0  0  0  0  0  0  0
   43.2422   35.8147   38.0753 H   0  0  0  0  0  0  0  0  0  0  0  0
   44.3620   34.2339   37.0522 C   0  0  0  0  0  0  0  0  0  0  0  0
   45.5143   33.4448   37.0921 C   0  0  0  0  0  0  0  0  0  0  0  0
   43.6130   34.1703   36.2747 H   0  0  0  0  0  0  0  0  0  0  0  0
   45.5564   32.7656   36.2455 H   0  0  0  0  0  0  0  0  0  0  0  0
  1  9  2  0
  2  1  1  0
  2  3  2  0
  3  4  1  0
  4  8  2  0
  4  5  1  0
  5  6  1  0
  7  6  2  0
  8  7  1  0
  9  8  1  0
 10 15  2  0
 11 10  1  0
 11 12  2  0
 12 13  1  0
 13 14  2  0
 14  2  1  0
 15 14  1  0
 16 12  1  0
 16 18  1  0
 17 16  1  0
 19 16  1  0
 20 11  1  0
  1 21  1  0
  3 22  1  0
  5 23  1  0
  6 24  1  0
  9 25  1  0
 10 26  1  0
 27 28  1  0
 28 29  2  0
 28 30  2  0
 28 31  1  0
 31 32  2  0
 32 33  1  0
 33 34  1  0
 33 35  2  0
 35 36  1  0
 35 37  1  0
 37 38  2  0
 38 31  1  0
 37 39  1  0
 38 40  1  0
 20 32  1  0
M  ISO  8  21  14  22  14  23   9  24  14  25  14  26  14  27  12  34  15
M  ISO  1  36  16
M  END
>  <DihAtoms>  (1) 
10,19,31,30

>  <DihDeg>  (1) 
63.42020350915571

$$$$
