
 OpenBabel03242513223D

 37 39  0  0  1  0  0  0  0  0999 V2000
   46.0860   30.6970   47.3910 C   0  0  2  0  0  0  0  0  0  0  0  0
   44.7990   31.1270   48.0610 C   0  0  0  0  0  0  0  0  0  0  0  0
   45.4170   31.4920   49.4010 C   0  0  0  0  0  0  0  0  0  0  0  0
   46.4980   32.2680   49.0300 O   0  0  0  0  0  0  0  0  0  0  0  0
   47.0540   31.7040   47.8640 C   0  0  1  0  0  0  0  0  0  0  0  0
   46.3060   29.6700   47.7630 H   0  0  0  0  0  0  0  0  0  0  0  0
   44.3590   32.0370   47.6090 H   0  0  0  0  0  0  0  0  0  0  0  0
   44.0720   30.2960   48.1500 H   0  0  0  0  0  0  0  0  0  0  0  0
   44.7230   32.0180   50.0510 H   0  0  0  0  0  0  0  0  0  0  0  0
   45.8410   30.5580   49.8400 H   0  0  0  0  0  0  0  0  0  0  0  0
   47.3660   32.4630   47.1370 H   0  0  0  0  0  0  0  0  0  0  0  0
   48.7740   29.8180   47.9650 C   0  0  0  0  0  0  0  0  0  0  0  0
   48.3280   31.0670   48.3770 C   0  0  0  0  0  0  0  0  0  0  0  0
   49.1250   31.7520   49.2620 C   0  0  0  0  0  0  0  0  0  0  0  0
   48.9100   32.7210   49.6570 H   0  0  0  0  0  0  0  0  0  0  0  0
   50.3290   31.2710   49.7590 C   0  0  0  0  0  0  0  0  0  0  0  0
   50.9680   31.7990   50.4570 H   0  0  0  0  0  0  0  0  0  0  0  0
   50.7690   30.0320   49.3470 C   0  0  0  0  0  0  0  0  0  0  0  0
   49.9920   29.3460   48.4730 C   0  0  0  0  0  0  0  0  0  0  0  0
   46.5990   29.2390   46.6290 H   0  0  0  0  0  0  0  0  0  0  0  0
   47.8790   28.8230   46.8890 S   0  0  0  0  0  0  0  0  0  0  0  0
   47.6490   27.4870   47.6230 O   0  0  0  0  0  0  0  0  0  0  0  0
   48.6300   28.3920   45.6600 O   0  0  0  0  0  0  0  0  0  0  0  0
   45.9330   30.5760   45.9000 C   0  0  0  0  0  0  0  0  0  0  0  0
   46.4260   29.6920   45.4680 H   0  0  0  0  0  0  0  0  0  0  0  0
   44.8320   30.4180   45.7080 H   0  0  0  0  0  0  0  0  0  0  0  0
   47.1000   31.7750   44.1290 C   0  0  0  0  0  0  0  0  0  0  0  0
   46.2710   31.8180   45.1600 C   0  0  0  0  0  0  0  0  0  0  0  0
   46.8980   35.0170   42.4550 C   0  0  0  0  0  0  0  0  0  0  0  0
   48.2400   35.2220   42.0360 C   0  0  0  0  0  0  0  0  0  0  0  0
   49.1580   34.2230   42.3520 C   0  0  0  0  0  0  0  0  0  0  0  0
   48.7240   33.1330   43.0300 N   0  0  0  0  0  0  0  0  0  0  0  0
   47.4300   32.9820   43.4090 C   0  0  0  0  0  0  0  0  0  0  0  0
   46.5310   33.9030   43.1290 N   0  0  0  0  0  0  0  0  0  0  0  0
   46.1060   35.7310   42.2600 H   0  0  0  0  0  0  0  0  0  0  0  0
   48.4260   36.1300   41.5120 H   0  0  0  0  0  0  0  0  0  0  0  0
   50.1650   34.3840   42.0350 H   0  0  0  0  0  0  0  0  0  0  0  0
  1  6  1  1  0  0  0
  1  5  1  0  0  0  0
  1  2  1  0  0  0  0
  2  8  1  0  0  0  0
  2  3  1  0  0  0  0
  3 10  1  0  0  0  0
  3  9  1  0  0  0  0
  4  3  1  0  0  0  0
  5 11  1  6  0  0  0
  5 13  1  0  0  0  0
  5  4  1  0  0  0  0
  7  2  1  0  0  0  0
 12 13  2  0  0  0  0
 12 19  1  0  0  0  0
 13 14  1  0  0  0  0
 14 15  1  0  0  0  0
 14 16  2  0  0  0  0
 16 17  1  0  0  0  0
 18 16  1  0  0  0  0
 19 18  2  0  0  0  0
 20 21  1  0  0  0  0
 21 22  2  0  0  0  0
 21 12  1  0  0  0  0
 23 21  2  0  0  0  0
 24  1  1  0  0  0  0
 25 24  1  0  0  0  0
 26 24  1  0  0  0  0
 27 28  2  0  0  0  0
 28 24  1  0  0  0  0
 29 34  1  0  0  0  0
 30 31  1  0  0  0  0
 30 29  2  0  0  0  0
 31 32  2  0  0  0  0
 32 33  1  0  0  0  0
 33 27  1  0  0  0  0
 34 33  2  0  0  0  0
 35 29  1  0  0  0  0
 36 30  1  0  0  0  0
 37 31  1  0  0  0  0
M  END
>  <minimizedAffinity>
-4.85013103

>  <minimizedRMSD>
1.65500903

$$$$
