REMARK  Name = 
REMARK  8 active torsions:
REMARK  status: ('A' for Active; 'I' for Inactive)
REMARK    1  A    between atoms: C_1  and  O_13
REMARK    2  A    between atoms: C_2  and  C_10
REMARK    3  A    between atoms: C_5  and  O_14
REMARK    4  A    between atoms: C_6  and  O_12
REMARK    5  A    between atoms: O_14  and  C_15
REMARK    6  A    between atoms: C_15  and  C_16
REMARK    7  A    between atoms: C_16  and  C_35
REMARK    8  A    between atoms: S_31  and  C_34
REMARK                            x       y       z     vdW  Elec       q    Type
REMARK                         _______ _______ _______ _____ _____    ______ ____
ROOT
ATOM      1  C   UNL     1      46.686  32.851  46.646  0.00  0.00    +0.000 C 
ATOM      2  C   UNL     1      47.054  32.741  45.218  0.00  0.00    +0.000 C 
ATOM      3  O   UNL     1      46.526  31.423  44.827  0.00  0.00    +0.000 OA
ATOM      4  C   UNL     1      47.185  30.696  45.842  0.00  0.00    +0.000 C 
ATOM      5  C   UNL     1      46.592  31.391  47.078  0.00  0.00    +0.000 C 
ATOM      6  H   UNL     1      47.386  33.415  47.273  0.00  0.00    +0.000 HD
ATOM      7  H   UNL     1      48.159  32.631  45.121  0.00  0.00    +0.000 HD
ATOM      8  H   UNL     1      47.118  29.646  45.798  0.00  0.00    +0.000 HD
ATOM      9  H   UNL     1      48.242  31.064  45.819  0.00  0.00    +0.000 HD
ATOM     10  H   UNL     1      47.264  31.162  47.935  0.00  0.00    +0.000 HD
ENDROOT
BRANCH   2  15
ATOM     11  C   UNL     1      44.708  35.230  43.961  0.00  0.00    +0.000 A 
ATOM     12  C   UNL     1      45.334  35.739  42.821  0.00  0.00    +0.000 A 
ATOM     13  C   UNL     1      46.596  35.212  42.464  0.00  0.00    +0.000 A 
ATOM     14  N   UNL     1      47.140  34.241  43.241  0.00  0.00    +0.000 NA
ATOM     15  C   UNL     1      46.513  33.767  44.338  0.00  0.00    +0.000 A 
ATOM     16  N   UNL     1      45.298  34.256  44.705  0.00  0.00    +0.000 NA
ATOM     17  H   UNL     1      44.868  36.510  42.231  0.00  0.00    +0.000 HD
ATOM     18  H   UNL     1      47.118  35.576  41.587  0.00  0.00    +0.000 HD
BRANCH  11  19
ATOM     19  O   UNL     1      43.457  35.715  44.365  0.00  0.00    +0.000 OA
ATOM     20  H   UNL     1      43.018  36.428  43.788  0.00  0.00    +0.000 HD
ENDBRANCH  11  19
ENDBRANCH   2  15
BRANCH   1  21
ATOM     21  O   UNL     1      45.367  33.424  46.748  0.00  0.00    +0.000 OA
ATOM     22  H   UNL     1      44.752  32.696  46.438  0.00  0.00    +0.000 HD
ENDBRANCH   1  21
BRANCH   5  23
ATOM     23  O   UNL     1      45.312  30.993  47.223  0.00  0.00    +0.000 OA
BRANCH  23  24
ATOM     24  C   UNL     1      44.999  30.157  48.255  0.00  0.00    +0.000 C 
ATOM     25  H   UNL     1      43.849  30.255  48.447  0.00  0.00    +0.000 HD
ATOM     26  H   UNL     1      45.501  30.357  49.160  0.00  0.00    +0.000 HD
BRANCH  24  27
ATOM     27  C   UNL     1      45.036  28.684  47.884  0.00  0.00    +0.000 C 
ATOM     28  H   UNL     1      44.884  28.035  48.764  0.00  0.00    +0.000 HD
ATOM     29  H   UNL     1      45.982  28.354  47.433  0.00  0.00    +0.000 HD
BRANCH  27  31
ATOM     30  C   UNL     1      42.990  27.570  47.083  0.00  0.00    +0.000 A 
ATOM     31  C   UNL     1      44.010  28.483  46.836  0.00  0.00    +0.000 A 
ATOM     32  C   UNL     1      43.989  29.139  45.624  0.00  0.00    +0.000 A 
ATOM     33  H   UNL     1      44.756  29.852  45.372  0.00  0.00    +0.000 HD
ATOM     34  C   UNL     1      43.038  28.959  44.645  0.00  0.00    +0.000 A 
ATOM     35  H   UNL     1      43.068  29.505  43.701  0.00  0.00    +0.000 HD
ATOM     36  C   UNL     1      42.012  28.064  44.851  0.00  0.00    +0.000 A 
ATOM     37  C   UNL     1      42.031  27.400  46.075  0.00  0.00    +0.000 A 
BRANCH  30  39
ATOM     38  H   UNL     1      41.847  27.138  49.373  0.00  0.00    +0.000 HD
ATOM     39  S   UNL     1      42.753  26.592  48.497  0.00  0.00    +0.000 S 
ATOM     40  O   UNL     1      42.137  25.271  48.041  0.00  0.00    +0.000 OA
ATOM     41  O   UNL     1      43.987  26.230  49.226  0.00  0.00    +0.000 OA
ENDBRANCH  30  39
ENDBRANCH  27  31
ENDBRANCH  24  27
ENDBRANCH  23  24
ENDBRANCH   5  23
TORSDOF 8
