
 OpenBabel03252508363D

 34 36  0  0  0  0  0  0  0  0999 V2000
   37.9710   28.1000   41.1550 C   0  0  0  0  0  0  0  0  0  0  0  0
   37.8570   29.1910   41.9870 C   0  0  0  0  0  0  0  0  0  0  0  0
   37.3300   28.9680   43.2390 C   0  0  0  0  0  0  0  0  0  0  0  0
   36.9230   27.7160   43.6800 C   0  0  0  0  0  0  0  0  0  0  0  0
   37.0560   26.6590   42.8140 C   0  0  0  0  0  0  0  0  0  0  0  0
   37.5820   26.8400   41.5460 C   0  0  0  0  0  0  0  0  0  0  0  0
   37.2450   29.8410   43.8870 H   0  0  0  0  0  0  0  0  0  0  0  0
   36.5240   27.6280   44.6660 H   0  0  0  0  0  0  0  0  0  0  0  0
   36.7380   25.6810   43.1580 H   0  0  0  0  0  0  0  0  0  0  0  0
   37.8690   32.6090   40.4170 C   0  0  0  0  0  0  0  0  0  0  0  0
   37.4100   31.3780   40.8910 C   0  0  0  0  0  0  0  0  0  0  0  0
   38.2950   30.4780   41.4840 C   0  0  0  0  0  0  0  0  0  0  0  0
   39.5880   30.8770   41.5620 N   0  0  0  0  0  0  0  0  0  0  0  0
   40.0100   32.0590   41.1040 C   0  0  0  0  0  0  0  0  0  0  0  0
   39.1550   32.9260   40.5330 N   0  0  0  0  0  0  0  0  0  0  0  0
   36.9240   33.4880   39.8220 N   0  0  0  0  0  0  0  0  0  0  0  0
   36.3630   31.0750   40.8190 H   0  0  0  0  0  0  0  0  0  0  0  0
   41.0760   32.2790   41.2190 H   0  0  0  0  0  0  0  0  0  0  0  0
   36.7700   34.3970   40.3160 H   0  0  0  0  0  0  0  0  0  0  0  0
   36.3930   33.2940   38.9560 H   0  0  0  0  0  0  0  0  0  0  0  0
   38.8440   24.9190   40.5220 C   0  0  0  0  0  0  0  0  0  0  0  0
   37.7250   25.7200   40.6240 C   0  0  0  0  0  0  0  0  0  0  0  0
   36.6170   25.5020   39.8180 C   0  0  0  0  0  0  0  0  0  0  0  0
   35.6970   26.0650   39.8160 H   0  0  0  0  0  0  0  0  0  0  0  0
   36.6570   24.4630   38.9110 C   0  0  0  0  0  0  0  0  0  0  0  0
   35.8050   24.2480   38.2490 H   0  0  0  0  0  0  0  0  0  0  0  0
   37.7810   23.6420   38.7940 C   0  0  0  0  0  3  0  0  0  0  0  0
   38.8850   23.8800   39.6150 C   0  0  0  0  0  3  0  0  0  0  0  0
   40.0990   26.5650   42.0430 H   0  0  0  0  0  0  0  0  0  0  0  0
   40.2000   25.2720   41.5840 S   0  0  0  0  0  0  0  0  0  0  0  0
   41.5020   25.1440   40.8610 O   0  0  0  0  0  0  0  0  0  0  0  0
   40.1550   24.3850   42.8170 O   0  0  0  0  0  0  0  0  0  0  0  0
   38.9560   28.3760   38.7420 N   0  0  0  0  0  0  0  0  0  0  0  0
   38.5140   28.2500   39.8260 C   0  0  0  0  0  0  0  0  0  0  0  0
  1  6  2  0  0  0  0
  1  2  1  0  0  0  0
  2  3  2  0  0  0  0
  3  4  1  0  0  0  0
  3  7  1  0  0  0  0
  4  8  1  0  0  0  0
  5  9  1  0  0  0  0
  5  4  2  0  0  0  0
  6  5  1  0  0  0  0
 10 15  2  0  0  0  0
 10 11  1  0  0  0  0
 11 12  2  0  0  0  0
 12 13  1  0  0  0  0
 12  2  1  0  0  0  0
 14 18  1  0  0  0  0
 14 13  2  0  0  0  0
 15 14  1  0  0  0  0
 16 19  1  0  0  0  0
 16 10  1  0  0  0  0
 17 11  1  0  0  0  0
 20 16  1  0  0  0  0
 21 22  1  0  0  0  0
 21 30  1  0  0  0  0
 22  6  1  0  0  0  0
 23 22  2  0  0  0  0
 24 23  1  0  0  0  0
 25 23  1  0  0  0  0
 26 25  1  0  0  0  0
 27 25  2  0  0  0  0
 27 28  1  0  0  0  0
 28 21  2  0  0  0  0
 30 29  1  0  0  0  0
 30 32  2  0  0  0  0
 31 30  2  0  0  0  0
 33 34  3  0  0  0  0
 34  1  1  0  0  0  0
M  END
>  <minimizedAffinity>
-5.77495098

$$$$

 OpenBabel03252508363D

 34 36  0  0  0  0  0  0  0  0999 V2000
   38.6060   27.8150   41.4200 C   0  0  0  0  0  0  0  0  0  0  0  0
   39.0390   27.5700   42.7040 C   0  0  0  0  0  0  0  0  0  0  0  0
   38.0740   27.4650   43.6800 C   0  0  0  0  0  0  0  0  0  0  0  0
   36.7160   27.5930   43.4210 C   0  0  0  0  0  0  0  0  0  0  0  0
   36.3320   27.8370   42.1260 C   0  0  0  0  0  0  0  0  0  0  0  0
   37.2710   27.9490   41.1150 C   0  0  0  0  0  0  0  0  0  0  0  0
   38.4320   27.2710   44.6910 H   0  0  0  0  0  0  0  0  0  0  0  0
   36.0310   27.4990   44.2350 H   0  0  0  0  0  0  0  0  0  0  0  0
   35.2710   27.9370   41.9230 H   0  0  0  0  0  0  0  0  0  0  0  0
   42.4600   26.1190   43.2890 C   0  0  0  0  0  0  0  0  0  0  0  0
   41.0820   26.2010   43.0770 C   0  0  0  0  0  0  0  0  0  0  0  0
   40.4670   27.4440   42.9260 C   0  0  0  0  0  0  0  0  0  0  0  0
   41.2810   28.5250   42.9970 N   0  0  0  0  0  0  0  0  0  0  0  0
   42.5980   28.4270   43.2000 C   0  0  0  0  0  0  0  0  0  0  0  0
   43.1890   27.2280   43.3460 N   0  0  0  0  0  0  0  0  0  0  0  0
   43.0350   24.8270   43.4370 N   0  0  0  0  0  0  0  0  0  0  0  0
   40.4430   25.3170   43.0230 H   0  0  0  0  0  0  0  0  0  0  0  0
   43.1600   29.3660   43.2400 H   0  0  0  0  0  0  0  0  0  0  0  0
   43.7220   24.5450   42.7010 H   0  0  0  0  0  0  0  0  0  0  0  0
   42.8240   24.1650   44.2040 H   0  0  0  0  0  0  0  0  0  0  0  0
   36.7810   29.4600   39.1620 C   0  0  0  0  0  0  0  0  0  0  0  0
   36.8680   28.2090   39.7380 C   0  0  0  0  0  0  0  0  0  0  0  0
   36.5620   27.0670   39.0110 C   0  0  0  0  0  0  0  0  0  0  0  0
   36.5950   26.0480   39.3620 H   0  0  0  0  0  0  0  0  0  0  0  0
   36.1690   27.2100   37.6960 C   0  0  0  0  0  0  0  0  0  0  0  0
   35.9150   26.3380   37.0760 H   0  0  0  0  0  0  0  0  0  0  0  0
   36.0760   28.4680   37.0970 C   0  0  0  0  0  3  0  0  0  0  0  0
   36.3890   29.6030   37.8470 C   0  0  0  0  0  3  0  0  0  0  0  0
   38.3590   30.5970   40.8410 H   0  0  0  0  0  0  0  0  0  0  0  0
   37.1890   30.8480   40.1610 S   0  0  0  0  0  0  0  0  0  0  0  0
   36.1230   31.1200   41.1730 O   0  0  0  0  0  0  0  0  0  0  0  0
   37.4610   32.0660   39.2940 O   0  0  0  0  0  0  0  0  0  0  0  0
   40.3320   28.0410   39.4620 N   0  0  0  0  0  0  0  0  0  0  0  0
   39.5550   27.9380   40.3410 C   0  0  0  0  0  0  0  0  0  0  0  0
  1  2  1  0  0  0  0
  2 12  1  0  0  0  0
  2  3  2  0  0  0  0
  3  7  1  0  0  0  0
  4  3  1  0  0  0  0
  4  8  1  0  0  0  0
  5  4  2  0  0  0  0
  6  1  2  0  0  0  0
  6  5  1  0  0  0  0
  9  5  1  0  0  0  0
 10 15  1  0  0  0  0
 10 16  1  0  0  0  0
 11 10  2  0  0  0  0
 12 13  2  0  0  0  0
 12 11  1  0  0  0  0
 13 14  1  0  0  0  0
 14 18  1  0  0  0  0
 14 15  2  0  0  0  0
 16 20  1  0  0  0  0
 17 11  1  0  0  0  0
 19 16  1  0  0  0  0
 21 22  1  0  0  0  0
 21 30  1  0  0  0  0
 22  6  1  0  0  0  0
 23 24  1  0  0  0  0
 23 22  2  0  0  0  0
 25 23  1  0  0  0  0
 26 25  1  0  0  0  0
 27 25  2  0  0  0  0
 27 28  1  0  0  0  0
 28 21  2  0  0  0  0
 30 29  1  0  0  0  0
 30 31  2  0  0  0  0
 32 30  2  0  0  0  0
 33 34  3  0  0  0  0
 34  1  1  0  0  0  0
M  END
>  <minimizedAffinity>
-5.70214081

$$$$

 OpenBabel03252508363D

 34 36  0  0  0  0  0  0  0  0999 V2000
   38.4700   29.0470   40.9570 C   0  0  0  0  0  0  0  0  0  0  0  0
   37.8560   30.2010   40.5250 C   0  0  0  0  0  0  0  0  0  0  0  0
   36.4830   30.2430   40.5970 C   0  0  0  0  0  0  0  0  0  0  0  0
   35.7150   29.1900   41.0780 C   0  0  0  0  0  0  0  0  0  0  0  0
   36.3710   28.0590   41.4960 C   0  0  0  0  0  0  0  0  0  0  0  0
   37.7520   27.9770   41.4410 C   0  0  0  0  0  0  0  0  0  0  0  0
   36.0110   31.1630   40.2520 H   0  0  0  0  0  0  0  0  0  0  0  0
   34.6530   29.3020   41.1000 H   0  0  0  0  0  0  0  0  0  0  0  0
   35.7720   27.2370   41.8720 H   0  0  0  0  0  0  0  0  0  0  0  0
   39.8860   32.4070   38.2530 C   0  0  0  0  0  0  0  0  0  0  0  0
   39.0740   31.3600   38.6910 C   0  0  0  0  0  0  0  0  0  0  0  0
   38.6990   31.2740   40.0320 C   0  0  0  0  0  0  0  0  0  0  0  0
   39.1680   32.2500   40.8460 N   0  0  0  0  0  0  0  0  0  0  0  0
   39.9440   33.2460   40.4090 C   0  0  0  0  0  0  0  0  0  0  0  0
   40.3040   33.3270   39.1160 N   0  0  0  0  0  0  0  0  0  0  0  0
   40.2380   32.4460   36.8760 N   0  0  0  0  0  0  0  0  0  0  0  0
   38.7060   30.5810   38.0190 H   0  0  0  0  0  0  0  0  0  0  0  0
   40.2660   33.9820   41.1540 H   0  0  0  0  0  0  0  0  0  0  0  0
   39.8860   33.2710   36.3380 H   0  0  0  0  0  0  0  0  0  0  0  0
   40.8030   31.7330   36.3850 H   0  0  0  0  0  0  0  0  0  0  0  0
   38.6140   25.6330   41.1320 C   0  0  0  0  0  0  0  0  0  0  0  0
   38.4530   26.7790   41.8850 C   0  0  0  0  0  0  0  0  0  0  0  0
   38.9710   26.8650   43.1700 C   0  0  0  0  0  0  0  0  0  0  0  0
   38.9010   27.7070   43.8400 H   0  0  0  0  0  0  0  0  0  0  0  0
   39.6520   25.7790   43.6790 C   0  0  0  0  0  0  0  0  0  0  0  0
   40.0810   25.7960   44.6920 H   0  0  0  0  0  0  0  0  0  0  0  0
   39.8250   24.6120   42.9320 C   0  0  0  0  0  3  0  0  0  0  0  0
   39.2960   24.5470   41.6420 C   0  0  0  0  0  3  0  0  0  0  0  0
   37.9280   26.8920   39.0010 H   0  0  0  0  0  0  0  0  0  0  0  0
   37.9250   25.6160   39.5150 S   0  0  0  0  0  0  0  0  0  0  0  0
   36.5100   25.1350   39.5350 O   0  0  0  0  0  0  0  0  0  0  0  0
   38.7850   24.7840   38.5780 O   0  0  0  0  0  0  0  0  0  0  0  0
   41.0800   28.8260   40.8840 N   0  0  0  0  0  0  0  0  0  0  0  0
   39.9070   28.9240   40.9150 C   0  0  0  0  0  0  0  0  0  0  0  0
  1  6  1  0  0  0  0
  2  3  1  0  0  0  0
  2  1  2  0  0  0  0
  3  4  2  0  0  0  0
  4  8  1  0  0  0  0
  4  5  1  0  0  0  0
  5  9  1  0  0  0  0
  6  5  2  0  0  0  0
  6 22  1  0  0  0  0
  7  3  1  0  0  0  0
 10 11  2  0  0  0  0
 10 15  1  0  0  0  0
 11 12  1  0  0  0  0
 12  2  1  0  0  0  0
 12 13  2  0  0  0  0
 14 13  1  0  0  0  0
 14 18  1  0  0  0  0
 15 14  2  0  0  0  0
 16 10  1  0  0  0  0
 17 11  1  0  0  0  0
 19 16  1  0  0  0  0
 20 16  1  0  0  0  0
 21 28  2  0  0  0  0
 21 22  1  0  0  0  0
 22 23  2  0  0  0  0
 23 25  1  0  0  0  0
 23 24  1  0  0  0  0
 25 26  1  0  0  0  0
 27 25  2  0  0  0  0
 28 27  1  0  0  0  0
 29 30  1  0  0  0  0
 30 31  2  0  0  0  0
 30 21  1  0  0  0  0
 32 30  2  0  0  0  0
 33 34  3  0  0  0  0
 34  1  1  0  0  0  0
M  END
>  <minimizedAffinity>
-5.64534664

$$$$

 OpenBabel03252508363D

 34 36  0  0  0  0  0  0  0  0999 V2000
   38.7180   28.4180   41.4070 C   0  0  0  0  0  0  0  0  0  0  0  0
   37.4900   29.0040   41.1990 C   0  0  0  0  0  0  0  0  0  0  0  0
   36.4430   28.5500   41.9690 C   0  0  0  0  0  0  0  0  0  0  0  0
   36.5810   27.5490   42.9230 C   0  0  0  0  0  0  0  0  0  0  0  0
   37.8250   26.9950   43.0940 C   0  0  0  0  0  0  0  0  0  0  0  0
   38.9040   27.4240   42.3400 C   0  0  0  0  0  0  0  0  0  0  0  0
   35.4770   29.0220   41.7940 H   0  0  0  0  0  0  0  0  0  0  0  0
   35.7180   27.2540   43.4790 H   0  0  0  0  0  0  0  0  0  0  0  0
   37.9320   26.2140   43.8380 H   0  0  0  0  0  0  0  0  0  0  0  0
   37.2080   32.3680   39.5390 C   0  0  0  0  0  0  0  0  0  0  0  0
   37.2970   31.3930   40.5350 C   0  0  0  0  0  0  0  0  0  0  0  0
   37.3950   30.0440   40.1940 C   0  0  0  0  0  0  0  0  0  0  0  0
   37.3970   29.7640   38.8680 N   0  0  0  0  0  0  0  0  0  0  0  0
   37.3120   30.7090   37.9270 C   0  0  0  0  0  0  0  0  0  0  0  0
   37.2170   32.0090   38.2590 N   0  0  0  0  0  0  0  0  0  0  0  0
   37.1100   33.7270   39.9430 N   0  0  0  0  0  0  0  0  0  0  0  0
   37.2940   31.6400   41.5990 H   0  0  0  0  0  0  0  0  0  0  0  0
   37.3230   30.3700   36.8870 H   0  0  0  0  0  0  0  0  0  0  0  0
   37.9040   34.3460   39.6610 H   0  0  0  0  0  0  0  0  0  0  0  0
   36.3270   34.1330   40.4830 H   0  0  0  0  0  0  0  0  0  0  0  0
   40.6920   25.7220   41.8530 C   0  0  0  0  0  0  0  0  0  0  0  0
   40.2270   26.8390   42.5180 C   0  0  0  0  0  0  0  0  0  0  0  0
   41.0230   27.5030   43.4390 C   0  0  0  0  0  0  0  0  0  0  0  0
   40.7590   28.3790   44.0110 H   0  0  0  0  0  0  0  0  0  0  0  0
   42.2950   27.0240   43.6770 C   0  0  0  0  0  0  0  0  0  0  0  0
   42.9660   27.5140   44.3980 H   0  0  0  0  0  0  0  0  0  0  0  0
   42.7830   25.8950   43.0140 C   0  0  0  0  0  3  0  0  0  0  0  0
   41.9640   25.2420   42.0910 C   0  0  0  0  0  3  0  0  0  0  0  0
   38.6840   25.8590   40.2590 H   0  0  0  0  0  0  0  0  0  0  0  0
   39.6120   24.9460   40.7040 S   0  0  0  0  0  0  0  0  0  0  0  0
   38.8710   23.8130   41.3370 O   0  0  0  0  0  0  0  0  0  0  0  0
   40.3800   24.4940   39.4730 O   0  0  0  0  0  0  0  0  0  0  0  0
   40.8000   29.1830   40.0120 N   0  0  0  0  0  0  0  0  0  0  0  0
   39.8660   28.8390   40.6400 C   0  0  0  0  0  0  0  0  0  0  0  0
  1  6  1  0  0  0  0
  2  1  2  0  0  0  0
  2  3  1  0  0  0  0
  3  4  2  0  0  0  0
  4  5  1  0  0  0  0
  4  8  1  0  0  0  0
  5  9  1  0  0  0  0
  6 22  1  0  0  0  0
  6  5  2  0  0  0  0
  7  3  1  0  0  0  0
 10 16  1  0  0  0  0
 10 11  1  0  0  0  0
 11 17  1  0  0  0  0
 12 11  2  0  0  0  0
 12  2  1  0  0  0  0
 13 12  1  0  0  0  0
 14 15  1  0  0  0  0
 14 13  2  0  0  0  0
 15 10  2  0  0  0  0
 16 20  1  0  0  0  0
 18 14  1  0  0  0  0
 19 16  1  0  0  0  0
 21 28  2  0  0  0  0
 21 22  1  0  0  0  0
 22 23  2  0  0  0  0
 23 25  1  0  0  0  0
 23 24  1  0  0  0  0
 25 26  1  0  0  0  0
 27 25  2  0  0  0  0
 28 27  1  0  0  0  0
 29 30  1  0  0  0  0
 30 31  2  0  0  0  0
 30 21  1  0  0  0  0
 32 30  2  0  0  0  0
 33 34  3  0  0  0  0
 34  1  1  0  0  0  0
M  END
>  <minimizedAffinity>
-5.52719736

$$$$

 OpenBabel03252508363D

 34 36  0  0  0  0  0  0  0  0999 V2000
   38.2410   30.1210   39.5280 C   0  0  0  0  0  0  0  0  0  0  0  0
   38.2610   31.0910   38.5510 C   0  0  0  0  0  0  0  0  0  0  0  0
   37.3010   31.0070   37.5680 C   0  0  0  0  0  0  0  0  0  0  0  0
   36.3380   30.0070   37.5310 C   0  0  0  0  0  0  0  0  0  0  0  0
   36.3580   29.0620   38.5270 C   0  0  0  0  0  0  0  0  0  0  0  0
   37.3070   29.1110   39.5340 C   0  0  0  0  0  0  0  0  0  0  0  0
   37.3290   31.7810   36.8010 H   0  0  0  0  0  0  0  0  0  0  0  0
   35.6280   30.0130   36.7330 H   0  0  0  0  0  0  0  0  0  0  0  0
   35.6060   28.2810   38.4980 H   0  0  0  0  0  0  0  0  0  0  0  0
   41.3080   33.1770   37.8330 C   0  0  0  0  0  0  0  0  0  0  0  0
   40.3400   32.1750   37.7230 C   0  0  0  0  0  0  0  0  0  0  0  0
   39.2840   32.1150   38.6320 C   0  0  0  0  0  0  0  0  0  0  0  0
   39.2710   33.0690   39.5940 N   0  0  0  0  0  0  0  0  0  0  0  0
   40.2040   34.0210   39.6830 C   0  0  0  0  0  0  0  0  0  0  0  0
   41.2220   34.0770   38.8060 N   0  0  0  0  0  0  0  0  0  0  0  0
   42.3620   33.1910   36.8800 N   0  0  0  0  0  0  0  0  0  0  0  0
   40.3690   31.4150   36.9400 H   0  0  0  0  0  0  0  0  0  0  0  0
   40.0950   34.7420   40.5010 H   0  0  0  0  0  0  0  0  0  0  0  0
   42.4050   34.0300   36.2580 H   0  0  0  0  0  0  0  0  0  0  0  0
   43.0710   32.4460   36.7640 H   0  0  0  0  0  0  0  0  0  0  0  0
   38.0330   26.9230   40.5420 C   0  0  0  0  0  0  0  0  0  0  0  0
   37.3320   28.1100   40.5940 C   0  0  0  0  0  0  0  0  0  0  0  0
   36.5710   28.4410   41.7060 C   0  0  0  0  0  0  0  0  0  0  0  0
   35.9880   29.3370   41.8480 H   0  0  0  0  0  0  0  0  0  0  0  0
   36.5320   27.5550   42.7640 C   0  0  0  0  0  0  0  0  0  0  0  0
   35.9440   27.7700   43.6680 H   0  0  0  0  0  0  0  0  0  0  0  0
   37.2350   26.3490   42.7290 C   0  0  0  0  0  3  0  0  0  0  0  0
   37.9930   26.0370   41.5990 C   0  0  0  0  0  3  0  0  0  0  0  0
   39.3780   27.7750   38.5270 H   0  0  0  0  0  0  0  0  0  0  0  0
   38.9690   26.5890   39.0910 S   0  0  0  0  0  0  0  0  0  0  0  0
   38.1520   25.8580   38.0760 O   0  0  0  0  0  0  0  0  0  0  0  0
   40.2380   25.8300   39.4400 O   0  0  0  0  0  0  0  0  0  0  0  0
   40.0070   30.1500   41.4630 N   0  0  0  0  0  0  0  0  0  0  0  0
   39.2130   30.1390   40.5940 C   0  0  0  0  0  0  0  0  0  0  0  0
  1  6  1  0  0  0  0
  1 34  1  0  0  0  0
  2 12  1  0  0  0  0
  2  1  2  0  0  0  0
  3  2  1  0  0  0  0
  4  3  2  0  0  0  0
  4  5  1  0  0  0  0
  5  6  2  0  0  0  0
  6 22  1  0  0  0  0
  7  3  1  0  0  0  0
  8  4  1  0  0  0  0
  9  5  1  0  0  0  0
 10 15  1  0  0  0  0
 11 10  2  0  0  0  0
 11 12  1  0  0  0  0
 12 13  2  0  0  0  0
 13 14  1  0  0  0  0
 14 18  1  0  0  0  0
 15 14  2  0  0  0  0
 16 10  1  0  0  0  0
 17 11  1  0  0  0  0
 19 16  1  0  0  0  0
 20 16  1  0  0  0  0
 21 22  2  0  0  0  0
 21 28  1  0  0  0  0
 22 23  1  0  0  0  0
 23 24  1  0  0  0  0
 23 25  2  0  0  0  0
 25 26  1  0  0  0  0
 27 25  1  0  0  0  0
 28 27  2  0  0  0  0
 29 30  1  0  0  0  0
 30 32  2  0  0  0  0
 30 21  1  0  0  0  0
 31 30  2  0  0  0  0
 34 33  3  0  0  0  0
M  END
>  <minimizedAffinity>
-5.45968008

$$$$

 OpenBabel03252508363D

 34 36  0  0  0  0  0  0  0  0999 V2000
   37.2010   29.4570   39.5590 C   0  0  0  0  0  0  0  0  0  0  0  0
   36.7630   30.3380   38.5960 C   0  0  0  0  0  0  0  0  0  0  0  0
   36.9390   31.6800   38.8500 C   0  0  0  0  0  0  0  0  0  0  0  0
   37.5290   32.1610   40.0110 C   0  0  0  0  0  0  0  0  0  0  0  0
   37.9510   31.2450   40.9420 C   0  0  0  0  0  0  0  0  0  0  0  0
   37.7930   29.8870   40.7250 C   0  0  0  0  0  0  0  0  0  0  0  0
   36.5860   32.3650   38.0790 H   0  0  0  0  0  0  0  0  0  0  0  0
   37.6290   33.2180   40.1310 H   0  0  0  0  0  0  0  0  0  0  0  0
   38.4120   31.6210   41.8480 H   0  0  0  0  0  0  0  0  0  0  0  0
   36.2040   29.2220   35.0480 C   0  0  0  0  0  0  0  0  0  0  0  0
   36.8240   29.7590   36.1780 C   0  0  0  0  0  0  0  0  0  0  0  0
   36.1530   29.7890   37.4010 C   0  0  0  0  0  0  0  0  0  0  0  0
   34.9000   29.2730   37.4060 N   0  0  0  0  0  0  0  0  0  0  0  0
   34.3230   28.7620   36.3140 C   0  0  0  0  0  0  0  0  0  0  0  0
   34.9710   28.7350   35.1360 N   0  0  0  0  0  0  0  0  0  0  0  0
   36.9330   29.2170   33.8280 N   0  0  0  0  0  0  0  0  0  0  0  0
   37.8350   30.1700   36.1530 H   0  0  0  0  0  0  0  0  0  0  0  0
   33.3060   28.3720   36.4320 H   0  0  0  0  0  0  0  0  0  0  0  0
   37.1580   28.2750   33.4320 H   0  0  0  0  0  0  0  0  0  0  0  0
   37.2480   30.0610   33.3180 H   0  0  0  0  0  0  0  0  0  0  0  0
   39.4980   28.3450   41.7490 C   0  0  0  0  0  0  0  0  0  0  0  0
   38.2390   28.9100   41.7100 C   0  0  0  0  0  0  0  0  0  0  0  0
   37.2760   28.5680   42.6490 C   0  0  0  0  0  0  0  0  0  0  0  0
   36.2680   28.9460   42.7090 H   0  0  0  0  0  0  0  0  0  0  0  0
   37.6040   27.6490   43.6240 C   0  0  0  0  0  0  0  0  0  0  0  0
   36.8770   27.3430   44.3910 H   0  0  0  0  0  0  0  0  0  0  0  0
   38.8730   27.0670   43.6790 C   0  0  0  0  0  3  0  0  0  0  0  0
   39.8260   27.4260   42.7240 C   0  0  0  0  0  3  0  0  0  0  0  0
   40.3680   30.1220   40.1120 H   0  0  0  0  0  0  0  0  0  0  0  0
   40.6530   28.8390   40.5180 S   0  0  0  0  0  0  0  0  0  0  0  0
   40.5780   27.9520   39.3180 O   0  0  0  0  0  0  0  0  0  0  0  0
   42.0580   28.8840   41.0950 O   0  0  0  0  0  0  0  0  0  0  0  0
   36.9300   26.8740   39.2100 N   0  0  0  0  0  0  0  0  0  0  0  0
   37.0540   28.0350   39.3680 C   0  0  0  0  0  0  0  0  0  0  0  0
  1  6  1  0  0  0  0
  2  3  1  0  0  0  0
  2  1  2  0  0  0  0
  3  4  2  0  0  0  0
  4  8  1  0  0  0  0
  4  5  1  0  0  0  0
  5  9  1  0  0  0  0
  6  5  2  0  0  0  0
  6 22  1  0  0  0  0
  7  3  1  0  0  0  0
 10 15  2  0  0  0  0
 10 11  1  0  0  0  0
 11 12  2  0  0  0  0
 12 13  1  0  0  0  0
 12  2  1  0  0  0  0
 14 18  1  0  0  0  0
 14 13  2  0  0  0  0
 15 14  1  0  0  0  0
 16 10  1  0  0  0  0
 17 11  1  0  0  0  0
 19 16  1  0  0  0  0
 20 16  1  0  0  0  0
 21 28  1  0  0  0  0
 22 21  2  0  0  0  0
 22 23  1  0  0  0  0
 23 24  1  0  0  0  0
 23 25  2  0  0  0  0
 25 27  1  0  0  0  0
 25 26  1  0  0  0  0
 28 27  2  0  0  0  0
 29 30  1  0  0  0  0
 30 32  2  0  0  0  0
 30 21  1  0  0  0  0
 31 30  2  0  0  0  0
 33 34  3  0  0  0  0
 34  1  1  0  0  0  0
M  END
>  <minimizedAffinity>
-5.42277002

$$$$

 OpenBabel03252508363D

 34 36  0  0  0  0  0  0  0  0999 V2000
   38.2430   28.8880   40.8730 C   0  0  0  0  0  0  0  0  0  0  0  0
   38.4040   30.2550   40.8770 C   0  0  0  0  0  0  0  0  0  0  0  0
   37.2590   31.0190   40.8840 C   0  0  0  0  0  0  0  0  0  0  0  0
   35.9820   30.4720   40.8890 C   0  0  0  0  0  0  0  0  0  0  0  0
   35.8720   29.1040   40.8840 C   0  0  0  0  0  0  0  0  0  0  0  0
   36.9990   28.3000   40.8770 C   0  0  0  0  0  0  0  0  0  0  0  0
   37.4020   32.0990   40.8880 H   0  0  0  0  0  0  0  0  0  0  0  0
   35.1450   31.1350   40.8940 H   0  0  0  0  0  0  0  0  0  0  0  0
   34.8750   28.6780   40.8880 H   0  0  0  0  0  0  0  0  0  0  0  0
   41.7350   31.5850   42.0110 C   0  0  0  0  0  0  0  0  0  0  0  0
   40.4330   31.0820   42.0540 C   0  0  0  0  0  0  0  0  0  0  0  0
   39.7560   30.7790   40.8730 C   0  0  0  0  0  0  0  0  0  0  0  0
   40.4360   31.0020   39.7220 N   0  0  0  0  0  0  0  0  0  0  0  0
   41.6830   31.4830   39.6990 C   0  0  0  0  0  0  0  0  0  0  0  0
   42.3330   31.7750   40.8400 N   0  0  0  0  0  0  0  0  0  0  0  0
   42.3780   31.8770   43.2440 N   0  0  0  0  0  0  0  0  0  0  0  0
   39.9020   30.9090   42.9930 H   0  0  0  0  0  0  0  0  0  0  0  0
   42.1370   31.6250   38.7130 H   0  0  0  0  0  0  0  0  0  0  0  0
   43.2290   31.3100   43.4620 H   0  0  0  0  0  0  0  0  0  0  0  0
   42.0680   32.5930   43.9230 H   0  0  0  0  0  0  0  0  0  0  0  0
   36.6470   26.0770   39.7520 C   0  0  0  0  0  0  0  0  0  0  0  0
   36.8870   26.8470   40.8720 C   0  0  0  0  0  0  0  0  0  0  0  0
   37.0420   26.2600   42.1210 C   0  0  0  0  0  0  0  0  0  0  0  0
   37.2300   26.7660   43.0540 H   0  0  0  0  0  0  0  0  0  0  0  0
   36.9520   24.8870   42.2180 C   0  0  0  0  0  0  0  0  0  0  0  0
   37.0670   24.3730   43.1840 H   0  0  0  0  0  0  0  0  0  0  0  0
   36.7100   24.0920   41.0960 C   0  0  0  0  0  3  0  0  0  0  0  0
   36.5570   24.7030   39.8500 C   0  0  0  0  0  3  0  0  0  0  0  0
   36.3620   25.9810   37.2020 H   0  0  0  0  0  0  0  0  0  0  0  0
   36.4640   26.9080   38.2140 S   0  0  0  0  0  0  0  0  0  0  0  0
   37.6450   27.7750   37.9230 O   0  0  0  0  0  0  0  0  0  0  0  0
   35.1670   27.7010   38.1880 O   0  0  0  0  0  0  0  0  0  0  0  0
   40.3350   27.3100   40.8600 N   0  0  0  0  0  0  0  0  0  0  0  0
   39.3940   28.0170   40.8660 C   0  0  0  0  0  0  0  0  0  0  0  0
  1  2  2  0  0  0  0
  1  6  1  0  0  0  0
  2  3  1  0  0  0  0
  3  7  1  0  0  0  0
  3  4  2  0  0  0  0
  4  8  1  0  0  0  0
  5  9  1  0  0  0  0
  5  4  1  0  0  0  0
  6  5  2  0  0  0  0
 10 11  1  0  0  0  0
 10 16  1  0  0  0  0
 11 17  1  0  0  0  0
 12  2  1  0  0  0  0
 12 11  2  0  0  0  0
 13 12  1  0  0  0  0
 14 13  2  0  0  0  0
 14 15  1  0  0  0  0
 15 10  2  0  0  0  0
 16 19  1  0  0  0  0
 16 20  1  0  0  0  0
 18 14  1  0  0  0  0
 21 28  2  0  0  0  0
 21 22  1  0  0  0  0
 22  6  1  0  0  0  0
 22 23  2  0  0  0  0
 23 25  1  0  0  0  0
 23 24  1  0  0  0  0
 25 26  1  0  0  0  0
 27 25  2  0  0  0  0
 28 27  1  0  0  0  0
 29 30  1  0  0  0  0
 30 21  1  0  0  0  0
 31 30  2  0  0  0  0
 32 30  2  0  0  0  0
 33 34  3  0  0  0  0
 34  1  1  0  0  0  0
M  END
>  <minimizedAffinity>
-5.40650368

$$$$

 OpenBabel03252508363D

 34 36  0  0  0  0  0  0  0  0999 V2000
   38.1610   27.6110   41.2440 C   0  0  0  0  0  0  0  0  0  0  0  0
   37.3380   26.6020   41.6910 C   0  0  0  0  0  0  0  0  0  0  0  0
   36.7230   26.7900   42.9080 C   0  0  0  0  0  0  0  0  0  0  0  0
   36.8990   27.9320   43.6790 C   0  0  0  0  0  0  0  0  0  0  0  0
   37.7290   28.9110   43.1920 C   0  0  0  0  0  0  0  0  0  0  0  0
   38.3660   28.7610   41.9720 C   0  0  0  0  0  0  0  0  0  0  0  0
   36.0750   25.9830   43.2490 H   0  0  0  0  0  0  0  0  0  0  0  0
   36.3850   28.0000   44.6120 H   0  0  0  0  0  0  0  0  0  0  0  0
   37.8660   29.8020   43.7940 H   0  0  0  0  0  0  0  0  0  0  0  0
   37.6050   23.1000   40.3450 C   0  0  0  0  0  0  0  0  0  0  0  0
   37.7740   24.2080   41.1780 C   0  0  0  0  0  0  0  0  0  0  0  0
   37.1860   25.4300   40.8510 C   0  0  0  0  0  0  0  0  0  0  0  0
   36.4630   25.4560   39.7050 N   0  0  0  0  0  0  0  0  0  0  0  0
   36.3110   24.3850   38.9200 C   0  0  0  0  0  0  0  0  0  0  0  0
   36.8800   23.2080   39.2370 N   0  0  0  0  0  0  0  0  0  0  0  0
   38.2270   21.8800   40.7250 N   0  0  0  0  0  0  0  0  0  0  0  0
   38.3610   24.1660   42.0980 H   0  0  0  0  0  0  0  0  0  0  0  0
   35.7060   24.5200   38.0180 H   0  0  0  0  0  0  0  0  0  0  0  0
   37.5820   21.0840   40.9370 H   0  0  0  0  0  0  0  0  0  0  0  0
   39.2480   21.7300   40.8040 H   0  0  0  0  0  0  0  0  0  0  0  0
   38.8740   30.7760   40.5530 C   0  0  0  0  0  0  0  0  0  0  0  0
   39.2490   29.7980   41.4510 C   0  0  0  0  0  0  0  0  0  0  0  0
   40.5470   29.7360   41.9370 C   0  0  0  0  0  0  0  0  0  0  0  0
   40.9430   29.0170   42.6360 H   0  0  0  0  0  0  0  0  0  0  0  0
   41.4580   30.6760   41.5020 C   0  0  0  0  0  0  0  0  0  0  0  0
   42.5000   30.6710   41.8550 H   0  0  0  0  0  0  0  0  0  0  0  0
   41.0970   31.6740   40.5930 C   0  0  0  0  0  3  0  0  0  0  0  0
   39.7850   31.7170   40.1180 C   0  0  0  0  0  3  0  0  0  0  0  0
   36.8130   29.4850   39.7270 H   0  0  0  0  0  0  0  0  0  0  0  0
   37.2070   30.7760   39.9940 S   0  0  0  0  0  0  0  0  0  0  0  0
   37.0580   31.5680   38.7350 O   0  0  0  0  0  0  0  0  0  0  0  0
   36.2790   31.2800   41.0860 O   0  0  0  0  0  0  0  0  0  0  0  0
   39.4010   27.3920   38.9460 N   0  0  0  0  0  0  0  0  0  0  0  0
   38.8420   27.4910   39.9780 C   0  0  0  0  0  0  0  0  0  0  0  0
  1  2  2  0  0  0  0
  1  6  1  0  0  0  0
  2  3  1  0  0  0  0
  3  7  1  0  0  0  0
  3  4  2  0  0  0  0
  4  8  1  0  0  0  0
  5  4  1  0  0  0  0
  5  9  1  0  0  0  0
  6  5  2  0  0  0  0
 10 16  1  0  0  0  0
 10 11  1  0  0  0  0
 11 17  1  0  0  0  0
 12 11  2  0  0  0  0
 12  2  1  0  0  0  0
 13 12  1  0  0  0  0
 14 15  1  0  0  0  0
 14 13  2  0  0  0  0
 15 10  2  0  0  0  0
 16 20  1  0  0  0  0
 16 19  1  0  0  0  0
 18 14  1  0  0  0  0
 21 22  1  0  0  0  0
 22 23  2  0  0  0  0
 22  6  1  0  0  0  0
 23 24  1  0  0  0  0
 25 26  1  0  0  0  0
 25 23  1  0  0  0  0
 27 25  2  0  0  0  0
 28 21  2  0  0  0  0
 28 27  1  0  0  0  0
 29 30  1  0  0  0  0
 30 21  1  0  0  0  0
 30 32  2  0  0  0  0
 31 30  2  0  0  0  0
 33 34  3  0  0  0  0
 34  1  1  0  0  0  0
M  END
>  <minimizedAffinity>
-5.38207579

$$$$

 OpenBabel03252508363D

 34 36  0  0  0  0  0  0  0  0999 V2000
   38.6030   29.9950   37.7000 C   0  0  0  0  0  0  0  0  0  0  0  0
   39.9790   30.0210   37.7430 C   0  0  0  0  0  0  0  0  0  0  0  0
   40.6380   28.8700   37.3760 C   0  0  0  0  0  0  0  0  0  0  0  0
   39.9810   27.7150   36.9720 C   0  0  0  0  0  0  0  0  0  0  0  0
   38.6080   27.7370   36.9440 C   0  0  0  0  0  0  0  0  0  0  0  0
   37.9080   28.8740   37.3060 C   0  0  0  0  0  0  0  0  0  0  0  0
   41.7270   28.9060   37.4150 H   0  0  0  0  0  0  0  0  0  0  0  0
   40.5660   26.8640   36.7020 H   0  0  0  0  0  0  0  0  0  0  0  0
   38.0950   26.8350   36.6290 H   0  0  0  0  0  0  0  0  0  0  0  0
   41.8210   33.3010   37.7110 C   0  0  0  0  0  0  0  0  0  0  0  0
   41.2130   32.1270   37.2620 C   0  0  0  0  0  0  0  0  0  0  0  0
   40.6200   31.2490   38.1710 C   0  0  0  0  0  0  0  0  0  0  0  0
   40.6800   31.6130   39.4750 N   0  0  0  0  0  0  0  0  0  0  0  0
   41.2650   32.7410   39.8870 C   0  0  0  0  0  0  0  0  0  0  0  0
   41.8360   33.5850   39.0090 N   0  0  0  0  0  0  0  0  0  0  0  0
   42.4090   34.1580   36.7420 N   0  0  0  0  0  0  0  0  0  0  0  0
   41.1750   31.8520   36.2050 H   0  0  0  0  0  0  0  0  0  0  0  0
   41.2550   32.9350   40.9640 H   0  0  0  0  0  0  0  0  0  0  0  0
   41.9810   35.1080   36.6520 H   0  0  0  0  0  0  0  0  0  0  0  0
   43.2110   33.9120   36.1360 H   0  0  0  0  0  0  0  0  0  0  0  0
   35.6350   28.6170   38.3550 C   0  0  0  0  0  0  0  0  0  0  0  0
   36.4500   28.9010   37.2790 C   0  0  0  0  0  0  0  0  0  0  0  0
   35.9110   29.2460   36.0470 C   0  0  0  0  0  0  0  0  0  0  0  0
   36.4540   29.4850   35.1470 H   0  0  0  0  0  0  0  0  0  0  0  0
   34.5380   29.2990   35.9220 C   0  0  0  0  0  0  0  0  0  0  0  0
   34.0610   29.5660   34.9680 H   0  0  0  0  0  0  0  0  0  0  0  0
   33.6970   29.0140   37.0000 C   0  0  0  0  0  3  0  0  0  0  0  0
   34.2610   28.6690   38.2290 C   0  0  0  0  0  3  0  0  0  0  0  0
   37.6560   28.7650   39.9320 H   0  0  0  0  0  0  0  0  0  0  0  0
   36.4080   28.1900   39.8750 S   0  0  0  0  0  0  0  0  0  0  0  0
   36.5800   26.7100   39.9990 O   0  0  0  0  0  0  0  0  0  0  0  0
   35.6280   28.7620   41.0480 O   0  0  0  0  0  0  0  0  0  0  0  0
   37.2180   32.1150   38.3710 N   0  0  0  0  0  0  0  0  0  0  0  0
   37.8380   31.1610   38.0700 C   0  0  0  0  0  0  0  0  0  0  0  0
  1  2  1  0  0  0  0
  1 34  1  0  0  0  0
  2 12  1  0  0  0  0
  3  7  1  0  0  0  0
  3  2  2  0  0  0  0
  4  3  1  0  0  0  0
  5  4  2  0  0  0  0
  5  6  1  0  0  0  0
  6  1  2  0  0  0  0
  8  4  1  0  0  0  0
  9  5  1  0  0  0  0
 10 15  1  0  0  0  0
 11 10  2  0  0  0  0
 11 12  1  0  0  0  0
 12 13  2  0  0  0  0
 13 14  1  0  0  0  0
 14 18  1  0  0  0  0
 15 14  2  0  0  0  0
 16 10  1  0  0  0  0
 17 11  1  0  0  0  0
 19 16  1  0  0  0  0
 20 16  1  0  0  0  0
 21 30  1  0  0  0  0
 22  6  1  0  0  0  0
 22 21  2  0  0  0  0
 23 22  1  0  0  0  0
 24 23  1  0  0  0  0
 25 23  2  0  0  0  0
 25 27  1  0  0  0  0
 26 25  1  0  0  0  0
 27 28  2  0  0  0  0
 28 21  1  0  0  0  0
 30 29  1  0  0  0  0
 30 31  2  0  0  0  0
 30 32  2  0  0  0  0
 34 33  3  0  0  0  0
M  END
>  <minimizedAffinity>
-5.31375837

$$$$
