REMARK  Name = 
REMARK  4 active torsions:
REMARK  status: ('A' for Active; 'I' for Inactive)
REMARK    1  A    between atoms: C_2  and  N_22
REMARK    2  A    between atoms: C_5  and  C_12
REMARK    3  A    between atoms: C_20  and  C_43
REMARK    4  A    between atoms: S_39  and  C_42
REMARK                            x       y       z     vdW  Elec       q    Type
REMARK                         _______ _______ _______ _____ _____    ______ ____
ROOT
ATOM      1  C   UNL     1      45.855  33.850  45.065  0.00  0.00    +0.000 A 
ATOM      2  N   UNL     1      44.891  34.791  45.251  0.00  0.00    +0.000 NA
ATOM      3  C   UNL     1      44.627  35.792  44.418  0.00  0.00    +0.000 A 
ATOM      4  N   UNL     1      45.353  35.920  43.284  0.00  0.00    +0.000 NA
ATOM      5  C   UNL     1      46.326  35.053  42.999  0.00  0.00    +0.000 A 
ATOM      6  C   UNL     1      47.055  35.189  41.835  0.00  0.00    +0.000 A 
ATOM      7  C   UNL     1      48.057  34.293  41.529  0.00  0.00    +0.000 A 
ATOM      8  C   UNL     1      48.305  33.261  42.426  0.00  0.00    +0.000 A 
ATOM      9  C   UNL     1      47.538  33.181  43.573  0.00  0.00    +0.000 A 
ATOM     10  C   UNL     1      46.546  34.043  43.905  0.00  0.00    +0.000 A 
ATOM     11  H   UNL     1      43.848  36.483  44.651  0.00  0.00    +0.000 HD
ATOM     12  H   UNL     1      46.784  36.037  41.193  0.00  0.00    +0.000 HD
ATOM     13  H   UNL     1      48.542  34.521  40.585  0.00  0.00    +0.000 HD
ATOM     14  H   UNL     1      49.113  32.672  42.023  0.00  0.00    +0.000 HD
ENDROOT
BRANCH   1  19
ATOM     15  C   UNL     1      47.331  32.313  47.961  0.00  0.00    +0.000 A 
ATOM     16  C   UNL     1      46.847  31.011  48.018  0.00  0.00    +0.000 A 
ATOM     17  C   UNL     1      45.976  30.649  47.044  0.00  0.00    +0.000 A 
ATOM     18  N   UNL     1      45.624  31.510  46.089  0.00  0.00    +0.000 NA
ATOM     19  C   UNL     1      46.088  32.765  46.018  0.00  0.00    +0.000 A 
ATOM     20  N   UNL     1      46.945  33.127  46.987  0.00  0.00    +0.000 NA
ATOM     21  N   UNL     1      45.410  29.379  47.031  0.00  0.00    +0.000 N 
ATOM     22  C   UNL     1      44.273  28.960  46.182  0.00  0.00    +0.000 C 
ATOM     23  C   UNL     1      44.182  27.466  46.329  0.00  0.00    +0.000 C 
ATOM     24  C   UNL     1      44.763  27.222  47.694  0.00  0.00    +0.000 C 
ATOM     25  C   UNL     1      45.819  28.264  47.840  0.00  0.00    +0.000 C 
ATOM     26  H   UNL     1      48.033  32.626  48.746  0.00  0.00    +0.000 HD
ATOM     27  H   UNL     1      43.353  29.479  46.511  0.00  0.00    +0.000 HD
ATOM     28  H   UNL     1      44.522  29.160  45.120  0.00  0.00    +0.000 HD
ATOM     29  H   UNL     1      44.742  26.907  45.571  0.00  0.00    +0.000 HD
ATOM     30  H   UNL     1      43.099  27.191  46.286  0.00  0.00    +0.000 HD
ATOM     31  H   UNL     1      45.155  26.183  47.824  0.00  0.00    +0.000 HD
ATOM     32  H   UNL     1      43.914  27.298  48.403  0.00  0.00    +0.000 HD
ATOM     33  H   UNL     1      45.734  28.463  48.953  0.00  0.00    +0.000 HD
ATOM     34  H   UNL     1      46.787  27.862  47.549  0.00  0.00    +0.000 HD
BRANCH  16  35
ATOM     35  N   UNL     1      47.335  30.149  48.992  0.00  0.00    +0.000 N 
ATOM     36  H   UNL     1      48.036  29.376  48.931  0.00  0.00    +0.000 HD
ATOM     37  H   UNL     1      46.965  30.254  49.980  0.00  0.00    +0.000 HD
ENDBRANCH  16  35
ENDBRANCH   1  19
BRANCH   9  39
ATOM     38  C   UNL     1      49.436  31.852  43.994  0.00  0.00    +0.000 A 
ATOM     39  C   UNL     1      48.045  31.975  44.213  0.00  0.00    +0.000 A 
ATOM     40  C   UNL     1      47.482  30.990  45.009  0.00  0.00    +0.000 A 
ATOM     41  H   UNL     1      46.404  31.208  45.096  0.00  0.00    +0.000 HD
ATOM     42  C   UNL     1      48.170  29.946  45.573  0.00  0.00    +0.000 A 
ATOM     43  H   UNL     1      47.538  29.293  46.157  0.00  0.00    +0.000 HD
ATOM     44  C   UNL     1      49.517  29.828  45.359  0.00  0.00    +0.000 A 
ATOM     45  C   UNL     1      50.148  30.788  44.566  0.00  0.00    +0.000 A 
BRANCH  38  47
ATOM     46  H   UNL     1      51.335  32.097  42.271  0.00  0.00    +0.000 HD
ATOM     47  S   UNL     1      50.534  32.861  43.071  0.00  0.00    +0.000 S 
ATOM     48  O   UNL     1      49.800  33.911  42.332  0.00  0.00    +0.000 OA
ATOM     49  O   UNL     1      51.453  33.504  44.101  0.00  0.00    +0.000 OA
ENDBRANCH  38  47
ENDBRANCH   9  39
TORSDOF 4
