
 OpenBabel03242520343D

 31 33  0  0  1  0  0  0  0  0999 V2000
   45.8770   33.0520   43.0520 C   0  0  0  0  0  0  0  0  0  0  0  0
   47.1320   32.6400   42.4970 C   0  0  0  0  0  0  0  0  0  0  0  0
   47.9840   31.9020   43.2980 C   0  0  0  0  0  0  0  0  0  0  0  0
   47.5790   31.6140   44.5610 N   0  0  0  0  0  0  0  0  0  0  0  0
   46.3980   32.0080   45.0660 C   0  0  0  0  0  0  0  0  0  0  0  0
   45.5660   32.7240   44.2980 N   0  0  0  0  0  0  0  0  0  0  0  0
   45.2460   33.6280   42.3830 H   0  0  0  0  0  0  0  0  0  0  0  0
   48.9390   31.5710   42.9190 H   0  0  0  0  0  0  0  0  0  0  0  0
   45.4870   30.4270   46.7550 C   0  0  0  0  0  0  0  0  0  0  0  0
   46.0830   31.6310   46.4400 C   0  0  0  0  0  0  0  0  0  0  0  0
   46.3990   32.5290   47.4420 C   0  0  0  0  0  0  0  0  0  0  0  0
   46.8730   33.4940   47.2330 H   0  0  0  0  0  0  0  0  0  0  0  0
   46.1350   32.2550   48.7900 C   0  0  0  0  0  0  0  0  0  0  0  0
   46.3790   32.9510   49.5840 H   0  0  0  0  0  0  0  0  0  0  0  0
   45.5310   31.0450   49.1460 C   0  0  0  0  0  0  0  0  0  0  0  0
   45.2450   30.2010   48.0930 C   0  0  0  0  0  0  0  0  0  0  0  0
   44.7810   29.8660   44.3100 H   0  0  0  0  0  0  0  0  0  0  0  0
   45.0870   29.2980   45.5080 S   0  0  0  0  0  0  0  0  0  0  0  0
   43.8480   28.5380   45.9610 O   0  0  0  0  0  0  0  0  0  0  0  0
   46.1370   28.2410   45.2960 O   0  0  0  0  0  0  0  0  0  0  0  0
   47.5340   32.9940   41.1000 C   0  0  1  0  0  0  0  0  0  0  0  0
   46.8100   34.0200   40.3770 C   0  0  0  0  0  0  0  0  0  0  0  0
   48.1710   34.3590   40.8640 C   0  0  1  0  0  0  0  0  0  0  0  0
   48.0560   32.1460   40.6020 H   0  0  0  0  0  0  0  0  0  0  0  0
   45.9740   34.5780   40.8400 H   0  0  0  0  0  0  0  0  0  0  0  0
   46.6180   33.8210   39.2930 H   0  0  0  0  0  0  0  0  0  0  0  0
   48.9250   34.3730   40.0320 H   0  0  0  0  0  0  0  0  0  0  0  0
   48.3750   35.2980   42.0030 C   0  0  0  0  0  0  0  0  0  0  0  0
   49.1050   36.4130   41.6340 F   0  0  0  0  0  0  0  0  0  0  0  0
   49.0240   34.6700   43.0680 F   0  0  0  0  0  0  0  0  0  0  0  0
   47.1490   35.7360   42.4240 F   0  0  0  0  0  0  0  0  0  0  0  0
  1  6  1  0  0  0  0
  2  1  2  0  0  0  0
  2  3  1  0  0  0  0
  3  4  2  0  0  0  0
  4  5  1  0  0  0  0
  5 10  1  0  0  0  0
  6  5  2  0  0  0  0
  7  1  1  0  0  0  0
  8  3  1  0  0  0  0
  9 16  1  0  0  0  0
 10  9  2  0  0  0  0
 10 11  1  0  0  0  0
 11 13  2  0  0  0  0
 12 11  1  0  0  0  0
 13 15  1  0  0  0  0
 13 14  1  0  0  0  0
 16 15  2  0  0  0  0
 17 18  1  0  0  0  0
 18 19  2  0  0  0  0
 18  9  1  0  0  0  0
 20 18  2  0  0  0  0
 21 24  1  6  0  0  0
 21  2  1  0  0  0  0
 22 25  1  0  0  0  0
 22 23  1  0  0  0  0
 22 21  1  0  0  0  0
 23 27  1  6  0  0  0
 23 21  1  0  0  0  0
 23 28  1  0  0  0  0
 26 22  1  0  0  0  0
 28 31  1  0  0  0  0
 28 30  1  0  0  0  0
 29 28  1  0  0  0  0
M  END
>  <minimizedAffinity>
-5.49567509

>  <minimizedRMSD>
2.18379879

$$$$
