
 OpenBabel03252507383D

 41 45  0  0  0  0  0  0  0  0999 V2000
   45.7040   34.8210   43.5500 C   0  0  0  0  0  0  0  0  0  0  0  0
   46.4140   33.7510   44.1500 C   0  0  0  0  0  0  0  0  0  0  0  0
   46.1560   33.4860   45.4840 C   0  0  0  0  0  0  0  0  0  0  0  0
   45.2560   34.2500   46.1360 N   0  0  0  0  0  0  0  0  0  0  0  0
   44.5890   35.2680   45.5410 C   0  0  0  0  0  0  0  0  0  0  0  0
   44.8180   35.5420   44.2630 N   0  0  0  0  0  0  0  0  0  0  0  0
   47.1370   33.1370   43.6280 H   0  0  0  0  0  0  0  0  0  0  0  0
   43.8750   35.8390   46.1390 H   0  0  0  0  0  0  0  0  0  0  0  0
   47.0480   32.6490   47.5900 C   0  0  0  0  0  0  0  0  0  0  0  0
   46.8050   32.4210   46.2410 C   0  0  0  0  0  0  0  0  0  0  0  0
   47.1860   31.2140   45.7070 C   0  0  0  0  0  0  0  0  0  0  0  0
   47.7950   30.2320   46.4510 C   0  0  0  0  0  0  0  0  0  0  0  0
   48.2500   28.9970   46.1530 N   0  0  0  0  0  0  0  0  0  0  0  0
   48.7760   28.4630   47.3210 C   0  0  0  0  0  0  0  0  0  0  0  0
   48.6330   29.3680   48.2930 N   0  0  0  0  0  0  0  0  0  0  0  0
   48.0350   30.4580   47.7850 C   0  0  0  0  0  0  0  0  0  0  0  0
   47.6640   31.6600   48.3510 C   0  0  0  0  0  0  0  0  0  0  0  0
   46.7750   33.5780   48.0820 H   0  0  0  0  0  0  0  0  0  0  0  0
   46.9820   31.0630   44.6430 H   0  0  0  0  0  0  0  0  0  0  0  0
   48.2150   28.5270   45.2170 H   0  0  0  0  0  0  0  0  0  0  0  0
   49.2230   27.4780   47.4200 H   0  0  0  0  0  0  0  0  0  0  0  0
   47.8390   31.8740   49.4020 H   0  0  0  0  0  0  0  0  0  0  0  0
   45.9660   35.0860   42.2010 O   0  0  0  0  0  0  0  0  0  0  0  0
   45.0730   34.6390   41.2280 C   0  0  0  0  0  0  0  0  0  0  0  0
   45.8660   33.7790   40.5620 C   0  0  0  0  0  0  0  0  0  0  0  0
   44.6730   33.1410   39.2220 S   0  0  0  0  0  0  0  0  0  0  0  0
   43.3220   34.2420   39.9110 C   0  0  0  0  0  0  0  0  0  0  0  0
   43.8590   34.7130   40.7360 N   0  0  0  0  0  0  0  0  0  0  0  0
   46.8580   33.1140   40.2300 H   0  0  0  0  0  0  0  0  0  0  0  0
   40.8900   33.6460   39.9010 C   0  0  0  0  0  0  0  0  0  0  0  0
   41.9160   34.3370   39.3560 C   0  0  0  0  0  0  0  0  0  0  0  0
   41.8100   35.1640   38.2920 C   0  0  0  0  0  0  0  0  0  0  0  0
   42.6720   35.7110   37.8760 H   0  0  0  0  0  0  0  0  0  0  0  0
   40.5720   35.3080   37.7300 C   0  0  0  0  0  0  0  0  0  0  0  0
   40.4860   35.9730   36.8740 H   0  0  0  0  0  0  0  0  0  0  0  0
   39.4440   34.6680   38.1790 C   0  0  0  0  0  3  0  0  0  0  0  0
   39.6550   33.8480   39.2670 C   0  0  0  0  0  3  0  0  0  0  0  0
   42.1930   32.7560   41.9720 H   0  0  0  0  0  0  0  0  0  0  0  0
   41.0510   32.5830   41.2750 S   0  0  0  0  0  0  0  0  0  0  0  0
   41.0950   31.1760   40.7140 O   0  0  0  0  0  0  0  0  0  0  0  0
   39.8020   32.6280   42.1190 O   0  0  0  0  0  0  0  0  0  0  0  0
  1  2  2  0  0  0  0
  1  6  1  0  0  0  0
  2  3  1  0  0  0  0
  3  4  2  0  0  0  0
  3 10  1  0  0  0  0
  5  4  1  0  0  0  0
  5  8  1  0  0  0  0
  6  5  2  0  0  0  0
  7  2  1  0  0  0  0
  9 18  1  0  0  0  0
  9 17  1  0  0  0  0
 10  9  2  0  0  0  0
 11 10  1  0  0  0  0
 11 12  2  0  0  0  0
 12 16  1  0  0  0  0
 13 12  1  0  0  0  0
 13 14  1  0  0  0  0
 14 21  1  0  0  0  0
 14 15  2  0  0  0  0
 16 15  1  0  0  0  0
 16 17  2  0  0  0  0
 17 22  1  0  0  0  0
 19 11  1  0  0  0  0
 20 13  1  0  0  0  0
 23  1  1  0  0  0  0
 24 23  1  0  0  0  0
 25 24  2  0  0  0  0
 26 27  1  0  0  0  0
 26 25  1  0  0  0  0
 27 28  2  0  0  0  0
 28 24  1  0  0  0  0
 29 25  1  0  0  0  0
 30 39  1  0  0  0  0
 31 30  1  0  0  0  0
 31 27  1  0  0  0  0
 32 31  2  0  0  0  0
 33 32  1  0  0  0  0
 34 36  2  0  0  0  0
 34 32  1  0  0  0  0
 35 34  1  0  0  0  0
 36 37  1  0  0  0  0
 37 30  2  0  0  0  0
 39 38  1  0  0  0  0
 39 41  2  0  0  0  0
 40 39  2  0  0  0  0
M  END
>  <minimizedAffinity>
-7.14637423

>  <minimizedRMSD>
1.89194775

$$$$
