
 OpenBabel03252508103D

 47 50  0  0  0  0  0  0  0  0999 V2000
   42.4310   29.1480   40.9780 C   0  0  0  0  0  0  0  0  0  0  0  0
   41.0770   28.9970   41.2290 C   0  0  0  0  0  0  0  0  0  0  0  0
   40.6460   28.0900   42.1660 C   0  0  0  0  0  0  0  0  0  0  0  0
   41.6200   27.3650   42.8230 N   0  0  0  0  0  0  0  0  0  0  0  0
   42.9200   27.5120   42.5800 C   0  0  0  0  0  0  0  0  0  0  0  0
   43.3110   28.4110   41.6520 N   0  0  0  0  0  0  0  0  0  0  0  0
   42.8100   29.8520   40.2460 H   0  0  0  0  0  0  0  0  0  0  0  0
   43.6600   26.9260   43.1150 H   0  0  0  0  0  0  0  0  0  0  0  0
   39.3080   27.8200   42.5350 C   0  0  0  0  0  0  0  0  0  0  0  0
   38.5340   28.6610   43.3400 C   0  0  0  0  0  0  0  0  0  0  0  0
   37.2600   28.3700   43.7550 C   0  0  0  0  0  0  0  0  0  0  0  0
   36.6730   27.1840   43.3760 C   0  0  0  0  0  0  0  0  0  0  0  0
   37.4420   26.3220   42.5610 C   0  0  0  0  0  0  0  0  0  0  0  0
   36.8730   25.1310   42.1770 C   0  0  0  0  0  0  0  0  0  0  0  0
   37.5640   24.2390   41.3830 C   0  0  0  0  0  0  0  0  0  0  0  0
   38.8660   24.5580   40.9620 C   0  0  0  0  0  0  0  0  0  0  0  0
   39.4110   25.7860   41.3780 C   0  0  0  0  0  0  0  0  0  0  0  0
   38.7010   26.6470   42.1690 C   0  0  0  0  0  0  0  0  0  0  0  0
   38.9970   29.5970   43.6390 H   0  0  0  0  0  0  0  0  0  0  0  0
   36.7090   29.0680   44.3810 H   0  0  0  0  0  0  0  0  0  0  0  0
   35.6730   26.8910   43.6690 H   0  0  0  0  0  0  0  0  0  0  0  0
   35.8680   24.9030   42.5110 H   0  0  0  0  0  0  0  0  0  0  0  0
   37.0550   23.3180   41.1210 H   0  0  0  0  0  0  0  0  0  0  0  0
   39.3280   23.8060   40.3450 H   0  0  0  0  0  0  0  0  0  0  0  0
   40.3850   25.8550   40.9430 H   0  0  0  0  0  0  0  0  0  0  0  0
   40.2170   29.7830   40.5100 O   0  0  0  0  0  0  0  0  0  0  0  0
   40.5900   28.5530   38.2300 O   0  0  0  0  0  0  0  0  0  0  0  0
   40.1660   29.8520   38.8190 P   0  0  1  0  0  0  0  0  0  0  0  0
   38.5870   30.1460   38.2750 O   0  0  0  0  0  0  0  0  0  0  0  0
   36.7930   30.5520   39.7500 C   0  0  0  0  0  0  0  0  0  0  0  0
   37.5170   29.6400   39.0020 C   0  0  0  0  0  0  0  0  0  0  0  0
   37.1500   28.3140   39.0150 C   0  0  0  0  0  0  0  0  0  0  0  0
   37.7070   27.6110   38.4390 H   0  0  0  0  0  0  0  0  0  0  0  0
   36.0690   27.8980   39.7690 C   0  0  0  0  0  0  0  0  0  0  0  0
   35.7970   26.8440   39.7650 H   0  0  0  0  0  0  0  0  0  0  0  0
   35.3320   28.7930   40.5240 C   0  0  0  0  0  3  0  0  0  0  0  0
   35.7060   30.1220   40.5050 C   0  0  0  0  0  3  0  0  0  0  0  0
   36.1410   32.9430   40.4970 H   0  0  0  0  0  0  0  0  0  0  0  0
   37.1320   32.2650   39.8380 S   0  0  0  0  0  0  0  0  0  0  0  0
   37.2910   32.8070   38.4310 O   0  0  0  0  0  0  0  0  0  0  0  0
   38.4180   32.5170   40.5720 O   0  0  0  0  0  0  0  0  0  0  0  0
   41.1560   31.1060   38.3100 O   0  0  0  0  0  0  0  0  0  0  0  0
   40.7550   32.3780   37.9330 C   0  0  0  0  0  0  0  0  0  0  0  0
   41.3160   33.1390   38.7450 O   0  0  0  0  0  0  0  0  0  0  0  0
   39.8790   32.3220   36.7900 N   0  0  0  0  0  0  0  0  0  0  0  0
   40.3400   32.0380   35.8750 H   0  0  0  0  0  0  0  0  0  0  0  0
   38.8500   32.5210   36.7330 H   0  0  0  0  0  0  0  0  0  0  0  0
  1  2  2  0  0  0  0
  1  6  1  0  0  0  0
  2  3  1  0  0  0  0
  3  9  1  0  0  0  0
  3  4  2  0  0  0  0
  5  4  1  0  0  0  0
  5  8  1  0  0  0  0
  6  5  2  0  0  0  0
  7  1  1  0  0  0  0
  9 10  1  0  0  0  0
 10 19  1  0  0  0  0
 10 11  2  0  0  0  0
 11 20  1  0  0  0  0
 12 21  1  0  0  0  0
 12 11  1  0  0  0  0
 13 12  2  0  0  0  0
 14 22  1  0  0  0  0
 14 13  1  0  0  0  0
 15 14  2  0  0  0  0
 16 17  2  0  0  0  0
 16 15  1  0  0  0  0
 17 18  1  0  0  0  0
 18  9  2  0  0  0  0
 18 13  1  0  0  0  0
 23 15  1  0  0  0  0
 24 16  1  0  0  0  0
 25 17  1  0  0  0  0
 26  2  1  0  0  0  0
 28 27  2  6  0  0  0
 28 26  1  0  0  0  0
 29 28  1  0  0  0  0
 29 31  1  0  0  0  0
 30 39  1  0  0  0  0
 30 37  1  0  0  0  0
 31 32  1  0  0  0  0
 31 30  2  0  0  0  0
 32 34  2  0  0  0  0
 33 32  1  0  0  0  0
 34 36  1  0  0  0  0
 35 34  1  0  0  0  0
 37 36  2  0  0  0  0
 39 38  1  0  0  0  0
 39 41  2  0  0  0  0
 40 39  2  0  0  0  0
 42 28  1  0  0  0  0
 43 42  1  0  0  0  0
 43 44  2  0  0  0  0
 45 43  1  0  0  0  0
 46 45  1  0  0  0  0
 47 45  1  0  0  0  0
M  END
>  <minimizedAffinity>
-6.49038887

$$$$

 OpenBabel03252508103D

 47 50  0  0  0  0  0  0  0  0999 V2000
   37.1670   29.5390   37.0480 C   0  0  0  0  0  0  0  0  0  0  0  0
   37.5090   29.1210   38.3240 C   0  0  0  0  0  0  0  0  0  0  0  0
   36.5430   28.6430   39.1750 C   0  0  0  0  0  0  0  0  0  0  0  0
   35.2500   28.6050   38.6890 N   0  0  0  0  0  0  0  0  0  0  0  0
   34.9260   29.0060   37.4630 C   0  0  0  0  0  0  0  0  0  0  0  0
   35.8980   29.4720   36.6520 N   0  0  0  0  0  0  0  0  0  0  0  0
   37.9010   29.9220   36.3480 H   0  0  0  0  0  0  0  0  0  0  0  0
   33.9000   28.9630   37.1120 H   0  0  0  0  0  0  0  0  0  0  0  0
   36.7280   28.1820   40.4980 C   0  0  0  0  0  0  0  0  0  0  0  0
   36.9150   29.0220   41.6010 C   0  0  0  0  0  0  0  0  0  0  0  0
   37.1620   28.5770   42.8740 C   0  0  0  0  0  0  0  0  0  0  0  0
   37.2370   27.2250   43.1220 C   0  0  0  0  0  0  0  0  0  0  0  0
   37.0490   26.3610   42.0190 C   0  0  0  0  0  0  0  0  0  0  0  0
   37.1250   25.0080   42.2470 C   0  0  0  0  0  0  0  0  0  0  0  0
   36.9530   24.1040   41.2190 C   0  0  0  0  0  0  0  0  0  0  0  0
   36.6940   24.5790   39.9220 C   0  0  0  0  0  0  0  0  0  0  0  0
   36.6250   25.9710   39.7310 C   0  0  0  0  0  0  0  0  0  0  0  0
   36.8040   26.8410   40.7720 C   0  0  0  0  0  0  0  0  0  0  0  0
   36.8560   30.0890   41.4050 H   0  0  0  0  0  0  0  0  0  0  0  0
   37.2990   29.2820   43.6900 H   0  0  0  0  0  0  0  0  0  0  0  0
   37.4300   26.8060   44.1010 H   0  0  0  0  0  0  0  0  0  0  0  0
   37.3240   24.6600   43.2540 H   0  0  0  0  0  0  0  0  0  0  0  0
   37.0290   23.0530   41.4710 H   0  0  0  0  0  0  0  0  0  0  0  0
   36.5720   23.8050   39.1830 H   0  0  0  0  0  0  0  0  0  0  0  0
   36.4010   26.1310   38.6980 H   0  0  0  0  0  0  0  0  0  0  0  0
   38.8290   29.2080   38.6780 O   0  0  0  0  0  0  0  0  0  0  0  0
   40.8590   30.3670   39.8530 O   0  0  0  0  0  0  0  0  0  0  0  0
   39.6240   30.6500   39.0720 P   0  0  1  0  0  0  0  0  0  0  0  0
   40.1060   31.4750   37.6720 O   0  0  0  0  0  0  0  0  0  0  0  0
   42.4030   31.6420   37.1650 C   0  0  0  0  0  0  0  0  0  0  0  0
   41.2710   32.2310   37.7010 C   0  0  0  0  0  0  0  0  0  0  0  0
   41.3550   33.5020   38.2210 C   0  0  0  0  0  0  0  0  0  0  0  0
   40.4840   33.9570   38.6340 H   0  0  0  0  0  0  0  0  0  0  0  0
   42.5570   34.1830   38.2080 C   0  0  0  0  0  0  0  0  0  0  0  0
   42.6000   35.1870   38.6260 H   0  0  0  0  0  0  0  0  0  0  0  0
   43.7010   33.6120   37.6770 C   0  0  0  0  0  3  0  0  0  0  0  0
   43.6090   32.3370   37.1570 C   0  0  0  0  0  3  0  0  0  0  0  0
   41.2130   29.5960   36.1180 H   0  0  0  0  0  0  0  0  0  0  0  0
   42.4600   30.0390   36.4690 S   0  0  0  0  0  0  0  0  0  0  0  0
   43.0900   29.0900   37.4700 O   0  0  0  0  0  0  0  0  0  0  0  0
   43.3100   30.0250   35.2300 O   0  0  0  0  0  0  0  0  0  0  0  0
   38.5640   31.6200   39.9350 O   0  0  0  0  0  0  0  0  0  0  0  0
   38.0990   32.8720   39.5660 C   0  0  0  0  0  0  0  0  0  0  0  0
   38.4180   33.6180   40.5120 O   0  0  0  0  0  0  0  0  0  0  0  0
   37.4520   32.8210   38.2790 N   0  0  0  0  0  0  0  0  0  0  0  0
   38.0980   32.6560   37.4500 H   0  0  0  0  0  0  0  0  0  0  0  0
   36.4340   32.9230   38.0450 H   0  0  0  0  0  0  0  0  0  0  0  0
  1  2  1  0  0  0  0
  2 26  1  0  0  0  0
  2  3  2  0  0  0  0
  3  9  1  0  0  0  0
  4  3  1  0  0  0  0
  5  4  2  0  0  0  0
  6  1  2  0  0  0  0
  6  5  1  0  0  0  0
  7  1  1  0  0  0  0
  8  5  1  0  0  0  0
  9 18  2  0  0  0  0
  9 10  1  0  0  0  0
 10 11  2  0  0  0  0
 11 12  1  0  0  0  0
 11 20  1  0  0  0  0
 12 21  1  0  0  0  0
 13 14  1  0  0  0  0
 13 12  2  0  0  0  0
 14 22  1  0  0  0  0
 15 23  1  0  0  0  0
 15 14  2  0  0  0  0
 16 15  1  0  0  0  0
 17 16  2  0  0  0  0
 17 18  1  0  0  0  0
 18 13  1  0  0  0  0
 19 10  1  0  0  0  0
 24 16  1  0  0  0  0
 25 17  1  0  0  0  0
 26 28  1  0  0  0  0
 28 27  2  1  0  0  0
 28 42  1  0  0  0  0
 29 31  1  0  0  0  0
 29 28  1  0  0  0  0
 30 31  1  0  0  0  0
 31 32  2  0  0  0  0
 32 33  1  0  0  0  0
 34 32  1  0  0  0  0
 34 35  1  0  0  0  0
 36 34  2  0  0  0  0
 37 30  2  0  0  0  0
 37 36  1  0  0  0  0
 38 39  1  0  0  0  0
 39 30  1  0  0  0  0
 39 40  2  0  0  0  0
 41 39  2  0  0  0  0
 43 42  1  0  0  0  0
 43 44  2  0  0  0  0
 45 43  1  0  0  0  0
 46 45  1  0  0  0  0
 47 45  1  0  0  0  0
M  END
>  <minimizedAffinity>
-6.37936115

$$$$

 OpenBabel03252508103D

 47 50  0  0  0  0  0  0  0  0999 V2000
   37.7090   29.9050   37.2330 C   0  0  0  0  0  0  0  0  0  0  0  0
   37.9680   29.4480   38.5140 C   0  0  0  0  0  0  0  0  0  0  0  0
   36.9450   28.9710   39.2950 C   0  0  0  0  0  0  0  0  0  0  0  0
   35.6820   28.9750   38.7370 N   0  0  0  0  0  0  0  0  0  0  0  0
   35.4370   29.4150   37.5050 C   0  0  0  0  0  0  0  0  0  0  0  0
   36.4640   29.8790   36.7630 N   0  0  0  0  0  0  0  0  0  0  0  0
   38.4910   30.2890   36.5860 H   0  0  0  0  0  0  0  0  0  0  0  0
   34.4320   29.4050   37.0960 H   0  0  0  0  0  0  0  0  0  0  0  0
   37.0430   28.4720   40.6140 C   0  0  0  0  0  0  0  0  0  0  0  0
   37.2910   29.2690   41.7360 C   0  0  0  0  0  0  0  0  0  0  0  0
   37.4540   28.7810   43.0070 C   0  0  0  0  0  0  0  0  0  0  0  0
   37.3770   27.4250   43.2320 C   0  0  0  0  0  0  0  0  0  0  0  0
   37.1260   26.6040   42.1090 C   0  0  0  0  0  0  0  0  0  0  0  0
   37.0500   25.2470   42.3140 C   0  0  0  0  0  0  0  0  0  0  0  0
   36.8100   24.3830   41.2650 C   0  0  0  0  0  0  0  0  0  0  0  0
   36.6380   24.9040   39.9720 C   0  0  0  0  0  0  0  0  0  0  0  0
   36.7240   26.2980   39.8050 C   0  0  0  0  0  0  0  0  0  0  0  0
   36.9680   27.1260   40.8650 C   0  0  0  0  0  0  0  0  0  0  0  0
   37.3520   30.3390   41.5590 H   0  0  0  0  0  0  0  0  0  0  0  0
   37.6440   29.4540   43.8390 H   0  0  0  0  0  0  0  0  0  0  0  0
   37.4970   26.9720   44.2070 H   0  0  0  0  0  0  0  0  0  0  0  0
   37.1840   24.8640   43.3190 H   0  0  0  0  0  0  0  0  0  0  0  0
   36.7650   23.3260   41.5000 H   0  0  0  0  0  0  0  0  0  0  0  0
   36.4530   24.1580   39.2160 H   0  0  0  0  0  0  0  0  0  0  0  0
   36.5460   26.4970   38.7690 H   0  0  0  0  0  0  0  0  0  0  0  0
   39.2670   29.4950   38.9440 O   0  0  0  0  0  0  0  0  0  0  0  0
   41.2610   30.6760   40.1600 O   0  0  0  0  0  0  0  0  0  0  0  0
   40.1390   30.9210   39.2130 P   0  0  1  0  0  0  0  0  0  0  0  0
   40.8280   31.4880   37.7720 O   0  0  0  0  0  0  0  0  0  0  0  0
   43.0840   31.4110   37.0900 C   0  0  0  0  0  0  0  0  0  0  0  0
   41.8620   30.7680   37.1880 C   0  0  0  0  0  0  0  0  0  0  0  0
   41.7370   29.4820   36.7150 C   0  0  0  0  0  0  0  0  0  0  0  0
   40.7970   28.9860   36.7900 H   0  0  0  0  0  0  0  0  0  0  0  0
   42.8220   28.8400   36.1480 C   0  0  0  0  0  0  0  0  0  0  0  0
   42.7000   27.8220   35.7810 H   0  0  0  0  0  0  0  0  0  0  0  0
   44.0520   29.4640   36.0410 C   0  0  0  0  0  3  0  0  0  0  0  0
   44.1690   30.7550   36.5180 C   0  0  0  0  0  3  0  0  0  0  0  0
   44.6490   33.4640   37.2700 H   0  0  0  0  0  0  0  0  0  0  0  0
   43.4020   33.0390   37.6430 S   0  0  0  0  0  0  0  0  0  0  0  0
   43.2640   33.0820   39.1520 O   0  0  0  0  0  0  0  0  0  0  0  0
   42.4050   34.0030   37.0660 O   0  0  0  0  0  0  0  0  0  0  0  0
   39.0830   32.0830   39.8030 O   0  0  0  0  0  0  0  0  0  0  0  0
   39.3930   33.3920   40.1330 C   0  0  0  0  0  0  0  0  0  0  0  0
   38.8020   33.5930   41.2120 O   0  0  0  0  0  0  0  0  0  0  0  0
   40.2470   33.9860   39.1350 N   0  0  0  0  0  0  0  0  0  0  0  0
   41.2400   33.6070   39.1010 H   0  0  0  0  0  0  0  0  0  0  0  0
   40.0270   34.7380   38.4380 H   0  0  0  0  0  0  0  0  0  0  0  0
  1  2  1  0  0  0  0
  2 26  1  0  0  0  0
  2  3  2  0  0  0  0
  3  9  1  0  0  0  0
  4  3  1  0  0  0  0
  5  4  2  0  0  0  0
  6  1  2  0  0  0  0
  6  5  1  0  0  0  0
  7  1  1  0  0  0  0
  8  5  1  0  0  0  0
  9 18  2  0  0  0  0
  9 10  1  0  0  0  0
 10 11  2  0  0  0  0
 11 12  1  0  0  0  0
 11 20  1  0  0  0  0
 12 21  1  0  0  0  0
 13 14  1  0  0  0  0
 13 12  2  0  0  0  0
 14 22  1  0  0  0  0
 15 23  1  0  0  0  0
 15 14  2  0  0  0  0
 16 15  1  0  0  0  0
 17 16  2  0  0  0  0
 17 18  1  0  0  0  0
 18 13  1  0  0  0  0
 19 10  1  0  0  0  0
 24 16  1  0  0  0  0
 25 17  1  0  0  0  0
 26 28  1  0  0  0  0
 28 42  1  0  0  0  0
 28 27  2  1  0  0  0
 29 28  1  0  0  0  0
 30 31  1  0  0  0  0
 30 39  1  0  0  0  0
 31 29  1  0  0  0  0
 32 33  1  0  0  0  0
 32 31  2  0  0  0  0
 34 32  1  0  0  0  0
 35 34  1  0  0  0  0
 36 34  2  0  0  0  0
 36 37  1  0  0  0  0
 37 30  2  0  0  0  0
 38 39  1  0  0  0  0
 39 40  2  0  0  0  0
 41 39  2  0  0  0  0
 42 43  1  0  0  0  0
 43 44  2  0  0  0  0
 45 43  1  0  0  0  0
 46 45  1  0  0  0  0
 47 45  1  0  0  0  0
M  END
>  <minimizedAffinity>
-6.22089386

$$$$

 OpenBabel03252508103D

 47 50  0  0  0  0  0  0  0  0999 V2000
   39.9470   33.3090   40.7460 C   0  0  0  0  0  0  0  0  0  0  0  0
   39.1440   32.1880   40.6180 C   0  0  0  0  0  0  0  0  0  0  0  0
   37.8690   32.3070   40.1230 C   0  0  0  0  0  0  0  0  0  0  0  0
   37.4550   33.5760   39.7690 N   0  0  0  0  0  0  0  0  0  0  0  0
   38.2290   34.6500   39.8930 C   0  0  0  0  0  0  0  0  0  0  0  0
   39.4770   34.5010   40.3850 N   0  0  0  0  0  0  0  0  0  0  0  0
   40.9590   33.2560   41.1340 H   0  0  0  0  0  0  0  0  0  0  0  0
   37.8720   35.6340   39.6050 H   0  0  0  0  0  0  0  0  0  0  0  0
   36.9310   31.2660   39.9320 C   0  0  0  0  0  0  0  0  0  0  0  0
   36.1970   30.6750   40.9660 C   0  0  0  0  0  0  0  0  0  0  0  0
   35.3370   29.6220   40.7940 C   0  0  0  0  0  0  0  0  0  0  0  0
   35.1580   29.0840   39.5390 C   0  0  0  0  0  0  0  0  0  0  0  0
   35.8910   29.6710   38.4820 C   0  0  0  0  0  0  0  0  0  0  0  0
   35.7290   29.1440   37.2230 C   0  0  0  0  0  0  0  0  0  0  0  0
   36.4130   29.6630   36.1430 C   0  0  0  0  0  0  0  0  0  0  0  0
   37.2840   30.7470   36.3380 C   0  0  0  0  0  0  0  0  0  0  0  0
   37.4230   31.2560   37.6420 C   0  0  0  0  0  0  0  0  0  0  0  0
   36.7330   30.7150   38.6930 C   0  0  0  0  0  0  0  0  0  0  0  0
   36.3380   31.0990   41.9560 H   0  0  0  0  0  0  0  0  0  0  0  0
   34.7940   29.2060   41.6390 H   0  0  0  0  0  0  0  0  0  0  0  0
   34.4970   28.2530   39.3330 H   0  0  0  0  0  0  0  0  0  0  0  0
   35.0510   28.3080   37.0920 H   0  0  0  0  0  0  0  0  0  0  0  0
   36.2370   29.1970   35.1800 H   0  0  0  0  0  0  0  0  0  0  0  0
   37.7740   31.0890   35.4410 H   0  0  0  0  0  0  0  0  0  0  0  0
   38.1020   32.0800   37.5830 H   0  0  0  0  0  0  0  0  0  0  0  0
   39.6800   30.9880   41.0020 O   0  0  0  0  0  0  0  0  0  0  0  0
   42.0730   30.0810   40.4560 O   0  0  0  0  0  0  0  0  0  0  0  0
   40.6530   30.0120   40.0180 P   0  0  1  0  0  0  0  0  0  0  0  0
   40.1830   28.3870   40.1270 O   0  0  0  0  0  0  0  0  0  0  0  0
   38.2300   27.1680   40.6370 C   0  0  0  0  0  0  0  0  0  0  0  0
   39.2310   28.0210   41.0700 C   0  0  0  0  0  0  0  0  0  0  0  0
   39.2320   28.4510   42.3770 C   0  0  0  0  0  0  0  0  0  0  0  0
   40.0020   29.1080   42.7100 H   0  0  0  0  0  0  0  0  0  0  0  0
   38.2430   28.0360   43.2480 C   0  0  0  0  0  0  0  0  0  0  0  0
   38.2650   28.3890   44.2770 H   0  0  0  0  0  0  0  0  0  0  0  0
   37.2340   27.1830   42.8370 C   0  0  0  0  0  3  0  0  0  0  0  0
   37.2390   26.7560   41.5240 C   0  0  0  0  0  3  0  0  0  0  0  0
   38.3630   27.4920   38.0730 H   0  0  0  0  0  0  0  0  0  0  0  0
   38.0890   26.5350   39.0130 S   0  0  0  0  0  0  0  0  0  0  0  0
   36.6870   25.9930   38.8170 O   0  0  0  0  0  0  0  0  0  0  0  0
   39.0510   25.4020   38.7980 O   0  0  0  0  0  0  0  0  0  0  0  0
   40.4780   30.5210   38.4300 O   0  0  0  0  0  0  0  0  0  0  0  0
   41.3760   31.2840   37.7010 C   0  0  0  0  0  0  0  0  0  0  0  0
   40.7560   32.3300   37.4320 O   0  0  0  0  0  0  0  0  0  0  0  0
   42.6300   30.5900   37.5450 N   0  0  0  0  0  0  0  0  0  0  0  0
   43.2100   30.4920   38.4320 H   0  0  0  0  0  0  0  0  0  0  0  0
   43.0520   30.1690   36.6820 H   0  0  0  0  0  0  0  0  0  0  0  0
  1  7  1  0  0  0  0
  2  1  1  0  0  0  0
  2 26  1  0  0  0  0
  3  2  2  0  0  0  0
  4  5  2  0  0  0  0
  4  3  1  0  0  0  0
  5  6  1  0  0  0  0
  6  1  2  0  0  0  0
  8  5  1  0  0  0  0
  9  3  1  0  0  0  0
  9 10  1  0  0  0  0
 10 19  1  0  0  0  0
 11 10  2  0  0  0  0
 11 20  1  0  0  0  0
 12 11  1  0  0  0  0
 13 18  1  0  0  0  0
 13 12  2  0  0  0  0
 14 13  1  0  0  0  0
 15 16  1  0  0  0  0
 15 14  2  0  0  0  0
 16 17  2  0  0  0  0
 17 18  1  0  0  0  0
 18  9  2  0  0  0  0
 21 12  1  0  0  0  0
 22 14  1  0  0  0  0
 23 15  1  0  0  0  0
 24 16  1  0  0  0  0
 25 17  1  0  0  0  0
 28 29  1  0  0  0  0
 28 27  2  1  0  0  0
 28 26  1  0  0  0  0
 29 31  1  0  0  0  0
 30 31  2  0  0  0  0
 30 37  1  0  0  0  0
 31 32  1  0  0  0  0
 32 33  1  0  0  0  0
 32 34  2  0  0  0  0
 34 35  1  0  0  0  0
 36 34  1  0  0  0  0
 37 36  2  0  0  0  0
 38 39  1  0  0  0  0
 39 30  1  0  0  0  0
 40 39  2  0  0  0  0
 41 39  2  0  0  0  0
 42 28  1  0  0  0  0
 43 42  1  0  0  0  0
 44 43  2  0  0  0  0
 45 43  1  0  0  0  0
 45 46  1  0  0  0  0
 47 45  1  0  0  0  0
M  END
>  <minimizedAffinity>
-6.07955647

$$$$

 OpenBabel03252508103D

 47 50  0  0  0  0  0  0  0  0999 V2000
   37.7340   30.2490   37.5740 C   0  0  0  0  0  0  0  0  0  0  0  0
   37.8330   29.6650   38.8270 C   0  0  0  0  0  0  0  0  0  0  0  0
   37.0270   28.6040   39.1580 C   0  0  0  0  0  0  0  0  0  0  0  0
   36.1420   28.1690   38.1910 N   0  0  0  0  0  0  0  0  0  0  0  0
   36.0500   28.7320   36.9890 C   0  0  0  0  0  0  0  0  0  0  0  0
   36.8560   29.7740   36.6940 N   0  0  0  0  0  0  0  0  0  0  0  0
   38.3530   31.0880   37.2760 H   0  0  0  0  0  0  0  0  0  0  0  0
   35.3440   28.3660   36.2510 H   0  0  0  0  0  0  0  0  0  0  0  0
   37.0060   27.9030   40.3860 C   0  0  0  0  0  0  0  0  0  0  0  0
   36.2700   28.3060   41.5040 C   0  0  0  0  0  0  0  0  0  0  0  0
   36.3000   27.6670   42.7160 C   0  0  0  0  0  0  0  0  0  0  0  0
   37.0930   26.5540   42.8820 C   0  0  0  0  0  0  0  0  0  0  0  0
   37.8430   26.1310   41.7600 C   0  0  0  0  0  0  0  0  0  0  0  0
   38.6430   25.0240   41.9080 C   0  0  0  0  0  0  0  0  0  0  0  0
   39.4050   24.5540   40.8580 C   0  0  0  0  0  0  0  0  0  0  0  0
   39.3560   25.2190   39.6220 C   0  0  0  0  0  0  0  0  0  0  0  0
   38.5240   26.3480   39.5120 C   0  0  0  0  0  0  0  0  0  0  0  0
   37.7850   26.7910   40.5750 C   0  0  0  0  0  0  0  0  0  0  0  0
   35.6440   29.1850   41.3740 H   0  0  0  0  0  0  0  0  0  0  0  0
   35.7030   28.0310   43.5490 H   0  0  0  0  0  0  0  0  0  0  0  0
   37.1650   26.0030   43.8100 H   0  0  0  0  0  0  0  0  0  0  0  0
   38.6680   24.5240   42.8690 H   0  0  0  0  0  0  0  0  0  0  0  0
   40.0150   23.6780   41.0470 H   0  0  0  0  0  0  0  0  0  0  0  0
   39.9800   24.7830   38.8600 H   0  0  0  0  0  0  0  0  0  0  0  0
   38.6050   26.6950   38.5050 H   0  0  0  0  0  0  0  0  0  0  0  0
   38.7560   30.1910   39.6900 O   0  0  0  0  0  0  0  0  0  0  0  0
   37.1010   31.8540   40.8490 O   0  0  0  0  0  0  0  0  0  0  0  0
   38.5440   31.6240   40.5670 P   0  0  1  0  0  0  0  0  0  0  0  0
   39.3290   31.5350   42.0670 O   0  0  0  0  0  0  0  0  0  0  0  0
   41.5050   30.6430   42.2380 C   0  0  0  0  0  0  0  0  0  0  0  0
   40.1390   30.4410   42.3420 C   0  0  0  0  0  0  0  0  0  0  0  0
   39.6670   29.2000   42.7030 C   0  0  0  0  0  0  0  0  0  0  0  0
   38.6160   29.0440   42.7830 H   0  0  0  0  0  0  0  0  0  0  0  0
   40.5470   28.1660   42.9580 C   0  0  0  0  0  0  0  0  0  0  0  0
   40.1510   27.1930   43.2420 H   0  0  0  0  0  0  0  0  0  0  0  0
   41.9160   28.3460   42.8610 C   0  0  0  0  0  3  0  0  0  0  0  0
   42.3830   29.5940   42.4980 C   0  0  0  0  0  3  0  0  0  0  0  0
   41.4110   33.2150   41.9700 H   0  0  0  0  0  0  0  0  0  0  0  0
   42.2600   32.1550   41.7910 S   0  0  0  0  0  0  0  0  0  0  0  0
   42.7010   32.0760   40.3430 O   0  0  0  0  0  0  0  0  0  0  0  0
   43.4820   32.4090   42.6270 O   0  0  0  0  0  0  0  0  0  0  0  0
   39.2040   32.8870   39.6840 O   0  0  0  0  0  0  0  0  0  0  0  0
   39.5520   34.1390   40.1630 C   0  0  0  0  0  0  0  0  0  0  0  0
   40.4540   34.5300   39.3970 O   0  0  0  0  0  0  0  0  0  0  0  0
   38.7620   34.4860   41.3170 N   0  0  0  0  0  0  0  0  0  0  0  0
   37.7350   34.6860   41.1240 H   0  0  0  0  0  0  0  0  0  0  0  0
   39.0560   34.5690   42.3210 H   0  0  0  0  0  0  0  0  0  0  0  0
  1  2  1  0  0  0  0
  2  3  2  0  0  0  0
  2 26  1  0  0  0  0
  3  9  1  0  0  0  0
  4  3  1  0  0  0  0
  5  4  2  0  0  0  0
  6  5  1  0  0  0  0
  6  1  2  0  0  0  0
  7  1  1  0  0  0  0
  8  5  1  0  0  0  0
  9 18  2  0  0  0  0
  9 10  1  0  0  0  0
 10 11  2  0  0  0  0
 11 12  1  0  0  0  0
 11 20  1  0  0  0  0
 12 21  1  0  0  0  0
 13 14  1  0  0  0  0
 13 12  2  0  0  0  0
 14 22  1  0  0  0  0
 15 23  1  0  0  0  0
 15 14  2  0  0  0  0
 16 15  1  0  0  0  0
 17 16  2  0  0  0  0
 17 18  1  0  0  0  0
 18 13  1  0  0  0  0
 19 10  1  0  0  0  0
 24 16  1  0  0  0  0
 25 17  1  0  0  0  0
 26 28  1  0  0  0  0
 28 27  2  1  0  0  0
 28 29  1  0  0  0  0
 29 31  1  0  0  0  0
 30 31  2  0  0  0  0
 30 37  1  0  0  0  0
 31 32  1  0  0  0  0
 32 33  1  0  0  0  0
 32 34  2  0  0  0  0
 34 35  1  0  0  0  0
 36 34  1  0  0  0  0
 37 36  2  0  0  0  0
 39 38  1  0  0  0  0
 39 30  1  0  0  0  0
 39 41  2  0  0  0  0
 40 39  2  0  0  0  0
 42 43  1  0  0  0  0
 42 28  1  0  0  0  0
 43 45  1  0  0  0  0
 44 43  2  0  0  0  0
 45 47  1  0  0  0  0
 46 45  1  0  0  0  0
M  END
>  <minimizedAffinity>
-6.02871656

$$$$

 OpenBabel03252508103D

 47 50  0  0  0  0  0  0  0  0999 V2000
   37.6990   29.3250   37.0050 C   0  0  0  0  0  0  0  0  0  0  0  0
   37.9670   28.9030   38.2970 C   0  0  0  0  0  0  0  0  0  0  0  0
   36.9450   28.7730   39.2050 C   0  0  0  0  0  0  0  0  0  0  0  0
   35.6740   29.0770   38.7590 N   0  0  0  0  0  0  0  0  0  0  0  0
   35.4200   29.4810   37.5170 C   0  0  0  0  0  0  0  0  0  0  0  0
   36.4460   29.6010   36.6490 N   0  0  0  0  0  0  0  0  0  0  0  0
   38.4790   29.4400   36.2600 H   0  0  0  0  0  0  0  0  0  0  0  0
   34.4090   29.7120   37.1980 H   0  0  0  0  0  0  0  0  0  0  0  0
   37.0520   28.3560   40.5520 C   0  0  0  0  0  0  0  0  0  0  0  0
   37.3130   29.2210   41.6190 C   0  0  0  0  0  0  0  0  0  0  0  0
   37.4840   28.8120   42.9170 C   0  0  0  0  0  0  0  0  0  0  0  0
   37.4030   27.4740   43.2270 C   0  0  0  0  0  0  0  0  0  0  0  0
   37.1380   26.5850   42.1600 C   0  0  0  0  0  0  0  0  0  0  0  0
   37.0580   25.2450   42.4500 C   0  0  0  0  0  0  0  0  0  0  0  0
   36.8050   24.3180   41.4590 C   0  0  0  0  0  0  0  0  0  0  0  0
   36.6250   24.7570   40.1370 C   0  0  0  0  0  0  0  0  0  0  0  0
   36.7160   26.1370   39.8820 C   0  0  0  0  0  0  0  0  0  0  0  0
   36.9730   27.0300   40.8870 C   0  0  0  0  0  0  0  0  0  0  0  0
   37.3770   30.2780   41.3750 H   0  0  0  0  0  0  0  0  0  0  0  0
   37.6840   29.5360   43.7030 H   0  0  0  0  0  0  0  0  0  0  0  0
   37.5290   27.0830   44.2280 H   0  0  0  0  0  0  0  0  0  0  0  0
   37.1980   24.9250   43.4760 H   0  0  0  0  0  0  0  0  0  0  0  0
   36.7570   23.2770   41.7610 H   0  0  0  0  0  0  0  0  0  0  0  0
   36.4310   23.9670   39.4310 H   0  0  0  0  0  0  0  0  0  0  0  0
   36.5310   26.2720   38.8380 H   0  0  0  0  0  0  0  0  0  0  0  0
   39.2720   28.6290   38.6070 O   0  0  0  0  0  0  0  0  0  0  0  0
   39.8430   30.9120   39.7540 O   0  0  0  0  0  0  0  0  0  0  0  0
   40.4410   29.8020   38.9620 P   0  0  1  0  0  0  0  0  0  0  0  0
   41.6890   29.1450   39.9020 O   0  0  0  0  0  0  0  0  0  0  0  0
   41.4910   28.7280   42.2140 C   0  0  0  0  0  0  0  0  0  0  0  0
   41.3710   28.2540   40.9190 C   0  0  0  0  0  0  0  0  0  0  0  0
   40.9550   26.9600   40.7100 C   0  0  0  0  0  0  0  0  0  0  0  0
   40.8630   26.5940   39.7130 H   0  0  0  0  0  0  0  0  0  0  0  0
   40.6600   26.1410   41.7840 C   0  0  0  0  0  0  0  0  0  0  0  0
   40.3320   25.1200   41.5950 H   0  0  0  0  0  0  0  0  0  0  0  0
   40.7720   26.5950   43.0860 C   0  0  0  0  0  3  0  0  0  0  0  0
   41.1910   27.8950   43.2880 C   0  0  0  0  0  3  0  0  0  0  0  0
   42.6850   30.9460   41.6180 H   0  0  0  0  0  0  0  0  0  0  0  0
   42.0060   30.3430   42.6430 S   0  0  0  0  0  0  0  0  0  0  0  0
   42.8820   30.2680   43.8790 O   0  0  0  0  0  0  0  0  0  0  0  0
   40.8250   31.2100   42.9740 O   0  0  0  0  0  0  0  0  0  0  0  0
   41.0850   30.3600   37.5180 O   0  0  0  0  0  0  0  0  0  0  0  0
   41.1790   31.6790   37.1070 C   0  0  0  0  0  0  0  0  0  0  0  0
   42.4030   31.8980   37.0250 O   0  0  0  0  0  0  0  0  0  0  0  0
   39.8700   32.2600   36.9410 N   0  0  0  0  0  0  0  0  0  0  0  0
   39.3090   31.8920   36.1170 H   0  0  0  0  0  0  0  0  0  0  0  0
   39.3930   32.9950   37.5190 H   0  0  0  0  0  0  0  0  0  0  0  0
  1  2  1  0  0  0  0
  2 26  1  0  0  0  0
  2  3  2  0  0  0  0
  3  9  1  0  0  0  0
  4  3  1  0  0  0  0
  5  4  2  0  0  0  0
  6  1  2  0  0  0  0
  6  5  1  0  0  0  0
  7  1  1  0  0  0  0
  8  5  1  0  0  0  0
  9 18  2  0  0  0  0
  9 10  1  0  0  0  0
 10 11  2  0  0  0  0
 11 12  1  0  0  0  0
 11 20  1  0  0  0  0
 12 21  1  0  0  0  0
 13 14  1  0  0  0  0
 13 12  2  0  0  0  0
 14 22  1  0  0  0  0
 15 23  1  0  0  0  0
 15 14  2  0  0  0  0
 16 15  1  0  0  0  0
 17 16  2  0  0  0  0
 17 18  1  0  0  0  0
 18 13  1  0  0  0  0
 19 10  1  0  0  0  0
 24 16  1  0  0  0  0
 25 17  1  0  0  0  0
 26 28  1  0  0  0  0
 28 27  2  1  0  0  0
 28 29  1  0  0  0  0
 29 31  1  0  0  0  0
 30 39  1  0  0  0  0
 30 37  1  0  0  0  0
 31 30  2  0  0  0  0
 32 31  1  0  0  0  0
 32 34  2  0  0  0  0
 33 32  1  0  0  0  0
 34 36  1  0  0  0  0
 35 34  1  0  0  0  0
 36 37  2  0  0  0  0
 38 39  1  0  0  0  0
 39 41  2  0  0  0  0
 39 40  2  0  0  0  0
 42 28  1  0  0  0  0
 43 42  1  0  0  0  0
 44 43  2  0  0  0  0
 45 43  1  0  0  0  0
 45 47  1  0  0  0  0
 46 45  1  0  0  0  0
M  END
>  <minimizedAffinity>
-5.98851204

$$$$

 OpenBabel03252508103D

 47 50  0  0  0  0  0  0  0  0999 V2000
   37.5800   29.4410   37.0800 C   0  0  0  0  0  0  0  0  0  0  0  0
   37.8550   28.5740   38.1250 C   0  0  0  0  0  0  0  0  0  0  0  0
   36.8280   27.9510   38.7910 C   0  0  0  0  0  0  0  0  0  0  0  0
   35.5460   28.2350   38.3620 N   0  0  0  0  0  0  0  0  0  0  0  0
   35.2860   29.0680   37.3580 C   0  0  0  0  0  0  0  0  0  0  0  0
   36.3170   29.6660   36.7240 N   0  0  0  0  0  0  0  0  0  0  0  0
   38.3640   29.9520   36.5310 H   0  0  0  0  0  0  0  0  0  0  0  0
   34.2670   29.2690   37.0460 H   0  0  0  0  0  0  0  0  0  0  0  0
   36.9400   27.0450   39.8700 C   0  0  0  0  0  0  0  0  0  0  0  0
   36.8240   25.6570   39.7420 C   0  0  0  0  0  0  0  0  0  0  0  0
   36.8660   24.7810   40.7950 C   0  0  0  0  0  0  0  0  0  0  0  0
   37.0300   25.2600   42.0750 C   0  0  0  0  0  0  0  0  0  0  0  0
   37.1510   26.6610   42.2240 C   0  0  0  0  0  0  0  0  0  0  0  0
   37.3110   27.1570   43.4950 C   0  0  0  0  0  0  0  0  0  0  0  0
   37.4340   28.5130   43.7170 C   0  0  0  0  0  0  0  0  0  0  0  0
   37.3960   29.3950   42.6240 C   0  0  0  0  0  0  0  0  0  0  0  0
   37.2290   28.8460   41.3390 C   0  0  0  0  0  0  0  0  0  0  0  0
   37.1060   27.4960   41.1540 C   0  0  0  0  0  0  0  0  0  0  0  0
   36.6940   25.2790   38.7320 H   0  0  0  0  0  0  0  0  0  0  0  0
   36.7700   23.7110   40.6300 H   0  0  0  0  0  0  0  0  0  0  0  0
   37.0700   24.6260   42.9510 H   0  0  0  0  0  0  0  0  0  0  0  0
   37.3390   26.4620   44.3260 H   0  0  0  0  0  0  0  0  0  0  0  0
   37.5550   28.8340   44.7450 H   0  0  0  0  0  0  0  0  0  0  0  0
   37.5010   30.4340   42.8890 H   0  0  0  0  0  0  0  0  0  0  0  0
   37.2480   29.6630   40.6490 H   0  0  0  0  0  0  0  0  0  0  0  0
   39.1710   28.3780   38.4460 O   0  0  0  0  0  0  0  0  0  0  0  0
   39.5850   30.6740   39.6320 O   0  0  0  0  0  0  0  0  0  0  0  0
   40.2600   29.6160   38.8310 P   0  0  1  0  0  0  0  0  0  0  0  0
   41.5360   29.0230   39.7770 O   0  0  0  0  0  0  0  0  0  0  0  0
   41.3200   28.6990   42.1020 C   0  0  0  0  0  0  0  0  0  0  0  0
   41.2540   28.1610   40.8290 C   0  0  0  0  0  0  0  0  0  0  0  0
   40.9210   26.8350   40.6730 C   0  0  0  0  0  0  0  0  0  0  0  0
   40.8710   26.4200   39.6920 H   0  0  0  0  0  0  0  0  0  0  0  0
   40.6560   26.0490   41.7780 C   0  0  0  0  0  0  0  0  0  0  0  0
   40.3950   25.0020   41.6300 H   0  0  0  0  0  0  0  0  0  0  0  0
   40.7150   26.5660   43.0600 C   0  0  0  0  0  3  0  0  0  0  0  0
   41.0500   27.8970   43.2080 C   0  0  0  0  0  3  0  0  0  0  0  0
   42.2750   30.9940   41.3830 H   0  0  0  0  0  0  0  0  0  0  0  0
   41.7270   30.3600   42.4660 S   0  0  0  0  0  0  0  0  0  0  0  0
   42.6950   30.3850   43.6330 O   0  0  0  0  0  0  0  0  0  0  0  0
   40.5040   31.1320   42.8710 O   0  0  0  0  0  0  0  0  0  0  0  0
   40.8850   30.2340   37.4040 O   0  0  0  0  0  0  0  0  0  0  0  0
   41.1900   31.5590   37.1380 C   0  0  0  0  0  0  0  0  0  0  0  0
   42.4350   31.6070   37.1650 O   0  0  0  0  0  0  0  0  0  0  0  0
   39.9900   32.3320   36.9410 N   0  0  0  0  0  0  0  0  0  0  0  0
   39.4550   32.1240   36.0450 H   0  0  0  0  0  0  0  0  0  0  0  0
   39.5690   33.0710   37.5560 H   0  0  0  0  0  0  0  0  0  0  0  0
  1  2  1  0  0  0  0
  2 26  1  0  0  0  0
  2  3  2  0  0  0  0
  3  9  1  0  0  0  0
  4  3  1  0  0  0  0
  5  4  2  0  0  0  0
  6  1  2  0  0  0  0
  6  5  1  0  0  0  0
  7  1  1  0  0  0  0
  8  5  1  0  0  0  0
  9 18  1  0  0  0  0
 10  9  2  0  0  0  0
 10 11  1  0  0  0  0
 11 12  2  0  0  0  0
 12 13  1  0  0  0  0
 12 21  1  0  0  0  0
 13 14  1  0  0  0  0
 14 15  2  0  0  0  0
 14 22  1  0  0  0  0
 15 23  1  0  0  0  0
 16 24  1  0  0  0  0
 16 15  1  0  0  0  0
 17 16  2  0  0  0  0
 18 17  1  0  0  0  0
 18 13  2  0  0  0  0
 19 10  1  0  0  0  0
 20 11  1  0  0  0  0
 25 17  1  0  0  0  0
 26 28  1  0  0  0  0
 28 27  2  1  0  0  0
 28 29  1  0  0  0  0
 29 31  1  0  0  0  0
 30 39  1  0  0  0  0
 30 37  1  0  0  0  0
 31 30  2  0  0  0  0
 32 31  1  0  0  0  0
 32 34  2  0  0  0  0
 33 32  1  0  0  0  0
 34 36  1  0  0  0  0
 35 34  1  0  0  0  0
 36 37  2  0  0  0  0
 38 39  1  0  0  0  0
 39 41  2  0  0  0  0
 39 40  2  0  0  0  0
 42 28  1  0  0  0  0
 43 44  2  0  0  0  0
 43 42  1  0  0  0  0
 45 43  1  0  0  0  0
 45 47  1  0  0  0  0
 46 45  1  0  0  0  0
M  END
>  <minimizedAffinity>
-5.96848106

$$$$

 OpenBabel03252508103D

 47 50  0  0  0  0  0  0  0  0999 V2000
   42.4390   26.4520   39.6380 C   0  0  0  0  0  0  0  0  0  0  0  0
   41.0940   26.2340   39.8900 C   0  0  0  0  0  0  0  0  0  0  0  0
   40.6930   25.7460   41.1100 C   0  0  0  0  0  0  0  0  0  0  0  0
   41.6850   25.4990   42.0380 N   0  0  0  0  0  0  0  0  0  0  0  0
   42.9750   25.7100   41.7920 C   0  0  0  0  0  0  0  0  0  0  0  0
   43.3380   26.1880   40.5830 N   0  0  0  0  0  0  0  0  0  0  0  0
   42.7940   26.8350   38.6870 H   0  0  0  0  0  0  0  0  0  0  0  0
   43.7300   25.5050   42.5440 H   0  0  0  0  0  0  0  0  0  0  0  0
   39.3680   25.4710   41.5210 C   0  0  0  0  0  0  0  0  0  0  0  0
   38.6800   24.2950   41.2080 C   0  0  0  0  0  0  0  0  0  0  0  0
   37.3740   24.0540   41.5480 C   0  0  0  0  0  0  0  0  0  0  0  0
   36.6620   25.0060   42.2410 C   0  0  0  0  0  0  0  0  0  0  0  0
   37.3430   26.2020   42.5670 C   0  0  0  0  0  0  0  0  0  0  0  0
   36.6470   27.1660   43.2550 C   0  0  0  0  0  0  0  0  0  0  0  0
   37.2450   28.3590   43.6060 C   0  0  0  0  0  0  0  0  0  0  0  0
   38.5860   28.5850   43.2550 C   0  0  0  0  0  0  0  0  0  0  0  0
   39.2630   27.5720   42.5500 C   0  0  0  0  0  0  0  0  0  0  0  0
   38.6390   26.4020   42.2140 C   0  0  0  0  0  0  0  0  0  0  0  0
   39.2420   23.5430   40.6610 H   0  0  0  0  0  0  0  0  0  0  0  0
   36.8950   23.1170   41.2750 H   0  0  0  0  0  0  0  0  0  0  0  0
   35.6290   24.8830   42.5390 H   0  0  0  0  0  0  0  0  0  0  0  0
   35.6130   26.9740   43.5180 H   0  0  0  0  0  0  0  0  0  0  0  0
   36.6340   29.0740   44.1460 H   0  0  0  0  0  0  0  0  0  0  0  0
   38.9710   29.5400   43.5700 H   0  0  0  0  0  0  0  0  0  0  0  0
   40.2630   27.9180   42.3980 H   0  0  0  0  0  0  0  0  0  0  0  0
   40.2130   26.5260   38.8840 O   0  0  0  0  0  0  0  0  0  0  0  0
   39.0450   28.0010   37.0660 O   0  0  0  0  0  0  0  0  0  0  0  0
   40.0410   28.0520   38.1710 P   0  0  1  0  0  0  0  0  0  0  0  0
   39.4680   29.1820   39.2970 O   0  0  0  0  0  0  0  0  0  0  0  0
   37.6120   30.3800   40.1200 C   0  0  0  0  0  0  0  0  0  0  0  0
   38.1160   29.1940   39.6140 C   0  0  0  0  0  0  0  0  0  0  0  0
   37.2760   28.1170   39.4560 C   0  0  0  0  0  0  0  0  0  0  0  0
   37.6640   27.2040   39.0660 H   0  0  0  0  0  0  0  0  0  0  0  0
   35.9410   28.2180   39.7990 C   0  0  0  0  0  0  0  0  0  0  0  0
   35.2950   27.3520   39.6650 H   0  0  0  0  0  0  0  0  0  0  0  0
   35.4160   29.3930   40.3060 C   0  0  0  0  0  3  0  0  0  0  0  0
   36.2650   30.4700   40.4620 C   0  0  0  0  0  3  0  0  0  0  0  0
   39.4930   32.0070   39.4050 H   0  0  0  0  0  0  0  0  0  0  0  0
   38.5480   31.8340   40.3800 S   0  0  0  0  0  0  0  0  0  0  0  0
   39.2090   31.7550   41.7430 O   0  0  0  0  0  0  0  0  0  0  0  0
   37.6620   33.0470   40.3720 O   0  0  0  0  0  0  0  0  0  0  0  0
   41.5430   28.5500   37.6180 O   0  0  0  0  0  0  0  0  0  0  0  0
   41.8040   29.6180   36.7760 C   0  0  0  0  0  0  0  0  0  0  0  0
   42.7840   29.2540   36.0990 O   0  0  0  0  0  0  0  0  0  0  0  0
   40.8710   30.6930   37.0050 N   0  0  0  0  0  0  0  0  0  0  0  0
   39.8710   30.5040   36.6940 H   0  0  0  0  0  0  0  0  0  0  0  0
   41.0380   31.6350   37.4360 H   0  0  0  0  0  0  0  0  0  0  0  0
  1  2  2  0  0  0  0
  1  6  1  0  0  0  0
  2  3  1  0  0  0  0
  3  9  1  0  0  0  0
  3  4  2  0  0  0  0
  5  4  1  0  0  0  0
  5  8  1  0  0  0  0
  6  5  2  0  0  0  0
  7  1  1  0  0  0  0
  9 18  1  0  0  0  0
 10  9  2  0  0  0  0
 10 11  1  0  0  0  0
 11 12  2  0  0  0  0
 12 21  1  0  0  0  0
 12 13  1  0  0  0  0
 13 14  1  0  0  0  0
 14 22  1  0  0  0  0
 14 15  2  0  0  0  0
 15 23  1  0  0  0  0
 16 24  1  0  0  0  0
 16 15  1  0  0  0  0
 17 16  2  0  0  0  0
 18 17  1  0  0  0  0
 18 13  2  0  0  0  0
 19 10  1  0  0  0  0
 20 11  1  0  0  0  0
 25 17  1  0  0  0  0
 26  2  1  0  0  0  0
 28 27  2  6  0  0  0
 28 26  1  0  0  0  0
 28 29  1  0  0  0  0
 29 31  1  0  0  0  0
 30 39  1  0  0  0  0
 30 37  1  0  0  0  0
 31 30  2  0  0  0  0
 32 31  1  0  0  0  0
 32 34  2  0  0  0  0
 33 32  1  0  0  0  0
 34 36  1  0  0  0  0
 35 34  1  0  0  0  0
 36 37  2  0  0  0  0
 38 39  1  0  0  0  0
 39 40  2  0  0  0  0
 41 39  2  0  0  0  0
 42 28  1  0  0  0  0
 43 45  1  0  0  0  0
 43 42  1  0  0  0  0
 44 43  2  0  0  0  0
 45 47  1  0  0  0  0
 46 45  1  0  0  0  0
M  END
>  <minimizedAffinity>
-5.94103098

$$$$

 OpenBabel03252508103D

 47 50  0  0  0  0  0  0  0  0999 V2000
   39.7290   27.2470   36.9710 C   0  0  0  0  0  0  0  0  0  0  0  0
   39.1660   26.9140   38.1910 C   0  0  0  0  0  0  0  0  0  0  0  0
   39.0790   25.5990   38.5740 C   0  0  0  0  0  0  0  0  0  0  0  0
   39.5760   24.6600   37.6920 N   0  0  0  0  0  0  0  0  0  0  0  0
   40.1170   24.9830   36.5200 C   0  0  0  0  0  0  0  0  0  0  0  0
   40.1870   26.2860   36.1720 N   0  0  0  0  0  0  0  0  0  0  0  0
   39.8150   28.2740   36.6330 H   0  0  0  0  0  0  0  0  0  0  0  0
   40.4990   24.2200   35.8500 H   0  0  0  0  0  0  0  0  0  0  0  0
   38.5350   25.0980   39.7800 C   0  0  0  0  0  0  0  0  0  0  0  0
   37.2140   24.6620   39.9200 C   0  0  0  0  0  0  0  0  0  0  0  0
   36.6650   24.2390   41.1030 C   0  0  0  0  0  0  0  0  0  0  0  0
   37.4320   24.2290   42.2460 C   0  0  0  0  0  0  0  0  0  0  0  0
   38.7710   24.6660   42.1220 C   0  0  0  0  0  0  0  0  0  0  0  0
   39.5490   24.6670   43.2540 C   0  0  0  0  0  0  0  0  0  0  0  0
   40.8650   25.0810   43.2100 C   0  0  0  0  0  0  0  0  0  0  0  0
   41.4110   25.5040   41.9870 C   0  0  0  0  0  0  0  0  0  0  0  0
   40.5800   25.4880   40.8520 C   0  0  0  0  0  0  0  0  0  0  0  0
   39.2780   25.0760   40.9310 C   0  0  0  0  0  0  0  0  0  0  0  0
   36.6090   24.6690   39.0180 H   0  0  0  0  0  0  0  0  0  0  0  0
   35.6290   23.9110   41.1470 H   0  0  0  0  0  0  0  0  0  0  0  0
   37.0620   23.9100   43.2120 H   0  0  0  0  0  0  0  0  0  0  0  0
   39.1110   24.3360   44.1880 H   0  0  0  0  0  0  0  0  0  0  0  0
   41.4190   25.0580   44.1420 H   0  0  0  0  0  0  0  0  0  0  0  0
   42.4430   25.8080   42.0450 H   0  0  0  0  0  0  0  0  0  0  0  0
   41.1760   25.8190   40.0280 H   0  0  0  0  0  0  0  0  0  0  0  0
   38.7150   27.9440   38.9740 O   0  0  0  0  0  0  0  0  0  0  0  0
   36.1800   27.8490   38.3310 O   0  0  0  0  0  0  0  0  0  0  0  0
   37.2710   28.7870   38.7120 P   0  0  1  0  0  0  0  0  0  0  0  0
   36.7680   29.5770   40.1250 O   0  0  0  0  0  0  0  0  0  0  0  0
   38.0930   29.4720   42.0730 C   0  0  0  0  0  0  0  0  0  0  0  0
   37.0160   28.9820   41.3560 C   0  0  0  0  0  0  0  0  0  0  0  0
   36.2640   27.9570   41.8840 C   0  0  0  0  0  0  0  0  0  0  0  0
   35.4340   27.5790   41.3320 H   0  0  0  0  0  0  0  0  0  0  0  0
   36.5830   27.4240   43.1180 C   0  0  0  0  0  0  0  0  0  0  0  0
   35.9740   26.6140   43.5160 H   0  0  0  0  0  0  0  0  0  0  0  0
   37.6550   27.8990   43.8520 C   0  0  0  0  0  3  0  0  0  0  0  0
   38.4050   28.9270   43.3150 C   0  0  0  0  0  3  0  0  0  0  0  0
   38.4370   31.7710   40.9360 H   0  0  0  0  0  0  0  0  0  0  0  0
   39.1430   30.7650   41.5400 S   0  0  0  0  0  0  0  0  0  0  0  0
   40.1730   30.1990   40.5830 O   0  0  0  0  0  0  0  0  0  0  0  0
   39.8810   31.3660   42.7020 O   0  0  0  0  0  0  0  0  0  0  0  0
   37.5360   29.9330   37.5170 O   0  0  0  0  0  0  0  0  0  0  0  0
   38.3230   31.0680   37.6170 C   0  0  0  0  0  0  0  0  0  0  0  0
   37.5110   32.0040   37.7470 O   0  0  0  0  0  0  0  0  0  0  0  0
   39.7220   30.7320   37.5370 N   0  0  0  0  0  0  0  0  0  0  0  0
   40.1150   30.2090   38.3760 H   0  0  0  0  0  0  0  0  0  0  0  0
   40.4080   30.9310   36.7680 H   0  0  0  0  0  0  0  0  0  0  0  0
  1  2  1  0  0  0  0
  2  3  2  0  0  0  0
  2 26  1  0  0  0  0
  3  9  1  0  0  0  0
  4  3  1  0  0  0  0
  5  4  2  0  0  0  0
  6  5  1  0  0  0  0
  6  1  2  0  0  0  0
  7  1  1  0  0  0  0
  8  5  1  0  0  0  0
  9 10  2  0  0  0  0
  9 18  1  0  0  0  0
 10 11  1  0  0  0  0
 11 20  1  0  0  0  0
 11 12  2  0  0  0  0
 12 21  1  0  0  0  0
 13 12  1  0  0  0  0
 13 14  1  0  0  0  0
 14 22  1  0  0  0  0
 15 14  2  0  0  0  0
 15 23  1  0  0  0  0
 16 24  1  0  0  0  0
 16 15  1  0  0  0  0
 17 18  1  0  0  0  0
 17 16  2  0  0  0  0
 18 13  2  0  0  0  0
 19 10  1  0  0  0  0
 25 17  1  0  0  0  0
 28 27  2  6  0  0  0
 28 26  1  0  0  0  0
 28 29  1  0  0  0  0
 29 31  1  0  0  0  0
 30 37  1  0  0  0  0
 31 32  1  0  0  0  0
 31 30  2  0  0  0  0
 32 34  2  0  0  0  0
 33 32  1  0  0  0  0
 34 35  1  0  0  0  0
 34 36  1  0  0  0  0
 37 36  2  0  0  0  0
 38 39  1  0  0  0  0
 39 30  1  0  0  0  0
 39 41  2  0  0  0  0
 40 39  2  0  0  0  0
 42 43  1  0  0  0  0
 42 28  1  0  0  0  0
 43 44  2  0  0  0  0
 45 43  1  0  0  0  0
 45 46  1  0  0  0  0
 47 45  1  0  0  0  0
M  END
>  <minimizedAffinity>
-5.84871864

$$$$
