
 OpenBabel03252504263D

 25 26  0  0  0  0  0  0  0  0999 V2000
   42.4330   34.4160   40.9070 O   0  0  0  0  0  0  0  0  0  0  0  0
   40.4320   34.1750   39.6210 C   0  0  0  0  0  0  0  0  0  0  0  0
   41.7100   34.7270   39.7630 C   0  0  0  0  0  0  0  0  0  0  0  0
   42.2090   35.5560   38.7730 C   0  0  0  0  0  0  0  0  0  0  0  0
   43.1950   35.9800   38.8880 H   0  0  0  0  0  0  0  0  0  0  0  0
   41.4830   35.8670   37.6280 C   0  0  0  0  0  0  0  0  0  0  0  0
   41.8530   36.5120   36.8430 H   0  0  0  0  0  0  0  0  0  0  0  0
   40.2370   35.2810   37.5700 C   0  0  0  0  0  0  0  0  0  0  0  0
   39.6630   34.4530   38.4950 C   0  0  0  0  0  0  0  0  0  0  0  0
   38.5600   32.7560   40.5580 H   0  0  0  0  0  0  0  0  0  0  0  0
   39.8280   33.1290   40.8910 S   0  0  0  0  0  0  0  0  0  0  0  0
   39.7960   33.8430   42.2200 O   0  0  0  0  0  0  0  0  0  0  0  0
   40.6870   31.9020   41.0210 O   0  0  0  0  0  0  0  0  0  0  0  0
   43.5390   35.1810   41.2400 C   0  0  0  0  0  0  0  0  0  0  0  0
   43.2680   36.2460   41.2680 H   0  0  0  0  0  0  0  0  0  0  0  0
   44.3370   35.0690   40.4640 H   0  0  0  0  0  0  0  0  0  0  0  0
   44.2320   35.7620   43.4940 C   0  0  0  0  0  0  0  0  0  0  0  0
   44.1740   34.7670   42.5170 C   0  0  0  0  0  0  0  0  0  0  0  0
   44.7000   33.5230   42.8230 C   0  0  0  0  0  0  0  0  0  0  0  0
   45.2300   33.3550   44.0360 N   0  0  0  0  0  0  0  0  0  0  0  0
   45.2820   34.3150   44.9720 C   0  0  0  0  0  0  0  0  0  0  0  0
   44.7810   35.5620   44.7330 N   0  0  0  0  0  0  0  0  0  0  0  0
   43.8560   36.7760   43.3810 H   0  0  0  0  0  0  0  0  0  0  0  0
   44.6220   32.8120   42.0290 H   0  0  0  0  0  0  0  0  0  0  0  0
   45.7500   34.0020   45.9050 H   0  0  0  0  0  0  0  0  0  0  0  0
  1 14  1  0  0  0  0
  2  3  1  0  0  0  0
  2 11  1  0  0  0  0
  3  1  1  0  0  0  0
  4  5  1  0  0  0  0
  4  3  2  0  0  0  0
  6  4  1  0  0  0  0
  7  6  1  0  0  0  0
  8  6  2  0  0  0  0
  8  9  1  0  0  0  0
  9  2  2  0  0  0  0
 10 11  1  0  0  0  0
 11 13  2  0  0  0  0
 11 12  2  0  0  0  0
 14 15  1  0  0  0  0
 14 18  1  0  0  0  0
 16 14  1  0  0  0  0
 17 22  1  0  0  0  0
 18 19  1  0  0  0  0
 18 17  2  0  0  0  0
 19 20  2  0  0  0  0
 20 21  1  0  0  0  0
 21 25  1  0  0  0  0
 22 21  2  0  0  0  0
 23 17  1  0  0  0  0
 24 19  1  0  0  0  0
M  END
>  <minimizedAffinity>
-4.6998229

>  <minimizedRMSD>
1.3716433

$$$$
