
     RDKit          3D

 51 55  0  0  0  0  0  0  0  0999 V2000
   47.3306   32.3130   47.9609 C   0  0  0  0  0  0  0  0  0  0  0  0
   46.8467   31.0111   48.0183 C   0  0  0  0  0  0  0  0  0  0  0  0
   45.9759   30.6491   47.0439 C   0  0  0  0  0  0  0  0  0  0  0  0
   45.6243   31.5101   46.0889 N   0  0  0  0  0  0  0  0  0  0  0  0
   46.0884   32.7647   46.0176 C   0  0  0  0  0  0  0  0  0  0  0  0
   46.9450   33.1268   46.9870 N   0  0  0  0  0  0  0  0  0  0  0  0
   45.4099   29.3790   47.0313 N   0  0  0  0  0  0  0  0  0  0  0  0
   44.2727   28.9601   46.1821 C   0  0  0  0  0  0  0  0  0  0  0  0
   44.1821   27.4660   46.3289 C   0  0  0  0  0  0  0  0  0  0  0  0
   44.7628   27.2223   47.6935 C   0  0  0  0  0  0  0  0  0  0  0  0
   45.8187   28.2637   47.8399 C   0  0  0  0  0  0  0  0  0  0  0  0
   45.8555   33.8504   45.0651 C   0  0  0  0  0  0  0  0  0  0  0  0
   44.8905   34.7909   45.2512 N   0  0  0  0  0  0  0  0  0  0  0  0
   44.6268   35.7918   44.4184 C   0  0  0  0  0  0  0  0  0  0  0  0
   45.3528   35.9202   43.2844 N   0  0  0  0  0  0  0  0  0  0  0  0
   46.3261   35.0531   42.9995 C   0  0  0  0  0  0  0  0  0  0  0  0
   47.0551   35.1888   41.8347 C   0  0  0  0  0  0  0  0  0  0  0  0
   48.0574   34.2931   41.5286 C   0  0  0  0  0  0  0  0  0  0  0  0
   48.3046   33.2608   42.4262 C   0  0  0  0  0  0  0  0  0  0  0  0
   47.5384   33.1809   43.5732 C   0  0  0  0  0  0  0  0  0  0  0  0
   46.5456   34.0426   43.9050 C   0  0  0  0  0  0  0  0  0  0  0  0
   47.3351   30.1494   48.9922 N   0  0  0  0  0  0  0  0  0  0  0  0
   48.0334   32.6263   48.7464 H   0  0  0  0  0  0  0  0  0  0  0  0
   43.3535   29.4788   46.5112 H   0  0  0  0  0  0  0  0  0  0  0  0
   44.5221   29.1597   45.1203 H   0  0  0  0  0  0  0  0  0  0  0  0
   44.7418   26.9065   45.5714 H   0  0  0  0  0  0  0  0  0  0  0  0
   43.0994   27.1911   46.2864 H   0  0  0  0  0  0  0  0  0  0  0  0
   45.1546   26.1834   47.8241 H   0  0  0  0  0  0  0  0  0  0  0  0
   43.9138   27.2979   48.4030 H   0  0  0  0  0  0  0  0  0  0  0  0
   45.7343   28.4634   48.9533 H   0  0  0  0  0  0  0  0  0  0  0  0
   46.7873   27.8618   47.5494 H   0  0  0  0  0  0  0  0  0  0  0  0
   43.8476   36.4828   44.6508 H   0  0  0  0  0  0  0  0  0  0  0  0
   46.7839   36.0367   41.1925 H   0  0  0  0  0  0  0  0  0  0  0  0
   48.5419   34.5214   40.5848 H   0  0  0  0  0  0  0  0  0  0  0  0
   49.1129   32.6717   42.0234 H   0  0  0  0  0  0  0  0  0  0  0  0
   48.0364   29.3759   48.9312 H   0  0  0  0  0  0  0  0  0  0  0  0
   46.9645   30.2543   49.9805 H   0  0  0  0  0  0  0  0  0  0  0  0
   51.3347   32.0971   42.2706 H   0  0  0  0  0  0  0  0  0  0  0  0
   50.5341   32.8605   43.0706 S   0  0  0  0  0  0  0  0  0  0  0  0
   49.8002   33.9114   42.3319 O   0  0  0  0  0  0  0  0  0  0  0  0
   51.4527   33.5037   44.1006 O   0  0  0  0  0  0  0  0  0  0  0  0
   49.4363   31.8518   43.9937 C   0  0  0  0  0  0  0  0  0  0  0  0
   48.0448   31.9746   44.2133 C   0  0  0  0  0  0  0  0  0  0  0  0
   47.4819   30.9900   45.0093 C   0  0  0  0  0  0  0  0  0  0  0  0
   46.4041   31.2078   45.0958 H   0  0  0  0  0  0  0  0  0  0  0  0
   48.1701   29.9457   45.5729 C   0  0  0  0  0  0  0  0  0  0  0  0
   47.5380   29.2932   46.1569 H   0  0  0  0  0  0  0  0  0  0  0  0
   49.5175   29.8275   45.3595 C   0  0  0  0  0  0  0  0  0  0  0  0
   50.1482   30.7878   44.5655 C   0  0  0  0  0  0  0  0  0  0  0  0
   49.9978   28.9957   45.8231 H   0  0  0  0  0  0  0  0  0  0  0  0
   51.2041   30.5743   44.4809 H   0  0  0  0  0  0  0  0  0  0  0  0
  1  2  2  0
  2 22  1  0
  3  2  1  0
  4  3  2  0
  5  4  1  0
  5  6  2  0
  6  1  1  0
  7  3  1  0
  7 11  1  0
  8  9  1  0
  8  7  1  0
  9 10  1  0
 11 10  1  0
 12 13  2  0
 12  5  1  0
 14 13  1  0
 15 14  2  0
 16 15  1  0
 16 21  2  0
 17 16  1  0
 18 17  2  0
 18 19  1  0
 19 20  2  0
 20 21  1  0
 21 12  1  0
  1 23  1  0
  8 24  1  0
  8 25  1  0
  9 26  1  0
  9 27  1  0
 10 28  1  0
 10 29  1  0
 11 30  1  0
 11 31  1  0
 14 32  1  0
 17 33  1  0
 18 34  1  0
 19 35  1  0
 22 36  1  0
 22 37  1  0
 38 39  1  0
 39 40  2  0
 39 41  2  0
 39 42  1  0
 42 43  2  0
 43 44  1  0
 44 45  1  0
 44 46  2  0
 46 47  1  0
 46 48  1  0
 48 49  2  0
 49 42  1  0
 48 50  1  0
 49 51  1  0
 20 43  1  0
M  ISO  8  23  14  24  13  25  13  26  13  27  13  28  13  29  13  30  13
M  ISO  8  31  13  32  14  33  14  34  14  35  14  38  12  45  15  47  16
M  END
>  <DihAtoms>  (1) 
18,19,42,41

>  <DihDeg>  (1) 
-84.54902648660061

$$$$
