REMARK  Name = 
REMARK  4 active torsions:
REMARK  status: ('A' for Active; 'I' for Inactive)
REMARK    1  A    between atoms: C_3  and  C_23
REMARK    2  A    between atoms: C_5  and  C_9
REMARK    3  A    between atoms: C_21  and  C_40
REMARK    4  A    between atoms: S_36  and  C_39
REMARK                            x       y       z     vdW  Elec       q    Type
REMARK                         _______ _______ _______ _____ _____    ______ ____
ROOT
ATOM      1 CL   UNL     1      44.793  35.991  43.303  0.00  0.00    +0.000 Cl
ATOM      2  C   UNL     1      45.538  34.742  44.247  0.00  0.00    +0.000 A 
ATOM      3  C   UNL     1      46.628  34.055  43.758  0.00  0.00    +0.000 A 
ATOM      4  C   UNL     1      47.149  33.080  44.583  0.00  0.00    +0.000 A 
ATOM      5  C   UNL     1      46.653  32.763  45.838  0.00  0.00    +0.000 A 
ATOM      6  C   UNL     1      45.569  33.469  46.288  0.00  0.00    +0.000 A 
ATOM      7 CL   UNL     1      44.975  33.034  47.881  0.00  0.00    +0.000 Cl
ATOM      8  C   UNL     1      45.018  34.444  45.506  0.00  0.00    +0.000 A 
ATOM      9  H   UNL     1      48.013  32.544  44.182  0.00  0.00    +0.000 HD
ATOM     10  H   UNL     1      44.169  34.955  45.926  0.00  0.00    +0.000 HD
ENDROOT
BRANCH   5  11
ATOM     11  C   UNL     1      47.350  31.691  46.562  0.00  0.00    +0.000 A 
ATOM     12  C   UNL     1      47.462  30.411  46.092  0.00  0.00    +0.000 A 
ATOM     13  C   UNL     1      48.117  29.401  46.767  0.00  0.00    +0.000 A 
ATOM     14  C   UNL     1      48.697  29.665  47.982  0.00  0.00    +0.000 A 
ATOM     15  N   UNL     1      49.327  28.674  48.624  0.00  0.00    +0.000 NA
ATOM     16  C   UNL     1      49.925  28.849  49.824  0.00  0.00    +0.000 A 
ATOM     17  C   UNL     1      49.852  30.126  50.366  0.00  0.00    +0.000 A 
ATOM     18  C   UNL     1      49.211  31.146  49.718  0.00  0.00    +0.000 A 
ATOM     19  C   UNL     1      48.609  30.933  48.491  0.00  0.00    +0.000 A 
ATOM     20  C   UNL     1      47.953  31.932  47.805  0.00  0.00    +0.000 A 
ATOM     21  H   UNL     1      47.000  30.223  45.136  0.00  0.00    +0.000 HD
ATOM     22  H   UNL     1      48.187  28.398  46.366  0.00  0.00    +0.000 HD
ATOM     23  H   UNL     1      50.413  28.025  50.292  0.00  0.00    +0.000 HD
ATOM     24  H   UNL     1      50.324  30.296  51.329  0.00  0.00    +0.000 HD
ATOM     25  H   UNL     1      49.169  32.122  50.157  0.00  0.00    +0.000 HD
ATOM     26  H   UNL     1      47.910  32.922  48.250  0.00  0.00    +0.000 HD
ENDBRANCH   5  11
BRANCH   3  31
ATOM     27  C   UNL     1      48.778  35.434  41.162  0.00  0.00    +0.000 A 
ATOM     28  C   UNL     1      48.272  34.852  39.991  0.00  0.00    +0.000 A 
ATOM     29  C   UNL     1      47.176  33.971  40.086  0.00  0.00    +0.000 A 
ATOM     30  N   UNL     1      46.720  33.780  41.335  0.00  0.00    +0.000 NA
ATOM     31  C   UNL     1      47.202  34.335  42.452  0.00  0.00    +0.000 A 
ATOM     32  N   UNL     1      48.240  35.170  42.372  0.00  0.00    +0.000 NA
ATOM     33  H   UNL     1      49.622  36.114  41.096  0.00  0.00    +0.000 HD
ATOM     34  H   UNL     1      48.697  35.062  39.044  0.00  0.00    +0.000 HD
BRANCH  29  36
ATOM     35  C   UNL     1      46.615  33.956  37.729  0.00  0.00    +0.000 A 
ATOM     36  C   UNL     1      46.574  33.314  38.936  0.00  0.00    +0.000 A 
ATOM     37  C   UNL     1      45.974  32.078  39.035  0.00  0.00    +0.000 A 
ATOM     38  H   UNL     1      45.917  31.536  39.961  0.00  0.00    +0.000 HD
ATOM     39  C   UNL     1      45.397  31.438  37.952  0.00  0.00    +0.000 A 
ATOM     40  H   UNL     1      44.928  30.471  38.031  0.00  0.00    +0.000 HD
ATOM     41  C   UNL     1      45.425  32.060  36.730  0.00  0.00    +0.000 A 
ATOM     42  C   UNL     1      46.025  33.287  36.648  0.00  0.00    +0.000 A 
BRANCH  35  44
ATOM     43  H   UNL     1      46.799  36.500  38.275  0.00  0.00    +0.000 HD
ATOM     44  S   UNL     1      47.339  35.510  37.474  0.00  0.00    +0.000 S 
ATOM     45  O   UNL     1      47.035  35.978  36.057  0.00  0.00    +0.000 OA
ATOM     46  O   UNL     1      48.827  35.439  37.554  0.00  0.00    +0.000 OA
ENDBRANCH  35  44
ENDBRANCH  29  36
ENDBRANCH   3  31
TORSDOF 4
