REMARK  Name = 
REMARK  7 active torsions:
REMARK  status: ('A' for Active; 'I' for Inactive)
REMARK    1  A    between atoms: C_1  and  C_4
REMARK    2  A    between atoms: C_3  and  C_14
REMARK    3  A    between atoms: C_8  and  C_10
REMARK    4  A    between atoms: C_18  and  C_20
REMARK    5  A    between atoms: C_20  and  C_21
REMARK    6  A    between atoms: C_21  and  C_39
REMARK    7  A    between atoms: S_35  and  C_38
REMARK                            x       y       z     vdW  Elec       q    Type
REMARK                         _______ _______ _______ _____ _____    ______ ____
ROOT
ATOM      1  C   UNL     1      42.664  34.789  40.270  0.00  0.00    +0.000 A 
ATOM      2  C   UNL     1      42.505  35.195  38.961  0.00  0.00    +0.000 A 
ATOM      3  C   UNL     1      41.313  35.062  38.289  0.00  0.00    +0.000 A 
ATOM      4  N   UNL     1      40.276  34.513  38.951  0.00  0.00    +0.000 NA
ATOM      5  C   UNL     1      40.424  34.108  40.246  0.00  0.00    +0.000 A 
ATOM      6  N   UNL     1      41.595  34.243  40.898  0.00  0.00    +0.000 NA
ATOM      7  H   UNL     1      43.368  35.630  38.473  0.00  0.00    +0.000 HD
ATOM      8  H   UNL     1      41.259  35.401  37.264  0.00  0.00    +0.000 HD
ENDROOT
BRANCH   1  11
ATOM      9  C   UNL     1      43.966  34.640  42.369  0.00  0.00    +0.000 C 
ATOM     10  C   UNL     1      44.152  36.127  41.906  0.00  0.00    +0.000 C 
ATOM     11  C   UNL     1      44.003  34.935  40.967  0.00  0.00    +0.000 C 
ATOM     12  H   UNL     1      42.981  34.467  42.898  0.00  0.00    +0.000 HD
ATOM     13  H   UNL     1      43.284  36.775  42.090  0.00  0.00    +0.000 HD
ATOM     14  H   UNL     1      45.154  36.550  42.019  0.00  0.00    +0.000 HD
ATOM     15  H   UNL     1      44.818  34.824  40.257  0.00  0.00    +0.000 HD
BRANCH   9  16
ATOM     16  C   UNL     1      45.115  34.113  43.134  0.00  0.00    +0.000 A 
ATOM     17  C   UNL     1      46.360  34.062  42.489  0.00  0.00    +0.000 A 
ATOM     18  C   UNL     1      47.456  33.573  43.198  0.00  0.00    +0.000 A 
ATOM     19  N   UNL     1      47.259  33.171  44.477  0.00  0.00    +0.000 NA
ATOM     20  C   UNL     1      46.063  33.232  45.062  0.00  0.00    +0.000 A 
ATOM     21  N   UNL     1      45.017  33.704  44.371  0.00  0.00    +0.000 NA
ATOM     22  H   UNL     1      46.490  34.394  41.456  0.00  0.00    +0.000 HD
ATOM     23  H   UNL     1      48.451  33.508  42.753  0.00  0.00    +0.000 HD
BRANCH  20  24
ATOM     24  C   UNL     1      46.049  32.744  46.485  0.00  0.00    +0.000 C 
ATOM     25  F   UNL     1      45.084  33.399  47.233  0.00  0.00    +0.000 F 
ATOM     26  F   UNL     1      47.280  33.072  47.090  0.00  0.00    +0.000 F 
ATOM     27  F   UNL     1      45.954  31.380  46.509  0.00  0.00    +0.000 F 
ENDBRANCH  20  24
ENDBRANCH   9  16
ENDBRANCH   1  11
BRANCH   5  28
ATOM     28  C   UNL     1      39.315  33.488  41.015  0.00  0.00    +0.000 C 
ATOM     29  H   UNL     1      38.769  34.192  41.653  0.00  0.00    +0.000 HD
ATOM     30  H   UNL     1      39.741  32.723  41.726  0.00  0.00    +0.000 HD
BRANCH  28  31
ATOM     31  C   UNL     1      38.398  32.712  40.104  0.00  0.00    +0.000 C 
ATOM     32  H   UNL     1      39.026  31.898  39.624  0.00  0.00    +0.000 HD
ATOM     33  H   UNL     1      38.078  33.352  39.270  0.00  0.00    +0.000 HD
BRANCH  31  35
ATOM     34  C   UNL     1      37.229  31.967  42.145  0.00  0.00    +0.000 A 
ATOM     35  C   UNL     1      37.272  32.069  40.775  0.00  0.00    +0.000 A 
ATOM     36  C   UNL     1      36.215  31.537  40.045  0.00  0.00    +0.000 A 
ATOM     37  H   UNL     1      36.272  31.632  38.962  0.00  0.00    +0.000 HD
ATOM     38  C   UNL     1      35.100  30.900  40.588  0.00  0.00    +0.000 A 
ATOM     39  H   UNL     1      34.344  30.527  39.927  0.00  0.00    +0.000 HD
ATOM     40  C   UNL     1      35.075  30.805  41.977  0.00  0.00    +0.000 A 
ATOM     41  C   UNL     1      36.120  31.331  42.706  0.00  0.00    +0.000 A 
BRANCH  34  43
ATOM     42  H   UNL     1      37.798  32.942  44.425  0.00  0.00    +0.000 HD
ATOM     43  S   UNL     1      38.436  32.564  43.246  0.00  0.00    +0.000 S 
ATOM     44  O   UNL     1      39.411  31.485  43.651  0.00  0.00    +0.000 OA
ATOM     45  O   UNL     1      39.139  33.796  42.770  0.00  0.00    +0.000 OA
ENDBRANCH  34  43
ENDBRANCH  31  35
ENDBRANCH  28  31
ENDBRANCH   5  28
TORSDOF 7
