
 OpenBabel03252502063D

 49 53  0  0  0  0  0  0  0  0999 V2000
   38.0530   27.7210   39.6520 C   0  0  0  0  0  0  0  0  0  0  0  0
   38.0950   26.4870   39.0830 N   0  0  0  0  0  0  0  0  0  0  0  0
   37.8000   25.3480   39.7020 C   0  0  0  0  0  0  0  0  0  0  0  0
   37.4230   25.3770   41.0010 N   0  0  0  0  0  0  0  0  0  0  0  0
   37.3470   26.5350   41.6600 C   0  0  0  0  0  0  0  0  0  0  0  0
   36.9540   26.5530   42.9830 C   0  0  0  0  0  0  0  0  0  0  0  0
   36.8660   27.7450   43.6690 C   0  0  0  0  0  0  0  0  0  0  0  0
   37.1850   28.9140   42.9890 C   0  0  0  0  0  0  0  0  0  0  0  0
   37.5700   28.8270   41.6650 C   0  0  0  0  0  0  0  0  0  0  0  0
   37.6680   27.6730   40.9600 C   0  0  0  0  0  0  0  0  0  0  0  0
   37.8630   24.4250   39.1700 H   0  0  0  0  0  0  0  0  0  0  0  0
   36.7250   25.5780   43.4310 H   0  0  0  0  0  0  0  0  0  0  0  0
   36.5430   27.6080   44.6970 H   0  0  0  0  0  0  0  0  0  0  0  0
   37.0600   29.7320   43.6800 H   0  0  0  0  0  0  0  0  0  0  0  0
   37.3830   30.4700   37.4330 C   0  0  0  0  0  0  0  0  0  0  0  0
   38.5610   31.2000   37.3280 C   0  0  0  0  0  0  0  0  0  0  0  0
   39.6160   30.7490   38.0490 C   0  0  0  0  0  0  0  0  0  0  0  0
   39.5080   29.6560   38.8060 N   0  0  0  0  0  0  0  0  0  0  0  0
   38.3810   28.9390   38.9110 C   0  0  0  0  0  0  0  0  0  0  0  0
   37.3330   29.3900   38.2020 N   0  0  0  0  0  0  0  0  0  0  0  0
   40.8300   31.4280   38.0370 N   0  0  0  0  0  0  0  0  0  0  0  0
   41.9550   31.1810   38.9660 C   0  0  0  0  0  0  0  0  0  0  0  0
   43.1160   31.9630   38.4170 C   0  0  0  0  0  0  0  0  0  0  0  0
   42.4500   33.0870   37.6740 C   0  0  0  0  0  0  0  0  0  0  0  0
   41.1960   32.4860   37.1370 C   0  0  0  0  0  0  0  0  0  0  0  0
   36.5150   30.8250   36.8600 H   0  0  0  0  0  0  0  0  0  0  0  0
   41.6700   31.4980   39.9870 H   0  0  0  0  0  0  0  0  0  0  0  0
   42.2390   30.1100   38.9130 H   0  0  0  0  0  0  0  0  0  0  0  0
   43.7620   31.3900   37.7420 H   0  0  0  0  0  0  0  0  0  0  0  0
   43.7090   32.3380   39.2890 H   0  0  0  0  0  0  0  0  0  0  0  0
   43.0970   33.5300   36.8780 H   0  0  0  0  0  0  0  0  0  0  0  0
   42.3110   33.9000   38.4150 H   0  0  0  0  0  0  0  0  0  0  0  0
   40.5120   33.3870   37.2020 H   0  0  0  0  0  0  0  0  0  0  0  0
   41.3530   32.1390   36.1180 H   0  0  0  0  0  0  0  0  0  0  0  0
   38.6160   32.2730   36.4460 N   0  0  0  0  0  0  0  0  0  0  0  0
   39.0440   32.3540   35.4960 H   0  0  0  0  0  0  0  0  0  0  0  0
   38.1620   33.1840   36.7410 H   0  0  0  0  0  0  0  0  0  0  0  0
   39.0620   30.6490   41.6600 C   0  0  0  0  0  0  0  0  0  0  0  0
   37.7640   30.2220   41.2950 C   0  0  0  0  0  0  0  0  0  0  0  0
   36.9940   31.1670   40.6360 C   0  0  0  0  0  0  0  0  0  0  0  0
   36.0180   30.7050   40.4150 H   0  0  0  0  0  0  0  0  0  0  0  0
   37.4030   32.4400   40.3300 C   0  0  0  0  0  0  0  0  0  0  0  0
   36.6460   33.0110   39.8140 H   0  0  0  0  0  0  0  0  0  0  0  0
   38.6610   32.8520   40.6840 C   0  0  0  0  0  3  0  0  0  0  0  0
   39.4890   31.9480   41.3510 C   0  0  0  0  0  3  0  0  0  0  0  0
   39.8920   29.2410   43.6520 H   0  0  0  0  0  0  0  0  0  0  0  0
   40.3490   29.7920   42.4880 S   0  0  0  0  0  0  0  0  0  0  0  0
   40.9990   28.8110   41.5930 O   0  0  0  0  0  0  0  0  0  0  0  0
   41.3530   30.8640   42.8920 O   0  0  0  0  0  0  0  0  0  0  0  0
  1 10  1  0  0  0  0
  2  1  2  0  0  0  0
  2  3  1  0  0  0  0
  3  4  2  0  0  0  0
  4  5  1  0  0  0  0
  5  6  1  0  0  0  0
  6 12  1  0  0  0  0
  6  7  2  0  0  0  0
  7 13  1  0  0  0  0
  8  7  1  0  0  0  0
  8 14  1  0  0  0  0
  9  8  2  0  0  0  0
 10  5  2  0  0  0  0
 10  9  1  0  0  0  0
 11  3  1  0  0  0  0
 15 20  1  0  0  0  0
 16 15  2  0  0  0  0
 16 17  1  0  0  0  0
 17 18  2  0  0  0  0
 18 19  1  0  0  0  0
 19  1  1  0  0  0  0
 20 19  2  0  0  0  0
 21 17  1  0  0  0  0
 21 22  1  0  0  0  0
 22 27  1  0  0  0  0
 23 22  1  0  0  0  0
 23 30  1  0  0  0  0
 24 32  1  0  0  0  0
 24 23  1  0  0  0  0
 25 33  1  0  0  0  0
 25 24  1  0  0  0  0
 25 21  1  0  0  0  0
 26 15  1  0  0  0  0
 28 22  1  0  0  0  0
 29 23  1  0  0  0  0
 31 24  1  0  0  0  0
 34 25  1  0  0  0  0
 35 37  1  0  0  0  0
 35 16  1  0  0  0  0
 36 35  1  0  0  0  0
 38 47  1  0  0  0  0
 39 38  2  0  0  0  0
 39  9  1  0  0  0  0
 40 39  1  0  0  0  0
 41 40  1  0  0  0  0
 42 40  2  0  0  0  0
 42 44  1  0  0  0  0
 43 42  1  0  0  0  0
 44 45  2  0  0  0  0
 45 38  1  0  0  0  0
 47 49  2  0  0  0  0
 47 46  1  0  0  0  0
 48 47  2  0  0  0  0
M  END
>  <minimizedAffinity>
-7.116189

$$$$

 OpenBabel03252502063D

 49 53  0  0  0  0  0  0  0  0999 V2000
   36.2680   27.0500   39.0870 C   0  0  0  0  0  0  0  0  0  0  0  0
   35.5510   26.7230   37.9780 N   0  0  0  0  0  0  0  0  0  0  0  0
   35.1970   25.4900   37.6310 C   0  0  0  0  0  0  0  0  0  0  0  0
   35.5610   24.4500   38.4160 N   0  0  0  0  0  0  0  0  0  0  0  0
   36.2680   24.6540   39.5290 C   0  0  0  0  0  0  0  0  0  0  0  0
   36.6260   23.5860   40.3260 C   0  0  0  0  0  0  0  0  0  0  0  0
   37.3500   23.7880   41.4820 C   0  0  0  0  0  0  0  0  0  0  0  0
   37.7030   25.0910   41.8100 C   0  0  0  0  0  0  0  0  0  0  0  0
   37.3110   26.1160   40.9690 C   0  0  0  0  0  0  0  0  0  0  0  0
   36.6000   25.9540   39.8270 C   0  0  0  0  0  0  0  0  0  0  0  0
   34.6330   25.3330   36.7390 H   0  0  0  0  0  0  0  0  0  0  0  0
   36.3020   22.5960   39.9800 H   0  0  0  0  0  0  0  0  0  0  0  0
   37.5580   22.8610   42.0080 H   0  0  0  0  0  0  0  0  0  0  0  0
   38.2590   25.0510   42.7330 H   0  0  0  0  0  0  0  0  0  0  0  0
   35.6980   30.3100   40.4930 C   0  0  0  0  0  0  0  0  0  0  0  0
   36.8280   31.0710   40.2170 C   0  0  0  0  0  0  0  0  0  0  0  0
   37.8240   30.4480   39.5420 C   0  0  0  0  0  0  0  0  0  0  0  0
   37.7010   29.1750   39.1650 N   0  0  0  0  0  0  0  0  0  0  0  0
   36.6150   28.4320   39.4180 C   0  0  0  0  0  0  0  0  0  0  0  0
   35.6310   29.0460   40.0940 N   0  0  0  0  0  0  0  0  0  0  0  0
   39.0090   31.1140   39.2460 N   0  0  0  0  0  0  0  0  0  0  0  0
   40.2460   30.4740   38.7470 C   0  0  0  0  0  0  0  0  0  0  0  0
   41.1550   31.6010   38.3420 C   0  0  0  0  0  0  0  0  0  0  0  0
   40.7080   32.7330   39.2250 C   0  0  0  0  0  0  0  0  0  0  0  0
   39.2400   32.5260   39.3810 C   0  0  0  0  0  0  0  0  0  0  0  0
   34.8830   30.7960   41.0460 H   0  0  0  0  0  0  0  0  0  0  0  0
   40.6810   29.8380   39.5410 H   0  0  0  0  0  0  0  0  0  0  0  0
   40.0120   29.9060   37.8230 H   0  0  0  0  0  0  0  0  0  0  0  0
   41.0710   31.8860   37.2870 H   0  0  0  0  0  0  0  0  0  0  0  0
   42.2020   31.2860   38.5720 H   0  0  0  0  0  0  0  0  0  0  0  0
   40.9640   33.7400   38.8110 H   0  0  0  0  0  0  0  0  0  0  0  0
   41.3060   32.6460   40.1550 H   0  0  0  0  0  0  0  0  0  0  0  0
   39.1090   32.9010   40.4430 H   0  0  0  0  0  0  0  0  0  0  0  0
   38.6970   33.1170   38.6480 H   0  0  0  0  0  0  0  0  0  0  0  0
   36.8380   32.4170   40.5630 N   0  0  0  0  0  0  0  0  0  0  0  0
   36.7050   33.2730   39.9790 H   0  0  0  0  0  0  0  0  0  0  0  0
   37.0040   32.6680   41.5800 H   0  0  0  0  0  0  0  0  0  0  0  0
   39.1580   27.5370   41.3130 C   0  0  0  0  0  0  0  0  0  0  0  0
   37.8060   27.3010   41.6570 C   0  0  0  0  0  0  0  0  0  0  0  0
   37.2370   28.2410   42.5010 C   0  0  0  0  0  0  0  0  0  0  0  0
   36.1940   27.9360   42.6850 H   0  0  0  0  0  0  0  0  0  0  0  0
   37.8840   29.3430   43.0010 C   0  0  0  0  0  0  0  0  0  0  0  0
   37.2560   29.9440   43.6400 H   0  0  0  0  0  0  0  0  0  0  0  0
   39.1930   29.5710   42.6670 C   0  0  0  0  0  3  0  0  0  0  0  0
   39.8270   28.6600   41.8190 C   0  0  0  0  0  3  0  0  0  0  0  0
   40.2230   25.2970   40.6180 H   0  0  0  0  0  0  0  0  0  0  0  0
   40.2450   26.6220   40.2860 S   0  0  0  0  0  0  0  0  0  0  0  0
   39.9630   26.8700   38.8550 O   0  0  0  0  0  0  0  0  0  0  0  0
   41.6410   27.1230   40.6290 O   0  0  0  0  0  0  0  0  0  0  0  0
  1 19  1  0  0  0  0
  1 10  1  0  0  0  0
  2  1  2  0  0  0  0
  3  2  1  0  0  0  0
  3  4  2  0  0  0  0
  4  5  1  0  0  0  0
  5 10  2  0  0  0  0
  5  6  1  0  0  0  0
  6  7  2  0  0  0  0
  7  8  1  0  0  0  0
  7 13  1  0  0  0  0
  8 14  1  0  0  0  0
  9 39  1  0  0  0  0
  9  8  2  0  0  0  0
 10  9  1  0  0  0  0
 11  3  1  0  0  0  0
 12  6  1  0  0  0  0
 15 26  1  0  0  0  0
 16 15  1  0  0  0  0
 16 35  1  0  0  0  0
 17 16  2  0  0  0  0
 18 19  2  0  0  0  0
 18 17  1  0  0  0  0
 19 20  1  0  0  0  0
 20 15  2  0  0  0  0
 21 25  1  0  0  0  0
 21 17  1  0  0  0  0
 22 21  1  0  0  0  0
 22 27  1  0  0  0  0
 23 30  1  0  0  0  0
 23 22  1  0  0  0  0
 23 24  1  0  0  0  0
 24 25  1  0  0  0  0
 24 32  1  0  0  0  0
 25 33  1  0  0  0  0
 28 22  1  0  0  0  0
 29 23  1  0  0  0  0
 31 24  1  0  0  0  0
 34 25  1  0  0  0  0
 35 37  1  0  0  0  0
 36 35  1  0  0  0  0
 38 39  2  0  0  0  0
 38 45  1  0  0  0  0
 39 40  1  0  0  0  0
 40 41  1  0  0  0  0
 40 42  2  0  0  0  0
 42 43  1  0  0  0  0
 44 42  1  0  0  0  0
 45 44  2  0  0  0  0
 47 46  1  0  0  0  0
 47 49  2  0  0  0  0
 47 38  1  0  0  0  0
 48 47  2  0  0  0  0
M  END
>  <minimizedAffinity>
-6.88798904

$$$$

 OpenBabel03252502063D

 49 53  0  0  0  0  0  0  0  0999 V2000
   40.8980   28.6580   40.8280 C   0  0  0  0  0  0  0  0  0  0  0  0
   41.8720   29.1720   40.0300 N   0  0  0  0  0  0  0  0  0  0  0  0
   43.1360   28.7620   40.0040 C   0  0  0  0  0  0  0  0  0  0  0  0
   43.5230   27.7560   40.8200 N   0  0  0  0  0  0  0  0  0  0  0  0
   42.6510   27.1770   41.6460 C   0  0  0  0  0  0  0  0  0  0  0  0
   43.0560   26.1450   42.4690 C   0  0  0  0  0  0  0  0  0  0  0  0
   42.1590   25.5360   43.3200 C   0  0  0  0  0  0  0  0  0  0  0  0
   40.8470   25.9950   43.3210 C   0  0  0  0  0  0  0  0  0  0  0  0
   40.5060   27.0300   42.4720 C   0  0  0  0  0  0  0  0  0  0  0  0
   41.3610   27.6510   41.6230 C   0  0  0  0  0  0  0  0  0  0  0  0
   43.8300   29.2290   39.3410 H   0  0  0  0  0  0  0  0  0  0  0  0
   44.1120   25.8570   42.3950 H   0  0  0  0  0  0  0  0  0  0  0  0
   42.6150   24.7430   43.9030 H   0  0  0  0  0  0  0  0  0  0  0  0
   40.3020   25.4070   44.0420 H   0  0  0  0  0  0  0  0  0  0  0  0
   38.1730   30.7860   41.8170 C   0  0  0  0  0  0  0  0  0  0  0  0
   37.0550   30.3680   41.1040 C   0  0  0  0  0  0  0  0  0  0  0  0
   37.2400   29.3360   40.2450 C   0  0  0  0  0  0  0  0  0  0  0  0
   38.4360   28.7620   40.1150 N   0  0  0  0  0  0  0  0  0  0  0  0
   39.5200   29.1490   40.8010 C   0  0  0  0  0  0  0  0  0  0  0  0
   39.3400   30.1770   41.6460 N   0  0  0  0  0  0  0  0  0  0  0  0
   36.1920   28.8650   39.4610 N   0  0  0  0  0  0  0  0  0  0  0  0
   36.3310   27.9300   38.3230 C   0  0  0  0  0  0  0  0  0  0  0  0
   34.9300   27.5240   37.9550 C   0  0  0  0  0  0  0  0  0  0  0  0
   34.1070   28.7030   38.3950 C   0  0  0  0  0  0  0  0  0  0  0  0
   34.8050   29.2100   39.6110 C   0  0  0  0  0  0  0  0  0  0  0  0
   38.0440   31.6260   42.5130 H   0  0  0  0  0  0  0  0  0  0  0  0
   36.8630   28.4320   37.4930 H   0  0  0  0  0  0  0  0  0  0  0  0
   36.8470   27.0120   38.6700 H   0  0  0  0  0  0  0  0  0  0  0  0
   34.5840   26.6110   38.4510 H   0  0  0  0  0  0  0  0  0  0  0  0
   34.9010   27.3920   36.8450 H   0  0  0  0  0  0  0  0  0  0  0  0
   33.0360   28.4430   38.5840 H   0  0  0  0  0  0  0  0  0  0  0  0
   34.0840   29.3970   37.5310 H   0  0  0  0  0  0  0  0  0  0  0  0
   34.6040   30.3200   39.4930 H   0  0  0  0  0  0  0  0  0  0  0  0
   34.3570   28.7860   40.5070 H   0  0  0  0  0  0  0  0  0  0  0  0
   35.8250   30.9580   41.3660 N   0  0  0  0  0  0  0  0  0  0  0  0
   35.0070   30.6150   41.9190 H   0  0  0  0  0  0  0  0  0  0  0  0
   35.6380   31.9190   40.9600 H   0  0  0  0  0  0  0  0  0  0  0  0
   38.3450   26.2660   41.9310 C   0  0  0  0  0  0  0  0  0  0  0  0
   39.0790   27.1870   42.7150 C   0  0  0  0  0  0  0  0  0  0  0  0
   38.3200   27.9780   43.5630 C   0  0  0  0  0  0  0  0  0  0  0  0
   39.0120   28.6410   44.1070 H   0  0  0  0  0  0  0  0  0  0  0  0
   36.9550   27.9220   43.6800 C   0  0  0  0  0  0  0  0  0  0  0  0
   36.5650   28.6260   44.3990 H   0  0  0  0  0  0  0  0  0  0  0  0
   36.2450   27.0300   42.9190 C   0  0  0  0  0  3  0  0  0  0  0  0
   36.9490   26.2010   42.0430 C   0  0  0  0  0  3  0  0  0  0  0  0
   40.0970   25.4590   40.2240 H   0  0  0  0  0  0  0  0  0  0  0  0
   38.8920   25.0900   40.7510 S   0  0  0  0  0  0  0  0  0  0  0  0
   38.8970   23.7250   41.3210 O   0  0  0  0  0  0  0  0  0  0  0  0
   37.8880   25.1670   39.6090 O   0  0  0  0  0  0  0  0  0  0  0  0
  1 10  1  0  0  0  0
  2  1  2  0  0  0  0
  3  2  1  0  0  0  0
  3  4  2  0  0  0  0
  4  5  1  0  0  0  0
  5  6  1  0  0  0  0
  6  7  2  0  0  0  0
  7  8  1  0  0  0  0
  7 13  1  0  0  0  0
  8 14  1  0  0  0  0
  9 39  1  0  0  0  0
  9  8  2  0  0  0  0
 10  5  2  0  0  0  0
 10  9  1  0  0  0  0
 11  3  1  0  0  0  0
 12  6  1  0  0  0  0
 15 26  1  0  0  0  0
 16 35  1  0  0  0  0
 16 15  2  0  0  0  0
 17 16  1  0  0  0  0
 18 17  2  0  0  0  0
 18 19  1  0  0  0  0
 19  1  1  0  0  0  0
 19 20  2  0  0  0  0
 20 15  1  0  0  0  0
 21 25  1  0  0  0  0
 21 17  1  0  0  0  0
 22 28  1  0  0  0  0
 22 21  1  0  0  0  0
 23 22  1  0  0  0  0
 23 24  1  0  0  0  0
 23 29  1  0  0  0  0
 24 31  1  0  0  0  0
 24 25  1  0  0  0  0
 25 34  1  0  0  0  0
 27 22  1  0  0  0  0
 30 23  1  0  0  0  0
 32 24  1  0  0  0  0
 33 25  1  0  0  0  0
 35 36  1  0  0  0  0
 37 35  1  0  0  0  0
 38 45  2  0  0  0  0
 38 39  1  0  0  0  0
 39 40  2  0  0  0  0
 40 42  1  0  0  0  0
 40 41  1  0  0  0  0
 42 43  1  0  0  0  0
 44 42  2  0  0  0  0
 45 44  1  0  0  0  0
 46 47  1  0  0  0  0
 47 48  2  0  0  0  0
 47 38  1  0  0  0  0
 49 47  2  0  0  0  0
M  END
>  <minimizedAffinity>
-6.78888369

$$$$

 OpenBabel03252502063D

 49 53  0  0  0  0  0  0  0  0999 V2000
   39.7350   27.8660   40.2600 C   0  0  0  0  0  0  0  0  0  0  0  0
   40.3150   26.6730   39.9620 N   0  0  0  0  0  0  0  0  0  0  0  0
   40.0740   25.5270   40.5910 C   0  0  0  0  0  0  0  0  0  0  0  0
   39.1900   25.5040   41.6130 N   0  0  0  0  0  0  0  0  0  0  0  0
   38.5610   26.6180   41.9920 C   0  0  0  0  0  0  0  0  0  0  0  0
   37.6540   26.5810   43.0320 C   0  0  0  0  0  0  0  0  0  0  0  0
   36.9940   27.7260   43.4250 C   0  0  0  0  0  0  0  0  0  0  0  0
   37.2740   28.9060   42.7450 C   0  0  0  0  0  0  0  0  0  0  0  0
   38.1920   28.8740   41.7120 C   0  0  0  0  0  0  0  0  0  0  0  0
   38.8580   27.7680   41.3000 C   0  0  0  0  0  0  0  0  0  0  0  0
   40.5800   24.6390   40.2840 H   0  0  0  0  0  0  0  0  0  0  0  0
   37.5040   25.6030   43.5060 H   0  0  0  0  0  0  0  0  0  0  0  0
   36.3120   27.5480   44.2500 H   0  0  0  0  0  0  0  0  0  0  0  0
   36.6720   29.6830   43.1890 H   0  0  0  0  0  0  0  0  0  0  0  0
   39.3970   30.2090   37.5540 C   0  0  0  0  0  0  0  0  0  0  0  0
   40.3020   31.2370   37.7940 C   0  0  0  0  0  0  0  0  0  0  0  0
   41.0430   31.1350   38.9260 C   0  0  0  0  0  0  0  0  0  0  0  0
   40.8990   30.0920   39.7440 N   0  0  0  0  0  0  0  0  0  0  0  0
   40.0360   29.0920   39.5200 C   0  0  0  0  0  0  0  0  0  0  0  0
   39.2970   29.1960   38.4040 N   0  0  0  0  0  0  0  0  0  0  0  0
   41.9520   32.1280   39.2730 N   0  0  0  0  0  0  0  0  0  0  0  0
   42.6200   32.2510   40.5880 C   0  0  0  0  0  0  0  0  0  0  0  0
   43.6800   33.3030   40.4100 C   0  0  0  0  0  0  0  0  0  0  0  0
   43.1290   34.1590   39.3030 C   0  0  0  0  0  0  0  0  0  0  0  0
   42.3920   33.2040   38.4280 C   0  0  0  0  0  0  0  0  0  0  0  0
   38.7840   30.2790   36.6450 H   0  0  0  0  0  0  0  0  0  0  0  0
   41.8740   32.5210   41.3590 H   0  0  0  0  0  0  0  0  0  0  0  0
   43.1490   31.3030   40.8150 H   0  0  0  0  0  0  0  0  0  0  0  0
   44.6630   32.9060   40.1320 H   0  0  0  0  0  0  0  0  0  0  0  0
   43.7540   33.8690   41.3720 H   0  0  0  0  0  0  0  0  0  0  0  0
   43.9200   34.7300   38.7560 H   0  0  0  0  0  0  0  0  0  0  0  0
   42.5080   34.9320   39.7980 H   0  0  0  0  0  0  0  0  0  0  0  0
   41.5470   33.8780   38.0850 H   0  0  0  0  0  0  0  0  0  0  0  0
   43.0310   32.8690   37.6140 H   0  0  0  0  0  0  0  0  0  0  0  0
   40.4560   32.2400   36.8450 N   0  0  0  0  0  0  0  0  0  0  0  0
   41.2030   32.3960   36.1310 H   0  0  0  0  0  0  0  0  0  0  0  0
   39.7170   32.9980   36.7980 H   0  0  0  0  0  0  0  0  0  0  0  0
   37.1340   30.4210   40.2860 C   0  0  0  0  0  0  0  0  0  0  0  0
   38.1750   30.2470   41.2280 C   0  0  0  0  0  0  0  0  0  0  0  0
   38.9000   31.3900   41.5250 C   0  0  0  0  0  0  0  0  0  0  0  0
   39.6700   31.1120   42.2630 H   0  0  0  0  0  0  0  0  0  0  0  0
   38.6750   32.6280   40.9800 C   0  0  0  0  0  0  0  0  0  0  0  0
   39.3560   33.3800   41.3500 H   0  0  0  0  0  0  0  0  0  0  0  0
   37.6650   32.7950   40.0680 C   0  0  0  0  0  3  0  0  0  0  0  0
   36.8950   31.6820   39.7240 C   0  0  0  0  0  3  0  0  0  0  0  0
   36.5420   28.0200   39.5630 H   0  0  0  0  0  0  0  0  0  0  0  0
   35.9850   29.2650   39.6370 S   0  0  0  0  0  0  0  0  0  0  0  0
   34.7140   29.2930   40.3940 O   0  0  0  0  0  0  0  0  0  0  0  0
   35.7370   29.7060   38.2010 O   0  0  0  0  0  0  0  0  0  0  0  0
  1 10  1  0  0  0  0
  2  1  2  0  0  0  0
  2  3  1  0  0  0  0
  3  4  2  0  0  0  0
  4  5  1  0  0  0  0
  5  6  1  0  0  0  0
  6  7  2  0  0  0  0
  6 12  1  0  0  0  0
  7 13  1  0  0  0  0
  8 14  1  0  0  0  0
  8  7  1  0  0  0  0
  9  8  2  0  0  0  0
 10  9  1  0  0  0  0
 10  5  2  0  0  0  0
 11  3  1  0  0  0  0
 15 16  2  0  0  0  0
 15 20  1  0  0  0  0
 16 17  1  0  0  0  0
 17 21  1  0  0  0  0
 17 18  2  0  0  0  0
 19 18  1  0  0  0  0
 19  1  1  0  0  0  0
 20 19  2  0  0  0  0
 21 22  1  0  0  0  0
 22 28  1  0  0  0  0
 22 27  1  0  0  0  0
 23 22  1  0  0  0  0
 23 30  1  0  0  0  0
 24 32  1  0  0  0  0
 24 23  1  0  0  0  0
 25 21  1  0  0  0  0
 25 24  1  0  0  0  0
 26 15  1  0  0  0  0
 29 23  1  0  0  0  0
 31 24  1  0  0  0  0
 33 25  1  0  0  0  0
 34 25  1  0  0  0  0
 35 16  1  0  0  0  0
 36 35  1  0  0  0  0
 37 35  1  0  0  0  0
 38 39  1  0  0  0  0
 39 40  2  0  0  0  0
 39  9  1  0  0  0  0
 40 41  1  0  0  0  0
 42 43  1  0  0  0  0
 42 40  1  0  0  0  0
 44 42  2  0  0  0  0
 45 44  1  0  0  0  0
 45 38  2  0  0  0  0
 46 47  1  0  0  0  0
 47 38  1  0  0  0  0
 47 48  2  0  0  0  0
 49 47  2  0  0  0  0
M  END
>  <minimizedAffinity>
-6.7262125

$$$$

 OpenBabel03252502063D

 49 53  0  0  0  0  0  0  0  0999 V2000
   36.8640   25.9540   38.9300 C   0  0  0  0  0  0  0  0  0  0  0  0
   36.7040   25.2960   37.7500 N   0  0  0  0  0  0  0  0  0  0  0  0
   35.8950   25.6730   36.7670 C   0  0  0  0  0  0  0  0  0  0  0  0
   35.1540   26.7960   36.9110 N   0  0  0  0  0  0  0  0  0  0  0  0
   35.2310   27.5220   38.0280 C   0  0  0  0  0  0  0  0  0  0  0  0
   34.4770   28.6700   38.1610 C   0  0  0  0  0  0  0  0  0  0  0  0
   34.5570   29.4300   39.3080 C   0  0  0  0  0  0  0  0  0  0  0  0
   35.4120   29.0010   40.3160 C   0  0  0  0  0  0  0  0  0  0  0  0
   36.1400   27.8430   40.1190 C   0  0  0  0  0  0  0  0  0  0  0  0
   36.0870   27.0720   39.0050 C   0  0  0  0  0  0  0  0  0  0  0  0
   35.8360   25.0890   35.8750 H   0  0  0  0  0  0  0  0  0  0  0  0
   33.8310   28.9230   37.3100 H   0  0  0  0  0  0  0  0  0  0  0  0
   33.9120   30.3020   39.2720 H   0  0  0  0  0  0  0  0  0  0  0  0
   35.3390   29.7110   41.1230 H   0  0  0  0  0  0  0  0  0  0  0  0
   37.8190   24.0390   41.8190 C   0  0  0  0  0  0  0  0  0  0  0  0
   39.1380   24.3710   42.1060 C   0  0  0  0  0  0  0  0  0  0  0  0
   39.7270   25.2690   41.2770 C   0  0  0  0  0  0  0  0  0  0  0  0
   39.0550   25.7960   40.2540 N   0  0  0  0  0  0  0  0  0  0  0  0
   37.7820   25.4900   39.9700 C   0  0  0  0  0  0  0  0  0  0  0  0
   37.2000   24.5950   40.7860 N   0  0  0  0  0  0  0  0  0  0  0  0
   41.0540   25.6430   41.4600 N   0  0  0  0  0  0  0  0  0  0  0  0
   41.8680   26.4050   40.4870 C   0  0  0  0  0  0  0  0  0  0  0  0
   43.1290   26.7810   41.2150 C   0  0  0  0  0  0  0  0  0  0  0  0
   43.2670   25.6920   42.2430 C   0  0  0  0  0  0  0  0  0  0  0  0
   41.8630   25.3480   42.6100 C   0  0  0  0  0  0  0  0  0  0  0  0
   37.3280   23.3080   42.4760 H   0  0  0  0  0  0  0  0  0  0  0  0
   42.0590   25.7810   39.5940 H   0  0  0  0  0  0  0  0  0  0  0  0
   41.3460   27.3530   40.2450 H   0  0  0  0  0  0  0  0  0  0  0  0
   43.0890   27.7610   41.7020 H   0  0  0  0  0  0  0  0  0  0  0  0
   43.9640   26.7550   40.4720 H   0  0  0  0  0  0  0  0  0  0  0  0
   43.8860   25.9950   43.1230 H   0  0  0  0  0  0  0  0  0  0  0  0
   43.8450   24.8830   41.7520 H   0  0  0  0  0  0  0  0  0  0  0  0
   41.9850   24.2370   42.8000 H   0  0  0  0  0  0  0  0  0  0  0  0
   41.5600   25.9030   43.4950 H   0  0  0  0  0  0  0  0  0  0  0  0
   39.7370   23.8470   43.2450 N   0  0  0  0  0  0  0  0  0  0  0  0
   39.9280   24.2800   44.1770 H   0  0  0  0  0  0  0  0  0  0  0  0
   40.0720   22.8420   43.2130 H   0  0  0  0  0  0  0  0  0  0  0  0
   38.1190   28.5180   41.2030 C   0  0  0  0  0  0  0  0  0  0  0  0
   36.9360   27.7550   41.3360 C   0  0  0  0  0  0  0  0  0  0  0  0
   36.7580   27.1500   42.5700 C   0  0  0  0  0  0  0  0  0  0  0  0
   35.8070   26.5930   42.5330 H   0  0  0  0  0  0  0  0  0  0  0  0
   37.6280   27.2460   43.6260 C   0  0  0  0  0  0  0  0  0  0  0  0
   37.2970   26.6960   44.4940 H   0  0  0  0  0  0  0  0  0  0  0  0
   38.7740   27.9860   43.4960 C   0  0  0  0  0  3  0  0  0  0  0  0
   39.0140   28.6220   42.2760 C   0  0  0  0  0  3  0  0  0  0  0  0
   38.4000   28.8350   38.6620 H   0  0  0  0  0  0  0  0  0  0  0  0
   38.7290   29.4410   39.8410 S   0  0  0  0  0  0  0  0  0  0  0  0
   38.2930   30.8520   39.9160 O   0  0  0  0  0  0  0  0  0  0  0  0
   40.2460   29.3650   39.9500 O   0  0  0  0  0  0  0  0  0  0  0  0
  1 10  1  0  0  0  0
  1 19  1  0  0  0  0
  2  1  2  0  0  0  0
  3  4  2  0  0  0  0
  3  2  1  0  0  0  0
  4  5  1  0  0  0  0
  5  6  2  0  0  0  0
  5 10  1  0  0  0  0
  6  7  1  0  0  0  0
  7  8  2  0  0  0  0
  8 14  1  0  0  0  0
  9  8  1  0  0  0  0
  9 39  1  0  0  0  0
 10  9  2  0  0  0  0
 11  3  1  0  0  0  0
 12  6  1  0  0  0  0
 13  7  1  0  0  0  0
 15 16  1  0  0  0  0
 15 26  1  0  0  0  0
 16 35  1  0  0  0  0
 17 21  1  0  0  0  0
 17 16  2  0  0  0  0
 18 17  1  0  0  0  0
 19 18  2  0  0  0  0
 19 20  1  0  0  0  0
 20 15  2  0  0  0  0
 21 25  1  0  0  0  0
 22 23  1  0  0  0  0
 22 21  1  0  0  0  0
 23 29  1  0  0  0  0
 23 24  1  0  0  0  0
 24 25  1  0  0  0  0
 24 31  1  0  0  0  0
 25 33  1  0  0  0  0
 25 34  1  0  0  0  0
 27 22  1  0  0  0  0
 28 22  1  0  0  0  0
 30 23  1  0  0  0  0
 32 24  1  0  0  0  0
 35 36  1  0  0  0  0
 37 35  1  0  0  0  0
 38 39  2  0  0  0  0
 38 45  1  0  0  0  0
 39 40  1  0  0  0  0
 40 42  2  0  0  0  0
 41 40  1  0  0  0  0
 42 43  1  0  0  0  0
 44 42  1  0  0  0  0
 45 44  2  0  0  0  0
 46 47  1  0  0  0  0
 47 48  2  0  0  0  0
 47 49  2  0  0  0  0
 47 38  1  0  0  0  0
M  END
>  <minimizedAffinity>
-6.70790863

$$$$

 OpenBabel03252502063D

 49 53  0  0  0  0  0  0  0  0999 V2000
   40.9470   32.5280   40.0320 C   0  0  0  0  0  0  0  0  0  0  0  0
   41.5090   33.5540   40.7250 N   0  0  0  0  0  0  0  0  0  0  0  0
   42.6480   34.1600   40.4080 C   0  0  0  0  0  0  0  0  0  0  0  0
   43.3330   33.7530   39.3150 N   0  0  0  0  0  0  0  0  0  0  0  0
   42.8750   32.7540   38.5590 C   0  0  0  0  0  0  0  0  0  0  0  0
   43.5780   32.3530   37.4420 C   0  0  0  0  0  0  0  0  0  0  0  0
   43.1080   31.3260   36.6510 C   0  0  0  0  0  0  0  0  0  0  0  0
   41.9150   30.7150   37.0170 C   0  0  0  0  0  0  0  0  0  0  0  0
   41.2590   31.1650   38.1470 C   0  0  0  0  0  0  0  0  0  0  0  0
   41.6920   32.1710   38.9460 C   0  0  0  0  0  0  0  0  0  0  0  0
   43.0100   34.9580   41.0160 H   0  0  0  0  0  0  0  0  0  0  0  0
   44.5100   32.8970   37.2380 H   0  0  0  0  0  0  0  0  0  0  0  0
   43.7610   31.1210   35.8080 H   0  0  0  0  0  0  0  0  0  0  0  0
   41.7120   29.9450   36.2900 H   0  0  0  0  0  0  0  0  0  0  0  0
   37.3670   32.2450   40.2070 C   0  0  0  0  0  0  0  0  0  0  0  0
   37.0870   31.1200   40.9740 C   0  0  0  0  0  0  0  0  0  0  0  0
   38.1560   30.4250   41.4360 C   0  0  0  0  0  0  0  0  0  0  0  0
   39.3990   30.8240   41.1620 N   0  0  0  0  0  0  0  0  0  0  0  0
   39.6820   31.9100   40.4300 C   0  0  0  0  0  0  0  0  0  0  0  0
   38.6240   32.5940   39.9660 N   0  0  0  0  0  0  0  0  0  0  0  0
   37.9830   29.2670   42.1850 N   0  0  0  0  0  0  0  0  0  0  0  0
   39.0510   28.3000   42.5210 C   0  0  0  0  0  0  0  0  0  0  0  0
   38.4520   27.3650   43.5350 C   0  0  0  0  0  0  0  0  0  0  0  0
   36.9840   27.4070   43.2110 C   0  0  0  0  0  0  0  0  0  0  0  0
   36.7450   28.8040   42.7500 C   0  0  0  0  0  0  0  0  0  0  0  0
   36.5120   32.8170   39.8190 H   0  0  0  0  0  0  0  0  0  0  0  0
   39.3830   27.7800   41.6030 H   0  0  0  0  0  0  0  0  0  0  0  0
   39.8760   28.8360   43.0320 H   0  0  0  0  0  0  0  0  0  0  0  0
   38.6210   27.6650   44.5750 H   0  0  0  0  0  0  0  0  0  0  0  0
   38.8860   26.3510   43.3520 H   0  0  0  0  0  0  0  0  0  0  0  0
   36.3360   27.1170   44.0750 H   0  0  0  0  0  0  0  0  0  0  0  0
   36.8180   26.6170   42.4510 H   0  0  0  0  0  0  0  0  0  0  0  0
   35.9430   28.6110   41.9730 H   0  0  0  0  0  0  0  0  0  0  0  0
   36.4010   29.4200   43.5780 H   0  0  0  0  0  0  0  0  0  0  0  0
   35.7670   30.8270   41.2900 N   0  0  0  0  0  0  0  0  0  0  0  0
   35.2270   30.9730   42.1730 H   0  0  0  0  0  0  0  0  0  0  0  0
   35.1640   30.3780   40.5420 H   0  0  0  0  0  0  0  0  0  0  0  0
   40.3280   29.1050   38.8050 C   0  0  0  0  0  0  0  0  0  0  0  0
   40.0590   30.3400   38.1700 C   0  0  0  0  0  0  0  0  0  0  0  0
   38.7460   30.5260   37.7680 C   0  0  0  0  0  0  0  0  0  0  0  0
   38.6810   31.5180   37.2930 H   0  0  0  0  0  0  0  0  0  0  0  0
   37.7350   29.6160   37.9430 C   0  0  0  0  0  0  0  0  0  0  0  0
   36.7880   29.9620   37.5550 H   0  0  0  0  0  0  0  0  0  0  0  0
   37.9950   28.4200   38.5580 C   0  0  0  0  0  3  0  0  0  0  0  0
   39.3000   28.1700   38.9880 C   0  0  0  0  0  3  0  0  0  0  0  0
   42.8430   28.6020   38.5680 H   0  0  0  0  0  0  0  0  0  0  0  0
   41.8220   28.4680   39.4660 S   0  0  0  0  0  0  0  0  0  0  0  0
   42.1210   29.0680   40.7850 O   0  0  0  0  0  0  0  0  0  0  0  0
   41.5890   26.9720   39.6230 O   0  0  0  0  0  0  0  0  0  0  0  0
  1 19  1  0  0  0  0
  1  2  1  0  0  0  0
  3  2  2  0  0  0  0
  3 11  1  0  0  0  0
  4  3  1  0  0  0  0
  5 10  1  0  0  0  0
  5  4  2  0  0  0  0
  6  5  1  0  0  0  0
  7  8  1  0  0  0  0
  7  6  2  0  0  0  0
  8  9  2  0  0  0  0
  9 39  1  0  0  0  0
  9 10  1  0  0  0  0
 10  1  2  0  0  0  0
 12  6  1  0  0  0  0
 13  7  1  0  0  0  0
 14  8  1  0  0  0  0
 15 16  1  0  0  0  0
 16 35  1  0  0  0  0
 16 17  2  0  0  0  0
 17 21  1  0  0  0  0
 18 17  1  0  0  0  0
 19 18  2  0  0  0  0
 20 15  2  0  0  0  0
 20 19  1  0  0  0  0
 21 22  1  0  0  0  0
 21 25  1  0  0  0  0
 22 28  1  0  0  0  0
 22 23  1  0  0  0  0
 23 29  1  0  0  0  0
 24 23  1  0  0  0  0
 24 31  1  0  0  0  0
 25 24  1  0  0  0  0
 25 34  1  0  0  0  0
 26 15  1  0  0  0  0
 27 22  1  0  0  0  0
 30 23  1  0  0  0  0
 32 24  1  0  0  0  0
 33 25  1  0  0  0  0
 35 36  1  0  0  0  0
 37 35  1  0  0  0  0
 38 45  1  0  0  0  0
 38 47  1  0  0  0  0
 39 38  2  0  0  0  0
 40 42  2  0  0  0  0
 40 39  1  0  0  0  0
 41 40  1  0  0  0  0
 42 44  1  0  0  0  0
 43 42  1  0  0  0  0
 44 45  2  0  0  0  0
 46 47  1  0  0  0  0
 47 49  2  0  0  0  0
 47 48  2  0  0  0  0
M  END
>  <minimizedAffinity>
-6.6269598

$$$$

 OpenBabel03252502063D

 49 53  0  0  0  0  0  0  0  0999 V2000
   40.6040   29.8540   40.3440 C   0  0  0  0  0  0  0  0  0  0  0  0
   41.7650   30.0790   39.6730 N   0  0  0  0  0  0  0  0  0  0  0  0
   42.0620   31.1890   39.0070 C   0  0  0  0  0  0  0  0  0  0  0  0
   41.1640   32.2000   38.9690 N   0  0  0  0  0  0  0  0  0  0  0  0
   39.9900   32.0890   39.5920 C   0  0  0  0  0  0  0  0  0  0  0  0
   39.0850   33.1300   39.5530 C   0  0  0  0  0  0  0  0  0  0  0  0
   37.8720   33.0260   40.2010 C   0  0  0  0  0  0  0  0  0  0  0  0
   37.5970   31.8490   40.8840 C   0  0  0  0  0  0  0  0  0  0  0  0
   38.5470   30.8450   40.8850 C   0  0  0  0  0  0  0  0  0  0  0  0
   39.7480   30.9130   40.2600 C   0  0  0  0  0  0  0  0  0  0  0  0
   43.0030   31.2730   38.5090 H   0  0  0  0  0  0  0  0  0  0  0  0
   39.3950   34.0170   38.9860 H   0  0  0  0  0  0  0  0  0  0  0  0
   37.2650   33.9190   40.0870 H   0  0  0  0  0  0  0  0  0  0  0  0
   36.6160   31.9510   41.3190 H   0  0  0  0  0  0  0  0  0  0  0  0
   40.7980   27.6070   43.1440 C   0  0  0  0  0  0  0  0  0  0  0  0
   40.1270   26.4460   42.7770 C   0  0  0  0  0  0  0  0  0  0  0  0
   39.5770   26.4340   41.5380 C   0  0  0  0  0  0  0  0  0  0  0  0
   39.6940   27.4870   40.7300 N   0  0  0  0  0  0  0  0  0  0  0  0
   40.3430   28.6100   41.0670 C   0  0  0  0  0  0  0  0  0  0  0  0
   40.8810   28.6260   42.2980 N   0  0  0  0  0  0  0  0  0  0  0  0
   38.8580   25.3320   41.0890 N   0  0  0  0  0  0  0  0  0  0  0  0
   38.0110   25.3020   39.8770 C   0  0  0  0  0  0  0  0  0  0  0  0
   37.6480   23.8580   39.6670 C   0  0  0  0  0  0  0  0  0  0  0  0
   37.7060   23.2870   41.0570 C   0  0  0  0  0  0  0  0  0  0  0  0
   38.8040   24.0430   41.7230 C   0  0  0  0  0  0  0  0  0  0  0  0
   41.2440   27.6380   44.1470 H   0  0  0  0  0  0  0  0  0  0  0  0
   37.1250   25.9480   40.0270 H   0  0  0  0  0  0  0  0  0  0  0  0
   38.6200   25.6060   39.0020 H   0  0  0  0  0  0  0  0  0  0  0  0
   38.3310   23.3160   39.0040 H   0  0  0  0  0  0  0  0  0  0  0  0
   36.6090   23.8300   39.2530 H   0  0  0  0  0  0  0  0  0  0  0  0
   37.8690   22.1800   41.0690 H   0  0  0  0  0  0  0  0  0  0  0  0
   36.6950   23.4310   41.4870 H   0  0  0  0  0  0  0  0  0  0  0  0
   38.3920   24.0810   42.7790 H   0  0  0  0  0  0  0  0  0  0  0  0
   39.7400   23.4940   41.6480 H   0  0  0  0  0  0  0  0  0  0  0  0
   40.1320   25.3590   43.6430 N   0  0  0  0  0  0  0  0  0  0  0  0
   40.6860   24.4730   43.6240 H   0  0  0  0  0  0  0  0  0  0  0  0
   39.4800   25.3860   44.4790 H   0  0  0  0  0  0  0  0  0  0  0  0
   37.0570   29.0220   40.9590 C   0  0  0  0  0  0  0  0  0  0  0  0
   37.9340   29.8250   41.7250 C   0  0  0  0  0  0  0  0  0  0  0  0
   38.0670   29.4550   43.0540 C   0  0  0  0  0  0  0  0  0  0  0  0
   38.7710   30.1580   43.5270 H   0  0  0  0  0  0  0  0  0  0  0  0
   37.4220   28.3970   43.6430 C   0  0  0  0  0  0  0  0  0  0  0  0
   37.6680   28.2850   44.6890 H   0  0  0  0  0  0  0  0  0  0  0  0
   36.5730   27.6190   42.9000 C   0  0  0  0  0  3  0  0  0  0  0  0
   36.3950   27.9390   41.5520 C   0  0  0  0  0  3  0  0  0  0  0  0
   36.1880   30.3890   38.9560 H   0  0  0  0  0  0  0  0  0  0  0  0
   36.6070   29.1270   39.2670 S   0  0  0  0  0  0  0  0  0  0  0  0
   37.6980   28.6420   38.3940 O   0  0  0  0  0  0  0  0  0  0  0  0
   35.3890   28.2260   39.1170 O   0  0  0  0  0  0  0  0  0  0  0  0
  1 19  1  0  0  0  0
  2  1  2  0  0  0  0
  3  2  1  0  0  0  0
  4  3  2  0  0  0  0
  4  5  1  0  0  0  0
  5 10  1  0  0  0  0
  6  5  2  0  0  0  0
  6  7  1  0  0  0  0
  7  8  2  0  0  0  0
  8  9  1  0  0  0  0
  8 14  1  0  0  0  0
  9 39  1  0  0  0  0
 10  1  1  0  0  0  0
 10  9  2  0  0  0  0
 11  3  1  0  0  0  0
 12  6  1  0  0  0  0
 13  7  1  0  0  0  0
 15 26  1  0  0  0  0
 16 15  1  0  0  0  0
 16 35  1  0  0  0  0
 17 16  2  0  0  0  0
 18 19  2  0  0  0  0
 18 17  1  0  0  0  0
 19 20  1  0  0  0  0
 20 15  2  0  0  0  0
 21 17  1  0  0  0  0
 21 25  1  0  0  0  0
 22 27  1  0  0  0  0
 22 21  1  0  0  0  0
 23 22  1  0  0  0  0
 23 24  1  0  0  0  0
 24 31  1  0  0  0  0
 24 32  1  0  0  0  0
 24 25  1  0  0  0  0
 25 33  1  0  0  0  0
 28 22  1  0  0  0  0
 29 23  1  0  0  0  0
 30 23  1  0  0  0  0
 34 25  1  0  0  0  0
 35 37  1  0  0  0  0
 36 35  1  0  0  0  0
 38 45  2  0  0  0  0
 38 39  1  0  0  0  0
 39 40  2  0  0  0  0
 40 41  1  0  0  0  0
 40 42  1  0  0  0  0
 42 43  1  0  0  0  0
 44 42  2  0  0  0  0
 45 44  1  0  0  0  0
 46 47  1  0  0  0  0
 47 38  1  0  0  0  0
 48 47  2  0  0  0  0
 49 47  2  0  0  0  0
M  END
>  <minimizedAffinity>
-6.60656977

$$$$

 OpenBabel03252502063D

 49 53  0  0  0  0  0  0  0  0999 V2000
   39.4070   26.4200   38.8370 C   0  0  0  0  0  0  0  0  0  0  0  0
   40.6780   26.0390   38.5380 N   0  0  0  0  0  0  0  0  0  0  0  0
   41.2490   24.9040   38.9260 C   0  0  0  0  0  0  0  0  0  0  0  0
   40.5440   24.0320   39.6810 N   0  0  0  0  0  0  0  0  0  0  0  0
   39.2860   24.3020   40.0360 C   0  0  0  0  0  0  0  0  0  0  0  0
   38.5740   23.4000   40.8000 C   0  0  0  0  0  0  0  0  0  0  0  0
   37.2720   23.6680   41.1640 C   0  0  0  0  0  0  0  0  0  0  0  0
   36.7090   24.8660   40.7410 C   0  0  0  0  0  0  0  0  0  0  0  0
   37.4770   25.7250   39.9770 C   0  0  0  0  0  0  0  0  0  0  0  0
   38.7580   25.4940   39.6010 C   0  0  0  0  0  0  0  0  0  0  0  0
   42.2550   24.6930   38.6400 H   0  0  0  0  0  0  0  0  0  0  0  0
   39.1060   22.4830   41.0850 H   0  0  0  0  0  0  0  0  0  0  0  0
   36.8360   22.8710   41.7600 H   0  0  0  0  0  0  0  0  0  0  0  0
   35.7000   24.8990   41.1190 H   0  0  0  0  0  0  0  0  0  0  0  0
   37.7930   28.5870   36.4650 C   0  0  0  0  0  0  0  0  0  0  0  0
   37.6870   29.8360   37.0660 C   0  0  0  0  0  0  0  0  0  0  0  0
   38.1700   29.9400   38.3290 C   0  0  0  0  0  0  0  0  0  0  0  0
   38.7190   28.8880   38.9380 N   0  0  0  0  0  0  0  0  0  0  0  0
   38.8330   27.6810   38.3680 C   0  0  0  0  0  0  0  0  0  0  0  0
   38.3480   27.5750   37.1200 N   0  0  0  0  0  0  0  0  0  0  0  0
   38.0830   31.1380   39.0280 N   0  0  0  0  0  0  0  0  0  0  0  0
   38.3380   31.3020   40.4770 C   0  0  0  0  0  0  0  0  0  0  0  0
   38.3670   32.7850   40.7220 C   0  0  0  0  0  0  0  0  0  0  0  0
   37.4870   33.3280   39.6300 C   0  0  0  0  0  0  0  0  0  0  0  0
   37.7220   32.4140   38.4750 C   0  0  0  0  0  0  0  0  0  0  0  0
   37.4010   28.4830   35.4440 H   0  0  0  0  0  0  0  0  0  0  0  0
   37.5460   30.7880   41.0540 H   0  0  0  0  0  0  0  0  0  0  0  0
   39.3530   30.9220   40.7100 H   0  0  0  0  0  0  0  0  0  0  0  0
   39.3660   33.2290   40.6620 H   0  0  0  0  0  0  0  0  0  0  0  0
   37.9270   32.9660   41.7340 H   0  0  0  0  0  0  0  0  0  0  0  0
   37.6990   34.3990   39.3880 H   0  0  0  0  0  0  0  0  0  0  0  0
   36.4570   33.3260   40.0410 H   0  0  0  0  0  0  0  0  0  0  0  0
   36.6860   32.4260   38.0130 H   0  0  0  0  0  0  0  0  0  0  0  0
   38.4880   32.8240   37.8210 H   0  0  0  0  0  0  0  0  0  0  0  0
   37.1870   30.9020   36.3290 N   0  0  0  0  0  0  0  0  0  0  0  0
   37.6750   31.6990   35.8620 H   0  0  0  0  0  0  0  0  0  0  0  0
   36.1370   30.9600   36.1890 H   0  0  0  0  0  0  0  0  0  0  0  0
   36.5100   27.7170   40.7790 C   0  0  0  0  0  0  0  0  0  0  0  0
   36.5520   26.8130   39.6920 C   0  0  0  0  0  0  0  0  0  0  0  0
   35.7750   27.1650   38.5990 C   0  0  0  0  0  0  0  0  0  0  0  0
   35.9000   26.3800   37.8360 H   0  0  0  0  0  0  0  0  0  0  0  0
   35.0010   28.2940   38.5160 C   0  0  0  0  0  0  0  0  0  0  0  0
   34.4770   28.3760   37.5760 H   0  0  0  0  0  0  0  0  0  0  0  0
   34.9630   29.1700   39.5690 C   0  0  0  0  0  3  0  0  0  0  0  0
   35.7230   28.8740   40.7030 C   0  0  0  0  0  3  0  0  0  0  0  0
   38.1770   26.6000   42.3930 H   0  0  0  0  0  0  0  0  0  0  0  0
   37.3280   27.6670   42.3300 S   0  0  0  0  0  0  0  0  0  0  0  0
   37.9870   28.9580   42.6270 O   0  0  0  0  0  0  0  0  0  0  0  0
   36.2330   27.4010   43.3540 O   0  0  0  0  0  0  0  0  0  0  0  0
  1 10  1  0  0  0  0
  2  1  2  0  0  0  0
  2  3  1  0  0  0  0
  3  4  2  0  0  0  0
  4  5  1  0  0  0  0
  5  6  1  0  0  0  0
  6 12  1  0  0  0  0
  6  7  2  0  0  0  0
  7 13  1  0  0  0  0
  8 14  1  0  0  0  0
  8  7  1  0  0  0  0
  9  8  2  0  0  0  0
 10  9  1  0  0  0  0
 10  5  2  0  0  0  0
 11  3  1  0  0  0  0
 15 16  2  0  0  0  0
 15 20  1  0  0  0  0
 16 17  1  0  0  0  0
 17 18  2  0  0  0  0
 17 21  1  0  0  0  0
 19  1  1  0  0  0  0
 19 18  1  0  0  0  0
 20 19  2  0  0  0  0
 21 22  1  0  0  0  0
 22 28  1  0  0  0  0
 22 23  1  0  0  0  0
 22 27  1  0  0  0  0
 23 30  1  0  0  0  0
 24 32  1  0  0  0  0
 24 23  1  0  0  0  0
 25 21  1  0  0  0  0
 25 24  1  0  0  0  0
 26 15  1  0  0  0  0
 29 23  1  0  0  0  0
 31 24  1  0  0  0  0
 33 25  1  0  0  0  0
 34 25  1  0  0  0  0
 35 16  1  0  0  0  0
 36 35  1  0  0  0  0
 37 35  1  0  0  0  0
 38 47  1  0  0  0  0
 39  9  1  0  0  0  0
 39 38  2  0  0  0  0
 40 39  1  0  0  0  0
 41 40  1  0  0  0  0
 42 40  2  0  0  0  0
 42 44  1  0  0  0  0
 43 42  1  0  0  0  0
 44 45  2  0  0  0  0
 45 38  1  0  0  0  0
 47 46  1  0  0  0  0
 47 48  2  0  0  0  0
 47 49  2  0  0  0  0
M  END
>  <minimizedAffinity>
-6.52440977

$$$$

 OpenBabel03252502063D

 49 53  0  0  0  0  0  0  0  0999 V2000
   37.1800   27.3920   41.2500 C   0  0  0  0  0  0  0  0  0  0  0  0
   37.0200   26.8360   42.4810 N   0  0  0  0  0  0  0  0  0  0  0  0
   36.8760   25.5370   42.7220 C   0  0  0  0  0  0  0  0  0  0  0  0
   36.8820   24.6660   41.6870 N   0  0  0  0  0  0  0  0  0  0  0  0
   37.0320   25.1010   40.4350 C   0  0  0  0  0  0  0  0  0  0  0  0
   37.0450   24.2020   39.3870 C   0  0  0  0  0  0  0  0  0  0  0  0
   37.2060   24.6420   38.0910 C   0  0  0  0  0  0  0  0  0  0  0  0
   37.3510   26.0080   37.8790 C   0  0  0  0  0  0  0  0  0  0  0  0
   37.3310   26.8540   38.9710 C   0  0  0  0  0  0  0  0  0  0  0  0
   37.1740   26.4560   40.2580 C   0  0  0  0  0  0  0  0  0  0  0  0
   36.7560   25.1950   43.7250 H   0  0  0  0  0  0  0  0  0  0  0  0
   36.9210   23.1460   39.6570 H   0  0  0  0  0  0  0  0  0  0  0  0
   37.1990   23.8270   37.3730 H   0  0  0  0  0  0  0  0  0  0  0  0
   37.4630   26.1580   36.8170 H   0  0  0  0  0  0  0  0  0  0  0  0
   36.0430   30.7720   40.7890 C   0  0  0  0  0  0  0  0  0  0  0  0
   37.1780   31.5640   40.6500 C   0  0  0  0  0  0  0  0  0  0  0  0
   38.3710   30.9260   40.7320 C   0  0  0  0  0  0  0  0  0  0  0  0
   38.4290   29.6080   40.9270 N   0  0  0  0  0  0  0  0  0  0  0  0
   37.3440   28.8320   41.0550 C   0  0  0  0  0  0  0  0  0  0  0  0
   36.1610   29.4650   40.9820 N   0  0  0  0  0  0  0  0  0  0  0  0
   39.5640   31.6340   40.6390 N   0  0  0  0  0  0  0  0  0  0  0  0
   40.9040   31.0950   40.9630 C   0  0  0  0  0  0  0  0  0  0  0  0
   41.8870   32.1250   40.4780 C   0  0  0  0  0  0  0  0  0  0  0  0
   41.1020   33.4050   40.5510 C   0  0  0  0  0  0  0  0  0  0  0  0
   39.7040   33.0030   40.2260 C   0  0  0  0  0  0  0  0  0  0  0  0
   35.0670   31.2730   40.7320 H   0  0  0  0  0  0  0  0  0  0  0  0
   40.9770   30.9120   42.0510 H   0  0  0  0  0  0  0  0  0  0  0  0
   41.0800   30.1800   40.3610 H   0  0  0  0  0  0  0  0  0  0  0  0
   42.2450   31.9550   39.4570 H   0  0  0  0  0  0  0  0  0  0  0  0
   42.7480   32.1270   41.1910 H   0  0  0  0  0  0  0  0  0  0  0  0
   41.4970   34.2000   39.8700 H   0  0  0  0  0  0  0  0  0  0  0  0
   41.2620   33.8010   41.5740 H   0  0  0  0  0  0  0  0  0  0  0  0
   39.1410   33.7300   40.8890 H   0  0  0  0  0  0  0  0  0  0  0  0
   39.5070   33.1480   39.1660 H   0  0  0  0  0  0  0  0  0  0  0  0
   37.0290   32.9140   40.3580 N   0  0  0  0  0  0  0  0  0  0  0  0
   37.1420   33.4340   39.4580 H   0  0  0  0  0  0  0  0  0  0  0  0
   36.7570   33.5670   41.1470 H   0  0  0  0  0  0  0  0  0  0  0  0
   36.3350   28.7200   37.9360 C   0  0  0  0  0  0  0  0  0  0  0  0
   37.5600   28.1600   38.3690 C   0  0  0  0  0  0  0  0  0  0  0  0
   38.6740   28.9630   38.1880 C   0  0  0  0  0  0  0  0  0  0  0  0
   39.5490   28.4080   38.5650 H   0  0  0  0  0  0  0  0  0  0  0  0
   38.6580   30.2180   37.6360 C   0  0  0  0  0  0  0  0  0  0  0  0
   39.6380   30.6690   37.5890 H   0  0  0  0  0  0  0  0  0  0  0  0
   37.4710   30.7600   37.2170 C   0  0  0  0  0  3  0  0  0  0  0  0
   36.3080   30.0020   37.3710 C   0  0  0  0  0  3  0  0  0  0  0  0
   34.6920   26.8540   38.6080 H   0  0  0  0  0  0  0  0  0  0  0  0
   34.7080   28.0660   37.9790 S   0  0  0  0  0  0  0  0  0  0  0  0
   33.7570   29.0390   38.5580 O   0  0  0  0  0  0  0  0  0  0  0  0
   34.3440   27.7940   36.5250 O   0  0  0  0  0  0  0  0  0  0  0  0
  1  2  1  0  0  0  0
  2  3  2  0  0  0  0
  3 11  1  0  0  0  0
  4  3  1  0  0  0  0
  5  4  2  0  0  0  0
  6 12  1  0  0  0  0
  6  5  1  0  0  0  0
  7  6  2  0  0  0  0
  8  7  1  0  0  0  0
  8  9  2  0  0  0  0
  9 10  1  0  0  0  0
 10  5  1  0  0  0  0
 10  1  2  0  0  0  0
 13  7  1  0  0  0  0
 14  8  1  0  0  0  0
 15 20  1  0  0  0  0
 16 17  1  0  0  0  0
 16 15  2  0  0  0  0
 17 18  2  0  0  0  0
 18 19  1  0  0  0  0
 19  1  1  0  0  0  0
 20 19  2  0  0  0  0
 21 17  1  0  0  0  0
 21 22  1  0  0  0  0
 22 27  1  0  0  0  0
 23 24  1  0  0  0  0
 23 22  1  0  0  0  0
 23 30  1  0  0  0  0
 24 32  1  0  0  0  0
 25 24  1  0  0  0  0
 25 21  1  0  0  0  0
 25 33  1  0  0  0  0
 26 15  1  0  0  0  0
 28 22  1  0  0  0  0
 29 23  1  0  0  0  0
 31 24  1  0  0  0  0
 34 25  1  0  0  0  0
 35 16  1  0  0  0  0
 35 37  1  0  0  0  0
 36 35  1  0  0  0  0
 38 47  1  0  0  0  0
 38 39  1  0  0  0  0
 39  9  1  0  0  0  0
 40 39  2  0  0  0  0
 40 41  1  0  0  0  0
 42 40  1  0  0  0  0
 43 42  1  0  0  0  0
 44 45  1  0  0  0  0
 44 42  2  0  0  0  0
 45 38  2  0  0  0  0
 47 48  2  0  0  0  0
 47 46  1  0  0  0  0
 49 47  2  0  0  0  0
M  END
>  <minimizedAffinity>
-6.52385616

$$$$
