
     RDKit          3D

 45 48  0  0  0  0  0  0  0  0999 V2000
   47.1911   34.5606   42.0141 C   0  0  1  0  0  0  0  0  0  0  0  0
   48.2994   35.4363   41.6976 C   0  0  0  0  0  0  0  0  0  0  0  0
   48.6132   34.1262   42.3415 C   0  0  2  0  0  0  0  0  0  0  0  0
   45.5117   36.0337   43.1911 C   0  0  0  0  0  0  0  0  0  0  0  0
   46.2802   34.8372   43.1532 C   0  0  0  0  0  0  0  0  0  0  0  0
   46.1397   33.9622   44.2142 C   0  0  0  0  0  0  0  0  0  0  0  0
   45.2824   34.3082   45.2092 N   0  0  0  0  0  0  0  0  0  0  0  0
   44.5661   35.4482   45.2201 C   0  0  0  0  0  0  0  0  0  0  0  0
   44.6754   36.3355   44.1958 N   0  0  0  0  0  0  0  0  0  0  0  0
   49.3062   33.1917   41.4947 N   0  0  0  0  0  0  0  0  0  0  0  0
   50.6460   33.1176   41.9884 C   0  0  0  0  0  0  0  0  0  0  0  0
   51.3392   31.8222   41.7875 C   0  0  0  0  0  0  0  0  0  0  0  0
   50.6262   30.7363   42.5345 C   0  0  0  0  0  0  0  0  0  0  0  0
   49.1608   30.9947   42.5557 C   0  0  0  0  0  0  0  0  0  0  0  0
   48.7102   31.8684   41.4583 C   0  0  2  0  0  0  0  0  0  0  0  0
   46.7345   33.8926   41.2398 H   0  0  0  0  0  0  0  0  0  0  0  0
   48.4053   36.3601   42.3333 H   0  0  0  0  0  0  0  0  0  0  0  0
   48.6262   35.6355   40.6678 H   0  0  0  0  0  0  0  0  0  0  0  0
   48.9087   34.1300   43.4052 H   0  0  0  0  0  0  0  0  0  0  0  0
   45.6662   36.6811   42.3281 H   0  0  0  0  0  0  0  0  0  0  0  0
   46.6981   33.0369   44.2409 H   0  0  0  0  0  0  0  0  0  0  0  0
   43.8974   35.6703   46.0418 H   0  0  0  0  0  0  0  0  0  0  0  0
   50.6478   33.3109   43.0978 H   0  0  0  0  0  0  0  0  0  0  0  0
   51.3118   33.9081   41.5327 H   0  0  0  0  0  0  0  0  0  0  0  0
   51.6500   31.5544   40.7840 H   0  0  0  0  0  0  0  0  0  0  0  0
   52.3334   31.9375   42.3444 H   0  0  0  0  0  0  0  0  0  0  0  0
   50.8664   29.7249   42.0918 H   0  0  0  0  0  0  0  0  0  0  0  0
   50.9888   30.6786   43.5835 H   0  0  0  0  0  0  0  0  0  0  0  0
   48.6739   30.0335   42.5801 H   0  0  0  0  0  0  0  0  0  0  0  0
   48.8734   31.5069   43.5170 H   0  0  0  0  0  0  0  0  0  0  0  0
   47.6414   32.1437   41.7545 H   0  0  0  0  0  0  0  0  0  0  0  0
   46.8114   28.7759   41.7915 H   0  0  0  0  0  0  0  0  0  0  0  0
   46.3725   29.8755   41.0553 S   0  0  0  0  0  0  0  0  0  0  0  0
   45.7330   30.8963   41.9090 O   0  0  0  0  0  0  0  0  0  0  0  0
   45.1729   29.2609   40.3218 O   0  0  0  0  0  0  0  0  0  0  0  0
   47.5049   30.4161   39.8849 C   0  0  0  0  0  0  0  0  0  0  0  0
   48.5616   31.3151   40.1143 C   0  0  0  0  0  0  0  0  0  0  0  0
   49.3743   31.6200   39.0106 C   0  0  0  0  0  0  0  0  0  0  0  0
   50.1885   32.3188   39.1470 H   0  0  0  0  0  0  0  0  0  0  0  0
   49.2273   31.1249   37.7561 C   0  0  0  0  0  0  0  0  0  0  0  0
   49.8924   31.4032   36.9498 H   0  0  0  0  0  0  0  0  0  0  0  0
   48.2060   30.2484   37.5104 C   0  0  0  0  0  0  0  0  0  0  0  0
   47.3863   29.9262   38.5727 C   0  0  0  0  0  0  0  0  0  0  0  0
   48.0247   29.8119   36.5386 H   0  0  0  0  0  0  0  0  0  0  0  0
   46.5712   29.2181   38.3481 H   0  0  0  0  0  0  0  0  0  0  0  0
  1  3  1  0
  1  5  1  0
  2  1  1  0
  2  3  1  0
  4  9  2  0
  5  4  1  0
  5  6  2  0
  6  7  1  0
  8  7  2  0
  9  8  1  0
 10 11  1  0
 10  3  1  0
 12 11  1  0
 12 13  1  0
 13 14  1  0
 15 10  1  0
 15 14  1  0
  1 16  1  6
  2 17  1  0
  2 18  1  0
  3 19  1  1
  4 20  1  0
  6 21  1  0
  8 22  1  0
 11 23  1  0
 11 24  1  0
 12 25  1  0
 12 26  1  0
 13 27  1  0
 13 28  1  0
 14 29  1  0
 14 30  1  0
 15 31  1  1
 32 33  1  0
 33 34  2  0
 33 35  2  0
 33 36  1  0
 36 37  2  0
 37 38  1  0
 38 39  1  0
 38 40  2  0
 40 41  1  0
 40 42  1  0
 42 43  2  0
 43 36  1  0
 42 44  1  0
 43 45  1  0
 15 37  1  0
M  ISO  8  16  13  17  13  18  13  19  13  20  14  21  14  22  14  23  13
M  ISO  8  24  13  25  13  26  13  27  13  28  13  29  13  30  13  31  13
M  ISO  3  32  12  39  15  41  16
M  END
>  <DihAtoms>  (1) 
9,14,36,35

>  <DihDeg>  (1) 
-150.7752689494894

$$$$
