REMARK  Name = 
REMARK  3 active torsions:
REMARK  status: ('A' for Active; 'I' for Inactive)
REMARK    1  A    between atoms: C_1  and  C_7
REMARK    2  A    between atoms: C_3  and  C_18
REMARK    3  A    between atoms: S_14  and  C_17
REMARK                            x       y       z     vdW  Elec       q    Type
REMARK                         _______ _______ _______ _____ _____    ______ ____
ROOT
ATOM      1  C   UNL     1      47.677  34.955  42.345  0.00  0.00    +0.000 A 
ATOM      2  C   UNL     1      47.914  33.917  43.252  0.00  0.00    +0.000 A 
ATOM      3  C   UNL     1      46.910  33.531  44.134  0.00  0.00    +0.000 A 
ATOM      4  N   UNL     1      45.739  34.201  44.057  0.00  0.00    +0.000 NA
ATOM      5  C   UNL     1      45.510  35.208  43.176  0.00  0.00    +0.000 A 
ATOM      6  N   UNL     1      46.480  35.583  42.322  0.00  0.00    +0.000 NA
ATOM      7  H   UNL     1      48.867  33.436  43.252  0.00  0.00    +0.000 HD
ATOM      8  H   UNL     1      44.568  35.733  43.127  0.00  0.00    +0.000 HD
ENDROOT
BRANCH   3  10
ATOM      9  C   UNL     1      46.249  31.353  45.038  0.00  0.00    +0.000 A 
ATOM     10  C   UNL     1      47.092  32.459  45.103  0.00  0.00    +0.000 A 
ATOM     11  C   UNL     1      48.069  32.508  46.077  0.00  0.00    +0.000 A 
ATOM     12  H   UNL     1      48.743  33.328  46.176  0.00  0.00    +0.000 HD
ATOM     13  C   UNL     1      48.258  31.497  47.007  0.00  0.00    +0.000 A 
ATOM     14  H   UNL     1      49.036  31.548  47.773  0.00  0.00    +0.000 HD
ATOM     15  C   UNL     1      47.446  30.385  46.977  0.00  0.00    +0.000 A 
ATOM     16  C   UNL     1      46.481  30.363  45.997  0.00  0.00    +0.000 A 
BRANCH   9  18
ATOM     17  H   UNL     1      44.066  32.193  43.889  0.00  0.00    +0.000 HD
ATOM     18  S   UNL     1      44.980  31.178  43.854  0.00  0.00    +0.000 S 
ATOM     19  O   UNL     1      44.197  29.927  44.227  0.00  0.00    +0.000 OA
ATOM     20  O   UNL     1      45.518  30.922  42.468  0.00  0.00    +0.000 OA
ENDBRANCH   9  18
ENDBRANCH   3  10
BRANCH   1  21
ATOM     21  C   UNL     1      48.787  35.326  41.426  0.00  0.00    +0.000 C 
ATOM     22  F   UNL     1      48.415  35.248  40.107  0.00  0.00    +0.000 F 
ATOM     23  F   UNL     1      49.218  36.611  41.771  0.00  0.00    +0.000 F 
ATOM     24  F   UNL     1      49.882  34.505  41.667  0.00  0.00    +0.000 F 
ENDBRANCH   1  21
TORSDOF 3
