REMARK  Name = 
REMARK  4 active torsions:
REMARK  status: ('A' for Active; 'I' for Inactive)
REMARK    1  A    between atoms: C_2  and  C_7
REMARK    2  A    between atoms: C_7  and  C_8
REMARK    3  A    between atoms: C_7  and  C_21
REMARK    4  A    between atoms: S_17  and  C_20
REMARK                            x       y       z     vdW  Elec       q    Type
REMARK                         _______ _______ _______ _____ _____    ______ ____
ROOT
ATOM      1  C   UNL     1      46.556  34.972  42.004  0.00  0.00    +0.000 C 
ATOM      2  H   UNL     1      46.128  35.989  41.817  0.00  0.00    +0.000 HD
ENDROOT
BRANCH   1   4
ATOM      3  C   UNL     1      45.189  35.212  44.062  0.00  0.00    +0.000 A 
ATOM      4  C   UNL     1      46.216  34.591  43.362  0.00  0.00    +0.000 A 
ATOM      5  C   UNL     1      46.900  33.563  44.060  0.00  0.00    +0.000 A 
ATOM      6  N   UNL     1      46.514  33.268  45.327  0.00  0.00    +0.000 NA
ATOM      7  C   UNL     1      45.515  33.905  45.943  0.00  0.00    +0.000 A 
ATOM      8  N   UNL     1      44.849  34.883  45.306  0.00  0.00    +0.000 NA
ATOM      9  H   UNL     1      44.593  36.008  43.644  0.00  0.00    +0.000 HD
ATOM     10  H   UNL     1      47.710  33.038  43.577  0.00  0.00    +0.000 HD
ATOM     11  H   UNL     1      45.259  33.617  46.956  0.00  0.00    +0.000 HD
ENDBRANCH   1   4
BRANCH   1  13
ATOM     12  C   UNL     1      46.547  33.946  39.654  0.00  0.00    +0.000 A 
ATOM     13  C   UNL     1      46.095  34.039  40.946  0.00  0.00    +0.000 A 
ATOM     14  C   UNL     1      45.068  33.177  41.339  0.00  0.00    +0.000 A 
ATOM     15  H   UNL     1      44.622  33.145  42.321  0.00  0.00    +0.000 HD
ATOM     16  C   UNL     1      44.513  32.254  40.470  0.00  0.00    +0.000 A 
ATOM     17  H   UNL     1      43.730  31.564  40.693  0.00  0.00    +0.000 HD
ATOM     18  C   UNL     1      44.996  32.193  39.179  0.00  0.00    +0.000 A 
ATOM     19  C   UNL     1      46.009  33.031  38.763  0.00  0.00    +0.000 A 
BRANCH  12  21
ATOM     20  H   UNL     1      47.341  36.227  38.862  0.00  0.00    +0.000 HD
ATOM     21  S   UNL     1      47.824  34.995  39.152  0.00  0.00    +0.000 S 
ATOM     22  O   UNL     1      49.001  35.000  40.086  0.00  0.00    +0.000 OA
ATOM     23  O   UNL     1      48.401  34.470  37.837  0.00  0.00    +0.000 OA
ENDBRANCH  12  21
ENDBRANCH   1  13
BRANCH   1  24
ATOM     24  C   UNL     1      48.057  35.193  41.943  0.00  0.00    +0.000 C 
ATOM     25  H   UNL     1      48.249  36.050  42.654  0.00  0.00    +0.000 HD
ATOM     26  H   UNL     1      48.336  35.527  40.916  0.00  0.00    +0.000 HD
ATOM     27  H   UNL     1      48.645  34.364  42.339  0.00  0.00    +0.000 HD
ENDBRANCH   1  24
TORSDOF 4
