REMARK  Name = 
REMARK  11 active torsions:
REMARK  status: ('A' for Active; 'I' for Inactive)
REMARK    1  A    between atoms: O_1  and  C_3
REMARK    2  A    between atoms: O_1  and  P_11
REMARK    3  A    between atoms: C_2  and  O_7
REMARK    4  A    between atoms: O_7  and  C_8
REMARK    5  A    between atoms: C_8  and  C_9
REMARK    6  A    between atoms: P_11  and  O_12
REMARK    7  A    between atoms: P_11  and  O_13
REMARK    8  A    between atoms: O_13  and  C_18
REMARK    9  A    between atoms: C_14  and  O_20
REMARK   10  A    between atoms: O_20  and  C_40
REMARK   11  A    between atoms: S_36  and  C_39
REMARK                            x       y       z     vdW  Elec       q    Type
REMARK                         _______ _______ _______ _____ _____    ______ ____
ROOT
ATOM      1  O   UNL     1      47.168  32.996  46.945  0.00  0.00    +0.000 OA
ATOM      2  P   UNL     1      45.731  32.668  46.743  0.00  0.00    +0.000 P 
ENDROOT
BRANCH   2   3
ATOM      3  O   UNL     1      45.592  31.469  45.558  0.00  0.00    +0.000 OA
ATOM      4  H   UNL     1      44.833  31.607  44.953  0.00  0.00    +0.000 HD
ENDBRANCH   2   3
BRANCH   2   5
ATOM      5  O   UNL     1      45.156  32.112  48.187  0.00  0.00    +0.000 OA
BRANCH   5   7
ATOM      6  C   UNL     1      46.977  30.571  48.216  0.00  0.00    +0.000 C 
ATOM      7  C   UNL     1      45.526  30.803  48.370  0.00  0.00    +0.000 C 
ATOM      8  C   UNL     1      44.868  29.888  47.459  0.00  0.00    +0.000 C 
ATOM      9  O   UNL     1      45.741  28.825  47.182  0.00  0.00    +0.000 OA
ATOM     10  C   UNL     1      46.835  29.020  47.950  0.00  0.00    +0.000 C 
ATOM     11  H   UNL     1      47.442  30.777  47.236  0.00  0.00    +0.000 HD
ATOM     12  H   UNL     1      45.361  30.646  49.475  0.00  0.00    +0.000 HD
ATOM     13  H   UNL     1      44.137  30.145  46.727  0.00  0.00    +0.000 HD
ATOM     14  H   UNL     1      44.163  29.301  48.151  0.00  0.00    +0.000 HD
ATOM     15  H   UNL     1      46.606  28.622  48.980  0.00  0.00    +0.000 HD
ATOM     16  H   UNL     1      47.783  28.599  47.632  0.00  0.00    +0.000 HD
BRANCH   6  17
ATOM     17  O   UNL     1      47.757  30.729  49.293  0.00  0.00    +0.000 OA
BRANCH  17  18
ATOM     18  C   UNL     1      49.005  31.097  49.302  0.00  0.00    +0.000 C 
ATOM     19  H   UNL     1      49.283  32.096  49.142  0.00  0.00    +0.000 HD
ATOM     20  H   UNL     1      49.460  30.633  48.272  0.00  0.00    +0.000 HD
BRANCH  18  21
ATOM     21  C   UNL     1      49.736  30.313  50.378  0.00  0.00    +0.000 C 
ATOM     22  H   UNL     1      50.787  30.135  50.020  0.00  0.00    +0.000 HD
ATOM     23  H   UNL     1      49.305  29.317  50.530  0.00  0.00    +0.000 HD
ATOM     24  H   UNL     1      49.837  30.897  51.315  0.00  0.00    +0.000 HD
ENDBRANCH  18  21
ENDBRANCH  17  18
ENDBRANCH   6  17
ENDBRANCH   5   7
ENDBRANCH   2   5
BRANCH   2  25
ATOM     25  O   UNL     1      44.989  34.132  46.265  0.00  0.00    +0.000 OA
BRANCH  25  30
ATOM     26  C   UNL     1      44.968  36.408  43.500  0.00  0.00    +0.000 A 
ATOM     27  C   UNL     1      45.031  35.562  42.369  0.00  0.00    +0.000 A 
ATOM     28  C   UNL     1      45.083  34.155  42.602  0.00  0.00    +0.000 A 
ATOM     29  N   UNL     1      45.069  33.717  43.876  0.00  0.00    +0.000 NA
ATOM     30  C   UNL     1      45.007  34.563  44.923  0.00  0.00    +0.000 A 
ATOM     31  N   UNL     1      44.959  35.877  44.711  0.00  0.00    +0.000 NA
ATOM     32  H   UNL     1      45.053  35.668  41.307  0.00  0.00    +0.000 HD
ATOM     33  H   UNL     1      45.135  33.358  41.878  0.00  0.00    +0.000 HD
BRANCH  26  34
ATOM     34  O   UNL     1      44.916  37.716  43.251  0.00  0.00    +0.000 OA
BRANCH  34  36
ATOM     35  C   UNL     1      45.529  39.682  42.802  0.00  0.00    +0.000 A 
ATOM     36  C   UNL     1      44.906  38.546  42.245  0.00  0.00    +0.000 A 
ATOM     37  C   UNL     1      44.540  38.709  40.944  0.00  0.00    +0.000 A 
ATOM     38  H   UNL     1      44.074  37.844  40.543  0.00  0.00    +0.000 HD
ATOM     39  C   UNL     1      44.708  39.817  40.151  0.00  0.00    +0.000 A 
ATOM     40  H   UNL     1      44.352  39.762  39.136  0.00  0.00    +0.000 HD
ATOM     41  C   UNL     1      45.322  40.888  40.757  0.00  0.00    +0.000 A 
ATOM     42  C   UNL     1      45.751  40.864  42.087  0.00  0.00    +0.000 A 
BRANCH  35  44
ATOM     43  H   UNL     1      45.495  41.033  44.968  0.00  0.00    +0.000 HD
ATOM     44  S   UNL     1      46.180  39.978  44.429  0.00  0.00    +0.000 S 
ATOM     45  O   UNL     1      45.992  38.748  45.264  0.00  0.00    +0.000 OA
ATOM     46  O   UNL     1      47.645  40.274  44.268  0.00  0.00    +0.000 OA
ENDBRANCH  35  44
ENDBRANCH  34  36
ENDBRANCH  26  34
ENDBRANCH  25  30
ENDBRANCH   2  25
TORSDOF 11
