
 OpenBabel03252502413D

 49 52  0  0  1  0  0  0  0  0999 V2000
   38.2250   30.7740   40.4370 C   0  0  1  0  0  0  0  0  0  0  0  0
   37.4740   31.1280   41.2030 H   0  0  0  0  0  0  0  0  0  0  0  0
   39.1550   31.8590   40.2780 N   0  0  0  0  0  0  0  0  0  0  0  0
   38.6380   33.1040   40.7040 C   0  0  0  0  0  0  0  0  0  0  0  0
   39.5810   34.1610   40.0920 C   0  0  0  0  0  0  0  0  0  0  0  0
   40.7760   34.0250   40.8850 N   0  0  0  0  0  0  0  0  0  0  0  0
   41.3670   32.7520   40.7650 C   0  0  0  0  0  0  0  0  0  0  0  0
   40.4090   31.5720   40.8370 C   0  0  0  0  0  0  0  0  0  0  0  0
   37.6490   33.3220   40.2460 H   0  0  0  0  0  0  0  0  0  0  0  0
   38.6600   33.2820   41.7880 H   0  0  0  0  0  0  0  0  0  0  0  0
   39.8180   33.8550   39.0600 H   0  0  0  0  0  0  0  0  0  0  0  0
   39.1630   35.1750   40.1950 H   0  0  0  0  0  0  0  0  0  0  0  0
   40.6460   34.3940   41.8380 H   0  0  0  0  0  0  0  0  0  0  0  0
   41.9150   32.6960   39.7920 H   0  0  0  0  0  0  0  0  0  0  0  0
   42.1780   32.6540   41.5400 H   0  0  0  0  0  0  0  0  0  0  0  0
   40.2240   31.6020   41.9590 H   0  0  0  0  0  0  0  0  0  0  0  0
   41.0140   30.7510   40.5290 H   0  0  0  0  0  0  0  0  0  0  0  0
   36.1810   30.0380   39.2250 C   0  0  0  0  0  0  0  0  0  0  0  0
   37.5150   30.3600   39.2640 C   0  0  0  0  0  0  0  0  0  0  0  0
   38.2000   30.2650   38.0370 C   0  0  0  0  0  0  0  0  0  0  0  0
   37.5210   29.8700   36.9170 N   0  0  0  0  0  0  0  0  0  0  0  0
   36.1990   29.5680   36.9620 C   0  0  0  0  0  0  0  0  0  0  0  0
   35.5250   29.6530   38.1270 N   0  0  0  0  0  0  0  0  0  0  0  0
   35.6940   30.1280   40.1840 H   0  0  0  0  0  0  0  0  0  0  0  0
   39.2540   30.5010   37.9780 H   0  0  0  0  0  0  0  0  0  0  0  0
   35.8170   29.2750   36.0020 H   0  0  0  0  0  0  0  0  0  0  0  0
   38.9740   29.5570   40.9980 C   0  0  0  0  0  0  0  0  0  0  0  0
   39.7420   30.1330   41.6070 H   0  0  0  0  0  0  0  0  0  0  0  0
   39.6380   29.0510   40.2990 H   0  0  0  0  0  0  0  0  0  0  0  0
   38.2080   28.6480   41.7840 C   0  0  0  0  0  0  0  0  0  0  0  0
   37.5020   28.6610   42.9380 C   0  0  0  0  0  0  0  0  0  0  0  0
   36.8200   27.6230   43.5420 C   0  0  0  0  0  0  0  0  0  0  0  0
   36.8780   26.4600   42.8860 N   0  0  0  0  0  0  0  0  0  0  0  0
   37.5420   26.3520   41.7530 C   0  0  0  0  0  0  0  0  0  0  0  0
   38.1600   27.4040   41.2600 N   0  0  0  0  0  0  0  0  0  0  0  0
   37.5220   29.6660   43.4070 H   0  0  0  0  0  0  0  0  0  0  0  0
   36.3220   27.8800   44.4770 H   0  0  0  0  0  0  0  0  0  0  0  0
   38.5200   24.0860   41.2590 C   0  0  0  0  0  0  0  0  0  0  0  0
   37.5190   25.0230   41.1390 C   0  0  0  0  0  0  0  0  0  0  0  0
   36.4480   24.6380   40.3750 C   0  0  0  0  0  0  0  0  0  0  0  0
   35.6010   25.3000   40.2140 H   0  0  0  0  0  0  0  0  0  0  0  0
   36.3120   23.4200   39.7430 C   0  0  0  0  0  0  0  0  0  0  0  0
   35.4520   23.1580   39.1510 H   0  0  0  0  0  0  0  0  0  0  0  0
   37.3200   22.4900   39.8710 C   0  0  0  0  0  3  0  0  0  0  0  0
   38.4120   22.8430   40.6310 C   0  0  0  0  0  3  0  0  0  0  0  0
   40.7200   23.3140   42.2780 H   0  0  0  0  0  0  0  0  0  0  0  0
   39.9290   24.4580   42.1980 S   0  0  0  0  0  0  0  0  0  0  0  0
   40.8180   25.4890   41.5550 O   0  0  0  0  0  0  0  0  0  0  0  0
   39.6020   24.8110   43.6090 O   0  0  0  0  0  0  0  0  0  0  0  0
  1 27  1  0  0  0  0
  1  2  1  1  0  0  0
  3  1  1  0  0  0  0
  3  4  1  0  0  0  0
  3  8  1  0  0  0  0
  4 10  1  0  0  0  0
  5 12  1  0  0  0  0
  5  4  1  0  0  0  0
  5  6  1  0  0  0  0
  6 13  1  0  0  0  0
  7  8  1  0  0  0  0
  7  6  1  0  0  0  0
  7 15  1  0  0  0  0
  8 16  1  0  0  0  0
  9  4  1  0  0  0  0
 11  5  1  0  0  0  0
 14  7  1  0  0  0  0
 17  8  1  0  0  0  0
 18 19  1  0  0  0  0
 18 24  1  0  0  0  0
 19  1  1  0  0  0  0
 20 19  2  0  0  0  0
 21 22  2  0  0  0  0
 21 20  1  0  0  0  0
 22 23  1  0  0  0  0
 23 18  2  0  0  0  0
 25 20  1  0  0  0  0
 26 22  1  0  0  0  0
 27 28  1  0  0  0  0
 27 30  1  0  0  0  0
 29 27  1  0  0  0  0
 30 31  1  0  0  0  0
 31 36  1  0  0  0  0
 31 32  2  0  0  0  0
 32 37  1  0  0  0  0
 33 32  1  0  0  0  0
 34 33  2  0  0  0  0
 35 34  1  0  0  0  0
 35 30  2  0  0  0  0
 38 47  1  0  0  0  0
 39 38  1  0  0  0  0
 39 34  1  0  0  0  0
 40 39  2  0  0  0  0
 41 40  1  0  0  0  0
 42 44  2  0  0  0  0
 42 40  1  0  0  0  0
 43 42  1  0  0  0  0
 44 45  1  0  0  0  0
 45 38  2  0  0  0  0
 47 46  1  0  0  0  0
 47 49  2  0  0  0  0
 48 47  2  0  0  0  0
M  END
>  <minimizedAffinity>
-5.78957844

$$$$

 OpenBabel03252502413D

 49 52  0  0  1  0  0  0  0  0999 V2000
   40.7200   31.2700   39.6660 C   0  0  1  0  0  0  0  0  0  0  0  0
   40.2740   30.2320   39.6690 H   0  0  0  0  0  0  0  0  0  0  0  0
   39.6070   32.1680   39.5160 N   0  0  0  0  0  0  0  0  0  0  0  0
   38.3530   31.5160   39.5600 C   0  0  0  0  0  0  0  0  0  0  0  0
   37.3490   32.5360   38.9870 C   0  0  0  0  0  0  0  0  0  0  0  0
   37.2390   33.5090   40.0440 N   0  0  0  0  0  0  0  0  0  0  0  0
   38.4570   34.1610   40.3130 C   0  0  0  0  0  0  0  0  0  0  0  0
   39.6820   33.2600   40.3930 C   0  0  0  0  0  0  0  0  0  0  0  0
   38.3060   30.6590   38.8540 H   0  0  0  0  0  0  0  0  0  0  0  0
   37.9810   31.2680   40.5640 H   0  0  0  0  0  0  0  0  0  0  0  0
   37.8150   33.0270   38.1170 H   0  0  0  0  0  0  0  0  0  0  0  0
   36.3710   32.0670   38.7910 H   0  0  0  0  0  0  0  0  0  0  0  0
   36.7160   33.1380   40.8500 H   0  0  0  0  0  0  0  0  0  0  0  0
   38.6420   34.9290   39.5230 H   0  0  0  0  0  0  0  0  0  0  0  0
   38.3460   34.7640   41.2580 H   0  0  0  0  0  0  0  0  0  0  0  0
   39.4660   32.8090   41.4140 H   0  0  0  0  0  0  0  0  0  0  0  0
   40.4910   33.9530   40.3980 H   0  0  0  0  0  0  0  0  0  0  0  0
   41.6460   30.7200   37.4230 C   0  0  0  0  0  0  0  0  0  0  0  0
   41.7300   31.3260   38.6530 C   0  0  0  0  0  0  0  0  0  0  0  0
   42.9160   32.0480   38.8950 C   0  0  0  0  0  0  0  0  0  0  0  0
   43.8800   32.1010   37.9260 N   0  0  0  0  0  0  0  0  0  0  0  0
   43.7200   31.4730   36.7350 C   0  0  0  0  0  0  0  0  0  0  0  0
   42.5930   30.7770   36.4830 N   0  0  0  0  0  0  0  0  0  0  0  0
   40.7220   30.1830   37.2770 H   0  0  0  0  0  0  0  0  0  0  0  0
   43.0650   32.5560   39.8380 H   0  0  0  0  0  0  0  0  0  0  0  0
   44.5660   31.6110   36.0870 H   0  0  0  0  0  0  0  0  0  0  0  0
   41.3870   31.5300   41.0240 C   0  0  0  0  0  0  0  0  0  0  0  0
   40.6370   32.2950   41.4050 H   0  0  0  0  0  0  0  0  0  0  0  0
   42.2810   32.1510   40.9960 H   0  0  0  0  0  0  0  0  0  0  0  0
   41.5250   30.4050   41.8880 C   0  0  0  0  0  0  0  0  0  0  0  0
   42.4780   29.8470   42.6690 C   0  0  0  0  0  0  0  0  0  0  0  0
   42.3960   28.7060   43.4440 C   0  0  0  0  0  0  0  0  0  0  0  0
   41.2130   28.0860   43.4030 N   0  0  0  0  0  0  0  0  0  0  0  0
   40.2240   28.5580   42.6700 C   0  0  0  0  0  0  0  0  0  0  0  0
   40.4050   29.6550   41.9660 N   0  0  0  0  0  0  0  0  0  0  0  0
   43.4200   30.4290   42.6280 H   0  0  0  0  0  0  0  0  0  0  0  0
   43.3040   28.4540   43.9910 H   0  0  0  0  0  0  0  0  0  0  0  0
   38.7340   26.6510   41.9790 C   0  0  0  0  0  0  0  0  0  0  0  0
   38.9830   27.7830   42.7210 C   0  0  0  0  0  0  0  0  0  0  0  0
   37.9620   28.1760   43.5480 C   0  0  0  0  0  0  0  0  0  0  0  0
   38.0520   29.0560   44.1780 H   0  0  0  0  0  0  0  0  0  0  0  0
   36.7480   27.5350   43.6800 C   0  0  0  0  0  0  0  0  0  0  0  0
   35.9720   27.8780   44.3420 H   0  0  0  0  0  0  0  0  0  0  0  0
   36.5110   26.4030   42.9330 C   0  0  0  0  0  3  0  0  0  0  0  0
   37.5140   25.9800   42.0910 C   0  0  0  0  0  3  0  0  0  0  0  0
   40.6870   27.1410   40.4230 H   0  0  0  0  0  0  0  0  0  0  0  0
   39.9480   26.0570   40.8950 S   0  0  0  0  0  0  0  0  0  0  0  0
   40.9630   25.1690   41.5640 O   0  0  0  0  0  0  0  0  0  0  0  0
   39.3690   25.4170   39.6790 O   0  0  0  0  0  0  0  0  0  0  0  0
  1  2  1  1  0  0  0
  1 27  1  0  0  0  0
  3  4  1  0  0  0  0
  3  1  1  0  0  0  0
  3  8  1  0  0  0  0
  4 10  1  0  0  0  0
  5  4  1  0  0  0  0
  5  6  1  0  0  0  0
  6  7  1  0  0  0  0
  6 13  1  0  0  0  0
  7  8  1  0  0  0  0
  7 15  1  0  0  0  0
  8 17  1  0  0  0  0
  8 16  1  0  0  0  0
  9  4  1  0  0  0  0
 11  5  1  0  0  0  0
 12  5  1  0  0  0  0
 14  7  1  0  0  0  0
 18 19  1  0  0  0  0
 19 20  2  0  0  0  0
 19  1  1  0  0  0  0
 20 25  1  0  0  0  0
 21 20  1  0  0  0  0
 22 21  2  0  0  0  0
 23 22  1  0  0  0  0
 23 18  2  0  0  0  0
 24 18  1  0  0  0  0
 26 22  1  0  0  0  0
 27 28  1  0  0  0  0
 27 30  1  0  0  0  0
 29 27  1  0  0  0  0
 30 35  2  0  0  0  0
 30 31  1  0  0  0  0
 31 32  2  0  0  0  0
 32 37  1  0  0  0  0
 33 32  1  0  0  0  0
 34 39  1  0  0  0  0
 34 33  2  0  0  0  0
 35 34  1  0  0  0  0
 36 31  1  0  0  0  0
 38 45  2  0  0  0  0
 38 39  1  0  0  0  0
 39 40  2  0  0  0  0
 40 42  1  0  0  0  0
 40 41  1  0  0  0  0
 42 43  1  0  0  0  0
 44 42  2  0  0  0  0
 45 44  1  0  0  0  0
 46 47  1  0  0  0  0
 47 48  2  0  0  0  0
 47 38  1  0  0  0  0
 49 47  2  0  0  0  0
M  END
>  <minimizedAffinity>
-5.77042484

$$$$

 OpenBabel03252502413D

 49 52  0  0  1  0  0  0  0  0999 V2000
   40.5720   31.3710   38.8900 C   0  0  1  0  0  0  0  0  0  0  0  0
   40.2470   30.9300   37.9020 H   0  0  0  0  0  0  0  0  0  0  0  0
   39.3800   31.9150   39.4810 N   0  0  0  0  0  0  0  0  0  0  0  0
   39.4460   33.3130   39.6860 C   0  0  0  0  0  0  0  0  0  0  0  0
   38.2990   33.6300   40.6680 C   0  0  0  0  0  0  0  0  0  0  0  0
   37.1230   33.4840   39.8470 N   0  0  0  0  0  0  0  0  0  0  0  0
   36.9620   32.1750   39.3540 C   0  0  0  0  0  0  0  0  0  0  0  0
   38.2190   31.5210   38.7980 C   0  0  0  0  0  0  0  0  0  0  0  0
   40.3660   33.6080   40.2360 H   0  0  0  0  0  0  0  0  0  0  0  0
   39.2550   33.9330   38.8000 H   0  0  0  0  0  0  0  0  0  0  0  0
   38.2780   32.8430   41.4390 H   0  0  0  0  0  0  0  0  0  0  0  0
   38.3760   34.6590   41.0520 H   0  0  0  0  0  0  0  0  0  0  0  0
   37.0330   34.2550   39.1710 H   0  0  0  0  0  0  0  0  0  0  0  0
   36.5640   31.5240   40.1720 H   0  0  0  0  0  0  0  0  0  0  0  0
   36.1410   32.1760   38.5840 H   0  0  0  0  0  0  0  0  0  0  0  0
   38.2650   32.1000   37.8200 H   0  0  0  0  0  0  0  0  0  0  0  0
   37.9280   30.5040   38.6760 H   0  0  0  0  0  0  0  0  0  0  0  0
   41.7860   33.0460   37.5080 C   0  0  0  0  0  0  0  0  0  0  0  0
   41.6430   32.2890   38.6450 C   0  0  0  0  0  0  0  0  0  0  0  0
   42.6460   32.4610   39.6200 C   0  0  0  0  0  0  0  0  0  0  0  0
   43.6680   33.3390   39.3850 N   0  0  0  0  0  0  0  0  0  0  0  0
   43.7380   34.0500   38.2320 C   0  0  0  0  0  0  0  0  0  0  0  0
   42.7880   33.9010   37.2860 N   0  0  0  0  0  0  0  0  0  0  0  0
   40.9960   32.8880   36.7900 H   0  0  0  0  0  0  0  0  0  0  0  0
   42.6100   31.9040   40.5460 H   0  0  0  0  0  0  0  0  0  0  0  0
   44.5990   34.6920   38.2020 H   0  0  0  0  0  0  0  0  0  0  0  0
   41.1020   30.2450   39.7880 C   0  0  0  0  0  0  0  0  0  0  0  0
   42.0910   30.7350   40.0610 H   0  0  0  0  0  0  0  0  0  0  0  0
   41.4740   29.3640   39.2670 H   0  0  0  0  0  0  0  0  0  0  0  0
   40.3100   29.9160   40.9260 C   0  0  0  0  0  0  0  0  0  0  0  0
   39.9240   30.4950   42.0870 C   0  0  0  0  0  0  0  0  0  0  0  0
   39.1310   29.9700   43.0890 C   0  0  0  0  0  0  0  0  0  0  0  0
   38.7000   28.7260   42.8660 N   0  0  0  0  0  0  0  0  0  0  0  0
   39.0240   28.0820   41.7630 C   0  0  0  0  0  0  0  0  0  0  0  0
   39.7870   28.6720   40.8670 N   0  0  0  0  0  0  0  0  0  0  0  0
   40.3400   31.5190   42.1790 H   0  0  0  0  0  0  0  0  0  0  0  0
   38.9580   30.6350   43.9350 H   0  0  0  0  0  0  0  0  0  0  0  0
   37.3430   26.3980   40.9420 C   0  0  0  0  0  0  0  0  0  0  0  0
   38.4790   26.7280   41.6460 C   0  0  0  0  0  0  0  0  0  0  0  0
   39.1050   25.6800   42.2690 C   0  0  0  0  0  0  0  0  0  0  0  0
   40.0100   25.8270   42.8510 H   0  0  0  0  0  0  0  0  0  0  0  0
   38.6870   24.3660   42.2380 C   0  0  0  0  0  0  0  0  0  0  0  0
   39.2100   23.5710   42.7430 H   0  0  0  0  0  0  0  0  0  0  0  0
   37.5500   24.0470   41.5300 C   0  0  0  0  0  3  0  0  0  0  0  0
   36.8940   25.0760   40.8920 C   0  0  0  0  0  3  0  0  0  0  0  0
   35.2880   27.0840   39.6070 H   0  0  0  0  0  0  0  0  0  0  0  0
   36.4610   27.6390   40.1140 S   0  0  0  0  0  0  0  0  0  0  0  0
   35.9950   28.7460   41.0220 O   0  0  0  0  0  0  0  0  0  0  0  0
   37.1920   28.1680   38.9260 O   0  0  0  0  0  0  0  0  0  0  0  0
  1  2  1  6  0  0  0
  1  3  1  0  0  0  0
  1 27  1  0  0  0  0
  3  4  1  0  0  0  0
  4  9  1  0  0  0  0
  4  5  1  0  0  0  0
  5 12  1  0  0  0  0
  5 11  1  0  0  0  0
  6  5  1  0  0  0  0
  7  6  1  0  0  0  0
  7 14  1  0  0  0  0
  8  7  1  0  0  0  0
  8  3  1  0  0  0  0
 10  4  1  0  0  0  0
 13  6  1  0  0  0  0
 15  7  1  0  0  0  0
 16  8  1  0  0  0  0
 17  8  1  0  0  0  0
 18 19  1  0  0  0  0
 19  1  1  0  0  0  0
 19 20  2  0  0  0  0
 20 25  1  0  0  0  0
 21 20  1  0  0  0  0
 22 21  2  0  0  0  0
 23 18  2  0  0  0  0
 23 22  1  0  0  0  0
 24 18  1  0  0  0  0
 26 22  1  0  0  0  0
 27 28  1  0  0  0  0
 27 30  1  0  0  0  0
 29 27  1  0  0  0  0
 30 31  1  0  0  0  0
 31 36  1  0  0  0  0
 31 32  2  0  0  0  0
 32 37  1  0  0  0  0
 33 32  1  0  0  0  0
 34 33  2  0  0  0  0
 35 30  2  0  0  0  0
 35 34  1  0  0  0  0
 38 39  1  0  0  0  0
 39 34  1  0  0  0  0
 39 40  2  0  0  0  0
 40 41  1  0  0  0  0
 42 40  1  0  0  0  0
 42 43  1  0  0  0  0
 44 42  2  0  0  0  0
 45 38  2  0  0  0  0
 45 44  1  0  0  0  0
 46 47  1  0  0  0  0
 47 38  1  0  0  0  0
 47 48  2  0  0  0  0
 49 47  2  0  0  0  0
M  END
>  <minimizedAffinity>
-5.73150253

$$$$

 OpenBabel03252502413D

 49 52  0  0  1  0  0  0  0  0999 V2000
   39.6450   30.2420   39.8060 C   0  0  1  0  0  0  0  0  0  0  0  0
   38.8670   29.5160   39.4270 H   0  0  0  0  0  0  0  0  0  0  0  0
   39.0380   31.5420   39.7160 N   0  0  0  0  0  0  0  0  0  0  0  0
   37.6260   31.4950   39.6440 C   0  0  0  0  0  0  0  0  0  0  0  0
   37.2020   32.8940   39.1500 C   0  0  0  0  0  0  0  0  0  0  0  0
   37.4340   33.7260   40.3040 N   0  0  0  0  0  0  0  0  0  0  0  0
   38.7890   33.7610   40.6870 C   0  0  0  0  0  0  0  0  0  0  0  0
   39.5010   32.4160   40.7100 C   0  0  0  0  0  0  0  0  0  0  0  0
   37.2740   30.8060   38.8460 H   0  0  0  0  0  0  0  0  0  0  0  0
   37.1060   31.3490   40.6000 H   0  0  0  0  0  0  0  0  0  0  0  0
   37.9010   33.2060   38.3570 H   0  0  0  0  0  0  0  0  0  0  0  0
   36.1370   32.9120   38.8690 H   0  0  0  0  0  0  0  0  0  0  0  0
   36.7400   33.5520   41.0450 H   0  0  0  0  0  0  0  0  0  0  0  0
   39.3460   34.4380   39.9930 H   0  0  0  0  0  0  0  0  0  0  0  0
   38.8700   34.2720   41.6870 H   0  0  0  0  0  0  0  0  0  0  0  0
   39.0320   32.0190   41.6670 H   0  0  0  0  0  0  0  0  0  0  0  0
   40.5250   32.6880   40.8210 H   0  0  0  0  0  0  0  0  0  0  0  0
   41.9660   29.3910   39.5230 C   0  0  0  0  0  0  0  0  0  0  0  0
   40.8510   30.0440   39.0590 C   0  0  0  0  0  0  0  0  0  0  0  0
   40.9410   30.5410   37.7440 C   0  0  0  0  0  0  0  0  0  0  0  0
   42.0930   30.3510   37.0310 N   0  0  0  0  0  0  0  0  0  0  0  0
   43.1530   29.6930   37.5640 C   0  0  0  0  0  0  0  0  0  0  0  0
   43.0870   29.2090   38.8210 N   0  0  0  0  0  0  0  0  0  0  0  0
   41.8530   29.0220   40.5320 H   0  0  0  0  0  0  0  0  0  0  0  0
   40.1080   31.0680   37.2990 H   0  0  0  0  0  0  0  0  0  0  0  0
   43.9780   29.6300   36.8790 H   0  0  0  0  0  0  0  0  0  0  0  0
   39.9390   29.9330   41.2810 C   0  0  0  0  0  0  0  0  0  0  0  0
   40.0330   31.0090   41.6340 H   0  0  0  0  0  0  0  0  0  0  0  0
   40.9470   29.5820   41.4950 H   0  0  0  0  0  0  0  0  0  0  0  0
   38.9410   29.2000   41.9860 C   0  0  0  0  0  0  0  0  0  0  0  0
   38.2990   29.2600   43.1760 C   0  0  0  0  0  0  0  0  0  0  0  0
   37.3360   28.4060   43.6780 C   0  0  0  0  0  0  0  0  0  0  0  0
   37.0090   27.3940   42.8700 N   0  0  0  0  0  0  0  0  0  0  0  0
   37.5810   27.2550   41.6910 C   0  0  0  0  0  0  0  0  0  0  0  0
   38.4900   28.1250   41.3030 N   0  0  0  0  0  0  0  0  0  0  0  0
   38.6460   30.1260   43.7730 H   0  0  0  0  0  0  0  0  0  0  0  0
   36.9650   28.6630   44.6700 H   0  0  0  0  0  0  0  0  0  0  0  0
   36.5060   26.1890   39.6800 C   0  0  0  0  0  0  0  0  0  0  0  0
   37.1260   26.1050   40.9060 C   0  0  0  0  0  0  0  0  0  0  0  0
   37.3000   24.8340   41.3870 C   0  0  0  0  0  0  0  0  0  0  0  0
   37.7780   24.6530   42.3450 H   0  0  0  0  0  0  0  0  0  0  0  0
   36.9100   23.6760   40.7480 C   0  0  0  0  0  0  0  0  0  0  0  0
   37.0670   22.6950   41.1610 H   0  0  0  0  0  0  0  0  0  0  0  0
   36.2920   23.7720   39.5210 C   0  0  0  0  0  3  0  0  0  0  0  0
   36.1000   25.0350   39.0070 C   0  0  0  0  0  3  0  0  0  0  0  0
   36.1720   28.6930   39.9880 H   0  0  0  0  0  0  0  0  0  0  0  0
   36.2260   27.7440   38.9690 S   0  0  0  0  0  0  0  0  0  0  0  0
   37.3520   28.2050   38.0820 O   0  0  0  0  0  0  0  0  0  0  0  0
   34.9070   27.8320   38.2800 O   0  0  0  0  0  0  0  0  0  0  0  0
  1  2  1  6  0  0  0
  1 27  1  0  0  0  0
  3  1  1  0  0  0  0
  3  8  1  0  0  0  0
  4  3  1  0  0  0  0
  4 10  1  0  0  0  0
  5  4  1  0  0  0  0
  5  6  1  0  0  0  0
  6  7  1  0  0  0  0
  6 13  1  0  0  0  0
  7  8  1  0  0  0  0
  7 15  1  0  0  0  0
  8 17  1  0  0  0  0
  8 16  1  0  0  0  0
  9  4  1  0  0  0  0
 11  5  1  0  0  0  0
 12  5  1  0  0  0  0
 14  7  1  0  0  0  0
 18 24  1  0  0  0  0
 19 18  1  0  0  0  0
 19  1  1  0  0  0  0
 20 19  2  0  0  0  0
 21 22  2  0  0  0  0
 21 20  1  0  0  0  0
 22 23  1  0  0  0  0
 23 18  2  0  0  0  0
 25 20  1  0  0  0  0
 26 22  1  0  0  0  0
 27 29  1  0  0  0  0
 27 28  1  0  0  0  0
 27 30  1  0  0  0  0
 30 31  1  0  0  0  0
 31 32  2  0  0  0  0
 31 36  1  0  0  0  0
 32 37  1  0  0  0  0
 33 32  1  0  0  0  0
 34 33  2  0  0  0  0
 35 34  1  0  0  0  0
 35 30  2  0  0  0  0
 38 39  1  0  0  0  0
 39 40  2  0  0  0  0
 39 34  1  0  0  0  0
 40 41  1  0  0  0  0
 42 43  1  0  0  0  0
 42 40  1  0  0  0  0
 44 42  2  0  0  0  0
 45 44  1  0  0  0  0
 45 38  2  0  0  0  0
 47 38  1  0  0  0  0
 47 46  1  0  0  0  0
 48 47  2  0  0  0  0
 49 47  2  0  0  0  0
M  END
>  <minimizedAffinity>
-5.72597361

$$$$

 OpenBabel03252502413D

 49 52  0  0  1  0  0  0  0  0999 V2000
   39.6220   30.1230   39.8270 C   0  0  1  0  0  0  0  0  0  0  0  0
   38.8480   29.3710   39.4950 H   0  0  0  0  0  0  0  0  0  0  0  0
   39.0000   31.4100   39.6760 N   0  0  0  0  0  0  0  0  0  0  0  0
   37.5900   31.3430   39.5970 C   0  0  0  0  0  0  0  0  0  0  0  0
   37.1520   32.7130   39.0400 C   0  0  0  0  0  0  0  0  0  0  0  0
   37.3670   33.5980   40.1570 N   0  0  0  0  0  0  0  0  0  0  0  0
   38.7180   33.6670   40.5460 C   0  0  0  0  0  0  0  0  0  0  0  0
   39.4470   32.3330   40.6330 C   0  0  0  0  0  0  0  0  0  0  0  0
   37.2510   30.6150   38.8290 H   0  0  0  0  0  0  0  0  0  0  0  0
   37.0650   31.2330   40.5560 H   0  0  0  0  0  0  0  0  0  0  0  0
   37.8520   32.9990   38.2390 H   0  0  0  0  0  0  0  0  0  0  0  0
   36.0890   32.7060   38.7530 H   0  0  0  0  0  0  0  0  0  0  0  0
   36.6700   33.4480   40.9010 H   0  0  0  0  0  0  0  0  0  0  0  0
   39.2720   34.3190   39.8260 H   0  0  0  0  0  0  0  0  0  0  0  0
   38.7870   34.2220   41.5230 H   0  0  0  0  0  0  0  0  0  0  0  0
   38.9760   31.9720   41.6040 H   0  0  0  0  0  0  0  0  0  0  0  0
   40.4660   32.6220   40.7380 H   0  0  0  0  0  0  0  0  0  0  0  0
   41.0490   30.3540   37.8020 C   0  0  0  0  0  0  0  0  0  0  0  0
   40.8210   29.8980   39.0770 C   0  0  0  0  0  0  0  0  0  0  0  0
   41.8720   29.1590   39.6550 C   0  0  0  0  0  0  0  0  0  0  0  0
   43.0180   28.9460   38.9380 N   0  0  0  0  0  0  0  0  0  0  0  0
   43.1640   29.4310   37.6800 C   0  0  0  0  0  0  0  0  0  0  0  0
   42.1700   30.1420   37.1080 N   0  0  0  0  0  0  0  0  0  0  0  0
   40.2220   30.9190   37.3990 H   0  0  0  0  0  0  0  0  0  0  0  0
   41.7770   28.7620   40.6570 H   0  0  0  0  0  0  0  0  0  0  0  0
   44.1180   29.1770   37.2550 H   0  0  0  0  0  0  0  0  0  0  0  0
   39.9350   29.8940   41.3120 C   0  0  0  0  0  0  0  0  0  0  0  0
   39.9330   30.9870   41.6260 H   0  0  0  0  0  0  0  0  0  0  0  0
   40.9700   29.6420   41.5410 H   0  0  0  0  0  0  0  0  0  0  0  0
   39.0030   29.1020   42.0420 C   0  0  0  0  0  0  0  0  0  0  0  0
   38.1900   29.2370   43.1160 C   0  0  0  0  0  0  0  0  0  0  0  0
   37.3450   28.2990   43.6790 C   0  0  0  0  0  0  0  0  0  0  0  0
   37.3450   27.1100   43.0700 N   0  0  0  0  0  0  0  0  0  0  0  0
   38.1040   26.8870   42.0150 C   0  0  0  0  0  0  0  0  0  0  0  0
   38.8750   27.8490   41.5560 N   0  0  0  0  0  0  0  0  0  0  0  0
   38.2700   30.2530   43.5530 H   0  0  0  0  0  0  0  0  0  0  0  0
   36.7870   28.6460   44.5480 H   0  0  0  0  0  0  0  0  0  0  0  0
   39.0740   24.7310   41.1520 C   0  0  0  0  0  0  0  0  0  0  0  0
   38.0010   25.5420   41.4450 C   0  0  0  0  0  0  0  0  0  0  0  0
   36.7710   25.0100   41.1580 C   0  0  0  0  0  0  0  0  0  0  0  0
   35.8570   25.5650   41.3490 H   0  0  0  0  0  0  0  0  0  0  0  0
   36.5450   23.7630   40.6160 C   0  0  0  0  0  0  0  0  0  0  0  0
   35.5600   23.3820   40.4060 H   0  0  0  0  0  0  0  0  0  0  0  0
   37.6260   22.9590   40.3280 C   0  0  0  0  0  3  0  0  0  0  0  0
   38.8780   23.4620   40.6020 C   0  0  0  0  0  3  0  0  0  0  0  0
   40.6590   26.6870   41.5210 H   0  0  0  0  0  0  0  0  0  0  0  0
   40.6820   25.2950   41.4670 S   0  0  0  0  0  0  0  0  0  0  0  0
   41.2090   24.8720   42.8120 O   0  0  0  0  0  0  0  0  0  0  0  0
   41.6340   24.9590   40.3690 O   0  0  0  0  0  0  0  0  0  0  0  0
  1  2  1  6  0  0  0
  1 27  1  0  0  0  0
  3  1  1  0  0  0  0
  3  8  1  0  0  0  0
  4  3  1  0  0  0  0
  4 10  1  0  0  0  0
  5  4  1  0  0  0  0
  5  6  1  0  0  0  0
  6  7  1  0  0  0  0
  6 13  1  0  0  0  0
  7  8  1  0  0  0  0
  7 15  1  0  0  0  0
  8 17  1  0  0  0  0
  8 16  1  0  0  0  0
  9  4  1  0  0  0  0
 11  5  1  0  0  0  0
 12  5  1  0  0  0  0
 14  7  1  0  0  0  0
 18 19  1  0  0  0  0
 19 20  2  0  0  0  0
 19  1  1  0  0  0  0
 20 25  1  0  0  0  0
 21 20  1  0  0  0  0
 22 21  2  0  0  0  0
 23 22  1  0  0  0  0
 23 18  2  0  0  0  0
 24 18  1  0  0  0  0
 26 22  1  0  0  0  0
 27 29  1  0  0  0  0
 27 28  1  0  0  0  0
 27 30  1  0  0  0  0
 30 31  1  0  0  0  0
 31 36  1  0  0  0  0
 31 32  2  0  0  0  0
 32 37  1  0  0  0  0
 33 32  1  0  0  0  0
 34 33  2  0  0  0  0
 35 34  1  0  0  0  0
 35 30  2  0  0  0  0
 38 39  1  0  0  0  0
 38 47  1  0  0  0  0
 39 34  1  0  0  0  0
 40 41  1  0  0  0  0
 40 39  2  0  0  0  0
 42 40  1  0  0  0  0
 43 42  1  0  0  0  0
 44 45  1  0  0  0  0
 44 42  2  0  0  0  0
 45 38  2  0  0  0  0
 47 46  1  0  0  0  0
 47 48  2  0  0  0  0
 49 47  2  0  0  0  0
M  END
>  <minimizedAffinity>
-5.7211957

$$$$

 OpenBabel03252502413D

 49 52  0  0  1  0  0  0  0  0999 V2000
   40.2000   30.2520   39.6730 C   0  0  1  0  0  0  0  0  0  0  0  0
   39.5730   29.3300   39.8460 H   0  0  0  0  0  0  0  0  0  0  0  0
   39.2730   31.3500   39.6410 N   0  0  0  0  0  0  0  0  0  0  0  0
   37.9220   30.9380   39.5670 C   0  0  0  0  0  0  0  0  0  0  0  0
   37.1400   32.1960   39.1370 C   0  0  0  0  0  0  0  0  0  0  0  0
   37.1600   33.0100   40.3270 N   0  0  0  0  0  0  0  0  0  0  0  0
   38.4620   33.3830   40.7100 C   0  0  0  0  0  0  0  0  0  0  0  0
   39.5020   32.2720   40.6730 C   0  0  0  0  0  0  0  0  0  0  0  0
   37.7530   30.2150   38.7400 H   0  0  0  0  0  0  0  0  0  0  0  0
   37.4690   30.6200   40.5160 H   0  0  0  0  0  0  0  0  0  0  0  0
   37.7230   32.7150   38.3590 H   0  0  0  0  0  0  0  0  0  0  0  0
   36.1040   31.9460   38.8580 H   0  0  0  0  0  0  0  0  0  0  0  0
   36.5450   32.6280   41.0600 H   0  0  0  0  0  0  0  0  0  0  0  0
   38.8140   34.2110   40.0470 H   0  0  0  0  0  0  0  0  0  0  0  0
   38.4190   33.8530   41.7320 H   0  0  0  0  0  0  0  0  0  0  0  0
   39.1660   31.7250   41.6120 H   0  0  0  0  0  0  0  0  0  0  0  0
   40.4200   32.7980   40.7950 H   0  0  0  0  0  0  0  0  0  0  0  0
   41.1690   28.8400   37.8680 C   0  0  0  0  0  0  0  0  0  0  0  0
   40.9920   30.0480   38.4970 C   0  0  0  0  0  0  0  0  0  0  0  0
   41.6560   31.1430   37.9100 C   0  0  0  0  0  0  0  0  0  0  0  0
   42.4130   30.9460   36.7860 N   0  0  0  0  0  0  0  0  0  0  0  0
   42.5360   29.7180   36.2250 C   0  0  0  0  0  0  0  0  0  0  0  0
   41.9080   28.6570   36.7710 N   0  0  0  0  0  0  0  0  0  0  0  0
   40.6400   28.0300   38.3470 H   0  0  0  0  0  0  0  0  0  0  0  0
   41.5720   32.1310   38.3410 H   0  0  0  0  0  0  0  0  0  0  0  0
   43.1630   29.7320   35.3520 H   0  0  0  0  0  0  0  0  0  0  0  0
   41.1500   30.4400   40.8640 C   0  0  0  0  0  0  0  0  0  0  0  0
   40.6420   31.3570   41.3060 H   0  0  0  0  0  0  0  0  0  0  0  0
   42.1230   30.8680   40.6260 H   0  0  0  0  0  0  0  0  0  0  0  0
   41.2380   29.3540   41.7820 C   0  0  0  0  0  0  0  0  0  0  0  0
   41.9560   29.0180   42.8790 C   0  0  0  0  0  0  0  0  0  0  0  0
   41.8800   27.8650   43.6370 C   0  0  0  0  0  0  0  0  0  0  0  0
   40.9740   26.9780   43.2160 N   0  0  0  0  0  0  0  0  0  0  0  0
   40.2270   27.2200   42.1580 C   0  0  0  0  0  0  0  0  0  0  0  0
   40.3770   28.3510   41.5020 N   0  0  0  0  0  0  0  0  0  0  0  0
   42.6830   29.8130   43.1400 H   0  0  0  0  0  0  0  0  0  0  0  0
   42.5680   27.8230   44.4810 H   0  0  0  0  0  0  0  0  0  0  0  0
   37.9230   26.2090   42.0800 C   0  0  0  0  0  0  0  0  0  0  0  0
   39.2730   26.1650   41.8110 C   0  0  0  0  0  0  0  0  0  0  0  0
   39.7050   25.0280   41.1790 C   0  0  0  0  0  0  0  0  0  0  0  0
   40.7510   24.8890   40.9190 H   0  0  0  0  0  0  0  0  0  0  0  0
   38.9080   23.9670   40.8070 C   0  0  0  0  0  0  0  0  0  0  0  0
   39.2890   23.0910   40.3100 H   0  0  0  0  0  0  0  0  0  0  0  0
   37.5590   24.0220   41.0810 C   0  0  0  0  0  3  0  0  0  0  0  0
   37.0900   25.1490   41.7170 C   0  0  0  0  0  3  0  0  0  0  0  0
   38.1900   28.0600   43.8060 H   0  0  0  0  0  0  0  0  0  0  0  0
   37.2580   27.5940   42.8810 S   0  0  0  0  0  0  0  0  0  0  0  0
   37.0230   28.7600   41.9590 O   0  0  0  0  0  0  0  0  0  0  0  0
   36.0410   27.2660   43.6800 O   0  0  0  0  0  0  0  0  0  0  0  0
  1  2  1  1  0  0  0
  1 27  1  0  0  0  0
  3  1  1  0  0  0  0
  3  8  1  0  0  0  0
  4  3  1  0  0  0  0
  4 10  1  0  0  0  0
  5  4  1  0  0  0  0
  5  6  1  0  0  0  0
  6  7  1  0  0  0  0
  6 13  1  0  0  0  0
  7 15  1  0  0  0  0
  8  7  1  0  0  0  0
  8 17  1  0  0  0  0
  8 16  1  0  0  0  0
  9  4  1  0  0  0  0
 11  5  1  0  0  0  0
 12  5  1  0  0  0  0
 14  7  1  0  0  0  0
 18 24  1  0  0  0  0
 18 19  1  0  0  0  0
 19  1  1  0  0  0  0
 20 25  1  0  0  0  0
 20 19  2  0  0  0  0
 21 20  1  0  0  0  0
 22 23  1  0  0  0  0
 22 21  2  0  0  0  0
 23 18  2  0  0  0  0
 26 22  1  0  0  0  0
 27 28  1  0  0  0  0
 27 30  1  0  0  0  0
 29 27  1  0  0  0  0
 30 31  1  0  0  0  0
 31 36  1  0  0  0  0
 31 32  2  0  0  0  0
 32 37  1  0  0  0  0
 33 32  1  0  0  0  0
 34 33  2  0  0  0  0
 35 30  2  0  0  0  0
 35 34  1  0  0  0  0
 38 47  1  0  0  0  0
 39 38  1  0  0  0  0
 39 34  1  0  0  0  0
 40 39  2  0  0  0  0
 41 40  1  0  0  0  0
 42 44  2  0  0  0  0
 42 40  1  0  0  0  0
 43 42  1  0  0  0  0
 44 45  1  0  0  0  0
 45 38  2  0  0  0  0
 47 49  2  0  0  0  0
 47 46  1  0  0  0  0
 48 47  2  0  0  0  0
M  END
>  <minimizedAffinity>
-5.5857439

$$$$

 OpenBabel03252502413D

 49 52  0  0  1  0  0  0  0  0999 V2000
   39.7280   31.1260   41.2560 C   0  0  1  0  0  0  0  0  0  0  0  0
   39.1020   31.5940   42.0710 H   0  0  0  0  0  0  0  0  0  0  0  0
   40.9850   31.8240   41.2850 N   0  0  0  0  0  0  0  0  0  0  0  0
   40.8560   33.2140   41.0600 C   0  0  0  0  0  0  0  0  0  0  0  0
   42.2810   33.7000   40.7250 C   0  0  0  0  0  0  0  0  0  0  0  0
   42.9490   33.6460   42.0010 N   0  0  0  0  0  0  0  0  0  0  0  0
   43.0160   32.3410   42.5250 C   0  0  0  0  0  0  0  0  0  0  0  0
   41.7320   31.5280   42.4350 C   0  0  0  0  0  0  0  0  0  0  0  0
   40.2700   33.4330   40.1410 H   0  0  0  0  0  0  0  0  0  0  0  0
   40.5380   33.8090   41.9260 H   0  0  0  0  0  0  0  0  0  0  0  0
   42.7520   32.9570   40.0610 H   0  0  0  0  0  0  0  0  0  0  0  0
   42.2700   34.7320   40.3390 H   0  0  0  0  0  0  0  0  0  0  0  0
   42.6220   34.3900   42.6340 H   0  0  0  0  0  0  0  0  0  0  0  0
   43.8220   31.7770   41.9940 H   0  0  0  0  0  0  0  0  0  0  0  0
   43.3780   32.3960   43.5900 H   0  0  0  0  0  0  0  0  0  0  0  0
   41.1680   32.0520   43.2730 H   0  0  0  0  0  0  0  0  0  0  0  0
   42.0520   30.5450   42.6890 H   0  0  0  0  0  0  0  0  0  0  0  0
   39.4410   30.7100   38.8200 C   0  0  0  0  0  0  0  0  0  0  0  0
   38.9920   31.1820   40.0300 C   0  0  0  0  0  0  0  0  0  0  0  0
   37.7050   31.7550   40.0190 C   0  0  0  0  0  0  0  0  0  0  0  0
   37.0030   31.8080   38.8460 N   0  0  0  0  0  0  0  0  0  0  0  0
   37.5190   31.3180   37.6910 C   0  0  0  0  0  0  0  0  0  0  0  0
   38.7480   30.7640   37.6800 N   0  0  0  0  0  0  0  0  0  0  0  0
   40.4270   30.2750   38.8740 H   0  0  0  0  0  0  0  0  0  0  0  0
   37.2750   32.1520   40.9280 H   0  0  0  0  0  0  0  0  0  0  0  0
   36.8440   31.4370   36.8630 H   0  0  0  0  0  0  0  0  0  0  0  0
   39.9730   29.6500   41.6020 C   0  0  0  0  0  0  0  0  0  0  0  0
   40.8280   29.8170   42.3330 H   0  0  0  0  0  0  0  0  0  0  0  0
   40.4940   29.0700   40.8420 H   0  0  0  0  0  0  0  0  0  0  0  0
   38.8780   28.9440   42.1770 C   0  0  0  0  0  0  0  0  0  0  0  0
   38.1390   28.9790   43.3110 C   0  0  0  0  0  0  0  0  0  0  0  0
   37.0900   28.1600   43.6800 C   0  0  0  0  0  0  0  0  0  0  0  0
   36.7770   27.2150   42.7890 N   0  0  0  0  0  0  0  0  0  0  0  0
   37.4410   27.1050   41.6550 C   0  0  0  0  0  0  0  0  0  0  0  0
   38.4280   27.9370   41.3970 N   0  0  0  0  0  0  0  0  0  0  0  0
   38.4820   29.7890   43.9850 H   0  0  0  0  0  0  0  0  0  0  0  0
   36.6490   28.3860   44.6500 H   0  0  0  0  0  0  0  0  0  0  0  0
   36.5730   26.2070   39.4690 C   0  0  0  0  0  0  0  0  0  0  0  0
   36.9900   26.0290   40.7690 C   0  0  0  0  0  0  0  0  0  0  0  0
   36.9580   24.7360   41.2220 C   0  0  0  0  0  0  0  0  0  0  0  0
   37.2660   24.4820   42.2320 H   0  0  0  0  0  0  0  0  0  0  0  0
   36.5500   23.6420   40.4880 C   0  0  0  0  0  0  0  0  0  0  0  0
   36.5400   22.6400   40.8820 H   0  0  0  0  0  0  0  0  0  0  0  0
   36.1350   23.8320   39.1890 C   0  0  0  0  0  3  0  0  0  0  0  0
   36.1540   25.1190   38.7010 C   0  0  0  0  0  3  0  0  0  0  0  0
   37.6750   28.4920   39.2670 H   0  0  0  0  0  0  0  0  0  0  0  0
   36.5660   27.7990   38.7850 S   0  0  0  0  0  0  0  0  0  0  0  0
   36.7360   27.8060   37.2890 O   0  0  0  0  0  0  0  0  0  0  0  0
   35.3840   28.6030   39.2120 O   0  0  0  0  0  0  0  0  0  0  0  0
  1  3  1  0  0  0  0
  1 27  1  0  0  0  0
  1  2  1  1  0  0  0
  3  8  1  0  0  0  0
  4  3  1  0  0  0  0
  4 10  1  0  0  0  0
  5  4  1  0  0  0  0
  5  6  1  0  0  0  0
  6  7  1  0  0  0  0
  6 13  1  0  0  0  0
  7 15  1  0  0  0  0
  8  7  1  0  0  0  0
  8 17  1  0  0  0  0
  8 16  1  0  0  0  0
  9  4  1  0  0  0  0
 11  5  1  0  0  0  0
 12  5  1  0  0  0  0
 14  7  1  0  0  0  0
 18 24  1  0  0  0  0
 18 19  1  0  0  0  0
 19  1  1  0  0  0  0
 20 19  2  0  0  0  0
 20 25  1  0  0  0  0
 21 20  1  0  0  0  0
 22 21  2  0  0  0  0
 23 22  1  0  0  0  0
 23 18  2  0  0  0  0
 26 22  1  0  0  0  0
 27 30  1  0  0  0  0
 27 28  1  0  0  0  0
 29 27  1  0  0  0  0
 30 31  1  0  0  0  0
 31 32  2  0  0  0  0
 31 36  1  0  0  0  0
 32 37  1  0  0  0  0
 33 32  1  0  0  0  0
 34 33  2  0  0  0  0
 35 34  1  0  0  0  0
 35 30  2  0  0  0  0
 38 39  1  0  0  0  0
 39 40  2  0  0  0  0
 39 34  1  0  0  0  0
 40 41  1  0  0  0  0
 42 43  1  0  0  0  0
 42 40  1  0  0  0  0
 44 42  2  0  0  0  0
 45 44  1  0  0  0  0
 45 38  2  0  0  0  0
 47 49  2  0  0  0  0
 47 46  1  0  0  0  0
 47 38  1  0  0  0  0
 48 47  2  0  0  0  0
M  END
>  <minimizedAffinity>
-5.57788324

$$$$

 OpenBabel03252502413D

 49 52  0  0  1  0  0  0  0  0999 V2000
   37.3180   30.2480   39.6310 C   0  0  1  0  0  0  0  0  0  0  0  0
   38.2160   29.5650   39.5760 H   0  0  0  0  0  0  0  0  0  0  0  0
   36.6170   30.0650   38.3890 N   0  0  0  0  0  0  0  0  0  0  0  0
   37.4230   29.5090   37.3690 C   0  0  0  0  0  0  0  0  0  0  0  0
   36.6510   29.7690   36.0600 C   0  0  0  0  0  0  0  0  0  0  0  0
   35.5550   28.8360   36.1420 N   0  0  0  0  0  0  0  0  0  0  0  0
   34.7070   29.0880   37.2370 C   0  0  0  0  0  0  0  0  0  0  0  0
   35.4060   29.3770   38.5580 C   0  0  0  0  0  0  0  0  0  0  0  0
   38.3750   30.0700   37.2410 H   0  0  0  0  0  0  0  0  0  0  0  0
   37.5670   28.4210   37.4160 H   0  0  0  0  0  0  0  0  0  0  0  0
   36.2350   30.7890   36.1010 H   0  0  0  0  0  0  0  0  0  0  0  0
   37.2760   29.5530   35.1780 H   0  0  0  0  0  0  0  0  0  0  0  0
   35.8700   27.8650   36.0040 H   0  0  0  0  0  0  0  0  0  0  0  0
   34.0480   29.9570   36.9950 H   0  0  0  0  0  0  0  0  0  0  0  0
   33.9900   28.2260   37.3460 H   0  0  0  0  0  0  0  0  0  0  0  0
   35.7250   28.3100   38.7910 H   0  0  0  0  0  0  0  0  0  0  0  0
   34.6140   29.7280   39.1770 H   0  0  0  0  0  0  0  0  0  0  0  0
   38.8580   31.8790   40.7060 C   0  0  0  0  0  0  0  0  0  0  0  0
   37.7740   31.5740   39.9200 C   0  0  0  0  0  0  0  0  0  0  0  0
   37.0870   32.6770   39.3770 C   0  0  0  0  0  0  0  0  0  0  0  0
   37.5240   33.9440   39.6540 N   0  0  0  0  0  0  0  0  0  0  0  0
   38.6060   34.1610   40.4420 C   0  0  0  0  0  0  0  0  0  0  0  0
   39.2780   33.1190   40.9710 N   0  0  0  0  0  0  0  0  0  0  0  0
   39.3580   31.0070   41.0980 H   0  0  0  0  0  0  0  0  0  0  0  0
   36.2210   32.5270   38.7460 H   0  0  0  0  0  0  0  0  0  0  0  0
   38.8170   35.2080   40.5610 H   0  0  0  0  0  0  0  0  0  0  0  0
   36.4140   29.7890   40.7830 C   0  0  0  0  0  0  0  0  0  0  0  0
   35.5790   29.3560   40.1440 H   0  0  0  0  0  0  0  0  0  0  0  0
   35.8620   30.5800   41.2900 H   0  0  0  0  0  0  0  0  0  0  0  0
   36.9720   28.8420   41.6890 C   0  0  0  0  0  0  0  0  0  0  0  0
   37.3690   28.7970   42.9820 C   0  0  0  0  0  0  0  0  0  0  0  0
   37.9110   27.7350   43.6800 C   0  0  0  0  0  0  0  0  0  0  0  0
   38.0570   26.6140   42.9670 N   0  0  0  0  0  0  0  0  0  0  0  0
   37.6970   26.5640   41.7000 C   0  0  0  0  0  0  0  0  0  0  0  0
   37.1890   27.6330   41.1260 N   0  0  0  0  0  0  0  0  0  0  0  0
   37.2140   29.7750   43.4820 H   0  0  0  0  0  0  0  0  0  0  0  0
   38.1530   27.9440   44.7220 H   0  0  0  0  0  0  0  0  0  0  0  0
   39.0590   24.9080   40.3800 C   0  0  0  0  0  0  0  0  0  0  0  0
   37.9080   25.2730   41.0420 C   0  0  0  0  0  0  0  0  0  0  0  0
   36.9150   24.3270   41.0510 C   0  0  0  0  0  0  0  0  0  0  0  0
   35.9650   24.5100   41.5450 H   0  0  0  0  0  0  0  0  0  0  0  0
   36.9910   23.0820   40.4640 C   0  0  0  0  0  0  0  0  0  0  0  0
   36.1860   22.3680   40.4950 H   0  0  0  0  0  0  0  0  0  0  0  0
   38.1470   22.7280   39.8060 C   0  0  0  0  0  3  0  0  0  0  0  0
   39.1660   23.6540   39.7750 C   0  0  0  0  0  3  0  0  0  0  0  0
   40.4270   26.7470   41.4850 H   0  0  0  0  0  0  0  0  0  0  0  0
   40.3840   26.0210   40.2970 S   0  0  0  0  0  0  0  0  0  0  0  0
   41.7260   25.3440   40.2170 O   0  0  0  0  0  0  0  0  0  0  0  0
   40.2130   27.0390   39.2200 O   0  0  0  0  0  0  0  0  0  0  0  0
  1  2  1  6  0  0  0
  1 19  1  0  0  0  0
  1 27  1  0  0  0  0
  3  8  1  0  0  0  0
  3  1  1  0  0  0  0
  4 10  1  0  0  0  0
  4  3  1  0  0  0  0
  5 11  1  0  0  0  0
  5  6  1  0  0  0  0
  5  4  1  0  0  0  0
  6  7  1  0  0  0  0
  7 15  1  0  0  0  0
  7  8  1  0  0  0  0
  8 16  1  0  0  0  0
  8 17  1  0  0  0  0
  9  4  1  0  0  0  0
 12  5  1  0  0  0  0
 13  6  1  0  0  0  0
 14  7  1  0  0  0  0
 18 23  1  0  0  0  0
 18 24  1  0  0  0  0
 19 18  2  0  0  0  0
 20 21  2  0  0  0  0
 20 19  1  0  0  0  0
 21 22  1  0  0  0  0
 22 26  1  0  0  0  0
 22 23  2  0  0  0  0
 25 20  1  0  0  0  0
 27 29  1  0  0  0  0
 27 30  1  0  0  0  0
 28 27  1  0  0  0  0
 30 31  1  0  0  0  0
 31 36  1  0  0  0  0
 31 32  2  0  0  0  0
 32 37  1  0  0  0  0
 33 32  1  0  0  0  0
 34 33  2  0  0  0  0
 35 30  2  0  0  0  0
 35 34  1  0  0  0  0
 38 39  1  0  0  0  0
 39 40  2  0  0  0  0
 39 34  1  0  0  0  0
 40 41  1  0  0  0  0
 42 43  1  0  0  0  0
 42 40  1  0  0  0  0
 44 42  2  0  0  0  0
 45 44  1  0  0  0  0
 45 38  2  0  0  0  0
 47 38  1  0  0  0  0
 47 46  1  0  0  0  0
 48 47  2  0  0  0  0
 49 47  2  0  0  0  0
M  END
>  <minimizedAffinity>
-5.57369804

$$$$

 OpenBabel03252502413D

 49 52  0  0  1  0  0  0  0  0999 V2000
   40.2090   30.5160   41.2500 C   0  0  1  0  0  0  0  0  0  0  0  0
   39.6050   29.9780   40.4620 H   0  0  0  0  0  0  0  0  0  0  0  0
   40.3530   31.8640   40.7720 N   0  0  0  0  0  0  0  0  0  0  0  0
   40.7120   31.9370   39.4060 C   0  0  0  0  0  0  0  0  0  0  0  0
   41.2080   33.3820   39.1970 C   0  0  0  0  0  0  0  0  0  0  0  0
   39.9900   34.1510   39.2470 N   0  0  0  0  0  0  0  0  0  0  0  0
   39.3400   34.0610   40.4930 C   0  0  0  0  0  0  0  0  0  0  0  0
   39.2420   32.6620   41.0840 C   0  0  0  0  0  0  0  0  0  0  0  0
   41.5980   31.3070   39.1760 H   0  0  0  0  0  0  0  0  0  0  0  0
   39.8890   31.8010   38.6900 H   0  0  0  0  0  0  0  0  0  0  0  0
   41.8260   33.6630   40.0650 H   0  0  0  0  0  0  0  0  0  0  0  0
   41.6970   33.4980   38.2160 H   0  0  0  0  0  0  0  0  0  0  0  0
   39.4150   34.0090   38.4050 H   0  0  0  0  0  0  0  0  0  0  0  0
   39.8720   34.7130   41.2290 H   0  0  0  0  0  0  0  0  0  0  0  0
   38.3190   34.5270   40.4040 H   0  0  0  0  0  0  0  0  0  0  0  0
   38.4210   32.2710   40.4000 H   0  0  0  0  0  0  0  0  0  0  0  0
   38.9130   32.8440   42.0800 H   0  0  0  0  0  0  0  0  0  0  0  0
   42.4300   30.1720   42.3160 C   0  0  0  0  0  0  0  0  0  0  0  0
   41.4180   29.7820   41.4740 C   0  0  0  0  0  0  0  0  0  0  0  0
   41.6240   28.5630   40.7990 C   0  0  0  0  0  0  0  0  0  0  0  0
   42.7800   27.8620   41.0140 N   0  0  0  0  0  0  0  0  0  0  0  0
   43.7330   28.3180   41.8640 C   0  0  0  0  0  0  0  0  0  0  0  0
   43.5560   29.4820   42.5210 N   0  0  0  0  0  0  0  0  0  0  0  0
   42.2300   31.1070   42.8160 H   0  0  0  0  0  0  0  0  0  0  0  0
   40.8770   28.1810   40.1160 H   0  0  0  0  0  0  0  0  0  0  0  0
   44.5770   27.6540   41.9200 H   0  0  0  0  0  0  0  0  0  0  0  0
   39.4120   30.5380   42.5620 C   0  0  0  0  0  0  0  0  0  0  0  0
   38.9860   31.5860   42.4500 H   0  0  0  0  0  0  0  0  0  0  0  0
   40.0010   30.6760   43.4670 H   0  0  0  0  0  0  0  0  0  0  0  0
   38.4050   29.5400   42.7090 C   0  0  0  0  0  0  0  0  0  0  0  0
   37.9630   28.6880   43.6630 C   0  0  0  0  0  0  0  0  0  0  0  0
   36.9400   27.7640   43.5840 C   0  0  0  0  0  0  0  0  0  0  0  0
   36.3160   27.7190   42.4030 N   0  0  0  0  0  0  0  0  0  0  0  0
   36.6770   28.5120   41.4140 C   0  0  0  0  0  0  0  0  0  0  0  0
   37.6680   29.3600   41.5910 N   0  0  0  0  0  0  0  0  0  0  0  0
   38.5490   28.7970   44.5980 H   0  0  0  0  0  0  0  0  0  0  0  0
   36.7690   27.1870   44.4930 H   0  0  0  0  0  0  0  0  0  0  0  0
   36.2300   27.5020   39.1530 C   0  0  0  0  0  0  0  0  0  0  0  0
   35.9070   28.3610   40.1780 C   0  0  0  0  0  0  0  0  0  0  0  0
   34.7770   29.1120   39.9780 C   0  0  0  0  0  0  0  0  0  0  0  0
   34.4310   29.8210   40.7230 H   0  0  0  0  0  0  0  0  0  0  0  0
   33.9740   29.0640   38.8580 C   0  0  0  0  0  0  0  0  0  0  0  0
   33.0930   29.6710   38.7410 H   0  0  0  0  0  0  0  0  0  0  0  0
   34.3070   28.2000   37.8390 C   0  0  0  0  0  3  0  0  0  0  0  0
   35.4360   27.4310   38.0060 C   0  0  0  0  0  3  0  0  0  0  0  0
   37.7860   26.1250   40.6220 H   0  0  0  0  0  0  0  0  0  0  0  0
   37.6400   26.5030   39.2890 S   0  0  0  0  0  0  0  0  0  0  0  0
   37.5240   25.2040   38.5370 O   0  0  0  0  0  0  0  0  0  0  0  0
   38.8950   27.2300   38.9450 O   0  0  0  0  0  0  0  0  0  0  0  0
  1  2  1  6  0  0  0
  1 19  1  0  0  0  0
  1 27  1  0  0  0  0
  3  8  1  0  0  0  0
  3  1  1  0  0  0  0
  4  3  1  0  0  0  0
  5  6  1  0  0  0  0
  5  4  1  0  0  0  0
  5 11  1  0  0  0  0
  6  7  1  0  0  0  0
  7  8  1  0  0  0  0
  7 14  1  0  0  0  0
  8 17  1  0  0  0  0
  9  4  1  0  0  0  0
 10  4  1  0  0  0  0
 12  5  1  0  0  0  0
 13  6  1  0  0  0  0
 15  7  1  0  0  0  0
 16  8  1  0  0  0  0
 18 23  1  0  0  0  0
 18 24  1  0  0  0  0
 19 18  2  0  0  0  0
 20 21  2  0  0  0  0
 20 19  1  0  0  0  0
 21 22  1  0  0  0  0
 22 26  1  0  0  0  0
 22 23  2  0  0  0  0
 25 20  1  0  0  0  0
 27 30  1  0  0  0  0
 27 29  1  0  0  0  0
 28 27  1  0  0  0  0
 30 31  1  0  0  0  0
 31 36  1  0  0  0  0
 32 31  2  0  0  0  0
 32 37  1  0  0  0  0
 33 32  1  0  0  0  0
 34 35  1  0  0  0  0
 34 33  2  0  0  0  0
 35 30  2  0  0  0  0
 38 47  1  0  0  0  0
 38 39  1  0  0  0  0
 39 34  1  0  0  0  0
 40 39  2  0  0  0  0
 40 41  1  0  0  0  0
 42 40  1  0  0  0  0
 43 42  1  0  0  0  0
 44 45  1  0  0  0  0
 44 42  2  0  0  0  0
 45 38  2  0  0  0  0
 47 46  1  0  0  0  0
 48 47  2  0  0  0  0
 49 47  2  0  0  0  0
M  END
>  <minimizedAffinity>
-5.4300561

$$$$
