
     RDKit          3D

 39 41  0  0  0  0  0  0  0  0999 V2000
   46.8871   34.5996   42.2319 N   0  0  0  0  0  0  0  0  0  0  0  0
   48.3294   34.7694   42.2656 C   0  0  0  0  0  0  0  0  0  0  0  0
   48.6414   35.5259   40.9604 C   0  0  0  0  0  0  0  0  0  0  0  0
   48.3422   34.6538   39.7824 C   0  0  0  0  0  0  0  0  0  0  0  0
   47.0876   33.8559   39.9056 C   0  0  0  0  0  0  0  0  0  0  0  0
   46.1873   34.2404   41.0256 C   0  0  1  0  0  0  0  0  0  0  0  0
   44.5139   35.9832   44.7666 C   0  0  0  0  0  0  0  0  0  0  0  0
   45.2310   35.8955   43.5596 C   0  0  0  0  0  0  0  0  0  0  0  0
   46.1088   34.7880   43.4175 C   0  0  0  0  0  0  0  0  0  0  0  0
   46.1987   33.8962   44.4427 N   0  0  0  0  0  0  0  0  0  0  0  0
   45.4742   34.0415   45.5867 C   0  0  0  0  0  0  0  0  0  0  0  0
   44.6343   35.0924   45.7340 N   0  0  0  0  0  0  0  0  0  0  0  0
   45.3350   33.1742   41.2995 O   0  0  0  0  0  0  0  0  0  0  0  0
   48.7998   33.7783   42.1367 H   0  0  0  0  0  0  0  0  0  0  0  0
   48.6624   35.3318   43.1369 H   0  0  0  0  0  0  0  0  0  0  0  0
   49.7340   35.7381   40.9808 H   0  0  0  0  0  0  0  0  0  0  0  0
   48.1046   36.4907   40.9504 H   0  0  0  0  0  0  0  0  0  0  0  0
   48.3118   35.3389   38.8894 H   0  0  0  0  0  0  0  0  0  0  0  0
   49.2462   34.0260   39.5971 H   0  0  0  0  0  0  0  0  0  0  0  0
   47.3846   32.7745   39.9012 H   0  0  0  0  0  0  0  0  0  0  0  0
   46.5127   33.9826   38.9649 H   0  0  0  0  0  0  0  0  0  0  0  0
   45.5765   35.1167   40.7350 H   0  0  0  0  0  0  0  0  0  0  0  0
   43.8518   36.8356   44.8509 H   0  0  0  0  0  0  0  0  0  0  0  0
   45.1537   36.6095   42.7483 H   0  0  0  0  0  0  0  0  0  0  0  0
   45.6617   33.2474   46.3011 H   0  0  0  0  0  0  0  0  0  0  0  0
   45.6148   31.8154   43.5362 H   0  0  0  0  0  0  0  0  0  0  0  0
   44.4139   31.2482   43.2674 S   0  0  0  0  0  0  0  0  0  0  0  0
   43.6800   31.0476   44.5363 O   0  0  0  0  0  0  0  0  0  0  0  0
   44.5773   29.8956   42.6071 O   0  0  0  0  0  0  0  0  0  0  0  0
   43.4486   32.2317   42.1673 C   0  0  0  0  0  0  0  0  0  0  0  0
   43.9713   33.1434   41.2412 C   0  0  0  0  0  0  0  0  0  0  0  0
   43.0966   33.8477   40.4408 C   0  0  0  0  0  0  0  0  0  0  0  0
   43.5918   34.5254   39.7596 H   0  0  0  0  0  0  0  0  0  0  0  0
   41.7304   33.6828   40.5236 C   0  0  0  0  0  0  0  0  0  0  0  0
   41.1225   34.2773   39.8564 H   0  0  0  0  0  0  0  0  0  0  0  0
   41.2322   32.7698   41.4526 C   0  0  0  0  0  0  0  0  0  0  0  0
   42.0656   32.0415   42.2756 C   0  0  0  0  0  0  0  0  0  0  0  0
   40.1477   32.6600   41.4959 H   0  0  0  0  0  0  0  0  0  0  0  0
   41.6356   31.3390   42.9874 H   0  0  0  0  0  0  0  0  0  0  0  0
  1  2  1  0
  1  9  1  0
  3  2  1  0
  4  5  1  0
  4  3  1  0
  5  6  1  0
  6 13  1  0
  6  1  1  0
  7 12  2  0
  8  7  1  0
  9  8  2  0
  9 10  1  0
 10 11  2  0
 11 12  1  0
  2 14  1  0
  2 15  1  0
  3 16  1  0
  3 17  1  0
  4 18  1  0
  4 19  1  0
  5 20  1  0
  5 21  1  0
  6 22  1  6
  7 23  1  0
  8 24  1  0
 11 25  1  0
 26 27  1  0
 27 28  2  0
 27 29  2  0
 27 30  1  0
 30 31  2  0
 31 32  1  0
 32 33  1  0
 32 34  2  0
 34 35  1  0
 34 36  1  0
 36 37  2  0
 37 30  1  0
 36 38  1  0
 37 39  1  0
 13 31  1  0
M  ISO  8  14  13  15  13  16  13  17  13  18  13  19  13  20  13  21  13
M  ISO  7  22  13  23  14  24  14  25  14  26  12  33  15  35  16
M  END
>  <DihAtoms>  (1) 
5,12,30,29

>  <DihDeg>  (1) 
179.96017441123558

$$$$
