
 OpenBabel03252507323D

 52 55  0  0  1  0  0  0  0  0999 V2000
   46.9410   32.8240   45.5200 C   0  0  0  0  0  0  0  0  0  0  0  0
   45.8430   33.4990   46.0360 C   0  0  0  0  0  0  0  0  0  0  0  0
   45.1630   34.4450   45.2350 C   0  0  0  0  0  0  0  0  0  0  0  0
   45.6600   34.6390   43.9490 N   0  0  0  0  0  0  0  0  0  0  0  0
   46.7260   33.9560   43.5130 C   0  0  0  0  0  0  0  0  0  0  0  0
   47.3540   33.0650   44.2810 N   0  0  0  0  0  0  0  0  0  0  0  0
   45.3270   33.5370   46.9730 H   0  0  0  0  0  0  0  0  0  0  0  0
   44.3210   35.0440   45.4530 H   0  0  0  0  0  0  0  0  0  0  0  0
   47.5880   31.8490   46.3740 C   0  0  2  0  0  0  0  0  0  0  0  0
   47.3660   30.3960   45.8530 C   0  0  0  0  0  0  0  0  0  0  0  0
   48.1840   29.4520   46.6650 C   0  0  0  0  0  0  0  0  0  0  0  0
   48.1470   29.6600   48.1430 C   0  0  0  0  0  0  0  0  0  0  0  0
   48.1220   31.0430   48.5490 C   0  0  0  0  0  0  0  0  0  0  0  0
   47.1290   31.9120   47.7470 C   0  0  2  0  0  0  0  0  0  0  0  0
   48.6880   31.9660   46.2860 H   0  0  0  0  0  0  0  0  0  0  0  0
   46.2970   30.1730   45.7920 H   0  0  0  0  0  0  0  0  0  0  0  0
   47.7410   30.4340   44.8100 H   0  0  0  0  0  0  0  0  0  0  0  0
   49.1850   29.4250   46.1940 H   0  0  0  0  0  0  0  0  0  0  0  0
   47.7600   28.4220   46.4750 H   0  0  0  0  0  0  0  0  0  0  0  0
   49.2590   29.4160   48.3850 H   0  0  0  0  0  0  0  0  0  0  0  0
   47.7740   28.8470   48.7680 H   0  0  0  0  0  0  0  0  0  0  0  0
   49.0730   31.6290   48.5380 H   0  0  0  0  0  0  0  0  0  0  0  0
   47.7520   31.1250   49.6120 H   0  0  0  0  0  0  0  0  0  0  0  0
   47.2320   32.8710   48.2570 H   0  0  0  0  0  0  0  0  0  0  0  0
   45.7970   31.3140   47.8580 N   0  0  0  0  0  0  0  0  0  0  0  0
   45.1290   30.7130   48.9400 C   0  0  0  0  0  0  0  0  0  0  0  0
   44.5950   31.3890   49.8920 O   0  0  0  0  0  0  0  0  0  0  0  0
   45.0830   29.2880   48.8960 N   0  0  0  0  0  0  0  0  0  0  0  0
   45.1410   31.2070   46.9950 H   0  0  0  0  0  0  0  0  0  0  0  0
   44.6320   28.7350   48.1370 H   0  0  0  0  0  0  0  0  0  0  0  0
   45.3830   28.4330   49.4280 H   0  0  0  0  0  0  0  0  0  0  0  0
   47.2130   34.2230   42.1560 C   0  0  0  0  0  0  0  0  0  0  0  0
   48.2230   35.1190   41.9260 C   0  0  0  0  0  0  0  0  0  0  0  0
   48.7110   35.4010   40.6670 C   0  0  0  0  0  0  0  0  0  0  0  0
   48.1120   34.7130   39.6180 C   0  0  0  0  0  0  0  0  0  0  0  0
   47.0970   33.8110   39.8360 C   0  0  0  0  0  0  0  0  0  0  0  0
   46.6710   33.5880   41.1080 N   0  0  0  0  0  0  0  0  0  0  0  0
   48.6460   35.6190   42.7760 H   0  0  0  0  0  0  0  0  0  0  0  0
   49.5070   36.1150   40.5440 H   0  0  0  0  0  0  0  0  0  0  0  0
   48.5090   34.9500   38.6490 H   0  0  0  0  0  0  0  0  0  0  0  0
   45.5480   32.0930   38.9950 C   0  0  0  0  0  0  0  0  0  0  0  0
   46.4740   33.0950   38.7440 C   0  0  0  0  0  0  0  0  0  0  0  0
   46.7620   33.3670   37.4250 C   0  0  0  0  0  0  0  0  0  0  0  0
   47.4700   34.1300   37.1370 H   0  0  0  0  0  0  0  0  0  0  0  0
   46.1950   32.7120   36.3510 C   0  0  0  0  0  0  0  0  0  0  0  0
   46.4410   32.9470   35.3190 H   0  0  0  0  0  0  0  0  0  0  0  0
   45.2820   31.7230   36.5740 C   0  0  0  0  0  3  0  0  0  0  0  0
   44.9840   31.4410   37.8900 C   0  0  0  0  0  3  0  0  0  0  0  0
   45.3000   32.6330   41.5250 H   0  0  0  0  0  0  0  0  0  0  0  0
   45.0730   31.6280   40.6120 S   0  0  0  0  0  0  0  0  0  0  0  0
   43.5580   31.4480   40.6070 O   0  0  0  0  0  0  0  0  0  0  0  0
   45.6810   30.3200   41.0400 O   0  0  0  0  0  0  0  0  0  0  0  0
  1  2  1  0  0  0  0
  1  9  1  0  0  0  0
  2  7  1  0  0  0  0
  3  8  1  0  0  0  0
  3  2  2  0  0  0  0
  4  3  1  0  0  0  0
  5  4  2  0  0  0  0
  5  6  1  0  0  0  0
  6  1  2  0  0  0  0
  9 15  1  6  0  0  0
  9 14  1  0  0  0  0
 10  9  1  0  0  0  0
 10 11  1  0  0  0  0
 11 12  1  0  0  0  0
 12 20  1  0  0  0  0
 12 13  1  0  0  0  0
 12 21  1  0  0  0  0
 13 23  1  0  0  0  0
 14 25  1  0  0  0  0
 14 24  1  1  0  0  0
 14 13  1  0  0  0  0
 16 10  1  0  0  0  0
 17 10  1  0  0  0  0
 18 11  1  0  0  0  0
 19 11  1  0  0  0  0
 22 13  1  0  0  0  0
 25 26  1  0  0  0  0
 26 27  2  0  0  0  0
 28 26  1  0  0  0  0
 28 31  1  0  0  0  0
 29 25  1  0  0  0  0
 30 28  1  0  0  0  0
 32  5  1  0  0  0  0
 33 32  1  0  0  0  0
 33 38  1  0  0  0  0
 34 33  2  0  0  0  0
 35 36  2  0  0  0  0
 35 34  1  0  0  0  0
 36 37  1  0  0  0  0
 37 32  2  0  0  0  0
 39 34  1  0  0  0  0
 40 35  1  0  0  0  0
 41 50  1  0  0  0  0
 42 41  1  0  0  0  0
 42 36  1  0  0  0  0
 43 42  2  0  0  0  0
 44 43  1  0  0  0  0
 45 47  2  0  0  0  0
 45 43  1  0  0  0  0
 46 45  1  0  0  0  0
 47 48  1  0  0  0  0
 48 41  2  0  0  0  0
 50 52  2  0  0  0  0
 50 49  1  0  0  0  0
 51 50  2  0  0  0  0
M  END
>  <minimizedAffinity>
-6.32426596

>  <minimizedRMSD>
0.265635431

$$$$
