
     RDKit          3D

 40 42  0  0  0  0  0  0  0  0999 V2000
   46.8164   34.1011   43.0690 C   0  0  0  0  0  0  0  0  0  0  0  0
   45.6432   33.7121   42.4305 C   0  0  0  0  0  0  0  0  0  0  0  0
   44.9050   32.6541   43.0198 C   0  0  0  0  0  0  0  0  0  0  0  0
   45.3761   32.0879   44.1563 N   0  0  0  0  0  0  0  0  0  0  0  0
   46.5208   32.5058   44.7325 C   0  0  0  0  0  0  0  0  0  0  0  0
   47.2359   33.5097   44.1875 N   0  0  0  0  0  0  0  0  0  0  0  0
   47.6731   29.9176   44.8081 F   0  0  0  0  0  0  0  0  0  0  0  0
   47.5954   30.6424   45.9645 C   0  0  0  0  0  0  0  0  0  0  0  0
   47.0408   31.9031   45.9600 C   0  0  0  0  0  0  0  0  0  0  0  0
   47.0030   32.5669   47.1798 C   0  0  0  0  0  0  0  0  0  0  0  0
   47.4927   31.9959   48.3284 C   0  0  0  0  0  0  0  0  0  0  0  0
   48.0419   30.7212   48.2778 C   0  0  0  0  0  0  0  0  0  0  0  0
   48.1046   30.0083   47.0741 C   0  0  0  0  0  0  0  0  0  0  0  0
   45.2006   34.3854   41.1904 C   0  0  0  0  0  0  0  0  0  0  0  0
   44.9078   35.7128   41.4681 F   0  0  0  0  0  0  0  0  0  0  0  0
   46.2704   34.3911   40.3124 F   0  0  0  0  0  0  0  0  0  0  0  0
   44.1250   33.8286   40.5845 F   0  0  0  0  0  0  0  0  0  0  0  0
   47.5112   35.1161   42.4911 O   0  0  0  0  0  0  0  0  0  0  0  0
   48.8142   35.0514   41.9544 C   0  0  0  0  0  0  0  0  0  0  0  0
   49.7023   35.2822   42.9999 F   0  0  0  0  0  0  0  0  0  0  0  0
   49.0131   33.8324   41.3533 F   0  0  0  0  0  0  0  0  0  0  0  0
   49.0095   36.0986   41.0816 F   0  0  0  0  0  0  0  0  0  0  0  0
   43.9873   32.3296   42.5449 H   0  0  0  0  0  0  0  0  0  0  0  0
   46.5713   33.5558   47.1923 H   0  0  0  0  0  0  0  0  0  0  0  0
   47.4526   32.5282   49.2598 H   0  0  0  0  0  0  0  0  0  0  0  0
   48.4448   30.2173   49.1505 H   0  0  0  0  0  0  0  0  0  0  0  0
   51.1017   30.2771   45.1400 H   0  0  0  0  0  0  0  0  0  0  0  0
   50.0186   29.5118   44.7472 S   0  0  0  0  0  0  0  0  0  0  0  0
   48.8202   30.3601   44.4330 O   0  0  0  0  0  0  0  0  0  0  0  0
   50.3795   28.7403   43.4858 O   0  0  0  0  0  0  0  0  0  0  0  0
   49.5549   28.3874   46.0061 C   0  0  0  0  0  0  0  0  0  0  0  0
   48.6845   28.6688   47.0332 C   0  0  0  0  0  0  0  0  0  0  0  0
   48.3903   27.6838   47.9837 C   0  0  0  0  0  0  0  0  0  0  0  0
   47.6956   27.9808   48.7632 H   0  0  0  0  0  0  0  0  0  0  0  0
   48.9735   26.4372   47.8863 C   0  0  0  0  0  0  0  0  0  0  0  0
   48.6946   25.7319   48.6598 H   0  0  0  0  0  0  0  0  0  0  0  0
   49.8536   26.1298   46.8605 C   0  0  0  0  0  0  0  0  0  0  0  0
   50.1180   27.1303   45.9419 C   0  0  0  0  0  0  0  0  0  0  0  0
   50.2603   25.1452   46.8570 H   0  0  0  0  0  0  0  0  0  0  0  0
   50.8116   26.8584   45.1501 H   0  0  0  0  0  0  0  0  0  0  0  0
  1  6  2  0
  2  3  2  0
  2  1  1  0
  3  4  1  0
  4  5  2  0
  5  9  1  0
  6  5  1  0
  7  8  1  0
  8 13  2  0
  9  8  1  0
  9 10  2  0
 10 11  1  0
 12 11  2  0
 13 12  1  0
 14 15  1  0
 14  2  1  0
 16 14  1  0
 17 14  1  0
 18  1  1  0
 19 18  1  0
 19 20  1  0
 21 19  1  0
 22 19  1  0
  3 23  1  0
 10 24  1  0
 11 25  1  0
 12 26  1  0
 27 28  1  0
 28 29  2  0
 28 30  2  0
 28 31  1  0
 31 32  2  0
 32 33  1  0
 33 34  1  0
 33 35  2  0
 35 36  1  0
 35 37  1  0
 37 38  2  0
 38 31  1  0
 37 39  1  0
 38 40  1  0
 13 32  1  0
M  ISO  7  23  14  24  14  25  14  26  14  27  12  34  15  36  16
M  END
>  <DihAtoms>  (1) 
7,12,31,30

>  <DihDeg>  (1) 
-89.99393299520084

$$$$
