
 OpenBabel03252506123D

 39 41  0  0  0  0  0  0  0  0999 V2000
   45.0600   33.3270   41.1580 F   0  0  0  0  0  0  0  0  0  0  0  0
   46.2390   33.9200   40.9730 C   0  0  0  0  0  0  0  0  0  0  0  0
   46.7630   34.7210   41.9850 C   0  0  0  0  0  0  0  0  0  0  0  0
   47.9870   35.3750   41.8770 C   0  0  0  0  0  0  0  0  0  0  0  0
   48.7350   35.2320   40.7090 C   0  0  0  0  0  0  0  0  0  0  0  0
   48.1800   34.4270   39.7250 C   0  0  0  0  0  0  0  0  0  0  0  0
   46.9870   33.7820   39.8160 C   0  0  0  0  0  0  0  0  0  0  0  0
   48.3310   35.9880   42.7170 H   0  0  0  0  0  0  0  0  0  0  0  0
   49.6580   35.7550   40.6900 H   0  0  0  0  0  0  0  0  0  0  0  0
   48.8660   34.4000   38.8860 H   0  0  0  0  0  0  0  0  0  0  0  0
   45.4060   34.1050   45.3390 C   0  0  0  0  0  0  0  0  0  0  0  0
   44.6170   35.2490   45.5480 C   0  0  0  0  0  0  0  0  0  0  0  0
   44.5520   36.2310   44.5340 C   0  0  0  0  0  0  0  0  0  0  0  0
   45.2770   35.9970   43.3960 N   0  0  0  0  0  0  0  0  0  0  0  0
   46.0160   34.9000   43.2310 C   0  0  0  0  0  0  0  0  0  0  0  0
   46.0770   33.9650   44.1960 N   0  0  0  0  0  0  0  0  0  0  0  0
   44.0460   35.4300   46.4450 H   0  0  0  0  0  0  0  0  0  0  0  0
   43.9590   37.1270   44.6480 H   0  0  0  0  0  0  0  0  0  0  0  0
   45.4630   33.1260   46.3620 N   0  0  0  0  0  0  0  0  0  0  0  0
   44.7220   32.4410   46.6920 H   0  0  0  0  0  0  0  0  0  0  0  0
   46.3480   33.0250   46.9010 H   0  0  0  0  0  0  0  0  0  0  0  0
   46.5390   33.0140   38.7770 O   0  0  0  0  0  0  0  0  0  0  0  0
   47.7910   34.3840   36.8880 O   0  0  0  0  0  0  0  0  0  0  0  0
   46.7560   33.3070   37.1390 P   0  0  2  0  0  0  0  0  0  0  0  0
   45.2510   33.7820   36.4760 O   0  0  0  0  0  0  0  0  0  0  0  0
   45.3720   34.5640   35.8850 H   0  0  0  0  0  0  0  0  0  0  0  0
   47.2020   31.9350   36.2590 O   0  0  0  0  0  0  0  0  0  0  0  0
   47.0650   31.2300   34.0600 C   0  0  0  0  0  0  0  0  0  0  0  0
   47.8110   31.9000   35.0350 C   0  0  0  0  0  0  0  0  0  0  0  0
   49.0220   32.4180   34.6400 C   0  0  0  0  0  0  0  0  0  0  0  0
   49.5590   32.9250   35.4290 H   0  0  0  0  0  0  0  0  0  0  0  0
   49.4910   32.2920   33.3550 C   0  0  0  0  0  0  0  0  0  0  0  0
   50.4450   32.7120   33.0810 H   0  0  0  0  0  0  0  0  0  0  0  0
   48.7680   31.6340   32.3750 C   0  0  0  0  0  3  0  0  0  0  0  0
   47.5520   31.1150   32.7740 C   0  0  0  0  0  3  0  0  0  0  0  0
   45.5990   29.7870   35.5430 H   0  0  0  0  0  0  0  0  0  0  0  0
   45.4890   30.5060   34.4000 S   0  0  0  0  0  0  0  0  0  0  0  0
   44.4700   31.6270   34.5480 O   0  0  0  0  0  0  0  0  0  0  0  0
   45.0530   29.7050   33.2180 O   0  0  0  0  0  0  0  0  0  0  0  0
  2  1  1  0  0  0  0
  2  3  1  0  0  0  0
  3 15  1  0  0  0  0
  4  3  2  0  0  0  0
  4  8  1  0  0  0  0
  5  4  1  0  0  0  0
  6  7  1  0  0  0  0
  6  5  2  0  0  0  0
  7  2  2  0  0  0  0
  9  5  1  0  0  0  0
 10  6  1  0  0  0  0
 11 12  1  0  0  0  0
 11 19  1  0  0  0  0
 12 17  1  0  0  0  0
 13 18  1  0  0  0  0
 13 12  2  0  0  0  0
 14 13  1  0  0  0  0
 15 14  2  0  0  0  0
 15 16  1  0  0  0  0
 16 11  2  0  0  0  0
 19 20  1  0  0  0  0
 19 21  1  0  0  0  0
 22  7  1  0  0  0  0
 24 23  2  6  0  0  0
 24 22  1  0  0  0  0
 25 24  1  0  0  0  0
 26 25  1  0  0  0  0
 27 24  1  0  0  0  0
 28 37  1  0  0  0  0
 28 29  1  0  0  0  0
 29 27  1  0  0  0  0
 30 29  2  0  0  0  0
 30 31  1  0  0  0  0
 32 30  1  0  0  0  0
 33 32  1  0  0  0  0
 34 35  1  0  0  0  0
 34 32  2  0  0  0  0
 35 28  2  0  0  0  0
 37 38  2  0  0  0  0
 37 36  1  0  0  0  0
 39 37  2  0  0  0  0
M  END
>  <minimizedAffinity>
-6.83619213

>  <minimizedRMSD>
2.86581445

$$$$
