
 OpenBabel03252508443D

 42 44  0  0  0  0  0  0  0  0999 V2000
   43.3740   35.8430   42.4630 C   0  0  0  0  0  0  0  0  0  0  0  0
   44.3010   35.2630   42.2390 H   0  0  0  0  0  0  0  0  0  0  0  0
   43.5720   36.9110   42.2300 H   0  0  0  0  0  0  0  0  0  0  0  0
   42.4540   34.0620   40.9750 C   0  0  0  0  0  0  0  0  0  0  0  0
   42.3040   35.3000   41.5970 C   0  0  0  0  0  0  0  0  0  0  0  0
   41.1370   35.9990   41.3830 C   0  0  0  0  0  0  0  0  0  0  0  0
   40.1550   35.4950   40.5850 C   0  0  0  0  0  0  0  0  0  0  0  0
   40.2670   34.2860   39.9600 C   0  0  0  0  0  0  0  0  0  0  0  0
   41.4580   33.5920   40.1890 C   0  0  0  0  0  0  0  0  0  0  0  0
   40.9490   36.9640   41.8320 H   0  0  0  0  0  0  0  0  0  0  0  0
   39.2320   36.0310   40.4070 H   0  0  0  0  0  0  0  0  0  0  0  0
   39.5630   33.7860   39.3090 H   0  0  0  0  0  0  0  0  0  0  0  0
   41.6810   32.6190   39.7540 H   0  0  0  0  0  0  0  0  0  0  0  0
   45.1070   31.7780   42.3870 C   0  0  0  0  0  0  0  0  0  0  0  0
   43.8600   32.4020   42.2210 C   0  0  0  0  0  0  0  0  0  0  0  0
   43.7010   33.3590   41.2280 C   0  0  0  0  0  0  0  0  0  0  0  0
   44.7770   33.6480   40.4560 N   0  0  0  0  0  0  0  0  0  0  0  0
   45.9710   33.0350   40.6320 C   0  0  0  0  0  0  0  0  0  0  0  0
   46.1410   32.1120   41.5830 N   0  0  0  0  0  0  0  0  0  0  0  0
   45.2660   31.0350   43.1420 H   0  0  0  0  0  0  0  0  0  0  0  0
   43.0300   32.1590   42.8390 H   0  0  0  0  0  0  0  0  0  0  0  0
   46.8230   33.2820   40.0000 H   0  0  0  0  0  0  0  0  0  0  0  0
   43.1090   35.7560   43.8640 N   0  0  0  0  0  0  0  0  0  0  0  0
   42.5070   34.9670   44.1530 H   0  0  0  0  0  0  0  0  0  0  0  0
   44.5530   35.8080   44.8100 S   0  0  0  0  0  0  0  0  0  0  0  0
   45.4520   34.6580   44.4860 O   0  0  0  0  0  0  0  0  0  0  0  0
   45.8030   33.9500   45.0800 H   0  0  0  0  0  0  0  0  0  0  0  0
   44.2730   35.8830   46.2520 O   0  0  0  0  0  0  0  0  0  0  0  0
   43.5110   35.3980   46.6870 H   0  0  0  0  0  0  0  0  0  0  0  0
   45.3350   37.2440   44.3350 O   0  0  0  0  0  0  0  0  0  0  0  0
   45.2150   39.7270   44.4930 C   0  0  0  0  0  0  0  0  0  0  0  0
   45.0980   38.4330   45.0020 C   0  0  0  0  0  0  0  0  0  0  0  0
   44.7060   38.2230   46.3080 C   0  0  0  0  0  0  0  0  0  0  0  0
   44.5870   37.2630   46.7910 H   0  0  0  0  0  0  0  0  0  0  0  0
   44.4130   39.2870   47.1680 C   0  0  0  0  0  0  0  0  0  0  0  0
   44.1040   39.1490   48.1970 H   0  0  0  0  0  0  0  0  0  0  0  0
   44.5360   40.5690   46.6450 C   0  0  0  0  0  3  0  0  0  0  0  0
   44.9260   40.7450   45.3450 C   0  0  0  0  0  3  0  0  0  0  0  0
   44.9810   38.9340   42.0860 H   0  0  0  0  0  0  0  0  0  0  0  0
   45.7180   39.8390   42.8300 S   0  0  0  0  0  0  0  0  0  0  0  0
   45.5290   41.2300   42.2790 O   0  0  0  0  0  0  0  0  0  0  0  0
   47.2010   39.5250   42.6890 O   0  0  0  0  0  0  0  0  0  0  0  0
  1 23  1  0  0  0  0
  2  1  1  0  0  0  0
  3  1  1  0  0  0  0
  4 16  1  0  0  0  0
  4  5  1  0  0  0  0
  5  1  1  0  0  0  0
  6  5  2  0  0  0  0
  6 10  1  0  0  0  0
  7  6  1  0  0  0  0
  8  9  1  0  0  0  0
  8  7  2  0  0  0  0
  9  4  2  0  0  0  0
 11  7  1  0  0  0  0
 12  8  1  0  0  0  0
 13  9  1  0  0  0  0
 14 20  1  0  0  0  0
 15 14  1  0  0  0  0
 15 21  1  0  0  0  0
 16 15  2  0  0  0  0
 17 18  2  0  0  0  0
 17 16  1  0  0  0  0
 18 19  1  0  0  0  0
 19 14  2  0  0  0  0
 22 18  1  0  0  0  0
 23 24  1  0  0  0  0
 23 25  1  0  0  0  0
 25 28  1  0  0  0  0
 26 25  1  0  0  0  0
 26 27  1  0  0  0  0
 28 29  1  0  0  0  0
 30 25  1  0  0  0  0
 30 32  1  0  0  0  0
 31 32  2  0  0  0  0
 31 38  1  0  0  0  0
 32 33  1  0  0  0  0
 33 34  1  0  0  0  0
 33 35  2  0  0  0  0
 35 36  1  0  0  0  0
 37 35  1  0  0  0  0
 38 37  2  0  0  0  0
 39 40  1  0  0  0  0
 40 31  1  0  0  0  0
 41 40  2  0  0  0  0
 42 40  2  0  0  0  0
M  END
>  <minimizedAffinity>
2.1286788

>  <minimizedRMSD>
1.4306612

$$$$
