
     RDKit          3D

 30 31  0  0  0  0  0  0  0  0999 V2000
   44.7109   35.3789   45.0234 C   0  0  0  0  0  0  0  0  0  0  0  0
   45.5944   34.9329   44.0462 C   0  0  0  0  0  0  0  0  0  0  0  0
   46.3574   33.7849   44.3323 C   0  0  0  0  0  0  0  0  0  0  0  0
   46.1991   33.1748   45.5299 N   0  0  0  0  0  0  0  0  0  0  0  0
   45.3240   33.6509   46.4475 C   0  0  0  0  0  0  0  0  0  0  0  0
   44.5911   34.7346   46.1998 N   0  0  0  0  0  0  0  0  0  0  0  0
   45.6744   35.6988   42.7616 C   0  0  0  0  0  0  0  0  0  0  0  0
   45.2728   36.9770   43.0887 F   0  0  0  0  0  0  0  0  0  0  0  0
   44.7881   35.1063   41.8895 F   0  0  0  0  0  0  0  0  0  0  0  0
   46.9710   35.6308   42.3015 F   0  0  0  0  0  0  0  0  0  0  0  0
   45.1385   33.0518   47.6812 O   0  0  0  0  0  0  0  0  0  0  0  0
   46.1562   32.2922   48.3065 C   0  0  0  0  0  0  0  0  0  0  0  0
   44.1174   36.2441   44.8417 H   0  0  0  0  0  0  0  0  0  0  0  0
   47.0390   33.4508   43.5624 H   0  0  0  0  0  0  0  0  0  0  0  0
   45.7538   31.9364   49.2735 H   0  0  0  0  0  0  0  0  0  0  0  0
   47.0810   32.9184   48.4649 H   0  0  0  0  0  0  0  0  0  0  0  0
   43.7169   31.2614   48.5204 H   0  0  0  0  0  0  0  0  0  0  0  0
   43.9426   30.2241   47.6898 S   0  0  0  0  0  0  0  0  0  0  0  0
   43.5251   28.9724   48.4132 O   0  0  0  0  0  0  0  0  0  0  0  0
   43.0556   30.3541   46.4591 O   0  0  0  0  0  0  0  0  0  0  0  0
   45.6061   30.1791   47.2207 C   0  0  0  0  0  0  0  0  0  0  0  0
   46.5891   31.1220   47.5023 C   0  0  0  0  0  0  0  0  0  0  0  0
   47.8736   30.9251   47.0413 C   0  0  0  0  0  0  0  0  0  0  0  0
   48.5825   31.7245   47.3118 H   0  0  0  0  0  0  0  0  0  0  0  0
   48.2646   29.8308   46.3018 C   0  0  0  0  0  0  0  0  0  0  0  0
   49.2870   29.7247   45.9650 H   0  0  0  0  0  0  0  0  0  0  0  0
   47.2980   28.8652   46.0032 C   0  0  0  0  0  0  0  0  0  0  0  0
   46.0257   29.0927   46.4781 C   0  0  0  0  0  0  0  0  0  0  0  0
   47.5814   28.0142   45.4339 H   0  0  0  0  0  0  0  0  0  0  0  0
   45.3210   28.2987   46.2078 H   0  0  0  0  0  0  0  0  0  0  0  0
  1  6  2  0
  2  3  2  0
  2  1  1  0
  3  4  1  0
  4  5  2  0
  5 11  1  0
  6  5  1  0
  7  8  1  0
  7  2  1  0
  9  7  1  0
 10  7  1  0
 11 12  1  0
  1 13  1  0
  3 14  1  0
 12 15  1  0
 12 16  1  0
 17 18  1  0
 18 19  2  0
 18 20  2  0
 18 21  1  0
 21 22  2  0
 22 23  1  0
 23 24  1  0
 23 25  2  0
 25 26  1  0
 25 27  1  0
 27 28  2  0
 28 21  1  0
 27 29  1  0
 28 30  1  0
 12 22  1  0
M  ISO  7  13  14  14  14  15   8  16   8  17  12  24  15  26  16
M  END
>  <DihAtoms>  (1) 
10,11,21,20

>  <DihDeg>  (1) 
-75.57360799060324

$$$$
