
 OpenBabel03252509233D

 30 32  0  0  1  0  0  0  0  0999 V2000
   46.3000   34.9360   42.0430 C   0  0  1  0  0  0  0  0  0  0  0  0
   47.8170   35.1850   41.8650 C   0  0  0  0  0  0  0  0  0  0  0  0
   47.0250   33.9670   41.3030 C   0  0  2  0  0  0  0  0  0  0  0  0
   45.6750   35.7300   41.6250 H   0  0  0  0  0  0  0  0  0  0  0  0
   48.0310   35.9960   41.1780 H   0  0  0  0  0  0  0  0  0  0  0  0
   48.4970   35.0200   42.6980 H   0  0  0  0  0  0  0  0  0  0  0  0
   47.3090   33.0160   41.8610 H   0  0  0  0  0  0  0  0  0  0  0  0
   44.7600   35.0500   45.4710 C   0  0  0  0  0  0  0  0  0  0  0  0
   45.0360   35.4180   44.1290 C   0  0  0  0  0  0  0  0  0  0  0  0
   46.0030   34.6450   43.5050 C   0  0  0  0  0  0  0  0  0  0  0  0
   46.6320   33.6060   44.1640 N   0  0  0  0  0  0  0  0  0  0  0  0
   46.3250   33.3100   45.4300 C   0  0  0  0  0  0  0  0  0  0  0  0
   45.3810   34.0370   46.0900 N   0  0  0  0  0  0  0  0  0  0  0  0
   44.0140   35.6240   45.9930 H   0  0  0  0  0  0  0  0  0  0  0  0
   46.9100   32.4750   45.7830 H   0  0  0  0  0  0  0  0  0  0  0  0
   44.4030   36.5120   43.4650 N   0  0  0  0  0  0  0  0  0  0  0  0
   45.0080   37.3380   43.6720 H   0  0  0  0  0  0  0  0  0  0  0  0
   43.5320   36.4100   42.9200 H   0  0  0  0  0  0  0  0  0  0  0  0
   46.2260   33.2080   38.9310 C   0  0  0  0  0  0  0  0  0  0  0  0
   47.0540   33.7980   39.8310 C   0  0  0  0  0  0  0  0  0  0  0  0
   48.1940   34.4260   39.3080 C   0  0  0  0  0  0  0  0  0  0  0  0
   48.9790   34.9540   39.8670 H   0  0  0  0  0  0  0  0  0  0  0  0
   48.4620   34.4440   37.9480 C   0  0  0  0  0  0  0  0  0  0  0  0
   49.3230   34.9130   37.4970 H   0  0  0  0  0  0  0  0  0  0  0  0
   47.6040   33.8390   37.0800 C   0  0  0  0  0  0  0  0  0  0  0  0
   46.4800   33.2180   37.5790 C   0  0  0  0  0  0  0  0  0  0  0  0
   45.1400   31.6560   40.6750 H   0  0  0  0  0  0  0  0  0  0  0  0
   44.8340   32.4080   39.5730 S   0  0  0  0  0  0  0  0  0  0  0  0
   44.3200   31.3970   38.5520 O   0  0  0  0  0  0  0  0  0  0  0  0
   43.7470   33.3610   39.9510 O   0  0  0  0  0  0  0  0  0  0  0  0
  1  4  1  6  0  0  0
  1 10  1  0  0  0  0
  2  1  1  0  0  0  0
  2  6  1  0  0  0  0
  3  7  1  1  0  0  0
  3  2  1  0  0  0  0
  3  1  1  0  0  0  0
  5  2  1  0  0  0  0
  8 14  1  0  0  0  0
  8 13  1  0  0  0  0
  9  8  2  0  0  0  0
 10  9  1  0  0  0  0
 10 11  2  0  0  0  0
 11 12  1  0  0  0  0
 12 15  1  0  0  0  0
 12 13  2  0  0  0  0
 16 17  1  0  0  0  0
 16  9  1  0  0  0  0
 18 16  1  0  0  0  0
 19 28  1  0  0  0  0
 19 20  1  0  0  0  0
 20  3  1  0  0  0  0
 21 20  2  0  0  0  0
 21 22  1  0  0  0  0
 23 21  1  0  0  0  0
 24 23  1  0  0  0  0
 25 26  1  0  0  0  0
 25 23  2  0  0  0  0
 26 19  2  0  0  0  0
 28 30  2  0  0  0  0
 28 27  1  0  0  0  0
 29 28  2  0  0  0  0
M  END
>  <minimizedAffinity>
-5.43859816

>  <minimizedRMSD>
0.931034505

$$$$
