
 OpenBabel03252502013D

 37 40  0  0  0  0  0  0  0  0999 V2000
   47.1710   32.3380   48.0500 C   0  0  0  0  0  0  0  0  0  0  0  0
   47.4390   30.9740   47.8760 C   0  0  0  0  0  0  0  0  0  0  0  0
   47.3280   30.4700   46.6120 C   0  0  0  0  0  0  0  0  0  0  0  0
   46.9710   31.3080   45.6270 N   0  0  0  0  0  0  0  0  0  0  0  0
   46.7160   32.5940   45.7770 C   0  0  0  0  0  0  0  0  0  0  0  0
   46.8260   33.0780   47.0050 N   0  0  0  0  0  0  0  0  0  0  0  0
   47.2600   32.7510   49.0700 H   0  0  0  0  0  0  0  0  0  0  0  0
   46.3190   33.6220   44.8110 C   0  0  0  0  0  0  0  0  0  0  0  0
   45.2110   34.4040   44.9450 N   0  0  0  0  0  0  0  0  0  0  0  0
   44.8120   35.3450   44.1030 C   0  0  0  0  0  0  0  0  0  0  0  0
   45.5440   35.5880   42.9920 N   0  0  0  0  0  0  0  0  0  0  0  0
   46.6630   34.8840   42.7440 C   0  0  0  0  0  0  0  0  0  0  0  0
   47.4050   35.1450   41.6000 C   0  0  0  0  0  0  0  0  0  0  0  0
   48.5470   34.4350   41.3320 C   0  0  0  0  0  0  0  0  0  0  0  0
   48.9240   33.4680   42.2330 C   0  0  0  0  0  0  0  0  0  0  0  0
   48.1520   33.2460   43.3570 C   0  0  0  0  0  0  0  0  0  0  0  0
   47.0080   33.9250   43.6670 C   0  0  0  0  0  0  0  0  0  0  0  0
   43.9140   35.9210   44.2890 H   0  0  0  0  0  0  0  0  0  0  0  0
   47.0220   35.9310   40.9490 H   0  0  0  0  0  0  0  0  0  0  0  0
   49.0550   34.7110   40.4180 H   0  0  0  0  0  0  0  0  0  0  0  0
   49.8240   32.9230   42.0040 H   0  0  0  0  0  0  0  0  0  0  0  0
   48.5050   32.4610   44.0370 H   0  0  0  0  0  0  0  0  0  0  0  0
   46.5210   28.1710   46.3860 C   0  0  0  0  0  0  0  0  0  0  0  0
   47.5670   29.0910   46.2430 C   0  0  0  0  0  0  0  0  0  0  0  0
   48.7320   28.5570   45.7580 C   0  0  0  0  0  0  0  0  0  0  0  0
   49.5820   29.1940   45.6190 H   0  0  0  0  0  0  0  0  0  0  0  0
   48.9800   27.2510   45.4060 C   0  0  0  0  0  0  0  0  0  0  0  0
   49.9250   26.9050   45.0310 H   0  0  0  0  0  0  0  0  0  0  0  0
   47.9520   26.3450   45.5470 C   0  0  0  0  0  3  0  0  0  0  0  0
   46.7600   26.8340   46.0310 C   0  0  0  0  0  3  0  0  0  0  0  0
   44.3510   29.6180   46.2720 H   0  0  0  0  0  0  0  0  0  0  0  0
   44.9390   28.5830   46.9770 S   0  0  0  0  0  0  0  0  0  0  0  0
   44.8810   28.7830   48.4580 O   0  0  0  0  0  0  0  0  0  0  0  0
   44.0200   27.3990   46.7030 O   0  0  0  0  0  0  0  0  0  0  0  0
   47.8040   30.2250   49.0090 N   0  0  0  0  0  0  0  0  0  0  0  0
   46.8300   29.9270   49.3180 H   0  0  0  0  0  0  0  0  0  0  0  0
   48.8570   30.3600   48.9450 H   0  0  0  0  0  0  0  0  0  0  0  0
  1  7  1  0  0  0  0
  2  1  1  0  0  0  0
  2 35  1  0  0  0  0
  3  2  2  0  0  0  0
  4  5  2  0  0  0  0
  4  3  1  0  0  0  0
  5  6  1  0  0  0  0
  6  1  2  0  0  0  0
  8  9  1  0  0  0  0
  8  5  1  0  0  0  0
 10 18  1  0  0  0  0
 10  9  2  0  0  0  0
 11 10  1  0  0  0  0
 12 11  2  0  0  0  0
 12 17  1  0  0  0  0
 13 12  1  0  0  0  0
 14 13  2  0  0  0  0
 14 15  1  0  0  0  0
 15 16  2  0  0  0  0
 16 17  1  0  0  0  0
 16 22  1  0  0  0  0
 17  8  2  0  0  0  0
 19 13  1  0  0  0  0
 20 14  1  0  0  0  0
 21 15  1  0  0  0  0
 23 32  1  0  0  0  0
 24 23  1  0  0  0  0
 24  3  1  0  0  0  0
 25 24  2  0  0  0  0
 26 25  1  0  0  0  0
 27 29  2  0  0  0  0
 27 25  1  0  0  0  0
 28 27  1  0  0  0  0
 29 30  1  0  0  0  0
 30 23  2  0  0  0  0
 31 32  1  0  0  0  0
 32 33  2  0  0  0  0
 34 32  2  0  0  0  0
 35 36  1  0  0  0  0
 37 35  1  0  0  0  0
M  END
>  <minimizedAffinity>
-5.82269716

>  <minimizedRMSD>
2.02495766

$$$$
