REMARK  Name = 
REMARK  11 active torsions:
REMARK  status: ('A' for Active; 'I' for Inactive)
REMARK    1  A    between atoms: C_1  and  O_13
REMARK    2  A    between atoms: C_2  and  C_10
REMARK    3  A    between atoms: C_5  and  O_14
REMARK    4  A    between atoms: C_6  and  O_12
REMARK    5  A    between atoms: O_14  and  C_15
REMARK    6  A    between atoms: C_15  and  C_16
REMARK    7  A    between atoms: C_16  and  C_18
REMARK    8  A    between atoms: C_17  and  O_23
REMARK    9  A    between atoms: C_22  and  O_24
REMARK   10  A    between atoms: O_24  and  C_47
REMARK   11  A    between atoms: S_43  and  C_46
REMARK                            x       y       z     vdW  Elec       q    Type
REMARK                         _______ _______ _______ _____ _____    ______ ____
ROOT
ATOM      1  C   UNL     1      44.802  28.212  46.054  0.00  0.00    +0.000 C 
ATOM      2  H   UNL     1      44.897  28.764  45.131  0.00  0.00    +0.000 HD
ATOM      3  H   UNL     1      45.619  27.454  46.096  0.00  0.00    +0.000 HD
ENDROOT
BRANCH   1   5
ATOM      4  C   UNL     1      42.442  28.075  45.469  0.00  0.00    +0.000 A 
ATOM      5  C   UNL     1      43.524  27.497  46.143  0.00  0.00    +0.000 A 
ATOM      6  C   UNL     1      43.205  26.336  46.812  0.00  0.00    +0.000 A 
ATOM      7  C   UNL     1      41.985  25.754  46.859  0.00  0.00    +0.000 A 
ATOM      8  C   UNL     1      40.925  26.356  46.177  0.00  0.00    +0.000 A 
ATOM      9  C   UNL     1      41.154  27.562  45.453  0.00  0.00    +0.000 A 
ATOM     10  H   UNL     1      44.048  25.911  47.319  0.00  0.00    +0.000 HD
ATOM     11  H   UNL     1      41.859  24.838  47.421  0.00  0.00    +0.000 HD
ATOM     12  H   UNL     1      39.999  25.846  46.256  0.00  0.00    +0.000 HD
BRANCH   4  13
ATOM     13  O   UNL     1      42.471  29.231  44.719  0.00  0.00    +0.000 OA
ATOM     14  H   UNL     1      42.973  30.041  45.039  0.00  0.00    +0.000 HD
ENDBRANCH   4  13
BRANCH   9  15
ATOM     15  O   UNL     1      40.086  28.016  44.866  0.00  0.00    +0.000 OA
BRANCH  15  17
ATOM     16  C   UNL     1      37.860  28.991  44.637  0.00  0.00    +0.000 A 
ATOM     17  C   UNL     1      39.063  28.452  44.303  0.00  0.00    +0.000 A 
ATOM     18  C   UNL     1      39.297  28.313  42.916  0.00  0.00    +0.000 A 
ATOM     19  H   UNL     1      40.165  27.916  42.346  0.00  0.00    +0.000 HD
ATOM     20  C   UNL     1      38.397  28.681  41.896  0.00  0.00    +0.000 A 
ATOM     21  H   UNL     1      38.467  28.622  40.821  0.00  0.00    +0.000 HD
ATOM     22  C   UNL     1      37.198  29.221  42.318  0.00  0.00    +0.000 A 
ATOM     23  C   UNL     1      36.971  29.356  43.668  0.00  0.00    +0.000 A 
BRANCH  16  25
ATOM     24  H   UNL     1      36.282  29.811  46.391  0.00  0.00    +0.000 HD
ATOM     25  S   UNL     1      37.534  29.179  46.336  0.00  0.00    +0.000 S 
ATOM     26  O   UNL     1      37.415  27.890  47.059  0.00  0.00    +0.000 OA
ATOM     27  O   UNL     1      38.455  30.179  46.987  0.00  0.00    +0.000 OA
ENDBRANCH  16  25
ENDBRANCH  15  17
ENDBRANCH   9  15
ENDBRANCH   1   5
BRANCH   1  28
ATOM     28  C   UNL     1      44.977  29.102  47.290  0.00  0.00    +0.000 C 
ATOM     29  H   UNL     1      45.260  28.720  48.222  0.00  0.00    +0.000 HD
ATOM     30  H   UNL     1      43.771  29.236  47.590  0.00  0.00    +0.000 HD
BRANCH  28  31
ATOM     31  O   UNL     1      45.214  30.381  46.986  0.00  0.00    +0.000 OA
BRANCH  31  36
ATOM     32  C   UNL     1      46.369  32.462  46.900  0.00  0.00    +0.000 C 
ATOM     33  C   UNL     1      47.072  32.548  45.621  0.00  0.00    +0.000 C 
ATOM     34  O   UNL     1      46.844  31.206  45.024  0.00  0.00    +0.000 OA
ATOM     35  C   UNL     1      47.352  30.465  46.085  0.00  0.00    +0.000 C 
ATOM     36  C   UNL     1      46.359  31.014  47.259  0.00  0.00    +0.000 C 
ATOM     37  H   UNL     1      46.777  33.090  47.709  0.00  0.00    +0.000 HD
ATOM     38  H   UNL     1      48.181  32.539  45.736  0.00  0.00    +0.000 HD
ATOM     39  H   UNL     1      47.148  29.404  45.972  0.00  0.00    +0.000 HD
ATOM     40  H   UNL     1      48.361  30.761  46.363  0.00  0.00    +0.000 HD
ATOM     41  H   UNL     1      46.982  30.653  48.096  0.00  0.00    +0.000 HD
BRANCH  33  46
ATOM     42  C   UNL     1      44.931  35.148  44.219  0.00  0.00    +0.000 A 
ATOM     43  C   UNL     1      45.576  35.515  43.043  0.00  0.00    +0.000 A 
ATOM     44  C   UNL     1      46.767  34.857  42.703  0.00  0.00    +0.000 A 
ATOM     45  N   UNL     1      47.242  33.897  43.526  0.00  0.00    +0.000 NA
ATOM     46  C   UNL     1      46.605  33.552  44.665  0.00  0.00    +0.000 A 
ATOM     47  N   UNL     1      45.443  34.174  45.023  0.00  0.00    +0.000 NA
ATOM     48  H   UNL     1      45.170  36.293  42.399  0.00  0.00    +0.000 HD
ATOM     49  H   UNL     1      47.309  35.098  41.806  0.00  0.00    +0.000 HD
BRANCH  42  50
ATOM     50  O   UNL     1      43.736  35.767  44.613  0.00  0.00    +0.000 OA
ATOM     51  H   UNL     1      43.881  36.553  45.258  0.00  0.00    +0.000 HD
ENDBRANCH  42  50
ENDBRANCH  33  46
BRANCH  32  52
ATOM     52  O   UNL     1      44.982  32.853  46.688  0.00  0.00    +0.000 OA
ATOM     53  H   UNL     1      44.391  32.153  47.063  0.00  0.00    +0.000 HD
ENDBRANCH  32  52
ENDBRANCH  31  36
ENDBRANCH  28  31
ENDBRANCH   1  28
TORSDOF 11
