
     RDKit          3D

 52 55  0  0  0  0  0  0  0  0999 V2000
   47.2005   34.1160   42.4368 C   0  0  2  0  0  0  0  0  0  0  0  0
   48.5721   34.7026   42.5863 C   0  0  0  0  0  0  0  0  0  0  0  0
   48.8847   35.6904   41.5318 C   0  0  0  0  0  0  0  0  0  0  0  0
   48.7143   35.1315   40.1305 C   0  0  0  0  0  0  0  0  0  0  0  0
   47.5179   34.2408   39.9820 C   0  0  0  0  0  0  0  0  0  0  0  0
   46.5433   34.3623   41.1305 C   0  0  1  0  0  0  0  0  0  0  0  0
   46.2959   34.4819   43.5454 C   0  0  0  0  0  0  0  0  0  0  0  0
   45.6064   35.6603   43.3200 C   0  0  0  0  0  0  0  0  0  0  0  0
   44.7037   36.1318   44.2890 C   0  0  0  0  0  0  0  0  0  0  0  0
   44.5795   35.3388   45.4364 N   0  0  0  0  0  0  0  0  0  0  0  0
   45.2776   34.1968   45.6061 C   0  0  0  0  0  0  0  0  0  0  0  0
   46.1306   33.7828   44.6525 N   0  0  0  0  0  0  0  0  0  0  0  0
   45.4787   33.3159   40.9373 C   0  0  2  0  0  0  0  0  0  0  0  0
   44.8197   33.2269   39.5751 C   0  0  0  0  0  0  0  0  0  0  0  0
   44.0572   33.7189   40.7413 C   0  0  1  0  0  0  0  0  0  0  0  0
   43.1039   32.8668   41.5136 C   0  0  0  0  0  0  0  0  0  0  0  0
   41.6601   33.1076   41.2056 C   0  0  0  0  0  0  0  0  0  0  0  0
   47.3494   32.9987   42.5465 H   0  0  0  0  0  0  0  0  0  0  0  0
   48.6004   35.2179   43.5663 H   0  0  0  0  0  0  0  0  0  0  0  0
   49.3731   33.9381   42.6231 H   0  0  0  0  0  0  0  0  0  0  0  0
   48.3127   36.6188   41.6858 H   0  0  0  0  0  0  0  0  0  0  0  0
   49.9664   35.9620   41.6073 H   0  0  0  0  0  0  0  0  0  0  0  0
   49.6481   34.5883   39.8456 H   0  0  0  0  0  0  0  0  0  0  0  0
   48.6494   36.0115   39.4550 H   0  0  0  0  0  0  0  0  0  0  0  0
   46.9859   34.5388   39.0681 H   0  0  0  0  0  0  0  0  0  0  0  0
   47.8402   33.1892   39.8726 H   0  0  0  0  0  0  0  0  0  0  0  0
   46.0497   35.3338   40.9909 H   0  0  0  0  0  0  0  0  0  0  0  0
   45.5695   36.3969   42.5320 H   0  0  0  0  0  0  0  0  0  0  0  0
   44.0888   37.0172   44.2814 H   0  0  0  0  0  0  0  0  0  0  0  0
   45.1339   33.6400   46.5086 H   0  0  0  0  0  0  0  0  0  0  0  0
   45.7356   32.3215   41.3579 H   0  0  0  0  0  0  0  0  0  0  0  0
   45.0505   33.9580   38.7881 H   0  0  0  0  0  0  0  0  0  0  0  0
   44.5371   32.2265   39.1816 H   0  0  0  0  0  0  0  0  0  0  0  0
   43.8968   34.8118   40.8650 H   0  0  0  0  0  0  0  0  0  0  0  0
   43.2494   33.1216   42.5998 H   0  0  0  0  0  0  0  0  0  0  0  0
   43.4104   31.8092   41.4102 H   0  0  0  0  0  0  0  0  0  0  0  0
   41.4436   34.2022   41.4057 H   0  0  0  0  0  0  0  0  0  0  0  0
   41.0515   32.5843   41.9690 H   0  0  0  0  0  0  0  0  0  0  0  0
   37.7871   34.3948   39.7115 H   0  0  0  0  0  0  0  0  0  0  0  0
   38.6847   33.6177   40.4193 S   0  0  0  0  0  0  0  0  0  0  0  0
   37.8830   32.3790   40.7981 O   0  0  0  0  0  0  0  0  0  0  0  0
   39.1012   34.4196   41.5885 O   0  0  0  0  0  0  0  0  0  0  0  0
   39.9756   33.0822   39.3921 C   0  0  0  0  0  0  0  0  0  0  0  0
   41.2700   32.8788   39.8166 C   0  0  0  0  0  0  0  0  0  0  0  0
   42.1679   32.4442   38.8346 C   0  0  0  0  0  0  0  0  0  0  0  0
   43.1813   32.2901   39.1897 H   0  0  0  0  0  0  0  0  0  0  0  0
   41.8281   32.2159   37.4989 C   0  0  0  0  0  0  0  0  0  0  0  0
   42.6305   31.8835   36.8659 H   0  0  0  0  0  0  0  0  0  0  0  0
   40.5254   32.4332   37.1263 C   0  0  0  0  0  0  0  0  0  0  0  0
   39.6145   32.8621   38.0696 C   0  0  0  0  0  0  0  0  0  0  0  0
   40.3111   32.2442   36.0879 H   0  0  0  0  0  0  0  0  0  0  0  0
   38.6070   33.0074   37.6820 H   0  0  0  0  0  0  0  0  0  0  0  0
  1  2  1  0
  1  7  1  0
  3  2  1  0
  4  3  1  0
  5  4  1  0
  5  6  1  0
  6  1  1  0
  7 12  1  0
  8  7  2  0
  8  9  1  0
  9 10  2  0
 10 11  1  0
 12 11  2  0
 13  6  1  0
 14 15  1  0
 14 13  1  0
 15 13  1  0
 15 16  1  0
 17 16  1  0
  1 18  1  1
  2 19  1  0
  2 20  1  0
  3 21  1  0
  3 22  1  0
  4 23  1  0
  4 24  1  0
  5 25  1  0
  5 26  1  0
  6 27  1  1
  8 28  1  0
  9 29  1  0
 11 30  1  0
 13 31  1  1
 14 32  1  0
 14 33  1  0
 15 34  1  6
 16 35  1  0
 16 36  1  0
 17 37  1  0
 17 38  1  0
 39 40  1  0
 40 41  2  0
 40 42  2  0
 40 43  1  0
 43 44  2  0
 44 45  1  0
 45 46  1  0
 45 47  2  0
 47 48  1  0
 47 49  1  0
 49 50  2  0
 50 43  1  0
 49 51  1  0
 50 52  1  0
 17 44  1  0
M  ISO  8  18  13  19  13  20  13  21  13  22  13  23  13  24  13  25  13
M  ISO  8  26  13  27  13  28  14  29  14  30  14  31  13  32  13  33  13
M  ISO  8  34  13  35   8  36   8  37   8  38   8  39  12  46  15  48  16
M  END
>  <DihAtoms>  (1) 
15,16,43,42

>  <DihDeg>  (1) 
75.97454787940065

$$$$
