
 OpenBabel03252509023D

 48 50  0  0  1  0  0  0  0  0999 V2000
   34.5520   28.6180   36.9560 N   0  0  0  0  0  0  0  0  0  0  0  0
   34.6090   28.8220   35.5490 C   0  0  0  0  0  0  0  0  0  0  0  0
   35.9080   29.3510   35.0190 C   0  0  0  0  0  0  0  0  0  0  0  0
   37.1220   28.9090   35.7840 C   0  0  0  0  0  0  0  0  0  0  0  0
   36.7700   27.9260   36.8760 C   0  0  0  0  0  0  0  0  0  0  0  0
   35.6980   28.6960   37.7290 C   0  0  2  0  0  0  0  0  0  0  0  0
   33.8120   29.4280   35.1140 H   0  0  0  0  0  0  0  0  0  0  0  0
   34.4700   27.8020   35.0790 H   0  0  0  0  0  0  0  0  0  0  0  0
   36.0500   29.0440   33.9650 H   0  0  0  0  0  0  0  0  0  0  0  0
   35.8220   30.4720   34.9760 H   0  0  0  0  0  0  0  0  0  0  0  0
   37.5250   29.8060   36.3030 H   0  0  0  0  0  0  0  0  0  0  0  0
   37.9250   28.5370   35.1280 H   0  0  0  0  0  0  0  0  0  0  0  0
   37.6700   27.7910   37.5090 H   0  0  0  0  0  0  0  0  0  0  0  0
   36.3300   26.9880   36.5110 H   0  0  0  0  0  0  0  0  0  0  0  0
   36.1550   29.6890   37.9130 H   0  0  0  0  0  0  0  0  0  0  0  0
   33.2890   28.9640   37.5500 C   0  0  0  0  0  0  0  0  0  0  0  0
   33.0280   28.1360   38.2590 H   0  0  0  0  0  0  0  0  0  0  0  0
   33.2900   29.8820   38.1390 H   0  0  0  0  0  0  0  0  0  0  0  0
   32.2620   29.0850   36.4630 C   0  0  0  0  0  0  0  0  0  0  0  0
   31.7080   28.1310   36.3430 H   0  0  0  0  0  0  0  0  0  0  0  0
   32.6860   29.3490   35.4730 H   0  0  0  0  0  0  0  0  0  0  0  0
   29.5430   30.8330   38.3800 C   0  0  0  0  0  0  0  0  0  0  0  0
   30.5050   29.8810   37.9870 C   0  0  0  0  0  0  0  0  0  0  0  0
   31.2540   30.0990   36.8610 C   0  0  0  0  0  0  0  0  0  0  0  0
   31.0300   31.2280   36.1790 N   0  0  0  0  0  0  0  0  0  0  0  0
   30.1110   32.1400   36.5520 C   0  0  0  0  0  0  0  0  0  0  0  0
   29.3650   31.9490   37.6510 N   0  0  0  0  0  0  0  0  0  0  0  0
   28.9490   30.6630   39.2720 H   0  0  0  0  0  0  0  0  0  0  0  0
   30.5850   29.0140   38.6270 H   0  0  0  0  0  0  0  0  0  0  0  0
   30.0010   33.0250   35.9330 H   0  0  0  0  0  0  0  0  0  0  0  0
   35.6090   27.8990   38.8590 O   0  0  0  0  0  0  0  0  0  0  0  0
   36.5670   27.5720   41.3140 O   0  0  0  0  0  0  0  0  0  0  0  0
   36.2730   28.6120   40.2230 P   0  0  2  0  0  0  0  0  0  0  0  0
   35.0470   29.6020   40.8950 O   0  0  0  0  0  0  0  0  0  0  0  0
   35.4830   30.0310   41.6900 H   0  0  0  0  0  0  0  0  0  0  0  0
   37.5790   29.5790   39.9170 O   0  0  0  0  0  0  0  0  0  0  0  0
   38.5930   31.3940   40.8430 C   0  0  0  0  0  0  0  0  0  0  0  0
   37.6760   30.9510   39.8830 C   0  0  0  0  0  0  0  0  0  0  0  0
   37.0480   31.8960   39.0980 C   0  0  0  0  0  0  0  0  0  0  0  0
   36.3660   31.4380   38.3960 H   0  0  0  0  0  0  0  0  0  0  0  0
   37.3220   33.2370   39.2610 C   0  0  0  0  0  0  0  0  0  0  0  0
   36.7840   33.9130   38.6030 H   0  0  0  0  0  0  0  0  0  0  0  0
   38.2230   33.6880   40.2030 C   0  0  0  0  0  3  0  0  0  0  0  0
   38.8630   32.7590   40.9990 C   0  0  0  0  0  3  0  0  0  0  0  0
   40.0890   29.3280   41.2610 H   0  0  0  0  0  0  0  0  0  0  0  0
   39.5040   30.3600   41.9470 S   0  0  0  0  0  0  0  0  0  0  0  0
   40.6130   31.1380   42.6010 O   0  0  0  0  0  0  0  0  0  0  0  0
   38.5380   29.8500   43.0010 O   0  0  0  0  0  0  0  0  0  0  0  0
  1 16  1  0  0  0  0
  1  6  1  0  0  0  0
  2  1  1  0  0  0  0
  3  2  1  0  0  0  0
  3  4  1  0  0  0  0
  4 11  1  0  0  0  0
  4  5  1  0  0  0  0
  5 13  1  0  0  0  0
  5  6  1  0  0  0  0
  6 15  1  1  0  0  0
  6 31  1  0  0  0  0
  7  2  1  0  0  0  0
  8  2  1  0  0  0  0
  9  3  1  0  0  0  0
 10  3  1  0  0  0  0
 12  4  1  0  0  0  0
 14  5  1  0  0  0  0
 16 18  1  0  0  0  0
 16 17  1  0  0  0  0
 19 24  1  0  0  0  0
 19 16  1  0  0  0  0
 20 19  1  0  0  0  0
 21 19  1  0  0  0  0
 22 28  1  0  0  0  0
 23 22  1  0  0  0  0
 23 29  1  0  0  0  0
 24 23  2  0  0  0  0
 25 26  2  0  0  0  0
 25 24  1  0  0  0  0
 26 27  1  0  0  0  0
 27 22  2  0  0  0  0
 30 26  1  0  0  0  0
 31 33  1  0  0  0  0
 33 34  1  0  0  0  0
 33 32  2  1  0  0  0
 34 35  1  0  0  0  0
 36 33  1  0  0  0  0
 37 44  1  0  0  0  0
 37 46  1  0  0  0  0
 38 36  1  0  0  0  0
 38 37  2  0  0  0  0
 39 41  2  0  0  0  0
 39 38  1  0  0  0  0
 40 39  1  0  0  0  0
 41 43  1  0  0  0  0
 42 41  1  0  0  0  0
 43 44  2  0  0  0  0
 45 46  1  0  0  0  0
 46 47  2  0  0  0  0
 46 48  2  0  0  0  0
M  END
>  <minimizedAffinity>
-5.4705081

$$$$

 OpenBabel03252509023D

 48 50  0  0  1  0  0  0  0  0999 V2000
   38.2190   28.8010   37.8530 N   0  0  0  0  0  0  0  0  0  0  0  0
   38.1100   28.1500   36.5920 C   0  0  0  0  0  0  0  0  0  0  0  0
   36.9360   28.5530   35.7510 C   0  0  0  0  0  0  0  0  0  0  0  0
   36.5040   29.9810   35.9230 C   0  0  0  0  0  0  0  0  0  0  0  0
   37.4290   30.7410   36.8440 C   0  0  0  0  0  0  0  0  0  0  0  0
   37.4160   29.8850   38.1620 C   0  0  2  0  0  0  0  0  0  0  0  0
   38.1380   27.0590   36.6040 H   0  0  0  0  0  0  0  0  0  0  0  0
   39.0320   28.4460   36.0060 H   0  0  0  0  0  0  0  0  0  0  0  0
   37.1570   28.4010   34.6780 H   0  0  0  0  0  0  0  0  0  0  0  0
   36.1010   27.8320   35.9700 H   0  0  0  0  0  0  0  0  0  0  0  0
   35.5160   29.9640   36.4340 H   0  0  0  0  0  0  0  0  0  0  0  0
   36.3530   30.4970   34.9620 H   0  0  0  0  0  0  0  0  0  0  0  0
   36.9530   31.7150   37.0710 H   0  0  0  0  0  0  0  0  0  0  0  0
   38.4630   30.8180   36.4780 H   0  0  0  0  0  0  0  0  0  0  0  0
   36.3410   29.7150   38.3680 H   0  0  0  0  0  0  0  0  0  0  0  0
   38.6740   27.9460   38.9180 C   0  0  0  0  0  0  0  0  0  0  0  0
   39.3790   27.2060   38.4580 H   0  0  0  0  0  0  0  0  0  0  0  0
   39.2300   28.4490   39.7090 H   0  0  0  0  0  0  0  0  0  0  0  0
   37.4860   27.2550   39.5200 C   0  0  0  0  0  0  0  0  0  0  0  0
   36.8000   26.8950   38.7260 H   0  0  0  0  0  0  0  0  0  0  0  0
   36.8940   27.8950   40.2050 H   0  0  0  0  0  0  0  0  0  0  0  0
   37.4430   24.0970   41.5570 C   0  0  0  0  0  0  0  0  0  0  0  0
   37.0220   25.2510   40.8660 C   0  0  0  0  0  0  0  0  0  0  0  0
   37.9490   26.0440   40.2440 C   0  0  0  0  0  0  0  0  0  0  0  0
   39.2320   25.6760   40.3260 N   0  0  0  0  0  0  0  0  0  0  0  0
   39.6380   24.5740   40.9860 C   0  0  0  0  0  0  0  0  0  0  0  0
   38.7490   23.7800   41.6030 N   0  0  0  0  0  0  0  0  0  0  0  0
   36.7110   23.4670   42.0510 H   0  0  0  0  0  0  0  0  0  0  0  0
   35.9570   25.4330   40.8770 H   0  0  0  0  0  0  0  0  0  0  0  0
   40.7020   24.3570   40.9970 H   0  0  0  0  0  0  0  0  0  0  0  0
   38.0340   30.7400   39.0620 O   0  0  0  0  0  0  0  0  0  0  0  0
   35.7410   30.3440   40.3420 O   0  0  0  0  0  0  0  0  0  0  0  0
   37.1130   31.0290   40.4330 P   0  0  2  0  0  0  0  0  0  0  0  0
   36.7560   32.7040   40.4280 O   0  0  0  0  0  0  0  0  0  0  0  0
   36.2280   32.8480   41.2700 H   0  0  0  0  0  0  0  0  0  0  0  0
   37.8860   30.6900   41.8550 O   0  0  0  0  0  0  0  0  0  0  0  0
   39.4360   29.1470   42.4830 C   0  0  0  0  0  0  0  0  0  0  0  0
   38.0780   29.4860   42.4920 C   0  0  0  0  0  0  0  0  0  0  0  0
   37.1950   28.6170   43.0990 C   0  0  0  0  0  0  0  0  0  0  0  0
   36.1800   28.9810   43.0440 H   0  0  0  0  0  0  0  0  0  0  0  0
   37.6460   27.4490   43.6780 C   0  0  0  0  0  0  0  0  0  0  0  0
   36.8850   26.8230   44.1330 H   0  0  0  0  0  0  0  0  0  0  0  0
   38.9820   27.1030   43.6760 C   0  0  0  0  0  3  0  0  0  0  0  0
   39.8820   27.9590   43.0750 C   0  0  0  0  0  3  0  0  0  0  0  0
   40.2990   30.6970   40.6030 H   0  0  0  0  0  0  0  0  0  0  0  0
   40.7300   30.1110   41.7650 S   0  0  0  0  0  0  0  0  0  0  0  0
   41.1360   31.2220   42.6950 O   0  0  0  0  0  0  0  0  0  0  0  0
   41.9080   29.1870   41.5170 O   0  0  0  0  0  0  0  0  0  0  0  0
  1  6  1  0  0  0  0
  1 16  1  0  0  0  0
  2  7  1  0  0  0  0
  2  1  1  0  0  0  0
  3  4  1  0  0  0  0
  3 10  1  0  0  0  0
  3  2  1  0  0  0  0
  4 11  1  0  0  0  0
  4  5  1  0  0  0  0
  5 13  1  0  0  0  0
  5  6  1  0  0  0  0
  6 15  1  1  0  0  0
  6 31  1  0  0  0  0
  8  2  1  0  0  0  0
  9  3  1  0  0  0  0
 12  4  1  0  0  0  0
 14  5  1  0  0  0  0
 16 19  1  0  0  0  0
 16 18  1  0  0  0  0
 17 16  1  0  0  0  0
 19 21  1  0  0  0  0
 19 24  1  0  0  0  0
 20 19  1  0  0  0  0
 22 27  1  0  0  0  0
 22 28  1  0  0  0  0
 23 29  1  0  0  0  0
 23 22  2  0  0  0  0
 24 25  2  0  0  0  0
 24 23  1  0  0  0  0
 25 26  1  0  0  0  0
 26 30  1  0  0  0  0
 26 27  2  0  0  0  0
 31 33  1  0  0  0  0
 33 32  2  6  0  0  0
 33 36  1  0  0  0  0
 34 33  1  0  0  0  0
 34 35  1  0  0  0  0
 36 38  1  0  0  0  0
 37 38  2  0  0  0  0
 37 44  1  0  0  0  0
 38 39  1  0  0  0  0
 39 41  2  0  0  0  0
 40 39  1  0  0  0  0
 41 42  1  0  0  0  0
 43 41  1  0  0  0  0
 44 43  2  0  0  0  0
 45 46  1  0  0  0  0
 46 37  1  0  0  0  0
 46 47  2  0  0  0  0
 48 46  2  0  0  0  0
M  END
>  <minimizedAffinity>
-5.37941313

$$$$

 OpenBabel03252509023D

 48 50  0  0  1  0  0  0  0  0999 V2000
   37.2570   29.3350   37.0050 N   0  0  0  0  0  0  0  0  0  0  0  0
   37.3490   28.7700   35.7010 C   0  0  0  0  0  0  0  0  0  0  0  0
   36.3650   27.6820   35.3930 C   0  0  0  0  0  0  0  0  0  0  0  0
   35.0370   27.8250   36.0800 C   0  0  0  0  0  0  0  0  0  0  0  0
   34.9470   29.1130   36.8640 C   0  0  0  0  0  0  0  0  0  0  0  0
   36.1850   29.0410   37.8290 C   0  0  2  0  0  0  0  0  0  0  0  0
   38.3340   28.4110   35.3960 H   0  0  0  0  0  0  0  0  0  0  0  0
   37.1230   29.6120   34.9790 H   0  0  0  0  0  0  0  0  0  0  0  0
   36.1710   27.6320   34.3040 H   0  0  0  0  0  0  0  0  0  0  0  0
   36.8600   26.7020   35.6340 H   0  0  0  0  0  0  0  0  0  0  0  0
   34.9700   27.0080   36.8320 H   0  0  0  0  0  0  0  0  0  0  0  0
   34.1870   27.6920   35.3920 H   0  0  0  0  0  0  0  0  0  0  0  0
   34.0320   29.0650   37.4870 H   0  0  0  0  0  0  0  0  0  0  0  0
   35.0260   30.0200   36.2480 H   0  0  0  0  0  0  0  0  0  0  0  0
   36.1190   28.0330   38.2850 H   0  0  0  0  0  0  0  0  0  0  0  0
   38.5290   29.6450   37.6020 C   0  0  0  0  0  0  0  0  0  0  0  0
   38.4510   29.3690   38.6860 H   0  0  0  0  0  0  0  0  0  0  0  0
   39.3760   29.0860   37.2040 H   0  0  0  0  0  0  0  0  0  0  0  0
   38.7930   31.1120   37.4380 C   0  0  0  0  0  0  0  0  0  0  0  0
   37.9640   31.5980   36.8830 H   0  0  0  0  0  0  0  0  0  0  0  0
   39.7340   31.3420   36.8970 H   0  0  0  0  0  0  0  0  0  0  0  0
   38.0720   33.4860   40.2610 C   0  0  0  0  0  0  0  0  0  0  0  0
   38.0590   32.8670   38.9950 C   0  0  0  0  0  0  0  0  0  0  0  0
   38.8210   31.7500   38.7780 C   0  0  0  0  0  0  0  0  0  0  0  0
   39.5530   31.2940   39.8000 N   0  0  0  0  0  0  0  0  0  0  0  0
   39.5690   31.8830   41.0120 C   0  0  0  0  0  0  0  0  0  0  0  0
   38.8310   32.9790   41.2490 N   0  0  0  0  0  0  0  0  0  0  0  0
   37.4690   34.3710   40.4360 H   0  0  0  0  0  0  0  0  0  0  0  0
   37.4230   33.3370   38.2580 H   0  0  0  0  0  0  0  0  0  0  0  0
   40.1960   31.4400   41.7790 H   0  0  0  0  0  0  0  0  0  0  0  0
   35.9180   30.0770   38.7110 O   0  0  0  0  0  0  0  0  0  0  0  0
   34.3730   28.9620   40.5610 O   0  0  0  0  0  0  0  0  0  0  0  0
   35.7620   29.5650   40.3000 P   0  0  2  0  0  0  0  0  0  0  0  0
   35.8020   30.9790   41.2670 O   0  0  0  0  0  0  0  0  0  0  0  0
   35.7320   30.6370   42.2080 H   0  0  0  0  0  0  0  0  0  0  0  0
   36.9790   28.5730   40.8180 O   0  0  0  0  0  0  0  0  0  0  0  0
   37.7160   26.7840   42.0170 C   0  0  0  0  0  0  0  0  0  0  0  0
   37.0420   27.1990   40.8620 C   0  0  0  0  0  0  0  0  0  0  0  0
   36.5730   26.2310   39.9990 C   0  0  0  0  0  0  0  0  0  0  0  0
   36.0720   26.6680   39.1470 H   0  0  0  0  0  0  0  0  0  0  0  0
   36.7670   24.8940   40.2730 C   0  0  0  0  0  0  0  0  0  0  0  0
   36.3670   24.1990   39.5410 H   0  0  0  0  0  0  0  0  0  0  0  0
   37.4300   24.4700   41.4070 C   0  0  0  0  0  3  0  0  0  0  0  0
   37.9070   25.4230   42.2840 C   0  0  0  0  0  3  0  0  0  0  0  0
   38.8650   27.1200   44.3080 H   0  0  0  0  0  0  0  0  0  0  0  0
   38.3940   27.8510   43.2490 S   0  0  0  0  0  0  0  0  0  0  0  0
   39.5610   28.6220   42.6920 O   0  0  0  0  0  0  0  0  0  0  0  0
   37.2990   28.8100   43.6800 O   0  0  0  0  0  0  0  0  0  0  0  0
  1 16  1  0  0  0  0
  1  6  1  0  0  0  0
  2  1  1  0  0  0  0
  3 10  1  0  0  0  0
  3  2  1  0  0  0  0
  3  4  1  0  0  0  0
  4 11  1  0  0  0  0
  4  5  1  0  0  0  0
  5 13  1  0  0  0  0
  5  6  1  0  0  0  0
  6 15  1  1  0  0  0
  6 31  1  0  0  0  0
  7  2  1  0  0  0  0
  8  2  1  0  0  0  0
  9  3  1  0  0  0  0
 12  4  1  0  0  0  0
 14  5  1  0  0  0  0
 16 17  1  0  0  0  0
 18 16  1  0  0  0  0
 19 16  1  0  0  0  0
 19 24  1  0  0  0  0
 20 19  1  0  0  0  0
 21 19  1  0  0  0  0
 22 28  1  0  0  0  0
 22 27  1  0  0  0  0
 23 22  2  0  0  0  0
 24 23  1  0  0  0  0
 24 25  2  0  0  0  0
 25 26  1  0  0  0  0
 26 27  2  0  0  0  0
 26 30  1  0  0  0  0
 29 23  1  0  0  0  0
 31 33  1  0  0  0  0
 33 32  2  1  0  0  0
 33 36  1  0  0  0  0
 33 34  1  0  0  0  0
 34 35  1  0  0  0  0
 36 38  1  0  0  0  0
 37 44  1  0  0  0  0
 37 46  1  0  0  0  0
 38 37  2  0  0  0  0
 39 41  2  0  0  0  0
 39 38  1  0  0  0  0
 40 39  1  0  0  0  0
 41 43  1  0  0  0  0
 42 41  1  0  0  0  0
 43 44  2  0  0  0  0
 46 48  2  0  0  0  0
 46 45  1  0  0  0  0
 47 46  2  0  0  0  0
M  END
>  <minimizedAffinity>
-5.3107419

$$$$

 OpenBabel03252509023D

 48 50  0  0  1  0  0  0  0  0999 V2000
   38.0150   25.3000   42.4770 N   0  0  0  0  0  0  0  0  0  0  0  0
   39.0930   24.5190   42.9810 C   0  0  0  0  0  0  0  0  0  0  0  0
   40.4050   25.2320   43.1150 C   0  0  0  0  0  0  0  0  0  0  0  0
   40.2930   26.6930   43.4400 C   0  0  0  0  0  0  0  0  0  0  0  0
   38.8590   27.1100   43.6670 C   0  0  0  0  0  0  0  0  0  0  0  0
   38.1380   26.6720   42.3420 C   0  0  2  0  0  0  0  0  0  0  0  0
   39.2890   23.5750   42.4690 H   0  0  0  0  0  0  0  0  0  0  0  0
   38.7940   24.2110   44.0280 H   0  0  0  0  0  0  0  0  0  0  0  0
   41.0210   24.7620   43.9060 H   0  0  0  0  0  0  0  0  0  0  0  0
   40.9840   25.0540   42.1670 H   0  0  0  0  0  0  0  0  0  0  0  0
   40.6330   27.2540   42.5420 H   0  0  0  0  0  0  0  0  0  0  0  0
   40.9540   26.9960   44.2680 H   0  0  0  0  0  0  0  0  0  0  0  0
   38.8330   28.2170   43.7140 H   0  0  0  0  0  0  0  0  0  0  0  0
   38.3760   26.6110   44.5190 H   0  0  0  0  0  0  0  0  0  0  0  0
   38.7800   27.0770   41.5330 H   0  0  0  0  0  0  0  0  0  0  0  0
   37.1420   24.5890   41.5810 C   0  0  0  0  0  0  0  0  0  0  0  0
   37.1090   23.5270   41.9390 H   0  0  0  0  0  0  0  0  0  0  0  0
   36.1100   24.9390   41.5650 H   0  0  0  0  0  0  0  0  0  0  0  0
   37.7050   24.6720   40.1930 C   0  0  0  0  0  0  0  0  0  0  0  0
   38.1890   23.7140   39.9110 H   0  0  0  0  0  0  0  0  0  0  0  0
   38.4580   25.4760   40.0610 H   0  0  0  0  0  0  0  0  0  0  0  0
   34.6890   23.9880   38.0580 C   0  0  0  0  0  0  0  0  0  0  0  0
   35.7520   23.8200   38.9680 C   0  0  0  0  0  0  0  0  0  0  0  0
   36.5920   24.8690   39.2310 C   0  0  0  0  0  0  0  0  0  0  0  0
   36.3550   26.0230   38.5990 N   0  0  0  0  0  0  0  0  0  0  0  0
   35.3410   26.1880   37.7280 C   0  0  0  0  0  0  0  0  0  0  0  0
   34.5040   25.1760   37.4530 N   0  0  0  0  0  0  0  0  0  0  0  0
   34.0220   23.1590   37.8470 H   0  0  0  0  0  0  0  0  0  0  0  0
   35.8300   22.8360   39.4090 H   0  0  0  0  0  0  0  0  0  0  0  0
   35.2290   27.1640   37.2630 H   0  0  0  0  0  0  0  0  0  0  0  0
   36.9130   27.3110   42.4600 O   0  0  0  0  0  0  0  0  0  0  0  0
   35.2980   28.7400   40.9110 O   0  0  0  0  0  0  0  0  0  0  0  0
   36.7430   28.6100   41.4160 P   0  0  2  0  0  0  0  0  0  0  0  0
   37.6520   28.2250   40.0160 O   0  0  0  0  0  0  0  0  0  0  0  0
   37.5510   29.0300   39.4240 H   0  0  0  0  0  0  0  0  0  0  0  0
   37.3260   30.0400   42.0080 O   0  0  0  0  0  0  0  0  0  0  0  0
   38.5420   31.6010   40.8840 C   0  0  0  0  0  0  0  0  0  0  0  0
   38.5700   30.6120   41.8740 C   0  0  0  0  0  0  0  0  0  0  0  0
   39.7640   30.3760   42.5230 C   0  0  0  0  0  0  0  0  0  0  0  0
   39.6650   29.5950   43.2630 H   0  0  0  0  0  0  0  0  0  0  0  0
   40.8940   31.0980   42.1990 C   0  0  0  0  0  0  0  0  0  0  0  0
   41.7900   30.8480   42.7580 H   0  0  0  0  0  0  0  0  0  0  0  0
   40.8800   32.0750   41.2250 C   0  0  0  0  0  3  0  0  0  0  0  0
   39.6950   32.3270   40.5640 C   0  0  0  0  0  3  0  0  0  0  0  0
   35.9960   32.0110   40.7070 H   0  0  0  0  0  0  0  0  0  0  0  0
   37.1270   32.0620   39.9340 S   0  0  0  0  0  0  0  0  0  0  0  0
   37.2610   33.4790   39.4440 O   0  0  0  0  0  0  0  0  0  0  0  0
   37.0360   31.1130   38.7530 O   0  0  0  0  0  0  0  0  0  0  0  0
  1  2  1  0  0  0  0
  2  3  1  0  0  0  0
  2  8  1  0  0  0  0
  3  4  1  0  0  0  0
  3  9  1  0  0  0  0
  4  5  1  0  0  0  0
  4 12  1  0  0  0  0
  5 13  1  0  0  0  0
  5 14  1  0  0  0  0
  6 15  1  6  0  0  0
  6 31  1  0  0  0  0
  6  1  1  0  0  0  0
  6  5  1  0  0  0  0
  7  2  1  0  0  0  0
 10  3  1  0  0  0  0
 11  4  1  0  0  0  0
 16 17  1  0  0  0  0
 16  1  1  0  0  0  0
 18 16  1  0  0  0  0
 19 16  1  0  0  0  0
 20 19  1  0  0  0  0
 21 19  1  0  0  0  0
 22 23  1  0  0  0  0
 23 24  2  0  0  0  0
 23 29  1  0  0  0  0
 24 19  1  0  0  0  0
 25 24  1  0  0  0  0
 26 25  2  0  0  0  0
 27 26  1  0  0  0  0
 27 22  2  0  0  0  0
 28 22  1  0  0  0  0
 30 26  1  0  0  0  0
 33 32  2  6  0  0  0
 33 36  1  0  0  0  0
 33 31  1  0  0  0  0
 34 33  1  0  0  0  0
 35 34  1  0  0  0  0
 37 38  1  0  0  0  0
 38 36  1  0  0  0  0
 38 39  2  0  0  0  0
 39 40  1  0  0  0  0
 41 39  1  0  0  0  0
 41 42  1  0  0  0  0
 43 41  2  0  0  0  0
 44 37  2  0  0  0  0
 44 43  1  0  0  0  0
 46 45  1  0  0  0  0
 46 37  1  0  0  0  0
 47 46  2  0  0  0  0
 48 46  2  0  0  0  0
M  END
>  <minimizedAffinity>
-5.23521662

$$$$

 OpenBabel03252509023D

 48 50  0  0  1  0  0  0  0  0999 V2000
   36.4430   27.5910   39.2220 N   0  0  0  0  0  0  0  0  0  0  0  0
   35.7040   27.0110   38.1530 C   0  0  0  0  0  0  0  0  0  0  0  0
   34.7820   27.9390   37.4210 C   0  0  0  0  0  0  0  0  0  0  0  0
   35.2550   29.3620   37.3480 C   0  0  0  0  0  0  0  0  0  0  0  0
   36.6300   29.5280   37.9510 C   0  0  0  0  0  0  0  0  0  0  0  0
   36.4620   28.9620   39.4070 C   0  0  2  0  0  0  0  0  0  0  0  0
   35.1330   26.1100   38.3890 H   0  0  0  0  0  0  0  0  0  0  0  0
   36.4690   26.6640   37.3950 H   0  0  0  0  0  0  0  0  0  0  0  0
   34.6250   27.5890   36.3820 H   0  0  0  0  0  0  0  0  0  0  0  0
   33.7680   27.8560   37.9000 H   0  0  0  0  0  0  0  0  0  0  0  0
   34.5710   29.9660   37.9850 H   0  0  0  0  0  0  0  0  0  0  0  0
   35.1900   29.7800   36.3310 H   0  0  0  0  0  0  0  0  0  0  0  0
   36.8330   30.6140   38.0340 H   0  0  0  0  0  0  0  0  0  0  0  0
   37.4180   28.9600   37.4350 H   0  0  0  0  0  0  0  0  0  0  0  0
   35.5520   29.4640   39.7930 H   0  0  0  0  0  0  0  0  0  0  0  0
   36.5920   26.7320   40.3670 C   0  0  0  0  0  0  0  0  0  0  0  0
   36.6000   27.3980   41.2690 H   0  0  0  0  0  0  0  0  0  0  0  0
   35.7810   26.0190   40.5200 H   0  0  0  0  0  0  0  0  0  0  0  0
   37.8840   25.9810   40.2410 C   0  0  0  0  0  0  0  0  0  0  0  0
   38.3730   26.2060   39.2710 H   0  0  0  0  0  0  0  0  0  0  0  0
   37.7720   24.8800   40.3090 H   0  0  0  0  0  0  0  0  0  0  0  0
   39.3780   26.6830   43.6180 C   0  0  0  0  0  0  0  0  0  0  0  0
   38.5010   26.2420   42.6070 C   0  0  0  0  0  0  0  0  0  0  0  0
   38.8210   26.4530   41.2930 C   0  0  0  0  0  0  0  0  0  0  0  0
   39.9740   27.0780   41.0300 N   0  0  0  0  0  0  0  0  0  0  0  0
   40.8150   27.5010   41.9940 C   0  0  0  0  0  0  0  0  0  0  0  0
   40.5230   27.3060   43.2890 N   0  0  0  0  0  0  0  0  0  0  0  0
   39.1270   26.5170   44.6600 H   0  0  0  0  0  0  0  0  0  0  0  0
   37.6040   25.7500   42.9560 H   0  0  0  0  0  0  0  0  0  0  0  0
   41.7280   28.0000   41.6820 H   0  0  0  0  0  0  0  0  0  0  0  0
   37.6360   29.3810   40.0130 O   0  0  0  0  0  0  0  0  0  0  0  0
   37.3310   29.4900   42.6480 O   0  0  0  0  0  0  0  0  0  0  0  0
   37.3760   30.3350   41.3660 P   0  0  2  0  0  0  0  0  0  0  0  0
   35.7900   30.9650   41.2130 O   0  0  0  0  0  0  0  0  0  0  0  0
   35.6750   31.5480   42.0220 H   0  0  0  0  0  0  0  0  0  0  0  0
   38.4090   31.6190   41.5020 O   0  0  0  0  0  0  0  0  0  0  0  0
   40.4310   32.4560   40.8770 C   0  0  0  0  0  0  0  0  0  0  0  0
   39.7530   31.6450   41.7940 C   0  0  0  0  0  0  0  0  0  0  0  0
   40.4880   31.0350   42.7900 C   0  0  0  0  0  0  0  0  0  0  0  0
   39.8620   30.4370   43.4360 H   0  0  0  0  0  0  0  0  0  0  0  0
   41.8520   31.2230   42.8700 C   0  0  0  0  0  0  0  0  0  0  0  0
   42.3530   30.7070   43.6820 H   0  0  0  0  0  0  0  0  0  0  0  0
   42.5330   32.0200   41.9720 C   0  0  0  0  0  3  0  0  0  0  0  0
   41.8150   32.6400   40.9690 C   0  0  0  0  0  3  0  0  0  0  0  0
   40.6490   33.9260   38.7610 H   0  0  0  0  0  0  0  0  0  0  0  0
   39.6880   33.3260   39.5320 S   0  0  0  0  0  0  0  0  0  0  0  0
   38.9390   32.3730   38.6390 O   0  0  0  0  0  0  0  0  0  0  0  0
   38.7290   34.3470   40.1180 O   0  0  0  0  0  0  0  0  0  0  0  0
  1  6  1  0  0  0  0
  1 16  1  0  0  0  0
  2  7  1  0  0  0  0
  2  1  1  0  0  0  0
  3 10  1  0  0  0  0
  3  2  1  0  0  0  0
  4  3  1  0  0  0  0
  4  5  1  0  0  0  0
  4 11  1  0  0  0  0
  5 13  1  0  0  0  0
  5  6  1  0  0  0  0
  6 15  1  1  0  0  0
  6 31  1  0  0  0  0
  8  2  1  0  0  0  0
  9  3  1  0  0  0  0
 12  4  1  0  0  0  0
 14  5  1  0  0  0  0
 16 18  1  0  0  0  0
 16 17  1  0  0  0  0
 19 21  1  0  0  0  0
 19 16  1  0  0  0  0
 19 24  1  0  0  0  0
 20 19  1  0  0  0  0
 22 28  1  0  0  0  0
 23 29  1  0  0  0  0
 23 22  2  0  0  0  0
 24 23  1  0  0  0  0
 25 24  2  0  0  0  0
 25 26  1  0  0  0  0
 26 27  2  0  0  0  0
 27 22  1  0  0  0  0
 30 26  1  0  0  0  0
 31 33  1  0  0  0  0
 33 36  1  0  0  0  0
 33 32  2  1  0  0  0
 34 33  1  0  0  0  0
 34 35  1  0  0  0  0
 36 38  1  0  0  0  0
 37 44  2  0  0  0  0
 37 38  1  0  0  0  0
 38 39  2  0  0  0  0
 39 41  1  0  0  0  0
 39 40  1  0  0  0  0
 41 42  1  0  0  0  0
 43 41  2  0  0  0  0
 44 43  1  0  0  0  0
 45 46  1  0  0  0  0
 46 48  2  0  0  0  0
 46 37  1  0  0  0  0
 47 46  2  0  0  0  0
M  END
>  <minimizedAffinity>
-5.21062946

$$$$

 OpenBabel03252509023D

 48 50  0  0  1  0  0  0  0  0999 V2000
   40.0750   33.0590   40.0890 N   0  0  0  0  0  0  0  0  0  0  0  0
   40.5890   34.1310   39.3070 C   0  0  0  0  0  0  0  0  0  0  0  0
   42.0820   34.2670   39.2900 C   0  0  0  0  0  0  0  0  0  0  0  0
   42.8290   32.9690   39.4060 C   0  0  0  0  0  0  0  0  0  0  0  0
   41.8950   31.7820   39.4110 C   0  0  0  0  0  0  0  0  0  0  0  0
   40.9190   32.0900   40.6030 C   0  0  2  0  0  0  0  0  0  0  0  0
   40.1770   35.1220   39.5110 H   0  0  0  0  0  0  0  0  0  0  0  0
   40.2800   33.9160   38.2400 H   0  0  0  0  0  0  0  0  0  0  0  0
   42.4150   34.7580   38.3560 H   0  0  0  0  0  0  0  0  0  0  0  0
   42.3640   34.9900   40.1030 H   0  0  0  0  0  0  0  0  0  0  0  0
   43.3250   32.9670   40.4020 H   0  0  0  0  0  0  0  0  0  0  0  0
   43.6280   32.8710   38.6550 H   0  0  0  0  0  0  0  0  0  0  0  0
   42.4890   30.8870   39.6850 H   0  0  0  0  0  0  0  0  0  0  0  0
   41.3090   31.6690   38.4880 H   0  0  0  0  0  0  0  0  0  0  0  0
   41.5890   32.3540   41.4460 H   0  0  0  0  0  0  0  0  0  0  0  0
   38.8670   33.3780   40.8030 C   0  0  0  0  0  0  0  0  0  0  0  0
   38.7050   32.5550   41.5470 H   0  0  0  0  0  0  0  0  0  0  0  0
   38.8980   34.3060   41.3740 H   0  0  0  0  0  0  0  0  0  0  0  0
   37.7330   33.4480   39.8230 C   0  0  0  0  0  0  0  0  0  0  0  0
   38.1040   33.7290   38.8160 H   0  0  0  0  0  0  0  0  0  0  0  0
   36.9440   34.1760   40.1010 H   0  0  0  0  0  0  0  0  0  0  0  0
   36.1330   30.1570   40.6820 C   0  0  0  0  0  0  0  0  0  0  0  0
   36.7030   31.4410   40.8000 C   0  0  0  0  0  0  0  0  0  0  0  0
   37.1360   32.0960   39.6790 C   0  0  0  0  0  0  0  0  0  0  0  0
   36.9920   31.4720   38.5050 N   0  0  0  0  0  0  0  0  0  0  0  0
   36.4490   30.2450   38.3880 C   0  0  0  0  0  0  0  0  0  0  0  0
   36.0170   29.5820   39.4720 N   0  0  0  0  0  0  0  0  0  0  0  0
   35.7890   29.6360   41.5700 H   0  0  0  0  0  0  0  0  0  0  0  0
   36.7590   31.8300   41.8070 H   0  0  0  0  0  0  0  0  0  0  0  0
   36.3750   29.8190   37.3910 H   0  0  0  0  0  0  0  0  0  0  0  0
   40.2690   30.8750   40.7600 O   0  0  0  0  0  0  0  0  0  0  0  0
   39.6650   31.0070   43.3420 O   0  0  0  0  0  0  0  0  0  0  0  0
   40.4590   30.2190   42.2900 P   0  0  2  0  0  0  0  0  0  0  0  0
   42.1000   30.4660   42.7190 O   0  0  0  0  0  0  0  0  0  0  0  0
   42.1860   30.0420   43.6250 H   0  0  0  0  0  0  0  0  0  0  0  0
   40.1630   28.5940   42.3750 O   0  0  0  0  0  0  0  0  0  0  0  0
   39.0020   26.6890   41.9260 C   0  0  0  0  0  0  0  0  0  0  0  0
   38.9840   27.9200   42.5910 C   0  0  0  0  0  0  0  0  0  0  0  0
   37.8580   28.2500   43.3180 C   0  0  0  0  0  0  0  0  0  0  0  0
   37.9580   29.2190   43.7860 H   0  0  0  0  0  0  0  0  0  0  0  0
   36.7850   27.3860   43.3810 C   0  0  0  0  0  0  0  0  0  0  0  0
   35.9410   27.7230   43.9730 H   0  0  0  0  0  0  0  0  0  0  0  0
   36.7900   26.1700   42.7290 C   0  0  0  0  0  3  0  0  0  0  0  0
   37.9070   25.8200   41.9970 C   0  0  0  0  0  3  0  0  0  0  0  0
   41.0290   27.1080   40.3780 H   0  0  0  0  0  0  0  0  0  0  0  0
   40.3340   26.0720   40.9450 S   0  0  0  0  0  0  0  0  0  0  0  0
   41.3070   25.3070   41.8020 O   0  0  0  0  0  0  0  0  0  0  0  0
   39.7430   25.1560   39.8890 O   0  0  0  0  0  0  0  0  0  0  0  0
  1  6  1  0  0  0  0
  1 16  1  0  0  0  0
  2  7  1  0  0  0  0
  2  1  1  0  0  0  0
  3  2  1  0  0  0  0
  3  4  1  0  0  0  0
  3 10  1  0  0  0  0
  4  5  1  0  0  0  0
  4 11  1  0  0  0  0
  5 13  1  0  0  0  0
  5  6  1  0  0  0  0
  6 31  1  0  0  0  0
  6 15  1  1  0  0  0
  8  2  1  0  0  0  0
  9  3  1  0  0  0  0
 12  4  1  0  0  0  0
 14  5  1  0  0  0  0
 16 18  1  0  0  0  0
 16 17  1  0  0  0  0
 19 21  1  0  0  0  0
 19 16  1  0  0  0  0
 20 19  1  0  0  0  0
 22 23  1  0  0  0  0
 22 28  1  0  0  0  0
 23 29  1  0  0  0  0
 24 19  1  0  0  0  0
 24 23  2  0  0  0  0
 25 24  1  0  0  0  0
 26 25  2  0  0  0  0
 26 27  1  0  0  0  0
 27 22  2  0  0  0  0
 30 26  1  0  0  0  0
 31 33  1  0  0  0  0
 33 36  1  0  0  0  0
 33 34  1  0  0  0  0
 33 32  2  1  0  0  0
 34 35  1  0  0  0  0
 36 38  1  0  0  0  0
 37 44  2  0  0  0  0
 37 38  1  0  0  0  0
 38 39  2  0  0  0  0
 39 41  1  0  0  0  0
 39 40  1  0  0  0  0
 41 42  1  0  0  0  0
 43 41  2  0  0  0  0
 44 43  1  0  0  0  0
 45 46  1  0  0  0  0
 46 47  2  0  0  0  0
 46 37  1  0  0  0  0
 48 46  2  0  0  0  0
M  END
>  <minimizedAffinity>
-5.18720531

$$$$

 OpenBabel03252509023D

 48 50  0  0  1  0  0  0  0  0999 V2000
   39.0060   31.4760   40.7310 N   0  0  0  0  0  0  0  0  0  0  0  0
   38.9810   32.8570   41.0750 C   0  0  0  0  0  0  0  0  0  0  0  0
   38.3420   33.7670   40.0700 C   0  0  0  0  0  0  0  0  0  0  0  0
   37.2190   33.1460   39.2890 C   0  0  0  0  0  0  0  0  0  0  0  0
   36.9080   31.7470   39.7690 C   0  0  0  0  0  0  0  0  0  0  0  0
   38.2860   31.0030   39.6480 C   0  0  2  0  0  0  0  0  0  0  0  0
   39.9370   33.3060   41.3540 H   0  0  0  0  0  0  0  0  0  0  0  0
   38.3540   32.9350   42.0140 H   0  0  0  0  0  0  0  0  0  0  0  0
   37.9390   34.6710   40.5660 H   0  0  0  0  0  0  0  0  0  0  0  0
   39.1570   34.1550   39.3990 H   0  0  0  0  0  0  0  0  0  0  0  0
   37.5750   33.0330   38.2410 H   0  0  0  0  0  0  0  0  0  0  0  0
   36.3240   33.7850   39.2510 H   0  0  0  0  0  0  0  0  0  0  0  0
   36.2120   31.2880   39.0400 H   0  0  0  0  0  0  0  0  0  0  0  0
   36.5650   31.6980   40.8130 H   0  0  0  0  0  0  0  0  0  0  0  0
   38.6380   31.2420   38.6240 H   0  0  0  0  0  0  0  0  0  0  0  0
   40.2180   30.7980   41.1100 C   0  0  0  0  0  0  0  0  0  0  0  0
   40.2950   29.8900   40.4580 H   0  0  0  0  0  0  0  0  0  0  0  0
   41.1350   31.3670   40.9540 H   0  0  0  0  0  0  0  0  0  0  0  0
   40.1230   30.4150   42.5580 C   0  0  0  0  0  0  0  0  0  0  0  0
   39.5160   31.1560   43.1180 H   0  0  0  0  0  0  0  0  0  0  0  0
   41.1050   30.3380   43.0670 H   0  0  0  0  0  0  0  0  0  0  0  0
   37.5110   27.8700   43.4630 C   0  0  0  0  0  0  0  0  0  0  0  0
   38.2110   29.0870   43.3470 C   0  0  0  0  0  0  0  0  0  0  0  0
   39.4000   29.1240   42.6690 C   0  0  0  0  0  0  0  0  0  0  0  0
   39.8440   27.9790   42.1390 N   0  0  0  0  0  0  0  0  0  0  0  0
   39.1770   26.8130   42.2480 C   0  0  0  0  0  0  0  0  0  0  0  0
   38.0100   26.7520   42.9070 N   0  0  0  0  0  0  0  0  0  0  0  0
   36.5680   27.8380   44.0000 H   0  0  0  0  0  0  0  0  0  0  0  0
   37.7400   29.9380   43.8210 H   0  0  0  0  0  0  0  0  0  0  0  0
   39.6190   25.9360   41.7840 H   0  0  0  0  0  0  0  0  0  0  0  0
   37.9110   29.6800   39.8200 O   0  0  0  0  0  0  0  0  0  0  0  0
   38.1850   27.2510   38.7850 O   0  0  0  0  0  0  0  0  0  0  0  0
   38.1350   28.7480   38.4460 P   0  0  2  0  0  0  0  0  0  0  0  0
   39.7090   29.1080   37.8710 O   0  0  0  0  0  0  0  0  0  0  0  0
   39.8010   28.5550   37.0380 H   0  0  0  0  0  0  0  0  0  0  0  0
   37.0730   29.0740   37.2220 O   0  0  0  0  0  0  0  0  0  0  0  0
   35.2250   29.0430   35.8930 C   0  0  0  0  0  0  0  0  0  0  0  0
   35.6970   29.0340   37.2100 C   0  0  0  0  0  0  0  0  0  0  0  0
   34.7720   28.9870   38.2320 C   0  0  0  0  0  0  0  0  0  0  0  0
   35.2510   28.9840   39.2010 H   0  0  0  0  0  0  0  0  0  0  0  0
   33.4220   28.9530   37.9550 C   0  0  0  0  0  0  0  0  0  0  0  0
   32.7630   28.9180   38.8170 H   0  0  0  0  0  0  0  0  0  0  0  0
   32.9430   28.9620   36.6610 C   0  0  0  0  0  3  0  0  0  0  0  0
   33.8520   29.0080   35.6240 C   0  0  0  0  0  3  0  0  0  0  0  0
   37.5330   28.8020   34.7520 H   0  0  0  0  0  0  0  0  0  0  0  0
   36.2310   29.1000   34.4430 S   0  0  0  0  0  0  0  0  0  0  0  0
   35.7700   28.0730   33.4430 O   0  0  0  0  0  0  0  0  0  0  0  0
   36.1060   30.4910   33.8500 O   0  0  0  0  0  0  0  0  0  0  0  0
  1  2  1  0  0  0  0
  1 16  1  0  0  0  0
  2  7  1  0  0  0  0
  2  8  1  0  0  0  0
  3  9  1  0  0  0  0
  3  2  1  0  0  0  0
  4  5  1  0  0  0  0
  4  3  1  0  0  0  0
  5 14  1  0  0  0  0
  6 15  1  6  0  0  0
  6  5  1  0  0  0  0
  6 31  1  0  0  0  0
  6  1  1  0  0  0  0
 10  3  1  0  0  0  0
 11  4  1  0  0  0  0
 12  4  1  0  0  0  0
 13  5  1  0  0  0  0
 16 19  1  0  0  0  0
 17 16  1  0  0  0  0
 18 16  1  0  0  0  0
 19 24  1  0  0  0  0
 19 21  1  0  0  0  0
 19 20  1  0  0  0  0
 22 28  1  0  0  0  0
 23 22  1  0  0  0  0
 23 29  1  0  0  0  0
 24 23  2  0  0  0  0
 25 26  2  0  0  0  0
 25 24  1  0  0  0  0
 26 27  1  0  0  0  0
 27 22  2  0  0  0  0
 30 26  1  0  0  0  0
 33 32  2  1  0  0  0
 33 31  1  0  0  0  0
 34 33  1  0  0  0  0
 35 34  1  0  0  0  0
 36 33  1  0  0  0  0
 37 38  1  0  0  0  0
 38 36  1  0  0  0  0
 38 39  2  0  0  0  0
 39 40  1  0  0  0  0
 41 39  1  0  0  0  0
 41 42  1  0  0  0  0
 43 41  2  0  0  0  0
 44 37  2  0  0  0  0
 44 43  1  0  0  0  0
 46 45  1  0  0  0  0
 46 37  1  0  0  0  0
 47 46  2  0  0  0  0
 48 46  2  0  0  0  0
M  END
>  <minimizedAffinity>
-5.17964458

$$$$

 OpenBabel03252509023D

 48 50  0  0  1  0  0  0  0  0999 V2000
   37.2690   28.8310   42.2430 N   0  0  0  0  0  0  0  0  0  0  0  0
   36.6090   27.5840   42.4330 C   0  0  0  0  0  0  0  0  0  0  0  0
   37.4960   26.3750   42.4540 C   0  0  0  0  0  0  0  0  0  0  0  0
   38.8680   26.6160   43.0140 C   0  0  0  0  0  0  0  0  0  0  0  0
   39.0220   28.0240   43.5380 C   0  0  0  0  0  0  0  0  0  0  0  0
   38.6490   28.9180   42.3010 C   0  0  2  0  0  0  0  0  0  0  0  0
   35.7810   27.3650   41.7570 H   0  0  0  0  0  0  0  0  0  0  0  0
   36.1270   27.6380   43.4560 H   0  0  0  0  0  0  0  0  0  0  0  0
   37.0320   25.5650   43.0500 H   0  0  0  0  0  0  0  0  0  0  0  0
   37.5340   25.9670   41.4070 H   0  0  0  0  0  0  0  0  0  0  0  0
   39.5850   26.5280   42.1680 H   0  0  0  0  0  0  0  0  0  0  0  0
   39.1630   25.8570   43.7570 H   0  0  0  0  0  0  0  0  0  0  0  0
   40.0960   28.1860   43.7590 H   0  0  0  0  0  0  0  0  0  0  0  0
   38.3480   28.2680   44.3720 H   0  0  0  0  0  0  0  0  0  0  0  0
   39.2490   28.4980   41.4690 H   0  0  0  0  0  0  0  0  0  0  0  0
   36.5490   29.7550   41.4070 C   0  0  0  0  0  0  0  0  0  0  0  0
   36.0820   30.5110   42.0900 H   0  0  0  0  0  0  0  0  0  0  0  0
   37.1630   30.3170   40.7020 H   0  0  0  0  0  0  0  0  0  0  0  0
   35.5010   28.9990   40.6450 C   0  0  0  0  0  0  0  0  0  0  0  0
   34.5510   29.5720   40.6140 H   0  0  0  0  0  0  0  0  0  0  0  0
   35.2710   28.0000   41.0680 H   0  0  0  0  0  0  0  0  0  0  0  0
   35.4890   29.1150   36.8890 C   0  0  0  0  0  0  0  0  0  0  0  0
   35.0900   29.2450   38.2330 C   0  0  0  0  0  0  0  0  0  0  0  0
   35.9400   28.8550   39.2340 C   0  0  0  0  0  0  0  0  0  0  0  0
   37.1300   28.3620   38.8760 N   0  0  0  0  0  0  0  0  0  0  0  0
   37.5160   28.2370   37.5910 C   0  0  0  0  0  0  0  0  0  0  0  0
   36.7010   28.6120   36.5930 N   0  0  0  0  0  0  0  0  0  0  0  0
   34.8180   29.4230   36.0940 H   0  0  0  0  0  0  0  0  0  0  0  0
   34.1020   29.6580   38.3840 H   0  0  0  0  0  0  0  0  0  0  0  0
   38.5030   27.8260   37.3990 H   0  0  0  0  0  0  0  0  0  0  0  0
   39.0660   30.1710   42.7200 O   0  0  0  0  0  0  0  0  0  0  0  0
   41.3640   29.4460   41.6050 O   0  0  0  0  0  0  0  0  0  0  0  0
   40.5090   30.6540   42.0170 P   0  0  2  0  0  0  0  0  0  0  0  0
   41.4150   31.4180   43.2540 O   0  0  0  0  0  0  0  0  0  0  0  0
   42.2580   31.7160   42.7970 H   0  0  0  0  0  0  0  0  0  0  0  0
   40.3350   31.7430   40.7850 O   0  0  0  0  0  0  0  0  0  0  0  0
   39.5770   31.4870   38.6540 C   0  0  0  0  0  0  0  0  0  0  0  0
   39.2730   31.9570   39.9370 C   0  0  0  0  0  0  0  0  0  0  0  0
   38.0330   32.5260   40.1440 C   0  0  0  0  0  0  0  0  0  0  0  0
   37.9120   32.8500   41.1670 H   0  0  0  0  0  0  0  0  0  0  0  0
   37.1260   32.6260   39.1110 C   0  0  0  0  0  0  0  0  0  0  0  0
   36.1750   33.0870   39.3590 H   0  0  0  0  0  0  0  0  0  0  0  0
   37.4130   32.1680   37.8410 C   0  0  0  0  0  3  0  0  0  0  0  0
   38.6470   31.5950   37.6130 C   0  0  0  0  0  3  0  0  0  0  0  0
   42.0050   30.7870   39.1970 H   0  0  0  0  0  0  0  0  0  0  0  0
   41.0970   30.7280   38.1730 S   0  0  0  0  0  0  0  0  0  0  0  0
   40.8810   29.2720   37.8590 O   0  0  0  0  0  0  0  0  0  0  0  0
   41.6030   31.4540   36.9390 O   0  0  0  0  0  0  0  0  0  0  0  0
  1  6  1  0  0  0  0
  1  2  1  0  0  0  0
  2  3  1  0  0  0  0
  2  8  1  0  0  0  0
  3  4  1  0  0  0  0
  3  9  1  0  0  0  0
  4  5  1  0  0  0  0
  4 12  1  0  0  0  0
  5 13  1  0  0  0  0
  5 14  1  0  0  0  0
  6 15  1  6  0  0  0
  6 31  1  0  0  0  0
  6  5  1  0  0  0  0
  7  2  1  0  0  0  0
 10  3  1  0  0  0  0
 11  4  1  0  0  0  0
 16 17  1  0  0  0  0
 16  1  1  0  0  0  0
 18 16  1  0  0  0  0
 19 21  1  0  0  0  0
 19 16  1  0  0  0  0
 20 19  1  0  0  0  0
 22 23  1  0  0  0  0
 23 29  1  0  0  0  0
 23 24  2  0  0  0  0
 24 19  1  0  0  0  0
 25 24  1  0  0  0  0
 26 25  2  0  0  0  0
 27 22  2  0  0  0  0
 27 26  1  0  0  0  0
 28 22  1  0  0  0  0
 30 26  1  0  0  0  0
 33 32  2  6  0  0  0
 33 31  1  0  0  0  0
 33 34  1  0  0  0  0
 35 34  1  0  0  0  0
 36 33  1  0  0  0  0
 37 38  1  0  0  0  0
 38 39  2  0  0  0  0
 38 36  1  0  0  0  0
 39 40  1  0  0  0  0
 41 42  1  0  0  0  0
 41 39  1  0  0  0  0
 43 41  2  0  0  0  0
 44 43  1  0  0  0  0
 44 37  2  0  0  0  0
 46 37  1  0  0  0  0
 46 45  1  0  0  0  0
 47 46  2  0  0  0  0
 48 46  2  0  0  0  0
M  END
>  <minimizedAffinity>
-5.17574549

$$$$

 OpenBabel03252509023D

 48 50  0  0  1  0  0  0  0  0999 V2000
   37.9720   29.3450   39.8010 N   0  0  0  0  0  0  0  0  0  0  0  0
   36.7890   29.2330   40.5840 C   0  0  0  0  0  0  0  0  0  0  0  0
   36.3130   30.5010   41.2280 C   0  0  0  0  0  0  0  0  0  0  0  0
   36.6040   31.7480   40.4440 C   0  0  0  0  0  0  0  0  0  0  0  0
   37.2330   31.4370   39.1060 C   0  0  0  0  0  0  0  0  0  0  0  0
   38.4980   30.5860   39.4860 C   0  0  2  0  0  0  0  0  0  0  0  0
   36.7890   28.4600   41.3550 H   0  0  0  0  0  0  0  0  0  0  0  0
   35.9700   28.9150   39.8710 H   0  0  0  0  0  0  0  0  0  0  0  0
   35.2190   30.4620   41.3950 H   0  0  0  0  0  0  0  0  0  0  0  0
   36.7530   30.5400   42.2620 H   0  0  0  0  0  0  0  0  0  0  0  0
   37.3700   32.3180   41.0130 H   0  0  0  0  0  0  0  0  0  0  0  0
   35.7250   32.4060   40.3520 H   0  0  0  0  0  0  0  0  0  0  0  0
   37.5880   32.3920   38.6710 H   0  0  0  0  0  0  0  0  0  0  0  0
   36.5920   30.8460   38.4360 H   0  0  0  0  0  0  0  0  0  0  0  0
   38.9960   31.1750   40.2830 H   0  0  0  0  0  0  0  0  0  0  0  0
   38.8640   28.2220   39.9190 C   0  0  0  0  0  0  0  0  0  0  0  0
   39.8630   28.5640   39.5430 H   0  0  0  0  0  0  0  0  0  0  0  0
   39.0250   27.8640   40.9360 H   0  0  0  0  0  0  0  0  0  0  0  0
   38.3320   27.0950   39.0840 C   0  0  0  0  0  0  0  0  0  0  0  0
   39.0700   26.8010   38.3100 H   0  0  0  0  0  0  0  0  0  0  0  0
   37.3810   27.3310   38.5640 H   0  0  0  0  0  0  0  0  0  0  0  0
   36.6800   24.3010   40.9790 C   0  0  0  0  0  0  0  0  0  0  0  0
   36.8770   25.4320   40.1620 C   0  0  0  0  0  0  0  0  0  0  0  0
   38.1450   25.9010   39.9480 C   0  0  0  0  0  0  0  0  0  0  0  0
   39.1530   25.2480   40.5360 N   0  0  0  0  0  0  0  0  0  0  0  0
   38.9690   24.1660   41.3170 C   0  0  0  0  0  0  0  0  0  0  0  0
   37.7360   23.6870   41.5420 N   0  0  0  0  0  0  0  0  0  0  0  0
   35.6760   23.9260   41.1500 H   0  0  0  0  0  0  0  0  0  0  0  0
   35.9760   25.8640   39.7480 H   0  0  0  0  0  0  0  0  0  0  0  0
   39.8500   23.7040   41.7520 H   0  0  0  0  0  0  0  0  0  0  0  0
   39.1930   30.5590   38.2880 O   0  0  0  0  0  0  0  0  0  0  0  0
   40.2020   32.8180   39.2520 O   0  0  0  0  0  0  0  0  0  0  0  0
   40.4050   31.7140   38.2030 P   0  0  2  0  0  0  0  0  0  0  0  0
   40.2060   32.5110   36.6990 O   0  0  0  0  0  0  0  0  0  0  0  0
   40.9570   33.1760   36.6690 H   0  0  0  0  0  0  0  0  0  0  0  0
   41.9380   31.0960   38.2370 O   0  0  0  0  0  0  0  0  0  0  0  0
   43.9830   31.5660   37.3550 C   0  0  0  0  0  0  0  0  0  0  0  0
   42.8060   30.8240   37.2050 C   0  0  0  0  0  0  0  0  0  0  0  0
   42.7010   29.9840   36.1150 C   0  0  0  0  0  0  0  0  0  0  0  0
   41.7530   29.4650   36.1040 H   0  0  0  0  0  0  0  0  0  0  0  0
   43.7300   29.8870   35.2030 C   0  0  0  0  0  0  0  0  0  0  0  0
   43.5660   29.2040   34.3760 H   0  0  0  0  0  0  0  0  0  0  0  0
   44.8960   30.6130   35.3390 C   0  0  0  0  0  3  0  0  0  0  0  0
   45.0210   31.4580   36.4230 C   0  0  0  0  0  3  0  0  0  0  0  0
   43.8900   32.1800   39.8640 H   0  0  0  0  0  0  0  0  0  0  0  0
   44.3230   32.6940   38.6700 S   0  0  0  0  0  0  0  0  0  0  0  0
   45.8060   32.9180   38.7990 O   0  0  0  0  0  0  0  0  0  0  0  0
   43.6290   34.0040   38.3440 O   0  0  0  0  0  0  0  0  0  0  0  0
  1 16  1  0  0  0  0
  1  2  1  0  0  0  0
  2  3  1  0  0  0  0
  2  7  1  0  0  0  0
  3  9  1  0  0  0  0
  3 10  1  0  0  0  0
  4 11  1  0  0  0  0
  4  3  1  0  0  0  0
  5  6  1  0  0  0  0
  5  4  1  0  0  0  0
  6  1  1  0  0  0  0
  6 15  1  1  0  0  0
  8  2  1  0  0  0  0
 12  4  1  0  0  0  0
 13  5  1  0  0  0  0
 14  5  1  0  0  0  0
 16 18  1  0  0  0  0
 17 16  1  0  0  0  0
 19 16  1  0  0  0  0
 19 24  1  0  0  0  0
 20 19  1  0  0  0  0
 21 19  1  0  0  0  0
 22 28  1  0  0  0  0
 22 27  1  0  0  0  0
 23 22  2  0  0  0  0
 24 23  1  0  0  0  0
 24 25  2  0  0  0  0
 25 26  1  0  0  0  0
 26 27  2  0  0  0  0
 26 30  1  0  0  0  0
 29 23  1  0  0  0  0
 31  6  1  0  0  0  0
 33 36  1  0  0  0  0
 33 31  1  0  0  0  0
 33 32  2  1  0  0  0
 34 33  1  0  0  0  0
 35 34  1  0  0  0  0
 37 46  1  0  0  0  0
 38 37  1  0  0  0  0
 38 36  1  0  0  0  0
 39 38  2  0  0  0  0
 40 39  1  0  0  0  0
 41 43  2  0  0  0  0
 41 39  1  0  0  0  0
 42 41  1  0  0  0  0
 43 44  1  0  0  0  0
 44 37  2  0  0  0  0
 46 47  2  0  0  0  0
 46 45  1  0  0  0  0
 48 46  2  0  0  0  0
M  END
>  <minimizedAffinity>
-5.15260458

$$$$
