
 OpenBabel03242517593D

 27 28  0  0  0  0  0  0  0  0999 V2000
   47.0810   32.6590   44.7780 C   0  0  0  0  0  0  0  0  0  0  0  0
   48.0030   32.9180   45.3470 H   0  0  0  0  0  0  0  0  0  0  0  0
   47.4810   32.1880   43.8340 H   0  0  0  0  0  0  0  0  0  0  0  0
   46.4880   34.5290   43.2900 C   0  0  0  0  0  0  0  0  0  0  0  0
   46.2760   33.8560   44.4860 C   0  0  0  0  0  0  0  0  0  0  0  0
   45.3430   34.2560   45.4190 C   0  0  0  0  0  0  0  0  0  0  0  0
   45.2020   33.7080   46.3440 H   0  0  0  0  0  0  0  0  0  0  0  0
   44.5930   35.3780   45.1360 C   0  0  0  0  0  0  0  0  0  0  0  0
   43.8320   35.7570   45.8310 H   0  0  0  0  0  0  0  0  0  0  0  0
   44.7330   36.0980   43.9930 C   0  0  0  0  0  0  0  0  0  0  0  0
   45.6890   35.6380   43.1000 C   0  0  0  0  0  0  0  0  0  0  0  0
   47.7640   32.7060   41.9920 H   0  0  0  0  0  0  0  0  0  0  0  0
   47.6640   34.0510   42.0860 S   0  0  0  0  0  0  0  0  0  0  0  0
   48.9990   34.7120   42.2890 O   0  0  0  0  0  0  0  0  0  0  0  0
   47.1810   34.5450   40.7350 O   0  0  0  0  0  0  0  0  0  0  0  0
   46.3320   31.6140   45.5980 C   0  0  0  0  0  0  0  0  0  0  0  0
   45.3660   31.9660   45.9370 H   0  0  0  0  0  0  0  0  0  0  0  0
   46.1450   30.6960   44.9670 H   0  0  0  0  0  0  0  0  0  0  0  0
   47.3780   32.1400   47.7760 C   0  0  0  0  0  0  0  0  0  0  0  0
   47.1700   31.2310   46.7120 C   0  0  0  0  0  0  0  0  0  0  0  0
   47.8070   29.9940   46.8140 C   0  0  0  0  0  0  0  0  0  0  0  0
   48.5730   29.7360   47.9050 N   0  0  0  0  0  0  0  0  0  0  0  0
   48.7510   30.6210   48.8980 C   0  0  0  0  0  0  0  0  0  0  0  0
   48.1550   31.8140   48.8290 N   0  0  0  0  0  0  0  0  0  0  0  0
   46.9220   33.1420   47.7910 H   0  0  0  0  0  0  0  0  0  0  0  0
   47.6860   29.2540   46.0340 H   0  0  0  0  0  0  0  0  0  0  0  0
   49.3720   30.3620   49.7430 H   0  0  0  0  0  0  0  0  0  0  0  0
  1  2  1  0  0  0  0
  1 16  1  0  0  0  0
  3  1  1  0  0  0  0
  4  5  1  0  0  0  0
  5  1  1  0  0  0  0
  5  6  2  0  0  0  0
  6  7  1  0  0  0  0
  8  6  1  0  0  0  0
  8  9  1  0  0  0  0
 10  8  2  0  0  0  0
 11  4  2  0  0  0  0
 11 10  1  0  0  0  0
 12 13  1  0  0  0  0
 13 14  2  0  0  0  0
 13  4  1  0  0  0  0
 15 13  2  0  0  0  0
 16 17  1  0  0  0  0
 16 20  1  0  0  0  0
 18 16  1  0  0  0  0
 19 25  1  0  0  0  0
 19 24  1  0  0  0  0
 20 21  1  0  0  0  0
 20 19  2  0  0  0  0
 21 22  2  0  0  0  0
 22 23  1  0  0  0  0
 23 27  1  0  0  0  0
 24 23  2  0  0  0  0
 26 21  1  0  0  0  0
M  END
>  <minimizedAffinity>
-4.66508675

>  <minimizedRMSD>
5.32518148

$$$$
