
 OpenBabel03252503033D

 36 37  0  0  0  0  0  0  0  0999 V2000
   39.8230   31.9110   41.2810 C   0  0  0  0  0  0  0  0  0  0  0  0
   38.8910   32.7380   40.6960 C   0  0  0  0  0  0  0  0  0  0  0  0
   37.5770   32.3210   40.5160 C   0  0  0  0  0  0  0  0  0  0  0  0
   37.2690   31.0690   40.9430 N   0  0  0  0  0  0  0  0  0  0  0  0
   38.1940   30.2830   41.5100 C   0  0  0  0  0  0  0  0  0  0  0  0
   39.4360   30.6730   41.6830 N   0  0  0  0  0  0  0  0  0  0  0  0
   40.8500   32.2140   41.4310 H   0  0  0  0  0  0  0  0  0  0  0  0
   36.8430   32.9510   40.0620 H   0  0  0  0  0  0  0  0  0  0  0  0
   37.7650   27.8650   41.1170 C   0  0  0  0  0  0  0  0  0  0  0  0
   37.7380   28.9530   41.9310 C   0  0  0  0  0  0  0  0  0  0  0  0
   37.2600   28.7680   43.1900 C   0  0  0  0  0  0  0  0  0  0  0  0
   37.2060   29.5950   43.9080 H   0  0  0  0  0  0  0  0  0  0  0  0
   36.7950   27.5690   43.7250 C   0  0  0  0  0  0  0  0  0  0  0  0
   36.4250   27.4820   44.7380 H   0  0  0  0  0  0  0  0  0  0  0  0
   36.8380   26.4710   42.8580 C   0  0  0  0  0  3  0  0  0  0  0  0
   37.3200   26.6450   41.5800 C   0  0  0  0  0  3  0  0  0  0  0  0
   39.4530   28.7810   39.3530 H   0  0  0  0  0  0  0  0  0  0  0  0
   38.3610   28.0040   39.4850 S   0  0  0  0  0  0  0  0  0  0  0  0
   37.2370   28.4870   38.6050 O   0  0  0  0  0  0  0  0  0  0  0  0
   38.7330   26.6330   38.9440 O   0  0  0  0  0  0  0  0  0  0  0  0
   39.3640   34.3920   40.1470 S   0  0  0  0  0  0  0  0  0  0  0  0
   41.0210   34.3510   39.4600 C   0  0  0  0  0  0  0  0  0  0  0  0
   41.7570   33.8380   40.1200 H   0  0  0  0  0  0  0  0  0  0  0  0
   41.4370   35.3540   39.2390 H   0  0  0  0  0  0  0  0  0  0  0  0
   40.9550   33.5280   38.2520 N   0  0  0  0  0  0  0  0  0  0  0  0
   40.2490   33.8500   37.5770 H   0  0  0  0  0  0  0  0  0  0  0  0
   42.4930   33.3210   37.5240 S   0  0  0  0  0  0  0  0  0  0  0  0
   42.5600   32.0850   36.6810 O   0  0  0  0  0  0  0  0  0  0  0  0
   42.7360   32.0150   35.6980 H   0  0  0  0  0  0  0  0  0  0  0  0
   42.7220   34.5340   36.6620 O   0  0  0  0  0  0  0  0  0  0  0  0
   42.4610   34.7190   35.7440 H   0  0  0  0  0  0  0  0  0  0  0  0
   43.6810   33.3090   38.6960 O   0  0  0  0  0  0  0  0  0  0  0  0
   44.1130   32.0260   38.9970 C   0  0  0  0  0  0  0  0  0  0  0  0
   44.2150   31.9820   40.1050 H   0  0  0  0  0  0  0  0  0  0  0  0
   43.4330   31.2470   38.6120 H   0  0  0  0  0  0  0  0  0  0  0  0
   45.1380   31.9270   38.5860 H   0  0  0  0  0  0  0  0  0  0  0  0
  1  7  1  0  0  0  0
  1  6  1  0  0  0  0
  2  1  2  0  0  0  0
  3  2  1  0  0  0  0
  3  4  2  0  0  0  0
  4  5  1  0  0  0  0
  5  6  2  0  0  0  0
  5 10  1  0  0  0  0
  8  3  1  0  0  0  0
  9 16  2  0  0  0  0
  9 10  1  0  0  0  0
 10 11  2  0  0  0  0
 11 13  1  0  0  0  0
 11 12  1  0  0  0  0
 13 14  1  0  0  0  0
 15 13  2  0  0  0  0
 16 15  1  0  0  0  0
 17 18  1  0  0  0  0
 18  9  1  0  0  0  0
 19 18  2  0  0  0  0
 20 18  2  0  0  0  0
 21  2  1  0  0  0  0
 22 23  1  0  0  0  0
 22 21  1  0  0  0  0
 24 22  1  0  0  0  0
 25 22  1  0  0  0  0
 26 25  1  0  0  0  0
 27 25  1  0  0  0  0
 27 32  1  0  0  0  0
 28 27  1  0  0  0  0
 29 28  1  0  0  0  0
 30 27  1  0  0  0  0
 31 30  1  0  0  0  0
 32 33  1  0  0  0  0
 33 34  1  0  0  0  0
 35 33  1  0  0  0  0
 36 33  1  0  0  0  0
M  END
>  <minimizedAffinity>
-5.5490818

$$$$

 OpenBabel03252503033D

 36 37  0  0  0  0  0  0  0  0999 V2000
   38.6650   29.7940   39.3930 C   0  0  0  0  0  0  0  0  0  0  0  0
   37.7850   30.6790   39.9750 C   0  0  0  0  0  0  0  0  0  0  0  0
   36.7560   30.2300   40.7940 C   0  0  0  0  0  0  0  0  0  0  0  0
   36.6670   28.8880   40.9870 N   0  0  0  0  0  0  0  0  0  0  0  0
   37.5370   28.0470   40.4100 C   0  0  0  0  0  0  0  0  0  0  0  0
   38.5110   28.4660   39.6360 N   0  0  0  0  0  0  0  0  0  0  0  0
   39.4720   30.1200   38.7530 H   0  0  0  0  0  0  0  0  0  0  0  0
   36.0640   30.9040   41.2510 H   0  0  0  0  0  0  0  0  0  0  0  0
   37.8750   25.9980   41.7780 C   0  0  0  0  0  0  0  0  0  0  0  0
   37.3390   26.6210   40.6950 C   0  0  0  0  0  0  0  0  0  0  0  0
   36.5870   25.8610   39.8560 C   0  0  0  0  0  0  0  0  0  0  0  0
   36.1200   26.2890   38.9610 H   0  0  0  0  0  0  0  0  0  0  0  0
   36.3140   24.5020   40.0010 C   0  0  0  0  0  0  0  0  0  0  0  0
   35.7070   23.9480   39.2970 H   0  0  0  0  0  0  0  0  0  0  0  0
   36.8830   23.8940   41.1250 C   0  0  0  0  0  3  0  0  0  0  0  0
   37.6460   24.6530   41.9830 C   0  0  0  0  0  3  0  0  0  0  0  0
   39.6900   27.7820   42.3460 H   0  0  0  0  0  0  0  0  0  0  0  0
   38.8530   26.8900   42.9100 S   0  0  0  0  0  0  0  0  0  0  0  0
   39.6010   25.9090   43.7740 O   0  0  0  0  0  0  0  0  0  0  0  0
   37.9670   27.6710   43.8670 O   0  0  0  0  0  0  0  0  0  0  0  0
   37.9540   32.4520   39.6790 S   0  0  0  0  0  0  0  0  0  0  0  0
   39.6170   32.9800   40.0960 C   0  0  0  0  0  0  0  0  0  0  0  0
   40.3320   32.1310   40.2070 H   0  0  0  0  0  0  0  0  0  0  0  0
   39.6760   33.5680   41.0330 H   0  0  0  0  0  0  0  0  0  0  0  0
   40.1140   33.7490   38.9550 N   0  0  0  0  0  0  0  0  0  0  0  0
   40.7280   34.5280   39.2250 H   0  0  0  0  0  0  0  0  0  0  0  0
   40.8300   32.7490   37.7610 S   0  0  0  0  0  0  0  0  0  0  0  0
   39.8400   32.2920   36.7350 O   0  0  0  0  0  0  0  0  0  0  0  0
   39.8430   32.4700   35.7500 H   0  0  0  0  0  0  0  0  0  0  0  0
   41.9000   33.5770   37.1000 O   0  0  0  0  0  0  0  0  0  0  0  0
   41.8500   34.2000   36.3560 H   0  0  0  0  0  0  0  0  0  0  0  0
   41.5830   31.4470   38.4860 O   0  0  0  0  0  0  0  0  0  0  0  0
   42.9650   31.5110   38.3800 C   0  0  0  0  0  0  0  0  0  0  0  0
   43.3070   30.4790   38.1340 H   0  0  0  0  0  0  0  0  0  0  0  0
   43.3000   32.2480   37.6320 H   0  0  0  0  0  0  0  0  0  0  0  0
   43.3550   31.7340   39.3930 H   0  0  0  0  0  0  0  0  0  0  0  0
  1  6  2  0  0  0  0
  1  2  1  0  0  0  0
  2  3  2  0  0  0  0
  3  4  1  0  0  0  0
  3  8  1  0  0  0  0
  5 10  1  0  0  0  0
  5  4  2  0  0  0  0
  6  5  1  0  0  0  0
  7  1  1  0  0  0  0
  9 16  1  0  0  0  0
  9 18  1  0  0  0  0
 10  9  2  0  0  0  0
 11 13  2  0  0  0  0
 11 10  1  0  0  0  0
 12 11  1  0  0  0  0
 13 15  1  0  0  0  0
 14 13  1  0  0  0  0
 15 16  2  0  0  0  0
 17 18  1  0  0  0  0
 18 19  2  0  0  0  0
 18 20  2  0  0  0  0
 21  2  1  0  0  0  0
 21 22  1  0  0  0  0
 22 23  1  0  0  0  0
 22 24  1  0  0  0  0
 25 26  1  0  0  0  0
 25 22  1  0  0  0  0
 27 32  1  0  0  0  0
 27 25  1  0  0  0  0
 28 27  1  0  0  0  0
 29 28  1  0  0  0  0
 30 27  1  0  0  0  0
 31 30  1  0  0  0  0
 33 32  1  0  0  0  0
 33 36  1  0  0  0  0
 34 33  1  0  0  0  0
 35 33  1  0  0  0  0
M  END
>  <minimizedAffinity>
-5.20596552

$$$$

 OpenBabel03252503033D

 36 37  0  0  0  0  0  0  0  0999 V2000
   36.8040   30.8670   40.5860 C   0  0  0  0  0  0  0  0  0  0  0  0
   38.1050   31.2320   40.3260 C   0  0  0  0  0  0  0  0  0  0  0  0
   39.1070   30.2760   40.2130 C   0  0  0  0  0  0  0  0  0  0  0  0
   38.7360   28.9780   40.3710 N   0  0  0  0  0  0  0  0  0  0  0  0
   37.4610   28.6490   40.6230 C   0  0  0  0  0  0  0  0  0  0  0  0
   36.5120   29.5490   40.7300 N   0  0  0  0  0  0  0  0  0  0  0  0
   36.0080   31.5940   40.6780 H   0  0  0  0  0  0  0  0  0  0  0  0
   40.1230   30.5430   40.0130 H   0  0  0  0  0  0  0  0  0  0  0  0
   36.7410   26.4330   39.7530 C   0  0  0  0  0  0  0  0  0  0  0  0
   37.1860   27.2150   40.7720 C   0  0  0  0  0  0  0  0  0  0  0  0
   37.3740   26.6110   41.9750 C   0  0  0  0  0  0  0  0  0  0  0  0
   37.7310   27.1720   42.8470 H   0  0  0  0  0  0  0  0  0  0  0  0
   37.1550   25.2650   42.2620 C   0  0  0  0  0  0  0  0  0  0  0  0
   37.3230   24.8390   43.2420 H   0  0  0  0  0  0  0  0  0  0  0  0
   36.6980   24.4910   41.1890 C   0  0  0  0  0  3  0  0  0  0  0  0
   36.5030   25.0910   39.9660 C   0  0  0  0  0  3  0  0  0  0  0  0
   35.9790   28.3730   38.1850 H   0  0  0  0  0  0  0  0  0  0  0  0
   36.4700   27.1190   38.1740 S   0  0  0  0  0  0  0  0  0  0  0  0
   35.5760   26.1890   37.3960 O   0  0  0  0  0  0  0  0  0  0  0  0
   37.7730   27.1680   37.3930 O   0  0  0  0  0  0  0  0  0  0  0  0
   38.5360   32.9750   40.1270 S   0  0  0  0  0  0  0  0  0  0  0  0
   40.3200   33.1590   40.1040 C   0  0  0  0  0  0  0  0  0  0  0  0
   40.8600   32.1920   39.9720 H   0  0  0  0  0  0  0  0  0  0  0  0
   40.7320   33.6290   41.0180 H   0  0  0  0  0  0  0  0  0  0  0  0
   40.6480   33.9420   38.9120 N   0  0  0  0  0  0  0  0  0  0  0  0
   41.2640   34.7420   39.1070 H   0  0  0  0  0  0  0  0  0  0  0  0
   41.2470   32.9640   37.6380 S   0  0  0  0  0  0  0  0  0  0  0  0
   40.1510   32.4390   36.7630 O   0  0  0  0  0  0  0  0  0  0  0  0
   40.0080   32.6030   35.7850 H   0  0  0  0  0  0  0  0  0  0  0  0
   42.1670   33.8390   36.8290 O   0  0  0  0  0  0  0  0  0  0  0  0
   41.9810   34.4470   36.0940 H   0  0  0  0  0  0  0  0  0  0  0  0
   42.1630   31.7160   38.2600 O   0  0  0  0  0  0  0  0  0  0  0  0
   41.8830   30.5010   37.6500 C   0  0  0  0  0  0  0  0  0  0  0  0
   41.8480   29.7430   38.4650 H   0  0  0  0  0  0  0  0  0  0  0  0
   40.9490   30.5240   37.0650 H   0  0  0  0  0  0  0  0  0  0  0  0
   42.7630   30.2450   37.0260 H   0  0  0  0  0  0  0  0  0  0  0  0
  1  7  1  0  0  0  0
  1  6  1  0  0  0  0
  2  1  2  0  0  0  0
  3  2  1  0  0  0  0
  3  4  2  0  0  0  0
  4  5  1  0  0  0  0
  5  6  2  0  0  0  0
  5 10  1  0  0  0  0
  8  3  1  0  0  0  0
  9 16  2  0  0  0  0
  9 10  1  0  0  0  0
 10 11  2  0  0  0  0
 11 13  1  0  0  0  0
 11 12  1  0  0  0  0
 13 14  1  0  0  0  0
 15 13  2  0  0  0  0
 16 15  1  0  0  0  0
 18 17  1  0  0  0  0
 18  9  1  0  0  0  0
 19 18  2  0  0  0  0
 20 18  2  0  0  0  0
 21  2  1  0  0  0  0
 22 21  1  0  0  0  0
 22 24  1  0  0  0  0
 23 22  1  0  0  0  0
 25 26  1  0  0  0  0
 25 22  1  0  0  0  0
 27 32  1  0  0  0  0
 27 25  1  0  0  0  0
 28 27  1  0  0  0  0
 29 28  1  0  0  0  0
 30 27  1  0  0  0  0
 31 30  1  0  0  0  0
 33 32  1  0  0  0  0
 33 34  1  0  0  0  0
 35 33  1  0  0  0  0
 36 33  1  0  0  0  0
M  END
>  <minimizedAffinity>
-5.18028164

$$$$

 OpenBabel03252503033D

 36 37  0  0  0  0  0  0  0  0999 V2000
   38.6970   29.4560   38.4670 C   0  0  0  0  0  0  0  0  0  0  0  0
   39.9920   29.7240   38.8490 C   0  0  0  0  0  0  0  0  0  0  0  0
   40.6680   28.8840   39.7250 C   0  0  0  0  0  0  0  0  0  0  0  0
   39.9880   27.7970   40.1780 N   0  0  0  0  0  0  0  0  0  0  0  0
   38.7280   27.5580   39.7900 C   0  0  0  0  0  0  0  0  0  0  0  0
   38.0860   28.3490   38.9620 N   0  0  0  0  0  0  0  0  0  0  0  0
   38.1520   30.0960   37.7870 H   0  0  0  0  0  0  0  0  0  0  0  0
   41.6730   29.0790   40.0320 H   0  0  0  0  0  0  0  0  0  0  0  0
   37.5540   26.3050   41.5900 C   0  0  0  0  0  0  0  0  0  0  0  0
   38.1030   26.3530   40.3460 C   0  0  0  0  0  0  0  0  0  0  0  0
   38.0530   25.2130   39.6080 C   0  0  0  0  0  0  0  0  0  0  0  0
   38.4730   25.1690   38.5960 H   0  0  0  0  0  0  0  0  0  0  0  0
   37.4930   24.0000   40.0050 C   0  0  0  0  0  0  0  0  0  0  0  0
   37.4840   23.1230   39.3710 H   0  0  0  0  0  0  0  0  0  0  0  0
   36.9390   23.9890   41.2900 C   0  0  0  0  0  3  0  0  0  0  0  0
   36.9820   25.1370   42.0480 C   0  0  0  0  0  3  0  0  0  0  0  0
   37.4060   28.8830   41.9550 H   0  0  0  0  0  0  0  0  0  0  0  0
   37.5690   27.7180   42.6100 S   0  0  0  0  0  0  0  0  0  0  0  0
   38.8450   27.7150   43.4120 O   0  0  0  0  0  0  0  0  0  0  0  0
   36.4520   27.6350   43.6370 O   0  0  0  0  0  0  0  0  0  0  0  0
   40.8410   31.1860   38.2130 S   0  0  0  0  0  0  0  0  0  0  0  0
   40.5460   32.5800   39.3040 C   0  0  0  0  0  0  0  0  0  0  0  0
   41.2440   33.4310   39.1260 H   0  0  0  0  0  0  0  0  0  0  0  0
   40.6200   32.3280   40.3800 H   0  0  0  0  0  0  0  0  0  0  0  0
   39.2190   33.1010   38.9720 N   0  0  0  0  0  0  0  0  0  0  0  0
   38.7730   32.6090   38.1870 H   0  0  0  0  0  0  0  0  0  0  0  0
   38.1940   33.1860   40.3440 S   0  0  0  0  0  0  0  0  0  0  0  0
   38.6910   34.1630   41.3630 O   0  0  0  0  0  0  0  0  0  0  0  0
   38.2370   34.9890   41.7020 H   0  0  0  0  0  0  0  0  0  0  0  0
   36.8450   33.6220   39.8380 O   0  0  0  0  0  0  0  0  0  0  0  0
   36.4840   34.5100   39.6800 H   0  0  0  0  0  0  0  0  0  0  0  0
   38.0110   31.6680   41.0120 O   0  0  0  0  0  0  0  0  0  0  0  0
   36.7050   31.2070   40.9240 C   0  0  0  0  0  0  0  0  0  0  0  0
   36.4750   30.7300   41.9040 H   0  0  0  0  0  0  0  0  0  0  0  0
   35.9880   32.0070   40.6750 H   0  0  0  0  0  0  0  0  0  0  0  0
   36.7010   30.3910   40.1740 H   0  0  0  0  0  0  0  0  0  0  0  0
  1  2  2  0  0  0  0
  1  6  1  0  0  0  0
  2  3  1  0  0  0  0
  3  8  1  0  0  0  0
  3  4  2  0  0  0  0
  5  4  1  0  0  0  0
  5 10  1  0  0  0  0
  6  5  2  0  0  0  0
  7  1  1  0  0  0  0
  9 16  1  0  0  0  0
  9 18  1  0  0  0  0
 10  9  2  0  0  0  0
 11 13  2  0  0  0  0
 11 10  1  0  0  0  0
 12 11  1  0  0  0  0
 13 15  1  0  0  0  0
 14 13  1  0  0  0  0
 15 16  2  0  0  0  0
 17 18  1  0  0  0  0
 18 19  2  0  0  0  0
 18 20  2  0  0  0  0
 21  2  1  0  0  0  0
 21 22  1  0  0  0  0
 22 24  1  0  0  0  0
 23 22  1  0  0  0  0
 25 22  1  0  0  0  0
 25 27  1  0  0  0  0
 26 25  1  0  0  0  0
 27 32  1  0  0  0  0
 27 28  1  0  0  0  0
 28 29  1  0  0  0  0
 30 27  1  0  0  0  0
 31 30  1  0  0  0  0
 33 32  1  0  0  0  0
 33 34  1  0  0  0  0
 35 33  1  0  0  0  0
 36 33  1  0  0  0  0
M  END
>  <minimizedAffinity>
-5.16013384

$$$$

 OpenBabel03252503033D

 36 37  0  0  0  0  0  0  0  0999 V2000
   40.0870   28.0630   41.8280 C   0  0  0  0  0  0  0  0  0  0  0  0
   39.3760   27.7170   42.9560 C   0  0  0  0  0  0  0  0  0  0  0  0
   38.3310   28.5100   43.4130 C   0  0  0  0  0  0  0  0  0  0  0  0
   38.0520   29.6300   42.6960 N   0  0  0  0  0  0  0  0  0  0  0  0
   38.7580   29.9440   41.6010 C   0  0  0  0  0  0  0  0  0  0  0  0
   39.7460   29.1980   41.1650 N   0  0  0  0  0  0  0  0  0  0  0  0
   40.9040   27.4610   41.4540 H   0  0  0  0  0  0  0  0  0  0  0  0
   37.7710   28.2550   44.2870 H   0  0  0  0  0  0  0  0  0  0  0  0
   37.3790   31.2210   39.9730 C   0  0  0  0  0  0  0  0  0  0  0  0
   38.3610   31.1770   40.9120 C   0  0  0  0  0  0  0  0  0  0  0  0
   38.9860   32.3480   41.2040 C   0  0  0  0  0  0  0  0  0  0  0  0
   39.7880   32.3970   41.9500 H   0  0  0  0  0  0  0  0  0  0  0  0
   38.7150   33.5900   40.6330 C   0  0  0  0  0  0  0  0  0  0  0  0
   39.2480   34.4900   40.9070 H   0  0  0  0  0  0  0  0  0  0  0  0
   37.6990   33.5960   39.6710 C   0  0  0  0  0  3  0  0  0  0  0  0
   37.0580   32.4170   39.3650 C   0  0  0  0  0  3  0  0  0  0  0  0
   37.2500   28.6420   39.6130 H   0  0  0  0  0  0  0  0  0  0  0  0
   36.5200   29.7710   39.5320 S   0  0  0  0  0  0  0  0  0  0  0  0
   35.9500   29.9540   38.1490 O   0  0  0  0  0  0  0  0  0  0  0  0
   35.3160   29.5770   40.4390 O   0  0  0  0  0  0  0  0  0  0  0  0
   39.7960   26.2150   43.8670 S   0  0  0  0  0  0  0  0  0  0  0  0
   40.3130   24.9360   42.7210 C   0  0  0  0  0  0  0  0  0  0  0  0
   41.2800   24.4580   43.0040 H   0  0  0  0  0  0  0  0  0  0  0  0
   40.4270   25.2910   41.6780 H   0  0  0  0  0  0  0  0  0  0  0  0
   39.3200   23.8650   42.8100 N   0  0  0  0  0  0  0  0  0  0  0  0
   38.9380   23.7410   43.7560 H   0  0  0  0  0  0  0  0  0  0  0  0
   38.0840   24.0270   41.6330 S   0  0  0  0  0  0  0  0  0  0  0  0
   37.7550   22.7240   40.9740 O   0  0  0  0  0  0  0  0  0  0  0  0
   36.8810   22.2340   40.9730 H   0  0  0  0  0  0  0  0  0  0  0  0
   36.8720   24.5470   42.3600 O   0  0  0  0  0  0  0  0  0  0  0  0
   36.1690   24.0780   42.8390 H   0  0  0  0  0  0  0  0  0  0  0  0
   38.5200   25.1740   40.5030 O   0  0  0  0  0  0  0  0  0  0  0  0
   37.4500   25.9680   40.1170 C   0  0  0  0  0  0  0  0  0  0  0  0
   37.5320   26.0880   39.0120 H   0  0  0  0  0  0  0  0  0  0  0  0
   36.4770   25.5450   40.4160 H   0  0  0  0  0  0  0  0  0  0  0  0
   37.6220   26.9740   40.5520 H   0  0  0  0  0  0  0  0  0  0  0  0
  1  2  1  0  0  0  0
  2  3  2  0  0  0  0
  2 21  1  0  0  0  0
  3  8  1  0  0  0  0
  4  3  1  0  0  0  0
  5  4  2  0  0  0  0
  6  5  1  0  0  0  0
  6  1  2  0  0  0  0
  7  1  1  0  0  0  0
  9 10  1  0  0  0  0
 10 11  2  0  0  0  0
 10  5  1  0  0  0  0
 11 12  1  0  0  0  0
 13 14  1  0  0  0  0
 13 11  1  0  0  0  0
 15 13  2  0  0  0  0
 16 15  1  0  0  0  0
 16  9  2  0  0  0  0
 18 17  1  0  0  0  0
 18  9  1  0  0  0  0
 18 20  2  0  0  0  0
 19 18  2  0  0  0  0
 22 25  1  0  0  0  0
 22 23  1  0  0  0  0
 22 21  1  0  0  0  0
 24 22  1  0  0  0  0
 25 26  1  0  0  0  0
 27 30  1  0  0  0  0
 27 25  1  0  0  0  0
 28 27  1  0  0  0  0
 29 28  1  0  0  0  0
 30 31  1  0  0  0  0
 32 27  1  0  0  0  0
 33 35  1  0  0  0  0
 33 32  1  0  0  0  0
 33 36  1  0  0  0  0
 34 33  1  0  0  0  0
M  END
>  <minimizedAffinity>
-5.10412359

$$$$

 OpenBabel03252503033D

 36 37  0  0  0  0  0  0  0  0999 V2000
   38.2130   29.8110   38.8820 C   0  0  0  0  0  0  0  0  0  0  0  0
   37.2820   30.7080   39.3540 C   0  0  0  0  0  0  0  0  0  0  0  0
   36.2970   30.3120   40.2510 C   0  0  0  0  0  0  0  0  0  0  0  0
   36.3030   29.0070   40.6300 N   0  0  0  0  0  0  0  0  0  0  0  0
   37.2210   28.1530   40.1570 C   0  0  0  0  0  0  0  0  0  0  0  0
   38.1540   28.5230   39.3100 N   0  0  0  0  0  0  0  0  0  0  0  0
   38.9880   30.0970   38.1850 H   0  0  0  0  0  0  0  0  0  0  0  0
   35.5660   30.9960   40.6250 H   0  0  0  0  0  0  0  0  0  0  0  0
   37.5640   26.3810   41.8680 C   0  0  0  0  0  0  0  0  0  0  0  0
   37.1240   26.7720   40.6420 C   0  0  0  0  0  0  0  0  0  0  0  0
   36.5740   25.8120   39.8520 C   0  0  0  0  0  0  0  0  0  0  0  0
   36.1960   26.0460   38.8490 H   0  0  0  0  0  0  0  0  0  0  0  0
   36.4180   24.4670   40.1790 C   0  0  0  0  0  0  0  0  0  0  0  0
   35.9710   23.7480   39.5060 H   0  0  0  0  0  0  0  0  0  0  0  0
   36.8810   24.1030   41.4480 C   0  0  0  0  0  3  0  0  0  0  0  0
   37.4400   25.0640   42.2590 C   0  0  0  0  0  3  0  0  0  0  0  0
   38.8890   28.5770   42.3420 H   0  0  0  0  0  0  0  0  0  0  0  0
   38.2830   27.5400   42.9530 S   0  0  0  0  0  0  0  0  0  0  0  0
   39.2340   26.8130   43.8670 O   0  0  0  0  0  0  0  0  0  0  0  0
   37.2230   28.1320   43.8670 O   0  0  0  0  0  0  0  0  0  0  0  0
   37.3250   32.4300   38.8100 S   0  0  0  0  0  0  0  0  0  0  0  0
   37.9290   33.4700   40.1410 C   0  0  0  0  0  0  0  0  0  0  0  0
   38.2880   32.8900   41.0230 H   0  0  0  0  0  0  0  0  0  0  0  0
   37.1790   34.1910   40.5190 H   0  0  0  0  0  0  0  0  0  0  0  0
   39.1160   34.1590   39.6320 N   0  0  0  0  0  0  0  0  0  0  0  0
   39.1110   35.1700   39.8170 H   0  0  0  0  0  0  0  0  0  0  0  0
   40.5700   33.4170   40.1540 S   0  0  0  0  0  0  0  0  0  0  0  0
   40.4260   32.7690   41.4960 O   0  0  0  0  0  0  0  0  0  0  0  0
   40.5360   31.8020   41.7310 H   0  0  0  0  0  0  0  0  0  0  0  0
   40.9100   32.3750   39.1220 O   0  0  0  0  0  0  0  0  0  0  0  0
   40.6260   31.4500   39.0370 H   0  0  0  0  0  0  0  0  0  0  0  0
   41.8090   34.5360   40.1620 O   0  0  0  0  0  0  0  0  0  0  0  0
   42.6810   34.3500   41.2250 C   0  0  0  0  0  0  0  0  0  0  0  0
   42.9090   35.3650   41.6230 H   0  0  0  0  0  0  0  0  0  0  0  0
   42.2690   33.6850   42.0010 H   0  0  0  0  0  0  0  0  0  0  0  0
   43.6290   33.9630   40.8000 H   0  0  0  0  0  0  0  0  0  0  0  0
  1  6  2  0  0  0  0
  1  2  1  0  0  0  0
  2  3  2  0  0  0  0
  3  8  1  0  0  0  0
  3  4  1  0  0  0  0
  5  4  2  0  0  0  0
  5 10  1  0  0  0  0
  6  5  1  0  0  0  0
  7  1  1  0  0  0  0
  9 16  1  0  0  0  0
  9 18  1  0  0  0  0
 10  9  2  0  0  0  0
 11 13  2  0  0  0  0
 11 10  1  0  0  0  0
 12 11  1  0  0  0  0
 13 15  1  0  0  0  0
 14 13  1  0  0  0  0
 15 16  2  0  0  0  0
 17 18  1  0  0  0  0
 18 20  2  0  0  0  0
 18 19  2  0  0  0  0
 21  2  1  0  0  0  0
 21 22  1  0  0  0  0
 22 24  1  0  0  0  0
 22 23  1  0  0  0  0
 25 26  1  0  0  0  0
 25 22  1  0  0  0  0
 25 27  1  0  0  0  0
 27 32  1  0  0  0  0
 27 28  1  0  0  0  0
 28 29  1  0  0  0  0
 30 27  1  0  0  0  0
 31 30  1  0  0  0  0
 32 33  1  0  0  0  0
 33 34  1  0  0  0  0
 33 35  1  0  0  0  0
 36 33  1  0  0  0  0
M  END
>  <minimizedAffinity>
-5.08338976

$$$$

 OpenBabel03252503033D

 36 37  0  0  0  0  0  0  0  0999 V2000
   38.7980   30.4270   42.0070 C   0  0  0  0  0  0  0  0  0  0  0  0
   38.6510   30.8180   40.6960 C   0  0  0  0  0  0  0  0  0  0  0  0
   38.4270   29.8830   39.6920 C   0  0  0  0  0  0  0  0  0  0  0  0
   38.3620   28.5800   40.0710 N   0  0  0  0  0  0  0  0  0  0  0  0
   38.5070   28.2250   41.3550 C   0  0  0  0  0  0  0  0  0  0  0  0
   38.7180   29.1040   42.3070 N   0  0  0  0  0  0  0  0  0  0  0  0
   38.9720   31.1360   42.8050 H   0  0  0  0  0  0  0  0  0  0  0  0
   38.3130   30.1710   38.6690 H   0  0  0  0  0  0  0  0  0  0  0  0
   39.5040   25.9810   41.7520 C   0  0  0  0  0  0  0  0  0  0  0  0
   38.4150   26.7890   41.6390 C   0  0  0  0  0  0  0  0  0  0  0  0
   37.1980   26.2070   41.8020 C   0  0  0  0  0  0  0  0  0  0  0  0
   36.2720   26.7890   41.7270 H   0  0  0  0  0  0  0  0  0  0  0  0
   36.9600   24.8610   42.0750 C   0  0  0  0  0  0  0  0  0  0  0  0
   35.9640   24.4550   42.1950 H   0  0  0  0  0  0  0  0  0  0  0  0
   38.1030   24.0610   42.1840 C   0  0  0  0  0  3  0  0  0  0  0  0
   39.3420   24.6380   42.0210 C   0  0  0  0  0  3  0  0  0  0  0  0
   41.1940   27.6500   40.6770 H   0  0  0  0  0  0  0  0  0  0  0  0
   41.1070   26.6370   41.5600 S   0  0  0  0  0  0  0  0  0  0  0  0
   42.0420   25.5130   41.1960 O   0  0  0  0  0  0  0  0  0  0  0  0
   41.6190   27.1700   42.8880 O   0  0  0  0  0  0  0  0  0  0  0  0
   38.7500   32.5660   40.2540 S   0  0  0  0  0  0  0  0  0  0  0  0
   40.4690   33.0610   40.1190 C   0  0  0  0  0  0  0  0  0  0  0  0
   41.1710   32.1960   40.0700 H   0  0  0  0  0  0  0  0  0  0  0  0
   40.8150   33.7040   40.9520 H   0  0  0  0  0  0  0  0  0  0  0  0
   40.6120   33.7400   38.8310 N   0  0  0  0  0  0  0  0  0  0  0  0
   41.2440   34.5510   38.8660 H   0  0  0  0  0  0  0  0  0  0  0  0
   41.0240   32.6570   37.5680 S   0  0  0  0  0  0  0  0  0  0  0  0
   39.8710   32.3900   36.6510 O   0  0  0  0  0  0  0  0  0  0  0  0
   39.8030   32.5840   35.6710 H   0  0  0  0  0  0  0  0  0  0  0  0
   42.1430   33.3080   36.8000 O   0  0  0  0  0  0  0  0  0  0  0  0
   42.1220   33.9450   36.0650 H   0  0  0  0  0  0  0  0  0  0  0  0
   41.6180   31.2360   38.2090 O   0  0  0  0  0  0  0  0  0  0  0  0
   42.1720   30.4110   37.2400 C   0  0  0  0  0  0  0  0  0  0  0  0
   41.8340   29.3770   37.4790 H   0  0  0  0  0  0  0  0  0  0  0  0
   41.8940   30.7120   36.2170 H   0  0  0  0  0  0  0  0  0  0  0  0
   43.2700   30.4220   37.3970 H   0  0  0  0  0  0  0  0  0  0  0  0
  1  6  1  0  0  0  0
  1  7  1  0  0  0  0
  2  1  2  0  0  0  0
  3  4  2  0  0  0  0
  3  2  1  0  0  0  0
  4  5  1  0  0  0  0
  5 10  1  0  0  0  0
  5  6  2  0  0  0  0
  8  3  1  0  0  0  0
  9 16  1  0  0  0  0
 10  9  2  0  0  0  0
 10 11  1  0  0  0  0
 11 13  2  0  0  0  0
 12 11  1  0  0  0  0
 13 15  1  0  0  0  0
 13 14  1  0  0  0  0
 16 15  2  0  0  0  0
 17 18  1  0  0  0  0
 18  9  1  0  0  0  0
 18 20  2  0  0  0  0
 19 18  2  0  0  0  0
 21  2  1  0  0  0  0
 22 21  1  0  0  0  0
 22 24  1  0  0  0  0
 23 22  1  0  0  0  0
 25 26  1  0  0  0  0
 25 22  1  0  0  0  0
 27 32  1  0  0  0  0
 27 25  1  0  0  0  0
 28 27  1  0  0  0  0
 29 28  1  0  0  0  0
 30 27  1  0  0  0  0
 31 30  1  0  0  0  0
 33 36  1  0  0  0  0
 33 34  1  0  0  0  0
 33 32  1  0  0  0  0
 35 33  1  0  0  0  0
M  END
>  <minimizedAffinity>
-5.04353666

$$$$

 OpenBabel03252503033D

 36 37  0  0  0  0  0  0  0  0999 V2000
   38.6290   28.8840   37.9700 C   0  0  0  0  0  0  0  0  0  0  0  0
   37.6750   29.8750   38.0280 C   0  0  0  0  0  0  0  0  0  0  0  0
   36.4260   29.6340   38.5880 C   0  0  0  0  0  0  0  0  0  0  0  0
   36.2010   28.3820   39.0660 N   0  0  0  0  0  0  0  0  0  0  0  0
   37.1460   27.4350   38.9980 C   0  0  0  0  0  0  0  0  0  0  0  0
   38.3280   27.6580   38.4710 N   0  0  0  0  0  0  0  0  0  0  0  0
   39.6070   29.0490   37.5390 H   0  0  0  0  0  0  0  0  0  0  0  0
   35.6760   30.3930   38.6390 H   0  0  0  0  0  0  0  0  0  0  0  0
   37.0400   25.7610   40.8350 C   0  0  0  0  0  0  0  0  0  0  0  0
   36.7840   26.1240   39.5500 C   0  0  0  0  0  0  0  0  0  0  0  0
   36.1610   25.2070   38.7640 C   0  0  0  0  0  0  0  0  0  0  0  0
   35.9190   25.4220   37.7170 H   0  0  0  0  0  0  0  0  0  0  0  0
   35.7590   23.9300   39.1510 C   0  0  0  0  0  0  0  0  0  0  0  0
   35.2660   23.2420   38.4780 H   0  0  0  0  0  0  0  0  0  0  0  0
   36.0390   23.5920   40.4800 C   0  0  0  0  0  3  0  0  0  0  0  0
   36.6700   24.5120   41.2860 C   0  0  0  0  0  3  0  0  0  0  0  0
   38.5940   27.8010   41.3090 H   0  0  0  0  0  0  0  0  0  0  0  0
   37.8350   26.8710   41.9190 S   0  0  0  0  0  0  0  0  0  0  0  0
   38.6400   26.0750   42.9130 O   0  0  0  0  0  0  0  0  0  0  0  0
   36.8060   27.6230   42.7470 O   0  0  0  0  0  0  0  0  0  0  0  0
   38.0350   31.5190   37.3730 S   0  0  0  0  0  0  0  0  0  0  0  0
   39.4380   32.2230   38.2410 C   0  0  0  0  0  0  0  0  0  0  0  0
   40.2260   32.6150   37.5560 H   0  0  0  0  0  0  0  0  0  0  0  0
   39.9400   31.5140   38.9280 H   0  0  0  0  0  0  0  0  0  0  0  0
   38.9430   33.3970   38.9610 N   0  0  0  0  0  0  0  0  0  0  0  0
   38.2000   33.9000   38.4580 H   0  0  0  0  0  0  0  0  0  0  0  0
   38.4910   33.0260   40.5720 S   0  0  0  0  0  0  0  0  0  0  0  0
   38.7770   34.1540   41.5150 O   0  0  0  0  0  0  0  0  0  0  0  0
   38.1280   34.6730   42.0730 H   0  0  0  0  0  0  0  0  0  0  0  0
   37.0110   32.7520   40.5450 O   0  0  0  0  0  0  0  0  0  0  0  0
   36.2520   33.3550   40.6130 H   0  0  0  0  0  0  0  0  0  0  0  0
   39.2500   31.6260   41.0690 O   0  0  0  0  0  0  0  0  0  0  0  0
   38.3530   30.6770   41.5390 C   0  0  0  0  0  0  0  0  0  0  0  0
   38.8140   30.2360   42.4520 H   0  0  0  0  0  0  0  0  0  0  0  0
   37.3550   31.1000   41.7420 H   0  0  0  0  0  0  0  0  0  0  0  0
   38.3190   29.8650   40.7850 H   0  0  0  0  0  0  0  0  0  0  0  0
  1  2  2  0  0  0  0
  1  6  1  0  0  0  0
  2  3  1  0  0  0  0
  3  8  1  0  0  0  0
  3  4  2  0  0  0  0
  5  4  1  0  0  0  0
  5 10  1  0  0  0  0
  6  5  2  0  0  0  0
  7  1  1  0  0  0  0
  9 16  1  0  0  0  0
  9 18  1  0  0  0  0
 10  9  2  0  0  0  0
 11 13  2  0  0  0  0
 11 10  1  0  0  0  0
 12 11  1  0  0  0  0
 13 15  1  0  0  0  0
 14 13  1  0  0  0  0
 15 16  2  0  0  0  0
 17 18  1  0  0  0  0
 18 20  2  0  0  0  0
 18 19  2  0  0  0  0
 21  2  1  0  0  0  0
 21 22  1  0  0  0  0
 22 24  1  0  0  0  0
 22 25  1  0  0  0  0
 23 22  1  0  0  0  0
 25 27  1  0  0  0  0
 26 25  1  0  0  0  0
 27 32  1  0  0  0  0
 27 28  1  0  0  0  0
 28 29  1  0  0  0  0
 30 27  1  0  0  0  0
 30 31  1  0  0  0  0
 32 33  1  0  0  0  0
 33 35  1  0  0  0  0
 33 34  1  0  0  0  0
 36 33  1  0  0  0  0
M  END
>  <minimizedAffinity>
-5.04057837

$$$$

 OpenBabel03252503033D

 36 37  0  0  0  0  0  0  0  0999 V2000
   40.6830   29.7280   40.4180 C   0  0  0  0  0  0  0  0  0  0  0  0
   40.4460   30.6240   41.4360 C   0  0  0  0  0  0  0  0  0  0  0  0
   39.6360   30.2840   42.5130 C   0  0  0  0  0  0  0  0  0  0  0  0
   39.0990   29.0360   42.5060 N   0  0  0  0  0  0  0  0  0  0  0  0
   39.3460   28.1820   41.5030 C   0  0  0  0  0  0  0  0  0  0  0  0
   40.1110   28.4980   40.4840 N   0  0  0  0  0  0  0  0  0  0  0  0
   41.3090   29.9700   39.5710 H   0  0  0  0  0  0  0  0  0  0  0  0
   39.4420   30.9700   43.3100 H   0  0  0  0  0  0  0  0  0  0  0  0
   37.5220   26.5610   41.0230 C   0  0  0  0  0  0  0  0  0  0  0  0
   38.7100   26.8640   41.6110 C   0  0  0  0  0  0  0  0  0  0  0  0
   39.3130   25.8770   42.3260 C   0  0  0  0  0  0  0  0  0  0  0  0
   40.2720   26.0410   42.8300 H   0  0  0  0  0  0  0  0  0  0  0  0
   38.8280   24.5840   42.5120 C   0  0  0  0  0  0  0  0  0  0  0  0
   39.3540   23.8390   43.0940 H   0  0  0  0  0  0  0  0  0  0  0  0
   37.6040   24.3090   41.8930 C   0  0  0  0  0  3  0  0  0  0  0  0
   36.9830   25.2990   41.1660 C   0  0  0  0  0  3  0  0  0  0  0  0
   37.4730   28.6430   39.4540 H   0  0  0  0  0  0  0  0  0  0  0  0
   36.6750   27.7610   40.0860 S   0  0  0  0  0  0  0  0  0  0  0  0
   35.6900   28.4620   40.9850 O   0  0  0  0  0  0  0  0  0  0  0  0
   35.8320   27.0910   39.0130 O   0  0  0  0  0  0  0  0  0  0  0  0
   41.1880   32.2700   41.3870 S   0  0  0  0  0  0  0  0  0  0  0  0
   40.1360   33.3800   40.4500 C   0  0  0  0  0  0  0  0  0  0  0  0
   39.9270   33.0190   39.4160 H   0  0  0  0  0  0  0  0  0  0  0  0
   40.5460   34.4050   40.3510 H   0  0  0  0  0  0  0  0  0  0  0  0
   38.8350   33.3930   41.1180 N   0  0  0  0  0  0  0  0  0  0  0  0
   38.6120   34.2940   41.5600 H   0  0  0  0  0  0  0  0  0  0  0  0
   37.5730   32.8510   40.0920 S   0  0  0  0  0  0  0  0  0  0  0  0
   36.5980   31.9700   40.8080 O   0  0  0  0  0  0  0  0  0  0  0  0
   35.6190   32.1220   40.9560 H   0  0  0  0  0  0  0  0  0  0  0  0
   36.8700   34.0870   39.5960 O   0  0  0  0  0  0  0  0  0  0  0  0
   36.1480   34.6060   39.9870 H   0  0  0  0  0  0  0  0  0  0  0  0
   38.2150   32.0730   38.7620 O   0  0  0  0  0  0  0  0  0  0  0  0
   37.4130   31.0300   38.3230 C   0  0  0  0  0  0  0  0  0  0  0  0
   38.1010   30.1890   38.0780 H   0  0  0  0  0  0  0  0  0  0  0  0
   36.6500   30.7390   39.0640 H   0  0  0  0  0  0  0  0  0  0  0  0
   36.9630   31.3520   37.3620 H   0  0  0  0  0  0  0  0  0  0  0  0
  1  6  2  0  0  0  0
  1  2  1  0  0  0  0
  2  3  2  0  0  0  0
  3  8  1  0  0  0  0
  4  3  1  0  0  0  0
  5 10  1  0  0  0  0
  5  4  2  0  0  0  0
  6  5  1  0  0  0  0
  7  1  1  0  0  0  0
  9 16  2  0  0  0  0
  9 10  1  0  0  0  0
 10 11  2  0  0  0  0
 11 13  1  0  0  0  0
 11 12  1  0  0  0  0
 13 14  1  0  0  0  0
 15 13  2  0  0  0  0
 16 15  1  0  0  0  0
 17 18  1  0  0  0  0
 18 19  2  0  0  0  0
 18  9  1  0  0  0  0
 20 18  2  0  0  0  0
 21  2  1  0  0  0  0
 22 25  1  0  0  0  0
 22 21  1  0  0  0  0
 23 22  1  0  0  0  0
 24 22  1  0  0  0  0
 25 26  1  0  0  0  0
 27 28  1  0  0  0  0
 27 25  1  0  0  0  0
 28 29  1  0  0  0  0
 30 31  1  0  0  0  0
 30 27  1  0  0  0  0
 32 27  1  0  0  0  0
 33 32  1  0  0  0  0
 33 35  1  0  0  0  0
 34 33  1  0  0  0  0
 36 33  1  0  0  0  0
M  END
>  <minimizedAffinity>
-4.98628616

$$$$
