
 OpenBabel03252507223D

 50 53  0  0  1  0  0  0  0  0999 V2000
   47.1180   33.1520   43.1810 C   0  0  0  0  0  0  0  0  0  0  0  0
   48.3380   33.2060   43.5440 O   0  0  0  0  0  0  0  0  0  0  0  0
   46.6230   32.2130   42.2380 N   0  0  0  0  0  0  0  0  0  0  0  0
   45.4080   31.4030   42.2480 C   0  0  0  0  0  0  0  0  0  0  0  0
   44.6480   31.5840   40.9400 C   0  0  0  0  0  0  0  0  0  0  0  0
   45.4630   31.0990   39.7860 C   0  0  0  0  0  0  0  0  0  0  0  0
   46.8940   30.8410   40.2520 C   0  0  0  0  0  0  0  0  0  0  0  0
   47.4140   31.9680   41.0550 C   0  0  2  0  0  0  0  0  0  0  0  0
   44.7500   31.7440   43.0840 H   0  0  0  0  0  0  0  0  0  0  0  0
   45.6110   30.3230   42.3530 H   0  0  0  0  0  0  0  0  0  0  0  0
   44.4390   32.6870   40.8460 H   0  0  0  0  0  0  0  0  0  0  0  0
   43.6990   31.0020   41.0640 H   0  0  0  0  0  0  0  0  0  0  0  0
   45.1050   30.1460   39.3710 H   0  0  0  0  0  0  0  0  0  0  0  0
   45.4940   31.8210   38.9360 H   0  0  0  0  0  0  0  0  0  0  0  0
   46.8410   29.8900   40.8020 H   0  0  0  0  0  0  0  0  0  0  0  0
   47.4910   30.7390   39.3260 H   0  0  0  0  0  0  0  0  0  0  0  0
   47.3000   32.8950   40.4030 H   0  0  0  0  0  0  0  0  0  0  0  0
   45.8110   35.2020   42.9680 C   0  0  0  0  0  0  0  0  0  0  0  0
   46.2090   34.0970   43.7620 C   0  0  0  0  0  0  0  0  0  0  0  0
   45.7190   33.9680   45.0480 C   0  0  0  0  0  0  0  0  0  0  0  0
   44.8690   34.9170   45.4920 N   0  0  0  0  0  0  0  0  0  0  0  0
   44.4770   35.9760   44.7540 C   0  0  0  0  0  0  0  0  0  0  0  0
   44.9580   36.1020   43.4950 N   0  0  0  0  0  0  0  0  0  0  0  0
   46.2010   35.2920   41.9670 H   0  0  0  0  0  0  0  0  0  0  0  0
   43.7920   36.7070   45.1610 H   0  0  0  0  0  0  0  0  0  0  0  0
   46.1440   32.8370   45.8320 C   0  0  0  0  0  0  0  0  0  0  0  0
   45.6540   31.5990   45.5840 C   0  0  0  0  0  0  0  0  0  0  0  0
   46.0840   30.5380   46.3510 C   0  0  0  0  0  0  0  0  0  0  0  0
   47.0080   30.6800   47.3810 C   0  0  0  0  0  0  0  0  0  0  0  0
   47.4760   31.9660   47.5920 C   0  0  0  0  0  0  0  0  0  0  0  0
   47.0410   32.9830   46.8300 N   0  0  0  0  0  0  0  0  0  0  0  0
   44.9340   31.3330   44.8270 H   0  0  0  0  0  0  0  0  0  0  0  0
   45.7340   29.5220   46.2090 H   0  0  0  0  0  0  0  0  0  0  0  0
   47.3300   29.8190   47.9760 H   0  0  0  0  0  0  0  0  0  0  0  0
   48.2040   32.1050   48.3960 H   0  0  0  0  0  0  0  0  0  0  0  0
   48.8840   31.8240   41.3210 C   0  0  0  0  0  0  0  0  0  0  0  0
   49.2740   32.7440   41.8570 H   0  0  0  0  0  0  0  0  0  0  0  0
   49.1770   30.9200   41.8640 H   0  0  0  0  0  0  0  0  0  0  0  0
   50.9330   31.3320   39.8310 C   0  0  0  0  0  0  0  0  0  0  0  0
   49.6770   31.8370   40.0450 C   0  0  0  0  0  0  0  0  0  0  0  0
   49.0810   32.3540   38.8840 C   0  0  0  0  0  0  0  0  0  0  0  0
   48.0700   32.7830   38.9600 H   0  0  0  0  0  0  0  0  0  0  0  0
   49.6380   32.3840   37.6220 C   0  0  0  0  0  0  0  0  0  0  0  0
   49.0910   32.8060   36.7920 H   0  0  0  0  0  0  0  0  0  0  0  0
   50.9030   31.8530   37.4950 C   0  0  0  0  0  3  0  0  0  0  0  0
   51.5240   31.3400   38.5940 C   0  0  0  0  0  3  0  0  0  0  0  0
   51.8900   31.5510   42.2470 H   0  0  0  0  0  0  0  0  0  0  0  0
   51.8720   30.7240   41.1470 S   0  0  0  0  0  0  0  0  0  0  0  0
   53.3310   30.6330   40.7120 O   0  0  0  0  0  0  0  0  0  0  0  0
   51.5140   29.2980   41.5180 O   0  0  0  0  0  0  0  0  0  0  0  0
  1  2  2  0  0  0  0
  1 19  1  0  0  0  0
  3  4  1  0  0  0  0
  3  1  1  0  0  0  0
  4 10  1  0  0  0  0
  4  9  1  0  0  0  0
  5 12  1  0  0  0  0
  5  4  1  0  0  0  0
  6  7  1  0  0  0  0
  6  5  1  0  0  0  0
  7 15  1  0  0  0  0
  7  8  1  0  0  0  0
  8 17  1  6  0  0  0
  8 36  1  0  0  0  0
  8  3  1  0  0  0  0
 11  5  1  0  0  0  0
 13  6  1  0  0  0  0
 14  6  1  0  0  0  0
 16  7  1  0  0  0  0
 18 23  2  0  0  0  0
 18 19  1  0  0  0  0
 19 20  2  0  0  0  0
 20 21  1  0  0  0  0
 20 26  1  0  0  0  0
 22 25  1  0  0  0  0
 22 21  2  0  0  0  0
 23 22  1  0  0  0  0
 24 18  1  0  0  0  0
 26 31  1  0  0  0  0
 27 26  2  0  0  0  0
 27 28  1  0  0  0  0
 28 29  2  0  0  0  0
 29 30  1  0  0  0  0
 29 34  1  0  0  0  0
 30 35  1  0  0  0  0
 31 30  2  0  0  0  0
 32 27  1  0  0  0  0
 33 28  1  0  0  0  0
 36 37  1  0  0  0  0
 36 38  1  0  0  0  0
 39 40  1  0  0  0  0
 39 48  1  0  0  0  0
 40 36  1  0  0  0  0
 41 42  1  0  0  0  0
 41 40  2  0  0  0  0
 43 41  1  0  0  0  0
 44 43  1  0  0  0  0
 45 43  2  0  0  0  0
 45 46  1  0  0  0  0
 46 39  2  0  0  0  0
 48 50  2  0  0  0  0
 48 47  1  0  0  0  0
 49 48  2  0  0  0  0
M  END
>  <minimizedAffinity>
-5.19535875

>  <minimizedRMSD>
1.34817874

$$$$
