
 OpenBabel03242514293D

 41 44  0  0  0  0  0  0  0  0999 V2000
   48.5910   34.0320   37.2360 Cl  0  0  0  0  0  0  0  0  0  0  0  0
   48.0890   32.4530   37.7630 C   0  0  0  0  0  0  0  0  0  0  0  0
   47.9260   32.2240   39.0820 C   0  0  0  0  0  0  0  0  0  0  0  0
   47.7430   30.8910   39.4010 C   0  0  0  0  0  0  0  0  0  0  0  0
   47.7210   29.8590   38.4830 C   0  0  0  0  0  0  0  0  0  0  0  0
   47.8890   30.1790   37.1460 C   0  0  0  0  0  0  0  0  0  0  0  0
   48.0720   31.4870   36.8000 C   0  0  0  0  0  0  0  0  0  0  0  0
   47.6100   30.6960   40.4820 H   0  0  0  0  0  0  0  0  0  0  0  0
   47.5710   28.9090   38.9200 H   0  0  0  0  0  0  0  0  0  0  0  0
   47.8560   29.3140   36.4940 H   0  0  0  0  0  0  0  0  0  0  0  0
   48.5830   35.4970   40.7530 C   0  0  0  0  0  0  0  0  0  0  0  0
   48.5450   34.5070   39.7540 C   0  0  0  0  0  0  0  0  0  0  0  0
   47.9580   33.2860   40.0480 C   0  0  0  0  0  0  0  0  0  0  0  0
   47.4490   33.1280   41.2890 N   0  0  0  0  0  0  0  0  0  0  0  0
   47.4800   34.0670   42.2370 C   0  0  0  0  0  0  0  0  0  0  0  0
   48.0510   35.2600   41.9760 N   0  0  0  0  0  0  0  0  0  0  0  0
   49.0060   36.4900   40.6830 H   0  0  0  0  0  0  0  0  0  0  0  0
   48.9710   34.9340   38.9060 H   0  0  0  0  0  0  0  0  0  0  0  0
   45.0750   35.8300   42.8920 Cl  0  0  0  0  0  0  0  0  0  0  0  0
   45.7710   34.6160   43.9400 C   0  0  0  0  0  0  0  0  0  0  0  0
   46.8670   33.8590   43.5320 C   0  0  0  0  0  0  0  0  0  0  0  0
   47.3070   32.9350   44.4220 C   0  0  0  0  0  0  0  0  0  0  0  0
   46.7620   32.7000   45.6650 C   0  0  0  0  0  0  0  0  0  0  0  0
   45.6720   33.4690   46.0480 C   0  0  0  0  0  0  0  0  0  0  0  0
   45.0440   33.1230   47.6440 Cl  0  0  0  0  0  0  0  0  0  0  0  0
   45.1800   34.4230   45.1870 C   0  0  0  0  0  0  0  0  0  0  0  0
   48.1610   32.3370   44.1170 H   0  0  0  0  0  0  0  0  0  0  0  0
   47.2020   31.9310   46.2860 H   0  0  0  0  0  0  0  0  0  0  0  0
   44.3290   34.9970   45.5290 H   0  0  0  0  0  0  0  0  0  0  0  0
   47.1570   32.0840   34.5570 C   0  0  0  0  0  0  0  0  0  0  0  0
   48.2380   31.7580   35.3870 C   0  0  0  0  0  0  0  0  0  0  0  0
   49.4870   31.7080   34.7890 C   0  0  0  0  0  0  0  0  0  0  0  0
   50.3440   31.4520   35.4360 H   0  0  0  0  0  0  0  0  0  0  0  0
   49.7590   31.9470   33.4560 C   0  0  0  0  0  0  0  0  0  0  0  0
   50.7710   31.8840   33.0790 H   0  0  0  0  0  0  0  0  0  0  0  0
   48.6740   32.2710   32.6390 C   0  0  0  0  0  0  0  0  0  0  0  0
   47.4230   32.3250   33.2220 C   0  0  0  0  0  0  0  0  0  0  0  0
   44.7240   32.5640   34.1790 H   0  0  0  0  0  0  0  0  0  0  0  0
   45.5590   32.1690   35.2240 S   0  0  0  0  0  0  0  0  0  0  0  0
   45.0060   30.8220   35.5920 O   0  0  0  0  0  0  0  0  0  0  0  0
   45.3620   33.1990   36.2690 O   0  0  0  0  0  0  0  0  0  0  0  0
  1  2  1  0  0  0  0
  2  3  1  0  0  0  0
  3  4  2  0  0  0  0
  3 13  1  0  0  0  0
  4  8  1  0  0  0  0
  5  9  1  0  0  0  0
  5  4  1  0  0  0  0
  6  5  2  0  0  0  0
  7  6  1  0  0  0  0
  7  2  2  0  0  0  0
 10  6  1  0  0  0  0
 11 16  1  0  0  0  0
 12 13  1  0  0  0  0
 12 11  2  0  0  0  0
 13 14  2  0  0  0  0
 14 15  1  0  0  0  0
 15 21  1  0  0  0  0
 16 15  2  0  0  0  0
 17 11  1  0  0  0  0
 18 12  1  0  0  0  0
 19 20  1  0  0  0  0
 20 26  1  0  0  0  0
 21 20  2  0  0  0  0
 21 22  1  0  0  0  0
 22 23  2  0  0  0  0
 23 24  1  0  0  0  0
 23 28  1  0  0  0  0
 24 25  1  0  0  0  0
 26 29  1  0  0  0  0
 26 24  2  0  0  0  0
 27 22  1  0  0  0  0
 30 39  1  0  0  0  0
 30 31  1  0  0  0  0
 31  7  1  0  0  0  0
 32 31  2  0  0  0  0
 32 33  1  0  0  0  0
 34 32  1  0  0  0  0
 35 34  1  0  0  0  0
 36 37  1  0  0  0  0
 36 34  2  0  0  0  0
 37 30  2  0  0  0  0
 38 39  1  0  0  0  0
 39 40  2  0  0  0  0
 39 41  2  0  0  0  0
M  END
>  <minimizedAffinity>
-6.13694477

>  <minimizedRMSD>
1.45233941

$$$$
