
 OpenBabel03252501063D

 43 46  0  0  1  0  0  0  0  0999 V2000
   46.7180   34.0300   37.3120 O   0  0  0  0  0  0  0  0  0  0  0  0
   45.6920   33.0910   37.1970 C   0  0  0  0  0  0  0  0  0  0  0  0
   45.4680   32.2230   36.1450 C   0  0  0  0  0  0  0  0  0  0  0  0
   44.4040   31.3500   36.1800 C   0  0  0  0  0  0  0  0  0  0  0  0
   43.5610   31.3360   37.2580 C   0  0  0  0  0  0  0  0  0  0  0  0
   43.8180   32.2270   38.3010 C   0  0  0  0  0  0  0  0  0  0  0  0
   44.8720   33.0800   38.2480 N   0  0  0  0  0  0  0  0  0  0  0  0
   46.1930   32.3170   35.3480 H   0  0  0  0  0  0  0  0  0  0  0  0
   44.3360   30.7260   35.3070 H   0  0  0  0  0  0  0  0  0  0  0  0
   42.7730   30.6310   37.1310 H   0  0  0  0  0  0  0  0  0  0  0  0
   41.8610   33.1590   39.6460 C   0  0  0  0  0  0  0  0  0  0  0  0
   42.9070   32.3110   39.4220 C   0  0  0  0  0  0  0  0  0  0  0  0
   43.0750   31.3820   40.4290 C   0  0  0  0  0  0  0  0  0  0  0  0
   43.8720   30.6360   40.3850 H   0  0  0  0  0  0  0  0  0  0  0  0
   42.3000   31.2880   41.5510 C   0  0  0  0  0  0  0  0  0  0  0  0
   42.4330   30.5650   42.3470 H   0  0  0  0  0  0  0  0  0  0  0  0
   41.2640   32.1590   41.7380 C   0  0  0  0  0  3  0  0  0  0  0  0
   41.0520   33.1060   40.7590 C   0  0  0  0  0  3  0  0  0  0  0  0
   41.0830   33.8480   37.2540 H   0  0  0  0  0  0  0  0  0  0  0  0
   41.3990   34.3550   38.4660 S   0  0  0  0  0  0  0  0  0  0  0  0
   42.3610   35.4800   38.3350 O   0  0  0  0  0  0  0  0  0  0  0  0
   40.0900   35.0390   38.9390 O   0  0  0  0  0  0  0  0  0  0  0  0
   48.5440   32.3710   37.9110 O   0  0  0  0  0  0  0  0  0  0  0  0
   48.1090   33.8040   38.2230 P   0  0  1  0  0  0  0  0  0  0  0  0
   49.3090   34.7940   37.5700 O   0  0  0  0  0  0  0  0  0  0  0  0
   49.7620   34.3690   36.7940 H   0  0  0  0  0  0  0  0  0  0  0  0
   47.8120   34.0260   39.8180 O   0  0  0  0  0  0  0  0  0  0  0  0
   48.0000   35.4340   41.7750 C   0  0  1  0  0  0  0  0  0  0  0  0
   49.2670   34.6930   41.7430 C   0  0  0  0  0  0  0  0  0  0  0  0
   48.4730   35.0160   40.4610 C   0  0  1  0  0  0  0  0  0  0  0  0
   48.0290   36.4980   42.0960 H   0  0  0  0  0  0  0  0  0  0  0  0
   50.2380   35.2030   41.8940 H   0  0  0  0  0  0  0  0  0  0  0  0
   49.3110   33.5930   41.9220 H   0  0  0  0  0  0  0  0  0  0  0  0
   49.0180   35.7330   39.8190 H   0  0  0  0  0  0  0  0  0  0  0  0
   45.9600   32.9680   43.8010 C   0  0  0  0  0  0  0  0  0  0  0  0
   47.0590   33.6640   43.3050 C   0  0  0  0  0  0  0  0  0  0  0  0
   46.8380   34.6700   42.3430 C   0  0  0  0  0  0  0  0  0  0  0  0
   45.5630   34.9300   41.9280 N   0  0  0  0  0  0  0  0  0  0  0  0
   44.5200   34.2230   42.4430 C   0  0  0  0  0  0  0  0  0  0  0  0
   44.7140   33.2540   43.3670 N   0  0  0  0  0  0  0  0  0  0  0  0
   46.0700   32.1950   44.5330 H   0  0  0  0  0  0  0  0  0  0  0  0
   48.0520   33.4360   43.6510 H   0  0  0  0  0  0  0  0  0  0  0  0
   43.6250   34.5970   41.9820 H   0  0  0  0  0  0  0  0  0  0  0  0
  1 24  1  0  0  0  0
  2  1  1  0  0  0  0
  2  7  1  0  0  0  0
  3  4  1  0  0  0  0
  3  2  2  0  0  0  0
  4  5  2  0  0  0  0
  5  6  1  0  0  0  0
  6 12  1  0  0  0  0
  7  6  2  0  0  0  0
  8  3  1  0  0  0  0
  9  4  1  0  0  0  0
 10  5  1  0  0  0  0
 11 18  1  0  0  0  0
 12 11  2  0  0  0  0
 12 13  1  0  0  0  0
 13 15  2  0  0  0  0
 14 13  1  0  0  0  0
 15 17  1  0  0  0  0
 15 16  1  0  0  0  0
 18 17  2  0  0  0  0
 19 20  1  0  0  0  0
 20 22  2  0  0  0  0
 20 11  1  0  0  0  0
 21 20  2  0  0  0  0
 24 23  2  6  0  0  0
 24 27  1  0  0  0  0
 25 24  1  0  0  0  0
 26 25  1  0  0  0  0
 27 30  1  0  0  0  0
 28 31  1  1  0  0  0
 28 37  1  0  0  0  0
 29 28  1  0  0  0  0
 29 32  1  0  0  0  0
 29 33  1  0  0  0  0
 30 34  1  6  0  0  0
 30 29  1  0  0  0  0
 30 28  1  0  0  0  0
 35 41  1  0  0  0  0
 36 42  1  0  0  0  0
 36 35  2  0  0  0  0
 37 36  1  0  0  0  0
 38 37  2  0  0  0  0
 38 39  1  0  0  0  0
 39 40  2  0  0  0  0
 40 35  1  0  0  0  0
 43 39  1  0  0  0  0
M  END
>  <minimizedAffinity>
-5.2964654

>  <minimizedRMSD>
0.706480384

$$$$
