
     RDKit          3D

 52 55  0  0  0  0  0  0  0  0999 V2000
   47.2005   34.1160   42.4368 C   0  0  2  0  0  0  0  0  0  0  0  0
   48.5721   34.7026   42.5863 C   0  0  0  0  0  0  0  0  0  0  0  0
   48.8847   35.6904   41.5318 C   0  0  0  0  0  0  0  0  0  0  0  0
   48.7143   35.1315   40.1305 C   0  0  0  0  0  0  0  0  0  0  0  0
   47.5179   34.2408   39.9820 C   0  0  0  0  0  0  0  0  0  0  0  0
   46.5433   34.3623   41.1305 C   0  0  1  0  0  0  0  0  0  0  0  0
   46.2959   34.4819   43.5454 C   0  0  0  0  0  0  0  0  0  0  0  0
   45.6064   35.6603   43.3200 C   0  0  0  0  0  0  0  0  0  0  0  0
   44.7037   36.1318   44.2890 C   0  0  0  0  0  0  0  0  0  0  0  0
   44.5795   35.3388   45.4364 N   0  0  0  0  0  0  0  0  0  0  0  0
   45.2776   34.1968   45.6061 C   0  0  0  0  0  0  0  0  0  0  0  0
   46.1306   33.7828   44.6525 N   0  0  0  0  0  0  0  0  0  0  0  0
   45.4787   33.3159   40.9373 C   0  0  2  0  0  0  0  0  0  0  0  0
   44.8197   33.2269   39.5751 C   0  0  0  0  0  0  0  0  0  0  0  0
   44.0572   33.7189   40.7413 C   0  0  1  0  0  0  0  0  0  0  0  0
   43.1039   32.8668   41.5136 C   0  0  0  0  0  0  0  0  0  0  0  0
   41.6601   33.1076   41.2056 C   0  0  0  0  0  0  0  0  0  0  0  0
   47.3494   32.9987   42.5465 H   0  0  0  0  0  0  0  0  0  0  0  0
   48.6004   35.2179   43.5663 H   0  0  0  0  0  0  0  0  0  0  0  0
   49.3731   33.9381   42.6231 H   0  0  0  0  0  0  0  0  0  0  0  0
   48.3127   36.6188   41.6858 H   0  0  0  0  0  0  0  0  0  0  0  0
   49.9664   35.9620   41.6073 H   0  0  0  0  0  0  0  0  0  0  0  0
   49.6481   34.5883   39.8456 H   0  0  0  0  0  0  0  0  0  0  0  0
   48.6494   36.0115   39.4550 H   0  0  0  0  0  0  0  0  0  0  0  0
   46.9859   34.5388   39.0681 H   0  0  0  0  0  0  0  0  0  0  0  0
   47.8402   33.1892   39.8726 H   0  0  0  0  0  0  0  0  0  0  0  0
   46.0497   35.3338   40.9909 H   0  0  0  0  0  0  0  0  0  0  0  0
   45.5695   36.3969   42.5320 H   0  0  0  0  0  0  0  0  0  0  0  0
   44.0888   37.0172   44.2814 H   0  0  0  0  0  0  0  0  0  0  0  0
   45.1339   33.6400   46.5086 H   0  0  0  0  0  0  0  0  0  0  0  0
   45.7356   32.3215   41.3579 H   0  0  0  0  0  0  0  0  0  0  0  0
   45.0505   33.9580   38.7881 H   0  0  0  0  0  0  0  0  0  0  0  0
   44.5371   32.2265   39.1816 H   0  0  0  0  0  0  0  0  0  0  0  0
   43.8968   34.8118   40.8650 H   0  0  0  0  0  0  0  0  0  0  0  0
   43.2494   33.1216   42.5998 H   0  0  0  0  0  0  0  0  0  0  0  0
   43.4104   31.8092   41.4102 H   0  0  0  0  0  0  0  0  0  0  0  0
   41.4436   34.2022   41.4057 H   0  0  0  0  0  0  0  0  0  0  0  0
   41.0515   32.5843   41.9690 H   0  0  0  0  0  0  0  0  0  0  0  0
   38.2760   35.1888   39.4434 H   0  0  0  0  0  0  0  0  0  0  0  0
   38.9302   34.2704   40.2429 S   0  0  0  0  0  0  0  0  0  0  0  0
   37.8351   33.2971   40.6602 O   0  0  0  0  0  0  0  0  0  0  0  0
   39.4947   35.0305   41.3773 O   0  0  0  0  0  0  0  0  0  0  0  0
   40.0804   33.3607   39.3168 C   0  0  0  0  0  0  0  0  0  0  0  0
   41.2700   32.8788   39.8166 C   0  0  0  0  0  0  0  0  0  0  0  0
   42.0632   32.1661   38.9098 C   0  0  0  0  0  0  0  0  0  0  0  0
   42.9951   31.7955   39.3235 H   0  0  0  0  0  0  0  0  0  0  0  0
   41.7203   31.9295   37.5763 C   0  0  0  0  0  0  0  0  0  0  0  0
   42.4352   31.3648   37.0062 H   0  0  0  0  0  0  0  0  0  0  0  0
   40.5245   32.4306   37.1270 C   0  0  0  0  0  0  0  0  0  0  0  0
   39.7184   33.1381   37.9949 C   0  0  0  0  0  0  0  0  0  0  0  0
   40.3033   32.2233   36.0935 H   0  0  0  0  0  0  0  0  0  0  0  0
   38.7911   33.4963   37.5497 H   0  0  0  0  0  0  0  0  0  0  0  0
  1  2  1  0
  1  7  1  0
  3  2  1  0
  4  3  1  0
  5  4  1  0
  5  6  1  0
  6  1  1  0
  7 12  1  0
  8  7  2  0
  8  9  1  0
  9 10  2  0
 10 11  1  0
 12 11  2  0
 13  6  1  0
 14 15  1  0
 14 13  1  0
 15 13  1  0
 15 16  1  0
 17 16  1  0
  1 18  1  1
  2 19  1  0
  2 20  1  0
  3 21  1  0
  3 22  1  0
  4 23  1  0
  4 24  1  0
  5 25  1  0
  5 26  1  0
  6 27  1  1
  8 28  1  0
  9 29  1  0
 11 30  1  0
 13 31  1  1
 14 32  1  0
 14 33  1  0
 15 34  1  6
 16 35  1  0
 16 36  1  0
 17 37  1  0
 17 38  1  0
 39 40  1  0
 40 41  2  0
 40 42  2  0
 40 43  1  0
 43 44  2  0
 44 45  1  0
 45 46  1  0
 45 47  2  0
 47 48  1  0
 47 49  1  0
 49 50  2  0
 50 43  1  0
 49 51  1  0
 50 52  1  0
 17 44  1  0
M  ISO  8  18  13  19  13  20  13  21  13  22  13  23  13  24  13  25  13
M  ISO  8  26  13  27  13  28  14  29  14  30  14  31  13  32  13  33  13
M  ISO  8  34  13  35   8  36   8  37   8  38   8  39  12  46  15  48  16
M  END
>  <DihAtoms>  (1) 
15,16,43,42

>  <DihDeg>  (1) 
75.97454787940065

$$$$
