
 OpenBabel03242516153D

 44 47  0  0  0  0  0  0  0  0999 V2000
   37.9740   27.8360   42.5200 C   0  0  0  0  0  0  0  0  0  0  0  0
   36.7280   27.4030   43.2890 C   0  0  0  0  0  0  0  0  0  0  0  0
   37.4670   28.5980   43.6800 C   0  0  0  0  0  0  0  0  0  0  0  0
   35.7440   27.4140   42.7770 H   0  0  0  0  0  0  0  0  0  0  0  0
   36.8570   26.4660   43.8970 H   0  0  0  0  0  0  0  0  0  0  0  0
   36.9590   29.5670   43.4840 H   0  0  0  0  0  0  0  0  0  0  0  0
   37.9770   28.5770   44.6620 H   0  0  0  0  0  0  0  0  0  0  0  0
   37.6840   28.3510   41.1600 C   0  0  0  0  0  0  0  0  0  0  0  0
   38.8330   29.1040   40.4920 C   0  0  0  0  0  0  0  0  0  0  0  0
   38.3400   29.4110   39.0820 C   0  0  0  0  0  0  0  0  0  0  0  0
   37.3620   30.3800   39.1590 O   0  0  0  0  0  0  0  0  0  0  0  0
   36.2450   29.7180   39.7310 C   0  0  0  0  0  0  0  0  0  0  0  0
   36.5650   29.3860   41.1850 C   0  0  0  0  0  0  0  0  0  0  0  0
   37.3850   27.5490   40.4330 H   0  0  0  0  0  0  0  0  0  0  0  0
   39.0690   30.0200   41.0210 H   0  0  0  0  0  0  0  0  0  0  0  0
   39.7180   28.4190   40.3490 H   0  0  0  0  0  0  0  0  0  0  0  0
   38.0560   28.5190   38.5270 H   0  0  0  0  0  0  0  0  0  0  0  0
   39.2190   29.9160   38.5920 H   0  0  0  0  0  0  0  0  0  0  0  0
   35.3260   30.3140   39.6500 H   0  0  0  0  0  0  0  0  0  0  0  0
   36.1470   28.7180   39.2130 H   0  0  0  0  0  0  0  0  0  0  0  0
   35.6440   28.9630   41.6290 H   0  0  0  0  0  0  0  0  0  0  0  0
   36.9070   30.3250   41.6830 H   0  0  0  0  0  0  0  0  0  0  0  0
   40.2310   27.4250   43.5140 C   0  0  0  0  0  0  0  0  0  0  0  0
   39.1850   26.9860   42.6970 C   0  0  0  0  0  0  0  0  0  0  0  0
   39.3510   25.7410   42.0710 C   0  0  0  0  0  0  0  0  0  0  0  0
   40.4800   25.0320   42.2710 N   0  0  0  0  0  0  0  0  0  0  0  0
   41.4450   25.5040   43.0640 C   0  0  0  0  0  0  0  0  0  0  0  0
   41.3460   26.6670   43.6800 N   0  0  0  0  0  0  0  0  0  0  0  0
   42.6410   24.7860   43.3110 N   0  0  0  0  0  0  0  0  0  0  0  0
   40.1150   28.3670   43.9950 H   0  0  0  0  0  0  0  0  0  0  0  0
   43.5710   24.9200   42.8610 H   0  0  0  0  0  0  0  0  0  0  0  0
   42.4470   24.0660   44.0460 H   0  0  0  0  0  0  0  0  0  0  0  0
   38.4460   25.1370   39.8070 C   0  0  0  0  0  0  0  0  0  0  0  0
   38.3470   25.1840   41.1820 C   0  0  0  0  0  0  0  0  0  0  0  0
   37.2290   24.6220   41.7560 C   0  0  0  0  0  0  0  0  0  0  0  0
   37.0250   24.5690   42.8110 H   0  0  0  0  0  0  0  0  0  0  0  0
   36.2120   24.0200   41.0200 C   0  0  0  0  0  0  0  0  0  0  0  0
   35.3230   23.5740   41.4730 H   0  0  0  0  0  0  0  0  0  0  0  0
   36.3320   23.9840   39.6370 C   0  0  0  0  0  3  0  0  0  0  0  0
   37.4650   24.5510   39.0370 C   0  0  0  0  0  3  0  0  0  0  0  0
   40.3830   26.8690   39.8160 H   0  0  0  0  0  0  0  0  0  0  0  0
   39.8610   25.8700   39.0590 S   0  0  0  0  0  0  0  0  0  0  0  0
   40.9490   24.8550   38.8500 O   0  0  0  0  0  0  0  0  0  0  0  0
   39.4570   26.3710   37.6850 O   0  0  0  0  0  0  0  0  0  0  0  0
  1 24  1  0  0  0  0
  1  2  1  0  0  0  0
  1  3  1  0  0  0  0
  2  3  1  0  0  0  0
  2  5  1  0  0  0  0
  3  7  1  0  0  0  0
  4  2  1  0  0  0  0
  6  3  1  0  0  0  0
  8 13  1  0  0  0  0
  8  1  1  0  0  0  0
  9 15  1  0  0  0  0
  9  8  1  0  0  0  0
 10 11  1  0  0  0  0
 10  9  1  0  0  0  0
 11 12  1  0  0  0  0
 12 13  1  0  0  0  0
 13 21  1  0  0  0  0
 13 22  1  0  0  0  0
 14  8  1  0  0  0  0
 16  9  1  0  0  0  0
 17 10  1  0  0  0  0
 18 10  1  0  0  0  0
 19 12  1  0  0  0  0
 20 12  1  0  0  0  0
 23 28  1  0  0  0  0
 23 30  1  0  0  0  0
 24 23  2  0  0  0  0
 25 26  2  0  0  0  0
 25 24  1  0  0  0  0
 26 27  1  0  0  0  0
 27 29  1  0  0  0  0
 27 28  2  0  0  0  0
 29 32  1  0  0  0  0
 31 29  1  0  0  0  0
 33 34  1  0  0  0  0
 34 35  2  0  0  0  0
 34 25  1  0  0  0  0
 35 36  1  0  0  0  0
 37 38  1  0  0  0  0
 37 35  1  0  0  0  0
 39 37  2  0  0  0  0
 40 39  1  0  0  0  0
 40 33  2  0  0  0  0
 42 33  1  0  0  0  0
 42 41  1  0  0  0  0
 43 42  2  0  0  0  0
 44 42  2  0  0  0  0
M  END
>  <minimizedAffinity>
-5.75266504

$$$$

 OpenBabel03242516153D

 44 47  0  0  0  0  0  0  0  0999 V2000
   37.3120   27.7000   42.2740 C   0  0  0  0  0  0  0  0  0  0  0  0
   37.9470   27.5420   43.6530 C   0  0  0  0  0  0  0  0  0  0  0  0
   36.5030   27.4340   43.4810 C   0  0  0  0  0  0  0  0  0  0  0  0
   38.6210   26.6810   43.8450 H   0  0  0  0  0  0  0  0  0  0  0  0
   38.3710   28.4910   44.0840 H   0  0  0  0  0  0  0  0  0  0  0  0
   36.0750   26.4180   43.6080 H   0  0  0  0  0  0  0  0  0  0  0  0
   35.8790   28.2190   43.9520 H   0  0  0  0  0  0  0  0  0  0  0  0
   37.5960   26.5700   41.3570 C   0  0  0  0  0  0  0  0  0  0  0  0
   36.8510   26.6130   40.0230 C   0  0  0  0  0  0  0  0  0  0  0  0
   37.4020   25.4360   39.2230 C   0  0  0  0  0  0  0  0  0  0  0  0
   36.9330   24.2670   39.7810 O   0  0  0  0  0  0  0  0  0  0  0  0
   37.6330   24.1480   41.0100 C   0  0  0  0  0  0  0  0  0  0  0  0
   37.1470   25.2410   41.9560 C   0  0  0  0  0  0  0  0  0  0  0  0
   38.6820   26.4700   41.0930 H   0  0  0  0  0  0  0  0  0  0  0  0
   35.7810   26.5110   40.1610 H   0  0  0  0  0  0  0  0  0  0  0  0
   37.1510   27.5300   39.4380 H   0  0  0  0  0  0  0  0  0  0  0  0
   38.4810   25.4800   39.0920 H   0  0  0  0  0  0  0  0  0  0  0  0
   36.8810   25.5200   38.2280 H   0  0  0  0  0  0  0  0  0  0  0  0
   37.5180   23.1520   41.4570 H   0  0  0  0  0  0  0  0  0  0  0  0
   38.7160   24.3960   40.8020 H   0  0  0  0  0  0  0  0  0  0  0  0
   37.6360   25.0620   42.9330 H   0  0  0  0  0  0  0  0  0  0  0  0
   36.0330   25.1850   42.0010 H   0  0  0  0  0  0  0  0  0  0  0  0
   36.1060   29.7530   41.5120 C   0  0  0  0  0  0  0  0  0  0  0  0
   37.3140   29.0760   41.7020 C   0  0  0  0  0  0  0  0  0  0  0  0
   38.4850   29.7510   41.3220 C   0  0  0  0  0  0  0  0  0  0  0  0
   38.4070   30.9920   40.8020 N   0  0  0  0  0  0  0  0  0  0  0  0
   37.2230   31.5880   40.6450 C   0  0  0  0  0  0  0  0  0  0  0  0
   36.0890   31.0040   40.9840 N   0  0  0  0  0  0  0  0  0  0  0  0
   37.0980   32.8960   40.1140 N   0  0  0  0  0  0  0  0  0  0  0  0
   35.2130   29.2510   41.7980 H   0  0  0  0  0  0  0  0  0  0  0  0
   36.8540   33.1680   39.1390 H   0  0  0  0  0  0  0  0  0  0  0  0
   37.2950   33.5820   40.8810 H   0  0  0  0  0  0  0  0  0  0  0  0
   40.5060   28.5650   40.4180 C   0  0  0  0  0  0  0  0  0  0  0  0
   39.8000   29.1480   41.4490 C   0  0  0  0  0  0  0  0  0  0  0  0
   40.4070   29.1970   42.6840 C   0  0  0  0  0  0  0  0  0  0  0  0
   39.9860   29.6340   43.5720 H   0  0  0  0  0  0  0  0  0  0  0  0
   41.6810   28.6920   42.9300 C   0  0  0  0  0  0  0  0  0  0  0  0
   42.1640   28.7290   43.9090 H   0  0  0  0  0  0  0  0  0  0  0  0
   42.3730   28.1090   41.8770 C   0  0  0  0  0  3  0  0  0  0  0  0
   41.7690   28.0520   40.6140 C   0  0  0  0  0  3  0  0  0  0  0  0
   38.3790   28.4230   38.9320 H   0  0  0  0  0  0  0  0  0  0  0  0
   39.7320   28.4770   38.8380 S   0  0  0  0  0  0  0  0  0  0  0  0
   40.0730   29.6780   38.0020 O   0  0  0  0  0  0  0  0  0  0  0  0
   40.2850   27.2640   38.1140 O   0  0  0  0  0  0  0  0  0  0  0  0
  1  3  1  0  0  0  0
  1  2  1  0  0  0  0
  2  4  1  0  0  0  0
  2  5  1  0  0  0  0
  3  6  1  0  0  0  0
  3  2  1  0  0  0  0
  3  7  1  0  0  0  0
  8 13  1  0  0  0  0
  8  1  1  0  0  0  0
  9 15  1  0  0  0  0
  9  8  1  0  0  0  0
 10 11  1  0  0  0  0
 10  9  1  0  0  0  0
 11 12  1  0  0  0  0
 12 19  1  0  0  0  0
 12 13  1  0  0  0  0
 13 22  1  0  0  0  0
 13 21  1  0  0  0  0
 14  8  1  0  0  0  0
 16  9  1  0  0  0  0
 17 10  1  0  0  0  0
 18 10  1  0  0  0  0
 20 12  1  0  0  0  0
 23 24  1  0  0  0  0
 23 30  1  0  0  0  0
 24  1  1  0  0  0  0
 25 34  1  0  0  0  0
 25 24  2  0  0  0  0
 26 25  1  0  0  0  0
 27 26  2  0  0  0  0
 27 28  1  0  0  0  0
 28 23  2  0  0  0  0
 29 27  1  0  0  0  0
 29 32  1  0  0  0  0
 31 29  1  0  0  0  0
 33 40  2  0  0  0  0
 33 34  1  0  0  0  0
 34 35  2  0  0  0  0
 35 37  1  0  0  0  0
 35 36  1  0  0  0  0
 37 38  1  0  0  0  0
 39 37  2  0  0  0  0
 40 39  1  0  0  0  0
 42 41  1  0  0  0  0
 42 33  1  0  0  0  0
 43 42  2  0  0  0  0
 44 42  2  0  0  0  0
M  END
>  <minimizedAffinity>
-5.70092678

$$$$

 OpenBabel03242516153D

 44 47  0  0  0  0  0  0  0  0999 V2000
   35.8080   29.0340   39.0710 C   0  0  0  0  0  0  0  0  0  0  0  0
   34.2950   28.9490   38.8800 C   0  0  0  0  0  0  0  0  0  0  0  0
   34.8740   29.0230   40.2170 C   0  0  0  0  0  0  0  0  0  0  0  0
   33.7640   29.7860   38.3800 H   0  0  0  0  0  0  0  0  0  0  0  0
   33.9260   27.9550   38.5050 H   0  0  0  0  0  0  0  0  0  0  0  0
   34.7110   29.9760   40.7630 H   0  0  0  0  0  0  0  0  0  0  0  0
   34.7560   28.1340   40.8670 H   0  0  0  0  0  0  0  0  0  0  0  0
   36.3880   30.3320   38.6510 C   0  0  0  0  0  0  0  0  0  0  0  0
   37.6860   30.2340   37.8510 C   0  0  0  0  0  0  0  0  0  0  0  0
   38.0040   31.6670   37.4330 C   0  0  0  0  0  0  0  0  0  0  0  0
   38.4010   32.3730   38.5490 O   0  0  0  0  0  0  0  0  0  0  0  0
   37.2150   32.5380   39.3110 C   0  0  0  0  0  0  0  0  0  0  0  0
   36.7900   31.1770   39.8540 C   0  0  0  0  0  0  0  0  0  0  0  0
   35.6920   30.9500   38.0220 H   0  0  0  0  0  0  0  0  0  0  0  0
   38.4920   29.8250   38.4490 H   0  0  0  0  0  0  0  0  0  0  0  0
   37.5090   29.6810   36.8840 H   0  0  0  0  0  0  0  0  0  0  0  0
   37.2030   32.1300   36.8610 H   0  0  0  0  0  0  0  0  0  0  0  0
   38.9300   31.5640   36.8020 H   0  0  0  0  0  0  0  0  0  0  0  0
   37.3410   33.2690   40.1190 H   0  0  0  0  0  0  0  0  0  0  0  0
   36.3950   32.8380   38.5930 H   0  0  0  0  0  0  0  0  0  0  0  0
   35.9250   31.3520   40.5220 H   0  0  0  0  0  0  0  0  0  0  0  0
   37.6690   30.7280   40.3760 H   0  0  0  0  0  0  0  0  0  0  0  0
   36.4690   27.1980   37.5070 C   0  0  0  0  0  0  0  0  0  0  0  0
   36.5800   27.7960   38.7660 C   0  0  0  0  0  0  0  0  0  0  0  0
   37.4280   27.1690   39.6920 C   0  0  0  0  0  0  0  0  0  0  0  0
   38.0870   26.0450   39.3470 N   0  0  0  0  0  0  0  0  0  0  0  0
   37.9410   25.5210   38.1280 C   0  0  0  0  0  0  0  0  0  0  0  0
   37.1590   26.0660   37.2150 N   0  0  0  0  0  0  0  0  0  0  0  0
   38.6240   24.3480   37.7210 N   0  0  0  0  0  0  0  0  0  0  0  0
   35.8300   27.6670   36.7970 H   0  0  0  0  0  0  0  0  0  0  0  0
   38.2570   23.3740   37.6880 H   0  0  0  0  0  0  0  0  0  0  0  0
   39.5990   24.6150   37.4440 H   0  0  0  0  0  0  0  0  0  0  0  0
   38.6180   28.5370   41.4290 C   0  0  0  0  0  0  0  0  0  0  0  0
   37.6120   27.6790   41.0390 C   0  0  0  0  0  0  0  0  0  0  0  0
   36.6880   27.3110   41.9920 C   0  0  0  0  0  0  0  0  0  0  0  0
   35.8440   26.6660   41.8290 H   0  0  0  0  0  0  0  0  0  0  0  0
   36.7280   27.7610   43.3090 C   0  0  0  0  0  0  0  0  0  0  0  0
   35.9970   27.4700   44.0670 H   0  0  0  0  0  0  0  0  0  0  0  0
   37.7510   28.6250   43.6800 C   0  0  0  0  0  3  0  0  0  0  0  0
   38.6980   29.0090   42.7220 C   0  0  0  0  0  3  0  0  0  0  0  0
   39.3280   28.9370   38.9620 H   0  0  0  0  0  0  0  0  0  0  0  0
   39.8180   28.9990   40.2260 S   0  0  0  0  0  0  0  0  0  0  0  0
   40.2940   30.4070   40.4500 O   0  0  0  0  0  0  0  0  0  0  0  0
   41.0240   28.0940   40.3960 O   0  0  0  0  0  0  0  0  0  0  0  0
  1  3  1  0  0  0  0
  2  1  1  0  0  0  0
  2  3  1  0  0  0  0
  3  6  1  0  0  0  0
  3  7  1  0  0  0  0
  4  2  1  0  0  0  0
  5  2  1  0  0  0  0
  8  1  1  0  0  0  0
  8 13  1  0  0  0  0
  9 15  1  0  0  0  0
  9  8  1  0  0  0  0
 10  9  1  0  0  0  0
 10 11  1  0  0  0  0
 11 12  1  0  0  0  0
 12 13  1  0  0  0  0
 12 19  1  0  0  0  0
 13 22  1  0  0  0  0
 13 21  1  0  0  0  0
 14  8  1  0  0  0  0
 16  9  1  0  0  0  0
 17 10  1  0  0  0  0
 18 10  1  0  0  0  0
 20 12  1  0  0  0  0
 23 24  1  0  0  0  0
 24  1  1  0  0  0  0
 24 25  2  0  0  0  0
 25 34  1  0  0  0  0
 26 25  1  0  0  0  0
 27 26  2  0  0  0  0
 28 23  2  0  0  0  0
 28 27  1  0  0  0  0
 29 27  1  0  0  0  0
 30 23  1  0  0  0  0
 31 29  1  0  0  0  0
 32 29  1  0  0  0  0
 33 40  1  0  0  0  0
 34 33  2  0  0  0  0
 34 35  1  0  0  0  0
 35 37  2  0  0  0  0
 36 35  1  0  0  0  0
 37 39  1  0  0  0  0
 37 38  1  0  0  0  0
 40 39  2  0  0  0  0
 41 42  1  0  0  0  0
 42 44  2  0  0  0  0
 42 43  2  0  0  0  0
 42 33  1  0  0  0  0
M  END
>  <minimizedAffinity>
-5.52362108

$$$$

 OpenBabel03242516153D

 44 47  0  0  0  0  0  0  0  0999 V2000
   38.0870   28.2910   42.4650 C   0  0  0  0  0  0  0  0  0  0  0  0
   36.7080   27.6450   42.5750 C   0  0  0  0  0  0  0  0  0  0  0  0
   37.2540   28.4260   43.6790 C   0  0  0  0  0  0  0  0  0  0  0  0
   35.8920   27.9900   41.9060 H   0  0  0  0  0  0  0  0  0  0  0  0
   36.7220   26.5220   42.6480 H   0  0  0  0  0  0  0  0  0  0  0  0
   36.7650   29.4040   43.8680 H   0  0  0  0  0  0  0  0  0  0  0  0
   37.4900   27.8810   44.6130 H   0  0  0  0  0  0  0  0  0  0  0  0
   38.1350   29.4300   41.5170 C   0  0  0  0  0  0  0  0  0  0  0  0
   39.1450   30.5220   41.8660 C   0  0  0  0  0  0  0  0  0  0  0  0
   39.0960   31.4970   40.6930 C   0  0  0  0  0  0  0  0  0  0  0  0
   37.9000   32.1800   40.7390 O   0  0  0  0  0  0  0  0  0  0  0  0
   36.9220   31.2200   40.3720 C   0  0  0  0  0  0  0  0  0  0  0  0
   36.8110   30.1850   41.4880 C   0  0  0  0  0  0  0  0  0  0  0  0
   38.3720   29.1250   40.4630 H   0  0  0  0  0  0  0  0  0  0  0  0
   38.8840   31.0250   42.7900 H   0  0  0  0  0  0  0  0  0  0  0  0
   40.1920   30.1040   41.8540 H   0  0  0  0  0  0  0  0  0  0  0  0
   39.3160   31.0250   39.7380 H   0  0  0  0  0  0  0  0  0  0  0  0
   39.8840   32.2610   40.9450 H   0  0  0  0  0  0  0  0  0  0  0  0
   35.9500   31.6810   40.1560 H   0  0  0  0  0  0  0  0  0  0  0  0
   37.3280   30.6530   39.4820 H   0  0  0  0  0  0  0  0  0  0  0  0
   35.9760   29.5100   41.2190 H   0  0  0  0  0  0  0  0  0  0  0  0
   36.6480   30.7330   42.4470 H   0  0  0  0  0  0  0  0  0  0  0  0
   40.0650   27.3030   43.6320 C   0  0  0  0  0  0  0  0  0  0  0  0
   39.2530   27.3630   42.4960 C   0  0  0  0  0  0  0  0  0  0  0  0
   39.6020   26.5290   41.4230 C   0  0  0  0  0  0  0  0  0  0  0  0
   40.6780   25.7220   41.5210 N   0  0  0  0  0  0  0  0  0  0  0  0
   41.4160   25.7090   42.6330 C   0  0  0  0  0  0  0  0  0  0  0  0
   41.1360   26.4700   43.6750 N   0  0  0  0  0  0  0  0  0  0  0  0
   42.5460   24.8670   42.7820 N   0  0  0  0  0  0  0  0  0  0  0  0
   39.8070   27.9310   44.4520 H   0  0  0  0  0  0  0  0  0  0  0  0
   43.5500   25.1190   42.6630 H   0  0  0  0  0  0  0  0  0  0  0  0
   42.2110   23.9090   43.0420 H   0  0  0  0  0  0  0  0  0  0  0  0
   37.8480   25.6190   39.8730 C   0  0  0  0  0  0  0  0  0  0  0  0
   38.8520   26.5140   40.1800 C   0  0  0  0  0  0  0  0  0  0  0  0
   39.1340   27.4910   39.2530 C   0  0  0  0  0  0  0  0  0  0  0  0
   39.8750   28.2630   39.3620 H   0  0  0  0  0  0  0  0  0  0  0  0
   38.4610   27.6120   38.0400 C   0  0  0  0  0  0  0  0  0  0  0  0
   38.6840   28.3860   37.3020 H   0  0  0  0  0  0  0  0  0  0  0  0
   37.4540   26.7000   37.7520 C   0  0  0  0  0  3  0  0  0  0  0  0
   37.1540   25.7000   38.6850 C   0  0  0  0  0  3  0  0  0  0  0  0
   37.6200   24.7820   42.3230 H   0  0  0  0  0  0  0  0  0  0  0  0
   37.4900   24.3520   41.0420 S   0  0  0  0  0  0  0  0  0  0  0  0
   36.0830   23.8490   40.8810 O   0  0  0  0  0  0  0  0  0  0  0  0
   38.4110   23.1800   40.7570 O   0  0  0  0  0  0  0  0  0  0  0  0
  1 24  1  0  0  0  0
  1  2  1  0  0  0  0
  1  3  1  0  0  0  0
  2  5  1  0  0  0  0
  2  3  1  0  0  0  0
  3  6  1  0  0  0  0
  3  7  1  0  0  0  0
  4  2  1  0  0  0  0
  8  9  1  0  0  0  0
  8  1  1  0  0  0  0
  9 15  1  0  0  0  0
 10 11  1  0  0  0  0
 10 18  1  0  0  0  0
 10  9  1  0  0  0  0
 12 11  1  0  0  0  0
 12 13  1  0  0  0  0
 13  8  1  0  0  0  0
 13 22  1  0  0  0  0
 14  8  1  0  0  0  0
 16  9  1  0  0  0  0
 17 10  1  0  0  0  0
 19 12  1  0  0  0  0
 20 12  1  0  0  0  0
 21 13  1  0  0  0  0
 23 28  1  0  0  0  0
 23 30  1  0  0  0  0
 24 23  2  0  0  0  0
 25 26  2  0  0  0  0
 25 24  1  0  0  0  0
 26 27  1  0  0  0  0
 27 29  1  0  0  0  0
 27 28  2  0  0  0  0
 29 32  1  0  0  0  0
 31 29  1  0  0  0  0
 33 34  1  0  0  0  0
 33 42  1  0  0  0  0
 34 25  1  0  0  0  0
 35 36  1  0  0  0  0
 35 34  2  0  0  0  0
 37 35  1  0  0  0  0
 38 37  1  0  0  0  0
 39 37  2  0  0  0  0
 39 40  1  0  0  0  0
 40 33  2  0  0  0  0
 42 41  1  0  0  0  0
 43 42  2  0  0  0  0
 44 42  2  0  0  0  0
M  END
>  <minimizedAffinity>
-5.48882914

$$$$

 OpenBabel03242516153D

 44 47  0  0  0  0  0  0  0  0999 V2000
   37.6960   27.9290   42.2790 C   0  0  0  0  0  0  0  0  0  0  0  0
   37.1090   27.7640   43.6790 C   0  0  0  0  0  0  0  0  0  0  0  0
   36.2440   27.7650   42.5050 C   0  0  0  0  0  0  0  0  0  0  0  0
   37.3620   26.8600   44.2710 H   0  0  0  0  0  0  0  0  0  0  0  0
   37.1550   28.6890   44.3170 H   0  0  0  0  0  0  0  0  0  0  0  0
   35.7840   26.7890   42.2420 H   0  0  0  0  0  0  0  0  0  0  0  0
   35.5370   28.6110   42.4000 H   0  0  0  0  0  0  0  0  0  0  0  0
   38.4710   26.7520   41.8180 C   0  0  0  0  0  0  0  0  0  0  0  0
   39.8070   27.0750   41.1530 C   0  0  0  0  0  0  0  0  0  0  0  0
   40.4590   25.7200   40.8920 C   0  0  0  0  0  0  0  0  0  0  0  0
   39.7730   25.0900   39.8770 O   0  0  0  0  0  0  0  0  0  0  0  0
   38.5320   24.7200   40.4570 C   0  0  0  0  0  0  0  0  0  0  0  0
   37.7250   25.9850   40.7330 C   0  0  0  0  0  0  0  0  0  0  0  0
   38.7110   26.0250   42.6400 H   0  0  0  0  0  0  0  0  0  0  0  0
   39.6690   27.6150   40.2240 H   0  0  0  0  0  0  0  0  0  0  0  0
   40.4930   27.5930   41.8840 H   0  0  0  0  0  0  0  0  0  0  0  0
   40.5840   25.1280   41.7960 H   0  0  0  0  0  0  0  0  0  0  0  0
   41.4620   25.9840   40.4530 H   0  0  0  0  0  0  0  0  0  0  0  0
   37.9720   24.0180   39.8250 H   0  0  0  0  0  0  0  0  0  0  0  0
   38.7560   24.2840   41.4760 H   0  0  0  0  0  0  0  0  0  0  0  0
   36.7290   25.6600   41.0910 H   0  0  0  0  0  0  0  0  0  0  0  0
   37.6850   26.5770   39.7870 H   0  0  0  0  0  0  0  0  0  0  0  0
   39.1810   29.8820   42.7560 C   0  0  0  0  0  0  0  0  0  0  0  0
   38.2190   29.2820   41.9400 C   0  0  0  0  0  0  0  0  0  0  0  0
   37.7860   30.0170   40.8250 C   0  0  0  0  0  0  0  0  0  0  0  0
   38.2990   31.2410   40.5870 N   0  0  0  0  0  0  0  0  0  0  0  0
   39.2170   31.7620   41.4040 C   0  0  0  0  0  0  0  0  0  0  0  0
   39.6620   31.1180   42.4660 N   0  0  0  0  0  0  0  0  0  0  0  0
   39.7900   33.0390   41.1830 N   0  0  0  0  0  0  0  0  0  0  0  0
   39.5170   29.3320   43.6030 H   0  0  0  0  0  0  0  0  0  0  0  0
   39.5330   33.9410   41.6360 H   0  0  0  0  0  0  0  0  0  0  0  0
   40.5450   32.9410   40.4630 H   0  0  0  0  0  0  0  0  0  0  0  0
   37.0370   28.8420   38.7360 C   0  0  0  0  0  0  0  0  0  0  0  0
   36.7760   29.5140   39.9120 C   0  0  0  0  0  0  0  0  0  0  0  0
   35.4560   29.6820   40.2660 C   0  0  0  0  0  0  0  0  0  0  0  0
   35.1040   30.1670   41.1580 H   0  0  0  0  0  0  0  0  0  0  0  0
   34.3930   29.2120   39.5000 C   0  0  0  0  0  0  0  0  0  0  0  0
   33.3450   29.3450   39.7780 H   0  0  0  0  0  0  0  0  0  0  0  0
   34.6790   28.5390   38.3190 C   0  0  0  0  0  3  0  0  0  0  0  0
   36.0170   28.3590   37.9450 C   0  0  0  0  0  3  0  0  0  0  0  0
   39.5550   28.6050   39.3310 H   0  0  0  0  0  0  0  0  0  0  0  0
   38.7200   28.6390   38.2610 S   0  0  0  0  0  0  0  0  0  0  0  0
   38.9150   27.3560   37.5020 O   0  0  0  0  0  0  0  0  0  0  0  0
   39.0790   29.7690   37.3150 O   0  0  0  0  0  0  0  0  0  0  0  0
  1  3  1  0  0  0  0
  1  2  1  0  0  0  0
  2  4  1  0  0  0  0
  2  5  1  0  0  0  0
  3  2  1  0  0  0  0
  6  3  1  0  0  0  0
  7  3  1  0  0  0  0
  8  1  1  0  0  0  0
  8 14  1  0  0  0  0
  9  8  1  0  0  0  0
  9 16  1  0  0  0  0
 10  9  1  0  0  0  0
 10 17  1  0  0  0  0
 11 12  1  0  0  0  0
 11 10  1  0  0  0  0
 12 13  1  0  0  0  0
 12 20  1  0  0  0  0
 13 21  1  0  0  0  0
 13  8  1  0  0  0  0
 15  9  1  0  0  0  0
 18 10  1  0  0  0  0
 19 12  1  0  0  0  0
 22 13  1  0  0  0  0
 23 30  1  0  0  0  0
 24  1  1  0  0  0  0
 24 23  2  0  0  0  0
 25 24  1  0  0  0  0
 26 25  2  0  0  0  0
 26 27  1  0  0  0  0
 27 28  2  0  0  0  0
 28 23  1  0  0  0  0
 29 27  1  0  0  0  0
 29 31  1  0  0  0  0
 32 29  1  0  0  0  0
 33 34  1  0  0  0  0
 34 35  2  0  0  0  0
 34 25  1  0  0  0  0
 35 36  1  0  0  0  0
 37 38  1  0  0  0  0
 37 35  1  0  0  0  0
 39 37  2  0  0  0  0
 40 39  1  0  0  0  0
 40 33  2  0  0  0  0
 42 33  1  0  0  0  0
 42 41  1  0  0  0  0
 43 42  2  0  0  0  0
 44 42  2  0  0  0  0
M  END
>  <minimizedAffinity>
-5.46410704

$$$$

 OpenBabel03242516153D

 44 47  0  0  0  0  0  0  0  0999 V2000
   36.4330   29.3620   39.6330 C   0  0  0  0  0  0  0  0  0  0  0  0
   35.4410   28.7650   40.6280 C   0  0  0  0  0  0  0  0  0  0  0  0
   34.9730   29.4140   39.4090 C   0  0  0  0  0  0  0  0  0  0  0  0
   35.4340   27.6680   40.7960 H   0  0  0  0  0  0  0  0  0  0  0  0
   35.3620   29.3230   41.6020 H   0  0  0  0  0  0  0  0  0  0  0  0
   34.5410   28.7420   38.6380 H   0  0  0  0  0  0  0  0  0  0  0  0
   34.3960   30.3530   39.5270 H   0  0  0  0  0  0  0  0  0  0  0  0
   37.2190   28.3440   38.8960 C   0  0  0  0  0  0  0  0  0  0  0  0
   38.0990   28.8910   37.7730 C   0  0  0  0  0  0  0  0  0  0  0  0
   38.8900   27.6890   37.2660 C   0  0  0  0  0  0  0  0  0  0  0  0
   38.0320   26.8540   36.5840 O   0  0  0  0  0  0  0  0  0  0  0  0
   37.2160   26.2750   37.5910 C   0  0  0  0  0  0  0  0  0  0  0  0
   36.3120   27.3580   38.1700 C   0  0  0  0  0  0  0  0  0  0  0  0
   37.9070   27.7470   39.5540 H   0  0  0  0  0  0  0  0  0  0  0  0
   37.5050   29.3190   36.9750 H   0  0  0  0  0  0  0  0  0  0  0  0
   38.8750   29.5950   38.1920 H   0  0  0  0  0  0  0  0  0  0  0  0
   39.4740   27.2050   38.0460 H   0  0  0  0  0  0  0  0  0  0  0  0
   39.5680   28.1240   36.4800 H   0  0  0  0  0  0  0  0  0  0  0  0
   36.6320   25.4260   37.2130 H   0  0  0  0  0  0  0  0  0  0  0  0
   37.8980   25.9730   38.4410 H   0  0  0  0  0  0  0  0  0  0  0  0
   35.6230   26.8580   38.8780 H   0  0  0  0  0  0  0  0  0  0  0  0
   35.7880   27.8570   37.3190 H   0  0  0  0  0  0  0  0  0  0  0  0
   36.8790   31.8130   39.4170 C   0  0  0  0  0  0  0  0  0  0  0  0
   37.1350   30.6020   40.0670 C   0  0  0  0  0  0  0  0  0  0  0  0
   38.0720   30.6320   41.1120 C   0  0  0  0  0  0  0  0  0  0  0  0
   38.6750   31.7910   41.4430 N   0  0  0  0  0  0  0  0  0  0  0  0
   38.3880   32.9160   40.7840 C   0  0  0  0  0  0  0  0  0  0  0  0
   37.5160   32.9500   39.7940 N   0  0  0  0  0  0  0  0  0  0  0  0
   38.9890   34.1580   41.1070 N   0  0  0  0  0  0  0  0  0  0  0  0
   36.1690   31.8010   38.6240 H   0  0  0  0  0  0  0  0  0  0  0  0
   39.7920   34.6220   40.6320 H   0  0  0  0  0  0  0  0  0  0  0  0
   38.4860   34.5620   41.9330 H   0  0  0  0  0  0  0  0  0  0  0  0
   39.5880   28.7020   41.6450 C   0  0  0  0  0  0  0  0  0  0  0  0
   38.4410   29.4380   41.8520 C   0  0  0  0  0  0  0  0  0  0  0  0
   37.6030   29.0330   42.8670 C   0  0  0  0  0  0  0  0  0  0  0  0
   36.6870   29.5170   43.1540 H   0  0  0  0  0  0  0  0  0  0  0  0
   37.8610   27.9300   43.6770 C   0  0  0  0  0  0  0  0  0  0  0  0
   37.1970   27.6060   44.4820 H   0  0  0  0  0  0  0  0  0  0  0  0
   39.0220   27.2020   43.4490 C   0  0  0  0  0  3  0  0  0  0  0  0
   39.8850   27.6020   42.4210 C   0  0  0  0  0  3  0  0  0  0  0  0
   39.9860   29.8080   39.3270 H   0  0  0  0  0  0  0  0  0  0  0  0
   40.6580   29.1970   40.3370 S   0  0  0  0  0  0  0  0  0  0  0  0
   41.6990   30.1630   40.8270 O   0  0  0  0  0  0  0  0  0  0  0  0
   41.3950   27.9660   39.8440 O   0  0  0  0  0  0  0  0  0  0  0  0
  1 24  1  0  0  0  0
  1  2  1  0  0  0  0
  2  4  1  0  0  0  0
  2  5  1  0  0  0  0
  3  7  1  0  0  0  0
  3  1  1  0  0  0  0
  3  2  1  0  0  0  0
  6  3  1  0  0  0  0
  8 14  1  0  0  0  0
  8  1  1  0  0  0  0
  9 16  1  0  0  0  0
  9  8  1  0  0  0  0
 10  9  1  0  0  0  0
 10 17  1  0  0  0  0
 11 10  1  0  0  0  0
 11 12  1  0  0  0  0
 12 13  1  0  0  0  0
 12 20  1  0  0  0  0
 13 21  1  0  0  0  0
 13  8  1  0  0  0  0
 15  9  1  0  0  0  0
 18 10  1  0  0  0  0
 19 12  1  0  0  0  0
 22 13  1  0  0  0  0
 23 28  2  0  0  0  0
 23 24  1  0  0  0  0
 24 25  2  0  0  0  0
 25 26  1  0  0  0  0
 25 34  1  0  0  0  0
 27 29  1  0  0  0  0
 27 26  2  0  0  0  0
 28 27  1  0  0  0  0
 29 32  1  0  0  0  0
 30 23  1  0  0  0  0
 31 29  1  0  0  0  0
 33 34  2  0  0  0  0
 33 40  1  0  0  0  0
 34 35  1  0  0  0  0
 35 36  1  0  0  0  0
 35 37  2  0  0  0  0
 37 38  1  0  0  0  0
 39 37  1  0  0  0  0
 40 39  2  0  0  0  0
 41 42  1  0  0  0  0
 42 43  2  0  0  0  0
 42 33  1  0  0  0  0
 44 42  2  0  0  0  0
M  END
>  <minimizedAffinity>
-5.44868851

$$$$

 OpenBabel03242516153D

 44 47  0  0  0  0  0  0  0  0999 V2000
   36.1560   29.0350   40.1060 C   0  0  0  0  0  0  0  0  0  0  0  0
   34.6600   29.1740   39.8310 C   0  0  0  0  0  0  0  0  0  0  0  0
   35.5090   28.3830   38.9470 C   0  0  0  0  0  0  0  0  0  0  0  0
   33.9340   28.7440   40.5520 H   0  0  0  0  0  0  0  0  0  0  0  0
   34.3400   30.1990   39.4980 H   0  0  0  0  0  0  0  0  0  0  0  0
   35.3580   27.2840   38.9860 H   0  0  0  0  0  0  0  0  0  0  0  0
   35.6480   28.7570   37.9140 H   0  0  0  0  0  0  0  0  0  0  0  0
   36.4670   28.2050   41.2940 C   0  0  0  0  0  0  0  0  0  0  0  0
   37.5220   28.7850   42.2340 C   0  0  0  0  0  0  0  0  0  0  0  0
   37.5660   27.8280   43.4210 C   0  0  0  0  0  0  0  0  0  0  0  0
   38.1550   26.6500   43.0140 O   0  0  0  0  0  0  0  0  0  0  0  0
   37.1910   26.0390   42.1710 C   0  0  0  0  0  0  0  0  0  0  0  0
   37.0680   26.8620   40.8930 C   0  0  0  0  0  0  0  0  0  0  0  0
   35.5720   27.9940   41.9390 H   0  0  0  0  0  0  0  0  0  0  0  0
   38.4920   28.8440   41.7560 H   0  0  0  0  0  0  0  0  0  0  0  0
   37.1650   29.7660   42.6630 H   0  0  0  0  0  0  0  0  0  0  0  0
   36.6010   27.7120   43.9100 H   0  0  0  0  0  0  0  0  0  0  0  0
   38.3080   28.3030   44.1230 H   0  0  0  0  0  0  0  0  0  0  0  0
   37.4390   24.9920   41.9500 H   0  0  0  0  0  0  0  0  0  0  0  0
   36.1890   26.1360   42.6840 H   0  0  0  0  0  0  0  0  0  0  0  0
   36.3870   26.3090   40.2180 H   0  0  0  0  0  0  0  0  0  0  0  0
   38.0940   26.9990   40.4740 H   0  0  0  0  0  0  0  0  0  0  0  0
   36.6910   31.4350   40.5540 C   0  0  0  0  0  0  0  0  0  0  0  0
   36.9840   30.2520   39.8720 C   0  0  0  0  0  0  0  0  0  0  0  0
   38.0640   30.2880   38.9770 C   0  0  0  0  0  0  0  0  0  0  0  0
   38.7620   31.4290   38.8110 N   0  0  0  0  0  0  0  0  0  0  0  0
   38.4340   32.5290   39.4920 C   0  0  0  0  0  0  0  0  0  0  0  0
   37.4300   32.5550   40.3470 N   0  0  0  0  0  0  0  0  0  0  0  0
   39.1480   33.7450   39.3560 N   0  0  0  0  0  0  0  0  0  0  0  0
   35.8740   31.4180   41.2370 H   0  0  0  0  0  0  0  0  0  0  0  0
   38.8930   34.5750   38.7800 H   0  0  0  0  0  0  0  0  0  0  0  0
   40.0120   33.6870   39.9460 H   0  0  0  0  0  0  0  0  0  0  0  0
   39.4170   28.2120   38.5620 C   0  0  0  0  0  0  0  0  0  0  0  0
   38.4570   29.1300   38.1920 C   0  0  0  0  0  0  0  0  0  0  0  0
   37.7910   28.9090   37.0080 C   0  0  0  0  0  0  0  0  0  0  0  0
   37.0100   29.5260   36.6020 H   0  0  0  0  0  0  0  0  0  0  0  0
   38.0430   27.8160   36.1820 C   0  0  0  0  0  0  0  0  0  0  0  0
   37.5170   27.6380   35.2410 H   0  0  0  0  0  0  0  0  0  0  0  0
   39.0150   26.9040   36.5740 C   0  0  0  0  0  3  0  0  0  0  0  0
   39.7010   27.1160   37.7780 C   0  0  0  0  0  3  0  0  0  0  0  0
   39.5770   29.2520   40.9380 H   0  0  0  0  0  0  0  0  0  0  0  0
   40.2900   28.4960   40.0650 S   0  0  0  0  0  0  0  0  0  0  0  0
   40.6110   27.2000   40.7560 O   0  0  0  0  0  0  0  0  0  0  0  0
   41.6140   29.1510   39.7200 O   0  0  0  0  0  0  0  0  0  0  0  0
  1  8  1  0  0  0  0
  2  1  1  0  0  0  0
  2  4  1  0  0  0  0
  3  6  1  0  0  0  0
  3  2  1  0  0  0  0
  3  1  1  0  0  0  0
  5  2  1  0  0  0  0
  7  3  1  0  0  0  0
  8 14  1  0  0  0  0
  8  9  1  0  0  0  0
  9 16  1  0  0  0  0
  9 10  1  0  0  0  0
 10 17  1  0  0  0  0
 10 18  1  0  0  0  0
 11 10  1  0  0  0  0
 12 20  1  0  0  0  0
 12 11  1  0  0  0  0
 13  8  1  0  0  0  0
 13 12  1  0  0  0  0
 15  9  1  0  0  0  0
 19 12  1  0  0  0  0
 21 13  1  0  0  0  0
 22 13  1  0  0  0  0
 23 30  1  0  0  0  0
 24  1  1  0  0  0  0
 24 23  2  0  0  0  0
 25 24  1  0  0  0  0
 26 25  2  0  0  0  0
 26 27  1  0  0  0  0
 27 28  2  0  0  0  0
 28 23  1  0  0  0  0
 29 27  1  0  0  0  0
 29 32  1  0  0  0  0
 31 29  1  0  0  0  0
 33 42  1  0  0  0  0
 34 33  1  0  0  0  0
 34 25  1  0  0  0  0
 35 34  2  0  0  0  0
 36 35  1  0  0  0  0
 37 39  2  0  0  0  0
 37 35  1  0  0  0  0
 38 37  1  0  0  0  0
 39 40  1  0  0  0  0
 40 33  2  0  0  0  0
 42 43  2  0  0  0  0
 42 41  1  0  0  0  0
 44 42  2  0  0  0  0
M  END
>  <minimizedAffinity>
-5.42091799

$$$$

 OpenBabel03242516153D

 44 47  0  0  0  0  0  0  0  0999 V2000
   39.8390   27.5000   40.2560 C   0  0  0  0  0  0  0  0  0  0  0  0
   39.8800   26.8650   38.8680 C   0  0  0  0  0  0  0  0  0  0  0  0
   40.8380   27.8990   39.2420 C   0  0  0  0  0  0  0  0  0  0  0  0
   40.1270   25.7880   38.7710 H   0  0  0  0  0  0  0  0  0  0  0  0
   39.0180   27.1440   38.2010 H   0  0  0  0  0  0  0  0  0  0  0  0
   41.8860   27.5600   39.3830 H   0  0  0  0  0  0  0  0  0  0  0  0
   40.7730   28.8660   38.7050 H   0  0  0  0  0  0  0  0  0  0  0  0
   40.2680   26.5850   41.3400 C   0  0  0  0  0  0  0  0  0  0  0  0
   40.1170   27.1390   42.7560 C   0  0  0  0  0  0  0  0  0  0  0  0
   40.4930   25.9830   43.6780 C   0  0  0  0  0  0  0  0  0  0  0  0
   41.8520   25.7750   43.5900 O   0  0  0  0  0  0  0  0  0  0  0  0
   42.0470   25.2090   42.3030 C   0  0  0  0  0  0  0  0  0  0  0  0
   41.7580   26.2750   41.2510 C   0  0  0  0  0  0  0  0  0  0  0  0
   39.7200   25.6040   41.3400 H   0  0  0  0  0  0  0  0  0  0  0  0
   40.7710   27.9870   42.9230 H   0  0  0  0  0  0  0  0  0  0  0  0
   39.0310   27.3490   42.9790 H   0  0  0  0  0  0  0  0  0  0  0  0
   39.8830   25.0960   43.5170 H   0  0  0  0  0  0  0  0  0  0  0  0
   40.3220   26.3960   44.7110 H   0  0  0  0  0  0  0  0  0  0  0  0
   43.0560   24.7920   42.1830 H   0  0  0  0  0  0  0  0  0  0  0  0
   41.2460   24.4250   42.1580 H   0  0  0  0  0  0  0  0  0  0  0  0
   42.0130   25.8360   40.2680 H   0  0  0  0  0  0  0  0  0  0  0  0
   42.3640   27.1780   41.5040 H   0  0  0  0  0  0  0  0  0  0  0  0
   38.9140   29.7860   40.6710 C   0  0  0  0  0  0  0  0  0  0  0  0
   38.6940   28.4130   40.5290 C   0  0  0  0  0  0  0  0  0  0  0  0
   37.3700   27.9670   40.6650 C   0  0  0  0  0  0  0  0  0  0  0  0
   36.3850   28.8520   40.9220 N   0  0  0  0  0  0  0  0  0  0  0  0
   36.6590   30.1530   41.0470 C   0  0  0  0  0  0  0  0  0  0  0  0
   37.8830   30.6300   40.9280 N   0  0  0  0  0  0  0  0  0  0  0  0
   35.6530   31.1170   41.3040 N   0  0  0  0  0  0  0  0  0  0  0  0
   39.9150   30.1340   40.5680 H   0  0  0  0  0  0  0  0  0  0  0  0
   35.3990   31.5470   42.2180 H   0  0  0  0  0  0  0  0  0  0  0  0
   35.1770   31.3460   40.3990 H   0  0  0  0  0  0  0  0  0  0  0  0
   36.5860   25.9400   39.4060 C   0  0  0  0  0  0  0  0  0  0  0  0
   37.0120   26.5640   40.5600 C   0  0  0  0  0  0  0  0  0  0  0  0
   37.1480   25.7860   41.6870 C   0  0  0  0  0  0  0  0  0  0  0  0
   37.4850   26.1290   42.6490 H   0  0  0  0  0  0  0  0  0  0  0  0
   36.8770   24.4200   41.7110 C   0  0  0  0  0  0  0  0  0  0  0  0
   36.9830   23.8000   42.6050 H   0  0  0  0  0  0  0  0  0  0  0  0
   36.4480   23.8130   40.5370 C   0  0  0  0  0  3  0  0  0  0  0  0
   36.3060   24.5910   39.3810 C   0  0  0  0  0  3  0  0  0  0  0  0
   37.2790   27.9530   37.9150 H   0  0  0  0  0  0  0  0  0  0  0  0
   36.3890   26.9280   37.9620 S   0  0  0  0  0  0  0  0  0  0  0  0
   36.5850   26.1110   36.7170 O   0  0  0  0  0  0  0  0  0  0  0  0
   34.9590   27.4370   37.9350 O   0  0  0  0  0  0  0  0  0  0  0  0
  1 24  1  0  0  0  0
  1  8  1  0  0  0  0
  2  3  1  0  0  0  0
  2  1  1  0  0  0  0
  3  6  1  0  0  0  0
  3  1  1  0  0  0  0
  4  2  1  0  0  0  0
  5  2  1  0  0  0  0
  7  3  1  0  0  0  0
  8 14  1  0  0  0  0
  8  9  1  0  0  0  0
  9 15  1  0  0  0  0
  9 16  1  0  0  0  0
  9 10  1  0  0  0  0
 10 18  1  0  0  0  0
 11 10  1  0  0  0  0
 12 11  1  0  0  0  0
 13  8  1  0  0  0  0
 13 22  1  0  0  0  0
 13 12  1  0  0  0  0
 17 10  1  0  0  0  0
 19 12  1  0  0  0  0
 20 12  1  0  0  0  0
 21 13  1  0  0  0  0
 23 28  1  0  0  0  0
 24 25  1  0  0  0  0
 24 23  2  0  0  0  0
 25 26  2  0  0  0  0
 26 27  1  0  0  0  0
 27 29  1  0  0  0  0
 28 27  2  0  0  0  0
 29 31  1  0  0  0  0
 30 23  1  0  0  0  0
 32 29  1  0  0  0  0
 33 34  1  0  0  0  0
 34 25  1  0  0  0  0
 34 35  2  0  0  0  0
 35 37  1  0  0  0  0
 35 36  1  0  0  0  0
 37 38  1  0  0  0  0
 39 37  2  0  0  0  0
 40 33  2  0  0  0  0
 40 39  1  0  0  0  0
 41 42  1  0  0  0  0
 42 33  1  0  0  0  0
 43 42  2  0  0  0  0
 44 42  2  0  0  0  0
M  END
>  <minimizedAffinity>
-5.39214277

$$$$

 OpenBabel03242516153D

 44 47  0  0  0  0  0  0  0  0999 V2000
   37.6020   27.4140   42.4210 C   0  0  0  0  0  0  0  0  0  0  0  0
   36.7370   27.4550   43.6790 C   0  0  0  0  0  0  0  0  0  0  0  0
   37.3460   28.6720   43.1530 C   0  0  0  0  0  0  0  0  0  0  0  0
   35.6570   27.2120   43.6030 H   0  0  0  0  0  0  0  0  0  0  0  0
   37.1990   26.9650   44.5790 H   0  0  0  0  0  0  0  0  0  0  0  0
   36.6480   29.4060   42.6990 H   0  0  0  0  0  0  0  0  0  0  0  0
   38.1250   29.1550   43.7760 H   0  0  0  0  0  0  0  0  0  0  0  0
   36.8330   27.1560   41.1800 C   0  0  0  0  0  0  0  0  0  0  0  0
   37.4420   26.1150   40.2430 C   0  0  0  0  0  0  0  0  0  0  0  0
   36.4180   25.9380   39.1260 C   0  0  0  0  0  0  0  0  0  0  0  0
   36.4210   27.0720   38.3430 O   0  0  0  0  0  0  0  0  0  0  0  0
   35.8150   28.0690   39.1510 C   0  0  0  0  0  0  0  0  0  0  0  0
   36.7570   28.4010   40.3040 C   0  0  0  0  0  0  0  0  0  0  0  0
   35.7810   26.8130   41.3690 H   0  0  0  0  0  0  0  0  0  0  0  0
   38.3910   26.4490   39.8400 H   0  0  0  0  0  0  0  0  0  0  0  0
   37.4930   25.1110   40.7550 H   0  0  0  0  0  0  0  0  0  0  0  0
   35.4390   25.6370   39.4910 H   0  0  0  0  0  0  0  0  0  0  0  0
   36.8620   25.1300   38.4800 H   0  0  0  0  0  0  0  0  0  0  0  0
   35.5550   28.9670   38.5750 H   0  0  0  0  0  0  0  0  0  0  0  0
   34.9080   27.6000   39.6350 H   0  0  0  0  0  0  0  0  0  0  0  0
   36.3040   29.2470   40.8560 H   0  0  0  0  0  0  0  0  0  0  0  0
   37.7580   28.6410   39.8700 H   0  0  0  0  0  0  0  0  0  0  0  0
   39.0270   25.4610   43.0580 C   0  0  0  0  0  0  0  0  0  0  0  0
   38.9350   26.7640   42.5600 C   0  0  0  0  0  0  0  0  0  0  0  0
   40.1410   27.3980   42.2230 C   0  0  0  0  0  0  0  0  0  0  0  0
   41.3110   26.7490   42.3860 N   0  0  0  0  0  0  0  0  0  0  0  0
   41.3340   25.5040   42.8660 C   0  0  0  0  0  0  0  0  0  0  0  0
   40.2340   24.8560   43.1990 N   0  0  0  0  0  0  0  0  0  0  0  0
   42.5410   24.7820   43.0410 N   0  0  0  0  0  0  0  0  0  0  0  0
   38.1180   24.9700   43.3150 H   0  0  0  0  0  0  0  0  0  0  0  0
   43.0820   24.6450   43.9200 H   0  0  0  0  0  0  0  0  0  0  0  0
   42.8250   24.3860   42.1130 H   0  0  0  0  0  0  0  0  0  0  0  0
   40.2310   29.1040   40.3820 C   0  0  0  0  0  0  0  0  0  0  0  0
   40.1820   28.7580   41.7160 C   0  0  0  0  0  0  0  0  0  0  0  0
   40.1270   29.7830   42.6340 C   0  0  0  0  0  0  0  0  0  0  0  0
   40.0690   29.6650   43.7010 H   0  0  0  0  0  0  0  0  0  0  0  0
   40.1200   31.1290   42.2790 C   0  0  0  0  0  0  0  0  0  0  0  0
   40.0770   31.9440   43.0050 H   0  0  0  0  0  0  0  0  0  0  0  0
   40.1700   31.4540   40.9290 C   0  0  0  0  0  3  0  0  0  0  0  0
   40.2260   30.4230   39.9820 C   0  0  0  0  0  3  0  0  0  0  0  0
   39.7980   26.6440   39.6680 H   0  0  0  0  0  0  0  0  0  0  0  0
   40.3230   27.8040   39.1980 S   0  0  0  0  0  0  0  0  0  0  0  0
   39.5700   28.1590   37.9470 O   0  0  0  0  0  0  0  0  0  0  0  0
   41.7780   27.6320   38.8040 O   0  0  0  0  0  0  0  0  0  0  0  0
  1 24  1  0  0  0  0
  1  3  1  0  0  0  0
  1  2  1  0  0  0  0
  2  5  1  0  0  0  0
  3  2  1  0  0  0  0
  3  7  1  0  0  0  0
  4  2  1  0  0  0  0
  6  3  1  0  0  0  0
  8 14  1  0  0  0  0
  8  1  1  0  0  0  0
  9 16  1  0  0  0  0
  9  8  1  0  0  0  0
 10 17  1  0  0  0  0
 10  9  1  0  0  0  0
 11 10  1  0  0  0  0
 11 12  1  0  0  0  0
 12 20  1  0  0  0  0
 12 13  1  0  0  0  0
 13 21  1  0  0  0  0
 13  8  1  0  0  0  0
 15  9  1  0  0  0  0
 18 10  1  0  0  0  0
 19 12  1  0  0  0  0
 22 13  1  0  0  0  0
 23 28  1  0  0  0  0
 23 30  1  0  0  0  0
 24 23  2  0  0  0  0
 25 26  2  0  0  0  0
 25 24  1  0  0  0  0
 26 27  1  0  0  0  0
 27 29  1  0  0  0  0
 27 28  2  0  0  0  0
 29 31  1  0  0  0  0
 32 29  1  0  0  0  0
 33 34  1  0  0  0  0
 34 25  1  0  0  0  0
 34 35  2  0  0  0  0
 35 36  1  0  0  0  0
 37 35  1  0  0  0  0
 37 38  1  0  0  0  0
 39 37  2  0  0  0  0
 40 33  2  0  0  0  0
 40 39  1  0  0  0  0
 42 41  1  0  0  0  0
 42 33  1  0  0  0  0
 43 42  2  0  0  0  0
 44 42  2  0  0  0  0
M  END
>  <minimizedAffinity>
-5.38084745

$$$$
