REMARK  Name = 
REMARK  5 active torsions:
REMARK  status: ('A' for Active; 'I' for Inactive)
REMARK    1  A    between atoms: C_2  and  C_7
REMARK    2  A    between atoms: C_5  and  O_11
REMARK    3  A    between atoms: O_11  and  C_12
REMARK    4  A    between atoms: C_12  and  C_22
REMARK    5  A    between atoms: S_18  and  C_21
REMARK                            x       y       z     vdW  Elec       q    Type
REMARK                         _______ _______ _______ _____ _____    ______ ____
ROOT
ATOM      1  C   UNL     1      46.156  32.292  48.306  0.00  0.00    +0.000 C 
ATOM      2  H   UNL     1      45.754  31.936  49.273  0.00  0.00    +0.000 HD
ATOM      3  H   UNL     1      47.081  32.918  48.465  0.00  0.00    +0.000 HD
ENDROOT
BRANCH   1   5
ATOM      4  C   UNL     1      47.792  30.534  47.880  0.00  0.00    +0.000 A 
ATOM      5  C   UNL     1      46.589  31.122  47.502  0.00  0.00    +0.000 A 
ATOM      6  C   UNL     1      45.887  30.609  46.432  0.00  0.00    +0.000 A 
ATOM      7  H   UNL     1      44.947  31.138  46.208  0.00  0.00    +0.000 HD
ATOM      8  C   UNL     1      46.304  29.527  45.689  0.00  0.00    +0.000 A 
ATOM      9  H   UNL     1      45.714  29.165  44.857  0.00  0.00    +0.000 HD
ATOM     10  C   UNL     1      47.510  28.915  46.045  0.00  0.00    +0.000 A 
ATOM     11  C   UNL     1      48.185  29.451  47.118  0.00  0.00    +0.000 A 
BRANCH   4  13
ATOM     12  H   UNL     1      48.388  32.151  49.741  0.00  0.00    +0.000 HD
ATOM     13  S   UNL     1      48.827  31.005  49.183  0.00  0.00    +0.000 S 
ATOM     14  O   UNL     1      50.240  31.242  48.725  0.00  0.00    +0.000 OA
ATOM     15  O   UNL     1      48.870  29.908  50.239  0.00  0.00    +0.000 OA
ENDBRANCH   4  13
ENDBRANCH   1   5
BRANCH   1  16
ATOM     16  O   UNL     1      45.139  33.052  47.681  0.00  0.00    +0.000 OA
BRANCH  16  21
ATOM     17  C   UNL     1      44.711  35.379  45.023  0.00  0.00    +0.000 A 
ATOM     18  C   UNL     1      45.594  34.933  44.046  0.00  0.00    +0.000 A 
ATOM     19  C   UNL     1      46.357  33.785  44.332  0.00  0.00    +0.000 A 
ATOM     20  N   UNL     1      46.199  33.175  45.530  0.00  0.00    +0.000 NA
ATOM     21  C   UNL     1      45.324  33.651  46.447  0.00  0.00    +0.000 A 
ATOM     22  N   UNL     1      44.591  34.735  46.200  0.00  0.00    +0.000 NA
ATOM     23  H   UNL     1      44.117  36.244  44.842  0.00  0.00    +0.000 HD
ATOM     24  H   UNL     1      47.039  33.451  43.562  0.00  0.00    +0.000 HD
BRANCH  18  25
ATOM     25  C   UNL     1      45.674  35.699  42.762  0.00  0.00    +0.000 C 
ATOM     26  F   UNL     1      45.273  36.977  43.089  0.00  0.00    +0.000 F 
ATOM     27  F   UNL     1      44.788  35.106  41.889  0.00  0.00    +0.000 F 
ATOM     28  F   UNL     1      46.971  35.631  42.301  0.00  0.00    +0.000 F 
ENDBRANCH  18  25
ENDBRANCH  16  21
ENDBRANCH   1  16
TORSDOF 5
