REMARK  Name = 
REMARK  5 active torsions:
REMARK  status: ('A' for Active; 'I' for Inactive)
REMARK    1  A    between atoms: C_1  and  O_16
REMARK    2  A    between atoms: C_3  and  C_8
REMARK    3  A    between atoms: O_16  and  C_17
REMARK    4  A    between atoms: C_20  and  C_35
REMARK    5  A    between atoms: S_31  and  C_34
REMARK                            x       y       z     vdW  Elec       q    Type
REMARK                         _______ _______ _______ _____ _____    ______ ____
ROOT
ATOM      1  C   UNL     1      45.504  34.832  43.536  0.00  0.00    +0.000 A 
ATOM      2  C   UNL     1      46.213  33.749  44.114  0.00  0.00    +0.000 A 
ATOM      3  C   UNL     1      46.028  33.519  45.467  0.00  0.00    +0.000 A 
ATOM      4  N   UNL     1      45.196  34.326  46.156  0.00  0.00    +0.000 NA
ATOM      5  C   UNL     1      44.529  35.356  45.581  0.00  0.00    +0.000 A 
ATOM      6  N   UNL     1      44.688  35.597  44.286  0.00  0.00    +0.000 NA
ATOM      7  H   UNL     1      46.881  33.101  43.562  0.00  0.00    +0.000 HD
ATOM      8  H   UNL     1      43.873  35.963  46.209  0.00  0.00    +0.000 HD
ENDROOT
BRANCH   3  10
ATOM      9  C   UNL     1      46.981  32.676  47.543  0.00  0.00    +0.000 A 
ATOM     10  C   UNL     1      46.685  32.446  46.205  0.00  0.00    +0.000 A 
ATOM     11  C   UNL     1      47.026  31.230  45.664  0.00  0.00    +0.000 A 
ATOM     12  C   UNL     1      47.644  30.241  46.391  0.00  0.00    +0.000 A 
ATOM     13  N   UNL     1      48.067  28.997  46.083  0.00  0.00    +0.000 N 
ATOM     14  C   UNL     1      48.625  28.459  47.234  0.00  0.00    +0.000 A 
ATOM     15  N   UNL     1      48.533  29.371  48.206  0.00  0.00    +0.000 NA
ATOM     16  C   UNL     1      47.936  30.469  47.714  0.00  0.00    +0.000 A 
ATOM     17  C   UNL     1      47.607  31.680  48.287  0.00  0.00    +0.000 A 
ATOM     18  H   UNL     1      46.742  33.612  48.040  0.00  0.00    +0.000 HD
ATOM     19  H   UNL     1      46.781  31.078  44.609  0.00  0.00    +0.000 HD
ATOM     20  H   UNL     1      47.990  28.524  45.151  0.00  0.00    +0.000 HD
ATOM     21  H   UNL     1      49.059  27.467  47.322  0.00  0.00    +0.000 HD
ATOM     22  H   UNL     1      47.823  31.895  49.330  0.00  0.00    +0.000 HD
ENDBRANCH   3  10
BRANCH   1  23
ATOM     23  O   UNL     1      45.692  35.062  42.168  0.00  0.00    +0.000 OA
BRANCH  23  24
ATOM     24  C   UNL     1      44.615  34.920  41.294  0.00  0.00    +0.000 A 
ATOM     25  C   UNL     1      45.015  33.832  40.609  0.00  0.00    +0.000 A 
ATOM     26  S   UNL     1      43.559  33.602  39.403  0.00  0.00    +0.000 S 
ATOM     27  C   UNL     1      42.717  35.103  40.145  0.00  0.00    +0.000 A 
ATOM     28  N   UNL     1      43.453  35.384  40.900  0.00  0.00    +0.000 NA
ATOM     29  H   UNL     1      45.697  32.869  40.230  0.00  0.00    +0.000 HD
BRANCH  27  31
ATOM     30  C   UNL     1      41.165  36.077  38.437  0.00  0.00    +0.000 A 
ATOM     31  C   UNL     1      41.375  35.650  39.703  0.00  0.00    +0.000 A 
ATOM     32  C   UNL     1      40.447  35.661  40.685  0.00  0.00    +0.000 A 
ATOM     33  H   UNL     1      40.657  35.304  41.706  0.00  0.00    +0.000 HD
ATOM     34  C   UNL     1      39.206  36.139  40.370  0.00  0.00    +0.000 A 
ATOM     35  H   UNL     1      38.458  36.148  41.159  0.00  0.00    +0.000 HD
ATOM     36  C   UNL     1      38.853  36.604  39.127  0.00  0.00    +0.000 A 
ATOM     37  C   UNL     1      39.867  36.552  38.196  0.00  0.00    +0.000 A 
BRANCH  30  39
ATOM     38  H   UNL     1      43.493  36.755  37.488  0.00  0.00    +0.000 HD
ATOM     39  S   UNL     1      42.381  36.054  37.186  0.00  0.00    +0.000 S 
ATOM     40  O   UNL     1      41.756  36.731  35.983  0.00  0.00    +0.000 OA
ATOM     41  O   UNL     1      42.646  34.638  36.743  0.00  0.00    +0.000 OA
ENDBRANCH  30  39
ENDBRANCH  27  31
ENDBRANCH  23  24
ENDBRANCH   1  23
TORSDOF 5
