
 OpenBabel03252502503D

 37 39  0  0  0  0  0  0  0  0999 V2000
   44.5850   36.2830   43.9520 C   0  0  0  0  0  0  0  0  0  0  0  0
   44.7800   35.4960   45.0920 C   0  0  0  0  0  0  0  0  0  0  0  0
   45.4950   34.3170   44.9420 C   0  0  0  0  0  0  0  0  0  0  0  0
   45.9690   33.9800   43.7150 N   0  0  0  0  0  0  0  0  0  0  0  0
   45.7610   34.7700   42.6250 C   0  0  0  0  0  0  0  0  0  0  0  0
   45.0720   35.9130   42.7510 N   0  0  0  0  0  0  0  0  0  0  0  0
   44.0440   37.2180   43.9610 H   0  0  0  0  0  0  0  0  0  0  0  0
   44.3640   35.8610   45.9990 H   0  0  0  0  0  0  0  0  0  0  0  0
   48.5270   35.7000   42.0370 Cl  0  0  0  0  0  0  0  0  0  0  0  0
   47.5600   34.7150   40.9620 C   0  0  0  0  0  0  0  0  0  0  0  0
   46.2990   34.3450   41.3350 C   0  0  0  0  0  0  0  0  0  0  0  0
   45.4990   33.5560   40.4940 C   0  0  0  0  0  0  0  0  0  0  0  0
   46.0560   33.1880   39.2990 C   0  0  0  0  0  0  0  0  0  0  0  0
   47.3070   33.5550   38.9280 C   0  0  0  0  0  0  0  0  0  0  0  0
   48.0770   34.3200   39.7460 C   0  0  0  0  0  0  0  0  0  0  0  0
   44.4870   33.2700   40.8150 H   0  0  0  0  0  0  0  0  0  0  0  0
   45.3820   32.5750   38.6920 H   0  0  0  0  0  0  0  0  0  0  0  0
   47.6170   33.1930   37.9580 H   0  0  0  0  0  0  0  0  0  0  0  0
   49.0620   34.5800   39.4010 H   0  0  0  0  0  0  0  0  0  0  0  0
   45.7020   33.4800   46.1570 C   0  0  0  0  0  0  0  0  0  0  0  0
   44.7240   33.0880   46.4280 H   0  0  0  0  0  0  0  0  0  0  0  0
   46.1060   34.1430   46.9410 H   0  0  0  0  0  0  0  0  0  0  0  0
   46.7310   32.3820   45.9320 C   0  0  0  0  0  0  0  0  0  0  0  0
   46.7030   32.2060   44.8200 H   0  0  0  0  0  0  0  0  0  0  0  0
   47.7500   32.7190   46.1890 H   0  0  0  0  0  0  0  0  0  0  0  0
   46.9150   29.9640   46.0430 C   0  0  0  0  0  0  0  0  0  0  0  0
   46.3340   31.1060   46.5490 C   0  0  0  0  0  0  0  0  0  0  0  0
   45.4120   31.0280   47.5990 C   0  0  0  0  0  0  0  0  0  0  0  0
   44.9870   31.9530   47.9560 H   0  0  0  0  0  0  0  0  0  0  0  0
   45.0680   29.7970   48.1510 C   0  0  0  0  0  0  0  0  0  0  0  0
   44.3450   29.7470   48.9730 H   0  0  0  0  0  0  0  0  0  0  0  0
   45.6660   28.6510   47.6280 C   0  0  0  0  0  3  0  0  0  0  0  0
   46.5710   28.7350   46.5950 C   0  0  0  0  0  3  0  0  0  0  0  0
   48.3390   31.1580   44.2250 H   0  0  0  0  0  0  0  0  0  0  0  0
   48.0660   29.9300   44.7500 S   0  0  0  0  0  0  0  0  0  0  0  0
   49.3770   29.3890   45.2800 O   0  0  0  0  0  0  0  0  0  0  0  0
   47.5740   29.0070   43.6850 O   0  0  0  0  0  0  0  0  0  0  0  0
  1  7  1  0  0  0  0
  1  2  1  0  0  0  0
  2  8  1  0  0  0  0
  3  2  2  0  0  0  0
  3 20  1  0  0  0  0
  4  3  1  0  0  0  0
  5  6  1  0  0  0  0
  5  4  2  0  0  0  0
  6  1  2  0  0  0  0
 10 11  1  0  0  0  0
 10  9  1  0  0  0  0
 11  5  1  0  0  0  0
 12 16  1  0  0  0  0
 12 11  2  0  0  0  0
 13 12  1  0  0  0  0
 14 13  2  0  0  0  0
 14 15  1  0  0  0  0
 15 10  2  0  0  0  0
 17 13  1  0  0  0  0
 18 14  1  0  0  0  0
 19 15  1  0  0  0  0
 20 21  1  0  0  0  0
 20 22  1  0  0  0  0
 23 20  1  0  0  0  0
 23 25  1  0  0  0  0
 23 27  1  0  0  0  0
 24 23  1  0  0  0  0
 26 27  2  0  0  0  0
 26 33  1  0  0  0  0
 27 28  1  0  0  0  0
 28 29  1  0  0  0  0
 28 30  2  0  0  0  0
 30 31  1  0  0  0  0
 32 30  1  0  0  0  0
 33 32  2  0  0  0  0
 34 35  1  0  0  0  0
 35 36  2  0  0  0  0
 35 26  1  0  0  0  0
 37 35  2  0  0  0  0
M  END
>  <minimizedAffinity>
-5.58757353

>  <minimizedRMSD>
1.33687103

$$$$
