
 OpenBabel03242520343D

 31 33  0  0  1  0  0  0  0  0999 V2000
   36.9870   27.7070   42.8380 C   0  0  0  0  0  0  0  0  0  0  0  0
   37.1120   26.7120   41.8150 C   0  0  0  0  0  0  0  0  0  0  0  0
   37.5410   27.1180   40.5650 C   0  0  0  0  0  0  0  0  0  0  0  0
   37.8150   28.4360   40.3830 N   0  0  0  0  0  0  0  0  0  0  0  0
   37.6930   29.3550   41.3540 C   0  0  0  0  0  0  0  0  0  0  0  0
   37.2780   28.9720   42.5690 N   0  0  0  0  0  0  0  0  0  0  0  0
   36.6470   27.3360   43.8000 H   0  0  0  0  0  0  0  0  0  0  0  0
   37.6490   26.4010   39.7660 H   0  0  0  0  0  0  0  0  0  0  0  0
   39.2230   31.3150   41.3880 C   0  0  0  0  0  0  0  0  0  0  0  0
   38.0200   30.7400   41.0290 C   0  0  0  0  0  0  0  0  0  0  0  0
   37.0790   31.4800   40.3400 C   0  0  0  0  0  0  0  0  0  0  0  0
   36.1130   31.0590   40.0370 H   0  0  0  0  0  0  0  0  0  0  0  0
   37.3040   32.8150   39.9840 C   0  0  0  0  0  0  0  0  0  0  0  0
   36.5730   33.4050   39.4430 H   0  0  0  0  0  0  0  0  0  0  0  0
   38.5110   33.4310   40.3320 C   0  0  0  0  0  3  0  0  0  0  0  0
   39.4010   32.6310   41.0180 C   0  0  0  0  0  3  0  0  0  0  0  0
   39.9160   29.6960   43.3090 H   0  0  0  0  0  0  0  0  0  0  0  0
   40.4070   30.3970   42.2510 S   0  0  0  0  0  0  0  0  0  0  0  0
   41.4260   31.3800   42.8120 O   0  0  0  0  0  0  0  0  0  0  0  0
   41.2020   29.4680   41.3740 O   0  0  0  0  0  0  0  0  0  0  0  0
   36.7850   25.2730   42.0650 C   0  0  1  0  0  0  0  0  0  0  0  0
   37.3060   24.2500   41.1810 C   0  0  0  0  0  0  0  0  0  0  0  0
   37.9090   24.3570   42.5340 C   0  0  1  0  0  0  0  0  0  0  0  0
   35.8330   25.1670   42.6310 H   0  0  0  0  0  0  0  0  0  0  0  0
   37.9690   24.4980   40.3310 H   0  0  0  0  0  0  0  0  0  0  0  0
   36.6080   23.4140   40.9250 H   0  0  0  0  0  0  0  0  0  0  0  0
   37.5700   23.5290   43.2130 H   0  0  0  0  0  0  0  0  0  0  0  0
   39.2850   24.8960   42.7290 C   0  0  0  0  0  0  0  0  0  0  0  0
   39.3170   25.9100   43.6690 F   0  0  0  0  0  0  0  0  0  0  0  0
   39.8150   25.3770   41.5310 F   0  0  0  0  0  0  0  0  0  0  0  0
   40.0810   23.8850   43.1950 F   0  0  0  0  0  0  0  0  0  0  0  0
  1  7  1  0  0  0  0
  2 21  1  0  0  0  0
  2  1  2  0  0  0  0
  3  2  1  0  0  0  0
  4  3  2  0  0  0  0
  4  5  1  0  0  0  0
  5  6  2  0  0  0  0
  6  1  1  0  0  0  0
  8  3  1  0  0  0  0
  9 18  1  0  0  0  0
 10  5  1  0  0  0  0
 10  9  1  0  0  0  0
 11 10  2  0  0  0  0
 12 11  1  0  0  0  0
 13 15  2  0  0  0  0
 13 11  1  0  0  0  0
 14 13  1  0  0  0  0
 15 16  1  0  0  0  0
 16  9  2  0  0  0  0
 18 19  2  0  0  0  0
 18 17  1  0  0  0  0
 20 18  2  0  0  0  0
 21 23  1  0  0  0  0
 21 24  1  1  0  0  0
 22 21  1  0  0  0  0
 22 23  1  0  0  0  0
 23 28  1  0  0  0  0
 23 27  1  1  0  0  0
 25 22  1  0  0  0  0
 26 22  1  0  0  0  0
 28 31  1  0  0  0  0
 28 29  1  0  0  0  0
 30 28  1  0  0  0  0
M  END
>  <minimizedAffinity>
-5.46766329

$$$$

 OpenBabel03242520343D

 31 33  0  0  1  0  0  0  0  0999 V2000
   38.0080   27.8130   39.1760 C   0  0  0  0  0  0  0  0  0  0  0  0
   36.9160   27.2800   39.9350 C   0  0  0  0  0  0  0  0  0  0  0  0
   36.1880   28.1520   40.7230 C   0  0  0  0  0  0  0  0  0  0  0  0
   36.5540   29.4600   40.7310 N   0  0  0  0  0  0  0  0  0  0  0  0
   37.5810   29.9430   40.0130 C   0  0  0  0  0  0  0  0  0  0  0  0
   38.2930   29.1060   39.2460 N   0  0  0  0  0  0  0  0  0  0  0  0
   38.5460   27.0880   38.5750 H   0  0  0  0  0  0  0  0  0  0  0  0
   35.3570   27.7930   41.3110 H   0  0  0  0  0  0  0  0  0  0  0  0
   38.8870   31.8620   40.9020 C   0  0  0  0  0  0  0  0  0  0  0  0
   37.8710   31.3700   40.1090 C   0  0  0  0  0  0  0  0  0  0  0  0
   37.0870   32.2370   39.3720 C   0  0  0  0  0  0  0  0  0  0  0  0
   36.2720   31.8860   38.7310 H   0  0  0  0  0  0  0  0  0  0  0  0
   37.2910   33.6220   39.4010 C   0  0  0  0  0  0  0  0  0  0  0  0
   36.6830   34.3120   38.8270 H   0  0  0  0  0  0  0  0  0  0  0  0
   38.3110   34.1570   40.1940 C   0  0  0  0  0  3  0  0  0  0  0  0
   39.0510   33.2310   40.9000 C   0  0  0  0  0  3  0  0  0  0  0  0
   40.2710   29.6690   41.1590 H   0  0  0  0  0  0  0  0  0  0  0  0
   39.8730   30.7840   41.8280 S   0  0  0  0  0  0  0  0  0  0  0  0
   39.0440   30.3120   43.0150 O   0  0  0  0  0  0  0  0  0  0  0  0
   41.0800   31.4480   42.4360 O   0  0  0  0  0  0  0  0  0  0  0  0
   36.5610   25.8270   39.8990 C   0  0  1  0  0  0  0  0  0  0  0  0
   37.5860   24.8390   39.6260 C   0  0  0  0  0  0  0  0  0  0  0  0
   37.0830   24.9360   41.0200 C   0  0  1  0  0  0  0  0  0  0  0  0
   35.4860   25.6800   39.6510 H   0  0  0  0  0  0  0  0  0  0  0  0
   38.6420   25.1260   39.4670 H   0  0  0  0  0  0  0  0  0  0  0  0
   37.2890   23.9880   38.9640 H   0  0  0  0  0  0  0  0  0  0  0  0
   36.4000   24.0840   41.2820 H   0  0  0  0  0  0  0  0  0  0  0  0
   37.9220   25.5140   42.1070 C   0  0  0  0  0  0  0  0  0  0  0  0
   38.9210   26.3350   41.6140 F   0  0  0  0  0  0  0  0  0  0  0  0
   38.5080   24.5130   42.8830 F   0  0  0  0  0  0  0  0  0  0  0  0
   37.1210   26.2850   42.9050 F   0  0  0  0  0  0  0  0  0  0  0  0
  1  6  2  0  0  0  0
  1  2  1  0  0  0  0
  2  3  2  0  0  0  0
  3  4  1  0  0  0  0
  3  8  1  0  0  0  0
  5 10  1  0  0  0  0
  5  4  2  0  0  0  0
  6  5  1  0  0  0  0
  7  1  1  0  0  0  0
  9 18  1  0  0  0  0
 10  9  2  0  0  0  0
 11 13  2  0  0  0  0
 11 10  1  0  0  0  0
 12 11  1  0  0  0  0
 13 15  1  0  0  0  0
 14 13  1  0  0  0  0
 15 16  2  0  0  0  0
 16  9  1  0  0  0  0
 17 18  1  0  0  0  0
 18 20  2  0  0  0  0
 18 19  2  0  0  0  0
 21 24  1  6  0  0  0
 21  2  1  0  0  0  0
 21 23  1  0  0  0  0
 22 21  1  0  0  0  0
 22 23  1  0  0  0  0
 23 27  1  1  0  0  0
 23 28  1  0  0  0  0
 25 22  1  0  0  0  0
 26 22  1  0  0  0  0
 28 30  1  0  0  0  0
 28 31  1  0  0  0  0
 29 28  1  0  0  0  0
M  END
>  <minimizedAffinity>
-5.19127321

$$$$

 OpenBabel03242520343D

 31 33  0  0  1  0  0  0  0  0999 V2000
   36.2490   30.2160   39.8150 C   0  0  0  0  0  0  0  0  0  0  0  0
   37.3490   30.5770   38.9720 C   0  0  0  0  0  0  0  0  0  0  0  0
   38.2210   29.5780   38.5800 C   0  0  0  0  0  0  0  0  0  0  0  0
   37.9820   28.3160   39.0210 N   0  0  0  0  0  0  0  0  0  0  0  0
   36.9450   27.9940   39.8110 C   0  0  0  0  0  0  0  0  0  0  0  0
   36.0950   28.9550   40.1970 N   0  0  0  0  0  0  0  0  0  0  0  0
   35.5960   31.0350   40.0930 H   0  0  0  0  0  0  0  0  0  0  0  0
   39.0630   29.8060   37.9450 H   0  0  0  0  0  0  0  0  0  0  0  0
   37.1620   26.1550   41.4700 C   0  0  0  0  0  0  0  0  0  0  0  0
   36.8000   26.5990   40.2150 C   0  0  0  0  0  0  0  0  0  0  0  0
   36.2810   25.7130   39.2910 C   0  0  0  0  0  0  0  0  0  0  0  0
   35.9810   26.0270   38.2850 H   0  0  0  0  0  0  0  0  0  0  0  0
   36.1040   24.3560   39.5870 C   0  0  0  0  0  0  0  0  0  0  0  0
   35.6980   23.6510   38.8700 H   0  0  0  0  0  0  0  0  0  0  0  0
   36.4610   23.8700   40.8490 C   0  0  0  0  0  3  0  0  0  0  0  0
   36.9710   24.8120   41.7170 C   0  0  0  0  0  3  0  0  0  0  0  0
   38.4280   28.3450   42.0960 H   0  0  0  0  0  0  0  0  0  0  0  0
   37.8130   27.2570   42.6330 S   0  0  0  0  0  0  0  0  0  0  0  0
   38.8690   26.5060   43.4320 O   0  0  0  0  0  0  0  0  0  0  0  0
   36.8050   27.7170   43.6530 O   0  0  0  0  0  0  0  0  0  0  0  0
   37.5740   31.9870   38.5230 C   0  0  1  0  0  0  0  0  0  0  0  0
   37.1130   33.0880   39.3450 C   0  0  0  0  0  0  0  0  0  0  0  0
   38.5760   32.8320   39.3010 C   0  0  1  0  0  0  0  0  0  0  0  0
   37.6750   32.0480   37.4160 H   0  0  0  0  0  0  0  0  0  0  0  0
   36.6180   32.9200   40.3190 H   0  0  0  0  0  0  0  0  0  0  0  0
   36.6640   33.9570   38.8020 H   0  0  0  0  0  0  0  0  0  0  0  0
   39.1180   33.5900   38.6740 H   0  0  0  0  0  0  0  0  0  0  0  0
   39.2960   32.2550   40.4700 C   0  0  0  0  0  0  0  0  0  0  0  0
   40.1890   31.2670   40.0950 F   0  0  0  0  0  0  0  0  0  0  0  0
   38.4060   31.7230   41.4030 F   0  0  0  0  0  0  0  0  0  0  0  0
   40.0210   33.2520   41.0640 F   0  0  0  0  0  0  0  0  0  0  0  0
  1  7  1  0  0  0  0
  1  6  1  0  0  0  0
  2  1  2  0  0  0  0
  3  2  1  0  0  0  0
  3  4  2  0  0  0  0
  4  5  1  0  0  0  0
  5  6  2  0  0  0  0
  5 10  1  0  0  0  0
  8  3  1  0  0  0  0
  9 16  1  0  0  0  0
  9 18  1  0  0  0  0
 10  9  2  0  0  0  0
 11 13  2  0  0  0  0
 11 10  1  0  0  0  0
 12 11  1  0  0  0  0
 13 15  1  0  0  0  0
 14 13  1  0  0  0  0
 15 16  2  0  0  0  0
 17 18  1  0  0  0  0
 18 19  2  0  0  0  0
 18 20  2  0  0  0  0
 21 24  1  6  0  0  0
 21  2  1  0  0  0  0
 21 23  1  0  0  0  0
 21 22  1  0  0  0  0
 22 25  1  0  0  0  0
 23 27  1  6  0  0  0
 23 22  1  0  0  0  0
 23 28  1  0  0  0  0
 26 22  1  0  0  0  0
 28 31  1  0  0  0  0
 28 30  1  0  0  0  0
 29 28  1  0  0  0  0
M  END
>  <minimizedAffinity>
-5.18703127

$$$$

 OpenBabel03242520343D

 31 33  0  0  1  0  0  0  0  0999 V2000
   39.1640   28.1270   42.9140 C   0  0  0  0  0  0  0  0  0  0  0  0
   39.9020   27.2780   42.0280 C   0  0  0  0  0  0  0  0  0  0  0  0
   40.1510   27.7370   40.7470 C   0  0  0  0  0  0  0  0  0  0  0  0
   39.6790   28.9630   40.4080 N   0  0  0  0  0  0  0  0  0  0  0  0
   38.9880   29.7480   41.2520 C   0  0  0  0  0  0  0  0  0  0  0  0
   38.7420   29.3120   42.4940 N   0  0  0  0  0  0  0  0  0  0  0  0
   38.9960   27.7210   43.9050 H   0  0  0  0  0  0  0  0  0  0  0  0
   40.7040   27.1280   40.0480 H   0  0  0  0  0  0  0  0  0  0  0  0
   37.4060   31.1870   39.9850 C   0  0  0  0  0  0  0  0  0  0  0  0
   38.5370   31.0470   40.7630 C   0  0  0  0  0  0  0  0  0  0  0  0
   39.2850   32.1580   41.1030 C   0  0  0  0  0  0  0  0  0  0  0  0
   40.1880   32.0870   41.7190 H   0  0  0  0  0  0  0  0  0  0  0  0
   38.9290   33.4450   40.6810 C   0  0  0  0  0  0  0  0  0  0  0  0
   39.5080   34.3240   40.9420 H   0  0  0  0  0  0  0  0  0  0  0  0
   37.7900   33.6250   39.8910 C   0  0  0  0  0  3  0  0  0  0  0  0
   37.0950   32.4720   39.5920 C   0  0  0  0  0  3  0  0  0  0  0  0
   37.1510   28.6280   39.5630 H   0  0  0  0  0  0  0  0  0  0  0  0
   36.4640   29.8020   39.5540 S   0  0  0  0  0  0  0  0  0  0  0  0
   35.9710   30.0110   38.1280 O   0  0  0  0  0  0  0  0  0  0  0  0
   35.2150   29.6460   40.3800 O   0  0  0  0  0  0  0  0  0  0  0  0
   40.3910   25.9280   42.4490 C   0  0  1  0  0  0  0  0  0  0  0  0
   39.9030   25.3340   43.6780 C   0  0  0  0  0  0  0  0  0  0  0  0
   39.4070   24.7640   42.3990 C   0  0  1  0  0  0  0  0  0  0  0  0
   41.3930   25.7080   42.0180 H   0  0  0  0  0  0  0  0  0  0  0  0
   39.1500   25.8410   44.3100 H   0  0  0  0  0  0  0  0  0  0  0  0
   40.6570   24.7880   44.2980 H   0  0  0  0  0  0  0  0  0  0  0  0
   39.8820   23.7740   42.1660 H   0  0  0  0  0  0  0  0  0  0  0  0
   38.0060   24.9870   41.9440 C   0  0  0  0  0  0  0  0  0  0  0  0
   37.9520   25.5430   40.6780 F   0  0  0  0  0  0  0  0  0  0  0  0
   37.3110   25.8130   42.8270 F   0  0  0  0  0  0  0  0  0  0  0  0
   37.3770   23.7730   41.8800 F   0  0  0  0  0  0  0  0  0  0  0  0
  1  7  1  0  0  0  0
  2 21  1  0  0  0  0
  2  1  2  0  0  0  0
  3  2  1  0  0  0  0
  4  3  2  0  0  0  0
  4  5  1  0  0  0  0
  5  6  2  0  0  0  0
  6  1  1  0  0  0  0
  8  3  1  0  0  0  0
  9 10  1  0  0  0  0
 10 11  2  0  0  0  0
 10  5  1  0  0  0  0
 11 12  1  0  0  0  0
 13 14  1  0  0  0  0
 13 11  1  0  0  0  0
 15 13  2  0  0  0  0
 16 15  1  0  0  0  0
 16  9  2  0  0  0  0
 18 17  1  0  0  0  0
 18  9  1  0  0  0  0
 18 20  2  0  0  0  0
 19 18  2  0  0  0  0
 21 24  1  6  0  0  0
 21 22  1  0  0  0  0
 22 26  1  0  0  0  0
 22 25  1  0  0  0  0
 23 27  1  6  0  0  0
 23 21  1  0  0  0  0
 23 22  1  0  0  0  0
 28 23  1  0  0  0  0
 28 30  1  0  0  0  0
 29 28  1  0  0  0  0
 31 28  1  0  0  0  0
M  END
>  <minimizedAffinity>
-5.14047194

$$$$

 OpenBabel03242520343D

 31 33  0  0  1  0  0  0  0  0999 V2000
   39.7430   27.9410   40.5060 C   0  0  0  0  0  0  0  0  0  0  0  0
   39.7080   27.5830   41.8920 C   0  0  0  0  0  0  0  0  0  0  0  0
   39.4110   28.5740   42.8100 C   0  0  0  0  0  0  0  0  0  0  0  0
   39.1730   29.8250   42.3400 N   0  0  0  0  0  0  0  0  0  0  0  0
   39.2090   30.1430   41.0360 C   0  0  0  0  0  0  0  0  0  0  0  0
   39.4960   29.1910   40.1390 N   0  0  0  0  0  0  0  0  0  0  0  0
   39.9800   27.1280   39.8280 H   0  0  0  0  0  0  0  0  0  0  0  0
   39.3740   28.3470   43.8640 H   0  0  0  0  0  0  0  0  0  0  0  0
   39.9140   32.4970   40.6560 C   0  0  0  0  0  0  0  0  0  0  0  0
   38.9330   31.5270   40.6620 C   0  0  0  0  0  0  0  0  0  0  0  0
   37.6380   31.8510   40.3060 C   0  0  0  0  0  0  0  0  0  0  0  0
   36.8320   31.1100   40.2980 H   0  0  0  0  0  0  0  0  0  0  0  0
   37.2780   33.1520   39.9320 C   0  0  0  0  0  0  0  0  0  0  0  0
   36.2660   33.4180   39.6510 H   0  0  0  0  0  0  0  0  0  0  0  0
   38.2460   34.1610   39.9160 C   0  0  0  0  0  3  0  0  0  0  0  0
   39.5150   33.7620   40.2820 C   0  0  0  0  0  3  0  0  0  0  0  0
   41.6470   31.3610   42.2370 H   0  0  0  0  0  0  0  0  0  0  0  0
   41.5380   32.1010   41.1000 S   0  0  0  0  0  0  0  0  0  0  0  0
   42.2740   33.4090   41.3560 O   0  0  0  0  0  0  0  0  0  0  0  0
   42.3130   31.4260   40.0000 O   0  0  0  0  0  0  0  0  0  0  0  0
   39.9900   26.1890   42.3580 C   0  0  1  0  0  0  0  0  0  0  0  0
   39.5680   25.7700   43.6800 C   0  0  0  0  0  0  0  0  0  0  0  0
   38.8110   25.2370   42.5190 C   0  0  1  0  0  0  0  0  0  0  0  0
   40.8680   25.7560   41.8290 H   0  0  0  0  0  0  0  0  0  0  0  0
   39.0120   26.4470   44.3550 H   0  0  0  0  0  0  0  0  0  0  0  0
   40.2840   25.1240   44.2460 H   0  0  0  0  0  0  0  0  0  0  0  0
   39.0590   24.1620   42.3100 H   0  0  0  0  0  0  0  0  0  0  0  0
   37.4260   25.7010   42.2180 C   0  0  0  0  0  0  0  0  0  0  0  0
   37.3010   26.1550   40.9170 F   0  0  0  0  0  0  0  0  0  0  0  0
   37.0320   26.7190   43.0880 F   0  0  0  0  0  0  0  0  0  0  0  0
   36.5770   24.6380   42.3610 F   0  0  0  0  0  0  0  0  0  0  0  0
  1  2  1  0  0  0  0
  2 21  1  0  0  0  0
  2  3  2  0  0  0  0
  3  8  1  0  0  0  0
  4  3  1  0  0  0  0
  5  4  2  0  0  0  0
  6  1  2  0  0  0  0
  6  5  1  0  0  0  0
  7  1  1  0  0  0  0
  9 10  1  0  0  0  0
  9 18  1  0  0  0  0
 10  5  1  0  0  0  0
 11 10  2  0  0  0  0
 12 11  1  0  0  0  0
 13 11  1  0  0  0  0
 14 13  1  0  0  0  0
 15 13  2  0  0  0  0
 15 16  1  0  0  0  0
 16  9  2  0  0  0  0
 18 19  2  0  0  0  0
 18 17  1  0  0  0  0
 20 18  2  0  0  0  0
 21 24  1  6  0  0  0
 21 23  1  0  0  0  0
 21 22  1  0  0  0  0
 22 26  1  0  0  0  0
 22 25  1  0  0  0  0
 23 27  1  6  0  0  0
 23 22  1  0  0  0  0
 28 31  1  0  0  0  0
 28 23  1  0  0  0  0
 28 30  1  0  0  0  0
 29 28  1  0  0  0  0
M  END
>  <minimizedAffinity>
-5.10349035

$$$$

 OpenBabel03242520343D

 31 33  0  0  1  0  0  0  0  0999 V2000
   37.4820   29.9600   41.9680 C   0  0  0  0  0  0  0  0  0  0  0  0
   38.6250   30.4340   41.2460 C   0  0  0  0  0  0  0  0  0  0  0  0
   39.2610   29.5550   40.3890 C   0  0  0  0  0  0  0  0  0  0  0  0
   38.7640   28.2960   40.2850 N   0  0  0  0  0  0  0  0  0  0  0  0
   37.6900   27.8680   40.9690 C   0  0  0  0  0  0  0  0  0  0  0  0
   37.0670   28.7110   41.8020 N   0  0  0  0  0  0  0  0  0  0  0  0
   37.0200   30.6880   42.6260 H   0  0  0  0  0  0  0  0  0  0  0  0
   40.1250   29.8710   39.8260 H   0  0  0  0  0  0  0  0  0  0  0  0
   36.5420   26.0990   39.6520 C   0  0  0  0  0  0  0  0  0  0  0  0
   37.2560   26.4890   40.7670 C   0  0  0  0  0  0  0  0  0  0  0  0
   37.5820   25.5620   41.7380 C   0  0  0  0  0  0  0  0  0  0  0  0
   38.1470   25.8320   42.6370 H   0  0  0  0  0  0  0  0  0  0  0  0
   37.2090   24.2170   41.6300 C   0  0  0  0  0  0  0  0  0  0  0  0
   37.4590   23.4810   42.3860 H   0  0  0  0  0  0  0  0  0  0  0  0
   36.4840   23.7860   40.5150 C   0  0  0  0  0  3  0  0  0  0  0  0
   36.1960   24.7660   39.5890 C   0  0  0  0  0  3  0  0  0  0  0  0
   35.7730   28.4750   38.9080 H   0  0  0  0  0  0  0  0  0  0  0  0
   36.1290   27.2520   38.4310 S   0  0  0  0  0  0  0  0  0  0  0  0
   34.9230   26.7070   37.6770 O   0  0  0  0  0  0  0  0  0  0  0  0
   37.1970   27.4260   37.3850 O   0  0  0  0  0  0  0  0  0  0  0  0
   39.1390   31.8300   41.4060 C   0  0  1  0  0  0  0  0  0  0  0  0
   39.8960   32.4480   40.3360 C   0  0  0  0  0  0  0  0  0  0  0  0
   38.5070   32.9260   40.5560 C   0  0  1  0  0  0  0  0  0  0  0  0
   39.2700   32.0920   42.4800 H   0  0  0  0  0  0  0  0  0  0  0  0
   40.0860   31.9250   39.3800 H   0  0  0  0  0  0  0  0  0  0  0  0
   40.7750   33.0680   40.6440 H   0  0  0  0  0  0  0  0  0  0  0  0
   38.4820   33.9320   41.0540 H   0  0  0  0  0  0  0  0  0  0  0  0
   37.4140   32.5960   39.5990 C   0  0  0  0  0  0  0  0  0  0  0  0
   36.3590   31.9480   40.2180 F   0  0  0  0  0  0  0  0  0  0  0  0
   37.8780   31.7980   38.5530 F   0  0  0  0  0  0  0  0  0  0  0  0
   36.9250   33.7660   39.0850 F   0  0  0  0  0  0  0  0  0  0  0  0
  1  7  1  0  0  0  0
  2 21  1  0  0  0  0
  2  1  2  0  0  0  0
  3  2  1  0  0  0  0
  4  3  2  0  0  0  0
  4  5  1  0  0  0  0
  5  6  2  0  0  0  0
  6  1  1  0  0  0  0
  8  3  1  0  0  0  0
  9 10  1  0  0  0  0
 10  5  1  0  0  0  0
 10 11  2  0  0  0  0
 11 12  1  0  0  0  0
 13 11  1  0  0  0  0
 13 14  1  0  0  0  0
 15 13  2  0  0  0  0
 16  9  2  0  0  0  0
 16 15  1  0  0  0  0
 18 17  1  0  0  0  0
 18  9  1  0  0  0  0
 19 18  2  0  0  0  0
 20 18  2  0  0  0  0
 21 24  1  1  0  0  0
 22 23  1  0  0  0  0
 22 26  1  0  0  0  0
 22 21  1  0  0  0  0
 23 27  1  1  0  0  0
 23 21  1  0  0  0  0
 25 22  1  0  0  0  0
 28 29  1  0  0  0  0
 28 23  1  0  0  0  0
 30 28  1  0  0  0  0
 31 28  1  0  0  0  0
M  END
>  <minimizedAffinity>
-5.0669055

$$$$

 OpenBabel03242520343D

 31 33  0  0  1  0  0  0  0  0999 V2000
   37.9760   26.6810   40.0270 C   0  0  0  0  0  0  0  0  0  0  0  0
   37.1760   26.2840   41.1470 C   0  0  0  0  0  0  0  0  0  0  0  0
   36.5550   27.2760   41.8840 C   0  0  0  0  0  0  0  0  0  0  0  0
   36.7440   28.5650   41.5020 N   0  0  0  0  0  0  0  0  0  0  0  0
   37.4970   28.9200   40.4480 C   0  0  0  0  0  0  0  0  0  0  0  0
   38.1030   27.9660   39.7280 N   0  0  0  0  0  0  0  0  0  0  0  0
   38.4400   25.8650   39.4830 H   0  0  0  0  0  0  0  0  0  0  0  0
   35.9430   27.0210   42.7360 H   0  0  0  0  0  0  0  0  0  0  0  0
   36.9940   30.9150   39.0540 C   0  0  0  0  0  0  0  0  0  0  0  0
   37.6190   30.3410   40.1420 C   0  0  0  0  0  0  0  0  0  0  0  0
   38.3920   31.1180   40.9840 C   0  0  0  0  0  0  0  0  0  0  0  0
   38.9030   30.6990   41.8580 H   0  0  0  0  0  0  0  0  0  0  0  0
   38.5660   32.4900   40.7710 C   0  0  0  0  0  0  0  0  0  0  0  0
   39.1700   33.1090   41.4250 H   0  0  0  0  0  0  0  0  0  0  0  0
   37.9490   33.1060   39.6770 C   0  0  0  0  0  3  0  0  0  0  0  0
   37.1940   32.2690   38.8830 C   0  0  0  0  0  3  0  0  0  0  0  0
   35.2980   30.6640   37.0910 H   0  0  0  0  0  0  0  0  0  0  0  0
   36.0240   29.9520   37.9940 S   0  0  0  0  0  0  0  0  0  0  0  0
   35.0270   29.1890   38.8550 O   0  0  0  0  0  0  0  0  0  0  0  0
   36.8060   28.8900   37.2660 O   0  0  0  0  0  0  0  0  0  0  0  0
   37.0100   24.8480   41.5330 C   0  0  1  0  0  0  0  0  0  0  0  0
   37.8660   23.8380   40.9440 C   0  0  0  0  0  0  0  0  0  0  0  0
   38.1110   24.1990   42.3630 C   0  0  1  0  0  0  0  0  0  0  0  0
   35.9760   24.6430   41.8920 H   0  0  0  0  0  0  0  0  0  0  0  0
   38.6670   24.1000   40.2280 H   0  0  0  0  0  0  0  0  0  0  0  0
   37.3750   22.8700   40.6720 H   0  0  0  0  0  0  0  0  0  0  0  0
   37.7450   23.4070   43.0690 H   0  0  0  0  0  0  0  0  0  0  0  0
   39.3100   24.9880   42.7650 C   0  0  0  0  0  0  0  0  0  0  0  0
   40.1460   24.2730   43.6040 F   0  0  0  0  0  0  0  0  0  0  0  0
   38.9470   26.1760   43.3990 F   0  0  0  0  0  0  0  0  0  0  0  0
   40.0270   25.2850   41.6370 F   0  0  0  0  0  0  0  0  0  0  0  0
  1  2  1  0  0  0  0
  2 21  1  0  0  0  0
  2  3  2  0  0  0  0
  3  8  1  0  0  0  0
  4  3  1  0  0  0  0
  5  4  2  0  0  0  0
  6  1  2  0  0  0  0
  6  5  1  0  0  0  0
  7  1  1  0  0  0  0
  9 10  1  0  0  0  0
 10  5  1  0  0  0  0
 10 11  2  0  0  0  0
 11 12  1  0  0  0  0
 13 11  1  0  0  0  0
 13 14  1  0  0  0  0
 15 13  2  0  0  0  0
 16  9  2  0  0  0  0
 16 15  1  0  0  0  0
 17 18  1  0  0  0  0
 18 19  2  0  0  0  0
 18  9  1  0  0  0  0
 20 18  2  0  0  0  0
 21 24  1  1  0  0  0
 21 23  1  0  0  0  0
 22 21  1  0  0  0  0
 22 23  1  0  0  0  0
 23 28  1  0  0  0  0
 23 27  1  1  0  0  0
 25 22  1  0  0  0  0
 26 22  1  0  0  0  0
 28 30  1  0  0  0  0
 28 29  1  0  0  0  0
 31 28  1  0  0  0  0
M  END
>  <minimizedAffinity>
-5.03635883

$$$$

 OpenBabel03242520343D

 31 33  0  0  1  0  0  0  0  0999 V2000
   39.7920   28.7590   42.5260 C   0  0  0  0  0  0  0  0  0  0  0  0
   38.3800   28.7550   42.7660 C   0  0  0  0  0  0  0  0  0  0  0  0
   37.6110   29.7150   42.1340 C   0  0  0  0  0  0  0  0  0  0  0  0
   38.2420   30.6040   41.3250 N   0  0  0  0  0  0  0  0  0  0  0  0
   39.5680   30.5940   41.1100 C   0  0  0  0  0  0  0  0  0  0  0  0
   40.3220   29.6680   41.7180 N   0  0  0  0  0  0  0  0  0  0  0  0
   40.3490   27.9870   43.0450 H   0  0  0  0  0  0  0  0  0  0  0  0
   36.5440   29.7460   42.2870 H   0  0  0  0  0  0  0  0  0  0  0  0
   40.3360   31.3640   38.8740 C   0  0  0  0  0  0  0  0  0  0  0  0
   40.1230   31.6050   40.2160 C   0  0  0  0  0  0  0  0  0  0  0  0
   40.4400   32.8370   40.7560 C   0  0  0  0  0  0  0  0  0  0  0  0
   40.2850   33.0670   41.8160 H   0  0  0  0  0  0  0  0  0  0  0  0
   40.9760   33.8690   39.9760 C   0  0  0  0  0  0  0  0  0  0  0  0
   41.2280   34.8400   40.3880 H   0  0  0  0  0  0  0  0  0  0  0  0
   41.2060   33.6610   38.6130 C   0  0  0  0  0  3  0  0  0  0  0  0
   40.8660   32.4080   38.1460 C   0  0  0  0  0  3  0  0  0  0  0  0
   39.9750   28.7910   39.0730 H   0  0  0  0  0  0  0  0  0  0  0  0
   39.9440   29.8250   38.1900 S   0  0  0  0  0  0  0  0  0  0  0  0
   40.9860   29.5210   37.1230 O   0  0  0  0  0  0  0  0  0  0  0  0
   38.6250   29.8100   37.4640 O   0  0  0  0  0  0  0  0  0  0  0  0
   37.7350   27.7580   43.6770 C   0  0  1  0  0  0  0  0  0  0  0  0
   36.2980   27.5750   43.6460 C   0  0  0  0  0  0  0  0  0  0  0  0
   37.1370   26.5020   43.0530 C   0  0  1  0  0  0  0  0  0  0  0  0
   38.3570   27.5760   44.5820 H   0  0  0  0  0  0  0  0  0  0  0  0
   35.6550   28.1350   42.9420 H   0  0  0  0  0  0  0  0  0  0  0  0
   35.7950   27.4330   44.6350 H   0  0  0  0  0  0  0  0  0  0  0  0
   37.1900   25.5950   43.7130 H   0  0  0  0  0  0  0  0  0  0  0  0
   37.2010   26.2940   41.5790 C   0  0  0  0  0  0  0  0  0  0  0  0
   38.4990   26.3430   41.1020 F   0  0  0  0  0  0  0  0  0  0  0  0
   36.4370   27.2430   40.8990 F   0  0  0  0  0  0  0  0  0  0  0  0
   36.7140   25.0460   41.3000 F   0  0  0  0  0  0  0  0  0  0  0  0
  1  2  1  0  0  0  0
  1  7  1  0  0  0  0
  2 21  1  0  0  0  0
  3  8  1  0  0  0  0
  3  2  2  0  0  0  0
  4  3  1  0  0  0  0
  5  4  2  0  0  0  0
  5  6  1  0  0  0  0
  6  1  2  0  0  0  0
  9 10  1  0  0  0  0
 10 11  2  0  0  0  0
 10  5  1  0  0  0  0
 11 12  1  0  0  0  0
 13 14  1  0  0  0  0
 13 11  1  0  0  0  0
 15 13  2  0  0  0  0
 16 15  1  0  0  0  0
 16  9  2  0  0  0  0
 18  9  1  0  0  0  0
 18 17  1  0  0  0  0
 19 18  2  0  0  0  0
 20 18  2  0  0  0  0
 21 24  1  1  0  0  0
 22 21  1  0  0  0  0
 22 26  1  0  0  0  0
 23 22  1  0  0  0  0
 23 21  1  0  0  0  0
 23 27  1  1  0  0  0
 25 22  1  0  0  0  0
 28 23  1  0  0  0  0
 29 28  1  0  0  0  0
 30 28  1  0  0  0  0
 31 28  1  0  0  0  0
M  END
>  <minimizedAffinity>
-4.97916079

$$$$

 OpenBabel03242520343D

 31 33  0  0  1  0  0  0  0  0999 V2000
   39.7740   30.1060   39.8620 C   0  0  0  0  0  0  0  0  0  0  0  0
   39.6590   31.0890   40.8970 C   0  0  0  0  0  0  0  0  0  0  0  0
   39.2270   30.6710   42.1420 C   0  0  0  0  0  0  0  0  0  0  0  0
   38.9360   29.3550   42.3070 N   0  0  0  0  0  0  0  0  0  0  0  0
   39.0510   28.4460   41.3240 C   0  0  0  0  0  0  0  0  0  0  0  0
   39.4680   28.8410   40.1140 N   0  0  0  0  0  0  0  0  0  0  0  0
   40.1170   30.4860   38.9050 H   0  0  0  0  0  0  0  0  0  0  0  0
   39.1260   31.3790   42.9510 H   0  0  0  0  0  0  0  0  0  0  0  0
   39.6370   26.1630   42.1150 C   0  0  0  0  0  0  0  0  0  0  0  0
   38.7070   27.0620   41.6310 C   0  0  0  0  0  0  0  0  0  0  0  0
   37.4020   26.6600   41.4210 C   0  0  0  0  0  0  0  0  0  0  0  0
   36.6360   27.3430   41.0390 H   0  0  0  0  0  0  0  0  0  0  0  0
   36.9800   25.3520   41.6870 C   0  0  0  0  0  0  0  0  0  0  0  0
   35.9580   25.0250   41.5270 H   0  0  0  0  0  0  0  0  0  0  0  0
   37.8940   24.4140   42.1770 C   0  0  0  0  0  3  0  0  0  0  0  0
   39.1770   24.8870   42.3610 C   0  0  0  0  0  3  0  0  0  0  0  0
   41.8130   27.3870   41.3670 H   0  0  0  0  0  0  0  0  0  0  0  0
   41.2730   26.6560   42.3800 S   0  0  0  0  0  0  0  0  0  0  0  0
   42.1150   25.3950   42.5080 O   0  0  0  0  0  0  0  0  0  0  0  0
   41.4740   27.3940   43.6770 O   0  0  0  0  0  0  0  0  0  0  0  0
   39.9810   32.5310   40.6600 C   0  0  1  0  0  0  0  0  0  0  0  0
   40.1350   33.0240   39.3060 C   0  0  0  0  0  0  0  0  0  0  0  0
   38.9030   33.4120   40.0400 C   0  0  1  0  0  0  0  0  0  0  0  0
   40.4990   32.9790   41.5380 H   0  0  0  0  0  0  0  0  0  0  0  0
   39.9930   32.3670   38.4280 H   0  0  0  0  0  0  0  0  0  0  0  0
   40.9610   33.7600   39.1370 H   0  0  0  0  0  0  0  0  0  0  0  0
   38.9340   34.4810   40.3810 H   0  0  0  0  0  0  0  0  0  0  0  0
   37.5760   32.8340   39.6850 C   0  0  0  0  0  0  0  0  0  0  0  0
   36.9720   32.2160   40.7650 F   0  0  0  0  0  0  0  0  0  0  0  0
   37.6870   31.9110   38.6440 F   0  0  0  0  0  0  0  0  0  0  0  0
   36.7550   33.8550   39.2900 F   0  0  0  0  0  0  0  0  0  0  0  0
  1  6  2  0  0  0  0
  1  2  1  0  0  0  0
  2  3  2  0  0  0  0
  3  4  1  0  0  0  0
  3  8  1  0  0  0  0
  5 10  1  0  0  0  0
  5  4  2  0  0  0  0
  6  5  1  0  0  0  0
  7  1  1  0  0  0  0
  9 16  1  0  0  0  0
  9 18  1  0  0  0  0
 10  9  2  0  0  0  0
 11 10  1  0  0  0  0
 11 13  2  0  0  0  0
 12 11  1  0  0  0  0
 13 15  1  0  0  0  0
 14 13  1  0  0  0  0
 15 16  2  0  0  0  0
 17 18  1  0  0  0  0
 18 19  2  0  0  0  0
 18 20  2  0  0  0  0
 21  2  1  0  0  0  0
 21 24  1  1  0  0  0
 22 23  1  0  0  0  0
 22 21  1  0  0  0  0
 23 27  1  1  0  0  0
 23 21  1  0  0  0  0
 25 22  1  0  0  0  0
 26 22  1  0  0  0  0
 28 23  1  0  0  0  0
 28 29  1  0  0  0  0
 30 28  1  0  0  0  0
 31 28  1  0  0  0  0
M  END
>  <minimizedAffinity>
-4.96617842

$$$$
