
 OpenBabel03242518013D

 40 42  0  0  0  0  0  0  0  0999 V2000
   46.2380   31.6900   46.4360 C   0  0  0  0  0  0  0  0  0  0  0  0
   45.7070   30.8270   45.9290 H   0  0  0  0  0  0  0  0  0  0  0  0
   45.4400   32.2100   46.9780 H   0  0  0  0  0  0  0  0  0  0  0  0
   47.2020   31.3530   48.7110 C   0  0  0  0  0  0  0  0  0  0  0  0
   47.2330   31.1060   47.3090 C   0  0  0  0  0  0  0  0  0  0  0  0
   48.2650   30.2850   46.8440 C   0  0  0  0  0  0  0  0  0  0  0  0
   49.1600   29.7800   47.7390 N   0  0  0  0  0  0  0  0  0  0  0  0
   49.0940   30.0370   49.0410 C   0  0  0  0  0  0  0  0  0  0  0  0
   48.1320   30.8110   49.5240 N   0  0  0  0  0  0  0  0  0  0  0  0
   46.4360   31.9790   49.1570 H   0  0  0  0  0  0  0  0  0  0  0  0
   48.3450   30.0590   45.7930 H   0  0  0  0  0  0  0  0  0  0  0  0
   50.9160   30.2360   50.7300 C   0  0  0  0  0  0  0  0  0  0  0  0
   50.0820   29.4670   49.9490 C   0  0  0  0  0  0  0  0  0  0  0  0
   50.2280   28.0980   50.0650 C   0  0  0  0  0  0  0  0  0  0  0  0
   49.6130   27.4090   49.4870 H   0  0  0  0  0  0  0  0  0  0  0  0
   51.1410   27.4880   50.9020 C   0  0  0  0  0  0  0  0  0  0  0  0
   51.2530   26.4170   50.9910 H   0  0  0  0  0  0  0  0  0  0  0  0
   51.9710   28.2670   51.6810 C   0  0  0  0  0  3  0  0  0  0  0  0
   51.8270   29.6340   51.5660 C   0  0  0  0  0  3  0  0  0  0  0  0
   49.5240   32.4320   50.5080 H   0  0  0  0  0  0  0  0  0  0  0  0
   50.8040   31.9780   50.6500 S   0  0  0  0  0  0  0  0  0  0  0  0
   51.7580   32.5700   49.6390 O   0  0  0  0  0  0  0  0  0  0  0  0
   51.2610   32.5610   51.9820 O   0  0  0  0  0  0  0  0  0  0  0  0
   46.9610   32.5420   45.4120 C   0  0  0  0  0  0  0  0  0  0  0  0
   47.2700   31.8640   44.5920 H   0  0  0  0  0  0  0  0  0  0  0  0
   47.9400   32.9360   45.8180 H   0  0  0  0  0  0  0  0  0  0  0  0
   46.4670   34.2290   43.6970 C   0  0  0  0  0  0  0  0  0  0  0  0
   46.2120   33.7140   44.9510 C   0  0  0  0  0  0  0  0  0  0  0  0
   45.2780   34.2440   45.8000 C   0  0  0  0  0  0  0  0  0  0  0  0
   44.5570   35.3450   45.3810 C   0  0  0  0  0  0  0  0  0  0  0  0
   44.7490   35.9150   44.1550 C   0  0  0  0  0  0  0  0  0  0  0  0
   45.7140   35.3250   43.3430 C   0  0  0  0  0  0  0  0  0  0  0  0
   45.0140   33.9250   46.7740 H   0  0  0  0  0  0  0  0  0  0  0  0
   43.7930   35.8360   45.9880 H   0  0  0  0  0  0  0  0  0  0  0  0
   44.2190   36.7760   43.7670 H   0  0  0  0  0  0  0  0  0  0  0  0
   45.8850   35.7620   42.3610 H   0  0  0  0  0  0  0  0  0  0  0  0
   47.6540   33.5870   42.5820 S   0  0  0  0  0  0  0  0  0  0  0  0
   49.0510   34.0890   42.8850 O   0  0  0  0  0  0  0  0  0  0  0  0
   47.3560   34.1180   41.2000 O   0  0  0  0  0  0  0  0  0  0  0  0
   47.6410   32.2410   42.4800 H   0  0  0  0  0  0  0  0  0  0  0  0
  1  3  1  0  0  0  0
  1  5  1  0  0  0  0
  2  1  1  0  0  0  0
  4 10  1  0  0  0  0
  4  9  1  0  0  0  0
  5  4  2  0  0  0  0
  6  5  1  0  0  0  0
  6  7  2  0  0  0  0
  7  8  1  0  0  0  0
  8  9  2  0  0  0  0
  8 13  1  0  0  0  0
 11  6  1  0  0  0  0
 12 19  1  0  0  0  0
 13 14  1  0  0  0  0
 13 12  2  0  0  0  0
 14 16  2  0  0  0  0
 15 14  1  0  0  0  0
 16 17  1  0  0  0  0
 16 18  1  0  0  0  0
 19 18  2  0  0  0  0
 20 21  1  0  0  0  0
 21 12  1  0  0  0  0
 21 23  2  0  0  0  0
 22 21  2  0  0  0  0
 24 26  1  0  0  0  0
 24  1  1  0  0  0  0
 25 24  1  0  0  0  0
 27 28  1  0  0  0  0
 28 24  1  0  0  0  0
 28 29  2  0  0  0  0
 29 33  1  0  0  0  0
 30 29  1  0  0  0  0
 30 34  1  0  0  0  0
 31 30  2  0  0  0  0
 32 27  2  0  0  0  0
 32 31  1  0  0  0  0
 35 31  1  0  0  0  0
 36 32  1  0  0  0  0
 37 38  2  0  0  0  0
 37 27  1  0  0  0  0
 39 37  2  0  0  0  0
 40 37  1  0  0  0  0
M  END
>  <minimizedAffinity>
-5.71477699

>  <minimizedRMSD>
0.976584911

$$$$
