
     RDKit          3D

 47 49  0  0  0  0  0  0  0  0999 V2000
   43.8734   35.2375   41.2059 C   0  0  0  0  0  0  0  0  0  0  0  0
   43.9458   35.5821   42.4892 C   0  0  0  0  0  0  0  0  0  0  0  0
   45.2310   35.5395   43.3059 C   0  0  0  0  0  0  0  0  0  0  0  0
   45.0060   34.6576   44.3469 O   0  0  0  0  0  0  0  0  0  0  0  0
   45.6999   32.5001   42.9501 O   0  0  0  0  0  0  0  0  0  0  0  0
   46.0001   33.3028   44.1947 P   0  0  1  0  0  0  0  0  0  0  0  0
   47.6318   33.7892   44.0965 O   0  0  0  0  0  0  0  0  0  0  0  0
   45.8610   32.3243   45.5609 O   0  0  0  0  0  0  0  0  0  0  0  0
   46.2025   32.9891   46.7226 C   0  0  0  0  0  0  0  0  0  0  0  0
   47.0593   32.3019   47.7376 C   0  0  0  0  0  0  0  0  0  0  0  0
   45.5672   32.4428   47.9805 C   0  0  0  0  0  0  0  0  0  0  0  0
   42.6240   35.3330   40.6176 O   0  0  0  0  0  0  0  0  0  0  0  0
   41.4440   35.6457   41.2069 C   0  0  0  0  0  0  0  0  0  0  0  0
   40.2786   33.5471   41.5946 C   0  0  0  0  0  0  0  0  0  0  0  0
   40.3137   34.7298   40.8404 C   0  0  0  0  0  0  0  0  0  0  0  0
   39.3609   34.9326   39.9058 C   0  0  0  0  0  0  0  0  0  0  0  0
   38.4481   33.9779   39.7730 N   0  0  0  0  0  0  0  0  0  0  0  0
   38.3887   32.8580   40.4666 C   0  0  0  0  0  0  0  0  0  0  0  0
   39.3520   32.5969   41.4474 N   0  0  0  0  0  0  0  0  0  0  0  0
   44.7336   34.9070   40.6715 H   0  0  0  0  0  0  0  0  0  0  0  0
   43.1816   35.9349   43.1652 H   0  0  0  0  0  0  0  0  0  0  0  0
   45.4703   36.5309   43.6971 H   0  0  0  0  0  0  0  0  0  0  0  0
   46.0602   35.2151   42.6435 H   0  0  0  0  0  0  0  0  0  0  0  0
   47.7830   34.3978   44.8488 H   0  0  0  0  0  0  0  0  0  0  0  0
   46.3516   34.0779   46.5924 H   0  0  0  0  0  0  0  0  0  0  0  0
   47.4878   31.3179   47.5525 H   0  0  0  0  0  0  0  0  0  0  0  0
   47.6669   32.9742   48.3761 H   0  0  0  0  0  0  0  0  0  0  0  0
   45.2161   33.2378   48.6971 H   0  0  0  0  0  0  0  0  0  0  0  0
   45.0187   31.4990   47.9484 H   0  0  0  0  0  0  0  0  0  0  0  0
   41.3922   35.6962   42.3087 H   0  0  0  0  0  0  0  0  0  0  0  0
   41.0939   36.6563   40.8462 H   0  0  0  0  0  0  0  0  0  0  0  0
   41.0122   33.3233   42.3578 H   0  0  0  0  0  0  0  0  0  0  0  0
   39.4242   35.8401   39.3565 H   0  0  0  0  0  0  0  0  0  0  0  0
   40.2218   30.6861   39.2097 H   0  0  0  0  0  0  0  0  0  0  0  0
   39.0847   30.7483   38.4452 S   0  0  0  0  0  0  0  0  0  0  0  0
   39.0637   29.4350   37.6763 O   0  0  0  0  0  0  0  0  0  0  0  0
   39.1353   31.8121   37.3919 O   0  0  0  0  0  0  0  0  0  0  0  0
   37.6235   30.8324   39.3672 C   0  0  0  0  0  0  0  0  0  0  0  0
   37.3629   31.8342   40.2861 C   0  0  0  0  0  0  0  0  0  0  0  0
   36.1724   31.8427   40.9915 C   0  0  0  0  0  0  0  0  0  0  0  0
   35.9947   32.6477   41.7113 H   0  0  0  0  0  0  0  0  0  0  0  0
   35.1923   30.8846   40.8344 C   0  0  0  0  0  0  0  0  0  0  0  0
   34.2817   30.9192   41.3954 H   0  0  0  0  0  0  0  0  0  0  0  0
   35.4095   29.8665   39.9285 C   0  0  0  0  0  0  0  0  0  0  0  0
   36.6042   29.8819   39.2389 C   0  0  0  0  0  0  0  0  0  0  0  0
   34.7043   29.0709   39.7343 H   0  0  0  0  0  0  0  0  0  0  0  0
   36.8122   29.0892   38.5108 H   0  0  0  0  0  0  0  0  0  0  0  0
  1  2  2  0
  2  3  1  0
  3  4  1  0
  6  5  2  0
  6  4  1  1
  6  8  1  0
  7  6  1  0
  8  9  1  0
  9 10  1  0
  9 11  1  0
 10 11  1  0
 12  1  1  0
 12 13  1  0
 15 13  1  0
 15 14  2  0
 16 15  1  0
 17 16  2  0
 17 18  1  0
 18 19  2  0
 19 14  1  0
  1 20  1  0
  2 21  1  0
  3 22  1  0
  3 23  1  0
  7 24  1  0
  9 25  1  0
 10 26  1  0
 10 27  1  0
 11 28  1  0
 11 29  1  0
 13 30  1  0
 13 31  1  0
 14 32  1  0
 16 33  1  0
 34 35  1  0
 35 36  2  0
 35 37  2  0
 35 38  1  0
 38 39  2  0
 39 40  1  0
 40 41  1  0
 40 42  2  0
 42 43  1  0
 42 44  1  0
 44 45  2  0
 45 38  1  0
 44 46  1  0
 45 47  1  0
 18 39  1  0
M  ISO  8  22   8  23   8  24   3  25  13  26  13  27  13  28  13  29  13
M  ISO  7  30   8  31   8  32  14  33  14  34  12  41  15  43  16
M  END
>  <DihAtoms>  (1) 
16,17,38,37

>  <DihDeg>  (1) 
0.005414786344668365

$$$$
