
 OpenBabel03252507243D

 50 53  0  0  1  0  0  0  0  0999 V2000
   38.9720   29.2280   40.3290 C   0  0  0  0  0  0  0  0  0  0  0  0
   39.5300   28.7580   39.2850 O   0  0  0  0  0  0  0  0  0  0  0  0
   38.5120   28.4190   41.4020 N   0  0  0  0  0  0  0  0  0  0  0  0
   38.6350   28.5930   42.8470 C   0  0  0  0  0  0  0  0  0  0  0  0
   37.2680   28.4650   43.5070 C   0  0  0  0  0  0  0  0  0  0  0  0
   36.7080   27.0970   43.2980 C   0  0  0  0  0  0  0  0  0  0  0  0
   37.5500   26.3600   42.2590 C   0  0  0  0  0  0  0  0  0  0  0  0
   37.8070   27.2030   41.0720 C   0  0  2  0  0  0  0  0  0  0  0  0
   39.0300   29.6160   43.0590 H   0  0  0  0  0  0  0  0  0  0  0  0
   39.2890   27.8390   43.3170 H   0  0  0  0  0  0  0  0  0  0  0  0
   36.6110   29.2440   43.0250 H   0  0  0  0  0  0  0  0  0  0  0  0
   37.4380   28.6930   44.5900 H   0  0  0  0  0  0  0  0  0  0  0  0
   36.7330   26.4730   44.2030 H   0  0  0  0  0  0  0  0  0  0  0  0
   35.6480   27.1040   42.9500 H   0  0  0  0  0  0  0  0  0  0  0  0
   38.4610   26.0630   42.7990 H   0  0  0  0  0  0  0  0  0  0  0  0
   36.9500   25.4780   41.9650 H   0  0  0  0  0  0  0  0  0  0  0  0
   36.7830   27.5270   40.6920 H   0  0  0  0  0  0  0  0  0  0  0  0
   39.9010   31.4180   40.8760 C   0  0  0  0  0  0  0  0  0  0  0  0
   38.8040   30.6500   40.4110 C   0  0  0  0  0  0  0  0  0  0  0  0
   37.6280   31.2840   40.0570 C   0  0  0  0  0  0  0  0  0  0  0  0
   37.5820   32.6270   40.1740 N   0  0  0  0  0  0  0  0  0  0  0  0
   38.6140   33.3770   40.6150 C   0  0  0  0  0  0  0  0  0  0  0  0
   39.7640   32.7550   40.9610 N   0  0  0  0  0  0  0  0  0  0  0  0
   40.8130   30.9110   41.1490 H   0  0  0  0  0  0  0  0  0  0  0  0
   38.5210   34.4510   40.6880 H   0  0  0  0  0  0  0  0  0  0  0  0
   36.5290   30.4780   39.5910 C   0  0  0  0  0  0  0  0  0  0  0  0
   35.6210   29.9760   40.4610 C   0  0  0  0  0  0  0  0  0  0  0  0
   34.5800   29.2110   39.9810 C   0  0  0  0  0  0  0  0  0  0  0  0
   34.4150   28.9260   38.6300 C   0  0  0  0  0  0  0  0  0  0  0  0
   35.3720   29.4630   37.7850 C   0  0  0  0  0  0  0  0  0  0  0  0
   36.3770   30.2060   38.2770 N   0  0  0  0  0  0  0  0  0  0  0  0
   35.6170   30.1070   41.5310 H   0  0  0  0  0  0  0  0  0  0  0  0
   33.8180   28.7780   40.6190 H   0  0  0  0  0  0  0  0  0  0  0  0
   33.5800   28.3140   38.2770 H   0  0  0  0  0  0  0  0  0  0  0  0
   35.2660   29.2540   36.7160 H   0  0  0  0  0  0  0  0  0  0  0  0
   38.4350   26.4140   39.9600 C   0  0  0  0  0  0  0  0  0  0  0  0
   38.7390   27.1080   39.1160 H   0  0  0  0  0  0  0  0  0  0  0  0
   39.2800   25.7820   40.2500 H   0  0  0  0  0  0  0  0  0  0  0  0
   37.3800   24.1460   39.3240 C   0  0  0  0  0  0  0  0  0  0  0  0
   37.4330   25.5160   39.2920 C   0  0  0  0  0  0  0  0  0  0  0  0
   36.3620   26.0960   38.5950 C   0  0  0  0  0  0  0  0  0  0  0  0
   36.3210   27.1940   38.5160 H   0  0  0  0  0  0  0  0  0  0  0  0
   35.3240   25.4250   37.9820 C   0  0  0  0  0  0  0  0  0  0  0  0
   34.5450   25.9710   37.4710 H   0  0  0  0  0  0  0  0  0  0  0  0
   35.3470   24.0490   38.0640 C   0  0  0  0  0  3  0  0  0  0  0  0
   36.3680   23.4400   38.7290 C   0  0  0  0  0  3  0  0  0  0  0  0
   39.1840   23.8290   41.1810 H   0  0  0  0  0  0  0  0  0  0  0  0
   38.6490   23.2350   40.0590 S   0  0  0  0  0  0  0  0  0  0  0  0
   39.8180   23.1410   39.0830 O   0  0  0  0  0  0  0  0  0  0  0  0
   38.2700   21.7890   40.3100 O   0  0  0  0  0  0  0  0  0  0  0  0
  1 19  1  0  0  0  0
  1  3  1  0  0  0  0
  2  1  2  0  0  0  0
  3  4  1  0  0  0  0
  4  9  1  0  0  0  0
  4 10  1  0  0  0  0
  4  5  1  0  0  0  0
  5 12  1  0  0  0  0
  6  5  1  0  0  0  0
  6 13  1  0  0  0  0
  7 15  1  0  0  0  0
  7  6  1  0  0  0  0
  8 17  1  6  0  0  0
  8  3  1  0  0  0  0
  8  7  1  0  0  0  0
 11  5  1  0  0  0  0
 14  6  1  0  0  0  0
 16  7  1  0  0  0  0
 18 23  1  0  0  0  0
 18 24  1  0  0  0  0
 19 18  2  0  0  0  0
 20 21  2  0  0  0  0
 20 19  1  0  0  0  0
 21 22  1  0  0  0  0
 22 25  1  0  0  0  0
 22 23  2  0  0  0  0
 26 20  1  0  0  0  0
 26 27  1  0  0  0  0
 27 32  1  0  0  0  0
 28 27  2  0  0  0  0
 28 33  1  0  0  0  0
 29 28  1  0  0  0  0
 30 31  1  0  0  0  0
 30 29  2  0  0  0  0
 31 26  2  0  0  0  0
 34 29  1  0  0  0  0
 35 30  1  0  0  0  0
 36 38  1  0  0  0  0
 36  8  1  0  0  0  0
 37 36  1  0  0  0  0
 39 48  1  0  0  0  0
 40 39  1  0  0  0  0
 40 36  1  0  0  0  0
 41 40  2  0  0  0  0
 42 41  1  0  0  0  0
 43 45  2  0  0  0  0
 43 41  1  0  0  0  0
 44 43  1  0  0  0  0
 45 46  1  0  0  0  0
 46 39  2  0  0  0  0
 48 50  2  0  0  0  0
 48 47  1  0  0  0  0
 49 48  2  0  0  0  0
M  END
>  <minimizedAffinity>
-6.29889917

$$$$

 OpenBabel03252507243D

 50 53  0  0  1  0  0  0  0  0999 V2000
   39.0360   29.2210   40.3090 C   0  0  0  0  0  0  0  0  0  0  0  0
   39.6180   28.7630   39.2730 O   0  0  0  0  0  0  0  0  0  0  0  0
   38.5560   28.4020   41.3650 N   0  0  0  0  0  0  0  0  0  0  0  0
   38.6480   28.5630   42.8130 C   0  0  0  0  0  0  0  0  0  0  0  0
   37.2680   28.4260   43.4430 C   0  0  0  0  0  0  0  0  0  0  0  0
   36.7160   27.0580   43.2100 C   0  0  0  0  0  0  0  0  0  0  0  0
   37.5820   26.3320   42.1820 C   0  0  0  0  0  0  0  0  0  0  0  0
   37.8620   27.1870   41.0090 C   0  0  2  0  0  0  0  0  0  0  0  0
   39.0360   29.5850   43.0430 H   0  0  0  0  0  0  0  0  0  0  0  0
   39.2940   27.8060   43.2910 H   0  0  0  0  0  0  0  0  0  0  0  0
   36.6190   29.2070   42.9550 H   0  0  0  0  0  0  0  0  0  0  0  0
   37.4140   28.6440   44.5310 H   0  0  0  0  0  0  0  0  0  0  0  0
   36.7230   26.4260   44.1100 H   0  0  0  0  0  0  0  0  0  0  0  0
   35.6630   27.0650   42.8400 H   0  0  0  0  0  0  0  0  0  0  0  0
   38.4820   26.0330   42.7390 H   0  0  0  0  0  0  0  0  0  0  0  0
   36.9910   25.4520   41.8680 H   0  0  0  0  0  0  0  0  0  0  0  0
   36.8450   27.5110   40.6100 H   0  0  0  0  0  0  0  0  0  0  0  0
   39.9570   31.4120   40.8680 C   0  0  0  0  0  0  0  0  0  0  0  0
   38.8630   30.6420   40.4000 C   0  0  0  0  0  0  0  0  0  0  0  0
   37.6830   31.2730   40.0520 C   0  0  0  0  0  0  0  0  0  0  0  0
   37.6320   32.6160   40.1770 N   0  0  0  0  0  0  0  0  0  0  0  0
   38.6610   33.3680   40.6210 C   0  0  0  0  0  0  0  0  0  0  0  0
   39.8150   32.7480   40.9610 N   0  0  0  0  0  0  0  0  0  0  0  0
   40.8720   30.9070   41.1350 H   0  0  0  0  0  0  0  0  0  0  0  0
   38.5640   34.4410   40.7010 H   0  0  0  0  0  0  0  0  0  0  0  0
   36.5870   30.4660   39.5830 C   0  0  0  0  0  0  0  0  0  0  0  0
   35.6570   29.9930   40.4460 C   0  0  0  0  0  0  0  0  0  0  0  0
   34.6190   29.2250   39.9640 C   0  0  0  0  0  0  0  0  0  0  0  0
   34.4790   28.9090   38.6180 C   0  0  0  0  0  0  0  0  0  0  0  0
   35.4580   29.4180   37.7790 C   0  0  0  0  0  0  0  0  0  0  0  0
   36.4590   30.1640   38.2740 N   0  0  0  0  0  0  0  0  0  0  0  0
   35.6330   30.1490   41.5130 H   0  0  0  0  0  0  0  0  0  0  0  0
   33.8410   28.8140   40.5970 H   0  0  0  0  0  0  0  0  0  0  0  0
   33.6450   28.2960   38.2620 H   0  0  0  0  0  0  0  0  0  0  0  0
   35.3710   29.1840   36.7140 H   0  0  0  0  0  0  0  0  0  0  0  0
   38.5150   26.4100   39.9030 C   0  0  0  0  0  0  0  0  0  0  0  0
   38.2060   26.8320   38.8970 H   0  0  0  0  0  0  0  0  0  0  0  0
   39.6050   26.3360   39.9610 H   0  0  0  0  0  0  0  0  0  0  0  0
   36.9350   24.5350   39.0970 C   0  0  0  0  0  0  0  0  0  0  0  0
   37.9900   25.0040   39.8360 C   0  0  0  0  0  0  0  0  0  0  0  0
   38.6640   23.9950   40.5420 C   0  0  0  0  0  0  0  0  0  0  0  0
   39.5270   24.2790   41.1660 H   0  0  0  0  0  0  0  0  0  0  0  0
   38.3600   22.6500   40.5390 C   0  0  0  0  0  0  0  0  0  0  0  0
   38.9460   21.9550   41.1200 H   0  0  0  0  0  0  0  0  0  0  0  0
   37.2850   22.2640   39.7670 C   0  0  0  0  0  3  0  0  0  0  0  0
   36.5970   23.2080   39.0650 C   0  0  0  0  0  3  0  0  0  0  0  0
   35.4280   26.6610   38.9830 H   0  0  0  0  0  0  0  0  0  0  0  0
   35.9230   25.6260   38.2210 S   0  0  0  0  0  0  0  0  0  0  0  0
   34.6830   24.8740   37.7460 O   0  0  0  0  0  0  0  0  0  0  0  0
   36.5590   26.1220   36.9380 O   0  0  0  0  0  0  0  0  0  0  0  0
  1 19  1  0  0  0  0
  1  3  1  0  0  0  0
  2  1  2  0  0  0  0
  3  4  1  0  0  0  0
  4  9  1  0  0  0  0
  4 10  1  0  0  0  0
  4  5  1  0  0  0  0
  5 12  1  0  0  0  0
  6  5  1  0  0  0  0
  6 13  1  0  0  0  0
  7 15  1  0  0  0  0
  7  6  1  0  0  0  0
  8 17  1  6  0  0  0
  8  3  1  0  0  0  0
  8  7  1  0  0  0  0
 11  5  1  0  0  0  0
 14  6  1  0  0  0  0
 16  7  1  0  0  0  0
 18 23  1  0  0  0  0
 18 24  1  0  0  0  0
 19 18  2  0  0  0  0
 20 21  2  0  0  0  0
 20 19  1  0  0  0  0
 21 22  1  0  0  0  0
 22 25  1  0  0  0  0
 22 23  2  0  0  0  0
 26 20  1  0  0  0  0
 26 27  1  0  0  0  0
 27 32  1  0  0  0  0
 28 27  2  0  0  0  0
 28 33  1  0  0  0  0
 29 28  1  0  0  0  0
 30 31  1  0  0  0  0
 30 29  2  0  0  0  0
 31 26  2  0  0  0  0
 34 29  1  0  0  0  0
 35 30  1  0  0  0  0
 36 38  1  0  0  0  0
 36  8  1  0  0  0  0
 37 36  1  0  0  0  0
 39 40  1  0  0  0  0
 40 36  1  0  0  0  0
 40 41  2  0  0  0  0
 41 42  1  0  0  0  0
 43 41  1  0  0  0  0
 43 44  1  0  0  0  0
 45 43  2  0  0  0  0
 46 39  2  0  0  0  0
 46 45  1  0  0  0  0
 48 47  1  0  0  0  0
 48 39  1  0  0  0  0
 49 48  2  0  0  0  0
 50 48  2  0  0  0  0
M  END
>  <minimizedAffinity>
-6.29149723

$$$$

 OpenBabel03252507243D

 50 53  0  0  1  0  0  0  0  0999 V2000
   37.7980   26.9070   39.7000 C   0  0  0  0  0  0  0  0  0  0  0  0
   38.4370   27.3470   38.6890 O   0  0  0  0  0  0  0  0  0  0  0  0
   37.5780   27.6670   40.8790 N   0  0  0  0  0  0  0  0  0  0  0  0
   36.3800   27.8290   41.6980 C   0  0  0  0  0  0  0  0  0  0  0  0
   36.7040   27.5510   43.1590 C   0  0  0  0  0  0  0  0  0  0  0  0
   37.6990   28.5380   43.6760 C   0  0  0  0  0  0  0  0  0  0  0  0
   38.2790   29.3290   42.5050 C   0  0  0  0  0  0  0  0  0  0  0  0
   38.6830   28.4390   41.3960 C   0  0  2  0  0  0  0  0  0  0  0  0
   35.6090   27.0930   41.3650 H   0  0  0  0  0  0  0  0  0  0  0  0
   35.9610   28.8490   41.6520 H   0  0  0  0  0  0  0  0  0  0  0  0
   37.1230   26.5050   43.1970 H   0  0  0  0  0  0  0  0  0  0  0  0
   35.7250   27.6130   43.7000 H   0  0  0  0  0  0  0  0  0  0  0  0
   37.2600   29.2830   44.3550 H   0  0  0  0  0  0  0  0  0  0  0  0
   38.5420   28.0630   44.2320 H   0  0  0  0  0  0  0  0  0  0  0  0
   37.4890   30.0460   42.2360 H   0  0  0  0  0  0  0  0  0  0  0  0
   39.1700   29.8440   42.9120 H   0  0  0  0  0  0  0  0  0  0  0  0
   39.4070   27.6850   41.8490 H   0  0  0  0  0  0  0  0  0  0  0  0
   36.1510   25.3440   38.8060 C   0  0  0  0  0  0  0  0  0  0  0  0
   37.2820   25.5710   39.6290 C   0  0  0  0  0  0  0  0  0  0  0  0
   37.8420   24.5170   40.3260 C   0  0  0  0  0  0  0  0  0  0  0  0
   37.2740   23.3020   40.1860 N   0  0  0  0  0  0  0  0  0  0  0  0
   36.1970   23.0630   39.4080 C   0  0  0  0  0  0  0  0  0  0  0  0
   35.6500   24.0960   38.7260 N   0  0  0  0  0  0  0  0  0  0  0  0
   35.7240   26.1740   38.2670 H   0  0  0  0  0  0  0  0  0  0  0  0
   35.7830   22.0670   39.3320 H   0  0  0  0  0  0  0  0  0  0  0  0
   38.9890   24.7780   41.1580 C   0  0  0  0  0  0  0  0  0  0  0  0
   38.8820   24.7660   42.5080 C   0  0  0  0  0  0  0  0  0  0  0  0
   39.9990   25.0170   43.2740 C   0  0  0  0  0  0  0  0  0  0  0  0
   41.2460   25.2870   42.7210 C   0  0  0  0  0  0  0  0  0  0  0  0
   41.2990   25.2870   41.3370 C   0  0  0  0  0  0  0  0  0  0  0  0
   40.1950   25.0390   40.6120 N   0  0  0  0  0  0  0  0  0  0  0  0
   37.9870   24.5780   43.0790 H   0  0  0  0  0  0  0  0  0  0  0  0
   39.9870   25.0240   44.3580 H   0  0  0  0  0  0  0  0  0  0  0  0
   42.1170   25.4850   43.3540 H   0  0  0  0  0  0  0  0  0  0  0  0
   42.2690   25.4970   40.8760 H   0  0  0  0  0  0  0  0  0  0  0  0
   39.4570   29.1820   40.3460 C   0  0  0  0  0  0  0  0  0  0  0  0
   40.5250   29.3390   40.6910 H   0  0  0  0  0  0  0  0  0  0  0  0
   39.4450   28.7320   39.3490 H   0  0  0  0  0  0  0  0  0  0  0  0
   39.6450   31.7550   40.4190 C   0  0  0  0  0  0  0  0  0  0  0  0
   38.9580   30.5900   40.1910 C   0  0  0  0  0  0  0  0  0  0  0  0
   37.6640   30.7980   39.6890 C   0  0  0  0  0  0  0  0  0  0  0  0
   37.0360   29.9190   39.4750 H   0  0  0  0  0  0  0  0  0  0  0  0
   37.0750   32.0170   39.4230 C   0  0  0  0  0  0  0  0  0  0  0  0
   36.0690   32.0660   39.0360 H   0  0  0  0  0  0  0  0  0  0  0  0
   37.8360   33.1370   39.6800 C   0  0  0  0  0  3  0  0  0  0  0  0
   39.0980   32.9860   40.1700 C   0  0  0  0  0  3  0  0  0  0  0  0
   42.0370   30.7320   40.6090 H   0  0  0  0  0  0  0  0  0  0  0  0
   41.2240   31.7200   41.1160 S   0  0  0  0  0  0  0  0  0  0  0  0
   41.1000   31.3880   42.6010 O   0  0  0  0  0  0  0  0  0  0  0  0
   41.9040   33.0750   41.1040 O   0  0  0  0  0  0  0  0  0  0  0  0
  1  3  1  0  0  0  0
  2  1  2  0  0  0  0
  3  8  1  0  0  0  0
  3  4  1  0  0  0  0
  4  5  1  0  0  0  0
  5 11  1  0  0  0  0
  5  6  1  0  0  0  0
  5 12  1  0  0  0  0
  6 14  1  0  0  0  0
  6 13  1  0  0  0  0
  7 16  1  0  0  0  0
  7  6  1  0  0  0  0
  8 17  1  1  0  0  0
  8  7  1  0  0  0  0
  9  4  1  0  0  0  0
 10  4  1  0  0  0  0
 15  7  1  0  0  0  0
 18 19  1  0  0  0  0
 19  1  1  0  0  0  0
 19 20  2  0  0  0  0
 20 26  1  0  0  0  0
 21 20  1  0  0  0  0
 22 21  2  0  0  0  0
 23 18  2  0  0  0  0
 23 22  1  0  0  0  0
 24 18  1  0  0  0  0
 25 22  1  0  0  0  0
 26 27  1  0  0  0  0
 27 32  1  0  0  0  0
 27 28  2  0  0  0  0
 28 33  1  0  0  0  0
 29 28  1  0  0  0  0
 29 34  1  0  0  0  0
 30 29  2  0  0  0  0
 31 26  2  0  0  0  0
 31 30  1  0  0  0  0
 35 30  1  0  0  0  0
 36 37  1  0  0  0  0
 36  8  1  0  0  0  0
 38 36  1  0  0  0  0
 39 48  1  0  0  0  0
 40 36  1  0  0  0  0
 40 39  1  0  0  0  0
 41 40  2  0  0  0  0
 42 41  1  0  0  0  0
 43 45  2  0  0  0  0
 43 41  1  0  0  0  0
 44 43  1  0  0  0  0
 45 46  1  0  0  0  0
 46 39  2  0  0  0  0
 47 48  1  0  0  0  0
 48 49  2  0  0  0  0
 50 48  2  0  0  0  0
M  END
>  <minimizedAffinity>
-6.12676764

$$$$

 OpenBabel03252507243D

 50 53  0  0  1  0  0  0  0  0999 V2000
   38.2250   26.6460   39.8870 C   0  0  0  0  0  0  0  0  0  0  0  0
   38.8240   27.0790   38.8490 O   0  0  0  0  0  0  0  0  0  0  0  0
   37.7820   27.4860   40.9430 N   0  0  0  0  0  0  0  0  0  0  0  0
   36.5270   27.4960   41.6900 C   0  0  0  0  0  0  0  0  0  0  0  0
   36.8100   27.4780   43.1860 C   0  0  0  0  0  0  0  0  0  0  0  0
   37.5500   28.7090   43.5980 C   0  0  0  0  0  0  0  0  0  0  0  0
   38.0300   29.4490   42.3520 C   0  0  0  0  0  0  0  0  0  0  0  0
   38.6740   28.5300   41.3890 C   0  0  2  0  0  0  0  0  0  0  0  0
   35.9430   26.5800   41.4340 H   0  0  0  0  0  0  0  0  0  0  0  0
   35.9150   28.3930   41.4910 H   0  0  0  0  0  0  0  0  0  0  0  0
   37.4280   26.5560   43.3800 H   0  0  0  0  0  0  0  0  0  0  0  0
   35.8060   27.4030   43.6780 H   0  0  0  0  0  0  0  0  0  0  0  0
   36.9280   29.4250   44.1540 H   0  0  0  0  0  0  0  0  0  0  0  0
   38.4350   28.4940   44.2430 H   0  0  0  0  0  0  0  0  0  0  0  0
   37.1310   29.9450   41.9590 H   0  0  0  0  0  0  0  0  0  0  0  0
   38.7720   30.1860   42.7150 H   0  0  0  0  0  0  0  0  0  0  0  0
   39.5060   28.0070   41.9660 H   0  0  0  0  0  0  0  0  0  0  0  0
   36.9520   24.6820   39.1970 C   0  0  0  0  0  0  0  0  0  0  0  0
   37.9950   25.2330   39.9810 C   0  0  0  0  0  0  0  0  0  0  0  0
   38.7450   24.4080   40.7990 C   0  0  0  0  0  0  0  0  0  0  0  0
   38.4400   23.0940   40.8090 N   0  0  0  0  0  0  0  0  0  0  0  0
   37.4510   22.5480   40.0700 C   0  0  0  0  0  0  0  0  0  0  0  0
   36.7190   23.3570   39.2710 N   0  0  0  0  0  0  0  0  0  0  0  0
   36.3740   25.3360   38.5630 H   0  0  0  0  0  0  0  0  0  0  0  0
   37.2520   21.4870   40.1170 H   0  0  0  0  0  0  0  0  0  0  0  0
   39.7960   24.9970   41.5870 C   0  0  0  0  0  0  0  0  0  0  0  0
   40.9980   25.2850   41.0340 C   0  0  0  0  0  0  0  0  0  0  0  0
   41.9810   25.8510   41.8160 C   0  0  0  0  0  0  0  0  0  0  0  0
   41.7970   26.1440   43.1620 C   0  0  0  0  0  0  0  0  0  0  0  0
   40.5500   25.8280   43.6780 C   0  0  0  0  0  0  0  0  0  0  0  0
   39.6080   25.2770   42.8940 N   0  0  0  0  0  0  0  0  0  0  0  0
   41.2910   25.1150   40.0100 H   0  0  0  0  0  0  0  0  0  0  0  0
   42.9660   26.1070   41.4400 H   0  0  0  0  0  0  0  0  0  0  0  0
   42.5970   26.5910   43.7610 H   0  0  0  0  0  0  0  0  0  0  0  0
   40.3790   26.0480   44.7350 H   0  0  0  0  0  0  0  0  0  0  0  0
   39.3460   29.2790   40.2760 C   0  0  0  0  0  0  0  0  0  0  0  0
   40.4070   29.5460   40.5720 H   0  0  0  0  0  0  0  0  0  0  0  0
   39.3420   28.7780   39.3030 H   0  0  0  0  0  0  0  0  0  0  0  0
   37.6500   30.9470   39.2750 C   0  0  0  0  0  0  0  0  0  0  0  0
   38.7220   30.6300   40.0680 C   0  0  0  0  0  0  0  0  0  0  0  0
   39.2110   31.7220   40.8020 C   0  0  0  0  0  0  0  0  0  0  0  0
   40.0740   31.5620   41.4680 H   0  0  0  0  0  0  0  0  0  0  0  0
   38.7160   33.0090   40.7830 C   0  0  0  0  0  0  0  0  0  0  0  0
   39.1680   33.7780   41.3900 H   0  0  0  0  0  0  0  0  0  0  0  0
   37.6350   33.2400   39.9590 C   0  0  0  0  0  3  0  0  0  0  0  0
   37.1260   32.2120   39.2250 C   0  0  0  0  0  3  0  0  0  0  0  0
   37.5540   28.5280   38.3030 H   0  0  0  0  0  0  0  0  0  0  0  0
   36.9520   29.7640   38.2280 S   0  0  0  0  0  0  0  0  0  0  0  0
   37.1600   30.2040   36.7810 O   0  0  0  0  0  0  0  0  0  0  0  0
   35.4450   29.6700   38.3640 O   0  0  0  0  0  0  0  0  0  0  0  0
  1 19  1  0  0  0  0
  1  3  1  0  0  0  0
  2  1  2  0  0  0  0
  3  8  1  0  0  0  0
  3  4  1  0  0  0  0
  4  5  1  0  0  0  0
  5 11  1  0  0  0  0
  5  6  1  0  0  0  0
  5 12  1  0  0  0  0
  6 13  1  0  0  0  0
  6 14  1  0  0  0  0
  7 16  1  0  0  0  0
  7  6  1  0  0  0  0
  8 17  1  1  0  0  0
  8  7  1  0  0  0  0
  9  4  1  0  0  0  0
 10  4  1  0  0  0  0
 15  7  1  0  0  0  0
 18 23  2  0  0  0  0
 18 19  1  0  0  0  0
 19 20  2  0  0  0  0
 20 21  1  0  0  0  0
 20 26  1  0  0  0  0
 22 25  1  0  0  0  0
 22 21  2  0  0  0  0
 23 22  1  0  0  0  0
 24 18  1  0  0  0  0
 26 31  1  0  0  0  0
 27 26  2  0  0  0  0
 27 28  1  0  0  0  0
 28 29  2  0  0  0  0
 29 30  1  0  0  0  0
 29 34  1  0  0  0  0
 30 35  1  0  0  0  0
 31 30  2  0  0  0  0
 32 27  1  0  0  0  0
 33 28  1  0  0  0  0
 36 37  1  0  0  0  0
 36  8  1  0  0  0  0
 38 36  1  0  0  0  0
 39 40  1  0  0  0  0
 40 36  1  0  0  0  0
 40 41  2  0  0  0  0
 41 42  1  0  0  0  0
 43 41  1  0  0  0  0
 43 44  1  0  0  0  0
 45 43  2  0  0  0  0
 46 39  2  0  0  0  0
 46 45  1  0  0  0  0
 48 47  1  0  0  0  0
 48 50  2  0  0  0  0
 48 39  1  0  0  0  0
 49 48  2  0  0  0  0
M  END
>  <minimizedAffinity>
-6.05372143

$$$$

 OpenBabel03252507243D

 50 53  0  0  1  0  0  0  0  0999 V2000
   38.9000   30.8650   41.7000 C   0  0  0  0  0  0  0  0  0  0  0  0
   39.4870   30.6490   42.8100 O   0  0  0  0  0  0  0  0  0  0  0  0
   37.6470   30.2940   41.3530 N   0  0  0  0  0  0  0  0  0  0  0  0
   36.4730   30.8880   40.7170 C   0  0  0  0  0  0  0  0  0  0  0  0
   36.0390   30.0410   39.5290 C   0  0  0  0  0  0  0  0  0  0  0  0
   35.6250   28.6770   39.9760 C   0  0  0  0  0  0  0  0  0  0  0  0
   36.0350   28.4780   41.4340 C   0  0  0  0  0  0  0  0  0  0  0  0
   37.4330   28.9010   41.6670 C   0  0  2  0  0  0  0  0  0  0  0  0
   36.7380   31.9060   40.3430 H   0  0  0  0  0  0  0  0  0  0  0  0
   35.6050   30.9570   41.3960 H   0  0  0  0  0  0  0  0  0  0  0  0
   36.9290   29.9820   38.8400 H   0  0  0  0  0  0  0  0  0  0  0  0
   35.1960   30.6040   39.0540 H   0  0  0  0  0  0  0  0  0  0  0  0
   34.5380   28.5200   39.9450 H   0  0  0  0  0  0  0  0  0  0  0  0
   36.0790   27.8590   39.3690 H   0  0  0  0  0  0  0  0  0  0  0  0
   35.2960   29.0510   42.0120 H   0  0  0  0  0  0  0  0  0  0  0  0
   35.9400   27.3920   41.6210 H   0  0  0  0  0  0  0  0  0  0  0  0
   38.0650   28.3120   40.9240 H   0  0  0  0  0  0  0  0  0  0  0  0
   39.3900   33.1270   40.9270 C   0  0  0  0  0  0  0  0  0  0  0  0
   39.5530   31.7290   40.7600 C   0  0  0  0  0  0  0  0  0  0  0  0
   40.3210   31.2510   39.7160 C   0  0  0  0  0  0  0  0  0  0  0  0
   40.8890   32.1550   38.8920 N   0  0  0  0  0  0  0  0  0  0  0  0
   40.7470   33.4900   39.0320 C   0  0  0  0  0  0  0  0  0  0  0  0
   39.9950   33.9560   40.0550 N   0  0  0  0  0  0  0  0  0  0  0  0
   38.7890   33.4870   41.7470 H   0  0  0  0  0  0  0  0  0  0  0  0
   41.2260   34.1700   38.3410 H   0  0  0  0  0  0  0  0  0  0  0  0
   40.4660   29.8250   39.5690 C   0  0  0  0  0  0  0  0  0  0  0  0
   39.5750   29.1110   38.8420 C   0  0  0  0  0  0  0  0  0  0  0  0
   39.7440   27.7490   38.7190 C   0  0  0  0  0  0  0  0  0  0  0  0
   40.7980   27.0640   39.3130 C   0  0  0  0  0  0  0  0  0  0  0  0
   41.6800   27.8430   40.0450 C   0  0  0  0  0  0  0  0  0  0  0  0
   41.4930   29.1690   40.1500 N   0  0  0  0  0  0  0  0  0  0  0  0
   38.7090   29.4960   38.3270 H   0  0  0  0  0  0  0  0  0  0  0  0
   39.0700   27.1150   38.1530 H   0  0  0  0  0  0  0  0  0  0  0  0
   40.9070   25.9810   39.2000 H   0  0  0  0  0  0  0  0  0  0  0  0
   42.5190   27.3290   40.5240 H   0  0  0  0  0  0  0  0  0  0  0  0
   37.9110   28.5000   43.0310 C   0  0  0  0  0  0  0  0  0  0  0  0
   38.5150   29.3400   43.4930 H   0  0  0  0  0  0  0  0  0  0  0  0
   37.1310   28.1720   43.7250 H   0  0  0  0  0  0  0  0  0  0  0  0
   38.7610   26.1520   42.3790 C   0  0  0  0  0  0  0  0  0  0  0  0
   38.9170   27.3860   42.9550 C   0  0  0  0  0  0  0  0  0  0  0  0
   40.2090   27.6060   43.4570 C   0  0  0  0  0  0  0  0  0  0  0  0
   40.4270   28.5710   43.9390 H   0  0  0  0  0  0  0  0  0  0  0  0
   41.2670   26.7220   43.4090 C   0  0  0  0  0  0  0  0  0  0  0  0
   42.2250   26.9920   43.8260 H   0  0  0  0  0  0  0  0  0  0  0  0
   41.0250   25.5040   42.8110 C   0  0  0  0  0  3  0  0  0  0  0  0
   39.7850   25.2440   42.3100 C   0  0  0  0  0  3  0  0  0  0  0  0
   36.1760   26.4420   42.1940 H   0  0  0  0  0  0  0  0  0  0  0  0
   37.2230   25.6520   41.7760 S   0  0  0  0  0  0  0  0  0  0  0  0
   36.9020   24.2670   42.3310 O   0  0  0  0  0  0  0  0  0  0  0  0
   37.2140   25.4500   40.2740 O   0  0  0  0  0  0  0  0  0  0  0  0
  1  2  2  0  0  0  0
  3  8  1  0  0  0  0
  3  1  1  0  0  0  0
  4  3  1  0  0  0  0
  4 10  1  0  0  0  0
  5  6  1  0  0  0  0
  5  4  1  0  0  0  0
  6  7  1  0  0  0  0
  7 16  1  0  0  0  0
  7  8  1  0  0  0  0
  7 15  1  0  0  0  0
  8 17  1  6  0  0  0
  8 36  1  0  0  0  0
  9  4  1  0  0  0  0
 11  5  1  0  0  0  0
 12  5  1  0  0  0  0
 13  6  1  0  0  0  0
 14  6  1  0  0  0  0
 18 24  1  0  0  0  0
 19 18  1  0  0  0  0
 19  1  1  0  0  0  0
 20 19  2  0  0  0  0
 21 22  2  0  0  0  0
 21 20  1  0  0  0  0
 22 23  1  0  0  0  0
 23 18  2  0  0  0  0
 25 22  1  0  0  0  0
 26 20  1  0  0  0  0
 26 31  1  0  0  0  0
 27 26  2  0  0  0  0
 28 27  1  0  0  0  0
 28 29  2  0  0  0  0
 29 30  1  0  0  0  0
 30 31  2  0  0  0  0
 30 35  1  0  0  0  0
 32 27  1  0  0  0  0
 33 28  1  0  0  0  0
 34 29  1  0  0  0  0
 36 37  1  0  0  0  0
 36 38  1  0  0  0  0
 39 40  1  0  0  0  0
 40 36  1  0  0  0  0
 40 41  2  0  0  0  0
 41 42  1  0  0  0  0
 43 41  1  0  0  0  0
 43 44  1  0  0  0  0
 45 43  2  0  0  0  0
 46 39  2  0  0  0  0
 46 45  1  0  0  0  0
 48 47  1  0  0  0  0
 48 49  2  0  0  0  0
 48 39  1  0  0  0  0
 50 48  2  0  0  0  0
M  END
>  <minimizedAffinity>
-5.97159147

$$$$

 OpenBabel03252507243D

 50 53  0  0  1  0  0  0  0  0999 V2000
   39.1320   29.5830   40.4090 C   0  0  0  0  0  0  0  0  0  0  0  0
   39.7490   29.1010   39.4040 O   0  0  0  0  0  0  0  0  0  0  0  0
   38.7490   28.8100   41.5370 N   0  0  0  0  0  0  0  0  0  0  0  0
   38.8360   29.1020   42.9660 C   0  0  0  0  0  0  0  0  0  0  0  0
   37.4840   28.8760   43.6290 C   0  0  0  0  0  0  0  0  0  0  0  0
   37.0750   27.4440   43.5200 C   0  0  0  0  0  0  0  0  0  0  0  0
   38.0040   26.7280   42.5410 C   0  0  0  0  0  0  0  0  0  0  0  0
   38.1820   27.5050   41.2960 C   0  0  2  0  0  0  0  0  0  0  0  0
   39.1170   30.1740   43.1030 H   0  0  0  0  0  0  0  0  0  0  0  0
   39.5620   28.4590   43.4930 H   0  0  0  0  0  0  0  0  0  0  0  0
   36.7520   29.5420   43.0890 H   0  0  0  0  0  0  0  0  0  0  0  0
   37.6160   29.2000   44.6930 H   0  0  0  0  0  0  0  0  0  0  0  0
   37.1570   26.8950   44.4690 H   0  0  0  0  0  0  0  0  0  0  0  0
   36.0250   27.3110   43.1690 H   0  0  0  0  0  0  0  0  0  0  0  0
   38.9350   26.5710   43.1050 H   0  0  0  0  0  0  0  0  0  0  0  0
   37.5040   25.7670   42.3110 H   0  0  0  0  0  0  0  0  0  0  0  0
   37.1340   27.6880   40.8890 H   0  0  0  0  0  0  0  0  0  0  0  0
   39.7970   31.8910   40.8410 C   0  0  0  0  0  0  0  0  0  0  0  0
   38.8110   30.9810   40.3850 C   0  0  0  0  0  0  0  0  0  0  0  0
   37.5940   31.4600   39.9380 C   0  0  0  0  0  0  0  0  0  0  0  0
   37.4010   32.7950   39.9600 N   0  0  0  0  0  0  0  0  0  0  0  0
   38.3250   33.6790   40.3900 C   0  0  0  0  0  0  0  0  0  0  0  0
   39.5170   33.2080   40.8270 N   0  0  0  0  0  0  0  0  0  0  0  0
   40.7430   31.5050   41.1870 H   0  0  0  0  0  0  0  0  0  0  0  0
   38.1170   34.7390   40.3850 H   0  0  0  0  0  0  0  0  0  0  0  0
   36.6100   30.5120   39.4830 C   0  0  0  0  0  0  0  0  0  0  0  0
   35.6720   30.0270   40.3310 C   0  0  0  0  0  0  0  0  0  0  0  0
   34.7440   29.1230   39.8630 C   0  0  0  0  0  0  0  0  0  0  0  0
   34.7240   28.6780   38.5460 C   0  0  0  0  0  0  0  0  0  0  0  0
   35.7060   29.2050   37.7220 C   0  0  0  0  0  0  0  0  0  0  0  0
   36.5990   30.0850   38.2030 N   0  0  0  0  0  0  0  0  0  0  0  0
   35.5620   30.2730   41.3750 H   0  0  0  0  0  0  0  0  0  0  0  0
   33.9650   28.6940   40.4850 H   0  0  0  0  0  0  0  0  0  0  0  0
   33.9750   27.9580   38.2010 H   0  0  0  0  0  0  0  0  0  0  0  0
   35.7120   28.8710   36.6800 H   0  0  0  0  0  0  0  0  0  0  0  0
   38.9030   26.7090   40.2470 C   0  0  0  0  0  0  0  0  0  0  0  0
   39.5840   27.3860   39.6460 H   0  0  0  0  0  0  0  0  0  0  0  0
   39.4630   25.8430   40.6160 H   0  0  0  0  0  0  0  0  0  0  0  0
   38.1660   26.1060   37.8480 C   0  0  0  0  0  0  0  0  0  0  0  0
   37.9560   26.1960   39.2000 C   0  0  0  0  0  0  0  0  0  0  0  0
   36.7190   25.6680   39.6060 C   0  0  0  0  0  0  0  0  0  0  0  0
   36.4630   25.6970   40.6760 H   0  0  0  0  0  0  0  0  0  0  0  0
   35.7650   25.0990   38.7890 C   0  0  0  0  0  0  0  0  0  0  0  0
   34.8430   24.7210   39.2050 H   0  0  0  0  0  0  0  0  0  0  0  0
   36.0570   25.0480   37.4430 C   0  0  0  0  0  3  0  0  0  0  0  0
   37.2450   25.5490   37.0010 C   0  0  0  0  0  3  0  0  0  0  0  0
   40.4540   27.3420   38.0430 H   0  0  0  0  0  0  0  0  0  0  0  0
   39.5890   26.7740   37.1350 S   0  0  0  0  0  0  0  0  0  0  0  0
   39.1870   27.9250   36.2180 O   0  0  0  0  0  0  0  0  0  0  0  0
   40.2960   25.8040   36.2090 O   0  0  0  0  0  0  0  0  0  0  0  0
  1  3  1  0  0  0  0
  2  1  2  0  0  0  0
  3  4  1  0  0  0  0
  4  9  1  0  0  0  0
  4 10  1  0  0  0  0
  4  5  1  0  0  0  0
  5 12  1  0  0  0  0
  6  5  1  0  0  0  0
  6 13  1  0  0  0  0
  7 15  1  0  0  0  0
  7  6  1  0  0  0  0
  8 17  1  6  0  0  0
  8  3  1  0  0  0  0
  8  7  1  0  0  0  0
 11  5  1  0  0  0  0
 14  6  1  0  0  0  0
 16  7  1  0  0  0  0
 18 24  1  0  0  0  0
 19  1  1  0  0  0  0
 19 18  2  0  0  0  0
 20 21  2  0  0  0  0
 20 19  1  0  0  0  0
 21 22  1  0  0  0  0
 22 23  2  0  0  0  0
 23 18  1  0  0  0  0
 25 22  1  0  0  0  0
 26 20  1  0  0  0  0
 26 27  1  0  0  0  0
 27 32  1  0  0  0  0
 28 27  2  0  0  0  0
 28 33  1  0  0  0  0
 29 28  1  0  0  0  0
 30 31  1  0  0  0  0
 30 29  2  0  0  0  0
 31 26  2  0  0  0  0
 34 29  1  0  0  0  0
 35 30  1  0  0  0  0
 36 38  1  0  0  0  0
 36  8  1  0  0  0  0
 37 36  1  0  0  0  0
 39 40  1  0  0  0  0
 40 41  2  0  0  0  0
 40 36  1  0  0  0  0
 41 42  1  0  0  0  0
 43 44  1  0  0  0  0
 43 41  1  0  0  0  0
 45 43  2  0  0  0  0
 46 45  1  0  0  0  0
 46 39  2  0  0  0  0
 48 39  1  0  0  0  0
 48 47  1  0  0  0  0
 49 48  2  0  0  0  0
 50 48  2  0  0  0  0
M  END
>  <minimizedAffinity>
-5.96247101

$$$$

 OpenBabel03252507243D

 50 53  0  0  1  0  0  0  0  0999 V2000
   37.0960   30.4670   39.5050 C   0  0  0  0  0  0  0  0  0  0  0  0
   35.9320   30.1810   39.9340 O   0  0  0  0  0  0  0  0  0  0  0  0
   37.8430   29.6230   38.6410 N   0  0  0  0  0  0  0  0  0  0  0  0
   38.6360   29.9340   37.4550 C   0  0  0  0  0  0  0  0  0  0  0  0
   40.0270   29.3290   37.5830 C   0  0  0  0  0  0  0  0  0  0  0  0
   39.9500   27.8390   37.6530 C   0  0  0  0  0  0  0  0  0  0  0  0
   38.4950   27.4180   37.8570 C   0  0  0  0  0  0  0  0  0  0  0  0
   37.8480   28.2070   38.9270 C   0  0  2  0  0  0  0  0  0  0  0  0
   38.7430   31.0420   37.3690 H   0  0  0  0  0  0  0  0  0  0  0  0
   38.1960   29.5320   36.5260 H   0  0  0  0  0  0  0  0  0  0  0  0
   40.4700   29.7500   38.5290 H   0  0  0  0  0  0  0  0  0  0  0  0
   40.5890   29.6820   36.6810 H   0  0  0  0  0  0  0  0  0  0  0  0
   40.2800   27.3420   36.7300 H   0  0  0  0  0  0  0  0  0  0  0  0
   40.5600   27.4050   38.4790 H   0  0  0  0  0  0  0  0  0  0  0  0
   38.0280   27.5420   36.8690 H   0  0  0  0  0  0  0  0  0  0  0  0
   38.5360   26.3530   38.1540 H   0  0  0  0  0  0  0  0  0  0  0  0
   38.5010   28.0760   39.8500 H   0  0  0  0  0  0  0  0  0  0  0  0
   37.1800   32.9010   39.3310 C   0  0  0  0  0  0  0  0  0  0  0  0
   37.6720   31.7120   39.9260 C   0  0  0  0  0  0  0  0  0  0  0  0
   38.6740   31.7870   40.8750 C   0  0  0  0  0  0  0  0  0  0  0  0
   39.1410   33.0110   41.1950 N   0  0  0  0  0  0  0  0  0  0  0  0
   38.6880   34.1560   40.6420 C   0  0  0  0  0  0  0  0  0  0  0  0
   37.7070   34.0800   39.7120 N   0  0  0  0  0  0  0  0  0  0  0  0
   36.3980   32.8280   38.5920 H   0  0  0  0  0  0  0  0  0  0  0  0
   39.0990   35.1100   40.9360 H   0  0  0  0  0  0  0  0  0  0  0  0
   39.1570   30.5630   41.4600 C   0  0  0  0  0  0  0  0  0  0  0  0
   38.4850   29.9680   42.4740 C   0  0  0  0  0  0  0  0  0  0  0  0
   38.9730   28.7960   43.0090 C   0  0  0  0  0  0  0  0  0  0  0  0
   40.1360   28.1870   42.5520 C   0  0  0  0  0  0  0  0  0  0  0  0
   40.7840   28.8370   41.5130 C   0  0  0  0  0  0  0  0  0  0  0  0
   40.2870   29.9790   41.0100 N   0  0  0  0  0  0  0  0  0  0  0  0
   37.5760   30.3200   42.9360 H   0  0  0  0  0  0  0  0  0  0  0  0
   38.4890   28.2660   43.8220 H   0  0  0  0  0  0  0  0  0  0  0  0
   40.5020   27.2560   42.9970 H   0  0  0  0  0  0  0  0  0  0  0  0
   41.7020   28.3780   41.1350 H   0  0  0  0  0  0  0  0  0  0  0  0
   36.5020   27.6500   39.2860 C   0  0  0  0  0  0  0  0  0  0  0  0
   35.9840   28.3330   40.0280 H   0  0  0  0  0  0  0  0  0  0  0  0
   35.8390   27.4410   38.4400 H   0  0  0  0  0  0  0  0  0  0  0  0
   36.3470   25.0970   39.6350 C   0  0  0  0  0  0  0  0  0  0  0  0
   36.6270   26.3700   40.0620 C   0  0  0  0  0  0  0  0  0  0  0  0
   37.1540   26.4150   41.3620 C   0  0  0  0  0  0  0  0  0  0  0  0
   37.4080   27.3970   41.7910 H   0  0  0  0  0  0  0  0  0  0  0  0
   37.3970   25.3350   42.1850 C   0  0  0  0  0  0  0  0  0  0  0  0
   37.8070   25.4810   43.1730 H   0  0  0  0  0  0  0  0  0  0  0  0
   37.0880   24.0920   41.6770 C   0  0  0  0  0  3  0  0  0  0  0  0
   36.5730   23.9970   40.4190 C   0  0  0  0  0  3  0  0  0  0  0  0
   34.7170   25.8070   37.7260 H   0  0  0  0  0  0  0  0  0  0  0  0
   35.6130   24.8290   38.0950 S   0  0  0  0  0  0  0  0  0  0  0  0
   34.7800   23.5530   38.1620 O   0  0  0  0  0  0  0  0  0  0  0  0
   36.6230   24.5450   37.0010 O   0  0  0  0  0  0  0  0  0  0  0  0
  1 19  1  0  0  0  0
  1  2  2  0  0  0  0
  3  8  1  0  0  0  0
  3  1  1  0  0  0  0
  4  5  1  0  0  0  0
  4  3  1  0  0  0  0
  5  6  1  0  0  0  0
  5 11  1  0  0  0  0
  6  7  1  0  0  0  0
  6 14  1  0  0  0  0
  7 16  1  0  0  0  0
  7  8  1  0  0  0  0
  8 36  1  0  0  0  0
  8 17  1  1  0  0  0
  9  4  1  0  0  0  0
 10  4  1  0  0  0  0
 12  5  1  0  0  0  0
 13  6  1  0  0  0  0
 15  7  1  0  0  0  0
 18 23  2  0  0  0  0
 18 19  1  0  0  0  0
 19 20  2  0  0  0  0
 20 21  1  0  0  0  0
 20 26  1  0  0  0  0
 22 25  1  0  0  0  0
 22 21  2  0  0  0  0
 23 22  1  0  0  0  0
 24 18  1  0  0  0  0
 26 27  1  0  0  0  0
 27 32  1  0  0  0  0
 27 28  2  0  0  0  0
 28 33  1  0  0  0  0
 29 34  1  0  0  0  0
 29 28  1  0  0  0  0
 30 29  2  0  0  0  0
 31 26  2  0  0  0  0
 31 30  1  0  0  0  0
 35 30  1  0  0  0  0
 36 37  1  0  0  0  0
 36 40  1  0  0  0  0
 38 36  1  0  0  0  0
 39 40  2  0  0  0  0
 39 46  1  0  0  0  0
 40 41  1  0  0  0  0
 41 42  1  0  0  0  0
 41 43  2  0  0  0  0
 43 44  1  0  0  0  0
 45 43  1  0  0  0  0
 46 45  2  0  0  0  0
 47 48  1  0  0  0  0
 48 49  2  0  0  0  0
 48 39  1  0  0  0  0
 50 48  2  0  0  0  0
M  END
>  <minimizedAffinity>
-5.93183947

$$$$

 OpenBabel03252507243D

 50 53  0  0  1  0  0  0  0  0999 V2000
   40.5510   30.6150   41.9470 C   0  0  0  0  0  0  0  0  0  0  0  0
   39.5950   30.7170   42.7830 O   0  0  0  0  0  0  0  0  0  0  0  0
   40.8690   29.4110   41.2640 N   0  0  0  0  0  0  0  0  0  0  0  0
   41.2110   29.1700   39.8650 C   0  0  0  0  0  0  0  0  0  0  0  0
   42.5020   28.3680   39.7730 C   0  0  0  0  0  0  0  0  0  0  0  0
   42.3320   27.0210   40.3980 C   0  0  0  0  0  0  0  0  0  0  0  0
   41.0150   26.9880   41.1720 C   0  0  0  0  0  0  0  0  0  0  0  0
   40.8580   28.1840   42.0260 C   0  0  2  0  0  0  0  0  0  0  0  0
   41.3730   30.1510   39.3560 H   0  0  0  0  0  0  0  0  0  0  0  0
   40.4380   28.5960   39.3250 H   0  0  0  0  0  0  0  0  0  0  0  0
   43.2850   28.9650   40.3210 H   0  0  0  0  0  0  0  0  0  0  0  0
   42.7350   28.3010   38.6800 H   0  0  0  0  0  0  0  0  0  0  0  0
   42.2700   26.2060   39.6640 H   0  0  0  0  0  0  0  0  0  0  0  0
   43.1580   26.7530   41.0970 H   0  0  0  0  0  0  0  0  0  0  0  0
   40.2400   26.8890   40.3990 H   0  0  0  0  0  0  0  0  0  0  0  0
   41.0710   26.0830   41.8070 H   0  0  0  0  0  0  0  0  0  0  0  0
   41.7840   28.2180   42.6890 H   0  0  0  0  0  0  0  0  0  0  0  0
   42.5590   31.9260   42.4010 C   0  0  0  0  0  0  0  0  0  0  0  0
   41.3390   31.7860   41.6920 C   0  0  0  0  0  0  0  0  0  0  0  0
   40.9550   32.7630   40.7940 C   0  0  0  0  0  0  0  0  0  0  0  0
   41.7740   33.8220   40.6340 N   0  0  0  0  0  0  0  0  0  0  0  0
   42.9390   33.9770   41.2980 C   0  0  0  0  0  0  0  0  0  0  0  0
   43.3140   33.0180   42.1770 N   0  0  0  0  0  0  0  0  0  0  0  0
   42.8470   31.1560   43.0990 H   0  0  0  0  0  0  0  0  0  0  0  0
   43.5580   34.8470   41.1300 H   0  0  0  0  0  0  0  0  0  0  0  0
   39.7090   32.5960   40.0910 C   0  0  0  0  0  0  0  0  0  0  0  0
   38.5460   33.0300   40.6300 C   0  0  0  0  0  0  0  0  0  0  0  0
   37.3720   32.8560   39.9300 C   0  0  0  0  0  0  0  0  0  0  0  0
   37.3240   32.2490   38.6800 C   0  0  0  0  0  0  0  0  0  0  0  0
   38.5420   31.8230   38.1750 C   0  0  0  0  0  0  0  0  0  0  0  0
   39.6720   32.0040   38.8780 N   0  0  0  0  0  0  0  0  0  0  0  0
   38.4220   33.5140   41.5860 H   0  0  0  0  0  0  0  0  0  0  0  0
   36.4050   33.1780   40.3010 H   0  0  0  0  0  0  0  0  0  0  0  0
   36.3770   32.1220   38.1470 H   0  0  0  0  0  0  0  0  0  0  0  0
   38.5320   31.3410   37.1930 H   0  0  0  0  0  0  0  0  0  0  0  0
   39.6860   28.0500   42.9540 C   0  0  0  0  0  0  0  0  0  0  0  0
   40.0330   27.6730   43.9650 H   0  0  0  0  0  0  0  0  0  0  0  0
   39.0780   28.9520   43.0770 H   0  0  0  0  0  0  0  0  0  0  0  0
   37.6820   27.0650   41.6590 C   0  0  0  0  0  0  0  0  0  0  0  0
   38.7540   26.9590   42.5070 C   0  0  0  0  0  0  0  0  0  0  0  0
   39.0060   25.6420   42.9220 C   0  0  0  0  0  0  0  0  0  0  0  0
   39.8490   25.4600   43.6060 H   0  0  0  0  0  0  0  0  0  0  0  0
   38.2950   24.5180   42.5540 C   0  0  0  0  0  0  0  0  0  0  0  0
   38.5740   23.5470   42.9320 H   0  0  0  0  0  0  0  0  0  0  0  0
   37.2330   24.7150   41.6970 C   0  0  0  0  0  3  0  0  0  0  0  0
   36.9490   25.9760   41.2690 C   0  0  0  0  0  3  0  0  0  0  0  0
   37.4790   29.6500   41.9430 H   0  0  0  0  0  0  0  0  0  0  0  0
   37.1540   28.6110   41.1000 S   0  0  0  0  0  0  0  0  0  0  0  0
   35.6290   28.6230   41.0510 O   0  0  0  0  0  0  0  0  0  0  0  0
   37.5650   28.8940   39.6690 O   0  0  0  0  0  0  0  0  0  0  0  0
  1  2  2  0  0  0  0
  3  1  1  0  0  0  0
  3  8  1  0  0  0  0
  4  3  1  0  0  0  0
  5  4  1  0  0  0  0
  5 11  1  0  0  0  0
  5  6  1  0  0  0  0
  6 14  1  0  0  0  0
  6  7  1  0  0  0  0
  7 16  1  0  0  0  0
  7  8  1  0  0  0  0
  8 17  1  1  0  0  0
  8 36  1  0  0  0  0
  9  4  1  0  0  0  0
 10  4  1  0  0  0  0
 12  5  1  0  0  0  0
 13  6  1  0  0  0  0
 15  7  1  0  0  0  0
 18 24  1  0  0  0  0
 19  1  1  0  0  0  0
 19 18  2  0  0  0  0
 20 19  1  0  0  0  0
 21 20  2  0  0  0  0
 21 22  1  0  0  0  0
 22 23  2  0  0  0  0
 23 18  1  0  0  0  0
 25 22  1  0  0  0  0
 26 27  1  0  0  0  0
 26 20  1  0  0  0  0
 27 32  1  0  0  0  0
 28 33  1  0  0  0  0
 28 27  2  0  0  0  0
 29 28  1  0  0  0  0
 30 29  2  0  0  0  0
 30 31  1  0  0  0  0
 31 26  2  0  0  0  0
 34 29  1  0  0  0  0
 35 30  1  0  0  0  0
 36 38  1  0  0  0  0
 36 37  1  0  0  0  0
 39 40  1  0  0  0  0
 40 41  2  0  0  0  0
 40 36  1  0  0  0  0
 41 42  1  0  0  0  0
 43 41  1  0  0  0  0
 43 44  1  0  0  0  0
 45 43  2  0  0  0  0
 46 39  2  0  0  0  0
 46 45  1  0  0  0  0
 48 39  1  0  0  0  0
 48 47  1  0  0  0  0
 49 48  2  0  0  0  0
 50 48  2  0  0  0  0
M  END
>  <minimizedAffinity>
-5.89190483

$$$$

 OpenBabel03252507243D

 50 53  0  0  1  0  0  0  0  0999 V2000
   39.0170   30.5630   41.4860 C   0  0  0  0  0  0  0  0  0  0  0  0
   39.7560   30.1130   42.4210 O   0  0  0  0  0  0  0  0  0  0  0  0
   37.6600   30.1820   41.3080 N   0  0  0  0  0  0  0  0  0  0  0  0
   36.4780   30.9820   41.0000 C   0  0  0  0  0  0  0  0  0  0  0  0
   35.7400   30.3860   39.8090 C   0  0  0  0  0  0  0  0  0  0  0  0
   35.2430   29.0140   40.1290 C   0  0  0  0  0  0  0  0  0  0  0  0
   35.8730   28.5420   41.4380 C   0  0  0  0  0  0  0  0  0  0  0  0
   37.3310   28.7830   41.4560 C   0  0  2  0  0  0  0  0  0  0  0  0
   36.7990   32.0170   40.7300 H   0  0  0  0  0  0  0  0  0  0  0  0
   35.7570   31.0240   41.8350 H   0  0  0  0  0  0  0  0  0  0  0  0
   36.4820   30.3540   38.9610 H   0  0  0  0  0  0  0  0  0  0  0  0
   34.9050   31.0990   39.5890 H   0  0  0  0  0  0  0  0  0  0  0  0
   34.1560   28.9710   40.2850 H   0  0  0  0  0  0  0  0  0  0  0  0
   35.4770   28.2660   39.3360 H   0  0  0  0  0  0  0  0  0  0  0  0
   35.3230   29.0820   42.2220 H   0  0  0  0  0  0  0  0  0  0  0  0
   35.6760   27.4540   41.4830 H   0  0  0  0  0  0  0  0  0  0  0  0
   37.7450   28.2650   40.5300 H   0  0  0  0  0  0  0  0  0  0  0  0
   39.9150   32.7920   41.0630 C   0  0  0  0  0  0  0  0  0  0  0  0
   39.5990   31.5010   40.5710 C   0  0  0  0  0  0  0  0  0  0  0  0
   39.8570   31.1920   39.2480 C   0  0  0  0  0  0  0  0  0  0  0  0
   40.4070   32.1520   38.4770 N   0  0  0  0  0  0  0  0  0  0  0  0
   40.7150   33.3880   38.9240 C   0  0  0  0  0  0  0  0  0  0  0  0
   40.4620   33.6890   40.2190 N   0  0  0  0  0  0  0  0  0  0  0  0
   39.7090   33.0210   42.0960 H   0  0  0  0  0  0  0  0  0  0  0  0
   41.1560   34.1190   38.2610 H   0  0  0  0  0  0  0  0  0  0  0  0
   39.5220   29.8730   38.7760 C   0  0  0  0  0  0  0  0  0  0  0  0
   40.2520   28.7970   39.1520 C   0  0  0  0  0  0  0  0  0  0  0  0
   39.9030   27.5490   38.6840 C   0  0  0  0  0  0  0  0  0  0  0  0
   38.8240   27.3390   37.8330 C   0  0  0  0  0  0  0  0  0  0  0  0
   38.1120   28.4740   37.4790 C   0  0  0  0  0  0  0  0  0  0  0  0
   38.4720   29.6790   37.9490 N   0  0  0  0  0  0  0  0  0  0  0  0
   41.1140   28.8000   39.8000 H   0  0  0  0  0  0  0  0  0  0  0  0
   40.4420   26.6450   38.9430 H   0  0  0  0  0  0  0  0  0  0  0  0
   38.5700   26.3370   37.4740 H   0  0  0  0  0  0  0  0  0  0  0  0
   37.2580   28.3360   36.8090 H   0  0  0  0  0  0  0  0  0  0  0  0
   37.9860   28.1200   42.6320 C   0  0  0  0  0  0  0  0  0  0  0  0
   39.0360   28.5250   42.7710 H   0  0  0  0  0  0  0  0  0  0  0  0
   37.4320   28.1810   43.5740 H   0  0  0  0  0  0  0  0  0  0  0  0
   39.3760   25.9460   42.6300 C   0  0  0  0  0  0  0  0  0  0  0  0
   38.2360   26.6620   42.3710 C   0  0  0  0  0  0  0  0  0  0  0  0
   37.1890   25.8750   41.8670 C   0  0  0  0  0  0  0  0  0  0  0  0
   36.2320   26.3660   41.6290 H   0  0  0  0  0  0  0  0  0  0  0  0
   37.2250   24.5170   41.6330 C   0  0  0  0  0  0  0  0  0  0  0  0
   36.3590   24.0050   41.2420 H   0  0  0  0  0  0  0  0  0  0  0  0
   38.4100   23.8740   41.9220 C   0  0  0  0  0  3  0  0  0  0  0  0
   39.4560   24.5960   42.4120 C   0  0  0  0  0  3  0  0  0  0  0  0
   40.5730   27.7600   44.0720 H   0  0  0  0  0  0  0  0  0  0  0  0
   40.8080   26.7410   43.1770 S   0  0  0  0  0  0  0  0  0  0  0  0
   41.4760   27.4250   41.9870 O   0  0  0  0  0  0  0  0  0  0  0  0
   41.8640   25.7770   43.6800 O   0  0  0  0  0  0  0  0  0  0  0  0
  1  2  2  0  0  0  0
  3  8  1  0  0  0  0
  3  1  1  0  0  0  0
  4  3  1  0  0  0  0
  4 10  1  0  0  0  0
  5  6  1  0  0  0  0
  5  4  1  0  0  0  0
  6 13  1  0  0  0  0
  6  7  1  0  0  0  0
  7  8  1  0  0  0  0
  7 16  1  0  0  0  0
  7 15  1  0  0  0  0
  8 17  1  6  0  0  0
  8 36  1  0  0  0  0
  9  4  1  0  0  0  0
 11  5  1  0  0  0  0
 12  5  1  0  0  0  0
 14  6  1  0  0  0  0
 18 24  1  0  0  0  0
 19 18  1  0  0  0  0
 19  1  1  0  0  0  0
 20 19  2  0  0  0  0
 21 22  2  0  0  0  0
 21 20  1  0  0  0  0
 22 23  1  0  0  0  0
 23 18  2  0  0  0  0
 25 22  1  0  0  0  0
 26 27  1  0  0  0  0
 26 20  1  0  0  0  0
 27 32  1  0  0  0  0
 28 33  1  0  0  0  0
 28 27  2  0  0  0  0
 29 28  1  0  0  0  0
 30 29  2  0  0  0  0
 30 31  1  0  0  0  0
 31 26  2  0  0  0  0
 34 29  1  0  0  0  0
 35 30  1  0  0  0  0
 36 37  1  0  0  0  0
 36 38  1  0  0  0  0
 39 48  1  0  0  0  0
 40 39  2  0  0  0  0
 40 36  1  0  0  0  0
 41 40  1  0  0  0  0
 42 41  1  0  0  0  0
 43 41  2  0  0  0  0
 43 45  1  0  0  0  0
 44 43  1  0  0  0  0
 45 46  2  0  0  0  0
 46 39  1  0  0  0  0
 48 50  2  0  0  0  0
 48 47  1  0  0  0  0
 49 48  2  0  0  0  0
M  END
>  <minimizedAffinity>
-5.88173342

$$$$
