
 OpenBabel03252500003D

 24 25  0  0  0  0  0  0  0  0999 V2000
   36.9730   30.6240   41.4470 C   0  0  0  0  0  0  0  0  0  0  0  0
   36.3090   30.4580   40.1980 C   0  0  0  0  0  0  0  0  0  0  0  0
   35.9020   29.1830   39.8420 C   0  0  0  0  0  0  0  0  0  0  0  0
   36.1540   28.1670   40.6910 N   0  0  0  0  0  0  0  0  0  0  0  0
   36.7770   28.3330   41.8610 C   0  0  0  0  0  0  0  0  0  0  0  0
   37.1840   29.5690   42.2300 N   0  0  0  0  0  0  0  0  0  0  0  0
   37.3100   31.6110   41.7660 H   0  0  0  0  0  0  0  0  0  0  0  0
   36.1890   31.3520   39.6510 H   0  0  0  0  0  0  0  0  0  0  0  0
   35.9160   28.8470   37.3830 C   0  0  0  0  0  0  0  0  0  0  0  0
   35.2230   28.9920   38.5670 C   0  0  0  0  0  0  0  0  0  0  0  0
   33.8520   28.9490   38.4790 C   0  0  0  0  0  0  0  0  0  0  0  0
   33.1950   29.0500   39.3290 H   0  0  0  0  0  0  0  0  0  0  0  0
   33.1460   28.7740   37.3090 C   0  0  0  0  0  0  0  0  0  0  0  0
   32.0680   28.7400   37.2420 H   0  0  0  0  0  0  0  0  0  0  0  0
   33.8270   28.6270   36.1190 C   0  0  0  0  0  3  0  0  0  0  0  0
   35.2010   28.6690   36.1910 C   0  0  0  0  0  3  0  0  0  0  0  0
   38.1950   28.2000   38.4200 H   0  0  0  0  0  0  0  0  0  0  0  0
   37.6520   28.8800   37.3530 S   0  0  0  0  0  0  0  0  0  0  0  0
   38.2370   30.2420   37.2880 O   0  0  0  0  0  0  0  0  0  0  0  0
   38.1130   28.1260   36.1140 O   0  0  0  0  0  0  0  0  0  0  0  0
   36.9510   27.0780   42.6390 C   0  0  0  0  0  0  0  0  0  0  0  0
   36.7760   25.9630   41.8440 F   0  0  0  0  0  0  0  0  0  0  0  0
   36.0340   27.0190   43.6780 F   0  0  0  0  0  0  0  0  0  0  0  0
   38.2040   27.0690   43.2190 F   0  0  0  0  0  0  0  0  0  0  0  0
  1  7  1  0  0  0  0
  1  6  1  0  0  0  0
  2  1  2  0  0  0  0
  3  2  1  0  0  0  0
  3  4  2  0  0  0  0
  4  5  1  0  0  0  0
  5  6  2  0  0  0  0
  5 21  1  0  0  0  0
  8  2  1  0  0  0  0
  9 10  1  0  0  0  0
 10  3  1  0  0  0  0
 11 10  2  0  0  0  0
 11 12  1  0  0  0  0
 13 11  1  0  0  0  0
 14 13  1  0  0  0  0
 15 16  1  0  0  0  0
 15 13  2  0  0  0  0
 16  9  2  0  0  0  0
 18  9  1  0  0  0  0
 18 17  1  0  0  0  0
 19 18  2  0  0  0  0
 20 18  2  0  0  0  0
 21 24  1  0  0  0  0
 21 23  1  0  0  0  0
 22 21  1  0  0  0  0
M  END
>  <minimizedAffinity>
-4.9983139

$$$$

 OpenBabel03252500003D

 24 25  0  0  0  0  0  0  0  0999 V2000
   38.4720   27.6900   39.3570 C   0  0  0  0  0  0  0  0  0  0  0  0
   38.5430   29.1070   39.2430 C   0  0  0  0  0  0  0  0  0  0  0  0
   38.2510   29.8670   40.3640 C   0  0  0  0  0  0  0  0  0  0  0  0
   37.9150   29.2290   41.5030 N   0  0  0  0  0  0  0  0  0  0  0  0
   37.8530   27.8980   41.6000 C   0  0  0  0  0  0  0  0  0  0  0  0
   38.1330   27.1360   40.5190 N   0  0  0  0  0  0  0  0  0  0  0  0
   38.6940   27.0550   38.4990 H   0  0  0  0  0  0  0  0  0  0  0  0
   38.8190   29.4500   38.2840 H   0  0  0  0  0  0  0  0  0  0  0  0
   39.3960   32.0380   40.7300 C   0  0  0  0  0  0  0  0  0  0  0  0
   38.3150   31.3190   40.2650 C   0  0  0  0  0  0  0  0  0  0  0  0
   37.2950   32.0490   39.7020 C   0  0  0  0  0  0  0  0  0  0  0  0
   36.3950   31.6080   39.3020 H   0  0  0  0  0  0  0  0  0  0  0  0
   37.2870   33.4210   39.5780 C   0  0  0  0  0  0  0  0  0  0  0  0
   36.4850   33.9930   39.1350 H   0  0  0  0  0  0  0  0  0  0  0  0
   38.3620   34.1510   40.0390 C   0  0  0  0  0  3  0  0  0  0  0  0
   39.3920   33.4340   40.6060 C   0  0  0  0  0  3  0  0  0  0  0  0
   40.9700   29.9940   40.9150 H   0  0  0  0  0  0  0  0  0  0  0  0
   40.7530   31.2400   41.4620 S   0  0  0  0  0  0  0  0  0  0  0  0
   40.6710   31.1220   42.9390 O   0  0  0  0  0  0  0  0  0  0  0  0
   42.0020   32.0470   41.1380 O   0  0  0  0  0  0  0  0  0  0  0  0
   37.4620   27.4070   42.9480 C   0  0  0  0  0  0  0  0  0  0  0  0
   36.8270   28.3910   43.6800 F   0  0  0  0  0  0  0  0  0  0  0  0
   38.5800   26.9920   43.6570 F   0  0  0  0  0  0  0  0  0  0  0  0
   36.6470   26.3000   42.8140 F   0  0  0  0  0  0  0  0  0  0  0  0
  1  6  1  0  0  0  0
  2  1  2  0  0  0  0
  2  3  1  0  0  0  0
  3  4  2  0  0  0  0
  4  5  1  0  0  0  0
  5 21  1  0  0  0  0
  6  5  2  0  0  0  0
  7  1  1  0  0  0  0
  8  2  1  0  0  0  0
  9 18  1  0  0  0  0
 10  3  1  0  0  0  0
 10  9  2  0  0  0  0
 11 10  1  0  0  0  0
 12 11  1  0  0  0  0
 13 11  2  0  0  0  0
 13 15  1  0  0  0  0
 14 13  1  0  0  0  0
 15 16  2  0  0  0  0
 16  9  1  0  0  0  0
 17 18  1  0  0  0  0
 18 19  2  0  0  0  0
 20 18  2  0  0  0  0
 21 23  1  0  0  0  0
 21 22  1  0  0  0  0
 24 21  1  0  0  0  0
M  END
>  <minimizedAffinity>
-4.81493092

$$$$

 OpenBabel03252500003D

 24 25  0  0  0  0  0  0  0  0999 V2000
   39.5110   29.3590   38.4960 C   0  0  0  0  0  0  0  0  0  0  0  0
   39.0940   28.0990   39.0130 C   0  0  0  0  0  0  0  0  0  0  0  0
   38.0430   28.0800   39.9150 C   0  0  0  0  0  0  0  0  0  0  0  0
   37.4690   29.2500   40.2580 N   0  0  0  0  0  0  0  0  0  0  0  0
   37.8670   30.4280   39.7660 C   0  0  0  0  0  0  0  0  0  0  0  0
   38.8920   30.4710   38.8850 N   0  0  0  0  0  0  0  0  0  0  0  0
   40.3340   29.4180   37.7840 H   0  0  0  0  0  0  0  0  0  0  0  0
   39.6460   27.2780   38.6460 H   0  0  0  0  0  0  0  0  0  0  0  0
   37.9200   26.4020   41.7390 C   0  0  0  0  0  0  0  0  0  0  0  0
   37.6050   26.8010   40.4570 C   0  0  0  0  0  0  0  0  0  0  0  0
   36.8530   25.9220   39.7140 C   0  0  0  0  0  0  0  0  0  0  0  0
   36.5400   26.1140   38.6990 H   0  0  0  0  0  0  0  0  0  0  0  0
   36.4060   24.6980   40.1610 C   0  0  0  0  0  0  0  0  0  0  0  0
   35.8150   24.0090   39.5750 H   0  0  0  0  0  0  0  0  0  0  0  0
   36.7140   24.2880   41.4410 C   0  0  0  0  0  3  0  0  0  0  0  0
   37.4680   25.1570   42.1980 C   0  0  0  0  0  3  0  0  0  0  0  0
   39.5630   28.3710   42.0780 H   0  0  0  0  0  0  0  0  0  0  0  0
   38.8630   27.4180   42.7850 S   0  0  0  0  0  0  0  0  0  0  0  0
   39.7940   26.6820   43.6760 O   0  0  0  0  0  0  0  0  0  0  0  0
   37.9020   28.1960   43.6720 O   0  0  0  0  0  0  0  0  0  0  0  0
   37.0960   31.5910   40.2800 C   0  0  0  0  0  0  0  0  0  0  0  0
   36.0200   31.1850   41.0440 F   0  0  0  0  0  0  0  0  0  0  0  0
   36.6160   32.3580   39.2290 F   0  0  0  0  0  0  0  0  0  0  0  0
   37.9330   32.4070   41.0140 F   0  0  0  0  0  0  0  0  0  0  0  0
  1  6  2  0  0  0  0
  1  2  1  0  0  0  0
  2  3  2  0  0  0  0
  3  4  1  0  0  0  0
  3 10  1  0  0  0  0
  5  4  2  0  0  0  0
  5 21  1  0  0  0  0
  6  5  1  0  0  0  0
  7  1  1  0  0  0  0
  8  2  1  0  0  0  0
  9 16  1  0  0  0  0
  9 18  1  0  0  0  0
 10  9  2  0  0  0  0
 11 13  2  0  0  0  0
 11 10  1  0  0  0  0
 12 11  1  0  0  0  0
 13 15  1  0  0  0  0
 14 13  1  0  0  0  0
 15 16  2  0  0  0  0
 17 18  1  0  0  0  0
 18 20  2  0  0  0  0
 18 19  2  0  0  0  0
 21 24  1  0  0  0  0
 21 22  1  0  0  0  0
 23 21  1  0  0  0  0
M  END
>  <minimizedAffinity>
-4.76595211

$$$$

 OpenBabel03252500003D

 24 25  0  0  0  0  0  0  0  0999 V2000
   39.4690   25.7720   39.2780 C   0  0  0  0  0  0  0  0  0  0  0  0
   39.1210   27.1480   39.1660 C   0  0  0  0  0  0  0  0  0  0  0  0
   38.0980   27.6280   39.9660 C   0  0  0  0  0  0  0  0  0  0  0  0
   37.4840   26.7730   40.8080 N   0  0  0  0  0  0  0  0  0  0  0  0
   37.8190   25.4830   40.9070 C   0  0  0  0  0  0  0  0  0  0  0  0
   38.8150   24.9920   40.1350 N   0  0  0  0  0  0  0  0  0  0  0  0
   40.2680   25.3530   38.6660 H   0  0  0  0  0  0  0  0  0  0  0  0
   39.6960   27.6830   38.4610 H   0  0  0  0  0  0  0  0  0  0  0  0
   37.9820   29.9360   40.8740 C   0  0  0  0  0  0  0  0  0  0  0  0
   37.7250   29.0330   39.8640 C   0  0  0  0  0  0  0  0  0  0  0  0
   37.0940   29.5320   38.7490 C   0  0  0  0  0  0  0  0  0  0  0  0
   36.8370   28.9320   37.8890 H   0  0  0  0  0  0  0  0  0  0  0  0
   36.7120   30.8450   38.5840 C   0  0  0  0  0  0  0  0  0  0  0  0
   36.2170   31.2350   37.7070 H   0  0  0  0  0  0  0  0  0  0  0  0
   36.9640   31.7570   39.5880 C   0  0  0  0  0  3  0  0  0  0  0  0
   37.5950   31.2730   40.7120 C   0  0  0  0  0  3  0  0  0  0  0  0
   39.6290   28.3790   42.1210 H   0  0  0  0  0  0  0  0  0  0  0  0
   38.7750   29.4380   42.3370 S   0  0  0  0  0  0  0  0  0  0  0  0
   37.8530   29.1080   43.4520 O   0  0  0  0  0  0  0  0  0  0  0  0
   39.6610   30.5840   42.8020 O   0  0  0  0  0  0  0  0  0  0  0  0
   37.0130   24.7220   41.8970 C   0  0  0  0  0  0  0  0  0  0  0  0
   35.9970   24.0150   41.2840 F   0  0  0  0  0  0  0  0  0  0  0  0
   36.4430   25.5820   42.8250 F   0  0  0  0  0  0  0  0  0  0  0  0
   37.8390   23.8710   42.6040 F   0  0  0  0  0  0  0  0  0  0  0  0
  1  6  1  0  0  0  0
  2  1  2  0  0  0  0
  2  3  1  0  0  0  0
  3  4  2  0  0  0  0
  4  5  1  0  0  0  0
  5 21  1  0  0  0  0
  6  5  2  0  0  0  0
  7  1  1  0  0  0  0
  8  2  1  0  0  0  0
  9 18  1  0  0  0  0
 10  3  1  0  0  0  0
 10  9  2  0  0  0  0
 11 10  1  0  0  0  0
 12 11  1  0  0  0  0
 13 11  2  0  0  0  0
 13 15  1  0  0  0  0
 14 13  1  0  0  0  0
 15 16  2  0  0  0  0
 16  9  1  0  0  0  0
 17 18  1  0  0  0  0
 18 20  2  0  0  0  0
 18 19  2  0  0  0  0
 21 24  1  0  0  0  0
 21 23  1  0  0  0  0
 22 21  1  0  0  0  0
M  END
>  <minimizedAffinity>
-4.64640474

$$$$

 OpenBabel03252500003D

 24 25  0  0  0  0  0  0  0  0999 V2000
   35.8240   30.4050   40.7550 C   0  0  0  0  0  0  0  0  0  0  0  0
   35.8240   28.9810   40.7620 C   0  0  0  0  0  0  0  0  0  0  0  0
   37.0030   28.3310   41.0880 C   0  0  0  0  0  0  0  0  0  0  0  0
   38.0880   29.0760   41.3790 N   0  0  0  0  0  0  0  0  0  0  0  0
   38.0780   30.4120   41.3700 C   0  0  0  0  0  0  0  0  0  0  0  0
   36.9380   31.0680   41.0550 N   0  0  0  0  0  0  0  0  0  0  0  0
   34.9170   30.9560   40.5050 H   0  0  0  0  0  0  0  0  0  0  0  0
   34.8950   28.5480   40.5120 H   0  0  0  0  0  0  0  0  0  0  0  0
   37.1170   26.1350   39.9380 C   0  0  0  0  0  0  0  0  0  0  0  0
   37.0240   26.8750   41.0980 C   0  0  0  0  0  0  0  0  0  0  0  0
   36.9500   26.1600   42.2700 C   0  0  0  0  0  0  0  0  0  0  0  0
   36.8740   26.6180   43.2440 H   0  0  0  0  0  0  0  0  0  0  0  0
   36.9620   24.7850   42.3540 C   0  0  0  0  0  0  0  0  0  0  0  0
   36.9040   24.2260   43.2770 H   0  0  0  0  0  0  0  0  0  0  0  0
   37.0550   24.0350   41.2010 C   0  0  0  0  0  3  0  0  0  0  0  0
   37.1300   24.7360   40.0180 C   0  0  0  0  0  3  0  0  0  0  0  0
   37.8990   28.1080   38.4590 H   0  0  0  0  0  0  0  0  0  0  0  0
   37.2190   26.9120   38.3870 S   0  0  0  0  0  0  0  0  0  0  0  0
   35.9100   27.1280   37.7240 O   0  0  0  0  0  0  0  0  0  0  0  0
   38.0520   26.0250   37.4740 O   0  0  0  0  0  0  0  0  0  0  0  0
   39.3840   31.0310   41.7210 C   0  0  0  0  0  0  0  0  0  0  0  0
   40.4280   30.4170   41.0570 F   0  0  0  0  0  0  0  0  0  0  0  0
   39.6170   30.9320   43.0850 F   0  0  0  0  0  0  0  0  0  0  0  0
   39.3460   32.3790   41.4240 F   0  0  0  0  0  0  0  0  0  0  0  0
  1  2  2  0  0  0  0
  1  6  1  0  0  0  0
  2  3  1  0  0  0  0
  3 10  1  0  0  0  0
  3  4  2  0  0  0  0
  5  4  1  0  0  0  0
  5 21  1  0  0  0  0
  6  5  2  0  0  0  0
  7  1  1  0  0  0  0
  8  2  1  0  0  0  0
  9 16  2  0  0  0  0
  9 10  1  0  0  0  0
 10 11  2  0  0  0  0
 11 13  1  0  0  0  0
 11 12  1  0  0  0  0
 13 14  1  0  0  0  0
 15 13  2  0  0  0  0
 16 15  1  0  0  0  0
 18 17  1  0  0  0  0
 18  9  1  0  0  0  0
 19 18  2  0  0  0  0
 20 18  2  0  0  0  0
 21 23  1  0  0  0  0
 22 21  1  0  0  0  0
 24 21  1  0  0  0  0
M  END
>  <minimizedAffinity>
-4.64130402

$$$$

 OpenBabel03252500003D

 24 25  0  0  0  0  0  0  0  0999 V2000
   37.4800   28.3520   37.1920 C   0  0  0  0  0  0  0  0  0  0  0  0
   37.8230   28.2690   38.5720 C   0  0  0  0  0  0  0  0  0  0  0  0
   36.7980   28.3090   39.5010 C   0  0  0  0  0  0  0  0  0  0  0  0
   35.5310   28.4250   39.0560 N   0  0  0  0  0  0  0  0  0  0  0  0
   35.2190   28.5020   37.7590 C   0  0  0  0  0  0  0  0  0  0  0  0
   36.2040   28.4650   36.8330 N   0  0  0  0  0  0  0  0  0  0  0  0
   38.2570   28.3240   36.4270 H   0  0  0  0  0  0  0  0  0  0  0  0
   38.8590   28.1820   38.7540 H   0  0  0  0  0  0  0  0  0  0  0  0
   37.6150   29.3120   41.6200 C   0  0  0  0  0  0  0  0  0  0  0  0
   37.1290   28.2290   40.9180 C   0  0  0  0  0  0  0  0  0  0  0  0
   36.9750   27.0620   41.6290 C   0  0  0  0  0  0  0  0  0  0  0  0
   36.6050   26.1440   41.1990 H   0  0  0  0  0  0  0  0  0  0  0  0
   37.2690   26.9140   42.9670 C   0  0  0  0  0  0  0  0  0  0  0  0
   37.1470   25.9970   43.5240 H   0  0  0  0  0  0  0  0  0  0  0  0
   37.7550   27.9900   43.6800 C   0  0  0  0  0  3  0  0  0  0  0  0
   37.9150   29.1660   42.9810 C   0  0  0  0  0  3  0  0  0  0  0  0
   38.1390   30.7010   39.5020 H   0  0  0  0  0  0  0  0  0  0  0  0
   37.8550   30.8460   40.8420 S   0  0  0  0  0  0  0  0  0  0  0  0
   38.8910   31.6980   41.4760 O   0  0  0  0  0  0  0  0  0  0  0  0
   36.5400   31.6100   40.8970 O   0  0  0  0  0  0  0  0  0  0  0  0
   33.7610   28.6260   37.4920 C   0  0  0  0  0  0  0  0  0  0  0  0
   33.2170   27.4220   37.0920 F   0  0  0  0  0  0  0  0  0  0  0  0
   33.5290   29.5610   36.4940 F   0  0  0  0  0  0  0  0  0  0  0  0
   33.1270   29.0930   38.6260 F   0  0  0  0  0  0  0  0  0  0  0  0
  1  2  1  0  0  0  0
  2  8  1  0  0  0  0
  2  3  2  0  0  0  0
  3 10  1  0  0  0  0
  4  3  1  0  0  0  0
  5  4  2  0  0  0  0
  6  1  2  0  0  0  0
  6  5  1  0  0  0  0
  7  1  1  0  0  0  0
  9 16  1  0  0  0  0
 10  9  2  0  0  0  0
 10 11  1  0  0  0  0
 11 13  2  0  0  0  0
 12 11  1  0  0  0  0
 13 14  1  0  0  0  0
 13 15  1  0  0  0  0
 16 15  2  0  0  0  0
 17 18  1  0  0  0  0
 18 20  2  0  0  0  0
 18 19  2  0  0  0  0
 18  9  1  0  0  0  0
 21  5  1  0  0  0  0
 21 24  1  0  0  0  0
 22 21  1  0  0  0  0
 23 21  1  0  0  0  0
M  END
>  <minimizedAffinity>
-4.616539

$$$$

 OpenBabel03252500003D

 24 25  0  0  0  0  0  0  0  0999 V2000
   40.7180   31.3530   42.2380 C   0  0  0  0  0  0  0  0  0  0  0  0
   40.0320   30.1400   42.5310 C   0  0  0  0  0  0  0  0  0  0  0  0
   38.8120   29.9160   41.9160 C   0  0  0  0  0  0  0  0  0  0  0  0
   38.3350   30.8540   41.0740 N   0  0  0  0  0  0  0  0  0  0  0  0
   38.9860   31.9890   40.8040 C   0  0  0  0  0  0  0  0  0  0  0  0
   40.1800   32.2290   41.3940 N   0  0  0  0  0  0  0  0  0  0  0  0
   41.6820   31.5680   42.7000 H   0  0  0  0  0  0  0  0  0  0  0  0
   40.5390   29.5110   43.2110 H   0  0  0  0  0  0  0  0  0  0  0  0
   38.1460   27.5890   41.3680 C   0  0  0  0  0  0  0  0  0  0  0  0
   38.0940   28.6820   42.2060 C   0  0  0  0  0  0  0  0  0  0  0  0
   37.3220   28.5460   43.3360 C   0  0  0  0  0  0  0  0  0  0  0  0
   37.1970   29.3250   44.0720 H   0  0  0  0  0  0  0  0  0  0  0  0
   36.6160   27.4120   43.6720 C   0  0  0  0  0  0  0  0  0  0  0  0
   36.0100   27.3060   44.5610 H   0  0  0  0  0  0  0  0  0  0  0  0
   36.6610   26.3110   42.8420 C   0  0  0  0  0  3  0  0  0  0  0  0
   37.4300   26.4330   41.7060 C   0  0  0  0  0  3  0  0  0  0  0  0
   39.1750   28.9000   39.3900 H   0  0  0  0  0  0  0  0  0  0  0  0
   39.0860   27.6270   39.9070 S   0  0  0  0  0  0  0  0  0  0  0  0
   38.6140   26.6970   38.8520 O   0  0  0  0  0  0  0  0  0  0  0  0
   40.5130   27.2310   40.2590 O   0  0  0  0  0  0  0  0  0  0  0  0
   38.2790   32.8820   39.8490 C   0  0  0  0  0  0  0  0  0  0  0  0
   38.8520   34.1380   39.8130 F   0  0  0  0  0  0  0  0  0  0  0  0
   36.9470   33.0240   40.2120 F   0  0  0  0  0  0  0  0  0  0  0  0
   38.2870   32.3080   38.5940 F   0  0  0  0  0  0  0  0  0  0  0  0
  1  2  1  0  0  0  0
  1  7  1  0  0  0  0
  2  8  1  0  0  0  0
  3 10  1  0  0  0  0
  3  2  2  0  0  0  0
  4  3  1  0  0  0  0
  5  4  2  0  0  0  0
  5  6  1  0  0  0  0
  6  1  2  0  0  0  0
  9 16  2  0  0  0  0
  9 10  1  0  0  0  0
 10 11  2  0  0  0  0
 11 13  1  0  0  0  0
 11 12  1  0  0  0  0
 13 14  1  0  0  0  0
 15 13  2  0  0  0  0
 16 15  1  0  0  0  0
 17 18  1  0  0  0  0
 18 20  2  0  0  0  0
 18  9  1  0  0  0  0
 19 18  2  0  0  0  0
 21 23  1  0  0  0  0
 21  5  1  0  0  0  0
 22 21  1  0  0  0  0
 24 21  1  0  0  0  0
M  END
>  <minimizedAffinity>
-4.60877562

$$$$

 OpenBabel03252500003D

 24 25  0  0  0  0  0  0  0  0999 V2000
   37.4800   30.2240   38.0380 C   0  0  0  0  0  0  0  0  0  0  0  0
   37.5070   29.2950   39.1170 C   0  0  0  0  0  0  0  0  0  0  0  0
   37.7910   29.7760   40.3840 C   0  0  0  0  0  0  0  0  0  0  0  0
   38.0290   31.0950   40.5330 N   0  0  0  0  0  0  0  0  0  0  0  0
   38.0000   31.9590   39.5140 C   0  0  0  0  0  0  0  0  0  0  0  0
   37.7250   31.5120   38.2680 N   0  0  0  0  0  0  0  0  0  0  0  0
   37.2600   29.8870   37.0250 H   0  0  0  0  0  0  0  0  0  0  0  0
   37.3000   28.3000   38.8340 H   0  0  0  0  0  0  0  0  0  0  0  0
   39.0110   28.3670   42.0230 C   0  0  0  0  0  0  0  0  0  0  0  0
   37.8260   28.8410   41.5000 C   0  0  0  0  0  0  0  0  0  0  0  0
   36.6730   28.3790   42.0900 C   0  0  0  0  0  0  0  0  0  0  0  0
   35.6830   28.6710   41.7770 H   0  0  0  0  0  0  0  0  0  0  0  0
   36.6320   27.4940   43.1450 C   0  0  0  0  0  0  0  0  0  0  0  0
   35.7250   27.1330   43.6080 H   0  0  0  0  0  0  0  0  0  0  0  0
   37.8100   27.0130   43.6770 C   0  0  0  0  0  3  0  0  0  0  0  0
   38.9740   27.4660   43.0960 C   0  0  0  0  0  3  0  0  0  0  0  0
   40.4370   29.2350   40.0470 H   0  0  0  0  0  0  0  0  0  0  0  0
   40.5400   28.8710   41.3710 S   0  0  0  0  0  0  0  0  0  0  0  0
   41.6290   27.8760   41.5260 O   0  0  0  0  0  0  0  0  0  0  0  0
   40.9680   30.1340   42.1050 O   0  0  0  0  0  0  0  0  0  0  0  0
   38.2920   33.3640   39.9030 C   0  0  0  0  0  0  0  0  0  0  0  0
   39.4250   33.8370   39.2720 F   0  0  0  0  0  0  0  0  0  0  0  0
   38.4870   33.4590   41.2730 F   0  0  0  0  0  0  0  0  0  0  0  0
   37.2020   34.1570   39.6040 F   0  0  0  0  0  0  0  0  0  0  0  0
  1  6  2  0  0  0  0
  1  2  1  0  0  0  0
  2  3  2  0  0  0  0
  3  4  1  0  0  0  0
  3 10  1  0  0  0  0
  5 21  1  0  0  0  0
  5  4  2  0  0  0  0
  6  5  1  0  0  0  0
  7  1  1  0  0  0  0
  8  2  1  0  0  0  0
  9 16  1  0  0  0  0
 10  9  2  0  0  0  0
 10 11  1  0  0  0  0
 11 13  2  0  0  0  0
 12 11  1  0  0  0  0
 13 14  1  0  0  0  0
 13 15  1  0  0  0  0
 16 15  2  0  0  0  0
 17 18  1  0  0  0  0
 18 19  2  0  0  0  0
 18  9  1  0  0  0  0
 18 20  2  0  0  0  0
 21 23  1  0  0  0  0
 22 21  1  0  0  0  0
 24 21  1  0  0  0  0
M  END
>  <minimizedAffinity>
-4.59467888

$$$$

 OpenBabel03252500003D

 24 25  0  0  0  0  0  0  0  0999 V2000
   41.2740   30.0570   39.3520 C   0  0  0  0  0  0  0  0  0  0  0  0
   40.4000   29.2280   40.1110 C   0  0  0  0  0  0  0  0  0  0  0  0
   39.4740   29.8410   40.9380 C   0  0  0  0  0  0  0  0  0  0  0  0
   39.4470   31.1880   40.9850 N   0  0  0  0  0  0  0  0  0  0  0  0
   40.2710   31.9580   40.2680 C   0  0  0  0  0  0  0  0  0  0  0  0
   41.1830   31.3810   39.4540 N   0  0  0  0  0  0  0  0  0  0  0  0
   42.0170   29.6150   38.6890 H   0  0  0  0  0  0  0  0  0  0  0  0
   40.5490   28.1940   39.9630 H   0  0  0  0  0  0  0  0  0  0  0  0
   37.2630   28.7940   41.3540 C   0  0  0  0  0  0  0  0  0  0  0  0
   38.5730   29.0090   41.7250 C   0  0  0  0  0  0  0  0  0  0  0  0
   38.9860   28.3950   42.8840 C   0  0  0  0  0  0  0  0  0  0  0  0
   39.9850   28.4820   43.2830 H   0  0  0  0  0  0  0  0  0  0  0  0
   38.1900   27.5970   43.6760 C   0  0  0  0  0  0  0  0  0  0  0  0
   38.5170   27.1150   44.5860 H   0  0  0  0  0  0  0  0  0  0  0  0
   36.8780   27.3740   43.3160 C   0  0  0  0  0  3  0  0  0  0  0  0
   36.4490   27.9840   42.1570 C   0  0  0  0  0  3  0  0  0  0  0  0
   37.5130   29.4680   38.8700 H   0  0  0  0  0  0  0  0  0  0  0  0
   36.6130   29.5100   39.9110 S   0  0  0  0  0  0  0  0  0  0  0  0
   36.1240   30.9000   40.0850 O   0  0  0  0  0  0  0  0  0  0  0  0
   35.4310   28.6640   39.4600 O   0  0  0  0  0  0  0  0  0  0  0  0
   40.0680   33.4170   40.4730 C   0  0  0  0  0  0  0  0  0  0  0  0
   38.9640   33.6670   41.2620 F   0  0  0  0  0  0  0  0  0  0  0  0
   39.8860   34.0570   39.2550 F   0  0  0  0  0  0  0  0  0  0  0  0
   41.2040   33.9620   41.0390 F   0  0  0  0  0  0  0  0  0  0  0  0
  1  6  2  0  0  0  0
  1  2  1  0  0  0  0
  2  3  2  0  0  0  0
  3  4  1  0  0  0  0
  3 10  1  0  0  0  0
  5 21  1  0  0  0  0
  5  4  2  0  0  0  0
  6  5  1  0  0  0  0
  7  1  1  0  0  0  0
  8  2  1  0  0  0  0
  9 10  2  0  0  0  0
  9 16  1  0  0  0  0
 10 11  1  0  0  0  0
 11 12  1  0  0  0  0
 11 13  2  0  0  0  0
 13 14  1  0  0  0  0
 15 13  1  0  0  0  0
 16 15  2  0  0  0  0
 17 18  1  0  0  0  0
 18 19  2  0  0  0  0
 18  9  1  0  0  0  0
 20 18  2  0  0  0  0
 21 24  1  0  0  0  0
 21 22  1  0  0  0  0
 23 21  1  0  0  0  0
M  END
>  <minimizedAffinity>
-4.54317951

$$$$
