
     RDKit          3D

 27 28  0  0  0  0  0  0  0  0999 V2000
   44.9208   35.1187   44.9422 C   0  0  0  0  0  0  0  0  0  0  0  0
   45.8105   34.7594   43.9452 C   0  0  0  0  0  0  0  0  0  0  0  0
   46.6696   33.6796   44.2073 C   0  0  0  0  0  0  0  0  0  0  0  0
   46.5908   33.0543   45.3945 N   0  0  0  0  0  0  0  0  0  0  0  0
   45.7164   33.4283   46.3399 C   0  0  0  0  0  0  0  0  0  0  0  0
   44.8796   34.4514   46.1319 N   0  0  0  0  0  0  0  0  0  0  0  0
   45.7852   35.5436   42.6867 C   0  0  0  0  0  0  0  0  0  0  0  0
   45.3398   36.8016   43.0356 F   0  0  0  0  0  0  0  0  0  0  0  0
   44.9278   34.9327   41.8123 F   0  0  0  0  0  0  0  0  0  0  0  0
   47.0845   35.5707   42.1790 F   0  0  0  0  0  0  0  0  0  0  0  0
   45.6211   32.7947   47.5735 O   0  0  0  0  0  0  0  0  0  0  0  0
   44.2323   35.9481   44.7917 H   0  0  0  0  0  0  0  0  0  0  0  0
   47.3556   33.4125   43.4215 H   0  0  0  0  0  0  0  0  0  0  0  0
   43.6150   29.8234   48.5955 H   0  0  0  0  0  0  0  0  0  0  0  0
   44.4612   29.9694   47.5495 S   0  0  0  0  0  0  0  0  0  0  0  0
   43.9158   30.9967   46.5676 O   0  0  0  0  0  0  0  0  0  0  0  0
   44.4916   28.6273   46.8257 O   0  0  0  0  0  0  0  0  0  0  0  0
   46.0847   30.4104   47.9969 C   0  0  0  0  0  0  0  0  0  0  0  0
   46.4155   31.7398   47.9380 C   0  0  0  0  0  0  0  0  0  0  0  0
   47.7298   32.0473   48.2959 C   0  0  0  0  0  0  0  0  0  0  0  0
   48.1248   33.0482   48.2951 H   0  0  0  0  0  0  0  0  0  0  0  0
   48.6242   31.0766   48.6802 C   0  0  0  0  0  0  0  0  0  0  0  0
   49.6439   31.3047   48.9590 H   0  0  0  0  0  0  0  0  0  0  0  0
   48.2770   29.7377   48.7356 C   0  0  0  0  0  0  0  0  0  0  0  0
   46.9713   29.4261   48.3807 C   0  0  0  0  0  0  0  0  0  0  0  0
   48.9016   28.9256   49.0201 H   0  0  0  0  0  0  0  0  0  0  0  0
   46.6114   28.3864   48.3966 H   0  0  0  0  0  0  0  0  0  0  0  0
  1  6  2  0
  2  3  2  0
  2  1  1  0
  3  4  1  0
  4  5  2  0
  5 11  1  0
  6  5  1  0
  7  8  1  0
  7  2  1  0
  9  7  1  0
 10  7  1  0
  1 12  1  0
  3 13  1  0
 14 15  1  0
 15 16  2  0
 15 17  2  0
 15 18  1  0
 18 19  2  0
 19 20  1  0
 20 21  1  0
 20 22  2  0
 22 23  1  0
 22 24  1  0
 24 25  2  0
 25 18  1  0
 24 26  1  0
 25 27  1  0
 11 19  1  0
M  ISO  5  12  14  13  14  14  12  21  15  23  16
M  END
>  <DihAtoms>  (1) 
4,10,18,17

>  <DihDeg>  (1) 
61.08150697736435

$$$$
