
 OpenBabel03252506423D

 43 46  0  0  1  0  0  0  0  0999 V2000
   49.4860   33.4130   41.3490 N   0  0  1  0  0  0  0  0  0  0  0  0
   50.6730   33.0050   42.0330 C   0  0  0  0  0  0  0  0  0  0  0  0
   51.2110   31.6740   41.6600 C   0  0  0  0  0  0  0  0  0  0  0  0
   50.2200   30.6040   42.0010 C   0  0  0  0  0  0  0  0  0  0  0  0
   48.8300   31.1090   41.8310 C   0  0  0  0  0  0  0  0  0  0  0  0
   48.7370   32.2510   40.9050 C   0  0  2  0  0  0  0  0  0  0  0  0
   50.4730   32.9670   43.1410 H   0  0  0  0  0  0  0  0  0  0  0  0
   51.5190   33.7400   41.8940 H   0  0  0  0  0  0  0  0  0  0  0  0
   51.6830   31.5630   40.6890 H   0  0  0  0  0  0  0  0  0  0  0  0
   52.0760   31.4980   42.3890 H   0  0  0  0  0  0  0  0  0  0  0  0
   50.4070   29.6770   41.3840 H   0  0  0  0  0  0  0  0  0  0  0  0
   50.3480   30.2730   43.0550 H   0  0  0  0  0  0  0  0  0  0  0  0
   48.2230   30.2640   41.5480 H   0  0  0  0  0  0  0  0  0  0  0  0
   48.4230   31.4590   42.8210 H   0  0  0  0  0  0  0  0  0  0  0  0
   47.6770   32.6460   41.0700 H   0  0  0  0  0  0  0  0  0  0  0  0
   47.5800   31.9390   38.7600 C   0  0  0  0  0  0  0  0  0  0  0  0
   48.7950   32.0150   39.4640 C   0  0  0  0  0  0  0  0  0  0  0  0
   49.9690   31.8790   38.7050 C   0  0  0  0  0  0  0  0  0  0  0  0
   50.9220   31.9460   39.2110 H   0  0  0  0  0  0  0  0  0  0  0  0
   50.0270   31.6810   37.3650 C   0  0  0  0  0  0  0  0  0  0  0  0
   50.9690   31.5840   36.8410 H   0  0  0  0  0  0  0  0  0  0  0  0
   48.8560   31.6030   36.6590 C   0  0  0  0  0  3  0  0  0  0  0  0
   47.6840   31.7330   37.3740 C   0  0  0  0  0  3  0  0  0  0  0  0
   45.8980   31.4730   40.7000 H   0  0  0  0  0  0  0  0  0  0  0  0
   46.0120   32.0690   39.4440 S   0  0  0  0  0  0  0  0  0  0  0  0
   45.3510   33.3870   39.3910 O   0  0  0  0  0  0  0  0  0  0  0  0
   45.0540   31.1880   38.6300 O   0  0  0  0  0  0  0  0  0  0  0  0
   47.3520   34.7250   41.9330 C   0  0  1  0  0  0  0  0  0  0  0  0
   48.4640   35.6270   41.7270 C   0  0  0  0  0  0  0  0  0  0  0  0
   48.7660   34.2650   42.2580 C   0  0  2  0  0  0  0  0  0  0  0  0
   46.9190   34.1290   41.0890 H   0  0  0  0  0  0  0  0  0  0  0  0
   48.5480   36.4900   42.4460 H   0  0  0  0  0  0  0  0  0  0  0  0
   48.8170   35.9200   40.7290 H   0  0  0  0  0  0  0  0  0  0  0  0
   49.0340   34.1730   43.3250 H   0  0  0  0  0  0  0  0  0  0  0  0
   45.5610   36.0340   43.1380 C   0  0  0  0  0  0  0  0  0  0  0  0
   46.4090   34.8940   43.0670 C   0  0  0  0  0  0  0  0  0  0  0  0
   46.3160   33.9720   44.0920 C   0  0  0  0  0  0  0  0  0  0  0  0
   45.4240   34.2200   45.0860 N   0  0  0  0  0  0  0  0  0  0  0  0
   44.6310   35.3080   45.1290 C   0  0  0  0  0  0  0  0  0  0  0  0
   44.6920   36.2390   44.1400 N   0  0  0  0  0  0  0  0  0  0  0  0
   45.6810   36.7220   42.3020 H   0  0  0  0  0  0  0  0  0  0  0  0
   46.9360   33.0870   44.0930 H   0  0  0  0  0  0  0  0  0  0  0  0
   43.9380   35.4520   45.9480 H   0  0  0  0  0  0  0  0  0  0  0  0
  1  2  1  1  0  0  0
  1 30  1  0  0  0  0
  2  7  1  0  0  0  0
  3  4  1  0  0  0  0
  3  2  1  0  0  0  0
  3 10  1  0  0  0  0
  4 12  1  0  0  0  0
  5  4  1  0  0  0  0
  5 14  1  0  0  0  0
  6 15  1  1  0  0  0
  6  1  1  0  0  0  0
  6  5  1  0  0  0  0
  8  2  1  0  0  0  0
  9  3  1  0  0  0  0
 11  4  1  0  0  0  0
 13  5  1  0  0  0  0
 16 25  1  0  0  0  0
 16 17  1  0  0  0  0
 17  6  1  0  0  0  0
 18 19  1  0  0  0  0
 18 17  2  0  0  0  0
 20 18  1  0  0  0  0
 21 20  1  0  0  0  0
 22 20  2  0  0  0  0
 22 23  1  0  0  0  0
 23 16  2  0  0  0  0
 25 24  1  0  0  0  0
 26 25  2  0  0  0  0
 27 25  2  0  0  0  0
 28 31  1  6  0  0  0
 28 30  1  0  0  0  0
 28 36  1  0  0  0  0
 29 28  1  0  0  0  0
 29 30  1  0  0  0  0
 29 32  1  0  0  0  0
 30 34  1  1  0  0  0
 33 29  1  0  0  0  0
 35 40  1  0  0  0  0
 36 35  2  0  0  0  0
 36 37  1  0  0  0  0
 37 42  1  0  0  0  0
 37 38  2  0  0  0  0
 38 39  1  0  0  0  0
 39 43  1  0  0  0  0
 40 39  2  0  0  0  0
 41 35  1  0  0  0  0
M  END
>  <minimizedAffinity>
-5.09139299

>  <minimizedRMSD>
1.11830926

$$$$
