REMARK  Name = 
REMARK  7 active torsions:
REMARK  status: ('A' for Active; 'I' for Inactive)
REMARK    1  A    between atoms: C_1  and  C_7
REMARK    2  A    between atoms: C_5  and  O_8
REMARK    3  A    between atoms: O_8  and  P_10
REMARK    4  A    between atoms: P_10  and  O_11
REMARK    5  A    between atoms: P_10  and  O_12
REMARK    6  A    between atoms: O_12  and  C_24
REMARK    7  A    between atoms: S_20  and  C_23
REMARK                            x       y       z     vdW  Elec       q    Type
REMARK                         _______ _______ _______ _____ _____    ______ ____
ROOT
ATOM      1  O   UNL     1      45.355  31.721  49.445  0.00  0.00    +0.000 OA
ATOM      2  P   UNL     1      45.612  31.601  47.934  0.00  0.00    +0.000 P 
ENDROOT
BRANCH   2   3
ATOM      3  O   UNL     1      44.586  30.417  47.344  0.00  0.00    +0.000 OA
ATOM      4  H   UNL     1      43.784  30.296  47.922  0.00  0.00    +0.000 HD
ENDBRANCH   2   3
BRANCH   2   5
ATOM      5  O   UNL     1      45.303  33.138  47.297  0.00  0.00    +0.000 OA
BRANCH   5  10
ATOM      6  C   UNL     1      45.500  34.910  44.149  0.00  0.00    +0.000 A 
ATOM      7  C   UNL     1      46.543  34.237  43.521  0.00  0.00    +0.000 A 
ATOM      8  C   UNL     1      47.156  33.172  44.222  0.00  0.00    +0.000 A 
ATOM      9  N   UNL     1      46.680  32.884  45.458  0.00  0.00    +0.000 NA
ATOM     10  C   UNL     1      45.664  33.568  46.022  0.00  0.00    +0.000 A 
ATOM     11  N   UNL     1      45.071  34.590  45.357  0.00  0.00    +0.000 NA
ATOM     12  H   UNL     1      46.934  34.455  42.536  0.00  0.00    +0.000 HD
ATOM     13  H   UNL     1      47.972  32.616  43.778  0.00  0.00    +0.000 HD
BRANCH   6  14
ATOM     14  C   UNL     1      44.870  36.031  43.387  0.00  0.00    +0.000 C 
ATOM     15  H   UNL     1      44.015  36.421  43.960  0.00  0.00    +0.000 HD
ATOM     16  H   UNL     1      44.546  35.653  42.380  0.00  0.00    +0.000 HD
ATOM     17  H   UNL     1      45.599  36.853  43.192  0.00  0.00    +0.000 HD
ENDBRANCH   6  14
ENDBRANCH   5  10
ENDBRANCH   2   5
BRANCH   2  18
ATOM     18  O   UNL     1      47.212  31.170  47.651  0.00  0.00    +0.000 OA
BRANCH  18  20
ATOM     19  C   UNL     1      46.851  29.277  48.920  0.00  0.00    +0.000 A 
ATOM     20  C   UNL     1      47.688  29.926  48.035  0.00  0.00    +0.000 A 
ATOM     21  C   UNL     1      48.876  29.423  47.562  0.00  0.00    +0.000 A 
ATOM     22  H   UNL     1      49.486  29.963  46.880  0.00  0.00    +0.000 HD
ATOM     23  C   UNL     1      49.211  28.154  48.050  0.00  0.00    +0.000 A 
ATOM     24  H   UNL     1      50.139  27.713  47.707  0.00  0.00    +0.000 HD
ATOM     25  C   UNL     1      48.408  27.464  48.936  0.00  0.00    +0.000 A 
ATOM     26  C   UNL     1      47.222  28.011  49.383  0.00  0.00    +0.000 A 
BRANCH  19  28
ATOM     27  H   UNL     1      44.719  30.644  48.520  0.00  0.00    +0.000 HD
ATOM     28  S   UNL     1      45.348  29.936  49.506  0.00  0.00    +0.000 S 
ATOM     29  O   UNL     1      45.619  30.756  50.720  0.00  0.00    +0.000 OA
ATOM     30  O   UNL     1      44.436  28.804  49.939  0.00  0.00    +0.000 OA
ENDBRANCH  19  28
ENDBRANCH  18  20
ENDBRANCH   2  18
TORSDOF 7
