
 OpenBabel03242518273D

 48 52  0  0  1  0  0  0  0  0999 V2000
   37.9040   33.9600   39.7510 C   0  0  0  0  0  0  0  0  0  0  0  0
   38.4400   32.7180   39.5410 C   0  0  0  0  0  0  0  0  0  0  0  0
   39.7710   32.5340   39.8160 C   0  0  0  0  0  0  0  0  0  0  0  0
   40.5350   33.5740   40.2900 C   0  0  0  0  0  0  0  0  0  0  0  0
   39.9840   34.8270   40.5000 C   0  0  0  0  0  0  0  0  0  0  0  0
   38.6340   35.0380   40.2270 C   0  0  0  0  0  0  0  0  0  0  0  0
   41.0060   35.6730   40.9830 O   0  0  0  0  0  0  0  0  0  0  0  0
   42.2340   35.0320   40.7250 C   0  0  2  0  0  0  0  0  0  0  0  0
   41.8970   33.6530   40.6450 O   0  0  0  0  0  0  0  0  0  0  0  0
   36.8540   34.1310   39.5410 H   0  0  0  0  0  0  0  0  0  0  0  0
   40.2250   31.5590   39.6580 H   0  0  0  0  0  0  0  0  0  0  0  0
   38.1900   36.0230   40.3900 H   0  0  0  0  0  0  0  0  0  0  0  0
   42.5460   35.3080   39.6800 H   0  0  0  0  0  0  0  0  0  0  0  0
   36.8260   30.3580   37.2210 C   0  0  0  0  0  0  0  0  0  0  0  0
   36.0030   29.6170   38.0640 C   0  0  0  0  0  0  0  0  0  0  0  0
   36.0110   29.9380   39.4260 C   0  0  0  0  0  0  0  0  0  0  0  0
   36.8040   30.9410   39.8740 N   0  0  0  0  0  0  0  0  0  0  0  0
   37.5900   31.6380   39.0350 C   0  0  0  0  0  0  0  0  0  0  0  0
   37.6030   31.3500   37.7100 N   0  0  0  0  0  0  0  0  0  0  0  0
   36.8580   30.1490   36.1560 H   0  0  0  0  0  0  0  0  0  0  0  0
   35.3730   29.3570   40.0480 H   0  0  0  0  0  0  0  0  0  0  0  0
   35.2320   28.6030   37.4510 N   0  0  0  0  0  0  0  0  0  0  0  0
   35.2860   27.2850   38.0400 C   0  0  0  0  0  0  0  0  0  0  0  0
   34.5220   26.2590   37.2870 C   0  0  0  0  0  0  0  0  0  0  0  0
   33.2170   26.6860   36.9340 N   0  0  0  0  0  0  0  0  0  0  0  0
   33.0560   28.0380   36.5460 C   0  0  0  0  0  0  0  0  0  0  0  0
   34.3870   28.7170   36.2990 C   0  0  0  0  0  0  0  0  0  0  0  0
   36.3590   26.9680   38.1270 H   0  0  0  0  0  0  0  0  0  0  0  0
   34.8760   27.3560   39.0690 H   0  0  0  0  0  0  0  0  0  0  0  0
   34.4800   25.3350   37.8740 H   0  0  0  0  0  0  0  0  0  0  0  0
   35.1000   26.0460   36.3510 H   0  0  0  0  0  0  0  0  0  0  0  0
   32.6700   25.9780   36.4370 H   0  0  0  0  0  0  0  0  0  0  0  0
   32.5350   28.6380   37.3480 H   0  0  0  0  0  0  0  0  0  0  0  0
   32.4240   28.1620   35.6400 H   0  0  0  0  0  0  0  0  0  0  0  0
   34.8510   28.4130   35.3490 H   0  0  0  0  0  0  0  0  0  0  0  0
   34.1420   29.8110   36.2030 H   0  0  0  0  0  0  0  0  0  0  0  0
   44.5680   34.8390   41.4770 C   0  0  0  0  0  0  0  0  0  0  0  0
   43.2970   35.3270   41.6930 C   0  0  0  0  0  0  0  0  0  0  0  0
   42.9870   36.0950   42.8020 C   0  0  0  0  0  0  0  0  0  0  0  0
   41.9920   36.4830   42.9810 H   0  0  0  0  0  0  0  0  0  0  0  0
   43.9400   36.4090   43.7490 C   0  0  0  0  0  0  0  0  0  0  0  0
   43.7710   36.9970   44.6310 H   0  0  0  0  0  0  0  0  0  0  0  0
   45.2120   35.9460   43.5740 C   0  0  0  0  0  3  0  0  0  0  0  0
   45.4870   35.1850   42.4580 C   0  0  0  0  0  3  0  0  0  0  0  0
   43.9140   33.3460   39.4440 H   0  0  0  0  0  0  0  0  0  0  0  0
   44.9990   33.8690   40.0900 S   0  0  0  0  0  0  0  0  0  0  0  0
   45.7700   32.6680   40.6150 O   0  0  0  0  0  0  0  0  0  0  0  0
   45.9470   34.5710   39.1620 O   0  0  0  0  0  0  0  0  0  0  0  0
  1  6  1  0  0  0  0
  2  1  2  0  0  0  0
  2  3  1  0  0  0  0
  3  4  2  0  0  0  0
  4  5  1  0  0  0  0
  4  9  1  0  0  0  0
  5  7  1  0  0  0  0
  6 12  1  0  0  0  0
  6  5  2  0  0  0  0
  8 13  1  6  0  0  0
  8  7  1  0  0  0  0
  8 38  1  0  0  0  0
  9  8  1  0  0  0  0
 10  1  1  0  0  0  0
 11  3  1  0  0  0  0
 14 19  2  0  0  0  0
 14 15  1  0  0  0  0
 15 16  2  0  0  0  0
 16 17  1  0  0  0  0
 16 21  1  0  0  0  0
 18  2  1  0  0  0  0
 18 17  2  0  0  0  0
 19 18  1  0  0  0  0
 20 14  1  0  0  0  0
 22 23  1  0  0  0  0
 22 15  1  0  0  0  0
 23 28  1  0  0  0  0
 23 29  1  0  0  0  0
 24 30  1  0  0  0  0
 24 23  1  0  0  0  0
 25 24  1  0  0  0  0
 26 25  1  0  0  0  0
 26 33  1  0  0  0  0
 27 26  1  0  0  0  0
 27 22  1  0  0  0  0
 31 24  1  0  0  0  0
 32 25  1  0  0  0  0
 34 26  1  0  0  0  0
 35 27  1  0  0  0  0
 36 27  1  0  0  0  0
 37 38  2  0  0  0  0
 37 44  1  0  0  0  0
 38 39  1  0  0  0  0
 39 40  1  0  0  0  0
 39 41  2  0  0  0  0
 41 42  1  0  0  0  0
 43 41  1  0  0  0  0
 44 43  2  0  0  0  0
 45 46  1  0  0  0  0
 46 47  2  0  0  0  0
 46 37  1  0  0  0  0
 48 46  2  0  0  0  0
M  END
>  <minimizedAffinity>
-6.77935743

$$$$

 OpenBabel03242518273D

 48 52  0  0  1  0  0  0  0  0999 V2000
   37.5440   28.1300   42.3210 C   0  0  0  0  0  0  0  0  0  0  0  0
   37.8650   28.5450   41.0570 C   0  0  0  0  0  0  0  0  0  0  0  0
   37.7700   27.6360   40.0340 C   0  0  0  0  0  0  0  0  0  0  0  0
   37.3640   26.3470   40.2830 C   0  0  0  0  0  0  0  0  0  0  0  0
   37.0410   25.9350   41.5660 C   0  0  0  0  0  0  0  0  0  0  0  0
   37.1300   26.8410   42.6210 C   0  0  0  0  0  0  0  0  0  0  0  0
   36.6660   24.5750   41.5010 O   0  0  0  0  0  0  0  0  0  0  0  0
   37.1020   24.0810   40.2560 C   0  0  2  0  0  0  0  0  0  0  0  0
   37.1860   25.2370   39.4320 O   0  0  0  0  0  0  0  0  0  0  0  0
   37.6110   28.8300   43.1460 H   0  0  0  0  0  0  0  0  0  0  0  0
   38.0190   27.9370   39.0200 H   0  0  0  0  0  0  0  0  0  0  0  0
   36.8780   26.5260   43.6360 H   0  0  0  0  0  0  0  0  0  0  0  0
   38.1680   23.7460   40.3810 H   0  0  0  0  0  0  0  0  0  0  0  0
   40.0370   31.4770   40.5640 C   0  0  0  0  0  0  0  0  0  0  0  0
   39.1210   32.5150   40.4220 C   0  0  0  0  0  0  0  0  0  0  0  0
   37.7610   32.1950   40.4980 C   0  0  0  0  0  0  0  0  0  0  0  0
   37.3850   30.9090   40.7030 N   0  0  0  0  0  0  0  0  0  0  0  0
   38.2940   29.9280   40.8360 C   0  0  0  0  0  0  0  0  0  0  0  0
   39.6190   30.2080   40.7670 N   0  0  0  0  0  0  0  0  0  0  0  0
   41.1050   31.6710   40.5120 H   0  0  0  0  0  0  0  0  0  0  0  0
   37.0820   33.0060   40.3870 H   0  0  0  0  0  0  0  0  0  0  0  0
   39.6630   33.8030   40.2140 N   0  0  0  0  0  0  0  0  0  0  0  0
   38.7730   34.9300   40.3760 C   0  0  0  0  0  0  0  0  0  0  0  0
   39.3950   36.2380   40.0530 C   0  0  0  0  0  0  0  0  0  0  0  0
   40.6690   36.4110   40.6510 N   0  0  0  0  0  0  0  0  0  0  0  0
   41.5190   35.2800   40.7140 C   0  0  0  0  0  0  0  0  0  0  0  0
   41.0090   34.1420   39.8550 C   0  0  0  0  0  0  0  0  0  0  0  0
   37.8660   34.7730   39.7350 H   0  0  0  0  0  0  0  0  0  0  0  0
   38.4340   34.9450   41.4330 H   0  0  0  0  0  0  0  0  0  0  0  0
   38.7170   37.0460   40.3490 H   0  0  0  0  0  0  0  0  0  0  0  0
   39.5090   36.2770   38.9390 H   0  0  0  0  0  0  0  0  0  0  0  0
   41.0980   37.3200   40.4570 H   0  0  0  0  0  0  0  0  0  0  0  0
   41.5920   34.8780   41.7670 H   0  0  0  0  0  0  0  0  0  0  0  0
   42.5670   35.5030   40.4190 H   0  0  0  0  0  0  0  0  0  0  0  0
   41.1760   34.3110   38.7800 H   0  0  0  0  0  0  0  0  0  0  0  0
   41.6380   33.2560   40.1440 H   0  0  0  0  0  0  0  0  0  0  0  0
   36.8530   21.8160   39.3310 C   0  0  0  0  0  0  0  0  0  0  0  0
   36.2700   23.0110   39.6940 C   0  0  0  0  0  0  0  0  0  0  0  0
   34.9120   23.2370   39.5450 C   0  0  0  0  0  0  0  0  0  0  0  0
   34.4440   24.1710   39.8270 H   0  0  0  0  0  0  0  0  0  0  0  0
   34.0760   22.2720   39.0240 C   0  0  0  0  0  0  0  0  0  0  0  0
   33.0170   22.3780   38.8800 H   0  0  0  0  0  0  0  0  0  0  0  0
   34.6120   21.0740   38.6510 C   0  0  0  0  0  3  0  0  0  0  0  0
   35.9670   20.8810   38.8130 C   0  0  0  0  0  3  0  0  0  0  0  0
   39.2120   22.4320   40.2520 H   0  0  0  0  0  0  0  0  0  0  0  0
   38.5610   21.4920   39.5040 S   0  0  0  0  0  0  0  0  0  0  0  0
   39.1710   21.5930   38.1140 O   0  0  0  0  0  0  0  0  0  0  0  0
   38.8440   20.0890   39.9570 O   0  0  0  0  0  0  0  0  0  0  0  0
  1  6  1  0  0  0  0
  1 10  1  0  0  0  0
  2  1  2  0  0  0  0
  3  4  2  0  0  0  0
  3  2  1  0  0  0  0
  4  5  1  0  0  0  0
  5  6  2  0  0  0  0
  6 12  1  0  0  0  0
  7  5  1  0  0  0  0
  8 13  1  1  0  0  0
  8  7  1  0  0  0  0
  9  8  1  0  0  0  0
  9  4  1  0  0  0  0
 11  3  1  0  0  0  0
 14 19  1  0  0  0  0
 15 16  1  0  0  0  0
 15 14  2  0  0  0  0
 16 17  2  0  0  0  0
 17 18  1  0  0  0  0
 18  2  1  0  0  0  0
 19 18  2  0  0  0  0
 20 14  1  0  0  0  0
 21 16  1  0  0  0  0
 22 23  1  0  0  0  0
 22 15  1  0  0  0  0
 23 29  1  0  0  0  0
 24 30  1  0  0  0  0
 24 23  1  0  0  0  0
 24 25  1  0  0  0  0
 25 26  1  0  0  0  0
 26 33  1  0  0  0  0
 27 36  1  0  0  0  0
 27 22  1  0  0  0  0
 27 26  1  0  0  0  0
 28 23  1  0  0  0  0
 31 24  1  0  0  0  0
 32 25  1  0  0  0  0
 34 26  1  0  0  0  0
 35 27  1  0  0  0  0
 37 46  1  0  0  0  0
 37 38  1  0  0  0  0
 38  8  1  0  0  0  0
 39 38  2  0  0  0  0
 39 40  1  0  0  0  0
 41 39  1  0  0  0  0
 42 41  1  0  0  0  0
 43 44  1  0  0  0  0
 43 41  2  0  0  0  0
 44 37  2  0  0  0  0
 46 48  2  0  0  0  0
 46 45  1  0  0  0  0
 47 46  2  0  0  0  0
M  END
>  <minimizedAffinity>
-6.32635498

$$$$

 OpenBabel03242518273D

 48 52  0  0  1  0  0  0  0  0999 V2000
   38.3840   28.1480   42.3510 C   0  0  0  0  0  0  0  0  0  0  0  0
   37.8540   27.9590   41.1030 C   0  0  0  0  0  0  0  0  0  0  0  0
   37.8310   29.0260   40.2420 C   0  0  0  0  0  0  0  0  0  0  0  0
   38.3290   30.2470   40.6310 C   0  0  0  0  0  0  0  0  0  0  0  0
   38.8630   30.4290   41.8970 C   0  0  0  0  0  0  0  0  0  0  0  0
   38.8970   29.3600   42.7890 C   0  0  0  0  0  0  0  0  0  0  0  0
   39.2850   31.7730   41.9970 O   0  0  0  0  0  0  0  0  0  0  0  0
   38.6860   32.4780   40.9350 C   0  0  2  0  0  0  0  0  0  0  0  0
   38.4240   31.4810   39.9570 O   0  0  0  0  0  0  0  0  0  0  0  0
   38.4130   27.3200   43.0500 H   0  0  0  0  0  0  0  0  0  0  0  0
   37.4160   28.9060   39.2450 H   0  0  0  0  0  0  0  0  0  0  0  0
   39.3160   29.4930   43.7890 H   0  0  0  0  0  0  0  0  0  0  0  0
   37.6680   32.8080   41.2820 H   0  0  0  0  0  0  0  0  0  0  0  0
   36.2610   25.2730   39.1520 C   0  0  0  0  0  0  0  0  0  0  0  0
   36.3530   24.1790   40.0070 C   0  0  0  0  0  0  0  0  0  0  0  0
   36.9640   24.3770   41.2500 C   0  0  0  0  0  0  0  0  0  0  0  0
   37.4380   25.6030   41.5780 N   0  0  0  0  0  0  0  0  0  0  0  0
   37.3340   26.6410   40.7300 C   0  0  0  0  0  0  0  0  0  0  0  0
   36.7470   26.4800   39.5180 N   0  0  0  0  0  0  0  0  0  0  0  0
   35.7970   25.1730   38.1750 H   0  0  0  0  0  0  0  0  0  0  0  0
   37.0220   23.5250   41.8850 H   0  0  0  0  0  0  0  0  0  0  0  0
   35.8140   22.9640   39.5280 N   0  0  0  0  0  0  0  0  0  0  0  0
   34.3760   22.8760   39.4210 C   0  0  0  0  0  0  0  0  0  0  0  0
   33.8860   21.5400   38.9960 C   0  0  0  0  0  0  0  0  0  0  0  0
   34.5870   21.0220   37.8780 N   0  0  0  0  0  0  0  0  0  0  0  0
   35.9810   21.2580   37.8140 C   0  0  0  0  0  0  0  0  0  0  0  0
   36.5240   21.7860   39.1260 C   0  0  0  0  0  0  0  0  0  0  0  0
   33.9190   23.1490   40.4090 H   0  0  0  0  0  0  0  0  0  0  0  0
   34.0430   23.6320   38.6800 H   0  0  0  0  0  0  0  0  0  0  0  0
   32.8120   21.5970   38.7860 H   0  0  0  0  0  0  0  0  0  0  0  0
   34.0300   20.8500   39.8660 H   0  0  0  0  0  0  0  0  0  0  0  0
   34.2420   20.1120   37.5580 H   0  0  0  0  0  0  0  0  0  0  0  0
   36.2330   22.0300   37.0300 H   0  0  0  0  0  0  0  0  0  0  0  0
   36.5660   20.3570   37.5280 H   0  0  0  0  0  0  0  0  0  0  0  0
   36.6080   21.0060   39.8980 H   0  0  0  0  0  0  0  0  0  0  0  0
   37.5720   22.1210   38.8930 H   0  0  0  0  0  0  0  0  0  0  0  0
   40.7130   33.3890   39.8810 C   0  0  0  0  0  0  0  0  0  0  0  0
   39.4690   33.6130   40.4310 C   0  0  0  0  0  0  0  0  0  0  0  0
   38.9280   34.8830   40.5240 C   0  0  0  0  0  0  0  0  0  0  0  0
   37.9520   35.0700   40.9540 H   0  0  0  0  0  0  0  0  0  0  0  0
   39.6120   35.9910   40.0690 C   0  0  0  0  0  0  0  0  0  0  0  0
   39.2550   37.0030   40.1090 H   0  0  0  0  0  0  0  0  0  0  0  0
   40.8480   35.8150   39.5170 C   0  0  0  0  0  3  0  0  0  0  0  0
   41.3570   34.5370   39.4390 C   0  0  0  0  0  3  0  0  0  0  0  0
   40.9640   30.9220   40.6810 H   0  0  0  0  0  0  0  0  0  0  0  0
   41.4290   31.8020   39.7440 S   0  0  0  0  0  0  0  0  0  0  0  0
   42.9120   31.9600   40.0460 O   0  0  0  0  0  0  0  0  0  0  0  0
   41.3670   31.2540   38.3490 O   0  0  0  0  0  0  0  0  0  0  0  0
  1  6  1  0  0  0  0
  1 10  1  0  0  0  0
  2  1  2  0  0  0  0
  3  4  2  0  0  0  0
  3  2  1  0  0  0  0
  4  5  1  0  0  0  0
  5  7  1  0  0  0  0
  5  6  2  0  0  0  0
  6 12  1  0  0  0  0
  8 13  1  1  0  0  0
  8  7  1  0  0  0  0
  9  4  1  0  0  0  0
  9  8  1  0  0  0  0
 11  3  1  0  0  0  0
 14 19  2  0  0  0  0
 14 15  1  0  0  0  0
 15 16  2  0  0  0  0
 16 17  1  0  0  0  0
 16 21  1  0  0  0  0
 18  2  1  0  0  0  0
 18 17  2  0  0  0  0
 19 18  1  0  0  0  0
 20 14  1  0  0  0  0
 22 15  1  0  0  0  0
 23 22  1  0  0  0  0
 23 28  1  0  0  0  0
 24 23  1  0  0  0  0
 24 31  1  0  0  0  0
 25 24  1  0  0  0  0
 26 25  1  0  0  0  0
 26 27  1  0  0  0  0
 27 22  1  0  0  0  0
 27 35  1  0  0  0  0
 29 23  1  0  0  0  0
 30 24  1  0  0  0  0
 32 25  1  0  0  0  0
 33 26  1  0  0  0  0
 34 26  1  0  0  0  0
 36 27  1  0  0  0  0
 37 38  1  0  0  0  0
 38 39  2  0  0  0  0
 38  8  1  0  0  0  0
 39 40  1  0  0  0  0
 41 42  1  0  0  0  0
 41 39  1  0  0  0  0
 43 41  2  0  0  0  0
 44 43  1  0  0  0  0
 44 37  2  0  0  0  0
 46 37  1  0  0  0  0
 46 47  2  0  0  0  0
 46 45  1  0  0  0  0
 48 46  2  0  0  0  0
M  END
>  <minimizedAffinity>
-6.14704561

$$$$

 OpenBabel03242518273D

 48 52  0  0  1  0  0  0  0  0999 V2000
   37.3860   27.7320   42.2160 C   0  0  0  0  0  0  0  0  0  0  0  0
   38.1950   28.0390   41.1560 C   0  0  0  0  0  0  0  0  0  0  0  0
   38.5980   27.0190   40.3330 C   0  0  0  0  0  0  0  0  0  0  0  0
   38.1950   25.7270   40.5750 C   0  0  0  0  0  0  0  0  0  0  0  0
   37.3750   25.4250   41.6510 C   0  0  0  0  0  0  0  0  0  0  0  0
   36.9530   26.4450   42.5010 C   0  0  0  0  0  0  0  0  0  0  0  0
   37.1380   24.0340   41.6350 O   0  0  0  0  0  0  0  0  0  0  0  0
   38.0920   23.4580   40.7740 C   0  0  2  0  0  0  0  0  0  0  0  0
   38.4590   24.5180   39.9010 O   0  0  0  0  0  0  0  0  0  0  0  0
   37.0540   28.5220   42.8810 H   0  0  0  0  0  0  0  0  0  0  0  0
   39.2420   27.2320   39.4830 H   0  0  0  0  0  0  0  0  0  0  0  0
   36.3060   26.2180   43.3510 H   0  0  0  0  0  0  0  0  0  0  0  0
   39.0170   23.2590   41.3810 H   0  0  0  0  0  0  0  0  0  0  0  0
   38.5580   31.3490   39.5840 C   0  0  0  0  0  0  0  0  0  0  0  0
   39.3520   32.0350   40.4970 C   0  0  0  0  0  0  0  0  0  0  0  0
   39.7570   31.3510   41.6490 C   0  0  0  0  0  0  0  0  0  0  0  0
   39.3700   30.0650   41.8350 N   0  0  0  0  0  0  0  0  0  0  0  0
   38.6020   29.4290   40.9340 C   0  0  0  0  0  0  0  0  0  0  0  0
   38.1940   30.0670   39.8090 N   0  0  0  0  0  0  0  0  0  0  0  0
   38.2160   31.8350   38.6740 H   0  0  0  0  0  0  0  0  0  0  0  0
   40.3620   31.8970   42.3300 H   0  0  0  0  0  0  0  0  0  0  0  0
   39.6740   33.3710   40.1660 N   0  0  0  0  0  0  0  0  0  0  0  0
   38.7360   34.3950   40.5650 C   0  0  0  0  0  0  0  0  0  0  0  0
   39.1020   35.7570   40.1020 C   0  0  0  0  0  0  0  0  0  0  0  0
   40.4600   36.0820   40.3500 N   0  0  0  0  0  0  0  0  0  0  0  0
   41.4180   35.0540   40.1800 C   0  0  0  0  0  0  0  0  0  0  0  0
   40.8330   33.8480   39.4730 C   0  0  0  0  0  0  0  0  0  0  0  0
   37.7170   34.1260   40.1800 H   0  0  0  0  0  0  0  0  0  0  0  0
   38.6830   34.3940   41.6730 H   0  0  0  0  0  0  0  0  0  0  0  0
   38.4380   36.4910   40.5720 H   0  0  0  0  0  0  0  0  0  0  0  0
   38.9180   35.7860   38.9980 H   0  0  0  0  0  0  0  0  0  0  0  0
   40.7190   37.0290   40.0590 H   0  0  0  0  0  0  0  0  0  0  0  0
   41.8060   34.6840   41.1730 H   0  0  0  0  0  0  0  0  0  0  0  0
   42.3220   35.3850   39.6240 H   0  0  0  0  0  0  0  0  0  0  0  0
   40.6960   34.0130   38.3930 H   0  0  0  0  0  0  0  0  0  0  0  0
   41.6110   33.0440   39.5800 H   0  0  0  0  0  0  0  0  0  0  0  0
   36.5020   22.2910   39.3030 C   0  0  0  0  0  0  0  0  0  0  0  0
   37.6410   22.2460   40.0790 C   0  0  0  0  0  0  0  0  0  0  0  0
   38.3810   21.0850   40.2250 C   0  0  0  0  0  0  0  0  0  0  0  0
   39.2760   21.0390   40.8320 H   0  0  0  0  0  0  0  0  0  0  0  0
   38.0120   19.9130   39.5990 C   0  0  0  0  0  0  0  0  0  0  0  0
   38.5360   18.9790   39.6680 H   0  0  0  0  0  0  0  0  0  0  0  0
   36.8900   19.9140   38.8210 C   0  0  0  0  0  3  0  0  0  0  0  0
   36.1770   21.0860   38.6960 C   0  0  0  0  0  3  0  0  0  0  0  0
   35.4980   24.5170   40.2120 H   0  0  0  0  0  0  0  0  0  0  0  0
   35.5430   23.7350   39.0920 S   0  0  0  0  0  0  0  0  0  0  0  0
   34.1090   23.2820   38.8640 O   0  0  0  0  0  0  0  0  0  0  0  0
   35.9140   24.5060   37.8590 O   0  0  0  0  0  0  0  0  0  0  0  0
  1  6  1  0  0  0  0
  1 10  1  0  0  0  0
  2  1  2  0  0  0  0
  3  4  2  0  0  0  0
  3  2  1  0  0  0  0
  4  5  1  0  0  0  0
  5  6  2  0  0  0  0
  6 12  1  0  0  0  0
  7  5  1  0  0  0  0
  8 13  1  1  0  0  0
  8  7  1  0  0  0  0
  9  4  1  0  0  0  0
  9  8  1  0  0  0  0
 11  3  1  0  0  0  0
 14 19  2  0  0  0  0
 14 15  1  0  0  0  0
 15 16  2  0  0  0  0
 16 17  1  0  0  0  0
 16 21  1  0  0  0  0
 18  2  1  0  0  0  0
 18 17  2  0  0  0  0
 19 18  1  0  0  0  0
 20 14  1  0  0  0  0
 22 15  1  0  0  0  0
 22 23  1  0  0  0  0
 23 29  1  0  0  0  0
 24 25  1  0  0  0  0
 24 23  1  0  0  0  0
 24 30  1  0  0  0  0
 26 25  1  0  0  0  0
 26 33  1  0  0  0  0
 27 36  1  0  0  0  0
 27 22  1  0  0  0  0
 27 26  1  0  0  0  0
 28 23  1  0  0  0  0
 31 24  1  0  0  0  0
 32 25  1  0  0  0  0
 34 26  1  0  0  0  0
 35 27  1  0  0  0  0
 37 38  1  0  0  0  0
 38 39  2  0  0  0  0
 38  8  1  0  0  0  0
 39 40  1  0  0  0  0
 41 42  1  0  0  0  0
 41 39  1  0  0  0  0
 43 41  2  0  0  0  0
 44 43  1  0  0  0  0
 44 37  2  0  0  0  0
 46 37  1  0  0  0  0
 46 45  1  0  0  0  0
 47 46  2  0  0  0  0
 48 46  2  0  0  0  0
M  END
>  <minimizedAffinity>
-6.13866425

$$$$

 OpenBabel03242518273D

 48 52  0  0  1  0  0  0  0  0999 V2000
   34.6090   27.1270   37.1260 C   0  0  0  0  0  0  0  0  0  0  0  0
   34.1120   28.3080   37.6070 C   0  0  0  0  0  0  0  0  0  0  0  0
   34.6210   28.7910   38.7850 C   0  0  0  0  0  0  0  0  0  0  0  0
   35.6020   28.1000   39.4560 C   0  0  0  0  0  0  0  0  0  0  0  0
   36.0990   26.9050   38.9620 C   0  0  0  0  0  0  0  0  0  0  0  0
   35.5970   26.3950   37.7670 C   0  0  0  0  0  0  0  0  0  0  0  0
   37.0830   26.4420   39.8620 O   0  0  0  0  0  0  0  0  0  0  0  0
   36.9240   27.1640   41.0610 C   0  0  2  0  0  0  0  0  0  0  0  0
   36.2830   28.3680   40.6610 O   0  0  0  0  0  0  0  0  0  0  0  0
   34.2230   26.7240   36.1960 H   0  0  0  0  0  0  0  0  0  0  0  0
   34.2460   29.7260   39.1920 H   0  0  0  0  0  0  0  0  0  0  0  0
   35.9830   25.4530   37.3680 H   0  0  0  0  0  0  0  0  0  0  0  0
   36.1540   26.6260   41.6790 H   0  0  0  0  0  0  0  0  0  0  0  0
   32.2320   29.7810   34.8050 C   0  0  0  0  0  0  0  0  0  0  0  0
   31.1190   30.3270   35.4380 C   0  0  0  0  0  0  0  0  0  0  0  0
   31.0260   30.1820   36.8270 C   0  0  0  0  0  0  0  0  0  0  0  0
   32.0040   29.5280   37.5000 N   0  0  0  0  0  0  0  0  0  0  0  0
   33.0670   29.0110   36.8600 C   0  0  0  0  0  0  0  0  0  0  0  0
   33.1840   29.1360   35.5140 N   0  0  0  0  0  0  0  0  0  0  0  0
   32.3520   29.8650   33.7290 H   0  0  0  0  0  0  0  0  0  0  0  0
   30.1670   30.6080   37.2860 H   0  0  0  0  0  0  0  0  0  0  0  0
   30.1830   30.9800   34.6040 N   0  0  0  0  0  0  0  0  0  0  0  0
   29.7470   32.2970   35.0050 C   0  0  0  0  0  0  0  0  0  0  0  0
   28.7000   32.8760   34.1270 C   0  0  0  0  0  0  0  0  0  0  0  0
   29.0040   32.7580   32.7470 N   0  0  0  0  0  0  0  0  0  0  0  0
   29.6310   31.5640   32.3170 C   0  0  0  0  0  0  0  0  0  0  0  0
   29.6010   30.4930   33.3880 C   0  0  0  0  0  0  0  0  0  0  0  0
   29.3710   32.2520   36.0620 H   0  0  0  0  0  0  0  0  0  0  0  0
   30.6330   32.9660   34.9960 H   0  0  0  0  0  0  0  0  0  0  0  0
   28.5380   33.9250   34.3970 H   0  0  0  0  0  0  0  0  0  0  0  0
   27.7520   32.3170   34.3390 H   0  0  0  0  0  0  0  0  0  0  0  0
   28.3010   33.1760   32.1310 H   0  0  0  0  0  0  0  0  0  0  0  0
   30.7190   31.7360   32.0690 H   0  0  0  0  0  0  0  0  0  0  0  0
   29.1880   31.1450   31.3880 H   0  0  0  0  0  0  0  0  0  0  0  0
   28.6090   30.0290   33.5000 H   0  0  0  0  0  0  0  0  0  0  0  0
   30.2920   29.6890   33.0150 H   0  0  0  0  0  0  0  0  0  0  0  0
   39.1470   28.1900   41.3030 C   0  0  0  0  0  0  0  0  0  0  0  0
   38.1620   27.3750   41.8200 C   0  0  0  0  0  0  0  0  0  0  0  0
   38.3040   26.7440   43.0440 C   0  0  0  0  0  0  0  0  0  0  0  0
   37.5370   26.1020   43.4590 H   0  0  0  0  0  0  0  0  0  0  0  0
   39.4420   26.9010   43.8070 C   0  0  0  0  0  0  0  0  0  0  0  0
   39.6190   26.4430   44.7620 H   0  0  0  0  0  0  0  0  0  0  0  0
   40.4420   27.6990   43.3320 C   0  0  0  0  0  3  0  0  0  0  0  0
   40.2690   28.3130   42.1110 C   0  0  0  0  0  3  0  0  0  0  0  0
   37.8790   28.6550   39.0740 H   0  0  0  0  0  0  0  0  0  0  0  0
   39.0060   29.0040   39.7650 S   0  0  0  0  0  0  0  0  0  0  0  0
   40.1660   28.5260   38.9050 O   0  0  0  0  0  0  0  0  0  0  0  0
   39.1840   30.4910   39.8750 O   0  0  0  0  0  0  0  0  0  0  0  0
  1  2  2  0  0  0  0
  1  6  1  0  0  0  0
  2  3  1  0  0  0  0
  3 11  1  0  0  0  0
  3  4  2  0  0  0  0
  4  9  1  0  0  0  0
  5  4  1  0  0  0  0
  5  7  1  0  0  0  0
  6  5  2  0  0  0  0
  7  8  1  0  0  0  0
  8 13  1  1  0  0  0
  8 38  1  0  0  0  0
  9  8  1  0  0  0  0
 10  1  1  0  0  0  0
 12  6  1  0  0  0  0
 14 15  2  0  0  0  0
 14 19  1  0  0  0  0
 15 16  1  0  0  0  0
 16 21  1  0  0  0  0
 16 17  2  0  0  0  0
 18 17  1  0  0  0  0
 18  2  1  0  0  0  0
 19 18  2  0  0  0  0
 20 14  1  0  0  0  0
 22 23  1  0  0  0  0
 22 15  1  0  0  0  0
 23 28  1  0  0  0  0
 24 31  1  0  0  0  0
 24 30  1  0  0  0  0
 24 23  1  0  0  0  0
 25 24  1  0  0  0  0
 26 25  1  0  0  0  0
 26 27  1  0  0  0  0
 27 35  1  0  0  0  0
 27 22  1  0  0  0  0
 29 23  1  0  0  0  0
 32 25  1  0  0  0  0
 33 26  1  0  0  0  0
 34 26  1  0  0  0  0
 36 27  1  0  0  0  0
 37 38  2  0  0  0  0
 37 44  1  0  0  0  0
 38 39  1  0  0  0  0
 39 40  1  0  0  0  0
 39 41  2  0  0  0  0
 41 42  1  0  0  0  0
 43 41  1  0  0  0  0
 44 43  2  0  0  0  0
 45 46  1  0  0  0  0
 46 48  2  0  0  0  0
 46 37  1  0  0  0  0
 47 46  2  0  0  0  0
M  END
>  <minimizedAffinity>
-6.04285288

$$$$

 OpenBabel03242518273D

 48 52  0  0  1  0  0  0  0  0999 V2000
   34.6450   27.0720   37.0260 C   0  0  0  0  0  0  0  0  0  0  0  0
   34.1670   28.2580   37.5150 C   0  0  0  0  0  0  0  0  0  0  0  0
   34.6910   28.7300   38.6900 C   0  0  0  0  0  0  0  0  0  0  0  0
   35.6680   28.0250   39.3510 C   0  0  0  0  0  0  0  0  0  0  0  0
   36.1470   26.8260   38.8490 C   0  0  0  0  0  0  0  0  0  0  0  0
   35.6290   26.3260   37.6560 C   0  0  0  0  0  0  0  0  0  0  0  0
   37.1320   26.3470   39.7400 O   0  0  0  0  0  0  0  0  0  0  0  0
   36.9910   27.0670   40.9420 C   0  0  2  0  0  0  0  0  0  0  0  0
   36.3620   28.2810   40.5520 O   0  0  0  0  0  0  0  0  0  0  0  0
   34.2460   26.6780   36.0980 H   0  0  0  0  0  0  0  0  0  0  0  0
   34.3300   29.6690   39.1040 H   0  0  0  0  0  0  0  0  0  0  0  0
   36.0000   25.3810   37.2510 H   0  0  0  0  0  0  0  0  0  0  0  0
   36.2190   26.5370   41.5650 H   0  0  0  0  0  0  0  0  0  0  0  0
   32.3200   29.8320   34.7450 C   0  0  0  0  0  0  0  0  0  0  0  0
   31.1820   30.3220   35.3770 C   0  0  0  0  0  0  0  0  0  0  0  0
   31.0600   30.1060   36.7540 C   0  0  0  0  0  0  0  0  0  0  0  0
   32.0360   29.4390   37.4170 N   0  0  0  0  0  0  0  0  0  0  0  0
   33.1240   28.9770   36.7780 C   0  0  0  0  0  0  0  0  0  0  0  0
   33.2700   29.1710   35.4440 N   0  0  0  0  0  0  0  0  0  0  0  0
   32.4640   29.9720   33.6770 H   0  0  0  0  0  0  0  0  0  0  0  0
   30.1810   30.4910   37.2130 H   0  0  0  0  0  0  0  0  0  0  0  0
   30.2520   30.9970   34.5540 N   0  0  0  0  0  0  0  0  0  0  0  0
   29.7410   32.2610   35.0330 C   0  0  0  0  0  0  0  0  0  0  0  0
   28.7050   32.8610   34.1550 C   0  0  0  0  0  0  0  0  0  0  0  0
   29.0700   32.8610   32.7850 N   0  0  0  0  0  0  0  0  0  0  0  0
   29.7670   31.7310   32.2950 C   0  0  0  0  0  0  0  0  0  0  0  0
   29.7420   30.5810   33.2810 C   0  0  0  0  0  0  0  0  0  0  0  0
   29.3250   32.1180   36.0650 H   0  0  0  0  0  0  0  0  0  0  0  0
   30.5950   32.9640   35.1120 H   0  0  0  0  0  0  0  0  0  0  0  0
   28.4850   33.8780   34.4960 H   0  0  0  0  0  0  0  0  0  0  0  0
   27.7760   32.2480   34.2830 H   0  0  0  0  0  0  0  0  0  0  0  0
   28.3750   33.2960   32.1720 H   0  0  0  0  0  0  0  0  0  0  0  0
   30.8550   31.9680   32.1080 H   0  0  0  0  0  0  0  0  0  0  0  0
   29.3820   31.3670   31.3180 H   0  0  0  0  0  0  0  0  0  0  0  0
   28.7690   30.0690   33.3140 H   0  0  0  0  0  0  0  0  0  0  0  0
   30.4840   29.8380   32.8790 H   0  0  0  0  0  0  0  0  0  0  0  0
   38.7780   26.2050   42.3980 C   0  0  0  0  0  0  0  0  0  0  0  0
   38.2380   27.2600   41.6920 C   0  0  0  0  0  0  0  0  0  0  0  0
   38.8390   28.5070   41.6680 C   0  0  0  0  0  0  0  0  0  0  0  0
   38.4240   29.3420   41.1170 H   0  0  0  0  0  0  0  0  0  0  0  0
   40.0110   28.7540   42.3510 C   0  0  0  0  0  0  0  0  0  0  0  0
   40.5310   29.6930   42.3760 H   0  0  0  0  0  0  0  0  0  0  0  0
   40.5800   27.7370   43.0620 C   0  0  0  0  0  3  0  0  0  0  0  0
   39.9570   26.5080   43.0660 C   0  0  0  0  0  3  0  0  0  0  0  0
   38.5030   23.8580   43.4950 H   0  0  0  0  0  0  0  0  0  0  0  0
   38.0520   24.6180   42.4530 S   0  0  0  0  0  0  0  0  0  0  0  0
   38.5000   23.8840   41.1980 O   0  0  0  0  0  0  0  0  0  0  0  0
   36.5530   24.6610   42.3690 O   0  0  0  0  0  0  0  0  0  0  0  0
  1  2  2  0  0  0  0
  1  6  1  0  0  0  0
  2  3  1  0  0  0  0
  3 11  1  0  0  0  0
  3  4  2  0  0  0  0
  4  9  1  0  0  0  0
  5  4  1  0  0  0  0
  5  7  1  0  0  0  0
  6  5  2  0  0  0  0
  7  8  1  0  0  0  0
  8 13  1  1  0  0  0
  8 38  1  0  0  0  0
  9  8  1  0  0  0  0
 10  1  1  0  0  0  0
 12  6  1  0  0  0  0
 14 15  2  0  0  0  0
 14 19  1  0  0  0  0
 15 16  1  0  0  0  0
 16 21  1  0  0  0  0
 16 17  2  0  0  0  0
 18 17  1  0  0  0  0
 18  2  1  0  0  0  0
 19 18  2  0  0  0  0
 20 14  1  0  0  0  0
 22 23  1  0  0  0  0
 22 15  1  0  0  0  0
 23 29  1  0  0  0  0
 23 28  1  0  0  0  0
 24 31  1  0  0  0  0
 24 30  1  0  0  0  0
 24 23  1  0  0  0  0
 25 24  1  0  0  0  0
 26 25  1  0  0  0  0
 26 27  1  0  0  0  0
 27 35  1  0  0  0  0
 27 22  1  0  0  0  0
 32 25  1  0  0  0  0
 33 26  1  0  0  0  0
 34 26  1  0  0  0  0
 36 27  1  0  0  0  0
 37 46  1  0  0  0  0
 37 44  1  0  0  0  0
 38 37  2  0  0  0  0
 39 38  1  0  0  0  0
 39 41  2  0  0  0  0
 40 39  1  0  0  0  0
 41 42  1  0  0  0  0
 41 43  1  0  0  0  0
 43 44  2  0  0  0  0
 46 45  1  0  0  0  0
 47 46  2  0  0  0  0
 48 46  2  0  0  0  0
M  END
>  <minimizedAffinity>
-5.97966957

$$$$

 OpenBabel03242518273D

 48 52  0  0  1  0  0  0  0  0999 V2000
   38.8170   28.2430   42.2450 C   0  0  0  0  0  0  0  0  0  0  0  0
   38.4630   28.0000   40.9460 C   0  0  0  0  0  0  0  0  0  0  0  0
   38.4270   29.0610   40.0770 C   0  0  0  0  0  0  0  0  0  0  0  0
   38.7380   30.3270   40.5100 C   0  0  0  0  0  0  0  0  0  0  0  0
   39.0960   30.5640   41.8280 C   0  0  0  0  0  0  0  0  0  0  0  0
   39.1390   29.5020   42.7290 C   0  0  0  0  0  0  0  0  0  0  0  0
   39.3530   31.9450   41.9640 O   0  0  0  0  0  0  0  0  0  0  0  0
   38.8110   32.5840   40.8310 C   0  0  2  0  0  0  0  0  0  0  0  0
   38.7780   31.5670   39.8390 O   0  0  0  0  0  0  0  0  0  0  0  0
   38.8530   27.4210   42.9520 H   0  0  0  0  0  0  0  0  0  0  0  0
   38.1480   28.8990   39.0390 H   0  0  0  0  0  0  0  0  0  0  0  0
   39.4200   29.6780   43.7700 H   0  0  0  0  0  0  0  0  0  0  0  0
   37.7290   32.7990   41.0510 H   0  0  0  0  0  0  0  0  0  0  0  0
   38.8190   24.4100   40.2090 C   0  0  0  0  0  0  0  0  0  0  0  0
   37.5530   24.0670   39.7460 C   0  0  0  0  0  0  0  0  0  0  0  0
   36.5850   25.0760   39.6920 C   0  0  0  0  0  0  0  0  0  0  0  0
   36.9050   26.3340   40.0840 N   0  0  0  0  0  0  0  0  0  0  0  0
   38.1380   26.6350   40.5270 C   0  0  0  0  0  0  0  0  0  0  0  0
   39.0960   25.6770   40.5910 N   0  0  0  0  0  0  0  0  0  0  0  0
   39.6060   23.6640   40.2720 H   0  0  0  0  0  0  0  0  0  0  0  0
   35.6260   24.7880   39.3350 H   0  0  0  0  0  0  0  0  0  0  0  0
   37.3690   22.7160   39.3730 N   0  0  0  0  0  0  0  0  0  0  0  0
   38.0750   21.7160   40.1410 C   0  0  0  0  0  0  0  0  0  0  0  0
   37.9000   20.3330   39.6310 C   0  0  0  0  0  0  0  0  0  0  0  0
   36.5470   20.0100   39.3560 N   0  0  0  0  0  0  0  0  0  0  0  0
   35.7350   21.0230   38.7920 C   0  0  0  0  0  0  0  0  0  0  0  0
   36.5560   22.2010   38.3110 C   0  0  0  0  0  0  0  0  0  0  0  0
   39.1660   21.9760   40.1620 H   0  0  0  0  0  0  0  0  0  0  0  0
   37.7020   21.7640   41.1850 H   0  0  0  0  0  0  0  0  0  0  0  0
   38.3280   19.6250   40.3480 H   0  0  0  0  0  0  0  0  0  0  0  0
   38.4900   20.2600   38.6810 H   0  0  0  0  0  0  0  0  0  0  0  0
   36.4090   19.0490   39.0280 H   0  0  0  0  0  0  0  0  0  0  0  0
   35.0010   21.4310   39.5470 H   0  0  0  0  0  0  0  0  0  0  0  0
   35.1070   20.6620   37.9490 H   0  0  0  0  0  0  0  0  0  0  0  0
   37.0910   21.9930   37.3730 H   0  0  0  0  0  0  0  0  0  0  0  0
   35.8030   23.0050   38.0810 H   0  0  0  0  0  0  0  0  0  0  0  0
   40.8320   33.7110   39.9960 C   0  0  0  0  0  0  0  0  0  0  0  0
   39.5200   33.7990   40.4120 C   0  0  0  0  0  0  0  0  0  0  0  0
   38.8430   35.0050   40.4470 C   0  0  0  0  0  0  0  0  0  0  0  0
   37.8130   35.0850   40.7710 H   0  0  0  0  0  0  0  0  0  0  0  0
   39.4510   36.1830   40.0650 C   0  0  0  0  0  0  0  0  0  0  0  0
   38.9890   37.1510   40.0670 H   0  0  0  0  0  0  0  0  0  0  0  0
   40.7500   36.1420   39.6470 C   0  0  0  0  0  3  0  0  0  0  0  0
   41.3950   34.9240   39.6230 C   0  0  0  0  0  3  0  0  0  0  0  0
   40.9150   31.1070   40.0220 H   0  0  0  0  0  0  0  0  0  0  0  0
   41.7200   32.2090   39.9360 S   0  0  0  0  0  0  0  0  0  0  0  0
   42.5930   32.1640   41.1810 O   0  0  0  0  0  0  0  0  0  0  0  0
   42.6760   32.1430   38.7810 O   0  0  0  0  0  0  0  0  0  0  0  0
  1  6  1  0  0  0  0
  1 10  1  0  0  0  0
  2  1  2  0  0  0  0
  3  4  2  0  0  0  0
  3  2  1  0  0  0  0
  4  5  1  0  0  0  0
  5  7  1  0  0  0  0
  5  6  2  0  0  0  0
  6 12  1  0  0  0  0
  8 13  1  1  0  0  0
  8  7  1  0  0  0  0
  9  4  1  0  0  0  0
  9  8  1  0  0  0  0
 11  3  1  0  0  0  0
 14 20  1  0  0  0  0
 14 19  1  0  0  0  0
 15 14  2  0  0  0  0
 16 15  1  0  0  0  0
 16 17  2  0  0  0  0
 17 18  1  0  0  0  0
 18 19  2  0  0  0  0
 18  2  1  0  0  0  0
 21 16  1  0  0  0  0
 22 15  1  0  0  0  0
 22 23  1  0  0  0  0
 23 28  1  0  0  0  0
 23 29  1  0  0  0  0
 24 23  1  0  0  0  0
 24 30  1  0  0  0  0
 25 24  1  0  0  0  0
 26 25  1  0  0  0  0
 26 33  1  0  0  0  0
 27 26  1  0  0  0  0
 27 22  1  0  0  0  0
 31 24  1  0  0  0  0
 32 25  1  0  0  0  0
 34 26  1  0  0  0  0
 35 27  1  0  0  0  0
 36 27  1  0  0  0  0
 37 38  1  0  0  0  0
 38 39  2  0  0  0  0
 38  8  1  0  0  0  0
 39 40  1  0  0  0  0
 41 42  1  0  0  0  0
 41 39  1  0  0  0  0
 43 41  2  0  0  0  0
 44 43  1  0  0  0  0
 44 37  2  0  0  0  0
 46 37  1  0  0  0  0
 46 45  1  0  0  0  0
 46 47  2  0  0  0  0
 48 46  2  0  0  0  0
M  END
>  <minimizedAffinity>
-5.95914125

$$$$

 OpenBabel03242518273D

 48 52  0  0  1  0  0  0  0  0999 V2000
   35.5650   26.7610   36.8910 C   0  0  0  0  0  0  0  0  0  0  0  0
   34.9090   27.7570   37.5630 C   0  0  0  0  0  0  0  0  0  0  0  0
   35.2330   27.9730   38.8780 C   0  0  0  0  0  0  0  0  0  0  0  0
   36.1920   27.2040   39.4940 C   0  0  0  0  0  0  0  0  0  0  0  0
   36.8510   26.1980   38.8070 C   0  0  0  0  0  0  0  0  0  0  0  0
   36.5380   25.9600   37.4700 C   0  0  0  0  0  0  0  0  0  0  0  0
   37.7650   25.5940   39.6970 O   0  0  0  0  0  0  0  0  0  0  0  0
   37.4040   25.9930   40.9990 C   0  0  2  0  0  0  0  0  0  0  0  0
   36.7040   27.2150   40.8080 O   0  0  0  0  0  0  0  0  0  0  0  0
   35.3260   26.5720   35.8510 H   0  0  0  0  0  0  0  0  0  0  0  0
   34.7290   28.7560   39.4370 H   0  0  0  0  0  0  0  0  0  0  0  0
   37.0520   25.1690   36.9190 H   0  0  0  0  0  0  0  0  0  0  0  0
   36.6220   25.2740   41.3680 H   0  0  0  0  0  0  0  0  0  0  0  0
   31.8190   29.6490   36.9080 C   0  0  0  0  0  0  0  0  0  0  0  0
   31.9780   30.0440   35.5840 C   0  0  0  0  0  0  0  0  0  0  0  0
   33.1510   29.6560   34.9270 C   0  0  0  0  0  0  0  0  0  0  0  0
   34.0770   28.9200   35.5870 N   0  0  0  0  0  0  0  0  0  0  0  0
   33.8940   28.5530   36.8670 C   0  0  0  0  0  0  0  0  0  0  0  0
   32.7680   28.9150   37.5300 N   0  0  0  0  0  0  0  0  0  0  0  0
   30.9270   29.9250   37.4640 H   0  0  0  0  0  0  0  0  0  0  0  0
   33.2480   29.9710   33.9160 H   0  0  0  0  0  0  0  0  0  0  0  0
   30.9270   30.8090   35.0290 N   0  0  0  0  0  0  0  0  0  0  0  0
   30.4100   31.8990   35.8250 C   0  0  0  0  0  0  0  0  0  0  0  0
   29.2510   32.5940   35.2110 C   0  0  0  0  0  0  0  0  0  0  0  0
   29.4550   32.9150   33.8450 N   0  0  0  0  0  0  0  0  0  0  0  0
   30.1480   31.9710   33.0500 C   0  0  0  0  0  0  0  0  0  0  0  0
   30.2950   30.6380   33.7540 C   0  0  0  0  0  0  0  0  0  0  0  0
   30.1240   31.5080   36.8370 H   0  0  0  0  0  0  0  0  0  0  0  0
   31.2310   32.6310   35.9710 H   0  0  0  0  0  0  0  0  0  0  0  0
   29.0210   33.4950   35.7890 H   0  0  0  0  0  0  0  0  0  0  0  0
   28.3760   31.9000   35.2940 H   0  0  0  0  0  0  0  0  0  0  0  0
   28.6730   33.4180   33.4170 H   0  0  0  0  0  0  0  0  0  0  0  0
   31.1940   32.3230   32.8100 H   0  0  0  0  0  0  0  0  0  0  0  0
   29.6720   31.7970   32.0600 H   0  0  0  0  0  0  0  0  0  0  0  0
   29.3590   30.0600   33.7710 H   0  0  0  0  0  0  0  0  0  0  0  0
   31.0220   30.0560   33.1240 H   0  0  0  0  0  0  0  0  0  0  0  0
   38.4080   26.9070   43.0500 C   0  0  0  0  0  0  0  0  0  0  0  0
   38.5230   26.0920   41.9440 C   0  0  0  0  0  0  0  0  0  0  0  0
   39.6680   25.3570   41.6930 C   0  0  0  0  0  0  0  0  0  0  0  0
   39.7690   24.7140   40.8270 H   0  0  0  0  0  0  0  0  0  0  0  0
   40.7550   25.4060   42.5410 C   0  0  0  0  0  0  0  0  0  0  0  0
   41.6720   24.8650   42.4090 H   0  0  0  0  0  0  0  0  0  0  0  0
   40.6840   26.2000   43.6490 C   0  0  0  0  0  3  0  0  0  0  0  0
   39.5290   26.9190   43.8700 C   0  0  0  0  0  3  0  0  0  0  0  0
   35.9170   27.5290   42.6060 H   0  0  0  0  0  0  0  0  0  0  0  0
   36.9810   27.8490   43.4030 S   0  0  0  0  0  0  0  0  0  0  0  0
   37.3120   29.2950   43.0650 O   0  0  0  0  0  0  0  0  0  0  0  0
   36.6330   27.8550   44.8630 O   0  0  0  0  0  0  0  0  0  0  0  0
  1  6  2  0  0  0  0
  1  2  1  0  0  0  0
  2  3  2  0  0  0  0
  3 11  1  0  0  0  0
  3  4  1  0  0  0  0
  4  9  1  0  0  0  0
  5  4  2  0  0  0  0
  5  7  1  0  0  0  0
  6  5  1  0  0  0  0
  7  8  1  0  0  0  0
  8 13  1  1  0  0  0
  8 38  1  0  0  0  0
  9  8  1  0  0  0  0
 10  1  1  0  0  0  0
 12  6  1  0  0  0  0
 14 20  1  0  0  0  0
 14 19  1  0  0  0  0
 15 14  2  0  0  0  0
 16 15  1  0  0  0  0
 16 17  2  0  0  0  0
 17 18  1  0  0  0  0
 18 19  2  0  0  0  0
 18  2  1  0  0  0  0
 21 16  1  0  0  0  0
 22 15  1  0  0  0  0
 22 23  1  0  0  0  0
 23 29  1  0  0  0  0
 23 28  1  0  0  0  0
 24 31  1  0  0  0  0
 24 30  1  0  0  0  0
 24 23  1  0  0  0  0
 25 24  1  0  0  0  0
 26 27  1  0  0  0  0
 26 25  1  0  0  0  0
 27 35  1  0  0  0  0
 27 22  1  0  0  0  0
 32 25  1  0  0  0  0
 33 26  1  0  0  0  0
 34 26  1  0  0  0  0
 36 27  1  0  0  0  0
 37 46  1  0  0  0  0
 37 44  1  0  0  0  0
 38 37  2  0  0  0  0
 39 38  1  0  0  0  0
 39 41  2  0  0  0  0
 40 39  1  0  0  0  0
 41 43  1  0  0  0  0
 42 41  1  0  0  0  0
 43 44  2  0  0  0  0
 45 46  1  0  0  0  0
 46 48  2  0  0  0  0
 47 46  2  0  0  0  0
M  END
>  <minimizedAffinity>
-5.93980503

$$$$

 OpenBabel03242518273D

 48 52  0  0  1  0  0  0  0  0999 V2000
   35.7590   29.1070   40.2990 C   0  0  0  0  0  0  0  0  0  0  0  0
   35.7310   29.1560   38.9320 C   0  0  0  0  0  0  0  0  0  0  0  0
   36.3150   30.2310   38.3120 C   0  0  0  0  0  0  0  0  0  0  0  0
   36.9070   31.2260   39.0530 C   0  0  0  0  0  0  0  0  0  0  0  0
   36.9300   31.1680   40.4370 C   0  0  0  0  0  0  0  0  0  0  0  0
   36.3440   30.0850   41.0890 C   0  0  0  0  0  0  0  0  0  0  0  0
   37.5990   32.3190   40.9060 O   0  0  0  0  0  0  0  0  0  0  0  0
   37.6600   33.2320   39.8350 C   0  0  2  0  0  0  0  0  0  0  0  0
   37.5630   32.4150   38.6750 O   0  0  0  0  0  0  0  0  0  0  0  0
   35.3050   28.2660   40.8120 H   0  0  0  0  0  0  0  0  0  0  0  0
   36.3080   30.2990   37.2270 H   0  0  0  0  0  0  0  0  0  0  0  0
   36.3570   30.0300   42.1800 H   0  0  0  0  0  0  0  0  0  0  0  0
   36.7050   33.8250   39.8430 H   0  0  0  0  0  0  0  0  0  0  0  0
   35.0300   25.8100   37.5660 C   0  0  0  0  0  0  0  0  0  0  0  0
   33.9030   26.0300   36.7810 C   0  0  0  0  0  0  0  0  0  0  0  0
   33.3930   27.3320   36.7300 C   0  0  0  0  0  0  0  0  0  0  0  0
   34.0010   28.3190   37.4310 N   0  0  0  0  0  0  0  0  0  0  0  0
   35.0900   28.0750   38.1810 C   0  0  0  0  0  0  0  0  0  0  0  0
   35.6060   26.8230   38.2500 N   0  0  0  0  0  0  0  0  0  0  0  0
   35.4660   24.8170   37.6410 H   0  0  0  0  0  0  0  0  0  0  0  0
   32.5310   27.4740   36.1230 H   0  0  0  0  0  0  0  0  0  0  0  0
   33.3790   24.9030   36.1080 N   0  0  0  0  0  0  0  0  0  0  0  0
   34.2110   24.2920   35.0970 C   0  0  0  0  0  0  0  0  0  0  0  0
   33.5550   23.1730   34.3760 C   0  0  0  0  0  0  0  0  0  0  0  0
   32.9190   22.2500   35.2430 N   0  0  0  0  0  0  0  0  0  0  0  0
   32.2580   22.7720   36.3800 C   0  0  0  0  0  0  0  0  0  0  0  0
   32.1050   24.2770   36.3030 C   0  0  0  0  0  0  0  0  0  0  0  0
   34.5310   25.0790   34.3630 H   0  0  0  0  0  0  0  0  0  0  0  0
   35.1260   23.9110   35.5950 H   0  0  0  0  0  0  0  0  0  0  0  0
   34.2930   22.6650   33.7450 H   0  0  0  0  0  0  0  0  0  0  0  0
   32.7840   23.6280   33.7020 H   0  0  0  0  0  0  0  0  0  0  0  0
   32.4850   21.4580   34.7600 H   0  0  0  0  0  0  0  0  0  0  0  0
   32.8340   22.5580   37.3270 H   0  0  0  0  0  0  0  0  0  0  0  0
   31.2540   22.3240   36.5490 H   0  0  0  0  0  0  0  0  0  0  0  0
   31.3190   24.5900   35.5990 H   0  0  0  0  0  0  0  0  0  0  0  0
   31.7620   24.5880   37.3280 H   0  0  0  0  0  0  0  0  0  0  0  0
   40.0880   33.5780   39.6350 C   0  0  0  0  0  0  0  0  0  0  0  0
   38.8340   34.1130   39.8440 C   0  0  0  0  0  0  0  0  0  0  0  0
   38.6430   35.4660   40.0630 C   0  0  0  0  0  0  0  0  0  0  0  0
   37.6640   35.8960   40.2280 H   0  0  0  0  0  0  0  0  0  0  0  0
   39.7040   36.3480   40.0830 C   0  0  0  0  0  0  0  0  0  0  0  0
   39.6300   37.4060   40.2470 H   0  0  0  0  0  0  0  0  0  0  0  0
   40.9630   35.8600   39.8800 C   0  0  0  0  0  3  0  0  0  0  0  0
   41.1180   34.5080   39.6650 C   0  0  0  0  0  3  0  0  0  0  0  0
   39.3870   31.0790   39.8710 H   0  0  0  0  0  0  0  0  0  0  0  0
   40.3690   31.8780   39.3540 S   0  0  0  0  0  0  0  0  0  0  0  0
   41.6300   31.5070   40.1190 O   0  0  0  0  0  0  0  0  0  0  0  0
   40.6740   31.5680   37.9170 O   0  0  0  0  0  0  0  0  0  0  0  0
  1 10  1  0  0  0  0
  1  6  1  0  0  0  0
  2  1  2  0  0  0  0
  3  2  1  0  0  0  0
  3  4  2  0  0  0  0
  4  5  1  0  0  0  0
  5  7  1  0  0  0  0
  5  6  2  0  0  0  0
  6 12  1  0  0  0  0
  8 13  1  1  0  0  0
  8 38  1  0  0  0  0
  8  7  1  0  0  0  0
  9  4  1  0  0  0  0
  9  8  1  0  0  0  0
 11  3  1  0  0  0  0
 14 20  1  0  0  0  0
 14 19  1  0  0  0  0
 15 14  2  0  0  0  0
 16 15  1  0  0  0  0
 16 17  2  0  0  0  0
 17 18  1  0  0  0  0
 18 19  2  0  0  0  0
 18  2  1  0  0  0  0
 21 16  1  0  0  0  0
 22 27  1  0  0  0  0
 22 15  1  0  0  0  0
 23 29  1  0  0  0  0
 23 22  1  0  0  0  0
 24 23  1  0  0  0  0
 24 25  1  0  0  0  0
 25 26  1  0  0  0  0
 26 34  1  0  0  0  0
 26 33  1  0  0  0  0
 27 26  1  0  0  0  0
 27 36  1  0  0  0  0
 28 23  1  0  0  0  0
 30 24  1  0  0  0  0
 31 24  1  0  0  0  0
 32 25  1  0  0  0  0
 35 27  1  0  0  0  0
 37 44  2  0  0  0  0
 37 38  1  0  0  0  0
 38 39  2  0  0  0  0
 39 41  1  0  0  0  0
 39 40  1  0  0  0  0
 41 42  1  0  0  0  0
 43 41  2  0  0  0  0
 44 43  1  0  0  0  0
 46 37  1  0  0  0  0
 46 45  1  0  0  0  0
 46 47  2  0  0  0  0
 48 46  2  0  0  0  0
M  END
>  <minimizedAffinity>
-5.91904211

$$$$
