
 OpenBabel03252502013D

 37 40  0  0  0  0  0  0  0  0999 V2000
   47.6210   32.4470   48.3850 C   0  0  0  0  0  0  0  0  0  0  0  0
   47.3370   31.0770   48.4480 C   0  0  0  0  0  0  0  0  0  0  0  0
   46.5520   30.5540   47.4600 C   0  0  0  0  0  0  0  0  0  0  0  0
   46.1070   31.3810   46.5020 N   0  0  0  0  0  0  0  0  0  0  0  0
   46.3670   32.6730   46.4310 C   0  0  0  0  0  0  0  0  0  0  0  0
   47.1290   33.1740   47.3900 N   0  0  0  0  0  0  0  0  0  0  0  0
   48.2550   32.8750   49.1800 H   0  0  0  0  0  0  0  0  0  0  0  0
   45.9580   33.6910   45.4590 C   0  0  0  0  0  0  0  0  0  0  0  0
   44.9590   34.5910   45.6780 N   0  0  0  0  0  0  0  0  0  0  0  0
   44.5540   35.5290   44.8350 C   0  0  0  0  0  0  0  0  0  0  0  0
   45.1630   35.6410   43.6330 N   0  0  0  0  0  0  0  0  0  0  0  0
   46.1670   34.8120   43.2960 C   0  0  0  0  0  0  0  0  0  0  0  0
   46.7830   34.9390   42.0580 C   0  0  0  0  0  0  0  0  0  0  0  0
   47.8070   34.1010   41.6990 C   0  0  0  0  0  0  0  0  0  0  0  0
   48.1950   33.1420   42.6050 C   0  0  0  0  0  0  0  0  0  0  0  0
   47.5500   33.0550   43.8230 C   0  0  0  0  0  0  0  0  0  0  0  0
   46.5260   33.8650   44.2260 C   0  0  0  0  0  0  0  0  0  0  0  0
   43.7470   36.2040   45.0920 H   0  0  0  0  0  0  0  0  0  0  0  0
   46.4030   35.7300   41.4120 H   0  0  0  0  0  0  0  0  0  0  0  0
   48.2230   34.2780   40.7160 H   0  0  0  0  0  0  0  0  0  0  0  0
   49.0000   32.4940   42.3030 H   0  0  0  0  0  0  0  0  0  0  0  0
   47.9040   32.2700   44.5020 H   0  0  0  0  0  0  0  0  0  0  0  0
   46.9660   28.2910   46.6260 C   0  0  0  0  0  0  0  0  0  0  0  0
   46.1560   29.1650   47.3610 C   0  0  0  0  0  0  0  0  0  0  0  0
   45.0450   28.5820   47.9140 C   0  0  0  0  0  0  0  0  0  0  0  0
   44.3710   29.1830   48.4920 H   0  0  0  0  0  0  0  0  0  0  0  0
   44.6490   27.2690   47.8270 C   0  0  0  0  0  0  0  0  0  0  0  0
   43.7600   26.8830   48.2910 H   0  0  0  0  0  0  0  0  0  0  0  0
   45.4460   26.4080   47.1050 C   0  0  0  0  0  0  0  0  0  0  0  0
   46.5740   26.9470   46.5300 C   0  0  0  0  0  0  0  0  0  0  0  0
   49.3090   29.4430   46.6570 H   0  0  0  0  0  0  0  0  0  0  0  0
   48.4320   28.7690   45.8250 S   0  0  0  0  0  0  0  0  0  0  0  0
   48.2080   29.4730   44.5250 O   0  0  0  0  0  0  0  0  0  0  0  0
   49.1930   27.5000   45.4600 O   0  0  0  0  0  0  0  0  0  0  0  0
   47.8780   30.3400   49.5170 N   0  0  0  0  0  0  0  0  0  0  0  0
   47.0830   30.4710   50.2130 H   0  0  0  0  0  0  0  0  0  0  0  0
   48.7890   30.0500   49.0510 H   0  0  0  0  0  0  0  0  0  0  0  0
  1  2  1  0  0  0  0
  1  7  1  0  0  0  0
  2 35  1  0  0  0  0
  3  2  2  0  0  0  0
  4  3  1  0  0  0  0
  5  4  2  0  0  0  0
  5  6  1  0  0  0  0
  6  1  2  0  0  0  0
  8  9  1  0  0  0  0
  8  5  1  0  0  0  0
 10 18  1  0  0  0  0
 10  9  2  0  0  0  0
 11 10  1  0  0  0  0
 12 11  2  0  0  0  0
 12 17  1  0  0  0  0
 13 12  1  0  0  0  0
 14 13  2  0  0  0  0
 14 15  1  0  0  0  0
 15 16  2  0  0  0  0
 16 17  1  0  0  0  0
 16 22  1  0  0  0  0
 17  8  2  0  0  0  0
 19 13  1  0  0  0  0
 20 14  1  0  0  0  0
 21 15  1  0  0  0  0
 23 24  1  0  0  0  0
 24  3  1  0  0  0  0
 24 25  2  0  0  0  0
 25 26  1  0  0  0  0
 27 25  1  0  0  0  0
 27 28  1  0  0  0  0
 29 27  2  0  0  0  0
 30 23  2  0  0  0  0
 30 29  1  0  0  0  0
 32 23  1  0  0  0  0
 32 31  1  0  0  0  0
 33 32  2  0  0  0  0
 34 32  2  0  0  0  0
 35 36  1  0  0  0  0
 37 35  1  0  0  0  0
M  END
>  <minimizedAffinity>
-6.16919899

>  <minimizedRMSD>
1.68950832

$$$$
