REMARK  Name = 
REMARK  5 active torsions:
REMARK  status: ('A' for Active; 'I' for Inactive)
REMARK    1  A    between atoms: C_1  and  C_7
REMARK    2  A    between atoms: C_6  and  N_19
REMARK    3  A    between atoms: C_11  and  C_13
REMARK    4  A    between atoms: C_17  and  C_46
REMARK    5  A    between atoms: S_42  and  C_45
REMARK                            x       y       z     vdW  Elec       q    Type
REMARK                         _______ _______ _______ _____ _____    ______ ____
ROOT
ATOM      1  C   UNL     1      46.915  32.916  45.529  0.00  0.00    +0.000 A 
ATOM      2  C   UNL     1      45.804  33.591  46.016  0.00  0.00    +0.000 A 
ATOM      3  C   UNL     1      45.125  34.512  45.185  0.00  0.00    +0.000 A 
ATOM      4  N   UNL     1      45.637  34.682  43.902  0.00  0.00    +0.000 NA
ATOM      5  C   UNL     1      46.715  34.001  43.495  0.00  0.00    +0.000 A 
ATOM      6  N   UNL     1      47.342  33.134  44.291  0.00  0.00    +0.000 NA
ATOM      7  H   UNL     1      45.275  33.644  46.945  0.00  0.00    +0.000 HD
ATOM      8  H   UNL     1      44.274  35.107  45.379  0.00  0.00    +0.000 HD
ENDROOT
BRANCH   1   9
ATOM      9  C   UNL     1      47.560  31.967  46.413  0.00  0.00    +0.000 C 
ATOM     10  C   UNL     1      47.303  30.497  45.960  0.00  0.00    +0.000 C 
ATOM     11  C   UNL     1      48.119  29.574  46.797  0.00  0.00    +0.000 C 
ATOM     12  C   UNL     1      48.113  29.846  48.265  0.00  0.00    +0.000 C 
ATOM     13  C   UNL     1      48.120  31.245  48.611  0.00  0.00    +0.000 C 
ATOM     14  C   UNL     1      47.128  32.097  47.790  0.00  0.00    +0.000 C 
ATOM     15  H   UNL     1      48.660  32.060  46.301  0.00  0.00    +0.000 HD
ATOM     16  H   UNL     1      46.229  30.291  45.927  0.00  0.00    +0.000 HD
ATOM     17  H   UNL     1      47.659  30.483  44.909  0.00  0.00    +0.000 HD
ATOM     18  H   UNL     1      49.111  29.508  46.310  0.00  0.00    +0.000 HD
ATOM     19  H   UNL     1      47.674  28.545  46.660  0.00  0.00    +0.000 HD
ATOM     20  H   UNL     1      49.225  29.592  48.498  0.00  0.00    +0.000 HD
ATOM     21  H   UNL     1      47.738  29.068  48.931  0.00  0.00    +0.000 HD
ATOM     22  H   UNL     1      49.081  31.813  48.558  0.00  0.00    +0.000 HD
ATOM     23  H   UNL     1      47.772  31.380  49.676  0.00  0.00    +0.000 HD
ATOM     24  H   UNL     1      47.258  33.075  48.256  0.00  0.00    +0.000 HD
BRANCH  14  25
ATOM     25  N   UNL     1      45.788  31.529  47.951  0.00  0.00    +0.000 N 
ATOM     26  C   UNL     1      45.185  30.844  49.020  0.00  0.00    +0.000 C 
ATOM     27  O   UNL     1      44.751  31.437  50.073  0.00  0.00    +0.000 OA
ATOM     28  N   UNL     1      45.084  29.432  48.843  0.00  0.00    +0.000 N 
ATOM     29  H   UNL     1      45.063  31.527  47.137  0.00  0.00    +0.000 HD
ATOM     30  H   UNL     1      44.556  28.970  48.074  0.00  0.00    +0.000 HD
ATOM     31  H   UNL     1      45.393  28.520  49.265  0.00  0.00    +0.000 HD
ENDBRANCH  14  25
ENDBRANCH   1   9
BRANCH   5  32
ATOM     32  C   UNL     1      47.217  34.243  42.139  0.00  0.00    +0.000 A 
ATOM     33  C   UNL     1      48.195  35.171  41.897  0.00  0.00    +0.000 A 
ATOM     34  C   UNL     1      48.696  35.431  40.638  0.00  0.00    +0.000 A 
ATOM     35  C   UNL     1      48.145  34.685  39.602  0.00  0.00    +0.000 A 
ATOM     36  C   UNL     1      47.163  33.751  39.832  0.00  0.00    +0.000 A 
ATOM     37  N   UNL     1      46.722  33.552  41.103  0.00  0.00    +0.000 NA
ATOM     38  H   UNL     1      48.581  35.715  42.737  0.00  0.00    +0.000 HD
ATOM     39  H   UNL     1      49.465  36.172  40.506  0.00  0.00    +0.000 HD
ATOM     40  H   UNL     1      48.551  34.906  38.633  0.00  0.00    +0.000 HD
BRANCH  36  42
ATOM     41  C   UNL     1      45.321  33.264  38.273  0.00  0.00    +0.000 A 
ATOM     42  C   UNL     1      46.590  32.975  38.754  0.00  0.00    +0.000 A 
ATOM     43  C   UNL     1      47.262  31.930  38.160  0.00  0.00    +0.000 A 
ATOM     44  H   UNL     1      48.254  31.634  38.470  0.00  0.00    +0.000 HD
ATOM     45  C   UNL     1      46.758  31.162  37.131  0.00  0.00    +0.000 A 
ATOM     46  H   UNL     1      47.311  30.342  36.681  0.00  0.00    +0.000 HD
ATOM     47  C   UNL     1      45.513  31.427  36.643  0.00  0.00    +0.000 A 
ATOM     48  C   UNL     1      44.828  32.472  37.228  0.00  0.00    +0.000 A 
BRANCH  41  50
ATOM     49  H   UNL     1      44.974  35.777  38.838  0.00  0.00    +0.000 HD
ATOM     50  S   UNL     1      44.337  34.558  38.918  0.00  0.00    +0.000 S 
ATOM     51  O   UNL     1      43.120  34.700  38.011  0.00  0.00    +0.000 OA
ATOM     52  O   UNL     1      43.835  34.267  40.306  0.00  0.00    +0.000 OA
ENDBRANCH  41  50
ENDBRANCH  36  42
ENDBRANCH   5  32
TORSDOF 5
