
 OpenBabel03252507033D

 50 53  0  0  0  0  0  0  0  0999 V2000
   40.2930   29.8030   41.6170 N   0  0  0  0  0  0  0  0  0  0  0  0
   40.1180   28.5770   40.8990 C   0  0  0  0  0  0  0  0  0  0  0  0
   39.0600   27.9280   41.7920 C   0  0  0  0  0  0  0  0  0  0  0  0
   37.8330   28.7000   41.9030 C   0  0  0  0  0  0  0  0  0  0  0  0
   37.8880   30.1280   41.6770 C   0  0  0  0  0  0  0  0  0  0  0  0
   39.2200   30.8160   41.5320 C   0  0  0  0  0  0  0  0  0  0  0  0
   39.8060   28.6080   39.8710 H   0  0  0  0  0  0  0  0  0  0  0  0
   41.0470   27.9790   40.9600 H   0  0  0  0  0  0  0  0  0  0  0  0
   38.8570   26.9340   41.2980 H   0  0  0  0  0  0  0  0  0  0  0  0
   39.5730   27.6730   42.7360 H   0  0  0  0  0  0  0  0  0  0  0  0
   37.3910   28.5290   42.9180 H   0  0  0  0  0  0  0  0  0  0  0  0
   37.0570   28.2950   41.1880 H   0  0  0  0  0  0  0  0  0  0  0  0
   37.0470   30.7560   41.6280 H   0  0  0  0  0  0  0  0  0  0  0  0
   41.3270   30.1390   42.3980 C   0  0  0  0  0  0  0  0  0  0  0  0
   41.7070   31.2020   42.2150 H   0  0  0  0  0  0  0  0  0  0  0  0
   41.0730   30.1440   43.4790 H   0  0  0  0  0  0  0  0  0  0  0  0
   42.5280   29.2850   42.2070 C   0  0  0  0  0  0  0  0  0  0  0  0
   42.8240   29.1690   41.1280 H   0  0  0  0  0  0  0  0  0  0  0  0
   42.3190   28.2510   42.5950 H   0  0  0  0  0  0  0  0  0  0  0  0
   43.6200   29.8380   43.0280 C   0  0  0  0  0  0  0  0  0  0  0  0
   44.1470   29.1150   44.0720 C   0  0  0  0  0  0  0  0  0  0  0  0
   45.1650   29.6840   44.8220 C   0  0  0  0  0  0  0  0  0  0  0  0
   45.5950   30.9390   44.4810 N   0  0  0  0  0  0  0  0  0  0  0  0
   45.0680   31.6070   43.4680 C   0  0  0  0  0  0  0  0  0  0  0  0
   44.0830   31.0360   42.7610 N   0  0  0  0  0  0  0  0  0  0  0  0
   43.9660   28.1360   44.4790 H   0  0  0  0  0  0  0  0  0  0  0  0
   45.6970   29.2740   45.6720 H   0  0  0  0  0  0  0  0  0  0  0  0
   45.6040   32.9300   43.1540 C   0  0  0  0  0  0  0  0  0  0  0  0
   44.7470   34.0000   42.9090 C   0  0  0  0  0  0  0  0  0  0  0  0
   45.2700   35.2400   42.6100 C   0  0  0  0  0  0  0  0  0  0  0  0
   46.6430   35.2940   42.5830 C   0  0  0  0  0  0  0  0  0  0  0  0
   47.5400   34.2520   42.8220 C   0  0  0  0  0  0  0  0  0  0  0  0
   46.9460   33.0660   43.1090 N   0  0  0  0  0  0  0  0  0  0  0  0
   43.6720   33.8810   42.9480 H   0  0  0  0  0  0  0  0  0  0  0  0
   44.6960   36.1140   42.4090 H   0  0  0  0  0  0  0  0  0  0  0  0
   47.1180   36.2550   42.3510 H   0  0  0  0  0  0  0  0  0  0  0  0
   48.5990   34.4030   42.7750 H   0  0  0  0  0  0  0  0  0  0  0  0
   39.4270   32.5030   41.3070 S   0  0  0  0  0  0  0  0  0  0  0  0
   40.3150   34.1780   39.6930 C   0  0  0  0  0  0  0  0  0  0  0  0
   39.2380   33.2650   39.7770 C   0  0  0  0  0  0  0  0  0  0  0  0
   38.4280   33.2310   38.6900 C   0  0  0  0  0  0  0  0  0  0  0  0
   37.6330   32.5500   38.8220 H   0  0  0  0  0  0  0  0  0  0  0  0
   38.5340   33.9630   37.5480 C   0  0  0  0  0  0  0  0  0  0  0  0
   37.8060   33.8070   36.7900 H   0  0  0  0  0  0  0  0  0  0  0  0
   39.5960   34.8320   37.5170 C   0  0  0  0  0  0  0  0  0  0  0  0
   40.5060   34.9750   38.5550 C   0  0  0  0  0  0  0  0  0  0  0  0
   41.9170   33.4330   41.5490 H   0  0  0  0  0  0  0  0  0  0  0  0
   41.6120   34.5710   40.8360 S   0  0  0  0  0  0  0  0  0  0  0  0
   41.1170   35.6590   41.7390 O   0  0  0  0  0  0  0  0  0  0  0  0
   42.8040   35.0080   40.0590 O   0  0  0  0  0  0  0  0  0  0  0  0
  1 14  1  0  0  0  0
  2  8  1  0  0  0  0
  2  1  1  0  0  0  0
  2  3  1  0  0  0  0
  3  4  1  0  0  0  0
  3 10  1  0  0  0  0
  4 11  1  0  0  0  0
  5  4  1  0  0  0  0
  6  1  1  0  0  0  0
  6  5  2  0  0  0  0
  7  2  1  0  0  0  0
  9  3  1  0  0  0  0
 12  4  1  0  0  0  0
 13  5  1  0  0  0  0
 14 16  1  0  0  0  0
 15 14  1  0  0  0  0
 17 14  1  0  0  0  0
 17 19  1  0  0  0  0
 17 20  1  0  0  0  0
 18 17  1  0  0  0  0
 20 21  1  0  0  0  0
 21 26  1  0  0  0  0
 21 22  2  0  0  0  0
 22 27  1  0  0  0  0
 23 22  1  0  0  0  0
 24 23  2  0  0  0  0
 25 20  2  0  0  0  0
 25 24  1  0  0  0  0
 28 24  1  0  0  0  0
 29 34  1  0  0  0  0
 29 28  2  0  0  0  0
 30 29  1  0  0  0  0
 31 30  2  0  0  0  0
 31 32  1  0  0  0  0
 32 33  2  0  0  0  0
 33 28  1  0  0  0  0
 35 30  1  0  0  0  0
 36 31  1  0  0  0  0
 37 32  1  0  0  0  0
 38  6  1  0  0  0  0
 39 40  1  0  0  0  0
 39 48  1  0  0  0  0
 40 38  1  0  0  0  0
 41 42  1  0  0  0  0
 41 40  2  0  0  0  0
 43 41  1  0  0  0  0
 44 43  1  0  0  0  0
 45 43  2  0  0  0  0
 45 46  1  0  0  0  0
 46 39  2  0  0  0  0
 48 47  1  0  0  0  0
 48 49  2  0  0  0  0
 50 48  2  0  0  0  0
M  END
>  <minimizedAffinity>
-5.57200813

>  <minimizedRMSD>
4.57892275

$$$$
