
 OpenBabel03252509213D

 28 30  0  0  0  0  0  0  0  0999 V2000
   45.1910   34.0120   44.5780 C   0  0  0  0  0  0  0  0  0  0  0  0
   45.4880   32.9850   43.6400 C   0  0  0  0  0  0  0  0  0  0  0  0
   46.3390   31.9840   44.1070 C   0  0  0  0  0  0  0  0  0  0  0  0
   46.8430   32.0140   45.3920 N   0  0  0  0  0  0  0  0  0  0  0  0
   46.5230   33.0130   46.2350 C   0  0  0  0  0  0  0  0  0  0  0  0
   45.6950   34.0120   45.8220 N   0  0  0  0  0  0  0  0  0  0  0  0
   44.5380   34.8020   44.2570 H   0  0  0  0  0  0  0  0  0  0  0  0
   46.9950   32.8920   47.2000 H   0  0  0  0  0  0  0  0  0  0  0  0
   46.6120   30.8270   43.1720 C   0  0  0  0  0  0  0  0  0  0  0  0
   48.0210   30.2690   43.3880 C   0  0  0  0  0  0  0  0  0  0  0  0
   46.7120   29.5120   43.7690 C   0  0  0  0  0  0  0  0  0  0  0  0
   46.5710   31.1220   42.0900 H   0  0  0  0  0  0  0  0  0  0  0  0
   48.6040   30.5690   44.2610 H   0  0  0  0  0  0  0  0  0  0  0  0
   48.5720   29.8380   42.5470 H   0  0  0  0  0  0  0  0  0  0  0  0
   46.4840   28.6220   43.1490 H   0  0  0  0  0  0  0  0  0  0  0  0
   46.4760   29.4190   44.8410 H   0  0  0  0  0  0  0  0  0  0  0  0
   45.5080   33.5350   41.1880 C   0  0  0  0  0  0  0  0  0  0  0  0
   44.9490   32.9690   42.2870 C   0  0  0  0  0  0  0  0  0  0  0  0
   43.7330   32.2860   42.1710 C   0  0  0  0  0  0  0  0  0  0  0  0
   43.2310   31.8090   43.0140 H   0  0  0  0  0  0  0  0  0  0  0  0
   43.1070   32.1940   40.9280 C   0  0  0  0  0  0  0  0  0  0  0  0
   42.1700   31.6730   40.8150 H   0  0  0  0  0  0  0  0  0  0  0  0
   43.7400   32.8010   39.8460 C   0  0  0  0  0  3  0  0  0  0  0  0
   44.9360   33.4750   39.9490 C   0  0  0  0  0  3  0  0  0  0  0  0
   47.3420   34.9650   40.1740 H   0  0  0  0  0  0  0  0  0  0  0  0
   47.0150   34.3690   41.3870 S   0  0  0  0  0  0  0  0  0  0  0  0
   48.1570   33.4360   41.6840 O   0  0  0  0  0  0  0  0  0  0  0  0
   46.9930   35.4360   42.4120 O   0  0  0  0  0  0  0  0  0  0  0  0
  1  6  1  0  0  0  0
  2  3  1  0  0  0  0
  2  1  2  0  0  0  0
  3  4  2  0  0  0  0
  4  5  1  0  0  0  0
  5  8  1  0  0  0  0
  6  5  2  0  0  0  0
  7  1  1  0  0  0  0
  9 10  1  0  0  0  0
  9 11  1  0  0  0  0
  9  3  1  0  0  0  0
 10 11  1  0  0  0  0
 10 13  1  0  0  0  0
 11 16  1  0  0  0  0
 12  9  1  0  0  0  0
 14 10  1  0  0  0  0
 15 11  1  0  0  0  0
 17 26  1  0  0  0  0
 17 18  1  0  0  0  0
 18  2  1  0  0  0  0
 19 18  2  0  0  0  0
 19 20  1  0  0  0  0
 21 19  1  0  0  0  0
 22 21  1  0  0  0  0
 23 24  1  0  0  0  0
 23 21  2  0  0  0  0
 24 17  2  0  0  0  0
 25 26  1  0  0  0  0
 26 27  2  0  0  0  0
 26 28  2  0  0  0  0
M  END
>  <minimizedAffinity>
-3.27138162

>  <minimizedRMSD>
4.3501873

$$$$
