
 OpenBabel03252509213D

 28 30  0  0  0  0  0  0  0  0999 V2000
   45.1980   33.7510   45.2010 C   0  0  0  0  0  0  0  0  0  0  0  0
   45.5950   32.9450   44.1000 C   0  0  0  0  0  0  0  0  0  0  0  0
   46.6420   32.0610   44.3580 C   0  0  0  0  0  0  0  0  0  0  0  0
   47.2320   31.9960   45.6050 N   0  0  0  0  0  0  0  0  0  0  0  0
   46.8100   32.7850   46.6100 C   0  0  0  0  0  0  0  0  0  0  0  0
   45.7910   33.6630   46.4020 N   0  0  0  0  0  0  0  0  0  0  0  0
   44.3940   34.4460   45.0420 H   0  0  0  0  0  0  0  0  0  0  0  0
   47.3710   32.6140   47.5180 H   0  0  0  0  0  0  0  0  0  0  0  0
   47.0380   31.1230   43.2400 C   0  0  0  0  0  0  0  0  0  0  0  0
   48.4430   31.4470   42.7260 C   0  0  0  0  0  0  0  0  0  0  0  0
   48.0800   30.1610   43.5310 C   0  0  0  0  0  0  0  0  0  0  0  0
   46.3660   31.2040   42.3440 H   0  0  0  0  0  0  0  0  0  0  0  0
   49.0910   32.1260   43.2850 H   0  0  0  0  0  0  0  0  0  0  0  0
   48.6920   31.2760   41.6740 H   0  0  0  0  0  0  0  0  0  0  0  0
   48.1150   29.2160   42.9520 H   0  0  0  0  0  0  0  0  0  0  0  0
   48.4410   30.0970   44.5690 H   0  0  0  0  0  0  0  0  0  0  0  0
   45.1590   33.9920   41.8570 C   0  0  0  0  0  0  0  0  0  0  0  0
   44.9620   33.0270   42.7900 C   0  0  0  0  0  0  0  0  0  0  0  0
   44.0740   31.9790   42.5240 C   0  0  0  0  0  0  0  0  0  0  0  0
   43.8710   31.1710   43.2310 H   0  0  0  0  0  0  0  0  0  0  0  0
   43.4000   31.9350   41.3040 C   0  0  0  0  0  0  0  0  0  0  0  0
   42.7110   31.1360   41.0790 H   0  0  0  0  0  0  0  0  0  0  0  0
   43.6520   32.9600   40.3960 C   0  0  0  0  0  3  0  0  0  0  0  0
   44.5240   33.9960   40.6470 C   0  0  0  0  0  3  0  0  0  0  0  0
   46.6070   35.9130   41.0510 H   0  0  0  0  0  0  0  0  0  0  0  0
   46.2690   35.2680   42.2360 S   0  0  0  0  0  0  0  0  0  0  0  0
   47.5720   34.7550   42.7850 O   0  0  0  0  0  0  0  0  0  0  0  0
   45.7330   36.2920   43.1580 O   0  0  0  0  0  0  0  0  0  0  0  0
  1  6  1  0  0  0  0
  2  3  1  0  0  0  0
  2  1  2  0  0  0  0
  3  4  2  0  0  0  0
  4  5  1  0  0  0  0
  5  8  1  0  0  0  0
  6  5  2  0  0  0  0
  7  1  1  0  0  0  0
  9 11  1  0  0  0  0
  9  3  1  0  0  0  0
 10  9  1  0  0  0  0
 10 13  1  0  0  0  0
 10 11  1  0  0  0  0
 11 16  1  0  0  0  0
 12  9  1  0  0  0  0
 14 10  1  0  0  0  0
 15 11  1  0  0  0  0
 17 26  1  0  0  0  0
 17 18  1  0  0  0  0
 18  2  1  0  0  0  0
 19 18  2  0  0  0  0
 19 20  1  0  0  0  0
 21 19  1  0  0  0  0
 22 21  1  0  0  0  0
 23 24  1  0  0  0  0
 23 21  2  0  0  0  0
 24 17  2  0  0  0  0
 25 26  1  0  0  0  0
 26 27  2  0  0  0  0
 26 28  2  0  0  0  0
M  END
>  <minimizedAffinity>
-3.27232051

>  <minimizedRMSD>
3.88669682

$$$$
