REMARK  Name = 
REMARK  4 active torsions:
REMARK  status: ('A' for Active; 'I' for Inactive)
REMARK    1  A    between atoms: C_1  and  C_18
REMARK    2  A    between atoms: C_3  and  C_4
REMARK    3  A    between atoms: C_16  and  C_38
REMARK    4  A    between atoms: S_34  and  C_37
REMARK                            x       y       z     vdW  Elec       q    Type
REMARK                         _______ _______ _______ _____ _____    ______ ____
ROOT
ATOM      1  C   UNL     1      46.383  32.667  45.868  0.00  0.00    +0.000 C 
ATOM      2  C   UNL     1      46.974  32.832  47.203  0.00  0.00    +0.000 C 
ATOM      3  C   UNL     1      45.543  32.205  46.955  0.00  0.00    +0.000 C 
ATOM      4  H   UNL     1      47.139  32.024  45.288  0.00  0.00    +0.000 HD
ATOM      5  H   UNL     1      47.636  32.099  47.691  0.00  0.00    +0.000 HD
ATOM      6  H   UNL     1      46.996  33.813  47.704  0.00  0.00    +0.000 HD
ATOM      7  H   UNL     1      44.872  32.884  47.571  0.00  0.00    +0.000 HD
ENDROOT
BRANCH   3   8
ATOM      8  C   UNL     1      45.300  30.804  47.300  0.00  0.00    +0.000 A 
ATOM      9  C   UNL     1      45.175  30.267  48.544  0.00  0.00    +0.000 A 
ATOM     10  C   UNL     1      45.074  28.914  48.843  0.00  0.00    +0.000 A 
ATOM     11  C   UNL     1      45.106  28.032  47.744  0.00  0.00    +0.000 A 
ATOM     12  C   UNL     1      45.230  28.557  46.467  0.00  0.00    +0.000 A 
ATOM     13  C   UNL     1      45.197  27.655  45.420  0.00  0.00    +0.000 A 
ATOM     14  C   UNL     1      45.250  28.132  44.108  0.00  0.00    +0.000 A 
ATOM     15  C   UNL     1      45.331  29.488  43.861  0.00  0.00    +0.000 A 
ATOM     16  C   UNL     1      45.363  30.338  44.941  0.00  0.00    +0.000 A 
ATOM     17  C   UNL     1      45.322  29.914  46.255  0.00  0.00    +0.000 A 
ATOM     18  H   UNL     1      45.156  30.994  49.359  0.00  0.00    +0.000 HD
ATOM     19  H   UNL     1      44.979  28.607  49.856  0.00  0.00    +0.000 HD
ATOM     20  H   UNL     1      45.030  26.994  47.995  0.00  0.00    +0.000 HD
ATOM     21  H   UNL     1      45.130  26.587  45.639  0.00  0.00    +0.000 HD
ATOM     22  H   UNL     1      45.220  27.328  43.367  0.00  0.00    +0.000 HD
ATOM     23  H   UNL     1      45.358  29.655  42.808  0.00  0.00    +0.000 HD
ATOM     24  H   UNL     1      45.339  31.296  44.504  0.00  0.00    +0.000 HD
ENDBRANCH   3   8
BRANCH   1  29
ATOM     25  C   UNL     1      44.619  35.730  44.820  0.00  0.00    +0.000 A 
ATOM     26  C   UNL     1      45.157  35.972  43.517  0.00  0.00    +0.000 A 
ATOM     27  C   UNL     1      46.122  35.067  43.039  0.00  0.00    +0.000 A 
ATOM     28  N   UNL     1      46.485  34.039  43.823  0.00  0.00    +0.000 NA
ATOM     29  C   UNL     1      45.950  33.842  45.061  0.00  0.00    +0.000 A 
ATOM     30  N   UNL     1      45.035  34.673  45.547  0.00  0.00    +0.000 NA
ATOM     31  H   UNL     1      43.885  36.409  45.191  0.00  0.00    +0.000 HD
ATOM     32  H   UNL     1      44.851  36.828  42.966  0.00  0.00    +0.000 HD
BRANCH  27  34
ATOM     33  C   UNL     1      46.689  34.419  40.641  0.00  0.00    +0.000 A 
ATOM     34  C   UNL     1      46.824  35.166  41.780  0.00  0.00    +0.000 A 
ATOM     35  C   UNL     1      47.821  36.149  41.707  0.00  0.00    +0.000 A 
ATOM     36  H   UNL     1      48.013  36.800  42.562  0.00  0.00    +0.000 HD
ATOM     37  C   UNL     1      48.628  36.403  40.626  0.00  0.00    +0.000 A 
ATOM     38  H   UNL     1      49.376  37.174  40.632  0.00  0.00    +0.000 HD
ATOM     39  C   UNL     1      48.469  35.644  39.500  0.00  0.00    +0.000 A 
ATOM     40  C   UNL     1      47.505  34.669  39.530  0.00  0.00    +0.000 A 
BRANCH  33  42
ATOM     41  H   UNL     1      46.144  32.183  39.636  0.00  0.00    +0.000 HD
ATOM     42  S   UNL     1      45.589  33.102  40.563  0.00  0.00    +0.000 S 
ATOM     43  O   UNL     1      45.522  32.276  41.825  0.00  0.00    +0.000 OA
ATOM     44  O   UNL     1      44.254  33.408  39.975  0.00  0.00    +0.000 OA
ENDBRANCH  33  42
ENDBRANCH  27  34
ENDBRANCH   1  29
TORSDOF 4
