
 OpenBabel03252509213D

 28 30  0  0  0  0  0  0  0  0999 V2000
   45.9540   31.8830   44.6730 C   0  0  0  0  0  0  0  0  0  0  0  0
   46.3400   32.6710   43.5540 C   0  0  0  0  0  0  0  0  0  0  0  0
   47.5780   32.3490   42.9990 C   0  0  0  0  0  0  0  0  0  0  0  0
   48.3530   31.3330   43.5220 N   0  0  0  0  0  0  0  0  0  0  0  0
   47.9330   30.6200   44.5840 C   0  0  0  0  0  0  0  0  0  0  0  0
   46.7300   30.9010   45.1560 N   0  0  0  0  0  0  0  0  0  0  0  0
   45.0070   32.1010   45.1290 H   0  0  0  0  0  0  0  0  0  0  0  0
   48.6500   29.8630   44.8690 H   0  0  0  0  0  0  0  0  0  0  0  0
   47.9880   33.1030   41.7550 C   0  0  0  0  0  0  0  0  0  0  0  0
   49.1320   34.0750   42.0550 C   0  0  0  0  0  0  0  0  0  0  0  0
   49.2840   32.7840   41.1930 C   0  0  0  0  0  0  0  0  0  0  0  0
   47.1610   33.7360   41.3360 H   0  0  0  0  0  0  0  0  0  0  0  0
   49.6710   34.0150   43.0030 H   0  0  0  0  0  0  0  0  0  0  0  0
   49.2130   35.0120   41.4970 H   0  0  0  0  0  0  0  0  0  0  0  0
   49.4570   32.9570   40.1120 H   0  0  0  0  0  0  0  0  0  0  0  0
   49.8400   31.9430   41.6360 H   0  0  0  0  0  0  0  0  0  0  0  0
   44.4990   33.6060   42.1200 C   0  0  0  0  0  0  0  0  0  0  0  0
   45.5110   33.7410   43.0150 C   0  0  0  0  0  0  0  0  0  0  0  0
   45.8350   35.0100   43.5050 C   0  0  0  0  0  0  0  0  0  0  0  0
   46.6350   35.1870   44.2260 H   0  0  0  0  0  0  0  0  0  0  0  0
   45.1170   36.1230   43.0700 C   0  0  0  0  0  0  0  0  0  0  0  0
   45.3500   37.1120   43.4350 H   0  0  0  0  0  0  0  0  0  0  0  0
   44.0940   35.9070   42.1510 C   0  0  0  0  0  3  0  0  0  0  0  0
   43.7660   34.6630   41.6620 C   0  0  0  0  0  3  0  0  0  0  0  0
   45.3300   31.3000   41.4670 H   0  0  0  0  0  0  0  0  0  0  0  0
   44.1380   32.0110   41.5440 S   0  0  0  0  0  0  0  0  0  0  0  0
   43.5940   32.0130   40.1410 O   0  0  0  0  0  0  0  0  0  0  0  0
   43.2190   31.2390   42.4100 O   0  0  0  0  0  0  0  0  0  0  0  0
  1  7  1  0  0  0  0
  1  6  1  0  0  0  0
  2  1  2  0  0  0  0
  3  4  2  0  0  0  0
  3  2  1  0  0  0  0
  4  5  1  0  0  0  0
  5  8  1  0  0  0  0
  5  6  2  0  0  0  0
  9 10  1  0  0  0  0
  9  3  1  0  0  0  0
 10 13  1  0  0  0  0
 11 16  1  0  0  0  0
 11  9  1  0  0  0  0
 11 10  1  0  0  0  0
 12  9  1  0  0  0  0
 14 10  1  0  0  0  0
 15 11  1  0  0  0  0
 17 18  1  0  0  0  0
 18 19  2  0  0  0  0
 18  2  1  0  0  0  0
 19 20  1  0  0  0  0
 21 22  1  0  0  0  0
 21 19  1  0  0  0  0
 23 21  2  0  0  0  0
 24 17  2  0  0  0  0
 24 23  1  0  0  0  0
 25 26  1  0  0  0  0
 26 17  1  0  0  0  0
 26 28  2  0  0  0  0
 27 26  2  0  0  0  0
M  END
>  <minimizedAffinity>
-3.5741806

>  <minimizedRMSD>
3.30051899

$$$$
