REMARK  Name = 
REMARK  4 active torsions:
REMARK  status: ('A' for Active; 'I' for Inactive)
REMARK    1  A    between atoms: C_1  and  C_9
REMARK    2  A    between atoms: C_6  and  C_13
REMARK    3  A    between atoms: C_17  and  C_40
REMARK    4  A    between atoms: S_36  and  C_39
REMARK                            x       y       z     vdW  Elec       q    Type
REMARK                         _______ _______ _______ _____ _____    ______ ____
ROOT
ATOM      1  C   UNL     1      47.876  32.947  41.922  0.00  0.00    +0.000 C 
ATOM      2  C   UNL     1      47.602  32.290  40.628  0.00  0.00    +0.000 C 
ATOM      3  C   UNL     1      48.659  32.816  39.661  0.00  0.00    +0.000 C 
ATOM      4  C   UNL     1      48.304  34.282  39.418  0.00  0.00    +0.000 C 
ATOM      5  C   UNL     1      48.167  35.092  40.644  0.00  0.00    +0.000 C 
ATOM      6  C   UNL     1      47.665  34.447  41.870  0.00  0.00    +0.000 C 
ATOM      7  H   UNL     1      48.982  32.852  42.142  0.00  0.00    +0.000 HD
ATOM      8  H   UNL     1      46.608  32.465  40.209  0.00  0.00    +0.000 HD
ATOM      9  H   UNL     1      47.746  31.184  40.783  0.00  0.00    +0.000 HD
ATOM     10  H   UNL     1      48.526  32.284  38.711  0.00  0.00    +0.000 HD
ATOM     11  H   UNL     1      49.669  32.730  40.093  0.00  0.00    +0.000 HD
ATOM     12  H   UNL     1      49.137  34.685  38.793  0.00  0.00    +0.000 HD
ATOM     13  H   UNL     1      47.424  34.253  38.754  0.00  0.00    +0.000 HD
ATOM     14  H   UNL     1      49.136  35.609  40.839  0.00  0.00    +0.000 HD
ATOM     15  H   UNL     1      47.467  35.946  40.401  0.00  0.00    +0.000 HD
ATOM     16  H   UNL     1      48.218  34.852  42.749  0.00  0.00    +0.000 HD
ENDROOT
BRANCH   1  19
ATOM     17  C   UNL     1      45.414  30.965  43.991  0.00  0.00    +0.000 A 
ATOM     18  C   UNL     1      46.109  31.528  42.924  0.00  0.00    +0.000 A 
ATOM     19  C   UNL     1      47.193  32.378  43.078  0.00  0.00    +0.000 A 
ATOM     20  N   UNL     1      47.549  32.639  44.347  0.00  0.00    +0.000 NA
ATOM     21  C   UNL     1      46.886  32.101  45.399  0.00  0.00    +0.000 A 
ATOM     22  N   UNL     1      45.841  31.282  45.236  0.00  0.00    +0.000 NA
ATOM     23  H   UNL     1      44.577  30.310  43.757  0.00  0.00    +0.000 HD
ATOM     24  H   UNL     1      45.797  31.298  41.904  0.00  0.00    +0.000 HD
ATOM     25  H   UNL     1      47.173  32.312  46.426  0.00  0.00    +0.000 HD
ENDBRANCH   1  19
BRANCH   6  26
ATOM     26  C   UNL     1      46.248  34.789  42.142  0.00  0.00    +0.000 A 
ATOM     27  C   UNL     1      45.742  35.334  43.325  0.00  0.00    +0.000 A 
ATOM     28  C   UNL     1      44.368  35.587  43.322  0.00  0.00    +0.000 A 
ATOM     29  C   UNL     1      43.645  35.291  42.198  0.00  0.00    +0.000 A 
ATOM     30  C   UNL     1      44.145  34.757  41.049  0.00  0.00    +0.000 A 
ATOM     31  N   UNL     1      45.480  34.513  41.052  0.00  0.00    +0.000 NA
ATOM     32  H   UNL     1      46.446  35.495  44.087  0.00  0.00    +0.000 HD
ATOM     33  H   UNL     1      43.989  36.007  44.237  0.00  0.00    +0.000 HD
ATOM     34  H   UNL     1      42.623  35.567  42.329  0.00  0.00    +0.000 HD
BRANCH  30  36
ATOM     35  C   UNL     1      43.709  33.731  38.747  0.00  0.00    +0.000 A 
ATOM     36  C   UNL     1      43.383  34.493  39.834  0.00  0.00    +0.000 A 
ATOM     37  C   UNL     1      42.162  35.146  39.757  0.00  0.00    +0.000 A 
ATOM     38  H   UNL     1      41.805  35.769  40.563  0.00  0.00    +0.000 HD
ATOM     39  C   UNL     1      41.289  35.081  38.705  0.00  0.00    +0.000 A 
ATOM     40  H   UNL     1      40.343  35.602  38.675  0.00  0.00    +0.000 HD
ATOM     41  C   UNL     1      41.611  34.313  37.609  0.00  0.00    +0.000 A 
ATOM     42  C   UNL     1      42.821  33.657  37.666  0.00  0.00    +0.000 A 
BRANCH  35  44
ATOM     43  H   UNL     1      45.236  31.718  39.309  0.00  0.00    +0.000 HD
ATOM     44  S   UNL     1      45.230  32.938  38.696  0.00  0.00    +0.000 S 
ATOM     45  O   UNL     1      46.407  33.806  39.036  0.00  0.00    +0.000 OA
ATOM     46  O   UNL     1      45.463  32.583  37.212  0.00  0.00    +0.000 OA
ENDBRANCH  35  44
ENDBRANCH  30  36
ENDBRANCH   6  26
TORSDOF 4
