
     RDKit          3D

 35 37  0  0  0  0  0  0  0  0999 V2000
   44.4156   36.1798   44.7889 C   0  0  0  0  0  0  0  0  0  0  0  0
   45.0740   36.0629   43.5507 C   0  0  0  0  0  0  0  0  0  0  0  0
   45.9091   34.9689   43.3224 C   0  0  0  0  0  0  0  0  0  0  0  0
   46.0459   34.0635   44.3158 N   0  0  0  0  0  0  0  0  0  0  0  0
   45.3976   34.2041   45.4987 C   0  0  0  0  0  0  0  0  0  0  0  0
   44.5797   35.2697   45.7307 N   0  0  0  0  0  0  0  0  0  0  0  0
   45.5578   33.2312   46.5400 N   0  0  0  0  0  0  0  0  0  0  0  0
   46.6273   34.7508   42.1002 C   0  0  0  0  0  0  0  0  0  0  0  0
   47.8591   35.3532   41.9587 C   0  0  0  0  0  0  0  0  0  0  0  0
   48.6473   35.2132   40.8163 C   0  0  0  0  0  0  0  0  0  0  0  0
   48.1803   34.4348   39.7691 C   0  0  0  0  0  0  0  0  0  0  0  0
   46.9446   33.8365   39.9230 C   0  0  0  0  0  0  0  0  0  0  0  0
   46.1858   33.9872   41.0546 C   0  0  0  0  0  0  0  0  0  0  0  0
   43.7620   37.0276   44.9794 H   0  0  0  0  0  0  0  0  0  0  0  0
   44.9503   36.7988   42.7704 H   0  0  0  0  0  0  0  0  0  0  0  0
   45.8875   33.6180   47.4592 H   0  0  0  0  0  0  0  0  0  0  0  0
   45.3758   32.2080   46.4465 H   0  0  0  0  0  0  0  0  0  0  0  0
   48.2557   35.9585   42.7362 H   0  0  0  0  0  0  0  0  0  0  0  0
   49.6011   35.6917   40.7313 H   0  0  0  0  0  0  0  0  0  0  0  0
   48.8224   34.3498   38.8967 H   0  0  0  0  0  0  0  0  0  0  0  0
   46.5814   33.2230   39.0935 H   0  0  0  0  0  0  0  0  0  0  0  0
   43.6029   34.1406   37.8899 H   0  0  0  0  0  0  0  0  0  0  0  0
   44.6224   33.4232   38.4922 S   0  0  0  0  0  0  0  0  0  0  0  0
   44.8098   32.1712   37.6685 O   0  0  0  0  0  0  0  0  0  0  0  0
   45.8724   34.2505   38.5342 O   0  0  0  0  0  0  0  0  0  0  0  0
   44.0679   33.0192   40.1016 C   0  0  0  0  0  0  0  0  0  0  0  0
   44.8861   33.3348   41.1661 C   0  0  0  0  0  0  0  0  0  0  0  0
   44.4440   33.0123   42.4374 C   0  0  0  0  0  0  0  0  0  0  0  0
   45.0131   33.2176   43.3524 H   0  0  0  0  0  0  0  0  0  0  0  0
   43.2093   32.3907   42.5951 C   0  0  0  0  0  0  0  0  0  0  0  0
   42.7702   32.0950   43.5590 H   0  0  0  0  0  0  0  0  0  0  0  0
   42.4064   32.0840   41.5137 C   0  0  0  0  0  0  0  0  0  0  0  0
   42.8459   32.4055   40.2391 C   0  0  0  0  0  0  0  0  0  0  0  0
   41.4309   31.5937   41.6272 H   0  0  0  0  0  0  0  0  0  0  0  0
   42.2460   32.1830   39.3548 H   0  0  0  0  0  0  0  0  0  0  0  0
  1  6  2  0
  2  1  1  0
  3  2  2  0
  3  4  1  0
  4  5  2  0
  5  6  1  0
  5  7  1  0
  8  3  1  0
  9  8  2  0
 10  9  1  0
 11 12  1  0
 11 10  2  0
 12 13  2  0
 13  8  1  0
  1 14  1  0
  2 15  1  0
  7 16  1  0
  7 17  1  0
  9 18  1  0
 10 19  1  0
 11 20  1  0
 12 21  1  0
 22 23  1  0
 23 24  2  0
 23 25  2  0
 23 26  1  0
 26 27  2  0
 27 28  1  0
 28 29  1  0
 28 30  2  0
 30 31  1  0
 30 32  1  0
 32 33  2  0
 33 26  1  0
 32 34  1  0
 33 35  1  0
 13 27  1  0
M  ISO  8  14  14  15  14  18  14  19  14  20  14  21  14  22  12  29  15
M  ISO  1  31  16
M  END
>  <DihAtoms>  (1) 
11,12,26,25

>  <DihDeg>  (1) 
-88.02128207324482

$$$$
