
 OpenBabel03252508263D

 44 48  0  0  1  0  0  0  0  0999 V2000
   46.3020   32.3670   46.2940 C   0  0  1  0  0  0  0  0  0  0  0  0
   46.7080   32.5460   47.6950 C   0  0  0  0  0  0  0  0  0  0  0  0
   45.3540   31.8510   47.2620 C   0  0  2  0  0  0  0  0  0  0  0  0
   47.1570   31.7700   45.8130 H   0  0  0  0  0  0  0  0  0  0  0  0
   47.3380   31.8410   48.2600 H   0  0  0  0  0  0  0  0  0  0  0  0
   46.6150   33.5210   48.1990 H   0  0  0  0  0  0  0  0  0  0  0  0
   44.5760   32.4890   47.7900 H   0  0  0  0  0  0  0  0  0  0  0  0
   45.1410   30.4360   47.5660 C   0  0  0  0  0  0  0  0  0  0  0  0
   45.0440   29.8580   48.7940 C   0  0  0  0  0  0  0  0  0  0  0  0
   44.9710   28.4950   49.0510 C   0  0  0  0  0  0  0  0  0  0  0  0
   45.0010   27.6480   47.9240 C   0  0  0  0  0  0  0  0  0  0  0  0
   45.0970   28.2160   46.6630 C   0  0  0  0  0  0  0  0  0  0  0  0
   45.0630   27.3470   45.5880 C   0  0  0  0  0  0  0  0  0  0  0  0
   45.0870   27.8660   44.2910 C   0  0  0  0  0  0  0  0  0  0  0  0
   45.1410   29.2300   44.0860 C   0  0  0  0  0  0  0  0  0  0  0  0
   45.1750   30.0460   45.1920 C   0  0  0  0  0  0  0  0  0  0  0  0
   45.1620   29.5800   46.4930 C   0  0  0  0  0  0  0  0  0  0  0  0
   45.0250   30.5580   49.6310 H   0  0  0  0  0  0  0  0  0  0  0  0
   44.8970   28.1540   50.0550 H   0  0  0  0  0  0  0  0  0  0  0  0
   44.9470   26.6020   48.1430 H   0  0  0  0  0  0  0  0  0  0  0  0
   45.0180   26.2710   45.7740 H   0  0  0  0  0  0  0  0  0  0  0  0
   45.0600   27.0850   43.5260 H   0  0  0  0  0  0  0  0  0  0  0  0
   45.1490   29.4300   43.0390 H   0  0  0  0  0  0  0  0  0  0  0  0
   45.1280   31.0170   44.7860 H   0  0  0  0  0  0  0  0  0  0  0  0
   44.6760   35.4680   45.1400 C   0  0  0  0  0  0  0  0  0  0  0  0
   45.2080   35.6300   43.8220 C   0  0  0  0  0  0  0  0  0  0  0  0
   46.1220   34.6600   43.3710 C   0  0  0  0  0  0  0  0  0  0  0  0
   46.4440   33.6480   44.1930 N   0  0  0  0  0  0  0  0  0  0  0  0
   45.9160   33.5280   45.4440 C   0  0  0  0  0  0  0  0  0  0  0  0
   45.0490   34.4230   45.9050 N   0  0  0  0  0  0  0  0  0  0  0  0
   43.9810   36.1970   45.4900 H   0  0  0  0  0  0  0  0  0  0  0  0
   44.9370   36.4770   43.2400 H   0  0  0  0  0  0  0  0  0  0  0  0
   46.4790   34.0730   40.9180 C   0  0  0  0  0  0  0  0  0  0  0  0
   46.8120   34.6730   42.1020 C   0  0  0  0  0  0  0  0  0  0  0  0
   48.0250   35.3750   42.0670 C   0  0  0  0  0  0  0  0  0  0  0  0
   48.3850   35.8910   42.9600 H   0  0  0  0  0  0  0  0  0  0  0  0
   48.8570   35.4980   40.9830 C   0  0  0  0  0  0  0  0  0  0  0  0
   49.7760   36.0520   41.0220 H   0  0  0  0  0  0  0  0  0  0  0  0
   48.4990   34.8910   39.8120 C   0  0  0  0  0  3  0  0  0  0  0  0
   47.3180   34.1920   39.8030 C   0  0  0  0  0  3  0  0  0  0  0  0
   45.0470   32.6370   39.4360 H   0  0  0  0  0  0  0  0  0  0  0  0
   45.0790   33.0860   40.7820 S   0  0  0  0  0  0  0  0  0  0  0  0
   45.1590   31.7870   41.5460 O   0  0  0  0  0  0  0  0  0  0  0  0
   43.7740   33.7900   40.9310 O   0  0  0  0  0  0  0  0  0  0  0  0
  1  4  1  6  0  0  0
  1  3  1  0  0  0  0
  1  2  1  0  0  0  0
  2  6  1  0  0  0  0
  2  5  1  0  0  0  0
  3  8  1  0  0  0  0
  3  2  1  0  0  0  0
  3  7  1  1  0  0  0
  8  9  1  0  0  0  0
  9 10  2  0  0  0  0
  9 18  1  0  0  0  0
 10 19  1  0  0  0  0
 11 20  1  0  0  0  0
 11 10  1  0  0  0  0
 12 11  2  0  0  0  0
 13 21  1  0  0  0  0
 13 12  1  0  0  0  0
 14 13  2  0  0  0  0
 15 14  1  0  0  0  0
 15 16  2  0  0  0  0
 16 17  1  0  0  0  0
 17 12  1  0  0  0  0
 17  8  2  0  0  0  0
 22 14  1  0  0  0  0
 23 15  1  0  0  0  0
 24 16  1  0  0  0  0
 25 31  1  0  0  0  0
 25 30  1  0  0  0  0
 26 25  2  0  0  0  0
 27 26  1  0  0  0  0
 27 28  2  0  0  0  0
 28 29  1  0  0  0  0
 29 30  2  0  0  0  0
 29  1  1  0  0  0  0
 32 26  1  0  0  0  0
 33 34  1  0  0  0  0
 34 27  1  0  0  0  0
 35 34  2  0  0  0  0
 35 36  1  0  0  0  0
 37 38  1  0  0  0  0
 37 35  1  0  0  0  0
 39 37  2  0  0  0  0
 40 39  1  0  0  0  0
 40 33  2  0  0  0  0
 41 42  1  0  0  0  0
 42 33  1  0  0  0  0
 42 44  2  0  0  0  0
 42 43  2  0  0  0  0
M  END
>  <minimizedAffinity>
-6.22964716

>  <minimizedRMSD>
0.723160863

$$$$
