
     RDKit          3D

 43 47  0  0  0  0  0  0  0  0999 V2000
   47.2609   31.3922   45.1509 C   0  0  0  0  0  0  0  0  0  0  0  0
   46.8707   32.7237   45.1413 C   0  0  0  0  0  0  0  0  0  0  0  0
   46.2414   33.3286   46.2047 C   0  0  0  0  0  0  0  0  0  0  0  0
   45.9706   32.5956   47.3569 C   0  0  0  0  0  0  0  0  0  0  0  0
   45.3860   32.8462   48.5625 N   0  0  0  0  0  0  0  0  0  0  0  0
   45.4154   31.7067   49.2899 C   0  0  0  0  0  0  0  0  0  0  0  0
   46.0158   30.7625   48.5320 N   0  0  0  0  0  0  0  0  0  0  0  0
   46.3647   31.2825   47.3442 C   0  0  0  0  0  0  0  0  0  0  0  0
   46.9960   30.6509   46.2951 C   0  0  0  0  0  0  0  0  0  0  0  0
   46.4752   35.1711   42.4293 C   0  0  0  0  0  0  0  0  0  0  0  0
   47.6556   35.0150   41.7020 C   0  0  0  0  0  0  0  0  0  0  0  0
   48.5818   34.0759   42.1391 C   0  0  0  0  0  0  0  0  0  0  0  0
   48.3052   33.3394   43.2636 N   0  0  0  0  0  0  0  0  0  0  0  0
   47.1414   33.5251   43.9415 C   0  0  0  0  0  0  0  0  0  0  0  0
   46.2233   34.4368   43.5318 N   0  0  0  0  0  0  0  0  0  0  0  0
   47.3720   29.2442   46.3906 C   0  0  0  0  0  0  0  0  0  0  0  0
   48.6595   28.7827   46.5970 C   0  0  0  0  0  0  0  0  0  0  0  0
   48.5485   27.3958   46.6187 C   0  0  0  0  0  0  0  0  0  0  0  0
   47.2193   27.0927   46.4272 C   0  0  0  0  0  0  0  0  0  0  0  0
   46.5679   28.2293   46.2977 O   0  0  0  0  0  0  0  0  0  0  0  0
   47.7584   30.9428   44.2900 H   0  0  0  0  0  0  0  0  0  0  0  0
   45.9299   34.3671   46.2142 H   0  0  0  0  0  0  0  0  0  0  0  0
   45.0235   33.8037   48.7490 H   0  0  0  0  0  0  0  0  0  0  0  0
   45.0071   31.6584   50.2881 H   0  0  0  0  0  0  0  0  0  0  0  0
   45.7757   35.9087   42.0643 H   0  0  0  0  0  0  0  0  0  0  0  0
   47.9098   35.5757   40.8119 H   0  0  0  0  0  0  0  0  0  0  0  0
   49.5254   33.8707   41.6569 H   0  0  0  0  0  0  0  0  0  0  0  0
   49.5353   29.3881   46.7120 H   0  0  0  0  0  0  0  0  0  0  0  0
   49.3706   26.6840   46.7621 H   0  0  0  0  0  0  0  0  0  0  0  0
   49.7103   25.6104   45.5226 H   0  0  0  0  0  0  0  0  0  0  0  0
   48.7278   25.0634   44.7528 S   0  0  0  0  0  0  0  0  0  0  0  0
   49.2297   23.7273   44.2353 O   0  0  0  0  0  0  0  0  0  0  0  0
   48.4300   25.9040   43.5217 O   0  0  0  0  0  0  0  0  0  0  0  0
   47.2472   24.7679   45.6376 C   0  0  0  0  0  0  0  0  0  0  0  0
   46.6305   25.7579   46.3755 C   0  0  0  0  0  0  0  0  0  0  0  0
   45.4630   25.5048   47.0666 C   0  0  0  0  0  0  0  0  0  0  0  0
   44.9638   26.2851   47.6568 H   0  0  0  0  0  0  0  0  0  0  0  0
   44.8549   24.2721   47.0614 C   0  0  0  0  0  0  0  0  0  0  0  0
   43.9408   24.0454   47.5930 H   0  0  0  0  0  0  0  0  0  0  0  0
   45.4776   23.2678   46.3149 C   0  0  0  0  0  0  0  0  0  0  0  0
   46.6381   23.5293   45.6312 C   0  0  0  0  0  0  0  0  0  0  0  0
   45.0702   22.2585   46.2505 H   0  0  0  0  0  0  0  0  0  0  0  0
   47.1018   22.7249   45.0565 H   0  0  0  0  0  0  0  0  0  0  0  0
  1  9  2  0
  2  1  1  0
  2  3  2  0
  3  4  1  0
  4  5  1  0
  5  6  1  0
  7  6  2  0
  8  4  2  0
  8  7  1  0
  9 16  1  0
  9  8  1  0
 10 15  2  0
 11 12  2  0
 11 10  1  0
 12 13  1  0
 13 14  2  0
 14  2  1  0
 15 14  1  0
 16 17  2  0
 17 18  1  0
 19 18  2  0
 20 16  1  0
 20 19  1  0
  1 21  1  0
  3 22  1  0
  5 23  1  0
  6 24  1  0
 10 25  1  0
 11 26  1  0
 12 27  1  0
 17 28  1  0
 18 29  1  0
 30 31  1  0
 31 32  2  0
 31 33  2  0
 31 34  1  0
 34 35  2  0
 35 36  1  0
 36 37  1  0
 36 38  2  0
 38 39  1  0
 38 40  1  0
 40 41  2  0
 41 34  1  0
 40 42  1  0
 41 43  1  0
 19 35  1  0
M  ISO  8  21  14  22  14  23   9  24  14  25  14  26  14  27  14  28  14
M  ISO  4  29  14  30  12  37  15  39  16
M  END
>  <DihAtoms>  (1) 
17,18,34,33

>  <DihDeg>  (1) 
-179.9918164169498

$$$$
