
     RDKit          3D

 43 46  0  0  0  0  0  0  0  0999 V2000
   45.2594   33.4680   41.1675 F   0  0  0  0  0  0  0  0  0  0  0  0
   46.4603   34.1088   41.0859 C   0  0  0  0  0  0  0  0  0  0  0  0
   46.9341   34.8253   42.1358 C   0  0  0  0  0  0  0  0  0  0  0  0
   48.1152   35.5128   41.9240 C   0  0  0  0  0  0  0  0  0  0  0  0
   48.7838   35.4859   40.7157 C   0  0  0  0  0  0  0  0  0  0  0  0
   48.2083   34.7301   39.7306 C   0  0  0  0  0  0  0  0  0  0  0  0
   47.0617   34.0283   39.8714 C   0  0  0  0  0  0  0  0  0  0  0  0
   44.4618   35.9125   44.7846 C   0  0  0  0  0  0  0  0  0  0  0  0
   45.2048   35.8701   43.6043 C   0  0  0  0  0  0  0  0  0  0  0  0
   46.1649   34.8551   43.3687 C   0  0  0  0  0  0  0  0  0  0  0  0
   46.3166   33.9432   44.3386 N   0  0  0  0  0  0  0  0  0  0  0  0
   45.5874   34.0015   45.4733 C   0  0  0  0  0  0  0  0  0  0  0  0
   44.6883   34.9509   45.6971 N   0  0  0  0  0  0  0  0  0  0  0  0
   46.6117   33.2726   38.7292 C   0  0  0  0  0  0  0  0  0  0  0  0
   45.3323   32.7363   38.7452 C   0  0  0  0  0  0  0  0  0  0  0  0
   44.8611   32.1239   37.6087 C   0  0  0  0  0  0  0  0  0  0  0  0
   45.6487   32.0469   36.4755 C   0  0  0  0  0  0  0  0  0  0  0  0
   46.9225   32.6100   36.5524 C   0  0  0  0  0  0  0  0  0  0  0  0
   47.4291   33.2148   37.6396 C   0  0  0  0  0  0  0  0  0  0  0  0
   48.3932   36.0482   42.8542 H   0  0  0  0  0  0  0  0  0  0  0  0
   49.6502   36.0956   40.8223 H   0  0  0  0  0  0  0  0  0  0  0  0
   48.9102   34.9642   38.9803 H   0  0  0  0  0  0  0  0  0  0  0  0
   43.7566   36.6980   44.9049 H   0  0  0  0  0  0  0  0  0  0  0  0
   45.0328   36.6283   42.8720 H   0  0  0  0  0  0  0  0  0  0  0  0
   45.7489   33.2322   46.2360 H   0  0  0  0  0  0  0  0  0  0  0  0
   44.6000   32.7117   39.5122 H   0  0  0  0  0  0  0  0  0  0  0  0
   43.8517   31.6801   37.5648 H   0  0  0  0  0  0  0  0  0  0  0  0
   45.1858   31.5381   35.6030 H   0  0  0  0  0  0  0  0  0  0  0  0
   47.3760   32.4497   35.5740 H   0  0  0  0  0  0  0  0  0  0  0  0
   48.5844   30.4296   37.1603 H   0  0  0  0  0  0  0  0  0  0  0  0
   49.2832   31.1791   36.3102 S   0  0  0  0  0  0  0  0  0  0  0  0
   48.7616   31.1224   34.8746 O   0  0  0  0  0  0  0  0  0  0  0  0
   50.5806   30.4053   36.1567 O   0  0  0  0  0  0  0  0  0  0  0  0
   49.7534   32.7515   36.7726 C   0  0  0  0  0  0  0  0  0  0  0  0
   48.7490   33.5411   37.3232 C   0  0  0  0  0  0  0  0  0  0  0  0
   49.0832   34.8614   37.7228 C   0  0  0  0  0  0  0  0  0  0  0  0
   48.3749   35.5772   38.1694 H   0  0  0  0  0  0  0  0  0  0  0  0
   50.3666   35.4089   37.5931 C   0  0  0  0  0  0  0  0  0  0  0  0
   50.6071   36.4001   37.8962 H   0  0  0  0  0  0  0  0  0  0  0  0
   51.3488   34.5798   37.0339 C   0  0  0  0  0  0  0  0  0  0  0  0
   51.0240   33.2899   36.6426 C   0  0  0  0  0  0  0  0  0  0  0  0
   52.3425   34.9922   36.9299 H   0  0  0  0  0  0  0  0  0  0  0  0
   51.7908   32.6574   36.2115 H   0  0  0  0  0  0  0  0  0  0  0  0
  2  1  1  0
  2  3  2  0
  3 10  1  0
  4  3  1  0
  5  4  2  0
  6  7  2  0
  6  5  1  0
  7  2  1  0
  8 13  2  0
  9  8  1  0
 10  9  2  0
 10 11  1  0
 11 12  2  0
 12 13  1  0
 14 15  2  0
 14  7  1  0
 16 15  1  0
 17 16  2  0
 18 17  1  0
 18 19  2  0
 19 14  1  0
  4 20  1  0
  5 21  1  0
  6 22  1  0
  8 23  1  0
  9 24  1  0
 12 25  1  0
 15 26  1  0
 16 27  1  0
 17 28  1  0
 18 29  1  0
 30 31  1  0
 31 32  2  0
 31 33  2  0
 31 34  1  0
 34 35  2  0
 35 36  1  0
 36 37  1  0
 36 38  2  0
 38 39  1  0
 38 40  1  0
 40 41  2  0
 41 34  1  0
 40 42  1  0
 41 43  1  0
 19 35  1  0
M  ISO  8  20  14  21  14  22  14  23  14  24  14  25  14  26  14  27  14
M  ISO  5  28  14  29  14  30  12  37  15  39  16
M  END
>  <DihAtoms>  (1) 
17,18,34,33

>  <DihDeg>  (1) 
70.72192303903077

$$$$
