
 OpenBabel03252502493D

 48 51  0  0  1  0  0  0  0  0999 V2000
   39.9470   30.4720   42.7450 C   0  0  0  0  0  0  0  0  0  0  0  0
   40.7970   30.9760   43.2940 H   0  0  0  0  0  0  0  0  0  0  0  0
   39.0760   30.6450   43.4190 H   0  0  0  0  0  0  0  0  0  0  0  0
   39.7480   31.0240   41.3820 C   0  0  1  0  0  0  0  0  0  0  0  0
   39.1820   32.4080   41.2360 C   0  0  0  0  0  0  0  0  0  0  0  0
   40.6050   32.1190   40.9610 C   0  0  2  0  0  0  0  0  0  0  0  0
   39.3300   30.3130   40.6690 H   0  0  0  0  0  0  0  0  0  0  0  0
   38.8810   32.8830   42.1950 H   0  0  0  0  0  0  0  0  0  0  0  0
   38.4570   32.6300   40.4210 H   0  0  0  0  0  0  0  0  0  0  0  0
   41.3030   32.6700   41.5710 H   0  0  0  0  0  0  0  0  0  0  0  0
   40.9250   32.0840   39.5290 N   0  0  0  0  0  0  0  0  0  0  0  0
   41.0810   33.3310   38.9170 C   0  0  0  0  0  0  0  0  0  0  0  0
   41.3810   33.0300   37.4580 C   0  0  0  0  0  0  0  0  0  0  0  0
   40.2900   32.3710   36.8100 N   0  0  0  0  0  0  0  0  0  0  0  0
   39.4670   31.5770   37.7030 C   0  0  0  0  0  0  0  0  0  0  0  0
   40.3300   31.0120   38.8250 C   0  0  0  0  0  0  0  0  0  0  0  0
   41.9180   33.8740   39.3630 H   0  0  0  0  0  0  0  0  0  0  0  0
   40.1340   33.9270   38.9440 H   0  0  0  0  0  0  0  0  0  0  0  0
   42.2990   32.3790   37.4560 H   0  0  0  0  0  0  0  0  0  0  0  0
   41.6390   33.9760   36.9570 H   0  0  0  0  0  0  0  0  0  0  0  0
   39.6930   33.0940   36.3590 H   0  0  0  0  0  0  0  0  0  0  0  0
   39.0380   30.7530   37.1030 H   0  0  0  0  0  0  0  0  0  0  0  0
   38.6930   32.2480   38.1170 H   0  0  0  0  0  0  0  0  0  0  0  0
   41.1080   30.3960   38.3550 H   0  0  0  0  0  0  0  0  0  0  0  0
   39.7310   30.3620   39.4660 H   0  0  0  0  0  0  0  0  0  0  0  0
   40.2200   29.0040   42.5950 C   0  0  0  0  0  0  0  0  0  0  0  0
   40.5760   28.8220   41.5350 H   0  0  0  0  0  0  0  0  0  0  0  0
   41.0000   28.5780   43.2080 H   0  0  0  0  0  0  0  0  0  0  0  0
   36.8460   27.7930   43.6780 C   0  0  0  0  0  0  0  0  0  0  0  0
   38.0690   28.4960   43.6720 C   0  0  0  0  0  0  0  0  0  0  0  0
   38.9140   28.2720   42.6320 C   0  0  0  0  0  0  0  0  0  0  0  0
   38.5550   27.4020   41.6650 N   0  0  0  0  0  0  0  0  0  0  0  0
   37.4230   26.7430   41.6590 C   0  0  0  0  0  0  0  0  0  0  0  0
   36.5600   26.9410   42.6780 N   0  0  0  0  0  0  0  0  0  0  0  0
   36.1300   27.9280   44.4800 H   0  0  0  0  0  0  0  0  0  0  0  0
   38.2480   29.1640   44.4950 H   0  0  0  0  0  0  0  0  0  0  0  0
   36.4410   26.1140   39.4250 C   0  0  0  0  0  0  0  0  0  0  0  0
   36.9570   25.7940   40.6550 C   0  0  0  0  0  0  0  0  0  0  0  0
   36.9960   24.4200   40.8730 C   0  0  0  0  0  0  0  0  0  0  0  0
   37.3910   24.0350   41.8270 H   0  0  0  0  0  0  0  0  0  0  0  0
   36.5830   23.4550   40.0040 C   0  0  0  0  0  0  0  0  0  0  0  0
   36.6400   22.4060   40.2320 H   0  0  0  0  0  0  0  0  0  0  0  0
   36.0740   23.8320   38.7850 C   0  0  0  0  0  3  0  0  0  0  0  0
   36.0120   25.1660   38.5190 C   0  0  0  0  0  3  0  0  0  0  0  0
   35.6730   27.9330   37.8000 H   0  0  0  0  0  0  0  0  0  0  0  0
   36.3240   27.7960   38.9810 S   0  0  0  0  0  0  0  0  0  0  0  0
   37.7180   28.3810   38.8860 O   0  0  0  0  0  0  0  0  0  0  0  0
   35.6570   28.5390   40.1210 O   0  0  0  0  0  0  0  0  0  0  0  0
  1  2  1  0  0  0  0
  1  3  1  0  0  0  0
  4  7  1  6  0  0  0
  4  1  1  0  0  0  0
  5  4  1  0  0  0  0
  5  8  1  0  0  0  0
  6  5  1  0  0  0  0
  6  4  1  0  0  0  0
  6 10  1  1  0  0  0
  9  5  1  0  0  0  0
 11  6  1  0  0  0  0
 12 18  1  0  0  0  0
 12 17  1  0  0  0  0
 12 11  1  0  0  0  0
 13 12  1  0  0  0  0
 14 13  1  0  0  0  0
 14 15  1  0  0  0  0
 15 23  1  0  0  0  0
 15 16  1  0  0  0  0
 16 25  1  0  0  0  0
 16 11  1  0  0  0  0
 19 13  1  0  0  0  0
 20 13  1  0  0  0  0
 21 14  1  0  0  0  0
 22 15  1  0  0  0  0
 24 16  1  0  0  0  0
 26 31  1  0  0  0  0
 26  1  1  0  0  0  0
 26 28  1  0  0  0  0
 27 26  1  0  0  0  0
 29 35  1  0  0  0  0
 30 29  1  0  0  0  0
 30 36  1  0  0  0  0
 31 30  2  0  0  0  0
 32 31  1  0  0  0  0
 33 32  2  0  0  0  0
 33 34  1  0  0  0  0
 34 29  2  0  0  0  0
 37 38  1  0  0  0  0
 38 39  2  0  0  0  0
 38 33  1  0  0  0  0
 39 40  1  0  0  0  0
 41 42  1  0  0  0  0
 41 39  1  0  0  0  0
 43 41  2  0  0  0  0
 44 43  1  0  0  0  0
 44 37  2  0  0  0  0
 45 46  1  0  0  0  0
 46 37  1  0  0  0  0
 46 48  2  0  0  0  0
 47 46  2  0  0  0  0
M  END
>  <minimizedAffinity>
-5.65615463

$$$$

 OpenBabel03252502493D

 48 51  0  0  1  0  0  0  0  0999 V2000
   39.2520   28.6020   43.0060 C   0  0  0  0  0  0  0  0  0  0  0  0
   39.7570   27.9330   42.2470 H   0  0  0  0  0  0  0  0  0  0  0  0
   39.8760   28.4610   43.9190 H   0  0  0  0  0  0  0  0  0  0  0  0
   39.1890   30.0160   42.5570 C   0  0  1  0  0  0  0  0  0  0  0  0
   40.4440   30.8420   42.5850 C   0  0  0  0  0  0  0  0  0  0  0  0
   39.8560   30.3650   41.3150 C   0  0  2  0  0  0  0  0  0  0  0  0
   38.3120   30.5580   42.9120 H   0  0  0  0  0  0  0  0  0  0  0  0
   41.3230   30.3250   43.0260 H   0  0  0  0  0  0  0  0  0  0  0  0
   40.3990   31.9120   42.8900 H   0  0  0  0  0  0  0  0  0  0  0  0
   40.5060   29.7370   40.7270 H   0  0  0  0  0  0  0  0  0  0  0  0
   39.1640   31.4180   40.5640 N   0  0  0  0  0  0  0  0  0  0  0  0
   39.1180   32.6700   41.1840 C   0  0  0  0  0  0  0  0  0  0  0  0
   38.3440   33.5650   40.2320 C   0  0  0  0  0  0  0  0  0  0  0  0
   36.9940   33.1250   40.0580 N   0  0  0  0  0  0  0  0  0  0  0  0
   36.8110   31.6980   40.2400 C   0  0  0  0  0  0  0  0  0  0  0  0
   38.0690   30.9610   39.7950 C   0  0  0  0  0  0  0  0  0  0  0  0
   40.1260   33.0640   41.3270 H   0  0  0  0  0  0  0  0  0  0  0  0
   38.5440   32.6350   42.1450 H   0  0  0  0  0  0  0  0  0  0  0  0
   38.9010   33.5370   39.2550 H   0  0  0  0  0  0  0  0  0  0  0  0
   38.3880   34.5970   40.6150 H   0  0  0  0  0  0  0  0  0  0  0  0
   36.3950   33.6290   40.7440 H   0  0  0  0  0  0  0  0  0  0  0  0
   35.9530   31.3970   39.6120 H   0  0  0  0  0  0  0  0  0  0  0  0
   36.6290   31.5260   41.3170 H   0  0  0  0  0  0  0  0  0  0  0  0
   38.2280   31.2050   38.7360 H   0  0  0  0  0  0  0  0  0  0  0  0
   37.9170   29.8820   39.8690 H   0  0  0  0  0  0  0  0  0  0  0  0
   37.8430   28.1490   43.2470 C   0  0  0  0  0  0  0  0  0  0  0  0
   37.8640   27.3580   44.0580 H   0  0  0  0  0  0  0  0  0  0  0  0
   37.1410   28.8820   43.6160 H   0  0  0  0  0  0  0  0  0  0  0  0
   37.0140   25.3230   40.9330 C   0  0  0  0  0  0  0  0  0  0  0  0
   37.4570   26.0220   42.0770 C   0  0  0  0  0  0  0  0  0  0  0  0
   37.3810   27.3770   42.0490 C   0  0  0  0  0  0  0  0  0  0  0  0
   36.8940   27.9900   40.9490 N   0  0  0  0  0  0  0  0  0  0  0  0
   36.4800   27.3530   39.8830 C   0  0  0  0  0  0  0  0  0  0  0  0
   36.5410   26.0050   39.8750 N   0  0  0  0  0  0  0  0  0  0  0  0
   37.0480   24.2410   40.8950 H   0  0  0  0  0  0  0  0  0  0  0  0
   37.8250   25.4280   42.8940 H   0  0  0  0  0  0  0  0  0  0  0  0
   36.6180   28.1100   37.4830 C   0  0  0  0  0  0  0  0  0  0  0  0
   35.9370   27.9340   38.6610 C   0  0  0  0  0  0  0  0  0  0  0  0
   34.6220   28.3840   38.5850 C   0  0  0  0  0  0  0  0  0  0  0  0
   33.9700   28.2980   39.4690 H   0  0  0  0  0  0  0  0  0  0  0  0
   34.0240   28.9430   37.4960 C   0  0  0  0  0  0  0  0  0  0  0  0
   33.0000   29.2710   37.5010 H   0  0  0  0  0  0  0  0  0  0  0  0
   34.7530   29.0940   36.3420 C   0  0  0  0  0  3  0  0  0  0  0  0
   36.0470   28.6710   36.3600 C   0  0  0  0  0  3  0  0  0  0  0  0
   38.6220   26.8950   38.5060 H   0  0  0  0  0  0  0  0  0  0  0  0
   38.2810   27.5950   37.3960 S   0  0  0  0  0  0  0  0  0  0  0  0
   39.1710   28.8120   37.2470 O   0  0  0  0  0  0  0  0  0  0  0  0
   38.4650   26.8080   36.1140 O   0  0  0  0  0  0  0  0  0  0  0  0
  1 26  1  0  0  0  0
  1  3  1  0  0  0  0
  2  1  1  0  0  0  0
  4  5  1  0  0  0  0
  4  7  1  1  0  0  0
  4  1  1  0  0  0  0
  5  9  1  0  0  0  0
  5  8  1  0  0  0  0
  6 10  1  6  0  0  0
  6  4  1  0  0  0  0
  6  5  1  0  0  0  0
 11 12  1  0  0  0  0
 11  6  1  0  0  0  0
 12 17  1  0  0  0  0
 12 18  1  0  0  0  0
 13 20  1  0  0  0  0
 13 12  1  0  0  0  0
 14 13  1  0  0  0  0
 14 15  1  0  0  0  0
 14 21  1  0  0  0  0
 15 23  1  0  0  0  0
 16 25  1  0  0  0  0
 16 15  1  0  0  0  0
 16 11  1  0  0  0  0
 19 13  1  0  0  0  0
 22 15  1  0  0  0  0
 24 16  1  0  0  0  0
 26 28  1  0  0  0  0
 26 27  1  0  0  0  0
 29 30  1  0  0  0  0
 30 36  1  0  0  0  0
 31 30  2  0  0  0  0
 31 26  1  0  0  0  0
 32 31  1  0  0  0  0
 33 32  2  0  0  0  0
 34 33  1  0  0  0  0
 34 29  2  0  0  0  0
 35 29  1  0  0  0  0
 37 38  1  0  0  0  0
 38 33  1  0  0  0  0
 39 38  2  0  0  0  0
 39 40  1  0  0  0  0
 41 42  1  0  0  0  0
 41 39  1  0  0  0  0
 43 44  1  0  0  0  0
 43 41  2  0  0  0  0
 44 37  2  0  0  0  0
 46 37  1  0  0  0  0
 46 45  1  0  0  0  0
 47 46  2  0  0  0  0
 48 46  2  0  0  0  0
M  END
>  <minimizedAffinity>
-5.64286327

$$$$

 OpenBabel03252502493D

 48 51  0  0  1  0  0  0  0  0999 V2000
   35.8340   26.7300   38.2480 C   0  0  0  0  0  0  0  0  0  0  0  0
   36.5750   26.6990   37.3940 H   0  0  0  0  0  0  0  0  0  0  0  0
   35.1110   25.9250   37.9820 H   0  0  0  0  0  0  0  0  0  0  0  0
   36.4830   26.5190   39.5670 C   0  0  1  0  0  0  0  0  0  0  0  0
   37.7680   25.7410   39.6250 C   0  0  0  0  0  0  0  0  0  0  0  0
   37.7370   27.2060   39.8240 C   0  0  2  0  0  0  0  0  0  0  0  0
   35.7910   26.2640   40.3690 H   0  0  0  0  0  0  0  0  0  0  0  0
   38.0890   25.3140   38.6510 H   0  0  0  0  0  0  0  0  0  0  0  0
   37.9530   25.0360   40.4660 H   0  0  0  0  0  0  0  0  0  0  0  0
   38.3280   27.7680   39.1180 H   0  0  0  0  0  0  0  0  0  0  0  0
   37.8990   27.6050   41.2270 N   0  0  0  0  0  0  0  0  0  0  0  0
   36.9010   27.1600   42.0990 C   0  0  0  0  0  0  0  0  0  0  0  0
   37.2800   27.7130   43.4620 C   0  0  0  0  0  0  0  0  0  0  0  0
   37.2620   29.1420   43.4870 N   0  0  0  0  0  0  0  0  0  0  0  0
   37.5340   29.7570   42.2010 C   0  0  0  0  0  0  0  0  0  0  0  0
   38.4900   28.8770   41.4060 C   0  0  0  0  0  0  0  0  0  0  0  0
   36.8810   26.0690   42.1330 H   0  0  0  0  0  0  0  0  0  0  0  0
   35.9010   27.5880   41.8350 H   0  0  0  0  0  0  0  0  0  0  0  0
   38.3120   27.3230   43.6810 H   0  0  0  0  0  0  0  0  0  0  0  0
   36.5930   27.2860   44.2100 H   0  0  0  0  0  0  0  0  0  0  0  0
   36.3240   29.4520   43.8130 H   0  0  0  0  0  0  0  0  0  0  0  0
   38.0010   30.7390   42.4020 H   0  0  0  0  0  0  0  0  0  0  0  0
   36.5690   29.8480   41.6710 H   0  0  0  0  0  0  0  0  0  0  0  0
   39.4100   28.7810   41.9990 H   0  0  0  0  0  0  0  0  0  0  0  0
   38.7500   29.3620   40.4630 H   0  0  0  0  0  0  0  0  0  0  0  0
   35.1510   28.0650   38.2990 C   0  0  0  0  0  0  0  0  0  0  0  0
   34.6580   28.1670   39.3130 H   0  0  0  0  0  0  0  0  0  0  0  0
   35.7720   28.9440   38.2200 H   0  0  0  0  0  0  0  0  0  0  0  0
   32.4850   26.8430   35.9690 C   0  0  0  0  0  0  0  0  0  0  0  0
   33.5940   26.8410   36.8420 C   0  0  0  0  0  0  0  0  0  0  0  0
   33.9780   28.0330   37.3670 C   0  0  0  0  0  0  0  0  0  0  0  0
   33.2960   29.1500   37.0380 N   0  0  0  0  0  0  0  0  0  0  0  0
   32.2670   29.1650   36.2300 C   0  0  0  0  0  0  0  0  0  0  0  0
   31.8570   27.9980   35.6880 N   0  0  0  0  0  0  0  0  0  0  0  0
   32.1300   25.9240   35.5180 H   0  0  0  0  0  0  0  0  0  0  0  0
   34.0590   25.8900   37.0320 H   0  0  0  0  0  0  0  0  0  0  0  0
   30.4230   30.8580   36.5290 C   0  0  0  0  0  0  0  0  0  0  0  0
   31.4740   30.3220   35.8280 C   0  0  0  0  0  0  0  0  0  0  0  0
   31.7260   31.0070   34.6440 C   0  0  0  0  0  0  0  0  0  0  0  0
   32.5480   30.6720   33.9900 H   0  0  0  0  0  0  0  0  0  0  0  0
   31.0440   32.0910   34.1800 C   0  0  0  0  0  0  0  0  0  0  0  0
   31.2890   32.5780   33.2530 H   0  0  0  0  0  0  0  0  0  0  0  0
   30.0000   32.5870   34.9230 C   0  0  0  0  0  3  0  0  0  0  0  0
   29.7090   31.9540   36.0920 C   0  0  0  0  0  3  0  0  0  0  0  0
   31.0730   29.7410   38.7350 H   0  0  0  0  0  0  0  0  0  0  0  0
   29.9720   30.1260   38.0460 S   0  0  0  0  0  0  0  0  0  0  0  0
   29.0760   28.9350   37.7750 O   0  0  0  0  0  0  0  0  0  0  0  0
   29.1060   31.1110   38.8050 O   0  0  0  0  0  0  0  0  0  0  0  0
  1 26  1  0  0  0  0
  1  4  1  0  0  0  0
  2  1  1  0  0  0  0
  3  1  1  0  0  0  0
  4  5  1  0  0  0  0
  4  6  1  0  0  0  0
  4  7  1  1  0  0  0
  5  6  1  0  0  0  0
  5  9  1  0  0  0  0
  6 10  1  6  0  0  0
  6 11  1  0  0  0  0
  8  5  1  0  0  0  0
 11 16  1  0  0  0  0
 11 12  1  0  0  0  0
 12 17  1  0  0  0  0
 12 13  1  0  0  0  0
 13 14  1  0  0  0  0
 13 19  1  0  0  0  0
 13 20  1  0  0  0  0
 14 21  1  0  0  0  0
 15 22  1  0  0  0  0
 15 14  1  0  0  0  0
 16 24  1  0  0  0  0
 16 15  1  0  0  0  0
 18 12  1  0  0  0  0
 23 15  1  0  0  0  0
 25 16  1  0  0  0  0
 26 27  1  0  0  0  0
 28 26  1  0  0  0  0
 29 30  1  0  0  0  0
 30 36  1  0  0  0  0
 30 31  2  0  0  0  0
 31 26  1  0  0  0  0
 32 31  1  0  0  0  0
 33 32  2  0  0  0  0
 34 29  2  0  0  0  0
 34 33  1  0  0  0  0
 35 29  1  0  0  0  0
 37 46  1  0  0  0  0
 38 33  1  0  0  0  0
 38 37  2  0  0  0  0
 39 38  1  0  0  0  0
 40 39  1  0  0  0  0
 41 39  2  0  0  0  0
 41 43  1  0  0  0  0
 42 41  1  0  0  0  0
 43 44  2  0  0  0  0
 44 37  1  0  0  0  0
 46 45  1  0  0  0  0
 46 48  2  0  0  0  0
 47 46  2  0  0  0  0
M  END
>  <minimizedAffinity>
-5.56468391

$$$$

 OpenBabel03252502493D

 48 51  0  0  1  0  0  0  0  0999 V2000
   40.1890   30.4480   42.7350 C   0  0  0  0  0  0  0  0  0  0  0  0
   41.1360   30.8900   43.1670 H   0  0  0  0  0  0  0  0  0  0  0  0
   39.4200   30.7110   43.4990 H   0  0  0  0  0  0  0  0  0  0  0  0
   39.8790   30.9850   41.3860 C   0  0  1  0  0  0  0  0  0  0  0  0
   39.3880   32.4000   41.2650 C   0  0  0  0  0  0  0  0  0  0  0  0
   40.7520   32.0130   40.8470 C   0  0  2  0  0  0  0  0  0  0  0  0
   39.3420   30.2890   40.7420 H   0  0  0  0  0  0  0  0  0  0  0  0
   39.2230   32.9120   42.2370 H   0  0  0  0  0  0  0  0  0  0  0  0
   38.5940   32.6520   40.5270 H   0  0  0  0  0  0  0  0  0  0  0  0
   41.5450   32.5300   41.3640 H   0  0  0  0  0  0  0  0  0  0  0  0
   40.9110   31.9290   39.3910 N   0  0  0  0  0  0  0  0  0  0  0  0
   41.2210   33.1310   38.7490 C   0  0  0  0  0  0  0  0  0  0  0  0
   41.3120   32.7890   37.2710 C   0  0  0  0  0  0  0  0  0  0  0  0
   40.0610   32.3350   36.7470 N   0  0  0  0  0  0  0  0  0  0  0  0
   39.2080   31.6940   37.7300 C   0  0  0  0  0  0  0  0  0  0  0  0
   40.0690   30.9810   38.7660 C   0  0  0  0  0  0  0  0  0  0  0  0
   42.1800   33.5170   39.1000 H   0  0  0  0  0  0  0  0  0  0  0  0
   40.4000   33.8850   38.8640 H   0  0  0  0  0  0  0  0  0  0  0  0
   42.0950   31.9860   37.1850 H   0  0  0  0  0  0  0  0  0  0  0  0
   41.6780   33.6770   36.7340 H   0  0  0  0  0  0  0  0  0  0  0  0
   39.5570   33.1530   36.3490 H   0  0  0  0  0  0  0  0  0  0  0  0
   38.5810   30.9610   37.1890 H   0  0  0  0  0  0  0  0  0  0  0  0
   38.6100   32.4890   38.2120 H   0  0  0  0  0  0  0  0  0  0  0  0
   40.6740   30.2400   38.2280 H   0  0  0  0  0  0  0  0  0  0  0  0
   39.4340   30.4430   39.4740 H   0  0  0  0  0  0  0  0  0  0  0  0
   40.3210   28.9590   42.6020 C   0  0  0  0  0  0  0  0  0  0  0  0
   40.7540   28.7380   41.5790 H   0  0  0  0  0  0  0  0  0  0  0  0
   40.9900   28.4570   43.2840 H   0  0  0  0  0  0  0  0  0  0  0  0
   36.8450   27.8720   43.4770 C   0  0  0  0  0  0  0  0  0  0  0  0
   38.1330   28.4370   43.5940 C   0  0  0  0  0  0  0  0  0  0  0  0
   38.9470   28.3680   42.5100 C   0  0  0  0  0  0  0  0  0  0  0  0
   38.5000   27.7740   41.3840 N   0  0  0  0  0  0  0  0  0  0  0  0
   37.3080   27.2460   41.2620 C   0  0  0  0  0  0  0  0  0  0  0  0
   36.4710   27.2950   42.3200 N   0  0  0  0  0  0  0  0  0  0  0  0
   36.1490   27.8950   44.3060 H   0  0  0  0  0  0  0  0  0  0  0  0
   38.3800   28.8840   44.5400 H   0  0  0  0  0  0  0  0  0  0  0  0
   36.8040   25.2510   39.8060 C   0  0  0  0  0  0  0  0  0  0  0  0
   36.7450   26.5940   40.0850 C   0  0  0  0  0  0  0  0  0  0  0  0
   36.0740   27.3110   39.1000 C   0  0  0  0  0  0  0  0  0  0  0  0
   35.9600   28.4030   39.2100 H   0  0  0  0  0  0  0  0  0  0  0  0
   35.5180   26.7980   37.9670 C   0  0  0  0  0  0  0  0  0  0  0  0
   35.0100   27.4090   37.2420 H   0  0  0  0  0  0  0  0  0  0  0  0
   35.6060   25.4470   37.7380 C   0  0  0  0  0  3  0  0  0  0  0  0
   36.2540   24.6950   38.6700 C   0  0  0  0  0  3  0  0  0  0  0  0
   37.5150   22.9070   40.5360 H   0  0  0  0  0  0  0  0  0  0  0  0
   37.6050   24.1980   40.9400 S   0  0  0  0  0  0  0  0  0  0  0  0
   36.9750   24.3680   42.3070 O   0  0  0  0  0  0  0  0  0  0  0  0
   39.0350   24.6750   41.0980 O   0  0  0  0  0  0  0  0  0  0  0  0
  1  2  1  0  0  0  0
  1  3  1  0  0  0  0
  4  7  1  6  0  0  0
  4  1  1  0  0  0  0
  5  4  1  0  0  0  0
  5  8  1  0  0  0  0
  6  5  1  0  0  0  0
  6 10  1  1  0  0  0
  6  4  1  0  0  0  0
  9  5  1  0  0  0  0
 11  6  1  0  0  0  0
 12 18  1  0  0  0  0
 12 17  1  0  0  0  0
 12 11  1  0  0  0  0
 13 12  1  0  0  0  0
 14 13  1  0  0  0  0
 14 15  1  0  0  0  0
 15 23  1  0  0  0  0
 15 16  1  0  0  0  0
 16 11  1  0  0  0  0
 16 25  1  0  0  0  0
 19 13  1  0  0  0  0
 20 13  1  0  0  0  0
 21 14  1  0  0  0  0
 22 15  1  0  0  0  0
 24 16  1  0  0  0  0
 26  1  1  0  0  0  0
 26 28  1  0  0  0  0
 27 26  1  0  0  0  0
 29 30  1  0  0  0  0
 29 35  1  0  0  0  0
 30 36  1  0  0  0  0
 31 26  1  0  0  0  0
 31 30  2  0  0  0  0
 32 31  1  0  0  0  0
 33 32  2  0  0  0  0
 33 34  1  0  0  0  0
 34 29  2  0  0  0  0
 37 38  1  0  0  0  0
 37 46  1  0  0  0  0
 38 33  1  0  0  0  0
 39 40  1  0  0  0  0
 39 38  2  0  0  0  0
 41 39  1  0  0  0  0
 42 41  1  0  0  0  0
 43 41  2  0  0  0  0
 43 44  1  0  0  0  0
 44 37  2  0  0  0  0
 45 46  1  0  0  0  0
 46 48  2  0  0  0  0
 46 47  2  0  0  0  0
M  END
>  <minimizedAffinity>
-5.5408349

$$$$

 OpenBabel03252502493D

 48 51  0  0  1  0  0  0  0  0999 V2000
   36.3590   26.3760   38.3410 C   0  0  0  0  0  0  0  0  0  0  0  0
   37.3120   26.5930   37.7710 H   0  0  0  0  0  0  0  0  0  0  0  0
   36.0570   25.3770   37.9510 H   0  0  0  0  0  0  0  0  0  0  0  0
   36.5650   26.3910   39.8110 C   0  0  1  0  0  0  0  0  0  0  0  0
   37.2650   25.2280   40.4560 C   0  0  0  0  0  0  0  0  0  0  0  0
   37.9220   26.5440   40.3060 C   0  0  2  0  0  0  0  0  0  0  0  0
   35.7020   26.7400   40.3780 H   0  0  0  0  0  0  0  0  0  0  0  0
   37.5080   24.3960   39.7610 H   0  0  0  0  0  0  0  0  0  0  0  0
   36.9210   24.8500   41.4450 H   0  0  0  0  0  0  0  0  0  0  0  0
   38.8310   26.5290   39.7260 H   0  0  0  0  0  0  0  0  0  0  0  0
   37.9970   27.3020   41.5590 N   0  0  0  0  0  0  0  0  0  0  0  0
   37.0020   27.0140   42.4990 C   0  0  0  0  0  0  0  0  0  0  0  0
   37.2830   27.9280   43.6790 C   0  0  0  0  0  0  0  0  0  0  0  0
   37.1530   29.3090   43.3310 N   0  0  0  0  0  0  0  0  0  0  0  0
   37.4270   29.5940   41.9350 C   0  0  0  0  0  0  0  0  0  0  0  0
   38.4800   28.6230   41.4140 C   0  0  0  0  0  0  0  0  0  0  0  0
   37.0660   25.9700   42.8150 H   0  0  0  0  0  0  0  0  0  0  0  0
   35.9830   27.2720   42.1150 H   0  0  0  0  0  0  0  0  0  0  0  0
   38.3330   27.6970   44.0100 H   0  0  0  0  0  0  0  0  0  0  0  0
   36.6030   27.6510   44.4990 H   0  0  0  0  0  0  0  0  0  0  0  0
   36.1820   29.6110   43.5500 H   0  0  0  0  0  0  0  0  0  0  0  0
   37.8080   30.6300   41.8830 H   0  0  0  0  0  0  0  0  0  0  0  0
   36.4790   29.4630   41.3830 H   0  0  0  0  0  0  0  0  0  0  0  0
   39.3800   28.7620   42.0270 H   0  0  0  0  0  0  0  0  0  0  0  0
   38.7380   28.8700   40.3820 H   0  0  0  0  0  0  0  0  0  0  0  0
   35.3170   27.4090   38.0270 C   0  0  0  0  0  0  0  0  0  0  0  0
   34.7190   27.0430   37.1380 H   0  0  0  0  0  0  0  0  0  0  0  0
   34.5700   27.6060   38.7810 H   0  0  0  0  0  0  0  0  0  0  0  0
   36.6900   29.9610   35.6540 C   0  0  0  0  0  0  0  0  0  0  0  0
   36.0380   28.8060   36.1370 C   0  0  0  0  0  0  0  0  0  0  0  0
   36.0030   28.6240   37.4820 C   0  0  0  0  0  0  0  0  0  0  0  0
   36.5830   29.5380   38.2880 N   0  0  0  0  0  0  0  0  0  0  0  0
   37.1910   30.6130   37.8530 C   0  0  0  0  0  0  0  0  0  0  0  0
   37.2450   30.8260   36.5210 N   0  0  0  0  0  0  0  0  0  0  0  0
   36.7510   30.1630   34.5920 H   0  0  0  0  0  0  0  0  0  0  0  0
   35.6120   28.1480   35.4010 H   0  0  0  0  0  0  0  0  0  0  0  0
   39.1530   31.6660   39.0340 C   0  0  0  0  0  0  0  0  0  0  0  0
   37.8350   31.6500   38.6520 C   0  0  0  0  0  0  0  0  0  0  0  0
   37.1350   32.7590   39.1160 C   0  0  0  0  0  0  0  0  0  0  0  0
   36.0640   32.8610   38.8750 H   0  0  0  0  0  0  0  0  0  0  0  0
   37.6420   33.7750   39.8680 C   0  0  0  0  0  0  0  0  0  0  0  0
   37.0450   34.6070   40.1970 H   0  0  0  0  0  0  0  0  0  0  0  0
   38.9680   33.7400   40.2230 C   0  0  0  0  0  3  0  0  0  0  0  0
   39.7030   32.6770   39.7950 C   0  0  0  0  0  3  0  0  0  0  0  0
   39.4610   29.2210   38.3520 H   0  0  0  0  0  0  0  0  0  0  0  0
   40.1840   30.3530   38.5330 S   0  0  0  0  0  0  0  0  0  0  0  0
   41.2540   30.1330   39.5820 O   0  0  0  0  0  0  0  0  0  0  0  0
   40.9310   30.7900   37.2880 O   0  0  0  0  0  0  0  0  0  0  0  0
  1  4  1  0  0  0  0
  2  1  1  0  0  0  0
  3  1  1  0  0  0  0
  4  6  1  0  0  0  0
  4  7  1  1  0  0  0
  4  5  1  0  0  0  0
  5  9  1  0  0  0  0
  6 10  1  6  0  0  0
  6  5  1  0  0  0  0
  6 11  1  0  0  0  0
  8  5  1  0  0  0  0
 11 12  1  0  0  0  0
 12 17  1  0  0  0  0
 12 13  1  0  0  0  0
 13 19  1  0  0  0  0
 13 20  1  0  0  0  0
 14 21  1  0  0  0  0
 14 13  1  0  0  0  0
 15 14  1  0  0  0  0
 16 11  1  0  0  0  0
 16 15  1  0  0  0  0
 16 24  1  0  0  0  0
 18 12  1  0  0  0  0
 22 15  1  0  0  0  0
 23 15  1  0  0  0  0
 25 16  1  0  0  0  0
 26  1  1  0  0  0  0
 26 28  1  0  0  0  0
 27 26  1  0  0  0  0
 29 30  2  0  0  0  0
 29 34  1  0  0  0  0
 30 31  1  0  0  0  0
 31 26  1  0  0  0  0
 31 32  2  0  0  0  0
 33 32  1  0  0  0  0
 33 38  1  0  0  0  0
 34 33  2  0  0  0  0
 35 29  1  0  0  0  0
 36 30  1  0  0  0  0
 37 44  1  0  0  0  0
 38 37  2  0  0  0  0
 38 39  1  0  0  0  0
 39 41  2  0  0  0  0
 40 39  1  0  0  0  0
 41 42  1  0  0  0  0
 41 43  1  0  0  0  0
 44 43  2  0  0  0  0
 45 46  1  0  0  0  0
 46 37  1  0  0  0  0
 46 47  2  0  0  0  0
 48 46  2  0  0  0  0
M  END
>  <minimizedAffinity>
-5.50409746

$$$$

 OpenBabel03252502493D

 48 51  0  0  1  0  0  0  0  0999 V2000
   41.5510   29.2860   40.7650 C   0  0  0  0  0  0  0  0  0  0  0  0
   41.0980   28.4550   40.1470 H   0  0  0  0  0  0  0  0  0  0  0  0
   42.6460   29.1060   40.6610 H   0  0  0  0  0  0  0  0  0  0  0  0
   41.1350   30.6310   40.2930 C   0  0  1  0  0  0  0  0  0  0  0  0
   41.6060   31.1050   38.9480 C   0  0  0  0  0  0  0  0  0  0  0  0
   40.2030   30.7030   39.1810 C   0  0  2  0  0  0  0  0  0  0  0  0
   41.1770   31.4050   41.0590 H   0  0  0  0  0  0  0  0  0  0  0  0
   42.3120   30.4130   38.4390 H   0  0  0  0  0  0  0  0  0  0  0  0
   41.8980   32.1690   38.8030 H   0  0  0  0  0  0  0  0  0  0  0  0
   39.8610   29.8850   38.5650 H   0  0  0  0  0  0  0  0  0  0  0  0
   39.2800   31.8390   39.2730 N   0  0  0  0  0  0  0  0  0  0  0  0
   39.4200   32.6380   40.4120 C   0  0  0  0  0  0  0  0  0  0  0  0
   38.3560   33.7150   40.2840 C   0  0  0  0  0  0  0  0  0  0  0  0
   37.0340   33.1690   40.3050 N   0  0  0  0  0  0  0  0  0  0  0  0
   36.9490   31.8100   39.8060 C   0  0  0  0  0  0  0  0  0  0  0  0
   38.0010   31.5970   38.7230 C   0  0  0  0  0  0  0  0  0  0  0  0
   40.4110   33.0970   40.4390 H   0  0  0  0  0  0  0  0  0  0  0  0
   39.1990   32.0650   41.3480 H   0  0  0  0  0  0  0  0  0  0  0  0
   38.5570   34.2370   39.3070 H   0  0  0  0  0  0  0  0  0  0  0  0
   38.5060   34.4460   41.0930 H   0  0  0  0  0  0  0  0  0  0  0  0
   36.6880   33.1870   41.2860 H   0  0  0  0  0  0  0  0  0  0  0  0
   35.9370   31.6810   39.3810 H   0  0  0  0  0  0  0  0  0  0  0  0
   37.1390   31.1350   40.6600 H   0  0  0  0  0  0  0  0  0  0  0  0
   37.7930   32.3230   37.9250 H   0  0  0  0  0  0  0  0  0  0  0  0
   37.9030   30.5960   38.2970 H   0  0  0  0  0  0  0  0  0  0  0  0
   41.1240   29.1660   42.1980 C   0  0  0  0  0  0  0  0  0  0  0  0
   41.6040   28.2350   42.6280 H   0  0  0  0  0  0  0  0  0  0  0  0
   41.4260   29.9520   42.8740 H   0  0  0  0  0  0  0  0  0  0  0  0
   37.4550   29.2860   42.9410 C   0  0  0  0  0  0  0  0  0  0  0  0
   38.8230   29.6310   42.9300 C   0  0  0  0  0  0  0  0  0  0  0  0
   39.6650   28.8270   42.2310 C   0  0  0  0  0  0  0  0  0  0  0  0
   39.1680   27.7500   41.5870 N   0  0  0  0  0  0  0  0  0  0  0  0
   37.9010   27.4190   41.5900 C   0  0  0  0  0  0  0  0  0  0  0  0
   37.0350   28.1960   42.2750 N   0  0  0  0  0  0  0  0  0  0  0  0
   36.7340   29.8880   43.4810 H   0  0  0  0  0  0  0  0  0  0  0  0
   39.1050   30.5120   43.4780 H   0  0  0  0  0  0  0  0  0  0  0  0
   36.7780   26.2780   39.6430 C   0  0  0  0  0  0  0  0  0  0  0  0
   37.2820   26.2810   40.9190 C   0  0  0  0  0  0  0  0  0  0  0  0
   37.1410   25.0480   41.5480 C   0  0  0  0  0  0  0  0  0  0  0  0
   37.5080   24.9230   42.5800 H   0  0  0  0  0  0  0  0  0  0  0  0
   36.5770   23.9300   41.0120 C   0  0  0  0  0  0  0  0  0  0  0  0
   36.4980   23.0040   41.5520 H   0  0  0  0  0  0  0  0  0  0  0  0
   36.0890   23.9830   39.7290 C   0  0  0  0  0  3  0  0  0  0  0  0
   36.2000   25.1670   39.0660 C   0  0  0  0  0  3  0  0  0  0  0  0
   38.0250   28.4090   38.9780 H   0  0  0  0  0  0  0  0  0  0  0  0
   36.8770   27.7430   38.7030 S   0  0  0  0  0  0  0  0  0  0  0  0
   35.6760   28.6130   39.0120 O   0  0  0  0  0  0  0  0  0  0  0  0
   36.7350   27.3740   37.2400 O   0  0  0  0  0  0  0  0  0  0  0  0
  1 26  1  0  0  0  0
  2  1  1  0  0  0  0
  3  1  1  0  0  0  0
  4  1  1  0  0  0  0
  4  7  1  1  0  0  0
  5  6  1  0  0  0  0
  5  4  1  0  0  0  0
  6 10  1  6  0  0  0
  6 11  1  0  0  0  0
  6  4  1  0  0  0  0
  8  5  1  0  0  0  0
  9  5  1  0  0  0  0
 11 12  1  0  0  0  0
 12 17  1  0  0  0  0
 12 18  1  0  0  0  0
 13 14  1  0  0  0  0
 13 12  1  0  0  0  0
 13 20  1  0  0  0  0
 14 21  1  0  0  0  0
 15 14  1  0  0  0  0
 15 23  1  0  0  0  0
 16 11  1  0  0  0  0
 16 15  1  0  0  0  0
 19 13  1  0  0  0  0
 22 15  1  0  0  0  0
 24 16  1  0  0  0  0
 25 16  1  0  0  0  0
 26 31  1  0  0  0  0
 26 27  1  0  0  0  0
 26 28  1  0  0  0  0
 29 35  1  0  0  0  0
 30 29  1  0  0  0  0
 30 36  1  0  0  0  0
 31 30  2  0  0  0  0
 32 33  2  0  0  0  0
 32 31  1  0  0  0  0
 33 34  1  0  0  0  0
 34 29  2  0  0  0  0
 37 38  1  0  0  0  0
 38 39  2  0  0  0  0
 38 33  1  0  0  0  0
 39 40  1  0  0  0  0
 41 39  1  0  0  0  0
 41 42  1  0  0  0  0
 43 41  2  0  0  0  0
 44 37  2  0  0  0  0
 44 43  1  0  0  0  0
 46 45  1  0  0  0  0
 46 47  2  0  0  0  0
 46 37  1  0  0  0  0
 48 46  2  0  0  0  0
M  END
>  <minimizedAffinity>
-5.32216263

$$$$

 OpenBabel03252502493D

 48 51  0  0  1  0  0  0  0  0999 V2000
   36.2040   29.9300   37.7950 C   0  0  0  0  0  0  0  0  0  0  0  0
   35.2030   30.4570   37.7700 H   0  0  0  0  0  0  0  0  0  0  0  0
   36.8160   30.5240   37.0770 H   0  0  0  0  0  0  0  0  0  0  0  0
   36.7850   29.8860   39.1600 C   0  0  1  0  0  0  0  0  0  0  0  0
   36.5560   31.0500   40.0830 C   0  0  0  0  0  0  0  0  0  0  0  0
   35.8730   29.7540   40.2830 C   0  0  2  0  0  0  0  0  0  0  0  0
   37.8050   29.5040   39.1980 H   0  0  0  0  0  0  0  0  0  0  0  0
   36.0160   31.9030   39.6190 H   0  0  0  0  0  0  0  0  0  0  0  0
   37.3720   31.3960   40.7560 H   0  0  0  0  0  0  0  0  0  0  0  0
   34.7960   29.8040   40.2550 H   0  0  0  0  0  0  0  0  0  0  0  0
   36.4310   28.9680   41.3890 N   0  0  0  0  0  0  0  0  0  0  0  0
   37.3240   29.6490   42.2220 C   0  0  0  0  0  0  0  0  0  0  0  0
   37.7670   28.6310   43.2590 C   0  0  0  0  0  0  0  0  0  0  0  0
   38.4810   27.5410   42.6690 N   0  0  0  0  0  0  0  0  0  0  0  0
   38.1070   27.2660   41.2950 C   0  0  0  0  0  0  0  0  0  0  0  0
   36.6340   27.6020   41.0890 C   0  0  0  0  0  0  0  0  0  0  0  0
   36.8240   30.4870   42.7150 H   0  0  0  0  0  0  0  0  0  0  0  0
   38.2390   29.9770   41.6670 H   0  0  0  0  0  0  0  0  0  0  0  0
   36.8280   28.2680   43.7610 H   0  0  0  0  0  0  0  0  0  0  0  0
   38.3750   29.1520   44.0150 H   0  0  0  0  0  0  0  0  0  0  0  0
   39.4970   27.7600   42.7010 H   0  0  0  0  0  0  0  0  0  0  0  0
   38.2770   26.1870   41.1210 H   0  0  0  0  0  0  0  0  0  0  0  0
   38.7380   27.9040   40.6500 H   0  0  0  0  0  0  0  0  0  0  0  0
   36.0600   26.9760   41.7860 H   0  0  0  0  0  0  0  0  0  0  0  0
   36.3280   27.3390   40.0750 H   0  0  0  0  0  0  0  0  0  0  0  0
   36.0590   28.5120   37.3280 C   0  0  0  0  0  0  0  0  0  0  0  0
   36.6310   28.4040   36.3560 H   0  0  0  0  0  0  0  0  0  0  0  0
   36.4670   27.7370   37.9590 H   0  0  0  0  0  0  0  0  0  0  0  0
   32.9750   26.9690   35.8650 C   0  0  0  0  0  0  0  0  0  0  0  0
   34.3200   27.1420   36.2580 C   0  0  0  0  0  0  0  0  0  0  0  0
   34.6400   28.2970   36.8970 C   0  0  0  0  0  0  0  0  0  0  0  0
   33.6770   29.2150   37.1260 N   0  0  0  0  0  0  0  0  0  0  0  0
   32.4270   29.0660   36.7670 C   0  0  0  0  0  0  0  0  0  0  0  0
   32.0730   27.9310   36.1290 N   0  0  0  0  0  0  0  0  0  0  0  0
   32.6570   26.0700   35.3520 H   0  0  0  0  0  0  0  0  0  0  0  0
   34.9990   26.3440   36.0220 H   0  0  0  0  0  0  0  0  0  0  0  0
   30.8970   30.9500   36.0890 C   0  0  0  0  0  0  0  0  0  0  0  0
   31.3280   30.0010   36.9810 C   0  0  0  0  0  0  0  0  0  0  0  0
   30.5940   30.0100   38.1620 C   0  0  0  0  0  0  0  0  0  0  0  0
   30.8450   29.2920   38.9600 H   0  0  0  0  0  0  0  0  0  0  0  0
   29.5560   30.8410   38.4590 C   0  0  0  0  0  0  0  0  0  0  0  0
   29.0270   30.7980   39.3940 H   0  0  0  0  0  0  0  0  0  0  0  0
   29.1650   31.7730   37.5290 C   0  0  0  0  0  3  0  0  0  0  0  0
   29.8500   31.8090   36.3530 C   0  0  0  0  0  3  0  0  0  0  0  0
   33.0050   30.7210   34.6610 H   0  0  0  0  0  0  0  0  0  0  0  0
   31.7020   31.0750   34.5480 S   0  0  0  0  0  0  0  0  0  0  0  0
   31.5840   32.4970   34.0400 O   0  0  0  0  0  0  0  0  0  0  0  0
   30.9380   30.2310   33.5470 O   0  0  0  0  0  0  0  0  0  0  0  0
  1  4  1  0  0  0  0
  2  1  1  0  0  0  0
  3  1  1  0  0  0  0
  4  7  1  1  0  0  0
  4  5  1  0  0  0  0
  4  6  1  0  0  0  0
  5  6  1  0  0  0  0
  5  9  1  0  0  0  0
  6 10  1  6  0  0  0
  6 11  1  0  0  0  0
  8  5  1  0  0  0  0
 11 12  1  0  0  0  0
 12 17  1  0  0  0  0
 12 13  1  0  0  0  0
 13 19  1  0  0  0  0
 13 20  1  0  0  0  0
 14 21  1  0  0  0  0
 14 13  1  0  0  0  0
 15 14  1  0  0  0  0
 16 15  1  0  0  0  0
 16 11  1  0  0  0  0
 16 24  1  0  0  0  0
 18 12  1  0  0  0  0
 22 15  1  0  0  0  0
 23 15  1  0  0  0  0
 25 16  1  0  0  0  0
 26  1  1  0  0  0  0
 26 28  1  0  0  0  0
 27 26  1  0  0  0  0
 29 34  2  0  0  0  0
 29 30  1  0  0  0  0
 30 31  2  0  0  0  0
 31 32  1  0  0  0  0
 31 26  1  0  0  0  0
 33 38  1  0  0  0  0
 33 32  2  0  0  0  0
 34 33  1  0  0  0  0
 35 29  1  0  0  0  0
 36 30  1  0  0  0  0
 37 44  2  0  0  0  0
 37 38  1  0  0  0  0
 38 39  2  0  0  0  0
 39 41  1  0  0  0  0
 39 40  1  0  0  0  0
 41 42  1  0  0  0  0
 43 41  2  0  0  0  0
 44 43  1  0  0  0  0
 46 45  1  0  0  0  0
 46 37  1  0  0  0  0
 47 46  2  0  0  0  0
 48 46  2  0  0  0  0
M  END
>  <minimizedAffinity>
-5.31209707

$$$$

 OpenBabel03252502493D

 48 51  0  0  1  0  0  0  0  0999 V2000
   37.8380   29.6060   37.9040 C   0  0  0  0  0  0  0  0  0  0  0  0
   38.9510   29.7910   37.9860 H   0  0  0  0  0  0  0  0  0  0  0  0
   37.7420   29.0930   36.9190 H   0  0  0  0  0  0  0  0  0  0  0  0
   37.3160   28.7990   39.0350 C   0  0  1  0  0  0  0  0  0  0  0  0
   37.2290   27.3070   38.8810 C   0  0  0  0  0  0  0  0  0  0  0  0
   38.2480   27.9400   39.7440 C   0  0  2  0  0  0  0  0  0  0  0  0
   36.4430   29.2300   39.5260 H   0  0  0  0  0  0  0  0  0  0  0  0
   37.5020   26.9340   37.8710 H   0  0  0  0  0  0  0  0  0  0  0  0
   36.3600   26.7530   39.3030 H   0  0  0  0  0  0  0  0  0  0  0  0
   39.2680   27.7210   39.4710 H   0  0  0  0  0  0  0  0  0  0  0  0
   37.9500   27.8220   41.1760 N   0  0  0  0  0  0  0  0  0  0  0  0
   36.5960   27.8900   41.5180 C   0  0  0  0  0  0  0  0  0  0  0  0
   36.5530   27.7660   43.0310 C   0  0  0  0  0  0  0  0  0  0  0  0
   37.2110   28.8600   43.6780 N   0  0  0  0  0  0  0  0  0  0  0  0
   38.2720   29.4580   42.8900 C   0  0  0  0  0  0  0  0  0  0  0  0
   38.9290   28.3900   42.0240 C   0  0  0  0  0  0  0  0  0  0  0  0
   36.0450   27.0630   41.0630 H   0  0  0  0  0  0  0  0  0  0  0  0
   36.1520   28.8830   41.2540 H   0  0  0  0  0  0  0  0  0  0  0  0
   37.0610   26.7930   43.2790 H   0  0  0  0  0  0  0  0  0  0  0  0
   35.5000   27.6860   43.3410 H   0  0  0  0  0  0  0  0  0  0  0  0
   36.5000   29.5890   43.8900 H   0  0  0  0  0  0  0  0  0  0  0  0
   39.0090   29.8750   43.6010 H   0  0  0  0  0  0  0  0  0  0  0  0
   37.8100   30.2350   42.2550 H   0  0  0  0  0  0  0  0  0  0  0  0
   39.3270   27.6230   42.7020 H   0  0  0  0  0  0  0  0  0  0  0  0
   39.7700   28.8190   41.4750 H   0  0  0  0  0  0  0  0  0  0  0  0
   37.0910   30.9070   37.9040 C   0  0  0  0  0  0  0  0  0  0  0  0
   37.1450   31.3400   36.8590 H   0  0  0  0  0  0  0  0  0  0  0  0
   36.0340   30.8720   38.1180 H   0  0  0  0  0  0  0  0  0  0  0  0
   38.0030   33.9450   39.8960 C   0  0  0  0  0  0  0  0  0  0  0  0
   37.2440   33.0290   39.1370 C   0  0  0  0  0  0  0  0  0  0  0  0
   37.8690   31.9010   38.7110 C   0  0  0  0  0  0  0  0  0  0  0  0
   39.1670   31.7050   39.0260 N   0  0  0  0  0  0  0  0  0  0  0  0
   39.8820   32.5470   39.7290 C   0  0  0  0  0  0  0  0  0  0  0  0
   39.2930   33.6800   40.1680 N   0  0  0  0  0  0  0  0  0  0  0  0
   37.5610   34.8630   40.2640 H   0  0  0  0  0  0  0  0  0  0  0  0
   36.2180   33.2900   38.9480 H   0  0  0  0  0  0  0  0  0  0  0  0
   42.3570   32.4420   39.2670 C   0  0  0  0  0  0  0  0  0  0  0  0
   41.2810   32.4110   40.1170 C   0  0  0  0  0  0  0  0  0  0  0  0
   41.6590   32.2270   41.4440 C   0  0  0  0  0  0  0  0  0  0  0  0
   40.8820   32.1840   42.2260 H   0  0  0  0  0  0  0  0  0  0  0  0
   42.9320   32.0860   41.9070 C   0  0  0  0  0  0  0  0  0  0  0  0
   43.1590   31.9460   42.9480 H   0  0  0  0  0  0  0  0  0  0  0  0
   43.9720   32.1250   41.0110 C   0  0  0  0  0  3  0  0  0  0  0  0
   43.6600   32.3030   39.6970 C   0  0  0  0  0  3  0  0  0  0  0  0
   40.8400   32.2130   37.2220 H   0  0  0  0  0  0  0  0  0  0  0  0
   42.0680   32.6730   37.5630 S   0  0  0  0  0  0  0  0  0  0  0  0
   43.1400   31.9480   36.7750 O   0  0  0  0  0  0  0  0  0  0  0  0
   42.2660   34.1420   37.2470 O   0  0  0  0  0  0  0  0  0  0  0  0
  1 26  1  0  0  0  0
  1  2  1  0  0  0  0
  1  4  1  0  0  0  0
  3  1  1  0  0  0  0
  4  7  1  1  0  0  0
  4  6  1  0  0  0  0
  5  4  1  0  0  0  0
  5  9  1  0  0  0  0
  5  6  1  0  0  0  0
  6 10  1  6  0  0  0
  6 11  1  0  0  0  0
  8  5  1  0  0  0  0
 11 12  1  0  0  0  0
 11 16  1  0  0  0  0
 12 13  1  0  0  0  0
 13 19  1  0  0  0  0
 13 20  1  0  0  0  0
 13 14  1  0  0  0  0
 14 21  1  0  0  0  0
 15 22  1  0  0  0  0
 15 14  1  0  0  0  0
 16 24  1  0  0  0  0
 16 15  1  0  0  0  0
 17 12  1  0  0  0  0
 18 12  1  0  0  0  0
 23 15  1  0  0  0  0
 25 16  1  0  0  0  0
 26 28  1  0  0  0  0
 26 31  1  0  0  0  0
 27 26  1  0  0  0  0
 29 34  1  0  0  0  0
 29 35  1  0  0  0  0
 30 29  2  0  0  0  0
 31 32  2  0  0  0  0
 31 30  1  0  0  0  0
 32 33  1  0  0  0  0
 33 38  1  0  0  0  0
 33 34  2  0  0  0  0
 36 30  1  0  0  0  0
 37 44  2  0  0  0  0
 37 38  1  0  0  0  0
 38 39  2  0  0  0  0
 39 41  1  0  0  0  0
 39 40  1  0  0  0  0
 41 42  1  0  0  0  0
 43 41  2  0  0  0  0
 44 43  1  0  0  0  0
 45 46  1  0  0  0  0
 46 37  1  0  0  0  0
 47 46  2  0  0  0  0
 48 46  2  0  0  0  0
M  END
>  <minimizedAffinity>
-5.27575731

$$$$

 OpenBabel03252502493D

 48 51  0  0  1  0  0  0  0  0999 V2000
   37.0240   31.9150   40.4190 C   0  0  0  0  0  0  0  0  0  0  0  0
   36.5770   32.4780   41.2910 H   0  0  0  0  0  0  0  0  0  0  0  0
   36.1420   31.7300   39.7620 H   0  0  0  0  0  0  0  0  0  0  0  0
   38.1020   32.6810   39.7450 C   0  0  1  0  0  0  0  0  0  0  0  0
   38.4560   34.0450   40.2670 C   0  0  0  0  0  0  0  0  0  0  0  0
   39.3460   32.8820   40.4670 C   0  0  2  0  0  0  0  0  0  0  0  0
   38.0690   32.6350   38.6560 H   0  0  0  0  0  0  0  0  0  0  0  0
   37.8050   34.4020   41.0940 H   0  0  0  0  0  0  0  0  0  0  0  0
   38.7080   34.8650   39.5580 H   0  0  0  0  0  0  0  0  0  0  0  0
   39.5460   32.6400   41.4990 H   0  0  0  0  0  0  0  0  0  0  0  0
   40.5250   32.8960   39.5940 N   0  0  0  0  0  0  0  0  0  0  0  0
   40.9520   34.1600   39.1770 C   0  0  0  0  0  0  0  0  0  0  0  0
   42.1530   33.9070   38.2830 C   0  0  0  0  0  0  0  0  0  0  0  0
   41.8030   33.1670   37.1100 N   0  0  0  0  0  0  0  0  0  0  0  0
   40.6590   32.2930   37.2840 C   0  0  0  0  0  0  0  0  0  0  0  0
   40.6160   31.7870   38.7210 C   0  0  0  0  0  0  0  0  0  0  0  0
   41.2500   34.7660   40.0360 H   0  0  0  0  0  0  0  0  0  0  0  0
   40.1770   34.6730   38.5530 H   0  0  0  0  0  0  0  0  0  0  0  0
   42.8930   33.3360   38.9090 H   0  0  0  0  0  0  0  0  0  0  0  0
   42.6050   34.8790   38.0290 H   0  0  0  0  0  0  0  0  0  0  0  0
   41.5950   33.8430   36.3470 H   0  0  0  0  0  0  0  0  0  0  0  0
   40.7880   31.4450   36.5870 H   0  0  0  0  0  0  0  0  0  0  0  0
   39.7550   32.8900   37.0620 H   0  0  0  0  0  0  0  0  0  0  0  0
   41.5550   31.2460   38.9000 H   0  0  0  0  0  0  0  0  0  0  0  0
   39.7940   31.0790   38.8440 H   0  0  0  0  0  0  0  0  0  0  0  0
   37.6230   30.6200   40.8830 C   0  0  0  0  0  0  0  0  0  0  0  0
   38.6940   30.5790   40.5150 H   0  0  0  0  0  0  0  0  0  0  0  0
   37.7080   30.4660   41.9490 H   0  0  0  0  0  0  0  0  0  0  0  0
   36.6400   27.1870   39.7540 C   0  0  0  0  0  0  0  0  0  0  0  0
   37.2670   28.2210   40.4810 C   0  0  0  0  0  0  0  0  0  0  0  0
   36.9750   29.5000   40.1300 C   0  0  0  0  0  0  0  0  0  0  0  0
   36.1110   29.7250   39.1180 N   0  0  0  0  0  0  0  0  0  0  0  0
   35.5220   28.7760   38.4350 C   0  0  0  0  0  0  0  0  0  0  0  0
   35.7900   27.4920   38.7570 N   0  0  0  0  0  0  0  0  0  0  0  0
   36.8320   26.1470   39.9860 H   0  0  0  0  0  0  0  0  0  0  0  0
   37.9370   27.9210   41.2670 H   0  0  0  0  0  0  0  0  0  0  0  0
   34.8970   29.0050   36.0040 C   0  0  0  0  0  0  0  0  0  0  0  0
   34.5760   28.9320   37.3370 C   0  0  0  0  0  0  0  0  0  0  0  0
   33.2060   29.0280   37.5580 C   0  0  0  0  0  0  0  0  0  0  0  0
   32.8210   28.9830   38.5900 H   0  0  0  0  0  0  0  0  0  0  0  0
   32.2440   29.1780   36.6040 C   0  0  0  0  0  0  0  0  0  0  0  0
   31.1980   29.2460   36.8410 H   0  0  0  0  0  0  0  0  0  0  0  0
   32.6220   29.2460   35.2860 C   0  0  0  0  0  3  0  0  0  0  0  0
   33.9530   29.1580   35.0110 C   0  0  0  0  0  3  0  0  0  0  0  0
   37.3490   29.6200   36.3860 H   0  0  0  0  0  0  0  0  0  0  0  0
   36.5740   28.8950   35.5430 S   0  0  0  0  0  0  0  0  0  0  0  0
   36.7320   29.3950   34.1220 O   0  0  0  0  0  0  0  0  0  0  0  0
   36.9540   27.4290   35.4940 O   0  0  0  0  0  0  0  0  0  0  0  0
  1 26  1  0  0  0  0
  1  2  1  0  0  0  0
  3  1  1  0  0  0  0
  4  7  1  6  0  0  0
  4  5  1  0  0  0  0
  4  1  1  0  0  0  0
  4  6  1  0  0  0  0
  5  6  1  0  0  0  0
  5  8  1  0  0  0  0
  6 10  1  1  0  0  0
  9  5  1  0  0  0  0
 11  6  1  0  0  0  0
 12 11  1  0  0  0  0
 12 17  1  0  0  0  0
 13 19  1  0  0  0  0
 13 12  1  0  0  0  0
 14 15  1  0  0  0  0
 14 13  1  0  0  0  0
 15 16  1  0  0  0  0
 16 25  1  0  0  0  0
 16 24  1  0  0  0  0
 16 11  1  0  0  0  0
 18 12  1  0  0  0  0
 20 13  1  0  0  0  0
 21 14  1  0  0  0  0
 22 15  1  0  0  0  0
 23 15  1  0  0  0  0
 26 28  1  0  0  0  0
 27 26  1  0  0  0  0
 29 35  1  0  0  0  0
 29 30  1  0  0  0  0
 30 36  1  0  0  0  0
 31 30  2  0  0  0  0
 31 26  1  0  0  0  0
 32 31  1  0  0  0  0
 33 34  1  0  0  0  0
 33 32  2  0  0  0  0
 34 29  2  0  0  0  0
 37 38  1  0  0  0  0
 38 39  2  0  0  0  0
 38 33  1  0  0  0  0
 39 40  1  0  0  0  0
 41 42  1  0  0  0  0
 41 39  1  0  0  0  0
 43 41  2  0  0  0  0
 44 43  1  0  0  0  0
 44 37  2  0  0  0  0
 46 37  1  0  0  0  0
 46 45  1  0  0  0  0
 47 46  2  0  0  0  0
 48 46  2  0  0  0  0
M  END
>  <minimizedAffinity>
-5.26816225

$$$$
