
 OpenBabel03252508223D

 37 39  0  0  0  0  0  0  0  0999 V2000
   36.1200   30.0330   38.8270 C   0  0  0  0  0  0  0  0  0  0  0  0
   35.5310   29.1290   37.9670 C   0  0  0  0  0  0  0  0  0  0  0  0
   35.8180   29.0330   36.6170 C   0  0  0  0  0  0  0  0  0  0  0  0
   36.7690   29.9250   36.1380 C   0  0  0  0  0  0  0  0  0  0  0  0
   37.3670   30.8330   36.9830 C   0  0  0  0  0  0  0  0  0  0  0  0
   37.0820   30.9260   38.3120 C   0  0  0  0  0  0  0  0  0  0  0  0
   34.7950   28.4510   38.3750 H   0  0  0  0  0  0  0  0  0  0  0  0
   35.3410   28.3200   35.9800 H   0  0  0  0  0  0  0  0  0  0  0  0
   37.0170   29.8780   35.0910 H   0  0  0  0  0  0  0  0  0  0  0  0
   38.1010   31.4980   36.5330 H   0  0  0  0  0  0  0  0  0  0  0  0
   39.0020   31.5140   39.6530 C   0  0  0  0  0  0  0  0  0  0  0  0
   37.7860   31.9320   39.0990 C   0  0  0  0  0  0  0  0  0  0  0  0
   37.3220   33.2260   39.3110 C   0  0  0  0  0  0  0  0  0  0  0  0
   36.3690   33.5030   38.8570 H   0  0  0  0  0  0  0  0  0  0  0  0
   38.0510   34.1240   40.0710 C   0  0  0  0  0  0  0  0  0  0  0  0
   37.7030   35.1300   40.2430 H   0  0  0  0  0  0  0  0  0  0  0  0
   39.2620   33.7530   40.6400 C   0  0  0  0  0  3  0  0  0  0  0  0
   39.6820   32.4610   40.4030 C   0  0  0  0  0  3  0  0  0  0  0  0
   38.5850   29.0400   39.3240 H   0  0  0  0  0  0  0  0  0  0  0  0
   39.6480   29.9100   39.4320 S   0  0  0  0  0  0  0  0  0  0  0  0
   40.3800   29.5430   40.7010 O   0  0  0  0  0  0  0  0  0  0  0  0
   40.5180   29.7820   38.2280 O   0  0  0  0  0  0  0  0  0  0  0  0
   35.8120   30.1420   40.2690 C   0  0  0  0  0  0  0  0  0  0  0  0
   34.8180   30.6800   40.3060 H   0  0  0  0  0  0  0  0  0  0  0  0
   36.5100   30.7330   40.8580 H   0  0  0  0  0  0  0  0  0  0  0  0
   35.5040   28.7690   40.8570 C   0  0  0  0  0  0  0  0  0  0  0  0
   34.5880   28.8880   41.4690 H   0  0  0  0  0  0  0  0  0  0  0  0
   35.4120   28.0350   40.0330 H   0  0  0  0  0  0  0  0  0  0  0  0
   38.1470   26.7250   42.5940 C   0  0  0  0  0  0  0  0  0  0  0  0
   37.0650   27.0700   41.7490 C   0  0  0  0  0  0  0  0  0  0  0  0
   36.6430   28.3890   41.7390 C   0  0  0  0  0  0  0  0  0  0  0  0
   37.2960   29.2900   42.5480 N   0  0  0  0  0  0  0  0  0  0  0  0
   38.3160   28.9210   43.3300 C   0  0  0  0  0  0  0  0  0  0  0  0
   38.7540   27.6460   43.3660 N   0  0  0  0  0  0  0  0  0  0  0  0
   38.4610   25.6870   42.5850 H   0  0  0  0  0  0  0  0  0  0  0  0
   36.5840   26.3190   41.1310 H   0  0  0  0  0  0  0  0  0  0  0  0
   38.7300   29.7440   43.9100 H   0  0  0  0  0  0  0  0  0  0  0  0
  1 23  1  0  0  0  0
  2  7  1  0  0  0  0
  2  1  2  0  0  0  0
  3  2  1  0  0  0  0
  4  3  2  0  0  0  0
  4  5  1  0  0  0  0
  5  6  2  0  0  0  0
  6  1  1  0  0  0  0
  6 12  1  0  0  0  0
  8  3  1  0  0  0  0
  9  4  1  0  0  0  0
 10  5  1  0  0  0  0
 11 18  1  0  0  0  0
 12 13  1  0  0  0  0
 12 11  2  0  0  0  0
 13 15  2  0  0  0  0
 14 13  1  0  0  0  0
 15 16  1  0  0  0  0
 15 17  1  0  0  0  0
 18 17  2  0  0  0  0
 19 20  1  0  0  0  0
 20 11  1  0  0  0  0
 20 21  2  0  0  0  0
 22 20  2  0  0  0  0
 23 24  1  0  0  0  0
 23 26  1  0  0  0  0
 23 25  1  0  0  0  0
 26 27  1  0  0  0  0
 26 31  1  0  0  0  0
 28 26  1  0  0  0  0
 29 34  1  0  0  0  0
 30 29  2  0  0  0  0
 31 30  1  0  0  0  0
 31 32  2  0  0  0  0
 32 33  1  0  0  0  0
 33 34  2  0  0  0  0
 33 37  1  0  0  0  0
 35 29  1  0  0  0  0
 36 30  1  0  0  0  0
M  END
>  <minimizedAffinity>
-5.7933588

$$$$

 OpenBabel03252508223D

 37 39  0  0  0  0  0  0  0  0999 V2000
   38.4650   26.4770   42.8110 C   0  0  0  0  0  0  0  0  0  0  0  0
   39.5060   26.7360   43.6790 C   0  0  0  0  0  0  0  0  0  0  0  0
   40.7170   26.0690   43.6690 C   0  0  0  0  0  0  0  0  0  0  0  0
   40.8530   25.0790   42.7030 C   0  0  0  0  0  0  0  0  0  0  0  0
   39.8250   24.8080   41.8290 C   0  0  0  0  0  0  0  0  0  0  0  0
   38.6310   25.4670   41.8420 C   0  0  0  0  0  0  0  0  0  0  0  0
   39.3650   27.5130   44.4180 H   0  0  0  0  0  0  0  0  0  0  0  0
   41.5020   26.2960   44.3580 H   0  0  0  0  0  0  0  0  0  0  0  0
   41.7840   24.5390   42.6660 H   0  0  0  0  0  0  0  0  0  0  0  0
   40.0060   24.0200   41.1020 H   0  0  0  0  0  0  0  0  0  0  0  0
   37.6090   25.8490   39.6870 C   0  0  0  0  0  0  0  0  0  0  0  0
   37.6220   25.0840   40.8600 C   0  0  0  0  0  0  0  0  0  0  0  0
   36.7180   24.0430   41.0330 C   0  0  0  0  0  0  0  0  0  0  0  0
   36.7690   23.4760   41.9650 H   0  0  0  0  0  0  0  0  0  0  0  0
   35.7890   23.7410   40.0520 C   0  0  0  0  0  0  0  0  0  0  0  0
   35.0820   22.9350   40.1730 H   0  0  0  0  0  0  0  0  0  0  0  0
   35.7390   24.4720   38.8730 C   0  0  0  0  0  3  0  0  0  0  0  0
   36.6560   25.4960   38.7460 C   0  0  0  0  0  3  0  0  0  0  0  0
   39.0330   27.7220   40.6190 H   0  0  0  0  0  0  0  0  0  0  0  0
   38.7110   27.1690   39.3990 S   0  0  0  0  0  0  0  0  0  0  0  0
   37.9520   28.2270   38.6330 O   0  0  0  0  0  0  0  0  0  0  0  0
   39.9580   26.7580   38.6950 O   0  0  0  0  0  0  0  0  0  0  0  0
   37.1670   27.1850   42.8230 C   0  0  0  0  0  0  0  0  0  0  0  0
   36.5440   26.6200   43.5790 H   0  0  0  0  0  0  0  0  0  0  0  0
   36.6130   27.1710   41.8870 H   0  0  0  0  0  0  0  0  0  0  0  0
   37.3180   28.5710   43.4400 C   0  0  0  0  0  0  0  0  0  0  0  0
   36.3790   28.7720   43.9930 H   0  0  0  0  0  0  0  0  0  0  0  0
   38.2310   28.5910   44.0650 H   0  0  0  0  0  0  0  0  0  0  0  0
   38.8200   30.9950   40.9800 C   0  0  0  0  0  0  0  0  0  0  0  0
   38.7080   30.0650   42.0420 C   0  0  0  0  0  0  0  0  0  0  0  0
   37.4550   29.5500   42.3250 C   0  0  0  0  0  0  0  0  0  0  0  0
   36.3890   29.9680   41.5610 N   0  0  0  0  0  0  0  0  0  0  0  0
   36.5400   30.8480   40.5660 C   0  0  0  0  0  0  0  0  0  0  0  0
   37.7460   31.3720   40.2620 N   0  0  0  0  0  0  0  0  0  0  0  0
   39.8110   31.3850   40.7770 H   0  0  0  0  0  0  0  0  0  0  0  0
   39.5820   29.7690   42.6130 H   0  0  0  0  0  0  0  0  0  0  0  0
   35.6070   31.0810   40.0540 H   0  0  0  0  0  0  0  0  0  0  0  0
  1 23  1  0  0  0  0
  1  2  1  0  0  0  0
  2  7  1  0  0  0  0
  3  2  2  0  0  0  0
  3  8  1  0  0  0  0
  4  3  1  0  0  0  0
  5  6  1  0  0  0  0
  5  4  2  0  0  0  0
  6  1  2  0  0  0  0
  9  4  1  0  0  0  0
 10  5  1  0  0  0  0
 11 12  1  0  0  0  0
 12 13  2  0  0  0  0
 12  6  1  0  0  0  0
 13 14  1  0  0  0  0
 15 16  1  0  0  0  0
 15 13  1  0  0  0  0
 17 15  2  0  0  0  0
 18 17  1  0  0  0  0
 18 11  2  0  0  0  0
 20 11  1  0  0  0  0
 20 19  1  0  0  0  0
 21 20  2  0  0  0  0
 22 20  2  0  0  0  0
 23 26  1  0  0  0  0
 23 24  1  0  0  0  0
 25 23  1  0  0  0  0
 26 27  1  0  0  0  0
 26 28  1  0  0  0  0
 29 30  1  0  0  0  0
 30 31  2  0  0  0  0
 30 36  1  0  0  0  0
 31 26  1  0  0  0  0
 32 31  1  0  0  0  0
 33 32  2  0  0  0  0
 34 33  1  0  0  0  0
 34 29  2  0  0  0  0
 35 29  1  0  0  0  0
 37 33  1  0  0  0  0
M  END
>  <minimizedAffinity>
-5.40290833

$$$$

 OpenBabel03252508223D

 37 39  0  0  0  0  0  0  0  0999 V2000
   37.1320   26.1780   41.8920 C   0  0  0  0  0  0  0  0  0  0  0  0
   37.1410   24.8110   42.0800 C   0  0  0  0  0  0  0  0  0  0  0  0
   36.8380   23.8840   41.0990 C   0  0  0  0  0  0  0  0  0  0  0  0
   36.5080   24.4090   39.8550 C   0  0  0  0  0  0  0  0  0  0  0  0
   36.4950   25.7700   39.6500 C   0  0  0  0  0  0  0  0  0  0  0  0
   36.7930   26.6810   40.6190 C   0  0  0  0  0  0  0  0  0  0  0  0
   37.4020   24.4390   43.0610 H   0  0  0  0  0  0  0  0  0  0  0  0
   36.8550   22.8310   41.2810 H   0  0  0  0  0  0  0  0  0  0  0  0
   36.2660   23.7160   39.0670 H   0  0  0  0  0  0  0  0  0  0  0  0
   36.2260   26.1040   38.6500 H   0  0  0  0  0  0  0  0  0  0  0  0
   37.8890   28.6010   39.6460 C   0  0  0  0  0  0  0  0  0  0  0  0
   36.7430   28.0970   40.2730 C   0  0  0  0  0  0  0  0  0  0  0  0
   35.6560   28.9260   40.5260 C   0  0  0  0  0  0  0  0  0  0  0  0
   34.7850   28.4850   41.0160 H   0  0  0  0  0  0  0  0  0  0  0  0
   35.6850   30.2620   40.1650 C   0  0  0  0  0  0  0  0  0  0  0  0
   34.8480   30.9160   40.3560 H   0  0  0  0  0  0  0  0  0  0  0  0
   36.8010   30.8050   39.5430 C   0  0  0  0  0  3  0  0  0  0  0  0
   37.8550   29.9450   39.3120 C   0  0  0  0  0  3  0  0  0  0  0  0
   39.3320   26.6020   40.2200 H   0  0  0  0  0  0  0  0  0  0  0  0
   39.2900   27.6230   39.2970 S   0  0  0  0  0  0  0  0  0  0  0  0
   40.5080   28.4810   39.5460 O   0  0  0  0  0  0  0  0  0  0  0  0
   39.2840   27.0490   37.9210 O   0  0  0  0  0  0  0  0  0  0  0  0
   37.4510   27.1710   42.9400 C   0  0  0  0  0  0  0  0  0  0  0  0
   36.8390   26.8450   43.8330 H   0  0  0  0  0  0  0  0  0  0  0  0
   37.1630   28.1970   42.7210 H   0  0  0  0  0  0  0  0  0  0  0  0
   38.8930   27.0120   43.4090 C   0  0  0  0  0  0  0  0  0  0  0  0
   38.8520   26.8720   44.5070 H   0  0  0  0  0  0  0  0  0  0  0  0
   39.3620   26.1750   42.8570 H   0  0  0  0  0  0  0  0  0  0  0  0
   39.5720   30.6320   42.6200 C   0  0  0  0  0  0  0  0  0  0  0  0
   38.8730   29.4370   42.9160 C   0  0  0  0  0  0  0  0  0  0  0  0
   39.6120   28.2800   43.0980 C   0  0  0  0  0  0  0  0  0  0  0  0
   40.9810   28.3540   42.9810 N   0  0  0  0  0  0  0  0  0  0  0  0
   41.6010   29.5050   42.7020 C   0  0  0  0  0  0  0  0  0  0  0  0
   40.9140   30.6510   42.5180 N   0  0  0  0  0  0  0  0  0  0  0  0
   38.9730   31.5250   42.4820 H   0  0  0  0  0  0  0  0  0  0  0  0
   37.7910   29.4340   42.9960 H   0  0  0  0  0  0  0  0  0  0  0  0
   42.6840   29.4050   42.6420 H   0  0  0  0  0  0  0  0  0  0  0  0
  1  2  1  0  0  0  0
  1 23  1  0  0  0  0
  2  7  1  0  0  0  0
  3  8  1  0  0  0  0
  3  2  2  0  0  0  0
  4  3  1  0  0  0  0
  5  4  2  0  0  0  0
  5  6  1  0  0  0  0
  6  1  2  0  0  0  0
  9  4  1  0  0  0  0
 10  5  1  0  0  0  0
 11 12  1  0  0  0  0
 12 13  2  0  0  0  0
 12  6  1  0  0  0  0
 13 14  1  0  0  0  0
 15 16  1  0  0  0  0
 15 13  1  0  0  0  0
 17 15  2  0  0  0  0
 18 17  1  0  0  0  0
 18 11  2  0  0  0  0
 20 21  2  0  0  0  0
 20 11  1  0  0  0  0
 20 19  1  0  0  0  0
 22 20  2  0  0  0  0
 23 26  1  0  0  0  0
 23 24  1  0  0  0  0
 25 23  1  0  0  0  0
 26 27  1  0  0  0  0
 28 26  1  0  0  0  0
 29 30  1  0  0  0  0
 30 36  1  0  0  0  0
 30 31  2  0  0  0  0
 31 26  1  0  0  0  0
 32 31  1  0  0  0  0
 33 32  2  0  0  0  0
 34 29  2  0  0  0  0
 34 33  1  0  0  0  0
 35 29  1  0  0  0  0
 37 33  1  0  0  0  0
M  END
>  <minimizedAffinity>
-5.33531761

$$$$

 OpenBabel03252508223D

 37 39  0  0  0  0  0  0  0  0999 V2000
   36.5070   25.8730   39.2440 C   0  0  0  0  0  0  0  0  0  0  0  0
   35.9060   24.9820   38.3780 C   0  0  0  0  0  0  0  0  0  0  0  0
   35.5590   23.6840   38.7070 C   0  0  0  0  0  0  0  0  0  0  0  0
   35.8520   23.2930   40.0070 C   0  0  0  0  0  0  0  0  0  0  0  0
   36.4500   24.1690   40.8840 C   0  0  0  0  0  0  0  0  0  0  0  0
   36.7920   25.4470   40.5570 C   0  0  0  0  0  0  0  0  0  0  0  0
   35.6930   25.3210   37.3740 H   0  0  0  0  0  0  0  0  0  0  0  0
   35.0950   23.0210   38.0080 H   0  0  0  0  0  0  0  0  0  0  0  0
   35.5950   22.2880   40.2980 H   0  0  0  0  0  0  0  0  0  0  0  0
   36.6480   23.7890   41.8840 H   0  0  0  0  0  0  0  0  0  0  0  0
   38.8220   26.2690   41.5760 C   0  0  0  0  0  0  0  0  0  0  0  0
   37.4220   26.2750   41.5800 C   0  0  0  0  0  0  0  0  0  0  0  0
   36.7220   27.0340   42.5110 C   0  0  0  0  0  0  0  0  0  0  0  0
   35.6320   27.0060   42.4730 H   0  0  0  0  0  0  0  0  0  0  0  0
   37.3940   27.7960   43.4510 C   0  0  0  0  0  0  0  0  0  0  0  0
   36.8640   28.3900   44.1800 H   0  0  0  0  0  0  0  0  0  0  0  0
   38.7810   27.8200   43.4860 C   0  0  0  0  0  3  0  0  0  0  0  0
   39.4330   27.0530   42.5420 C   0  0  0  0  0  3  0  0  0  0  0  0
   39.0710   24.1890   40.1570 H   0  0  0  0  0  0  0  0  0  0  0  0
   39.7670   25.3430   40.4400 S   0  0  0  0  0  0  0  0  0  0  0  0
   41.0330   24.9220   41.1490 O   0  0  0  0  0  0  0  0  0  0  0  0
   40.0530   26.0740   39.1730 O   0  0  0  0  0  0  0  0  0  0  0  0
   36.8840   27.2590   38.8930 C   0  0  0  0  0  0  0  0  0  0  0  0
   37.1840   27.2030   37.8040 H   0  0  0  0  0  0  0  0  0  0  0  0
   37.7370   27.6660   39.4320 H   0  0  0  0  0  0  0  0  0  0  0  0
   35.6570   28.1630   38.8880 C   0  0  0  0  0  0  0  0  0  0  0  0
   35.2790   28.1740   37.8460 H   0  0  0  0  0  0  0  0  0  0  0  0
   34.9290   27.7910   39.6340 H   0  0  0  0  0  0  0  0  0  0  0  0
   36.3530   31.2590   40.9170 C   0  0  0  0  0  0  0  0  0  0  0  0
   35.9240   29.9540   40.5740 C   0  0  0  0  0  0  0  0  0  0  0  0
   36.1030   29.5330   39.2670 C   0  0  0  0  0  0  0  0  0  0  0  0
   36.6870   30.4040   38.3750 N   0  0  0  0  0  0  0  0  0  0  0  0
   37.0780   31.6290   38.7420 C   0  0  0  0  0  0  0  0  0  0  0  0
   36.9190   32.0720   40.0060 N   0  0  0  0  0  0  0  0  0  0  0  0
   36.2020   31.5660   41.9460 H   0  0  0  0  0  0  0  0  0  0  0  0
   35.4690   29.3070   41.3180 H   0  0  0  0  0  0  0  0  0  0  0  0
   37.5220   32.1990   37.9280 H   0  0  0  0  0  0  0  0  0  0  0  0
  1  6  1  0  0  0  0
  2  3  1  0  0  0  0
  2  1  2  0  0  0  0
  3  4  2  0  0  0  0
  4  9  1  0  0  0  0
  4  5  1  0  0  0  0
  5 10  1  0  0  0  0
  6  5  2  0  0  0  0
  6 12  1  0  0  0  0
  7  2  1  0  0  0  0
  8  3  1  0  0  0  0
 11 12  2  0  0  0  0
 11 18  1  0  0  0  0
 12 13  1  0  0  0  0
 13 15  2  0  0  0  0
 14 13  1  0  0  0  0
 15 17  1  0  0  0  0
 15 16  1  0  0  0  0
 18 17  2  0  0  0  0
 19 20  1  0  0  0  0
 20 21  2  0  0  0  0
 20 11  1  0  0  0  0
 22 20  2  0  0  0  0
 23  1  1  0  0  0  0
 23 25  1  0  0  0  0
 24 23  1  0  0  0  0
 26 23  1  0  0  0  0
 26 31  1  0  0  0  0
 26 28  1  0  0  0  0
 27 26  1  0  0  0  0
 29 35  1  0  0  0  0
 30 29  1  0  0  0  0
 30 36  1  0  0  0  0
 31 30  2  0  0  0  0
 32 33  2  0  0  0  0
 32 31  1  0  0  0  0
 33 34  1  0  0  0  0
 34 29  2  0  0  0  0
 37 33  1  0  0  0  0
M  END
>  <minimizedAffinity>
-5.31459427

$$$$

 OpenBabel03252508223D

 37 39  0  0  0  0  0  0  0  0999 V2000
   36.9150   29.0480   38.5450 C   0  0  0  0  0  0  0  0  0  0  0  0
   36.1030   29.2330   37.4440 C   0  0  0  0  0  0  0  0  0  0  0  0
   34.7210   29.1860   37.4750 C   0  0  0  0  0  0  0  0  0  0  0  0
   34.1540   28.9320   38.7180 C   0  0  0  0  0  0  0  0  0  0  0  0
   34.9500   28.7450   39.8260 C   0  0  0  0  0  0  0  0  0  0  0  0
   36.3110   28.7920   39.7930 C   0  0  0  0  0  0  0  0  0  0  0  0
   36.5790   29.4280   36.4940 H   0  0  0  0  0  0  0  0  0  0  0  0
   34.1240   29.3330   36.6010 H   0  0  0  0  0  0  0  0  0  0  0  0
   33.0800   28.8880   38.7790 H   0  0  0  0  0  0  0  0  0  0  0  0
   34.4320   28.5510   40.7630 H   0  0  0  0  0  0  0  0  0  0  0  0
   37.3660   27.2450   41.3180 C   0  0  0  0  0  0  0  0  0  0  0  0
   37.0390   28.5770   41.0390 C   0  0  0  0  0  0  0  0  0  0  0  0
   37.4040   29.5920   41.9160 C   0  0  0  0  0  0  0  0  0  0  0  0
   37.1270   30.6140   41.6520 H   0  0  0  0  0  0  0  0  0  0  0  0
   38.0960   29.3060   43.0800 C   0  0  0  0  0  0  0  0  0  0  0  0
   38.3860   30.0840   43.7700 H   0  0  0  0  0  0  0  0  0  0  0  0
   38.4410   28.0000   43.3990 C   0  0  0  0  0  3  0  0  0  0  0  0
   38.0580   27.0270   42.4990 C   0  0  0  0  0  3  0  0  0  0  0  0
   35.7360   26.2220   39.6740 H   0  0  0  0  0  0  0  0  0  0  0  0
   36.9420   25.9190   40.2670 S   0  0  0  0  0  0  0  0  0  0  0  0
   36.7020   24.7120   41.1430 O   0  0  0  0  0  0  0  0  0  0  0  0
   37.9600   25.6510   39.2130 O   0  0  0  0  0  0  0  0  0  0  0  0
   38.3930   29.0920   38.5140 C   0  0  0  0  0  0  0  0  0  0  0  0
   38.6840   28.3070   37.7540 H   0  0  0  0  0  0  0  0  0  0  0  0
   38.8930   28.8290   39.4430 H   0  0  0  0  0  0  0  0  0  0  0  0
   38.8770   30.3980   37.8920 C   0  0  0  0  0  0  0  0  0  0  0  0
   39.9380   30.2390   37.6140 H   0  0  0  0  0  0  0  0  0  0  0  0
   38.2170   30.6610   37.0430 H   0  0  0  0  0  0  0  0  0  0  0  0
   37.7050   33.3870   39.8600 C   0  0  0  0  0  0  0  0  0  0  0  0
   37.7700   32.3870   38.8600 C   0  0  0  0  0  0  0  0  0  0  0  0
   38.7920   31.4560   38.9370 C   0  0  0  0  0  0  0  0  0  0  0  0
   39.6860   31.5510   39.9790 N   0  0  0  0  0  0  0  0  0  0  0  0
   39.5860   32.5120   40.9040 C   0  0  0  0  0  0  0  0  0  0  0  0
   38.6050   33.4370   40.8600 N   0  0  0  0  0  0  0  0  0  0  0  0
   36.8970   34.1050   39.7790 H   0  0  0  0  0  0  0  0  0  0  0  0
   37.0390   32.3570   38.0580 H   0  0  0  0  0  0  0  0  0  0  0  0
   40.3640   32.4570   41.6640 H   0  0  0  0  0  0  0  0  0  0  0  0
  1  6  1  0  0  0  0
  2  3  1  0  0  0  0
  2  1  2  0  0  0  0
  3  4  2  0  0  0  0
  4  9  1  0  0  0  0
  4  5  1  0  0  0  0
  5 10  1  0  0  0  0
  6  5  2  0  0  0  0
  6 12  1  0  0  0  0
  7  2  1  0  0  0  0
  8  3  1  0  0  0  0
 11 18  1  0  0  0  0
 12 11  2  0  0  0  0
 12 13  1  0  0  0  0
 13 15  2  0  0  0  0
 14 13  1  0  0  0  0
 15 17  1  0  0  0  0
 15 16  1  0  0  0  0
 18 17  2  0  0  0  0
 19 20  1  0  0  0  0
 20 21  2  0  0  0  0
 20 11  1  0  0  0  0
 22 20  2  0  0  0  0
 23  1  1  0  0  0  0
 23 25  1  0  0  0  0
 24 23  1  0  0  0  0
 26 23  1  0  0  0  0
 26 31  1  0  0  0  0
 27 26  1  0  0  0  0
 28 26  1  0  0  0  0
 29 34  1  0  0  0  0
 30 31  1  0  0  0  0
 30 29  2  0  0  0  0
 31 32  2  0  0  0  0
 32 33  1  0  0  0  0
 33 37  1  0  0  0  0
 34 33  2  0  0  0  0
 35 29  1  0  0  0  0
 36 30  1  0  0  0  0
M  END
>  <minimizedAffinity>
-5.24776316

$$$$

 OpenBabel03252508223D

 37 39  0  0  0  0  0  0  0  0999 V2000
   38.7350   28.1580   42.8170 C   0  0  0  0  0  0  0  0  0  0  0  0
   39.5150   27.3820   43.6510 C   0  0  0  0  0  0  0  0  0  0  0  0
   39.6380   26.0090   43.5540 C   0  0  0  0  0  0  0  0  0  0  0  0
   38.9080   25.4090   42.5340 C   0  0  0  0  0  0  0  0  0  0  0  0
   38.1250   26.1670   41.6940 C   0  0  0  0  0  0  0  0  0  0  0  0
   38.0060   27.5210   41.7920 C   0  0  0  0  0  0  0  0  0  0  0  0
   40.0680   27.8840   44.4330 H   0  0  0  0  0  0  0  0  0  0  0  0
   40.2520   25.4400   44.2180 H   0  0  0  0  0  0  0  0  0  0  0  0
   38.9800   24.3390   42.4290 H   0  0  0  0  0  0  0  0  0  0  0  0
   37.5850   25.6250   40.9200 H   0  0  0  0  0  0  0  0  0  0  0  0
   37.7470   28.5480   39.6210 C   0  0  0  0  0  0  0  0  0  0  0  0
   37.1420   28.2080   40.8380 C   0  0  0  0  0  0  0  0  0  0  0  0
   35.8090   28.5230   41.0750 C   0  0  0  0  0  0  0  0  0  0  0  0
   35.3840   28.2360   42.0380 H   0  0  0  0  0  0  0  0  0  0  0  0
   35.0550   29.1770   40.1160 C   0  0  0  0  0  0  0  0  0  0  0  0
   34.0190   29.4270   40.2870 H   0  0  0  0  0  0  0  0  0  0  0  0
   35.6130   29.5340   38.8960 C   0  0  0  0  0  3  0  0  0  0  0  0
   36.9380   29.2010   38.7050 C   0  0  0  0  0  3  0  0  0  0  0  0
   40.0780   28.0030   40.4440 H   0  0  0  0  0  0  0  0  0  0  0  0
   39.4130   28.1860   39.2520 S   0  0  0  0  0  0  0  0  0  0  0  0
   40.0070   29.4180   38.6110 O   0  0  0  0  0  0  0  0  0  0  0  0
   39.5810   26.9760   38.3990 O   0  0  0  0  0  0  0  0  0  0  0  0
   38.5980   29.6260   42.9220 C   0  0  0  0  0  0  0  0  0  0  0  0
   38.5850   29.8300   44.0340 H   0  0  0  0  0  0  0  0  0  0  0  0
   37.6800   30.0450   42.5160 H   0  0  0  0  0  0  0  0  0  0  0  0
   39.8670   30.3190   42.4390 C   0  0  0  0  0  0  0  0  0  0  0  0
   40.3360   30.7740   43.3340 H   0  0  0  0  0  0  0  0  0  0  0  0
   40.5050   29.5810   41.9150 H   0  0  0  0  0  0  0  0  0  0  0  0
   40.0460   33.2130   40.0360 C   0  0  0  0  0  0  0  0  0  0  0  0
   40.4470   32.1950   40.9350 C   0  0  0  0  0  0  0  0  0  0  0  0
   39.4640   31.3940   41.4900 C   0  0  0  0  0  0  0  0  0  0  0  0
   38.1540   31.6290   41.1390 N   0  0  0  0  0  0  0  0  0  0  0  0
   37.8200   32.6020   40.2840 C   0  0  0  0  0  0  0  0  0  0  0  0
   38.7510   33.4020   39.7250 N   0  0  0  0  0  0  0  0  0  0  0  0
   40.8340   33.8280   39.6140 H   0  0  0  0  0  0  0  0  0  0  0  0
   41.4950   32.0530   41.1790 H   0  0  0  0  0  0  0  0  0  0  0  0
   36.7480   32.6640   40.1050 H   0  0  0  0  0  0  0  0  0  0  0  0
  1 23  1  0  0  0  0
  1  2  1  0  0  0  0
  2  7  1  0  0  0  0
  3  2  2  0  0  0  0
  3  8  1  0  0  0  0
  4  3  1  0  0  0  0
  5  6  1  0  0  0  0
  5  4  2  0  0  0  0
  6  1  2  0  0  0  0
  9  4  1  0  0  0  0
 10  5  1  0  0  0  0
 11 12  1  0  0  0  0
 12 13  2  0  0  0  0
 12  6  1  0  0  0  0
 13 14  1  0  0  0  0
 15 16  1  0  0  0  0
 15 13  1  0  0  0  0
 17 15  2  0  0  0  0
 18 17  1  0  0  0  0
 18 11  2  0  0  0  0
 20 11  1  0  0  0  0
 20 19  1  0  0  0  0
 21 20  2  0  0  0  0
 22 20  2  0  0  0  0
 23 24  1  0  0  0  0
 25 23  1  0  0  0  0
 26 23  1  0  0  0  0
 26 27  1  0  0  0  0
 28 26  1  0  0  0  0
 29 30  1  0  0  0  0
 30 36  1  0  0  0  0
 30 31  2  0  0  0  0
 31 26  1  0  0  0  0
 32 31  1  0  0  0  0
 33 32  2  0  0  0  0
 34 29  2  0  0  0  0
 34 33  1  0  0  0  0
 35 29  1  0  0  0  0
 37 33  1  0  0  0  0
M  END
>  <minimizedAffinity>
-5.21288347

$$$$

 OpenBabel03252508223D

 37 39  0  0  0  0  0  0  0  0999 V2000
   36.7950   27.1340   41.6180 C   0  0  0  0  0  0  0  0  0  0  0  0
   36.9710   26.0930   42.5080 C   0  0  0  0  0  0  0  0  0  0  0  0
   37.0720   24.7630   42.1460 C   0  0  0  0  0  0  0  0  0  0  0  0
   36.9860   24.5000   40.7840 C   0  0  0  0  0  0  0  0  0  0  0  0
   36.8110   25.5260   39.8830 C   0  0  0  0  0  0  0  0  0  0  0  0
   36.7110   26.8360   40.2420 C   0  0  0  0  0  0  0  0  0  0  0  0
   37.0330   26.3360   43.5600 H   0  0  0  0  0  0  0  0  0  0  0  0
   37.2070   23.9830   42.8640 H   0  0  0  0  0  0  0  0  0  0  0  0
   37.0600   23.4740   40.4660 H   0  0  0  0  0  0  0  0  0  0  0  0
   36.7530   25.2410   38.8350 H   0  0  0  0  0  0  0  0  0  0  0  0
   37.7060   28.2870   38.5870 C   0  0  0  0  0  0  0  0  0  0  0  0
   36.5280   27.8280   39.1890 C   0  0  0  0  0  0  0  0  0  0  0  0
   35.2910   28.3130   38.7770 C   0  0  0  0  0  0  0  0  0  0  0  0
   34.4020   27.9240   39.2770 H   0  0  0  0  0  0  0  0  0  0  0  0
   35.2000   29.2550   37.7670 C   0  0  0  0  0  0  0  0  0  0  0  0
   34.2470   29.6390   37.4380 H   0  0  0  0  0  0  0  0  0  0  0  0
   36.3420   29.7390   37.1430 C   0  0  0  0  0  3  0  0  0  0  0  0
   37.5460   29.2300   37.5840 C   0  0  0  0  0  3  0  0  0  0  0  0
   39.2170   27.2830   40.3520 H   0  0  0  0  0  0  0  0  0  0  0  0
   39.2910   27.7270   39.0500 S   0  0  0  0  0  0  0  0  0  0  0  0
   40.2070   28.9280   39.0540 O   0  0  0  0  0  0  0  0  0  0  0  0
   39.8100   26.6320   38.1810 O   0  0  0  0  0  0  0  0  0  0  0  0
   36.6820   28.5570   42.0030 C   0  0  0  0  0  0  0  0  0  0  0  0
   36.1300   28.5400   42.9900 H   0  0  0  0  0  0  0  0  0  0  0  0
   36.1000   29.1820   41.3300 H   0  0  0  0  0  0  0  0  0  0  0  0
   38.0500   29.1270   42.3600 C   0  0  0  0  0  0  0  0  0  0  0  0
   38.0360   29.3140   43.4520 H   0  0  0  0  0  0  0  0  0  0  0  0
   38.8340   28.4200   42.0280 H   0  0  0  0  0  0  0  0  0  0  0  0
   37.2750   32.1740   40.2870 C   0  0  0  0  0  0  0  0  0  0  0  0
   37.1100   30.9440   40.9700 C   0  0  0  0  0  0  0  0  0  0  0  0
   38.2040   30.4200   41.6370 C   0  0  0  0  0  0  0  0  0  0  0  0
   39.3890   31.1200   41.6010 N   0  0  0  0  0  0  0  0  0  0  0  0
   39.5000   32.2800   40.9440 C   0  0  0  0  0  0  0  0  0  0  0  0
   38.4560   32.8200   40.2830 N   0  0  0  0  0  0  0  0  0  0  0  0
   36.4050   32.5650   39.7720 H   0  0  0  0  0  0  0  0  0  0  0  0
   36.1530   30.4330   40.9660 H   0  0  0  0  0  0  0  0  0  0  0  0
   40.4970   32.7130   41.0070 H   0  0  0  0  0  0  0  0  0  0  0  0
  1 23  1  0  0  0  0
  1  2  1  0  0  0  0
  2  7  1  0  0  0  0
  3  2  2  0  0  0  0
  3  8  1  0  0  0  0
  4  3  1  0  0  0  0
  5  6  1  0  0  0  0
  5  4  2  0  0  0  0
  6  1  2  0  0  0  0
  9  4  1  0  0  0  0
 10  5  1  0  0  0  0
 11 20  1  0  0  0  0
 11 12  1  0  0  0  0
 12  6  1  0  0  0  0
 13 12  2  0  0  0  0
 13 14  1  0  0  0  0
 15 13  1  0  0  0  0
 16 15  1  0  0  0  0
 17 18  1  0  0  0  0
 17 15  2  0  0  0  0
 18 11  2  0  0  0  0
 20 21  2  0  0  0  0
 20 19  1  0  0  0  0
 22 20  2  0  0  0  0
 23 26  1  0  0  0  0
 23 24  1  0  0  0  0
 25 23  1  0  0  0  0
 26 27  1  0  0  0  0
 28 26  1  0  0  0  0
 29 30  1  0  0  0  0
 30 31  2  0  0  0  0
 31 26  1  0  0  0  0
 32 31  1  0  0  0  0
 33 37  1  0  0  0  0
 33 32  2  0  0  0  0
 34 29  2  0  0  0  0
 34 33  1  0  0  0  0
 35 29  1  0  0  0  0
 36 30  1  0  0  0  0
M  END
>  <minimizedAffinity>
-5.20607281

$$$$

 OpenBabel03252508223D

 37 39  0  0  0  0  0  0  0  0999 V2000
   35.8860   26.9080   38.3870 C   0  0  0  0  0  0  0  0  0  0  0  0
   35.2680   25.8850   37.6960 C   0  0  0  0  0  0  0  0  0  0  0  0
   34.0730   26.0120   37.0140 C   0  0  0  0  0  0  0  0  0  0  0  0
   33.4880   27.2720   37.0510 C   0  0  0  0  0  0  0  0  0  0  0  0
   34.0910   28.3040   37.7340 C   0  0  0  0  0  0  0  0  0  0  0  0
   35.2700   28.1750   38.4070 C   0  0  0  0  0  0  0  0  0  0  0  0
   35.7520   24.9180   37.6890 H   0  0  0  0  0  0  0  0  0  0  0  0
   33.6230   25.1960   36.4900 H   0  0  0  0  0  0  0  0  0  0  0  0
   32.5560   27.4080   36.5300 H   0  0  0  0  0  0  0  0  0  0  0  0
   33.5730   29.2600   37.7180 H   0  0  0  0  0  0  0  0  0  0  0  0
   36.6320   30.1680   38.3160 C   0  0  0  0  0  0  0  0  0  0  0  0
   35.8040   29.3470   39.0920 C   0  0  0  0  0  0  0  0  0  0  0  0
   35.5370   29.6670   40.4180 C   0  0  0  0  0  0  0  0  0  0  0  0
   34.8850   28.9960   40.9810 H   0  0  0  0  0  0  0  0  0  0  0  0
   36.0830   30.8000   40.9970 C   0  0  0  0  0  0  0  0  0  0  0  0
   35.8840   31.0610   42.0250 H   0  0  0  0  0  0  0  0  0  0  0  0
   36.9100   31.6420   40.2660 C   0  0  0  0  0  3  0  0  0  0  0  0
   37.1470   31.2850   38.9540 C   0  0  0  0  0  3  0  0  0  0  0  0
   36.0110   29.0320   36.1410 H   0  0  0  0  0  0  0  0  0  0  0  0
   37.0120   29.8310   36.6480 S   0  0  0  0  0  0  0  0  0  0  0  0
   38.2740   29.0010   36.6350 O   0  0  0  0  0  0  0  0  0  0  0  0
   37.1420   31.0570   35.8110 O   0  0  0  0  0  0  0  0  0  0  0  0
   37.1620   26.7730   39.1220 C   0  0  0  0  0  0  0  0  0  0  0  0
   37.4420   27.8330   39.3990 H   0  0  0  0  0  0  0  0  0  0  0  0
   37.9950   26.3680   38.5510 H   0  0  0  0  0  0  0  0  0  0  0  0
   36.9360   26.0910   40.4670 C   0  0  0  0  0  0  0  0  0  0  0  0
   35.8440   25.9290   40.5570 H   0  0  0  0  0  0  0  0  0  0  0  0
   37.5410   25.1650   40.5100 H   0  0  0  0  0  0  0  0  0  0  0  0
   38.9210   28.7000   42.3220 C   0  0  0  0  0  0  0  0  0  0  0  0
   38.5060   27.8130   41.2990 C   0  0  0  0  0  0  0  0  0  0  0  0
   37.3870   27.0310   41.5320 C   0  0  0  0  0  0  0  0  0  0  0  0
   36.7410   27.1580   42.7400 N   0  0  0  0  0  0  0  0  0  0  0  0
   37.1670   28.0100   43.6790 C   0  0  0  0  0  0  0  0  0  0  0  0
   38.2540   28.7860   43.4880 N   0  0  0  0  0  0  0  0  0  0  0  0
   39.7990   29.3020   42.1180 H   0  0  0  0  0  0  0  0  0  0  0  0
   39.0530   27.7520   40.3640 H   0  0  0  0  0  0  0  0  0  0  0  0
   36.5540   27.9970   44.5790 H   0  0  0  0  0  0  0  0  0  0  0  0
  1  6  1  0  0  0  0
  1 23  1  0  0  0  0
  2  1  2  0  0  0  0
  3  4  2  0  0  0  0
  3  2  1  0  0  0  0
  4  5  1  0  0  0  0
  5  6  2  0  0  0  0
  6 12  1  0  0  0  0
  7  2  1  0  0  0  0
  8  3  1  0  0  0  0
  9  4  1  0  0  0  0
 10  5  1  0  0  0  0
 11 18  2  0  0  0  0
 11 12  1  0  0  0  0
 12 13  2  0  0  0  0
 13 14  1  0  0  0  0
 13 15  1  0  0  0  0
 15 16  1  0  0  0  0
 17 15  2  0  0  0  0
 18 17  1  0  0  0  0
 19 20  1  0  0  0  0
 20 11  1  0  0  0  0
 21 20  2  0  0  0  0
 22 20  2  0  0  0  0
 23 24  1  0  0  0  0
 23 26  1  0  0  0  0
 25 23  1  0  0  0  0
 26 28  1  0  0  0  0
 26 27  1  0  0  0  0
 26 31  1  0  0  0  0
 29 34  1  0  0  0  0
 30 31  1  0  0  0  0
 30 29  2  0  0  0  0
 31 32  2  0  0  0  0
 32 33  1  0  0  0  0
 33 37  1  0  0  0  0
 34 33  2  0  0  0  0
 35 29  1  0  0  0  0
 36 30  1  0  0  0  0
M  END
>  <minimizedAffinity>
-5.14535618

$$$$

 OpenBabel03252508223D

 37 39  0  0  0  0  0  0  0  0999 V2000
   36.1890   28.1590   40.9580 C   0  0  0  0  0  0  0  0  0  0  0  0
   35.4000   29.2070   40.5270 C   0  0  0  0  0  0  0  0  0  0  0  0
   34.8460   29.3000   39.2630 C   0  0  0  0  0  0  0  0  0  0  0  0
   35.1260   28.2460   38.4020 C   0  0  0  0  0  0  0  0  0  0  0  0
   35.9100   27.1930   38.8170 C   0  0  0  0  0  0  0  0  0  0  0  0
   36.4560   27.1040   40.0620 C   0  0  0  0  0  0  0  0  0  0  0  0
   35.2040   30.0100   41.2240 H   0  0  0  0  0  0  0  0  0  0  0  0
   34.2400   30.1280   38.9640 H   0  0  0  0  0  0  0  0  0  0  0  0
   34.7100   28.2850   37.4100 H   0  0  0  0  0  0  0  0  0  0  0  0
   36.0850   26.4060   38.0860 H   0  0  0  0  0  0  0  0  0  0  0  0
   38.6040   26.0040   39.9590 C   0  0  0  0  0  0  0  0  0  0  0  0
   37.2690   25.9340   40.3770 C   0  0  0  0  0  0  0  0  0  0  0  0
   36.7960   24.8100   41.0430 C   0  0  0  0  0  0  0  0  0  0  0  0
   35.7490   24.8040   41.3490 H   0  0  0  0  0  0  0  0  0  0  0  0
   37.6330   23.7380   41.3060 C   0  0  0  0  0  0  0  0  0  0  0  0
   37.2790   22.8590   41.8220 H   0  0  0  0  0  0  0  0  0  0  0  0
   38.9630   23.7630   40.9090 C   0  0  0  0  0  3  0  0  0  0  0  0
   39.3880   24.8990   40.2520 C   0  0  0  0  0  3  0  0  0  0  0  0
   38.3860   28.4270   39.2640 H   0  0  0  0  0  0  0  0  0  0  0  0
   39.2680   27.3800   39.1190 S   0  0  0  0  0  0  0  0  0  0  0  0
   39.2940   27.0370   37.6480 O   0  0  0  0  0  0  0  0  0  0  0  0
   40.6110   27.7880   39.6210 O   0  0  0  0  0  0  0  0  0  0  0  0
   36.7870   28.0600   42.3070 C   0  0  0  0  0  0  0  0  0  0  0  0
   37.3210   27.0630   42.3060 H   0  0  0  0  0  0  0  0  0  0  0  0
   36.0830   28.0380   43.1350 H   0  0  0  0  0  0  0  0  0  0  0  0
   37.9120   29.0760   42.4700 C   0  0  0  0  0  0  0  0  0  0  0  0
   38.0640   29.5390   41.4750 H   0  0  0  0  0  0  0  0  0  0  0  0
   37.6410   29.7910   43.2700 H   0  0  0  0  0  0  0  0  0  0  0  0
   40.1930   26.3340   43.6800 C   0  0  0  0  0  0  0  0  0  0  0  0
   39.0150   27.0270   43.3100 C   0  0  0  0  0  0  0  0  0  0  0  0
   39.1410   28.3310   42.8620 C   0  0  0  0  0  0  0  0  0  0  0  0
   40.4010   28.8810   42.8010 N   0  0  0  0  0  0  0  0  0  0  0  0
   41.4890   28.1890   43.1590 C   0  0  0  0  0  0  0  0  0  0  0  0
   41.4030   26.9170   43.6000 N   0  0  0  0  0  0  0  0  0  0  0  0
   40.0690   25.3140   44.0270 H   0  0  0  0  0  0  0  0  0  0  0  0
   38.0450   26.5450   43.3780 H   0  0  0  0  0  0  0  0  0  0  0  0
   42.4110   28.7580   43.0550 H   0  0  0  0  0  0  0  0  0  0  0  0
  1 23  1  0  0  0  0
  2  1  1  0  0  0  0
  2  7  1  0  0  0  0
  3  2  2  0  0  0  0
  4  5  2  0  0  0  0
  4  3  1  0  0  0  0
  5  6  1  0  0  0  0
  6 12  1  0  0  0  0
  6  1  2  0  0  0  0
  8  3  1  0  0  0  0
  9  4  1  0  0  0  0
 10  5  1  0  0  0  0
 11 18  2  0  0  0  0
 11 12  1  0  0  0  0
 12 13  2  0  0  0  0
 13 15  1  0  0  0  0
 13 14  1  0  0  0  0
 15 16  1  0  0  0  0
 17 15  2  0  0  0  0
 18 17  1  0  0  0  0
 20 19  1  0  0  0  0
 20 22  2  0  0  0  0
 20 11  1  0  0  0  0
 21 20  2  0  0  0  0
 23 26  1  0  0  0  0
 23 25  1  0  0  0  0
 24 23  1  0  0  0  0
 26 31  1  0  0  0  0
 26 28  1  0  0  0  0
 27 26  1  0  0  0  0
 29 35  1  0  0  0  0
 30 36  1  0  0  0  0
 30 29  2  0  0  0  0
 31 30  1  0  0  0  0
 32 31  2  0  0  0  0
 32 33  1  0  0  0  0
 33 34  2  0  0  0  0
 34 29  1  0  0  0  0
 37 33  1  0  0  0  0
M  END
>  <minimizedAffinity>
-5.11873055

$$$$
