
 OpenBabel03252508423D

 31 33  0  0  0  0  0  0  0  0999 V2000
   47.3620   33.8070   42.6350 C   0  0  0  0  0  0  0  0  0  0  0  0
   46.7160   34.1280   41.4720 C   0  0  0  0  0  0  0  0  0  0  0  0
   45.4980   34.7620   41.5010 C   0  0  0  0  0  0  0  0  0  0  0  0
   44.9440   35.0680   42.7400 C   0  0  0  0  0  0  0  0  0  0  0  0
   45.5510   34.7660   43.9390 C   0  0  0  0  0  0  0  0  0  0  0  0
   46.7940   34.1180   43.8440 C   0  0  0  0  0  0  0  0  0  0  0  0
   44.9270   35.0490   40.6320 H   0  0  0  0  0  0  0  0  0  0  0  0
   43.9850   35.5670   42.7830 H   0  0  0  0  0  0  0  0  0  0  0  0
   45.1580   34.9840   44.9050 H   0  0  0  0  0  0  0  0  0  0  0  0
   47.3690   33.8290   44.7190 H   0  0  0  0  0  0  0  0  0  0  0  0
   51.0590   33.0740   42.3230 C   0  0  0  0  0  0  0  0  0  0  0  0
   49.8710   33.8150   42.4330 C   0  0  0  0  0  0  0  0  0  0  0  0
   48.6460   33.1400   42.5180 C   0  0  0  0  0  0  0  0  0  0  0  0
   48.6990   31.7970   42.4880 N   0  0  0  0  0  0  0  0  0  0  0  0
   49.8370   31.0770   42.3830 C   0  0  0  0  0  0  0  0  0  0  0  0
   51.0200   31.7170   42.3000 N   0  0  0  0  0  0  0  0  0  0  0  0
   52.0060   33.5900   42.2550 H   0  0  0  0  0  0  0  0  0  0  0  0
   49.8580   34.8810   42.4550 H   0  0  0  0  0  0  0  0  0  0  0  0
   49.7800   29.9880   42.3650 H   0  0  0  0  0  0  0  0  0  0  0  0
   46.7930   32.7680   39.4030 C   0  0  0  0  0  0  0  0  0  0  0  0
   47.1950   33.8680   40.1120 C   0  0  0  0  0  0  0  0  0  0  0  0
   48.0840   34.7530   39.4950 C   0  0  0  0  0  0  0  0  0  0  0  0
   48.4420   35.6400   39.9860 H   0  0  0  0  0  0  0  0  0  0  0  0
   48.5130   34.4820   38.2090 C   0  0  0  0  0  0  0  0  0  0  0  0
   49.2140   35.1810   37.7270 H   0  0  0  0  0  0  0  0  0  0  0  0
   48.0990   33.3700   37.5080 C   0  0  0  0  0  0  0  0  0  0  0  0
   47.2100   32.4750   38.1110 C   0  0  0  0  0  0  0  0  0  0  0  0
   45.1590   32.0570   41.3020 H   0  0  0  0  0  0  0  0  0  0  0  0
   45.6920   31.6400   40.1320 S   0  0  0  0  0  0  0  0  0  0  0  0
   44.5650   31.3620   39.1770 O   0  0  0  0  0  0  0  0  0  0  0  0
   46.3620   30.3070   40.4100 O   0  0  0  0  0  0  0  0  0  0  0  0
  1  6  1  0  0  0  0
  2  3  1  0  0  0  0
  2  1  2  0  0  0  0
  3  4  2  0  0  0  0
  4  8  1  0  0  0  0
  4  5  1  0  0  0  0
  5  9  1  0  0  0  0
  6  5  2  0  0  0  0
  6 10  1  0  0  0  0
  7  3  1  0  0  0  0
 11 12  1  0  0  0  0
 12 18  1  0  0  0  0
 12 13  2  0  0  0  0
 13  1  1  0  0  0  0
 14 13  1  0  0  0  0
 15 14  2  0  0  0  0
 16 11  2  0  0  0  0
 16 15  1  0  0  0  0
 17 11  1  0  0  0  0
 19 15  1  0  0  0  0
 20 21  1  0  0  0  0
 20 29  1  0  0  0  0
 21  2  1  0  0  0  0
 22 23  1  0  0  0  0
 22 21  2  0  0  0  0
 24 22  1  0  0  0  0
 25 24  1  0  0  0  0
 26 27  1  0  0  0  0
 26 24  2  0  0  0  0
 27 20  2  0  0  0  0
 29 31  2  0  0  0  0
 29 28  1  0  0  0  0
 30 29  2  0  0  0  0
M  END
>  <minimizedAffinity>
-4.53964472

>  <minimizedRMSD>
5.69499207

$$$$
