
 OpenBabel03242516013D

 31 33  0  0  0  0  0  0  0  0999 V2000
   38.3850   28.1180   39.5270 Cl  0  0  0  0  0  0  0  0  0  0  0  0
   37.7660   27.9900   41.1640 C   0  0  0  0  0  0  0  0  0  0  0  0
   37.5820   29.0960   41.9490 C   0  0  0  0  0  0  0  0  0  0  0  0
   37.0940   28.8680   43.2070 C   0  0  0  0  0  0  0  0  0  0  0  0
   36.8010   27.6200   43.6800 C   0  0  0  0  0  0  0  0  0  0  0  0
   36.9870   26.5240   42.8910 C   0  0  0  0  0  0  0  0  0  0  0  0
   37.4760   26.7190   41.6200 C   0  0  0  0  0  0  0  0  0  0  0  0
   36.9390   29.7340   43.8510 H   0  0  0  0  0  0  0  0  0  0  0  0
   36.4190   27.5250   44.6870 H   0  0  0  0  0  0  0  0  0  0  0  0
   36.7580   25.5200   43.2510 H   0  0  0  0  0  0  0  0  0  0  0  0
   37.3270   32.4220   40.1640 C   0  0  0  0  0  0  0  0  0  0  0  0
   36.9760   31.1620   40.6790 C   0  0  0  0  0  0  0  0  0  0  0  0
   37.9100   30.4030   41.4000 C   0  0  0  0  0  0  0  0  0  0  0  0
   39.1390   30.9440   41.5640 N   0  0  0  0  0  0  0  0  0  0  0  0
   39.4470   32.1530   41.0590 C   0  0  0  0  0  0  0  0  0  0  0  0
   38.5680   32.8910   40.3690 N   0  0  0  0  0  0  0  0  0  0  0  0
   36.6160   33.0160   39.6070 H   0  0  0  0  0  0  0  0  0  0  0  0
   35.9780   30.7720   40.5210 H   0  0  0  0  0  0  0  0  0  0  0  0
   40.4760   32.4430   41.2800 H   0  0  0  0  0  0  0  0  0  0  0  0
   38.8650   24.8480   40.7300 C   0  0  0  0  0  0  0  0  0  0  0  0
   37.6800   25.5460   40.7660 C   0  0  0  0  0  0  0  0  0  0  0  0
   36.5740   25.1880   39.9880 C   0  0  0  0  0  0  0  0  0  0  0  0
   35.6350   25.7260   40.0050 H   0  0  0  0  0  0  0  0  0  0  0  0
   36.7590   24.0820   39.1790 C   0  0  0  0  0  0  0  0  0  0  0  0
   35.9060   23.7910   38.5680 H   0  0  0  0  0  0  0  0  0  0  0  0
   37.9200   23.3420   39.0980 C   0  0  0  0  0  3  0  0  0  0  0  0
   38.9930   23.7450   39.8970 C   0  0  0  0  0  3  0  0  0  0  0  0
   40.0540   26.6630   42.1480 H   0  0  0  0  0  0  0  0  0  0  0  0
   40.2070   25.3810   41.7510 S   0  0  0  0  0  0  0  0  0  0  0  0
   41.4590   25.1640   40.9310 O   0  0  0  0  0  0  0  0  0  0  0  0
   40.2230   24.4170   42.9310 O   0  0  0  0  0  0  0  0  0  0  0  0
  1  2  1  0  0  0  0
  2  7  2  0  0  0  0
  2  3  1  0  0  0  0
  3  4  2  0  0  0  0
  4  5  1  0  0  0  0
  4  8  1  0  0  0  0
  5  9  1  0  0  0  0
  6 10  1  0  0  0  0
  6  5  2  0  0  0  0
  7  6  1  0  0  0  0
 11 16  2  0  0  0  0
 11 12  1  0  0  0  0
 12 13  2  0  0  0  0
 13 14  1  0  0  0  0
 13  3  1  0  0  0  0
 15 19  1  0  0  0  0
 15 14  2  0  0  0  0
 16 15  1  0  0  0  0
 17 11  1  0  0  0  0
 18 12  1  0  0  0  0
 20 21  1  0  0  0  0
 20 29  1  0  0  0  0
 21  7  1  0  0  0  0
 22 23  1  0  0  0  0
 22 21  2  0  0  0  0
 24 22  1  0  0  0  0
 25 24  1  0  0  0  0
 26 24  2  0  0  0  0
 26 27  1  0  0  0  0
 27 20  2  0  0  0  0
 29 28  1  0  0  0  0
 29 31  2  0  0  0  0
 30 29  2  0  0  0  0
M  END
>  <minimizedAffinity>
-5.33098841

$$$$

 OpenBabel03242516013D

 31 33  0  0  0  0  0  0  0  0999 V2000
   39.2570   27.3390   40.0980 Cl  0  0  0  0  0  0  0  0  0  0  0  0
   38.1930   27.4170   41.4910 C   0  0  0  0  0  0  0  0  0  0  0  0
   37.3770   26.3720   41.8290 C   0  0  0  0  0  0  0  0  0  0  0  0
   36.5930   26.5520   42.9350 C   0  0  0  0  0  0  0  0  0  0  0  0
   36.6030   27.6990   43.6790 C   0  0  0  0  0  0  0  0  0  0  0  0
   37.4190   28.7350   43.3360 C   0  0  0  0  0  0  0  0  0  0  0  0
   38.2210   28.5850   42.2280 C   0  0  0  0  0  0  0  0  0  0  0  0
   35.9330   25.7330   43.2240 H   0  0  0  0  0  0  0  0  0  0  0  0
   35.9520   27.7620   44.5410 H   0  0  0  0  0  0  0  0  0  0  0  0
   37.4410   29.6570   43.9180 H   0  0  0  0  0  0  0  0  0  0  0  0
   38.1140   22.8830   40.5650 C   0  0  0  0  0  0  0  0  0  0  0  0
   38.1130   24.0240   41.3850 C   0  0  0  0  0  0  0  0  0  0  0  0
   37.4020   25.1730   41.0040 C   0  0  0  0  0  0  0  0  0  0  0  0
   36.7350   25.1160   39.8290 N   0  0  0  0  0  0  0  0  0  0  0  0
   36.7550   24.0090   39.0640 C   0  0  0  0  0  0  0  0  0  0  0  0
   37.4280   22.9040   39.4110 N   0  0  0  0  0  0  0  0  0  0  0  0
   38.6580   21.9920   40.8470 H   0  0  0  0  0  0  0  0  0  0  0  0
   38.6620   24.0210   42.3190 H   0  0  0  0  0  0  0  0  0  0  0  0
   36.1680   24.1270   38.1510 H   0  0  0  0  0  0  0  0  0  0  0  0
   38.7470   30.6430   40.9200 C   0  0  0  0  0  0  0  0  0  0  0  0
   39.1010   29.6940   41.8510 C   0  0  0  0  0  0  0  0  0  0  0  0
   40.3320   29.7150   42.5140 C   0  0  0  0  0  0  0  0  0  0  0  0
   40.6260   28.9770   43.2490 H   0  0  0  0  0  0  0  0  0  0  0  0
   41.1700   30.7590   42.1630 C   0  0  0  0  0  0  0  0  0  0  0  0
   42.1320   30.7890   42.6720 H   0  0  0  0  0  0  0  0  0  0  0  0
   40.8740   31.7390   41.2390 C   0  0  0  0  0  3  0  0  0  0  0  0
   39.6290   31.6680   40.6080 C   0  0  0  0  0  3  0  0  0  0  0  0
   36.8570   29.2530   39.8180 H   0  0  0  0  0  0  0  0  0  0  0  0
   37.1660   30.5290   40.1360 S   0  0  0  0  0  0  0  0  0  0  0  0
   37.2420   31.4340   38.9270 O   0  0  0  0  0  0  0  0  0  0  0  0
   36.1780   31.1240   41.1310 O   0  0  0  0  0  0  0  0  0  0  0  0
  1  2  1  0  0  0  0
  2  3  2  0  0  0  0
  2  7  1  0  0  0  0
  3  4  1  0  0  0  0
  4  8  1  0  0  0  0
  4  5  2  0  0  0  0
  5  9  1  0  0  0  0
  6  5  1  0  0  0  0
  6 10  1  0  0  0  0
  7  6  2  0  0  0  0
 11 17  1  0  0  0  0
 11 12  1  0  0  0  0
 12 18  1  0  0  0  0
 13 12  2  0  0  0  0
 13  3  1  0  0  0  0
 14 13  1  0  0  0  0
 15 16  1  0  0  0  0
 15 14  2  0  0  0  0
 16 11  2  0  0  0  0
 19 15  1  0  0  0  0
 20 21  1  0  0  0  0
 21  7  1  0  0  0  0
 21 22  2  0  0  0  0
 22 23  1  0  0  0  0
 24 22  1  0  0  0  0
 24 25  1  0  0  0  0
 26 24  2  0  0  0  0
 27 20  2  0  0  0  0
 27 26  1  0  0  0  0
 28 29  1  0  0  0  0
 29 20  1  0  0  0  0
 29 31  2  0  0  0  0
 30 29  2  0  0  0  0
M  END
>  <minimizedAffinity>
-5.28922129

$$$$

 OpenBabel03242516013D

 31 33  0  0  0  0  0  0  0  0999 V2000
   38.2860   28.2190   39.4350 Cl  0  0  0  0  0  0  0  0  0  0  0  0
   37.7690   27.9490   41.0890 C   0  0  0  0  0  0  0  0  0  0  0  0
   37.4940   26.6920   41.5580 C   0  0  0  0  0  0  0  0  0  0  0  0
   37.0990   26.6100   42.8660 C   0  0  0  0  0  0  0  0  0  0  0  0
   36.9770   27.7010   43.6800 C   0  0  0  0  0  0  0  0  0  0  0  0
   37.2540   28.9480   43.2050 C   0  0  0  0  0  0  0  0  0  0  0  0
   37.6540   29.0650   41.8940 C   0  0  0  0  0  0  0  0  0  0  0  0
   36.8730   25.6190   43.2620 H   0  0  0  0  0  0  0  0  0  0  0  0
   36.6590   27.5500   44.7020 H   0  0  0  0  0  0  0  0  0  0  0  0
   37.1630   29.8300   43.8400 H   0  0  0  0  0  0  0  0  0  0  0  0
   36.7480   24.0130   38.9950 C   0  0  0  0  0  0  0  0  0  0  0  0
   36.5730   25.1050   39.8610 C   0  0  0  0  0  0  0  0  0  0  0  0
   37.6370   25.5630   40.6520 C   0  0  0  0  0  0  0  0  0  0  0  0
   38.8140   24.9040   40.5330 N   0  0  0  0  0  0  0  0  0  0  0  0
   38.9510   23.8610   39.6950 C   0  0  0  0  0  0  0  0  0  0  0  0
   37.9460   23.4100   38.9320 N   0  0  0  0  0  0  0  0  0  0  0  0
   35.9350   23.6500   38.3800 H   0  0  0  0  0  0  0  0  0  0  0  0
   35.6120   25.6010   39.9200 H   0  0  0  0  0  0  0  0  0  0  0  0
   39.9590   23.4430   39.7180 H   0  0  0  0  0  0  0  0  0  0  0  0
   39.1920   30.9870   41.4910 C   0  0  0  0  0  0  0  0  0  0  0  0
   37.9520   30.4030   41.3750 C   0  0  0  0  0  0  0  0  0  0  0  0
   36.8760   31.0430   40.7520 C   0  0  0  0  0  0  0  0  0  0  0  0
   35.8950   30.5970   40.6530 H   0  0  0  0  0  0  0  0  0  0  0  0
   37.1490   32.3070   40.2610 C   0  0  0  0  0  0  0  0  0  0  0  0
   36.3210   32.8170   39.7720 H   0  0  0  0  0  0  0  0  0  0  0  0
   38.3690   32.9460   40.3450 C   0  0  0  0  0  3  0  0  0  0  0  0
   39.4080   32.2590   40.9790 C   0  0  0  0  0  3  0  0  0  0  0  0
   40.0040   29.2090   43.1930 H   0  0  0  0  0  0  0  0  0  0  0  0
   40.4900   30.0960   42.2980 S   0  0  0  0  0  0  0  0  0  0  0  0
   41.3760   31.1450   42.9300 O   0  0  0  0  0  0  0  0  0  0  0  0
   41.2650   29.4110   41.1790 O   0  0  0  0  0  0  0  0  0  0  0  0
  1  2  1  0  0  0  0
  2  3  2  0  0  0  0
  2  7  1  0  0  0  0
  3  4  1  0  0  0  0
  4  8  1  0  0  0  0
  4  5  2  0  0  0  0
  5  9  1  0  0  0  0
  6  5  1  0  0  0  0
  6 10  1  0  0  0  0
  7  6  2  0  0  0  0
 11 12  1  0  0  0  0
 12 18  1  0  0  0  0
 12 13  2  0  0  0  0
 13  3  1  0  0  0  0
 14 13  1  0  0  0  0
 15 19  1  0  0  0  0
 15 14  2  0  0  0  0
 16 11  2  0  0  0  0
 16 15  1  0  0  0  0
 17 11  1  0  0  0  0
 20 29  1  0  0  0  0
 21 20  1  0  0  0  0
 21  7  1  0  0  0  0
 22 21  2  0  0  0  0
 23 22  1  0  0  0  0
 24 26  2  0  0  0  0
 24 22  1  0  0  0  0
 25 24  1  0  0  0  0
 26 27  1  0  0  0  0
 27 20  2  0  0  0  0
 29 30  2  0  0  0  0
 29 28  1  0  0  0  0
 31 29  2  0  0  0  0
M  END
>  <minimizedAffinity>
-5.19027138

$$$$

 OpenBabel03242516013D

 31 33  0  0  0  0  0  0  0  0999 V2000
   39.5010   28.4590   39.2540 Cl  0  0  0  0  0  0  0  0  0  0  0  0
   38.1780   29.4730   39.8030 C   0  0  0  0  0  0  0  0  0  0  0  0
   38.2530   30.8390   39.7500 C   0  0  0  0  0  0  0  0  0  0  0  0
   37.1580   31.5200   40.2070 C   0  0  0  0  0  0  0  0  0  0  0  0
   36.0420   30.9000   40.6940 C   0  0  0  0  0  0  0  0  0  0  0  0
   35.9760   29.5400   40.7430 C   0  0  0  0  0  0  0  0  0  0  0  0
   37.0610   28.8250   40.2900 C   0  0  0  0  0  0  0  0  0  0  0  0
   37.1940   32.6100   40.1760 H   0  0  0  0  0  0  0  0  0  0  0  0
   35.2180   31.5120   41.0370 H   0  0  0  0  0  0  0  0  0  0  0  0
   35.0940   29.0280   41.1280 H   0  0  0  0  0  0  0  0  0  0  0  0
   41.6820   32.4170   39.5130 C   0  0  0  0  0  0  0  0  0  0  0  0
   40.5270   31.8300   40.0560 C   0  0  0  0  0  0  0  0  0  0  0  0
   39.4640   31.4510   39.2230 C   0  0  0  0  0  0  0  0  0  0  0  0
   39.6140   31.6810   37.8980 N   0  0  0  0  0  0  0  0  0  0  0  0
   40.7320   32.2450   37.4070 C   0  0  0  0  0  0  0  0  0  0  0  0
   41.7580   32.6130   38.1870 N   0  0  0  0  0  0  0  0  0  0  0  0
   42.5090   32.7130   40.1450 H   0  0  0  0  0  0  0  0  0  0  0  0
   40.4540   31.6660   41.1240 H   0  0  0  0  0  0  0  0  0  0  0  0
   40.6950   32.3610   36.3230 H   0  0  0  0  0  0  0  0  0  0  0  0
   37.4670   26.6320   41.4080 C   0  0  0  0  0  0  0  0  0  0  0  0
   36.9980   27.3620   40.3400 C   0  0  0  0  0  0  0  0  0  0  0  0
   36.4250   26.7620   39.2140 C   0  0  0  0  0  0  0  0  0  0  0  0
   36.0520   27.3210   38.3660 H   0  0  0  0  0  0  0  0  0  0  0  0
   36.3630   25.3810   39.2530 C   0  0  0  0  0  0  0  0  0  0  0  0
   35.9180   24.8990   38.3840 H   0  0  0  0  0  0  0  0  0  0  0  0
   36.8140   24.5930   40.2920 C   0  0  0  0  0  3  0  0  0  0  0  0
   37.3780   25.2470   41.3900 C   0  0  0  0  0  3  0  0  0  0  0  0
   38.8770   28.5710   42.3930 H   0  0  0  0  0  0  0  0  0  0  0  0
   38.1770   27.4850   42.7850 S   0  0  0  0  0  0  0  0  0  0  0  0
   39.0290   26.4630   43.5040 O   0  0  0  0  0  0  0  0  0  0  0  0
   37.0010   27.8560   43.6790 O   0  0  0  0  0  0  0  0  0  0  0  0
  1  2  1  0  0  0  0
  2  7  1  0  0  0  0
  3  2  2  0  0  0  0
  3  4  1  0  0  0  0
  4  5  2  0  0  0  0
  5  6  1  0  0  0  0
  5  9  1  0  0  0  0
  6 10  1  0  0  0  0
  7 21  1  0  0  0  0
  7  6  2  0  0  0  0
  8  4  1  0  0  0  0
 11 12  1  0  0  0  0
 11 17  1  0  0  0  0
 12 18  1  0  0  0  0
 13  3  1  0  0  0  0
 13 12  2  0  0  0  0
 14 13  1  0  0  0  0
 15 14  2  0  0  0  0
 15 16  1  0  0  0  0
 16 11  2  0  0  0  0
 19 15  1  0  0  0  0
 20 29  1  0  0  0  0
 21 20  2  0  0  0  0
 22 24  2  0  0  0  0
 22 21  1  0  0  0  0
 23 22  1  0  0  0  0
 24 26  1  0  0  0  0
 25 24  1  0  0  0  0
 26 27  2  0  0  0  0
 27 20  1  0  0  0  0
 28 29  1  0  0  0  0
 29 30  2  0  0  0  0
 29 31  2  0  0  0  0
M  END
>  <minimizedAffinity>
-5.16642427

$$$$

 OpenBabel03242516013D

 31 33  0  0  0  0  0  0  0  0999 V2000
   40.2640   29.4750   40.5100 Cl  0  0  0  0  0  0  0  0  0  0  0  0
   39.0060   30.6690   40.2450 C   0  0  0  0  0  0  0  0  0  0  0  0
   39.2440   31.8150   39.5330 C   0  0  0  0  0  0  0  0  0  0  0  0
   38.1840   32.6690   39.3950 C   0  0  0  0  0  0  0  0  0  0  0  0
   36.9490   32.4200   39.9250 C   0  0  0  0  0  0  0  0  0  0  0  0
   36.7210   31.2770   40.6320 C   0  0  0  0  0  0  0  0  0  0  0  0
   37.7670   30.3960   40.7890 C   0  0  0  0  0  0  0  0  0  0  0  0
   38.3490   33.5890   38.8320 H   0  0  0  0  0  0  0  0  0  0  0  0
   36.1640   33.1470   39.7700 H   0  0  0  0  0  0  0  0  0  0  0  0
   35.7430   31.0610   41.0620 H   0  0  0  0  0  0  0  0  0  0  0  0
   42.2050   31.9070   37.1810 C   0  0  0  0  0  0  0  0  0  0  0  0
   40.9090   31.6790   37.6730 C   0  0  0  0  0  0  0  0  0  0  0  0
   40.5760   32.0340   38.9900 C   0  0  0  0  0  0  0  0  0  0  0  0
   41.5550   32.5950   39.7370 N   0  0  0  0  0  0  0  0  0  0  0  0
   42.7870   32.8000   39.2380 C   0  0  0  0  0  0  0  0  0  0  0  0
   43.1230   32.4680   37.9840 N   0  0  0  0  0  0  0  0  0  0  0  0
   42.4740   31.6380   36.1690 H   0  0  0  0  0  0  0  0  0  0  0  0
   40.1590   31.2280   37.0360 H   0  0  0  0  0  0  0  0  0  0  0  0
   43.4570   33.2590   39.9670 H   0  0  0  0  0  0  0  0  0  0  0  0
   37.1590   27.9830   40.9530 C   0  0  0  0  0  0  0  0  0  0  0  0
   37.5300   29.1650   41.5480 C   0  0  0  0  0  0  0  0  0  0  0  0
   37.7110   29.2860   42.9300 C   0  0  0  0  0  0  0  0  0  0  0  0
   38.0030   30.2090   43.4140 H   0  0  0  0  0  0  0  0  0  0  0  0
   37.4880   28.1290   43.6540 C   0  0  0  0  0  0  0  0  0  0  0  0
   37.6260   28.2070   44.7320 H   0  0  0  0  0  0  0  0  0  0  0  0
   37.1150   26.9140   43.1170 C   0  0  0  0  0  3  0  0  0  0  0  0
   36.9490   26.8530   41.7310 C   0  0  0  0  0  3  0  0  0  0  0  0
   36.6950   29.1560   38.6890 H   0  0  0  0  0  0  0  0  0  0  0  0
   36.9550   27.9320   39.1960 S   0  0  0  0  0  0  0  0  0  0  0  0
   35.8420   26.9410   38.9410 O   0  0  0  0  0  0  0  0  0  0  0  0
   38.2570   27.3550   38.6550 O   0  0  0  0  0  0  0  0  0  0  0  0
  2  1  1  0  0  0  0
  2  7  1  0  0  0  0
  3  2  2  0  0  0  0
  4  3  1  0  0  0  0
  4  5  2  0  0  0  0
  5  6  1  0  0  0  0
  6  7  2  0  0  0  0
  6 10  1  0  0  0  0
  7 21  1  0  0  0  0
  8  4  1  0  0  0  0
  9  5  1  0  0  0  0
 11 12  2  0  0  0  0
 11 16  1  0  0  0  0
 12 13  1  0  0  0  0
 13  3  1  0  0  0  0
 13 14  2  0  0  0  0
 15 14  1  0  0  0  0
 15 19  1  0  0  0  0
 16 15  2  0  0  0  0
 17 11  1  0  0  0  0
 18 12  1  0  0  0  0
 20 21  2  0  0  0  0
 20 27  1  0  0  0  0
 21 22  1  0  0  0  0
 22 23  1  0  0  0  0
 22 24  2  0  0  0  0
 24 25  1  0  0  0  0
 26 24  1  0  0  0  0
 27 26  2  0  0  0  0
 28 29  1  0  0  0  0
 29 20  1  0  0  0  0
 30 29  2  0  0  0  0
 31 29  2  0  0  0  0
M  END
>  <minimizedAffinity>
-5.15836048

$$$$

 OpenBabel03242516013D

 31 33  0  0  0  0  0  0  0  0999 V2000
   39.5820   27.6440   40.0820 Cl  0  0  0  0  0  0  0  0  0  0  0  0
   38.4890   27.5970   41.4540 C   0  0  0  0  0  0  0  0  0  0  0  0
   38.9060   27.1750   42.6880 C   0  0  0  0  0  0  0  0  0  0  0  0
   37.9620   27.1830   43.6780 C   0  0  0  0  0  0  0  0  0  0  0  0
   36.6710   27.5830   43.4760 C   0  0  0  0  0  0  0  0  0  0  0  0
   36.2640   28.0030   42.2450 C   0  0  0  0  0  0  0  0  0  0  0  0
   37.1910   28.0070   41.2270 C   0  0  0  0  0  0  0  0  0  0  0  0
   38.2700   26.8510   44.6700 H   0  0  0  0  0  0  0  0  0  0  0  0
   35.9850   27.5600   44.3130 H   0  0  0  0  0  0  0  0  0  0  0  0
   35.2390   28.3260   42.0650 H   0  0  0  0  0  0  0  0  0  0  0  0
   42.6190   27.2140   43.4080 C   0  0  0  0  0  0  0  0  0  0  0  0
   41.2920   27.6520   43.2590 C   0  0  0  0  0  0  0  0  0  0  0  0
   40.2910   26.7580   42.8510 C   0  0  0  0  0  0  0  0  0  0  0  0
   40.6710   25.4810   42.6160 N   0  0  0  0  0  0  0  0  0  0  0  0
   41.9500   25.0910   42.7670 C   0  0  0  0  0  0  0  0  0  0  0  0
   42.9190   25.9300   43.1550 N   0  0  0  0  0  0  0  0  0  0  0  0
   43.4000   27.8930   43.7220 H   0  0  0  0  0  0  0  0  0  0  0  0
   41.0370   28.6850   43.4610 H   0  0  0  0  0  0  0  0  0  0  0  0
   42.0890   24.0330   42.5370 H   0  0  0  0  0  0  0  0  0  0  0  0
   36.8570   29.7640   39.4880 C   0  0  0  0  0  0  0  0  0  0  0  0
   36.7610   28.4550   39.8990 C   0  0  0  0  0  0  0  0  0  0  0  0
   36.2450   27.4460   39.0800 C   0  0  0  0  0  0  0  0  0  0  0  0
   36.1630   26.4120   39.3880 H   0  0  0  0  0  0  0  0  0  0  0  0
   35.8370   27.8610   37.8250 C   0  0  0  0  0  0  0  0  0  0  0  0
   35.4330   27.0870   37.1750 H   0  0  0  0  0  0  0  0  0  0  0  0
   35.9060   29.1560   37.3540 C   0  0  0  0  0  3  0  0  0  0  0  0
   36.4300   30.1220   38.2170 C   0  0  0  0  0  3  0  0  0  0  0  0
   37.2600   30.6560   41.8880 H   0  0  0  0  0  0  0  0  0  0  0  0
   37.5240   30.9670   40.6010 S   0  0  0  0  0  0  0  0  0  0  0  0
   36.9250   32.2900   40.1800 O   0  0  0  0  0  0  0  0  0  0  0  0
   39.0200   30.9940   40.3150 O   0  0  0  0  0  0  0  0  0  0  0  0
  1  2  1  0  0  0  0
  2  3  1  0  0  0  0
  3 13  1  0  0  0  0
  3  4  2  0  0  0  0
  4  8  1  0  0  0  0
  5  4  1  0  0  0  0
  5  9  1  0  0  0  0
  6  5  2  0  0  0  0
  7  2  2  0  0  0  0
  7  6  1  0  0  0  0
 10  6  1  0  0  0  0
 11 17  1  0  0  0  0
 12 11  1  0  0  0  0
 12 18  1  0  0  0  0
 13 12  2  0  0  0  0
 14 15  2  0  0  0  0
 14 13  1  0  0  0  0
 15 16  1  0  0  0  0
 16 11  2  0  0  0  0
 19 15  1  0  0  0  0
 20 21  1  0  0  0  0
 20 29  1  0  0  0  0
 21  7  1  0  0  0  0
 22 23  1  0  0  0  0
 22 21  2  0  0  0  0
 24 22  1  0  0  0  0
 25 24  1  0  0  0  0
 26 24  2  0  0  0  0
 26 27  1  0  0  0  0
 27 20  2  0  0  0  0
 29 28  1  0  0  0  0
 30 29  2  0  0  0  0
 31 29  2  0  0  0  0
M  END
>  <minimizedAffinity>
-5.14746475

$$$$

 OpenBabel03242516013D

 31 33  0  0  0  0  0  0  0  0999 V2000
   40.0440   26.3520   40.8600 Cl  0  0  0  0  0  0  0  0  0  0  0  0
   38.7490   26.8360   41.9400 C   0  0  0  0  0  0  0  0  0  0  0  0
   37.5340   26.2030   41.9310 C   0  0  0  0  0  0  0  0  0  0  0  0
   36.6050   26.6700   42.8190 C   0  0  0  0  0  0  0  0  0  0  0  0
   36.8450   27.7070   43.6770 C   0  0  0  0  0  0  0  0  0  0  0  0
   38.0570   28.3320   43.6790 C   0  0  0  0  0  0  0  0  0  0  0  0
   39.0140   27.8850   42.7970 C   0  0  0  0  0  0  0  0  0  0  0  0
   35.6290   26.1820   42.8310 H   0  0  0  0  0  0  0  0  0  0  0  0
   36.0560   28.0170   44.3480 H   0  0  0  0  0  0  0  0  0  0  0  0
   38.2670   29.1600   44.3560 H   0  0  0  0  0  0  0  0  0  0  0  0
   36.4890   24.2020   38.8960 C   0  0  0  0  0  0  0  0  0  0  0  0
   36.6700   25.2860   39.7730 C   0  0  0  0  0  0  0  0  0  0  0  0
   37.3270   25.1040   40.9990 C   0  0  0  0  0  0  0  0  0  0  0  0
   37.7660   23.8550   41.2780 N   0  0  0  0  0  0  0  0  0  0  0  0
   37.5780   22.8380   40.4190 C   0  0  0  0  0  0  0  0  0  0  0  0
   36.9520   22.9910   39.2440 N   0  0  0  0  0  0  0  0  0  0  0  0
   35.9830   24.3290   37.9480 H   0  0  0  0  0  0  0  0  0  0  0  0
   36.3010   26.2680   39.5040 H   0  0  0  0  0  0  0  0  0  0  0  0
   37.9900   21.8990   40.7930 H   0  0  0  0  0  0  0  0  0  0  0  0
   40.5690   29.6960   42.0720 C   0  0  0  0  0  0  0  0  0  0  0  0
   40.3200   28.5510   42.7930 C   0  0  0  0  0  0  0  0  0  0  0  0
   41.2960   27.9320   43.5790 C   0  0  0  0  0  0  0  0  0  0  0  0
   41.1160   27.0310   44.1520 H   0  0  0  0  0  0  0  0  0  0  0  0
   42.5310   28.5540   43.5790 C   0  0  0  0  0  0  0  0  0  0  0  0
   43.3020   28.0830   44.1880 H   0  0  0  0  0  0  0  0  0  0  0  0
   42.8430   29.7010   42.8800 C   0  0  0  0  0  3  0  0  0  0  0  0
   41.8290   30.2770   42.1110 C   0  0  0  0  0  3  0  0  0  0  0  0
   38.0890   29.7790   41.3230 H   0  0  0  0  0  0  0  0  0  0  0  0
   39.2670   30.4030   41.1060 S   0  0  0  0  0  0  0  0  0  0  0  0
   39.7260   30.3110   39.6680 O   0  0  0  0  0  0  0  0  0  0  0  0
   39.2170   31.8720   41.5100 O   0  0  0  0  0  0  0  0  0  0  0  0
  1  2  1  0  0  0  0
  2  7  1  0  0  0  0
  3  2  2  0  0  0  0
  3  4  1  0  0  0  0
  4  8  1  0  0  0  0
  4  5  2  0  0  0  0
  5  6  1  0  0  0  0
  5  9  1  0  0  0  0
  6 10  1  0  0  0  0
  7  6  2  0  0  0  0
 11 16  2  0  0  0  0
 11 12  1  0  0  0  0
 12 13  2  0  0  0  0
 13 14  1  0  0  0  0
 13  3  1  0  0  0  0
 15 19  1  0  0  0  0
 15 14  2  0  0  0  0
 16 15  1  0  0  0  0
 17 11  1  0  0  0  0
 18 12  1  0  0  0  0
 20 27  2  0  0  0  0
 20 21  1  0  0  0  0
 21  7  1  0  0  0  0
 21 22  2  0  0  0  0
 22 24  1  0  0  0  0
 22 23  1  0  0  0  0
 24 25  1  0  0  0  0
 26 24  2  0  0  0  0
 27 26  1  0  0  0  0
 29 28  1  0  0  0  0
 29 31  2  0  0  0  0
 29 20  1  0  0  0  0
 30 29  2  0  0  0  0
M  END
>  <minimizedAffinity>
-5.09125614

$$$$

 OpenBabel03242516013D

 31 33  0  0  0  0  0  0  0  0999 V2000
   40.1800   29.0650   40.6170 Cl  0  0  0  0  0  0  0  0  0  0  0  0
   38.7800   28.4780   41.4960 C   0  0  0  0  0  0  0  0  0  0  0  0
   37.5420   29.0370   41.3270 C   0  0  0  0  0  0  0  0  0  0  0  0
   36.5280   28.4940   42.0680 C   0  0  0  0  0  0  0  0  0  0  0  0
   36.7120   27.4530   42.9350 C   0  0  0  0  0  0  0  0  0  0  0  0
   37.9480   26.9020   43.0970 C   0  0  0  0  0  0  0  0  0  0  0  0
   38.9890   27.4260   42.3660 C   0  0  0  0  0  0  0  0  0  0  0  0
   35.5330   28.9220   41.9510 H   0  0  0  0  0  0  0  0  0  0  0  0
   35.8580   27.0810   43.4840 H   0  0  0  0  0  0  0  0  0  0  0  0
   38.1130   26.0720   43.7840 H   0  0  0  0  0  0  0  0  0  0  0  0
   37.0380   31.0270   38.1490 C   0  0  0  0  0  0  0  0  0  0  0  0
   37.1740   29.9350   39.0230 C   0  0  0  0  0  0  0  0  0  0  0  0
   37.3980   30.1440   40.3920 C   0  0  0  0  0  0  0  0  0  0  0  0
   37.4750   31.4290   40.8090 N   0  0  0  0  0  0  0  0  0  0  0  0
   37.3420   32.4540   39.9490 C   0  0  0  0  0  0  0  0  0  0  0  0
   37.1270   32.2740   38.6390 N   0  0  0  0  0  0  0  0  0  0  0  0
   36.8650   30.8800   37.0920 H   0  0  0  0  0  0  0  0  0  0  0  0
   37.1040   28.9240   38.6410 H   0  0  0  0  0  0  0  0  0  0  0  0
   37.4290   33.4230   40.4440 H   0  0  0  0  0  0  0  0  0  0  0  0
   40.7630   25.7690   41.7950 C   0  0  0  0  0  0  0  0  0  0  0  0
   40.3220   26.8400   42.5350 C   0  0  0  0  0  0  0  0  0  0  0  0
   41.1120   27.4560   43.5110 C   0  0  0  0  0  0  0  0  0  0  0  0
   40.7790   28.2990   44.1020 H   0  0  0  0  0  0  0  0  0  0  0  0
   42.3710   26.9080   43.6780 C   0  0  0  0  0  0  0  0  0  0  0  0
   42.9980   27.3770   44.4340 H   0  0  0  0  0  0  0  0  0  0  0  0
   42.8720   25.8360   42.9680 C   0  0  0  0  0  3  0  0  0  0  0  0
   42.0380   25.2610   42.0060 C   0  0  0  0  0  3  0  0  0  0  0  0
   38.8190   25.9700   40.0920 H   0  0  0  0  0  0  0  0  0  0  0  0
   39.6870   25.0590   40.5840 S   0  0  0  0  0  0  0  0  0  0  0  0
   38.9990   23.9030   41.2740 O   0  0  0  0  0  0  0  0  0  0  0  0
   40.6060   24.5050   39.5020 O   0  0  0  0  0  0  0  0  0  0  0  0
  1  2  1  0  0  0  0
  2  7  1  0  0  0  0
  3  2  2  0  0  0  0
  3  4  1  0  0  0  0
  4  5  2  0  0  0  0
  5  6  1  0  0  0  0
  5  9  1  0  0  0  0
  6 10  1  0  0  0  0
  7 21  1  0  0  0  0
  7  6  2  0  0  0  0
  8  4  1  0  0  0  0
 11 16  2  0  0  0  0
 11 12  1  0  0  0  0
 12 13  2  0  0  0  0
 13 14  1  0  0  0  0
 13  3  1  0  0  0  0
 15 19  1  0  0  0  0
 15 14  2  0  0  0  0
 16 15  1  0  0  0  0
 17 11  1  0  0  0  0
 18 12  1  0  0  0  0
 20 27  2  0  0  0  0
 20 21  1  0  0  0  0
 21 22  2  0  0  0  0
 22 24  1  0  0  0  0
 22 23  1  0  0  0  0
 24 25  1  0  0  0  0
 26 24  2  0  0  0  0
 27 26  1  0  0  0  0
 28 29  1  0  0  0  0
 29 30  2  0  0  0  0
 29 20  1  0  0  0  0
 31 29  2  0  0  0  0
M  END
>  <minimizedAffinity>
-5.02933741

$$$$

 OpenBabel03242516013D

 31 33  0  0  0  0  0  0  0  0999 V2000
   39.4300   28.0540   39.7070 Cl  0  0  0  0  0  0  0  0  0  0  0  0
   38.0590   29.0890   40.0640 C   0  0  0  0  0  0  0  0  0  0  0  0
   38.1170   30.4450   39.8810 C   0  0  0  0  0  0  0  0  0  0  0  0
   36.9840   31.1440   40.1950 C   0  0  0  0  0  0  0  0  0  0  0  0
   35.8460   30.5520   40.6650 C   0  0  0  0  0  0  0  0  0  0  0  0
   35.7950   29.2010   40.8420 C   0  0  0  0  0  0  0  0  0  0  0  0
   36.9190   28.4680   40.5360 C   0  0  0  0  0  0  0  0  0  0  0  0
   37.0070   32.2260   40.0580 H   0  0  0  0  0  0  0  0  0  0  0  0
   34.9920   31.1770   40.8890 H   0  0  0  0  0  0  0  0  0  0  0  0
   34.8960   28.7110   41.2160 H   0  0  0  0  0  0  0  0  0  0  0  0
   40.7640   31.8340   37.5640 C   0  0  0  0  0  0  0  0  0  0  0  0
   39.5590   31.2680   38.0130 C   0  0  0  0  0  0  0  0  0  0  0  0
   39.3530   31.0280   39.3800 C   0  0  0  0  0  0  0  0  0  0  0  0
   40.3600   31.3660   40.2180 N   0  0  0  0  0  0  0  0  0  0  0  0
   41.5030   31.9060   39.7590 C   0  0  0  0  0  0  0  0  0  0  0  0
   41.7180   32.1430   38.4580 N   0  0  0  0  0  0  0  0  0  0  0  0
   40.9360   32.0240   36.5130 H   0  0  0  0  0  0  0  0  0  0  0  0
   38.7820   31.0150   37.3030 H   0  0  0  0  0  0  0  0  0  0  0  0
   42.2110   32.1200   40.5620 H   0  0  0  0  0  0  0  0  0  0  0  0
   36.5250   26.1440   39.7210 C   0  0  0  0  0  0  0  0  0  0  0  0
   36.8740   27.0160   40.7260 C   0  0  0  0  0  0  0  0  0  0  0  0
   37.2130   26.5820   42.0110 C   0  0  0  0  0  0  0  0  0  0  0  0
   37.4900   27.2550   42.8130 H   0  0  0  0  0  0  0  0  0  0  0  0
   37.1720   25.2130   42.1990 C   0  0  0  0  0  0  0  0  0  0  0  0
   37.4350   24.8600   43.1950 H   0  0  0  0  0  0  0  0  0  0  0  0
   36.8310   24.2880   41.2330 C   0  0  0  0  0  3  0  0  0  0  0  0
   36.5010   24.7790   39.9680 C   0  0  0  0  0  3  0  0  0  0  0  0
   35.6760   28.0680   38.2050 H   0  0  0  0  0  0  0  0  0  0  0  0
   36.1110   26.7910   38.1270 S   0  0  0  0  0  0  0  0  0  0  0  0
   35.0730   25.8500   37.5590 O   0  0  0  0  0  0  0  0  0  0  0  0
   37.3840   26.6710   37.3000 O   0  0  0  0  0  0  0  0  0  0  0  0
  1  2  1  0  0  0  0
  2  7  1  0  0  0  0
  3  2  2  0  0  0  0
  3  4  1  0  0  0  0
  4  5  2  0  0  0  0
  5  6  1  0  0  0  0
  5  9  1  0  0  0  0
  6 10  1  0  0  0  0
  7 21  1  0  0  0  0
  7  6  2  0  0  0  0
  8  4  1  0  0  0  0
 11 12  2  0  0  0  0
 11 16  1  0  0  0  0
 12 13  1  0  0  0  0
 13  3  1  0  0  0  0
 13 14  2  0  0  0  0
 15 14  1  0  0  0  0
 15 19  1  0  0  0  0
 16 15  2  0  0  0  0
 17 11  1  0  0  0  0
 18 12  1  0  0  0  0
 20 27  2  0  0  0  0
 20 21  1  0  0  0  0
 21 22  2  0  0  0  0
 22 24  1  0  0  0  0
 22 23  1  0  0  0  0
 24 25  1  0  0  0  0
 26 24  2  0  0  0  0
 27 26  1  0  0  0  0
 29 28  1  0  0  0  0
 29 20  1  0  0  0  0
 30 29  2  0  0  0  0
 31 29  2  0  0  0  0
M  END
>  <minimizedAffinity>
-4.99052954

$$$$
