
     RDKit          3D

 48 51  0  0  0  0  0  0  0  0999 V2000
   47.8760   32.9473   41.9221 C   0  0  1  0  0  0  0  0  0  0  0  0
   47.6021   32.2896   40.6281 C   0  0  0  0  0  0  0  0  0  0  0  0
   48.6594   32.8165   39.6615 C   0  0  0  0  0  0  0  0  0  0  0  0
   48.3040   34.2824   39.4176 C   0  0  0  0  0  0  0  0  0  0  0  0
   48.1673   35.0919   40.6443 C   0  0  0  0  0  0  0  0  0  0  0  0
   47.6654   34.4471   41.8701 C   0  0  1  0  0  0  0  0  0  0  0  0
   45.4139   30.9647   43.9914 C   0  0  0  0  0  0  0  0  0  0  0  0
   46.1088   31.5277   42.9237 C   0  0  0  0  0  0  0  0  0  0  0  0
   47.1934   32.3784   43.0775 C   0  0  0  0  0  0  0  0  0  0  0  0
   47.5486   32.6386   44.3474 N   0  0  0  0  0  0  0  0  0  0  0  0
   46.8858   32.1013   45.3988 C   0  0  0  0  0  0  0  0  0  0  0  0
   45.8414   31.2822   45.2361 N   0  0  0  0  0  0  0  0  0  0  0  0
   46.2479   34.7887   42.1423 C   0  0  0  0  0  0  0  0  0  0  0  0
   45.7416   35.3341   43.3249 C   0  0  0  0  0  0  0  0  0  0  0  0
   44.3677   35.5867   43.3215 C   0  0  0  0  0  0  0  0  0  0  0  0
   43.6450   35.2905   42.1978 C   0  0  0  0  0  0  0  0  0  0  0  0
   44.1446   34.7574   41.0489 C   0  0  0  0  0  0  0  0  0  0  0  0
   45.4801   34.5130   41.0521 N   0  0  0  0  0  0  0  0  0  0  0  0
   48.9824   32.8516   42.1421 H   0  0  0  0  0  0  0  0  0  0  0  0
   46.6083   32.4648   40.2089 H   0  0  0  0  0  0  0  0  0  0  0  0
   47.7459   31.1837   40.7829 H   0  0  0  0  0  0  0  0  0  0  0  0
   48.5264   32.2841   38.7107 H   0  0  0  0  0  0  0  0  0  0  0  0
   49.6687   32.7304   40.0935 H   0  0  0  0  0  0  0  0  0  0  0  0
   49.1370   34.6849   38.7929 H   0  0  0  0  0  0  0  0  0  0  0  0
   47.4241   34.2526   38.7543 H   0  0  0  0  0  0  0  0  0  0  0  0
   49.1362   35.6094   40.8392 H   0  0  0  0  0  0  0  0  0  0  0  0
   47.4672   35.9459   40.4012 H   0  0  0  0  0  0  0  0  0  0  0  0
   48.2185   34.8515   42.7495 H   0  0  0  0  0  0  0  0  0  0  0  0
   44.5767   30.3096   43.7570 H   0  0  0  0  0  0  0  0  0  0  0  0
   45.7974   31.2984   41.9040 H   0  0  0  0  0  0  0  0  0  0  0  0
   47.1735   32.3122   46.4264 H   0  0  0  0  0  0  0  0  0  0  0  0
   46.4455   35.4951   44.0866 H   0  0  0  0  0  0  0  0  0  0  0  0
   43.9890   36.0069   44.2372 H   0  0  0  0  0  0  0  0  0  0  0  0
   42.6226   35.5674   42.3292 H   0  0  0  0  0  0  0  0  0  0  0  0
   42.1957   37.6546   39.9248 H   0  0  0  0  0  0  0  0  0  0  0  0
   41.6090   36.4535   40.2020 S   0  0  0  0  0  0  0  0  0  0  0  0
   41.3845   36.1986   41.6645 O   0  0  0  0  0  0  0  0  0  0  0  0
   40.1797   36.6277   39.6453 O   0  0  0  0  0  0  0  0  0  0  0  0
   42.2844   35.1358   39.3342 C   0  0  0  0  0  0  0  0  0  0  0  0
   43.3832   34.4934   39.8344 C   0  0  0  0  0  0  0  0  0  0  0  0
   43.8184   33.4022   39.0977 C   0  0  0  0  0  0  0  0  0  0  0  0
   44.6810   32.8274   39.3997 H   0  0  0  0  0  0  0  0  0  0  0  0
   43.2457   32.9404   37.9436 C   0  0  0  0  0  0  0  0  0  0  0  0
   43.6092   32.0856   37.3915 H   0  0  0  0  0  0  0  0  0  0  0  0
   42.1409   33.5853   37.4352 C   0  0  0  0  0  0  0  0  0  0  0  0
   41.6924   34.6710   38.1530 C   0  0  0  0  0  0  0  0  0  0  0  0
   41.5971   33.3267   36.5387 H   0  0  0  0  0  0  0  0  0  0  0  0
   40.8136   35.2195   37.7876 H   0  0  0  0  0  0  0  0  0  0  0  0
  1  9  1  0
  2  1  1  0
  3  2  1  0
  4  3  1  0
  4  5  1  0
  5  6  1  0
  6  1  1  0
  6 13  1  0
  7 12  2  0
  8  9  2  0
  8  7  1  0
  9 10  1  0
 10 11  2  0
 12 11  1  0
 13 14  2  0
 15 14  1  0
 16 15  2  0
 17 16  1  0
 18 17  2  0
 18 13  1  0
  1 19  1  1
  2 20  1  0
  2 21  1  0
  3 22  1  0
  3 23  1  0
  4 24  1  0
  4 25  1  0
  5 26  1  0
  5 27  1  0
  6 28  1  1
  7 29  1  0
  8 30  1  0
 11 31  1  0
 14 32  1  0
 15 33  1  0
 16 34  1  0
 35 36  1  0
 36 37  2  0
 36 38  2  0
 36 39  1  0
 39 40  2  0
 40 41  1  0
 41 42  1  0
 41 43  2  0
 43 44  1  0
 43 45  1  0
 45 46  2  0
 46 39  1  0
 45 47  1  0
 46 48  1  0
 17 40  1  0
M  ISO  8  19  13  20  13  21  13  22  13  23  13  24  13  25  13  26  13
M  ISO  8  27  13  28  13  29  14  30  14  31  14  32  14  33  14  34  14
M  ISO  3  35  12  42  15  44  16
M  END
>  <DihAtoms>  (1) 
15,16,39,38

>  <DihDeg>  (1) 
-30.21896029781062

$$$$
