
 OpenBabel03242520323D

 28 30  0  0  1  0  0  0  0  0999 V2000
   48.9840   33.9770   41.6670 C   0  0  1  0  0  0  0  0  0  0  0  0
   50.1190   33.6870   42.5500 C   0  0  0  0  0  0  0  0  0  0  0  0
   49.5620   32.6130   41.6660 C   0  0  2  0  0  0  0  0  0  0  0  0
   49.1790   34.6770   40.8290 H   0  0  0  0  0  0  0  0  0  0  0  0
   51.1230   34.1070   42.3380 H   0  0  0  0  0  0  0  0  0  0  0  0
   49.9000   33.7130   43.6390 H   0  0  0  0  0  0  0  0  0  0  0  0
   48.9550   31.8600   42.2330 H   0  0  0  0  0  0  0  0  0  0  0  0
   47.3550   33.9330   43.6260 C   0  0  0  0  0  0  0  0  0  0  0  0
   47.6460   34.2010   42.2620 C   0  0  0  0  0  0  0  0  0  0  0  0
   46.5910   34.6930   41.4670 C   0  0  0  0  0  0  0  0  0  0  0  0
   45.3640   34.8810   42.0490 N   0  0  0  0  0  0  0  0  0  0  0  0
   45.1440   34.6120   43.3430 C   0  0  0  0  0  0  0  0  0  0  0  0
   46.1420   34.1360   44.1340 N   0  0  0  0  0  0  0  0  0  0  0  0
   48.1820   33.5590   44.2010 H   0  0  0  0  0  0  0  0  0  0  0  0
   46.7300   34.9240   40.4190 H   0  0  0  0  0  0  0  0  0  0  0  0
   44.1480   34.7840   43.7320 H   0  0  0  0  0  0  0  0  0  0  0  0
   50.0080   31.8650   39.3780 C   0  0  0  0  0  0  0  0  0  0  0  0
   50.4900   32.0900   40.6730 C   0  0  0  0  0  0  0  0  0  0  0  0
   51.8230   31.7810   40.8600 C   0  0  0  0  0  0  0  0  0  0  0  0
   52.2200   31.9460   41.8520 H   0  0  0  0  0  0  0  0  0  0  0  0
   52.6560   31.2860   39.8790 C   0  0  0  0  0  0  0  0  0  0  0  0
   53.6850   31.0840   40.1550 H   0  0  0  0  0  0  0  0  0  0  0  0
   52.1340   31.0810   38.6180 C   0  0  0  0  0  3  0  0  0  0  0  0
   50.8130   31.3640   38.3500 C   0  0  0  0  0  3  0  0  0  0  0  0
   47.4790   31.9850   39.9540 H   0  0  0  0  0  0  0  0  0  0  0  0
   48.3620   32.1950   38.9630 S   0  0  0  0  0  0  0  0  0  0  0  0
   48.2250   33.5640   38.3140 O   0  0  0  0  0  0  0  0  0  0  0  0
   47.9430   31.2360   37.8530 O   0  0  0  0  0  0  0  0  0  0  0  0
  1  4  1  6  0  0  0
  1  9  1  0  0  0  0
  1  2  1  0  0  0  0
  2  6  1  0  0  0  0
  3  1  1  0  0  0  0
  3  7  1  1  0  0  0
  3  2  1  0  0  0  0
  5  2  1  0  0  0  0
  8 13  1  0  0  0  0
  8 14  1  0  0  0  0
  9  8  2  0  0  0  0
 10 11  2  0  0  0  0
 10  9  1  0  0  0  0
 11 12  1  0  0  0  0
 12 16  1  0  0  0  0
 12 13  2  0  0  0  0
 15 10  1  0  0  0  0
 17 18  1  0  0  0  0
 18 19  2  0  0  0  0
 18  3  1  0  0  0  0
 19 20  1  0  0  0  0
 21 22  1  0  0  0  0
 21 19  1  0  0  0  0
 23 21  2  0  0  0  0
 24 23  1  0  0  0  0
 24 17  2  0  0  0  0
 26 17  1  0  0  0  0
 26 25  1  0  0  0  0
 27 26  2  0  0  0  0
 28 26  2  0  0  0  0
M  END
>  <minimizedAffinity>
-3.90469146

>  <minimizedRMSD>
2.84713387

$$$$
