REMARK  Name = 
REMARK  3 active torsions:
REMARK  status: ('A' for Active; 'I' for Inactive)
REMARK    1  A    between atoms: C_1  and  O_7
REMARK    2  A    between atoms: C_5  and  C_16
REMARK    3  A    between atoms: S_12  and  C_15
REMARK                            x       y       z     vdW  Elec       q    Type
REMARK                         _______ _______ _______ _____ _____    ______ ____
ROOT
ATOM      1  C   UNL     1      46.333  32.778  47.871  0.00  0.00    +0.000 A 
ATOM      2  C   UNL     1      45.279  33.370  47.202  0.00  0.00    +0.000 A 
ATOM      3  C   UNL     1      44.011  33.452  47.739  0.00  0.00    +0.000 A 
ATOM      4  H   UNL     1      43.174  33.923  47.207  0.00  0.00    +0.000 HD
ATOM      5  C   UNL     1      43.784  32.915  49.008  0.00  0.00    +0.000 A 
ATOM      6  H   UNL     1      42.802  32.968  49.446  0.00  0.00    +0.000 HD
ATOM      7  C   UNL     1      44.781  32.308  49.741  0.00  0.00    +0.000 A 
ATOM      8  C   UNL     1      46.021  32.266  49.135  0.00  0.00    +0.000 A 
ENDROOT
BRANCH   2  13
ATOM      9  C   UNL     1      44.993  35.489  44.197  0.00  0.00    +0.000 A 
ATOM     10  C   UNL     1      45.982  34.925  43.344  0.00  0.00    +0.000 A 
ATOM     11  C   UNL     1      46.711  33.834  43.841  0.00  0.00    +0.000 A 
ATOM     12  N   UNL     1      46.442  33.381  45.082  0.00  0.00    +0.000 NA
ATOM     13  C   UNL     1      45.493  33.946  45.859  0.00  0.00    +0.000 A 
ATOM     14  N   UNL     1      44.786  34.984  45.411  0.00  0.00    +0.000 NA
ATOM     15  H   UNL     1      46.209  35.278  42.347  0.00  0.00    +0.000 HD
ATOM     16  H   UNL     1      47.479  33.347  43.261  0.00  0.00    +0.000 HD
BRANCH   9  17
ATOM     17  O   UNL     1      44.292  36.545  43.710  0.00  0.00    +0.000 OA
ATOM     18  H   UNL     1      44.669  37.462  43.550  0.00  0.00    +0.000 HD
ENDBRANCH   9  17
ENDBRANCH   2  13
BRANCH   1  20
ATOM     19  H   UNL     1      47.840  31.982  46.017  0.00  0.00    +0.000 HD
ATOM     20  S   UNL     1      47.922  32.675  47.199  0.00  0.00    +0.000 S 
ATOM     21  O   UNL     1      48.754  31.801  48.127  0.00  0.00    +0.000 OA
ATOM     22  O   UNL     1      48.625  33.972  47.099  0.00  0.00    +0.000 OA
ENDBRANCH   1  20
TORSDOF 3
