
 OpenBabel03242517393D

 36 38  0  0  0  0  0  0  0  0999 V2000
   34.5670   29.1760   39.5150 C   0  0  0  0  0  0  0  0  0  0  0  0
   34.9110   28.8110   38.2200 C   0  0  0  0  0  0  0  0  0  0  0  0
   36.1100   28.1630   38.0420 C   0  0  0  0  0  0  0  0  0  0  0  0
   36.9070   27.9050   39.1160 N   0  0  0  0  0  0  0  0  0  0  0  0
   36.5570   28.2690   40.3680 C   0  0  0  0  0  0  0  0  0  0  0  0
   35.3920   28.8970   40.5380 N   0  0  0  0  0  0  0  0  0  0  0  0
   33.6240   29.6860   39.6570 H   0  0  0  0  0  0  0  0  0  0  0  0
   36.4040   27.8680   37.0520 H   0  0  0  0  0  0  0  0  0  0  0  0
   38.4420   28.8370   41.8790 C   0  0  0  0  0  0  0  0  0  0  0  0
   37.4800   27.9460   41.4500 C   0  0  0  0  0  0  0  0  0  0  0  0
   37.3680   26.7080   42.0450 C   0  0  0  0  0  0  0  0  0  0  0  0
   36.6280   25.9740   41.7430 H   0  0  0  0  0  0  0  0  0  0  0  0
   38.2230   26.3490   43.0810 C   0  0  0  0  0  0  0  0  0  0  0  0
   38.1090   25.3570   43.5340 H   0  0  0  0  0  0  0  0  0  0  0  0
   39.1930   27.2160   43.5330 C   0  0  0  0  0  3  0  0  0  0  0  0
   39.2700   28.4430   42.9100 C   0  0  0  0  0  3  0  0  0  0  0  0
   37.3620   30.9610   40.9850 H   0  0  0  0  0  0  0  0  0  0  0  0
   38.6020   30.4020   41.1460 S   0  0  0  0  0  0  0  0  0  0  0  0
   39.3390   30.2970   39.8400 O   0  0  0  0  0  0  0  0  0  0  0  0
   39.3620   31.3000   42.0890 O   0  0  0  0  0  0  0  0  0  0  0  0
   34.0680   29.0820   37.0770 C   0  0  0  0  0  3  0  0  0  0  0  0
   32.9250   28.4850   36.8010 C   0  0  0  0  0  3  0  0  0  0  0  0
   32.1000   28.8150   35.5950 C   0  0  0  0  0  0  0  0  0  0  0  0
   32.6960   28.7730   34.6700 H   0  0  0  0  0  0  0  0  0  0  0  0
   31.3230   28.0080   35.5290 H   0  0  0  0  0  0  0  0  0  0  0  0
   31.4280   30.1280   35.7530 C   0  0  0  0  0  0  0  0  0  0  0  0
   31.4860   31.0450   34.7110 C   0  0  0  0  0  0  0  0  0  0  0  0
   30.8580   32.2740   34.8560 C   0  0  0  0  0  0  0  0  0  0  0  0
   30.1660   32.6190   36.0230 C   0  0  0  0  0  0  0  0  0  0  0  0
   30.1100   31.6930   37.0660 C   0  0  0  0  0  0  0  0  0  0  0  0
   30.7390   30.4750   36.9070 C   0  0  0  0  0  0  0  0  0  0  0  0
   32.0130   30.8100   33.7960 H   0  0  0  0  0  0  0  0  0  0  0  0
   30.9210   32.9730   34.0240 H   0  0  0  0  0  0  0  0  0  0  0  0
   29.6850   33.5840   36.1110 H   0  0  0  0  0  0  0  0  0  0  0  0
   29.5790   31.9310   37.9880 H   0  0  0  0  0  0  0  0  0  0  0  0
   30.6790   29.7800   37.7350 H   0  0  0  0  0  0  0  0  0  0  0  0
  1  7  1  0  0  0  0
  1  6  1  0  0  0  0
  2  1  2  0  0  0  0
  3  2  1  0  0  0  0
  3  4  2  0  0  0  0
  4  5  1  0  0  0  0
  5  6  2  0  0  0  0
  5 10  1  0  0  0  0
  8  3  1  0  0  0  0
  9 16  1  0  0  0  0
 10  9  2  0  0  0  0
 10 11  1  0  0  0  0
 11 13  2  0  0  0  0
 12 11  1  0  0  0  0
 13 15  1  0  0  0  0
 13 14  1  0  0  0  0
 16 15  2  0  0  0  0
 17 18  1  0  0  0  0
 18  9  1  0  0  0  0
 18 20  2  0  0  0  0
 19 18  2  0  0  0  0
 21  2  1  0  0  0  0
 22 21  2  0  0  0  0
 23 26  1  0  0  0  0
 23 22  1  0  0  0  0
 24 23  1  0  0  0  0
 25 23  1  0  0  0  0
 26 31  1  0  0  0  0
 27 28  1  0  0  0  0
 27 26  2  0  0  0  0
 28 29  2  0  0  0  0
 29 34  1  0  0  0  0
 29 30  1  0  0  0  0
 30 35  1  0  0  0  0
 31 30  2  0  0  0  0
 31 36  1  0  0  0  0
 32 27  1  0  0  0  0
 33 28  1  0  0  0  0
M  END
>  <minimizedAffinity>
-5.8634243

$$$$

 OpenBabel03242517393D

 36 38  0  0  0  0  0  0  0  0999 V2000
   36.6100   28.4510   37.6460 C   0  0  0  0  0  0  0  0  0  0  0  0
   35.2710   28.8130   37.7110 C   0  0  0  0  0  0  0  0  0  0  0  0
   34.6940   28.8800   38.9560 C   0  0  0  0  0  0  0  0  0  0  0  0
   35.4340   28.5960   40.0630 N   0  0  0  0  0  0  0  0  0  0  0  0
   36.7350   28.2450   39.9800 C   0  0  0  0  0  0  0  0  0  0  0  0
   37.2940   28.1810   38.7700 N   0  0  0  0  0  0  0  0  0  0  0  0
   37.0660   28.3970   36.6670 H   0  0  0  0  0  0  0  0  0  0  0  0
   33.6590   29.1570   39.0400 H   0  0  0  0  0  0  0  0  0  0  0  0
   37.6490   26.6710   41.6680 C   0  0  0  0  0  0  0  0  0  0  0  0
   37.4410   27.9600   41.2240 C   0  0  0  0  0  0  0  0  0  0  0  0
   37.9050   29.0290   41.9610 C   0  0  0  0  0  0  0  0  0  0  0  0
   37.7660   30.0610   41.6540 H   0  0  0  0  0  0  0  0  0  0  0  0
   38.5840   28.8150   43.1550 C   0  0  0  0  0  0  0  0  0  0  0  0
   38.9400   29.6860   43.7190 H   0  0  0  0  0  0  0  0  0  0  0  0
   38.8080   27.5390   43.6250 C   0  0  0  0  0  3  0  0  0  0  0  0
   38.3280   26.5010   42.8580 C   0  0  0  0  0  3  0  0  0  0  0  0
   35.9500   25.6650   40.0620 H   0  0  0  0  0  0  0  0  0  0  0  0
   37.0750   25.3090   40.7580 S   0  0  0  0  0  0  0  0  0  0  0  0
   36.8210   24.1390   41.6670 O   0  0  0  0  0  0  0  0  0  0  0  0
   38.1180   24.9420   39.7330 O   0  0  0  0  0  0  0  0  0  0  0  0
   34.4800   29.1150   36.5390 C   0  0  0  0  0  3  0  0  0  0  0  0
   33.2090   28.8090   36.3640 C   0  0  0  0  0  3  0  0  0  0  0  0
   32.4480   29.1530   35.1210 C   0  0  0  0  0  0  0  0  0  0  0  0
   33.1150   29.2610   34.2520 H   0  0  0  0  0  0  0  0  0  0  0  0
   31.7790   28.2740   34.9220 H   0  0  0  0  0  0  0  0  0  0  0  0
   31.6150   30.3630   35.3240 C   0  0  0  0  0  0  0  0  0  0  0  0
   31.4260   31.2380   34.2620 C   0  0  0  0  0  0  0  0  0  0  0  0
   30.6470   32.3720   34.4500 C   0  0  0  0  0  0  0  0  0  0  0  0
   30.0450   32.6610   35.6790 C   0  0  0  0  0  0  0  0  0  0  0  0
   30.2370   31.7780   36.7430 C   0  0  0  0  0  0  0  0  0  0  0  0
   31.0150   30.6550   36.5420 C   0  0  0  0  0  0  0  0  0  0  0  0
   31.8780   31.0440   33.2990 H   0  0  0  0  0  0  0  0  0  0  0  0
   30.5170   33.0390   33.6000 H   0  0  0  0  0  0  0  0  0  0  0  0
   29.4420   33.5520   35.8000 H   0  0  0  0  0  0  0  0  0  0  0  0
   29.7820   31.9740   37.7140 H   0  0  0  0  0  0  0  0  0  0  0  0
   31.1460   29.9910   37.3860 H   0  0  0  0  0  0  0  0  0  0  0  0
  1  2  2  0  0  0  0
  1  6  1  0  0  0  0
  2  3  1  0  0  0  0
  3  8  1  0  0  0  0
  3  4  2  0  0  0  0
  5  4  1  0  0  0  0
  5 10  1  0  0  0  0
  6  5  2  0  0  0  0
  7  1  1  0  0  0  0
  9 16  1  0  0  0  0
 10  9  2  0  0  0  0
 10 11  1  0  0  0  0
 11 13  2  0  0  0  0
 12 11  1  0  0  0  0
 13 15  1  0  0  0  0
 13 14  1  0  0  0  0
 16 15  2  0  0  0  0
 17 18  1  0  0  0  0
 18 19  2  0  0  0  0
 18  9  1  0  0  0  0
 20 18  2  0  0  0  0
 21  2  1  0  0  0  0
 22 21  2  0  0  0  0
 23 26  1  0  0  0  0
 23 22  1  0  0  0  0
 24 23  1  0  0  0  0
 25 23  1  0  0  0  0
 26 31  1  0  0  0  0
 27 28  1  0  0  0  0
 27 26  2  0  0  0  0
 28 29  2  0  0  0  0
 29 34  1  0  0  0  0
 29 30  1  0  0  0  0
 30 35  1  0  0  0  0
 31 30  2  0  0  0  0
 31 36  1  0  0  0  0
 32 27  1  0  0  0  0
 33 28  1  0  0  0  0
M  END
>  <minimizedAffinity>
-5.77660847

$$$$

 OpenBabel03242517393D

 36 38  0  0  0  0  0  0  0  0999 V2000
   36.3390   28.9590   38.2860 C   0  0  0  0  0  0  0  0  0  0  0  0
   35.0930   28.9910   38.8980 C   0  0  0  0  0  0  0  0  0  0  0  0
   35.0550   29.2590   40.2450 C   0  0  0  0  0  0  0  0  0  0  0  0
   36.2140   29.4790   40.9250 N   0  0  0  0  0  0  0  0  0  0  0  0
   37.4180   29.4420   40.3140 C   0  0  0  0  0  0  0  0  0  0  0  0
   37.4520   29.1830   39.0060 N   0  0  0  0  0  0  0  0  0  0  0  0
   36.3710   28.7480   37.2260 H   0  0  0  0  0  0  0  0  0  0  0  0
   34.1050   29.2910   40.7470 H   0  0  0  0  0  0  0  0  0  0  0  0
   39.1510   30.9500   41.2540 C   0  0  0  0  0  0  0  0  0  0  0  0
   38.6000   29.6920   41.1310 C   0  0  0  0  0  0  0  0  0  0  0  0
   39.1650   28.6210   41.7910 C   0  0  0  0  0  0  0  0  0  0  0  0
   38.7680   27.6130   41.7260 H   0  0  0  0  0  0  0  0  0  0  0  0
   40.2930   28.8030   42.5830 C   0  0  0  0  0  0  0  0  0  0  0  0
   40.7190   27.9320   43.0950 H   0  0  0  0  0  0  0  0  0  0  0  0
   40.8670   30.0470   42.7260 C   0  0  0  0  0  3  0  0  0  0  0  0
   40.2700   31.0890   42.0500 C   0  0  0  0  0  3  0  0  0  0  0  0
   37.0910   32.2510   40.5160 H   0  0  0  0  0  0  0  0  0  0  0  0
   38.4570   32.3130   40.4330 S   0  0  0  0  0  0  0  0  0  0  0  0
   38.9260   32.3620   39.0050 O   0  0  0  0  0  0  0  0  0  0  0  0
   38.8770   33.5710   41.1510 O   0  0  0  0  0  0  0  0  0  0  0  0
   33.8590   28.7580   38.1800 C   0  0  0  0  0  3  0  0  0  0  0  0
   33.6150   29.1030   36.9300 C   0  0  0  0  0  3  0  0  0  0  0  0
   32.3100   28.8310   36.2470 C   0  0  0  0  0  0  0  0  0  0  0  0
   32.4450   28.2180   35.3420 H   0  0  0  0  0  0  0  0  0  0  0  0
   31.7070   28.2270   36.9750 H   0  0  0  0  0  0  0  0  0  0  0  0
   31.5920   30.0940   35.9480 C   0  0  0  0  0  0  0  0  0  0  0  0
   31.6850   30.6370   34.6740 C   0  0  0  0  0  0  0  0  0  0  0  0
   31.0140   31.8200   34.3920 C   0  0  0  0  0  0  0  0  0  0  0  0
   30.2460   32.4830   35.3550 C   0  0  0  0  0  0  0  0  0  0  0  0
   30.1560   31.9320   36.6340 C   0  0  0  0  0  0  0  0  0  0  0  0
   30.8280   30.7560   36.9000 C   0  0  0  0  0  0  0  0  0  0  0  0
   32.2710   30.1500   33.9060 H   0  0  0  0  0  0  0  0  0  0  0  0
   31.1050   32.2220   33.3850 H   0  0  0  0  0  0  0  0  0  0  0  0
   29.7330   33.4040   35.1100 H   0  0  0  0  0  0  0  0  0  0  0  0
   29.5660   32.4240   37.4080 H   0  0  0  0  0  0  0  0  0  0  0  0
   30.7400   30.3560   37.9020 H   0  0  0  0  0  0  0  0  0  0  0  0
  1  2  2  0  0  0  0
  1  6  1  0  0  0  0
  2  3  1  0  0  0  0
  3  8  1  0  0  0  0
  3  4  2  0  0  0  0
  5  4  1  0  0  0  0
  5 10  1  0  0  0  0
  6  5  2  0  0  0  0
  7  1  1  0  0  0  0
  9 16  1  0  0  0  0
 10  9  2  0  0  0  0
 10 11  1  0  0  0  0
 11 13  2  0  0  0  0
 12 11  1  0  0  0  0
 13 15  1  0  0  0  0
 13 14  1  0  0  0  0
 16 15  2  0  0  0  0
 18 17  1  0  0  0  0
 18 20  2  0  0  0  0
 18  9  1  0  0  0  0
 19 18  2  0  0  0  0
 21  2  1  0  0  0  0
 22 21  2  0  0  0  0
 23 22  1  0  0  0  0
 23 25  1  0  0  0  0
 24 23  1  0  0  0  0
 26 23  1  0  0  0  0
 26 31  1  0  0  0  0
 27 26  2  0  0  0  0
 28 27  1  0  0  0  0
 28 29  2  0  0  0  0
 29 30  1  0  0  0  0
 30 31  2  0  0  0  0
 30 35  1  0  0  0  0
 31 36  1  0  0  0  0
 32 27  1  0  0  0  0
 33 28  1  0  0  0  0
 34 29  1  0  0  0  0
M  END
>  <minimizedAffinity>
-5.70866203

$$$$

 OpenBabel03242517393D

 36 38  0  0  0  0  0  0  0  0999 V2000
   36.1380   28.5210   38.2020 C   0  0  0  0  0  0  0  0  0  0  0  0
   34.8840   28.8240   38.7160 C   0  0  0  0  0  0  0  0  0  0  0  0
   34.8210   29.2570   40.0190 C   0  0  0  0  0  0  0  0  0  0  0  0
   35.9640   29.3740   40.7500 N   0  0  0  0  0  0  0  0  0  0  0  0
   37.1750   29.0740   40.2330 C   0  0  0  0  0  0  0  0  0  0  0  0
   37.2330   28.6540   38.9680 N   0  0  0  0  0  0  0  0  0  0  0  0
   36.1890   28.1800   37.1770 H   0  0  0  0  0  0  0  0  0  0  0  0
   33.8650   29.4990   40.4450 H   0  0  0  0  0  0  0  0  0  0  0  0
   38.7160   28.2590   42.0000 C   0  0  0  0  0  0  0  0  0  0  0  0
   38.3380   29.2320   41.0980 C   0  0  0  0  0  0  0  0  0  0  0  0
   39.0660   30.3980   40.9930 C   0  0  0  0  0  0  0  0  0  0  0  0
   38.8090   31.1930   40.2990 H   0  0  0  0  0  0  0  0  0  0  0  0
   40.1850   30.6010   41.7940 C   0  0  0  0  0  0  0  0  0  0  0  0
   40.7420   31.5390   41.6860 H   0  0  0  0  0  0  0  0  0  0  0  0
   40.5880   29.6490   42.7030 C   0  0  0  0  0  3  0  0  0  0  0  0
   39.8320   28.4990   42.7760 C   0  0  0  0  0  3  0  0  0  0  0  0
   37.3880   26.3800   40.9140 H   0  0  0  0  0  0  0  0  0  0  0  0
   37.8160   26.7830   42.1510 S   0  0  0  0  0  0  0  0  0  0  0  0
   36.6690   26.9620   43.1060 O   0  0  0  0  0  0  0  0  0  0  0  0
   38.7410   25.7060   42.6610 O   0  0  0  0  0  0  0  0  0  0  0  0
   33.6670   28.7020   37.9440 C   0  0  0  0  0  3  0  0  0  0  0  0
   33.5130   29.0560   36.6830 C   0  0  0  0  0  3  0  0  0  0  0  0
   32.2210   28.9020   35.9410 C   0  0  0  0  0  0  0  0  0  0  0  0
   32.3720   28.4450   34.9510 H   0  0  0  0  0  0  0  0  0  0  0  0
   31.6060   28.1880   36.5500 H   0  0  0  0  0  0  0  0  0  0  0  0
   31.5070   30.1990   35.8420 C   0  0  0  0  0  0  0  0  0  0  0  0
   30.7740   30.6490   36.9310 C   0  0  0  0  0  0  0  0  0  0  0  0
   30.1040   31.8630   36.8410 C   0  0  0  0  0  0  0  0  0  0  0  0
   30.1460   32.6470   35.6820 C   0  0  0  0  0  0  0  0  0  0  0  0
   30.8850   32.1890   34.5910 C   0  0  0  0  0  0  0  0  0  0  0  0
   31.5450   30.9810   34.6950 C   0  0  0  0  0  0  0  0  0  0  0  0
   30.7200   30.0680   37.8410 H   0  0  0  0  0  0  0  0  0  0  0  0
   29.5370   32.1910   37.7100 H   0  0  0  0  0  0  0  0  0  0  0  0
   29.6150   33.5890   35.6370 H   0  0  0  0  0  0  0  0  0  0  0  0
   30.9380   32.7750   33.6730 H   0  0  0  0  0  0  0  0  0  0  0  0
   32.1080   30.6530   33.8310 H   0  0  0  0  0  0  0  0  0  0  0  0
  1  2  2  0  0  0  0
  1  6  1  0  0  0  0
  2  3  1  0  0  0  0
  3  8  1  0  0  0  0
  3  4  2  0  0  0  0
  5  4  1  0  0  0  0
  5 10  1  0  0  0  0
  6  5  2  0  0  0  0
  7  1  1  0  0  0  0
  9 18  1  0  0  0  0
  9 16  1  0  0  0  0
 10  9  2  0  0  0  0
 11 10  1  0  0  0  0
 11 13  2  0  0  0  0
 12 11  1  0  0  0  0
 13 15  1  0  0  0  0
 14 13  1  0  0  0  0
 15 16  2  0  0  0  0
 17 18  1  0  0  0  0
 18 20  2  0  0  0  0
 18 19  2  0  0  0  0
 21  2  1  0  0  0  0
 22 21  2  0  0  0  0
 23 25  1  0  0  0  0
 23 22  1  0  0  0  0
 24 23  1  0  0  0  0
 26 23  1  0  0  0  0
 26 27  1  0  0  0  0
 27 32  1  0  0  0  0
 28 27  2  0  0  0  0
 28 33  1  0  0  0  0
 29 28  1  0  0  0  0
 30 31  1  0  0  0  0
 30 29  2  0  0  0  0
 31 26  2  0  0  0  0
 34 29  1  0  0  0  0
 35 30  1  0  0  0  0
 36 31  1  0  0  0  0
M  END
>  <minimizedAffinity>
-5.69944525

$$$$

 OpenBabel03242517393D

 36 38  0  0  0  0  0  0  0  0999 V2000
   34.8380   29.2380   40.1570 C   0  0  0  0  0  0  0  0  0  0  0  0
   34.9510   28.9830   38.7970 C   0  0  0  0  0  0  0  0  0  0  0  0
   36.2180   28.9300   38.2660 C   0  0  0  0  0  0  0  0  0  0  0  0
   37.2990   29.1240   39.0700 N   0  0  0  0  0  0  0  0  0  0  0  0
   37.1700   29.3720   40.3910 C   0  0  0  0  0  0  0  0  0  0  0  0
   35.9400   29.4220   40.9050 N   0  0  0  0  0  0  0  0  0  0  0  0
   33.8430   29.2800   40.5770 H   0  0  0  0  0  0  0  0  0  0  0  0
   36.3380   28.7350   37.2160 H   0  0  0  0  0  0  0  0  0  0  0  0
   39.0330   28.5170   41.7900 C   0  0  0  0  0  0  0  0  0  0  0  0
   38.3900   29.5660   41.1660 C   0  0  0  0  0  0  0  0  0  0  0  0
   38.8970   30.8440   41.2630 C   0  0  0  0  0  0  0  0  0  0  0  0
   38.4270   31.7010   40.7890 H   0  0  0  0  0  0  0  0  0  0  0  0
   40.0570   31.0850   41.9890 C   0  0  0  0  0  0  0  0  0  0  0  0
   40.4350   32.1130   42.0470 H   0  0  0  0  0  0  0  0  0  0  0  0
   40.7230   30.0590   42.6240 C   0  0  0  0  0  3  0  0  0  0  0  0
   40.1820   28.7980   42.5010 C   0  0  0  0  0  3  0  0  0  0  0  0
   37.7020   26.7570   40.5220 H   0  0  0  0  0  0  0  0  0  0  0  0
   38.4150   26.8990   41.6830 S   0  0  0  0  0  0  0  0  0  0  0  0
   37.5830   26.5730   42.8910 O   0  0  0  0  0  0  0  0  0  0  0  0
   39.5800   25.9450   41.5940 O   0  0  0  0  0  0  0  0  0  0  0  0
   33.8060   28.7760   37.9380 C   0  0  0  0  0  3  0  0  0  0  0  0
   33.7190   29.1260   36.6690 C   0  0  0  0  0  3  0  0  0  0  0  0
   32.4980   28.8820   35.8350 C   0  0  0  0  0  0  0  0  0  0  0  0
   32.7490   28.3880   34.8830 H   0  0  0  0  0  0  0  0  0  0  0  0
   31.8660   28.1680   36.4270 H   0  0  0  0  0  0  0  0  0  0  0  0
   31.7420   30.1390   35.6170 C   0  0  0  0  0  0  0  0  0  0  0  0
   31.8140   30.7620   34.3780 C   0  0  0  0  0  0  0  0  0  0  0  0
   31.1070   31.9390   34.1710 C   0  0  0  0  0  0  0  0  0  0  0  0
   30.3220   32.5180   35.1750 C   0  0  0  0  0  0  0  0  0  0  0  0
   30.2530   31.8870   36.4180 C   0  0  0  0  0  0  0  0  0  0  0  0
   30.9620   30.7170   36.6090 C   0  0  0  0  0  0  0  0  0  0  0  0
   32.4120   30.3420   33.5810 H   0  0  0  0  0  0  0  0  0  0  0  0
   31.1820   32.4060   33.1910 H   0  0  0  0  0  0  0  0  0  0  0  0
   29.7810   33.4360   34.9890 H   0  0  0  0  0  0  0  0  0  0  0  0
   29.6510   32.3110   37.2220 H   0  0  0  0  0  0  0  0  0  0  0  0
   30.8880   30.2530   37.5840 H   0  0  0  0  0  0  0  0  0  0  0  0
  1  7  1  0  0  0  0
  1  6  1  0  0  0  0
  2  1  2  0  0  0  0
  3  2  1  0  0  0  0
  3  4  2  0  0  0  0
  4  5  1  0  0  0  0
  5  6  2  0  0  0  0
  5 10  1  0  0  0  0
  8  3  1  0  0  0  0
  9 16  1  0  0  0  0
 10 11  1  0  0  0  0
 10  9  2  0  0  0  0
 11 13  2  0  0  0  0
 12 11  1  0  0  0  0
 13 14  1  0  0  0  0
 13 15  1  0  0  0  0
 16 15  2  0  0  0  0
 17 18  1  0  0  0  0
 18  9  1  0  0  0  0
 18 19  2  0  0  0  0
 20 18  2  0  0  0  0
 21  2  1  0  0  0  0
 22 21  2  0  0  0  0
 23 25  1  0  0  0  0
 23 22  1  0  0  0  0
 24 23  1  0  0  0  0
 26 23  1  0  0  0  0
 26 31  1  0  0  0  0
 27 26  2  0  0  0  0
 28 27  1  0  0  0  0
 28 29  2  0  0  0  0
 29 30  1  0  0  0  0
 30 31  2  0  0  0  0
 30 35  1  0  0  0  0
 31 36  1  0  0  0  0
 32 27  1  0  0  0  0
 33 28  1  0  0  0  0
 34 29  1  0  0  0  0
M  END
>  <minimizedAffinity>
-5.54824352

$$$$

 OpenBabel03242517393D

 36 38  0  0  0  0  0  0  0  0999 V2000
   38.7150   29.5300   42.8480 C   0  0  0  0  0  0  0  0  0  0  0  0
   38.8620   28.4280   42.0160 C   0  0  0  0  0  0  0  0  0  0  0  0
   39.4870   28.6260   40.8080 C   0  0  0  0  0  0  0  0  0  0  0  0
   39.9340   29.8670   40.4710 N   0  0  0  0  0  0  0  0  0  0  0  0
   39.7820   30.9270   41.2930 C   0  0  0  0  0  0  0  0  0  0  0  0
   39.1750   30.7330   42.4650 N   0  0  0  0  0  0  0  0  0  0  0  0
   38.2240   29.3760   43.7990 H   0  0  0  0  0  0  0  0  0  0  0  0
   39.6150   27.7920   40.1420 H   0  0  0  0  0  0  0  0  0  0  0  0
   39.5020   33.1240   40.1730 C   0  0  0  0  0  0  0  0  0  0  0  0
   40.2960   32.2150   40.8400 C   0  0  0  0  0  0  0  0  0  0  0  0
   41.6180   32.5080   41.0980 C   0  0  0  0  0  0  0  0  0  0  0  0
   42.2820   31.8250   41.6190 H   0  0  0  0  0  0  0  0  0  0  0  0
   42.1590   33.7210   40.6870 C   0  0  0  0  0  0  0  0  0  0  0  0
   43.2140   33.9250   40.9070 H   0  0  0  0  0  0  0  0  0  0  0  0
   41.3920   34.6510   40.0200 C   0  0  0  0  0  3  0  0  0  0  0  0
   40.0770   34.3170   39.7840 C   0  0  0  0  0  3  0  0  0  0  0  0
   37.2420   32.2550   40.9560 H   0  0  0  0  0  0  0  0  0  0  0  0
   37.8350   32.7780   39.8380 S   0  0  0  0  0  0  0  0  0  0  0  0
   37.7170   31.8500   38.6600 O   0  0  0  0  0  0  0  0  0  0  0  0
   37.1250   34.0740   39.5390 O   0  0  0  0  0  0  0  0  0  0  0  0
   38.3890   27.1070   42.3690 C   0  0  0  0  0  3  0  0  0  0  0  0
   37.2600   26.5570   41.9650 C   0  0  0  0  0  3  0  0  0  0  0  0
   36.8290   25.1810   42.3710 C   0  0  0  0  0  0  0  0  0  0  0  0
   37.3330   24.8530   43.2920 H   0  0  0  0  0  0  0  0  0  0  0  0
   35.7330   25.2620   42.5990 H   0  0  0  0  0  0  0  0  0  0  0  0
   37.0280   24.2140   41.2640 C   0  0  0  0  0  0  0  0  0  0  0  0
   38.1980   23.4670   41.2230 C   0  0  0  0  0  0  0  0  0  0  0  0
   38.3860   22.5600   40.1890 C   0  0  0  0  0  0  0  0  0  0  0  0
   37.4300   22.3750   39.1830 C   0  0  0  0  0  0  0  0  0  0  0  0
   36.2560   23.1280   39.2300 C   0  0  0  0  0  0  0  0  0  0  0  0
   36.0830   24.0260   40.2640 C   0  0  0  0  0  0  0  0  0  0  0  0
   38.9570   23.5860   41.9840 H   0  0  0  0  0  0  0  0  0  0  0  0
   39.3120   21.9900   40.1820 H   0  0  0  0  0  0  0  0  0  0  0  0
   37.6010   21.6630   38.3870 H   0  0  0  0  0  0  0  0  0  0  0  0
   35.4910   23.0080   38.4620 H   0  0  0  0  0  0  0  0  0  0  0  0
   35.1620   24.5950   40.2710 H   0  0  0  0  0  0  0  0  0  0  0  0
  1  7  1  0  0  0  0
  2 21  1  0  0  0  0
  2  1  2  0  0  0  0
  3  2  1  0  0  0  0
  4  3  2  0  0  0  0
  4  5  1  0  0  0  0
  5  6  2  0  0  0  0
  6  1  1  0  0  0  0
  8  3  1  0  0  0  0
  9 10  1  0  0  0  0
 10 11  2  0  0  0  0
 10  5  1  0  0  0  0
 11 12  1  0  0  0  0
 13 14  1  0  0  0  0
 13 11  1  0  0  0  0
 15 13  2  0  0  0  0
 16 15  1  0  0  0  0
 16  9  2  0  0  0  0
 18  9  1  0  0  0  0
 18 17  1  0  0  0  0
 19 18  2  0  0  0  0
 20 18  2  0  0  0  0
 22 21  2  0  0  0  0
 22 23  1  0  0  0  0
 23 25  1  0  0  0  0
 23 24  1  0  0  0  0
 26 23  1  0  0  0  0
 27 26  1  0  0  0  0
 27 32  1  0  0  0  0
 28 27  2  0  0  0  0
 29 30  2  0  0  0  0
 29 28  1  0  0  0  0
 30 31  1  0  0  0  0
 31 36  1  0  0  0  0
 31 26  2  0  0  0  0
 33 28  1  0  0  0  0
 34 29  1  0  0  0  0
 35 30  1  0  0  0  0
M  END
>  <minimizedAffinity>
-5.45045471

$$$$

 OpenBabel03242517393D

 36 38  0  0  0  0  0  0  0  0999 V2000
   35.3990   26.8490   38.3010 C   0  0  0  0  0  0  0  0  0  0  0  0
   34.8830   28.0830   37.9290 C   0  0  0  0  0  0  0  0  0  0  0  0
   35.1590   29.1560   38.7430 C   0  0  0  0  0  0  0  0  0  0  0  0
   35.9130   28.9800   39.8630 N   0  0  0  0  0  0  0  0  0  0  0  0
   36.4050   27.7720   40.2100 C   0  0  0  0  0  0  0  0  0  0  0  0
   36.1360   26.7320   39.4180 N   0  0  0  0  0  0  0  0  0  0  0  0
   35.1820   26.0030   37.6620 H   0  0  0  0  0  0  0  0  0  0  0  0
   34.7740   30.1250   38.4810 H   0  0  0  0  0  0  0  0  0  0  0  0
   38.5680   27.5060   41.3990 C   0  0  0  0  0  0  0  0  0  0  0  0
   37.2010   27.6890   41.4290 C   0  0  0  0  0  0  0  0  0  0  0  0
   36.5440   27.8000   42.6370 C   0  0  0  0  0  0  0  0  0  0  0  0
   35.4700   27.9450   42.7120 H   0  0  0  0  0  0  0  0  0  0  0  0
   37.2540   27.7280   43.8290 C   0  0  0  0  0  0  0  0  0  0  0  0
   36.7030   27.8190   44.7730 H   0  0  0  0  0  0  0  0  0  0  0  0
   38.6200   27.5460   43.8330 C   0  0  0  0  0  3  0  0  0  0  0  0
   39.2350   27.4410   42.6050 C   0  0  0  0  0  3  0  0  0  0  0  0
   38.7770   28.1060   38.9340 H   0  0  0  0  0  0  0  0  0  0  0  0
   39.4160   27.3640   39.8920 S   0  0  0  0  0  0  0  0  0  0  0  0
   39.5370   25.9200   39.4900 O   0  0  0  0  0  0  0  0  0  0  0  0
   40.7900   27.9640   40.0560 O   0  0  0  0  0  0  0  0  0  0  0  0
   34.0830   28.2750   36.7400 C   0  0  0  0  0  3  0  0  0  0  0  0
   33.5050   29.4020   36.3710 C   0  0  0  0  0  3  0  0  0  0  0  0
   32.6860   29.5320   35.1240 C   0  0  0  0  0  0  0  0  0  0  0  0
   33.3190   29.6840   34.2360 H   0  0  0  0  0  0  0  0  0  0  0  0
   32.1660   28.5450   34.9990 H   0  0  0  0  0  0  0  0  0  0  0  0
   31.6710   30.6050   35.2620 C   0  0  0  0  0  0  0  0  0  0  0  0
   31.4700   31.4820   34.2050 C   0  0  0  0  0  0  0  0  0  0  0  0
   30.5200   32.4870   34.3320 C   0  0  0  0  0  0  0  0  0  0  0  0
   29.7580   32.6430   35.4950 C   0  0  0  0  0  0  0  0  0  0  0  0
   29.9640   31.7580   36.5540 C   0  0  0  0  0  0  0  0  0  0  0  0
   30.9120   30.7640   36.4130 C   0  0  0  0  0  0  0  0  0  0  0  0
   32.0420   31.3900   33.2920 H   0  0  0  0  0  0  0  0  0  0  0  0
   30.3840   33.1610   33.4880 H   0  0  0  0  0  0  0  0  0  0  0  0
   29.0240   33.4350   35.5690 H   0  0  0  0  0  0  0  0  0  0  0  0
   29.3870   31.8520   37.4740 H   0  0  0  0  0  0  0  0  0  0  0  0
   31.0490   30.0940   37.2530 H   0  0  0  0  0  0  0  0  0  0  0  0
  1  6  1  0  0  0  0
  2  1  2  0  0  0  0
  2  3  1  0  0  0  0
  3  4  2  0  0  0  0
  4  5  1  0  0  0  0
  5 10  1  0  0  0  0
  6  5  2  0  0  0  0
  7  1  1  0  0  0  0
  8  3  1  0  0  0  0
  9 10  2  0  0  0  0
  9 16  1  0  0  0  0
 10 11  1  0  0  0  0
 11 12  1  0  0  0  0
 11 13  2  0  0  0  0
 13 15  1  0  0  0  0
 13 14  1  0  0  0  0
 16 15  2  0  0  0  0
 17 18  1  0  0  0  0
 18 20  2  0  0  0  0
 18  9  1  0  0  0  0
 19 18  2  0  0  0  0
 21  2  1  0  0  0  0
 22 21  2  0  0  0  0
 23 26  1  0  0  0  0
 23 22  1  0  0  0  0
 24 23  1  0  0  0  0
 25 23  1  0  0  0  0
 26 31  1  0  0  0  0
 27 28  1  0  0  0  0
 27 26  2  0  0  0  0
 28 29  2  0  0  0  0
 29 34  1  0  0  0  0
 29 30  1  0  0  0  0
 30 35  1  0  0  0  0
 31 30  2  0  0  0  0
 31 36  1  0  0  0  0
 32 27  1  0  0  0  0
 33 28  1  0  0  0  0
M  END
>  <minimizedAffinity>
-5.42776775

$$$$

 OpenBabel03242517393D

 36 38  0  0  0  0  0  0  0  0999 V2000
   38.5990   29.2560   42.9390 C   0  0  0  0  0  0  0  0  0  0  0  0
   38.5390   28.2650   41.9680 C   0  0  0  0  0  0  0  0  0  0  0  0
   38.7410   28.6440   40.6630 C   0  0  0  0  0  0  0  0  0  0  0  0
   38.9880   29.9500   40.3660 N   0  0  0  0  0  0  0  0  0  0  0  0
   39.0410   30.9010   41.3240 C   0  0  0  0  0  0  0  0  0  0  0  0
   38.8460   30.5300   42.5900 N   0  0  0  0  0  0  0  0  0  0  0  0
   38.4400   28.9600   43.9660 H   0  0  0  0  0  0  0  0  0  0  0  0
   38.7010   27.9000   39.8880 H   0  0  0  0  0  0  0  0  0  0  0  0
   40.5910   32.7870   40.8760 C   0  0  0  0  0  0  0  0  0  0  0  0
   39.3120   32.2710   40.9030 C   0  0  0  0  0  0  0  0  0  0  0  0
   38.2420   33.0530   40.5260 C   0  0  0  0  0  0  0  0  0  0  0  0
   37.2180   32.6920   40.5300 H   0  0  0  0  0  0  0  0  0  0  0  0
   38.4440   34.3660   40.1170 C   0  0  0  0  0  0  0  0  0  0  0  0
   37.5720   34.9630   39.8230 H   0  0  0  0  0  0  0  0  0  0  0  0
   39.7080   34.9110   40.0780 C   0  0  0  0  0  3  0  0  0  0  0  0
   40.7490   34.0940   40.4630 C   0  0  0  0  0  3  0  0  0  0  0  0
   41.5560   30.8770   42.2540 H   0  0  0  0  0  0  0  0  0  0  0  0
   41.9550   31.8220   41.3460 S   0  0  0  0  0  0  0  0  0  0  0  0
   43.0510   32.6920   41.8940 O   0  0  0  0  0  0  0  0  0  0  0  0
   42.4540   31.0740   40.1350 O   0  0  0  0  0  0  0  0  0  0  0  0
   38.2770   26.8760   42.2770 C   0  0  0  0  0  3  0  0  0  0  0  0
   37.1610   26.2230   42.0140 C   0  0  0  0  0  3  0  0  0  0  0  0
   36.9560   24.7810   42.3630 C   0  0  0  0  0  0  0  0  0  0  0  0
   37.6340   24.4570   43.1670 H   0  0  0  0  0  0  0  0  0  0  0  0
   35.9080   24.7120   42.7590 H   0  0  0  0  0  0  0  0  0  0  0  0
   37.0810   23.9200   41.1620 C   0  0  0  0  0  0  0  0  0  0  0  0
   38.3120   23.3470   40.8690 C   0  0  0  0  0  0  0  0  0  0  0  0
   38.4320   22.5390   39.7460 C   0  0  0  0  0  0  0  0  0  0  0  0
   37.3480   22.2850   38.8970 C   0  0  0  0  0  0  0  0  0  0  0  0
   36.1140   22.8640   39.1970 C   0  0  0  0  0  0  0  0  0  0  0  0
   36.0100   23.6640   40.3170 C   0  0  0  0  0  0  0  0  0  0  0  0
   39.1690   23.5230   41.5040 H   0  0  0  0  0  0  0  0  0  0  0  0
   39.4080   22.1040   39.5400 H   0  0  0  0  0  0  0  0  0  0  0  0
   37.4680   21.6530   38.0270 H   0  0  0  0  0  0  0  0  0  0  0  0
   35.2490   22.6860   38.5560 H   0  0  0  0  0  0  0  0  0  0  0  0
   35.0390   24.0980   40.5210 H   0  0  0  0  0  0  0  0  0  0  0  0
  1  7  1  0  0  0  0
  2 21  1  0  0  0  0
  2  1  2  0  0  0  0
  3  2  1  0  0  0  0
  4  3  2  0  0  0  0
  4  5  1  0  0  0  0
  5  6  2  0  0  0  0
  6  1  1  0  0  0  0
  8  3  1  0  0  0  0
  9 10  1  0  0  0  0
  9 18  1  0  0  0  0
 10  5  1  0  0  0  0
 11 12  1  0  0  0  0
 11 10  2  0  0  0  0
 13 11  1  0  0  0  0
 14 13  1  0  0  0  0
 15 13  2  0  0  0  0
 15 16  1  0  0  0  0
 16  9  2  0  0  0  0
 18 19  2  0  0  0  0
 18 17  1  0  0  0  0
 20 18  2  0  0  0  0
 22 21  2  0  0  0  0
 22 23  1  0  0  0  0
 23 25  1  0  0  0  0
 23 24  1  0  0  0  0
 26 23  1  0  0  0  0
 27 26  1  0  0  0  0
 27 32  1  0  0  0  0
 28 27  2  0  0  0  0
 29 30  2  0  0  0  0
 29 28  1  0  0  0  0
 30 31  1  0  0  0  0
 31 36  1  0  0  0  0
 31 26  2  0  0  0  0
 33 28  1  0  0  0  0
 34 29  1  0  0  0  0
 35 30  1  0  0  0  0
M  END
>  <minimizedAffinity>
-5.42745352

$$$$

 OpenBabel03242517393D

 36 38  0  0  0  0  0  0  0  0999 V2000
   38.7510   28.1970   39.7360 C   0  0  0  0  0  0  0  0  0  0  0  0
   38.0490   27.6630   40.8090 C   0  0  0  0  0  0  0  0  0  0  0  0
   37.4950   28.5440   41.7060 C   0  0  0  0  0  0  0  0  0  0  0  0
   37.6480   29.8850   41.5210 N   0  0  0  0  0  0  0  0  0  0  0  0
   38.3340   30.3870   40.4720 C   0  0  0  0  0  0  0  0  0  0  0  0
   38.8710   29.5290   39.6030 N   0  0  0  0  0  0  0  0  0  0  0  0
   39.1880   27.5050   39.0300 H   0  0  0  0  0  0  0  0  0  0  0  0
   36.9460   28.1610   42.5460 H   0  0  0  0  0  0  0  0  0  0  0  0
   39.5640   32.5210   40.7780 C   0  0  0  0  0  0  0  0  0  0  0  0
   38.4400   31.8370   40.3630 C   0  0  0  0  0  0  0  0  0  0  0  0
   37.3720   32.5230   39.8260 C   0  0  0  0  0  0  0  0  0  0  0  0
   36.4660   32.0300   39.4860 H   0  0  0  0  0  0  0  0  0  0  0  0
   37.4200   33.9070   39.7000 C   0  0  0  0  0  0  0  0  0  0  0  0
   36.5530   34.4240   39.2690 H   0  0  0  0  0  0  0  0  0  0  0  0
   38.5280   34.6180   40.1040 C   0  0  0  0  0  3  0  0  0  0  0  0
   39.5720   33.8930   40.6350 C   0  0  0  0  0  3  0  0  0  0  0  0
   41.2500   30.6180   40.6550 H   0  0  0  0  0  0  0  0  0  0  0  0
   40.9220   31.6790   41.4570 S   0  0  0  0  0  0  0  0  0  0  0  0
   40.6200   31.2420   42.8630 O   0  0  0  0  0  0  0  0  0  0  0  0
   42.1110   32.6060   41.4550 O   0  0  0  0  0  0  0  0  0  0  0  0
   37.8840   26.2400   41.0100 C   0  0  0  0  0  3  0  0  0  0  0  0
   37.2430   25.6700   42.0130 C   0  0  0  0  0  3  0  0  0  0  0  0
   37.1100   24.1860   42.1610 C   0  0  0  0  0  0  0  0  0  0  0  0
   37.9400   23.7600   42.7460 H   0  0  0  0  0  0  0  0  0  0  0  0
   36.1680   24.0240   42.7490 H   0  0  0  0  0  0  0  0  0  0  0  0
   36.9800   23.5280   40.8380 C   0  0  0  0  0  0  0  0  0  0  0  0
   35.8280   23.7370   40.0920 C   0  0  0  0  0  0  0  0  0  0  0  0
   35.7040   23.1220   38.8530 C   0  0  0  0  0  0  0  0  0  0  0  0
   36.7070   22.2970   38.3320 C   0  0  0  0  0  0  0  0  0  0  0  0
   37.8630   22.0910   39.0870 C   0  0  0  0  0  0  0  0  0  0  0  0
   37.9720   22.7080   40.3160 C   0  0  0  0  0  0  0  0  0  0  0  0
   35.0340   24.3680   40.4660 H   0  0  0  0  0  0  0  0  0  0  0  0
   34.7900   23.3030   38.2910 H   0  0  0  0  0  0  0  0  0  0  0  0
   36.5860   21.8290   37.3640 H   0  0  0  0  0  0  0  0  0  0  0  0
   38.6630   21.4540   38.7100 H   0  0  0  0  0  0  0  0  0  0  0  0
   38.8800   22.5280   40.8770 H   0  0  0  0  0  0  0  0  0  0  0  0
  1  2  1  0  0  0  0
  2 21  1  0  0  0  0
  2  3  2  0  0  0  0
  3  8  1  0  0  0  0
  4  3  1  0  0  0  0
  5  4  2  0  0  0  0
  6  1  2  0  0  0  0
  6  5  1  0  0  0  0
  7  1  1  0  0  0  0
  9 18  1  0  0  0  0
 10  5  1  0  0  0  0
 10  9  2  0  0  0  0
 11 10  1  0  0  0  0
 12 11  1  0  0  0  0
 13 11  2  0  0  0  0
 13 15  1  0  0  0  0
 14 13  1  0  0  0  0
 15 16  2  0  0  0  0
 16  9  1  0  0  0  0
 17 18  1  0  0  0  0
 18 19  2  0  0  0  0
 20 18  2  0  0  0  0
 21 22  2  0  0  0  0
 22 23  1  0  0  0  0
 23 24  1  0  0  0  0
 23 25  1  0  0  0  0
 26 23  1  0  0  0  0
 27 32  1  0  0  0  0
 27 26  2  0  0  0  0
 28 27  1  0  0  0  0
 29 28  2  0  0  0  0
 29 30  1  0  0  0  0
 30 31  2  0  0  0  0
 31 26  1  0  0  0  0
 31 36  1  0  0  0  0
 33 28  1  0  0  0  0
 34 29  1  0  0  0  0
 35 30  1  0  0  0  0
M  END
>  <minimizedAffinity>
-5.31681919

$$$$
