REMARK  Name = 
REMARK  3 active torsions:
REMARK  status: ('A' for Active; 'I' for Inactive)
REMARK    1  A    between atoms: C_5  and  C_7
REMARK    2  A    between atoms: C_9  and  C_25
REMARK    3  A    between atoms: S_21  and  C_24
REMARK                            x       y       z     vdW  Elec       q    Type
REMARK                         _______ _______ _______ _____ _____    ______ ____
ROOT
ATOM      1  C   UNL     1      46.018  32.802  46.943  0.00  0.00    +0.000 A 
ATOM      2  C   UNL     1      47.215  32.158  47.079  0.00  0.00    +0.000 A 
ATOM      3  C   UNL     1      47.505  31.305  48.122  0.00  0.00    +0.000 A 
ATOM      4  C   UNL     1      46.539  31.077  49.095  0.00  0.00    +0.000 A 
ATOM      5  C   UNL     1      45.334  31.704  48.988  0.00  0.00    +0.000 A 
ATOM      6  C   UNL     1      45.092  32.551  47.922  0.00  0.00    +0.000 A 
ATOM      7  H   UNL     1      47.990  32.316  46.343  0.00  0.00    +0.000 HD
ATOM      8  H   UNL     1      46.714  30.417  49.934  0.00  0.00    +0.000 HD
ATOM      9  H   UNL     1      44.546  31.555  49.727  0.00  0.00    +0.000 HD
ATOM     10  H   UNL     1      44.122  33.038  47.863  0.00  0.00    +0.000 HD
ENDROOT
BRANCH   1  15
ATOM     11  C   UNL     1      44.563  35.531  45.003  0.00  0.00    +0.000 A 
ATOM     12  C   UNL     1      45.197  35.450  43.766  0.00  0.00    +0.000 A 
ATOM     13  C   UNL     1      46.145  34.439  43.589  0.00  0.00    +0.000 A 
ATOM     14  N   UNL     1      46.397  33.590  44.631  0.00  0.00    +0.000 NA
ATOM     15  C   UNL     1      45.765  33.695  45.819  0.00  0.00    +0.000 A 
ATOM     16  N   UNL     1      44.839  34.682  45.995  0.00  0.00    +0.000 NA
ATOM     17  H   UNL     1      43.820  36.298  45.189  0.00  0.00    +0.000 HD
ATOM     18  H   UNL     1      44.989  36.119  42.966  0.00  0.00    +0.000 HD
ATOM     19  H   UNL     1      46.675  34.318  42.654  0.00  0.00    +0.000 HD
ENDBRANCH   1  15
BRANCH   3  21
ATOM     20  C   UNL     1      49.756  30.912  49.214  0.00  0.00    +0.000 A 
ATOM     21  C   UNL     1      48.758  30.587  48.321  0.00  0.00    +0.000 A 
ATOM     22  C   UNL     1      48.949  29.465  47.533  0.00  0.00    +0.000 A 
ATOM     23  H   UNL     1      48.230  29.106  46.789  0.00  0.00    +0.000 HD
ATOM     24  C   UNL     1      50.098  28.691  47.631  0.00  0.00    +0.000 A 
ATOM     25  H   UNL     1      50.297  27.804  47.039  0.00  0.00    +0.000 HD
ATOM     26  C   UNL     1      51.073  29.049  48.536  0.00  0.00    +0.000 A 
ATOM     27  C   UNL     1      50.908  30.163  49.335  0.00  0.00    +0.000 A 
BRANCH  20  29
ATOM     28  H   UNL     1      48.602  33.186  49.720  0.00  0.00    +0.000 HD
ATOM     29  S   UNL     1      49.534  32.323  50.205  0.00  0.00    +0.000 S 
ATOM     30  O   UNL     1      49.179  31.977  51.637  0.00  0.00    +0.000 OA
ATOM     31  O   UNL     1      50.845  33.099  50.258  0.00  0.00    +0.000 OA
ENDBRANCH  20  29
ENDBRANCH   3  21
TORSDOF 3
