
     RDKit          3D

 46 50  0  0  0  0  0  0  0  0999 V2000
   46.3827   32.6666   45.8679 C   0  0  1  0  0  0  0  0  0  0  0  0
   46.9735   32.8322   47.2025 C   0  0  0  0  0  0  0  0  0  0  0  0
   45.5429   32.2050   46.9550 C   0  0  2  0  0  0  0  0  0  0  0  0
   45.3002   30.8039   47.3004 C   0  0  0  0  0  0  0  0  0  0  0  0
   45.1753   30.2672   48.5442 C   0  0  0  0  0  0  0  0  0  0  0  0
   45.0740   28.9136   48.8427 C   0  0  0  0  0  0  0  0  0  0  0  0
   45.1061   28.0316   47.7441 C   0  0  0  0  0  0  0  0  0  0  0  0
   45.2298   28.5571   46.4668 C   0  0  0  0  0  0  0  0  0  0  0  0
   45.1968   27.6553   45.4202 C   0  0  0  0  0  0  0  0  0  0  0  0
   45.2498   28.1319   44.1081 C   0  0  0  0  0  0  0  0  0  0  0  0
   45.3315   29.4876   43.8608 C   0  0  0  0  0  0  0  0  0  0  0  0
   45.3628   30.3378   44.9410 C   0  0  0  0  0  0  0  0  0  0  0  0
   45.3216   29.9140   46.2549 C   0  0  0  0  0  0  0  0  0  0  0  0
   44.6188   35.7299   44.8204 C   0  0  0  0  0  0  0  0  0  0  0  0
   45.1565   35.9722   43.5169 C   0  0  0  0  0  0  0  0  0  0  0  0
   46.1222   35.0666   43.0387 C   0  0  0  0  0  0  0  0  0  0  0  0
   46.4851   34.0390   43.8228 N   0  0  0  0  0  0  0  0  0  0  0  0
   45.9504   33.8423   45.0614 C   0  0  0  0  0  0  0  0  0  0  0  0
   45.0349   34.6732   45.5474 N   0  0  0  0  0  0  0  0  0  0  0  0
   47.1386   32.0236   45.2877 H   0  0  0  0  0  0  0  0  0  0  0  0
   47.6360   32.0993   47.6906 H   0  0  0  0  0  0  0  0  0  0  0  0
   46.9961   33.8126   47.7038 H   0  0  0  0  0  0  0  0  0  0  0  0
   44.8723   32.8841   47.5712 H   0  0  0  0  0  0  0  0  0  0  0  0
   45.1561   30.9944   49.3594 H   0  0  0  0  0  0  0  0  0  0  0  0
   44.9794   28.6073   49.8563 H   0  0  0  0  0  0  0  0  0  0  0  0
   45.0298   26.9941   47.9949 H   0  0  0  0  0  0  0  0  0  0  0  0
   45.1298   26.5869   45.6392 H   0  0  0  0  0  0  0  0  0  0  0  0
   45.2196   27.3283   43.3671 H   0  0  0  0  0  0  0  0  0  0  0  0
   45.3582   29.6548   42.8083 H   0  0  0  0  0  0  0  0  0  0  0  0
   45.3387   31.2958   44.5043 H   0  0  0  0  0  0  0  0  0  0  0  0
   43.8848   36.4093   45.1906 H   0  0  0  0  0  0  0  0  0  0  0  0
   44.8512   36.8282   42.9656 H   0  0  0  0  0  0  0  0  0  0  0  0
   46.1440   32.1830   39.6356 H   0  0  0  0  0  0  0  0  0  0  0  0
   45.5891   33.1020   40.5635 S   0  0  0  0  0  0  0  0  0  0  0  0
   45.5219   32.2756   41.8246 O   0  0  0  0  0  0  0  0  0  0  0  0
   44.2542   33.4083   39.9752 O   0  0  0  0  0  0  0  0  0  0  0  0
   46.6890   34.4188   40.6411 C   0  0  0  0  0  0  0  0  0  0  0  0
   46.8238   35.1659   41.7804 C   0  0  0  0  0  0  0  0  0  0  0  0
   47.8208   36.1489   41.7071 C   0  0  0  0  0  0  0  0  0  0  0  0
   48.0129   36.7997   42.5623 H   0  0  0  0  0  0  0  0  0  0  0  0
   48.6278   36.4033   40.6258 C   0  0  0  0  0  0  0  0  0  0  0  0
   49.3755   37.1739   40.6324 H   0  0  0  0  0  0  0  0  0  0  0  0
   48.4694   35.6441   39.4997 C   0  0  0  0  0  0  0  0  0  0  0  0
   47.5050   34.6689   39.5302 C   0  0  0  0  0  0  0  0  0  0  0  0
   49.0454   35.7592   38.5987 H   0  0  0  0  0  0  0  0  0  0  0  0
   47.3632   34.0499   38.6374 H   0  0  0  0  0  0  0  0  0  0  0  0
  1  3  1  0
  1  2  1  0
  3  2  1  0
  3  4  1  0
  4  5  2  0
  5  6  1  0
  7  6  2  0
  8  7  1  0
  9  8  2  0
 10  9  1  0
 11 10  2  0
 11 12  1  0
 12 13  2  0
 13  8  1  0
 13  4  1  0
 14 19  2  0
 15 14  1  0
 16 15  2  0
 16 17  1  0
 17 18  2  0
 18 19  1  0
 18  1  1  0
  1 20  1  6
  2 21  1  0
  2 22  1  0
  3 23  1  1
  5 24  1  0
  6 25  1  0
  7 26  1  0
  9 27  1  0
 10 28  1  0
 11 29  1  0
 12 30  1  0
 14 31  1  0
 15 32  1  0
 33 34  1  0
 34 35  2  0
 34 36  2  0
 34 37  1  0
 37 38  2  0
 38 39  1  0
 39 40  1  0
 39 41  2  0
 41 42  1  0
 41 43  1  0
 43 44  2  0
 44 37  1  0
 43 45  1  0
 44 46  1  0
 16 38  1  0
M  ISO  8  20  13  21  13  22  13  23  13  24  14  25  14  26  14  27  14
M  ISO  8  28  14  29  14  30  14  31  14  32  14  33  12  40  15  42  16
M  END
>  <DihAtoms>  (1) 
14,15,37,36

>  <DihDeg>  (1) 
-32.932902576513136

$$$$
