
 OpenBabel03252505333D

 33 35  0  0  0  0  0  0  0  0999 V2000
   46.3480   34.3240   42.0800 C   0  0  0  0  0  0  0  0  0  0  0  0
   47.4640   35.0400   41.7030 C   0  0  0  0  0  0  0  0  0  0  0  0
   48.1230   34.8370   40.4900 C   0  0  0  0  0  0  0  0  0  0  0  0
   47.6420   33.8740   39.6170 C   0  0  0  0  0  0  0  0  0  0  0  0
   46.5240   33.1640   40.0070 C   0  0  0  0  0  0  0  0  0  0  0  0
   45.8920   33.3780   41.2040 C   0  0  0  0  0  0  0  0  0  0  0  0
   47.8670   35.7880   42.3400 H   0  0  0  0  0  0  0  0  0  0  0  0
   48.9880   35.4070   40.2200 H   0  0  0  0  0  0  0  0  0  0  0  0
   48.1820   33.7460   38.6830 H   0  0  0  0  0  0  0  0  0  0  0  0
   46.1490   32.4040   39.3140 H   0  0  0  0  0  0  0  0  0  0  0  0
   44.3500   35.8810   44.8630 C   0  0  0  0  0  0  0  0  0  0  0  0
   44.8720   35.6770   43.5720 C   0  0  0  0  0  0  0  0  0  0  0  0
   45.7580   34.6220   43.3520 C   0  0  0  0  0  0  0  0  0  0  0  0
   46.0760   33.8370   44.4060 N   0  0  0  0  0  0  0  0  0  0  0  0
   45.5560   34.0600   45.6390 C   0  0  0  0  0  0  0  0  0  0  0  0
   44.6890   35.0880   45.8620 N   0  0  0  0  0  0  0  0  0  0  0  0
   45.9070   33.2150   46.7430 N   0  0  0  0  0  0  0  0  0  0  0  0
   43.6580   36.7000   45.0460 H   0  0  0  0  0  0  0  0  0  0  0  0
   44.6040   36.3170   42.7440 H   0  0  0  0  0  0  0  0  0  0  0  0
   46.3070   33.7180   47.5740 H   0  0  0  0  0  0  0  0  0  0  0  0
   45.7950   32.1780   46.7720 H   0  0  0  0  0  0  0  0  0  0  0  0
   43.4320   32.8550   41.1200 C   0  0  0  0  0  0  0  0  0  0  0  0
   44.7120   32.6020   41.5670 C   0  0  0  0  0  0  0  0  0  0  0  0
   44.8950   31.5320   42.4260 C   0  0  0  0  0  0  0  0  0  0  0  0
   45.8680   31.2420   42.8410 H   0  0  0  0  0  0  0  0  0  0  0  0
   43.7990   30.7620   42.8030 C   0  0  0  0  0  0  0  0  0  0  0  0
   43.8400   29.8940   43.4780 H   0  0  0  0  0  0  0  0  0  0  0  0
   42.5260   31.0340   42.3430 C   0  0  0  0  0  3  0  0  0  0  0  0
   42.3390   32.1050   41.4820 C   0  0  0  0  0  3  0  0  0  0  0  0
   41.8280   34.3200   39.8370 H   0  0  0  0  0  0  0  0  0  0  0  0
   43.1940   34.2050   40.0330 S   0  0  0  0  0  0  0  0  0  0  0  0
   43.7980   33.9070   38.6810 O   0  0  0  0  0  0  0  0  0  0  0  0
   43.7340   35.4780   40.6130 O   0  0  0  0  0  0  0  0  0  0  0  0
  1 13  1  0  0  0  0
  2  1  1  0  0  0  0
  2  7  1  0  0  0  0
  3  2  2  0  0  0  0
  4  5  2  0  0  0  0
  4  3  1  0  0  0  0
  5  6  1  0  0  0  0
  6 23  1  0  0  0  0
  6  1  2  0  0  0  0
  8  3  1  0  0  0  0
  9  4  1  0  0  0  0
 10  5  1  0  0  0  0
 11 18  1  0  0  0  0
 11 16  1  0  0  0  0
 12 11  2  0  0  0  0
 13 12  1  0  0  0  0
 13 14  2  0  0  0  0
 14 15  1  0  0  0  0
 15 16  2  0  0  0  0
 15 17  1  0  0  0  0
 17 21  1  0  0  0  0
 17 20  1  0  0  0  0
 19 12  1  0  0  0  0
 22 29  2  0  0  0  0
 22 23  1  0  0  0  0
 23 24  2  0  0  0  0
 24 26  1  0  0  0  0
 24 25  1  0  0  0  0
 26 27  1  0  0  0  0
 28 26  2  0  0  0  0
 29 28  1  0  0  0  0
 30 31  1  0  0  0  0
 31 33  2  0  0  0  0
 31 22  1  0  0  0  0
 32 31  2  0  0  0  0
M  END
>  <minimizedAffinity>
-5.67637062

>  <minimizedRMSD>
1.26935673

$$$$
