
 OpenBabel03252508213D

 37 39  0  0  0  0  0  0  0  0999 V2000
   44.5330   33.0800   39.5720 C   0  0  0  0  0  0  0  0  0  0  0  0
   44.6330   33.8590   40.7060 C   0  0  0  0  0  0  0  0  0  0  0  0
   43.8950   33.6620   41.8590 C   0  0  0  0  0  0  0  0  0  0  0  0
   43.0040   32.5960   41.8300 C   0  0  0  0  0  0  0  0  0  0  0  0
   42.8920   31.8080   40.7060 C   0  0  0  0  0  0  0  0  0  0  0  0
   43.6200   32.0050   39.5710 C   0  0  0  0  0  0  0  0  0  0  0  0
   45.3370   34.6800   40.6930 H   0  0  0  0  0  0  0  0  0  0  0  0
   43.9990   34.2880   42.7190 H   0  0  0  0  0  0  0  0  0  0  0  0
   42.4120   32.4130   42.7110 H   0  0  0  0  0  0  0  0  0  0  0  0
   42.1730   30.9930   40.7600 H   0  0  0  0  0  0  0  0  0  0  0  0
   44.1500   29.9130   38.4890 C   0  0  0  0  0  0  0  0  0  0  0  0
   43.4070   31.0980   38.4490 C   0  0  0  0  0  0  0  0  0  0  0  0
   42.5370   31.3510   37.3940 C   0  0  0  0  0  0  0  0  0  0  0  0
   41.9790   32.2890   37.4090 H   0  0  0  0  0  0  0  0  0  0  0  0
   42.3900   30.4390   36.3630 C   0  0  0  0  0  0  0  0  0  0  0  0
   41.7200   30.6210   35.5390 H   0  0  0  0  0  0  0  0  0  0  0  0
   43.1080   29.2500   36.3600 C   0  0  0  0  0  3  0  0  0  0  0  0
   43.9570   29.0430   37.4270 C   0  0  0  0  0  3  0  0  0  0  0  0
   45.7570   30.7120   40.2740 H   0  0  0  0  0  0  0  0  0  0  0  0
   45.2600   29.5280   39.7770 S   0  0  0  0  0  0  0  0  0  0  0  0
   46.4270   28.7950   39.1590 O   0  0  0  0  0  0  0  0  0  0  0  0
   44.6340   28.7480   40.8840 O   0  0  0  0  0  0  0  0  0  0  0  0
   45.3170   33.2920   38.3360 C   0  0  0  0  0  0  0  0  0  0  0  0
   45.3240   34.4130   38.1950 H   0  0  0  0  0  0  0  0  0  0  0  0
   44.8940   32.8640   37.4300 H   0  0  0  0  0  0  0  0  0  0  0  0
   46.7840   32.9450   38.5660 C   0  0  0  0  0  0  0  0  0  0  0  0
   47.2980   33.8960   38.8070 H   0  0  0  0  0  0  0  0  0  0  0  0
   46.8540   32.1740   39.3580 H   0  0  0  0  0  0  0  0  0  0  0  0
   48.6760   32.6570   35.3230 C   0  0  0  0  0  0  0  0  0  0  0  0
   48.1720   33.1910   36.5330 C   0  0  0  0  0  0  0  0  0  0  0  0
   47.3250   32.3990   37.2900 C   0  0  0  0  0  0  0  0  0  0  0  0
   47.0210   31.1390   36.8260 N   0  0  0  0  0  0  0  0  0  0  0  0
   47.5210   30.6740   35.6770 C   0  0  0  0  0  0  0  0  0  0  0  0
   48.3480   31.4180   34.9130 N   0  0  0  0  0  0  0  0  0  0  0  0
   49.3380   33.2950   34.7480 H   0  0  0  0  0  0  0  0  0  0  0  0
   48.4440   34.1920   36.8530 H   0  0  0  0  0  0  0  0  0  0  0  0
   47.1900   29.6630   35.4440 H   0  0  0  0  0  0  0  0  0  0  0  0
  1  2  1  0  0  0  0
  2  3  2  0  0  0  0
  3  8  1  0  0  0  0
  4  3  1  0  0  0  0
  4  9  1  0  0  0  0
  5 10  1  0  0  0  0
  5  4  2  0  0  0  0
  6  1  2  0  0  0  0
  6  5  1  0  0  0  0
  7  2  1  0  0  0  0
 11 20  1  0  0  0  0
 12 11  1  0  0  0  0
 12  6  1  0  0  0  0
 13 14  1  0  0  0  0
 13 12  2  0  0  0  0
 15 13  1  0  0  0  0
 16 15  1  0  0  0  0
 17 15  2  0  0  0  0
 17 18  1  0  0  0  0
 18 11  2  0  0  0  0
 20 19  1  0  0  0  0
 20 22  2  0  0  0  0
 21 20  2  0  0  0  0
 23 26  1  0  0  0  0
 23  1  1  0  0  0  0
 24 23  1  0  0  0  0
 25 23  1  0  0  0  0
 26 27  1  0  0  0  0
 26 28  1  0  0  0  0
 29 30  1  0  0  0  0
 30 36  1  0  0  0  0
 30 31  2  0  0  0  0
 31 26  1  0  0  0  0
 32 31  1  0  0  0  0
 33 32  2  0  0  0  0
 34 29  2  0  0  0  0
 34 33  1  0  0  0  0
 35 29  1  0  0  0  0
 37 33  1  0  0  0  0
M  END
>  <minimizedAffinity>
-2.48620796

>  <minimizedRMSD>
8.0167284

$$$$
