REMARK  Name = 
REMARK  4 active torsions:
REMARK  status: ('A' for Active; 'I' for Inactive)
REMARK    1  A    between atoms: C_2  and  C_14
REMARK    2  A    between atoms: C_9  and  C_16
REMARK    3  A    between atoms: C_19  and  C_35
REMARK    4  A    between atoms: S_31  and  C_34
REMARK                            x       y       z     vdW  Elec       q    Type
REMARK                         _______ _______ _______ _____ _____    ______ ____
ROOT
ATOM      1  C   UNL     1      47.261  31.392  45.151  0.00  0.00    +0.000 A 
ATOM      2  C   UNL     1      46.871  32.724  45.141  0.00  0.00    +0.000 A 
ATOM      3  C   UNL     1      46.241  33.329  46.205  0.00  0.00    +0.000 A 
ATOM      4  C   UNL     1      45.971  32.596  47.357  0.00  0.00    +0.000 A 
ATOM      5  N   UNL     1      45.386  32.846  48.562  0.00  0.00    +0.000 N 
ATOM      6  C   UNL     1      45.415  31.707  49.290  0.00  0.00    +0.000 A 
ATOM      7  N   UNL     1      46.016  30.762  48.532  0.00  0.00    +0.000 NA
ATOM      8  C   UNL     1      46.365  31.282  47.344  0.00  0.00    +0.000 A 
ATOM      9  C   UNL     1      46.996  30.651  46.295  0.00  0.00    +0.000 A 
ATOM     10  H   UNL     1      47.758  30.943  44.290  0.00  0.00    +0.000 HD
ATOM     11  H   UNL     1      45.930  34.367  46.214  0.00  0.00    +0.000 HD
ATOM     12  H   UNL     1      45.023  33.804  48.749  0.00  0.00    +0.000 HD
ATOM     13  H   UNL     1      45.007  31.658  50.288  0.00  0.00    +0.000 HD
ENDROOT
BRANCH   2  18
ATOM     14  C   UNL     1      46.475  35.171  42.429  0.00  0.00    +0.000 A 
ATOM     15  C   UNL     1      47.656  35.015  41.702  0.00  0.00    +0.000 A 
ATOM     16  C   UNL     1      48.582  34.076  42.139  0.00  0.00    +0.000 A 
ATOM     17  N   UNL     1      48.305  33.339  43.264  0.00  0.00    +0.000 NA
ATOM     18  C   UNL     1      47.141  33.525  43.941  0.00  0.00    +0.000 A 
ATOM     19  N   UNL     1      46.223  34.437  43.532  0.00  0.00    +0.000 NA
ATOM     20  H   UNL     1      45.776  35.909  42.064  0.00  0.00    +0.000 HD
ATOM     21  H   UNL     1      47.910  35.576  40.812  0.00  0.00    +0.000 HD
ATOM     22  H   UNL     1      49.525  33.871  41.657  0.00  0.00    +0.000 HD
ENDBRANCH   2  18
BRANCH   9  23
ATOM     23  C   UNL     1      47.372  29.244  46.391  0.00  0.00    +0.000 A 
ATOM     24  C   UNL     1      48.660  28.783  46.597  0.00  0.00    +0.000 A 
ATOM     25  C   UNL     1      48.548  27.396  46.619  0.00  0.00    +0.000 A 
ATOM     26  C   UNL     1      47.219  27.093  46.427  0.00  0.00    +0.000 A 
ATOM     27  O   UNL     1      46.568  28.229  46.298  0.00  0.00    +0.000 OA
ATOM     28  H   UNL     1      49.535  29.388  46.712  0.00  0.00    +0.000 HD
ATOM     29  H   UNL     1      49.371  26.684  46.762  0.00  0.00    +0.000 HD
BRANCH  26  31
ATOM     30  C   UNL     1      46.808  24.977  45.252  0.00  0.00    +0.000 A 
ATOM     31  C   UNL     1      46.630  25.758  46.376  0.00  0.00    +0.000 A 
ATOM     32  C   UNL     1      45.903  25.296  47.453  0.00  0.00    +0.000 A 
ATOM     33  H   UNL     1      45.756  25.909  48.353  0.00  0.00    +0.000 HD
ATOM     34  C   UNL     1      45.322  24.050  47.472  0.00  0.00    +0.000 A 
ATOM     35  H   UNL     1      44.747  23.662  48.302  0.00  0.00    +0.000 HD
ATOM     36  C   UNL     1      45.500  23.257  46.335  0.00  0.00    +0.000 A 
ATOM     37  C   UNL     1      46.225  23.726  45.268  0.00  0.00    +0.000 A 
BRANCH  30  39
ATOM     38  H   UNL     1      48.968  25.989  44.204  0.00  0.00    +0.000 HD
ATOM     39  S   UNL     1      47.725  25.540  43.872  0.00  0.00    +0.000 S 
ATOM     40  O   UNL     1      47.891  24.369  42.920  0.00  0.00    +0.000 OA
ATOM     41  O   UNL     1      46.923  26.585  43.114  0.00  0.00    +0.000 OA
ENDBRANCH  30  39
ENDBRANCH  26  31
ENDBRANCH   9  23
TORSDOF 4
