
     RDKit          3D

 43 47  0  0  0  0  0  0  0  0999 V2000
   47.2609   31.3922   45.1509 C   0  0  0  0  0  0  0  0  0  0  0  0
   46.8707   32.7237   45.1413 C   0  0  0  0  0  0  0  0  0  0  0  0
   46.2414   33.3286   46.2047 C   0  0  0  0  0  0  0  0  0  0  0  0
   45.9706   32.5956   47.3569 C   0  0  0  0  0  0  0  0  0  0  0  0
   45.3860   32.8462   48.5625 N   0  0  0  0  0  0  0  0  0  0  0  0
   45.4154   31.7067   49.2899 C   0  0  0  0  0  0  0  0  0  0  0  0
   46.0158   30.7625   48.5320 N   0  0  0  0  0  0  0  0  0  0  0  0
   46.3647   31.2825   47.3442 C   0  0  0  0  0  0  0  0  0  0  0  0
   46.9960   30.6509   46.2951 C   0  0  0  0  0  0  0  0  0  0  0  0
   46.4752   35.1711   42.4293 C   0  0  0  0  0  0  0  0  0  0  0  0
   47.6556   35.0150   41.7020 C   0  0  0  0  0  0  0  0  0  0  0  0
   48.5818   34.0759   42.1391 C   0  0  0  0  0  0  0  0  0  0  0  0
   48.3052   33.3394   43.2636 N   0  0  0  0  0  0  0  0  0  0  0  0
   47.1414   33.5251   43.9415 C   0  0  0  0  0  0  0  0  0  0  0  0
   46.2233   34.4368   43.5318 N   0  0  0  0  0  0  0  0  0  0  0  0
   47.3720   29.2442   46.3906 C   0  0  0  0  0  0  0  0  0  0  0  0
   48.6595   28.7827   46.5970 C   0  0  0  0  0  0  0  0  0  0  0  0
   48.5485   27.3958   46.6187 C   0  0  0  0  0  0  0  0  0  0  0  0
   47.2193   27.0927   46.4272 C   0  0  0  0  0  0  0  0  0  0  0  0
   46.5679   28.2293   46.2977 O   0  0  0  0  0  0  0  0  0  0  0  0
   47.7584   30.9428   44.2900 H   0  0  0  0  0  0  0  0  0  0  0  0
   45.9299   34.3671   46.2142 H   0  0  0  0  0  0  0  0  0  0  0  0
   45.0235   33.8037   48.7490 H   0  0  0  0  0  0  0  0  0  0  0  0
   45.0071   31.6584   50.2881 H   0  0  0  0  0  0  0  0  0  0  0  0
   45.7757   35.9087   42.0643 H   0  0  0  0  0  0  0  0  0  0  0  0
   47.9098   35.5757   40.8119 H   0  0  0  0  0  0  0  0  0  0  0  0
   49.5254   33.8707   41.6569 H   0  0  0  0  0  0  0  0  0  0  0  0
   49.5353   29.3881   46.7120 H   0  0  0  0  0  0  0  0  0  0  0  0
   49.3706   26.6840   46.7621 H   0  0  0  0  0  0  0  0  0  0  0  0
   49.8206   25.5318   46.2972 H   0  0  0  0  0  0  0  0  0  0  0  0
   49.0361   24.9033   45.3771 S   0  0  0  0  0  0  0  0  0  0  0  0
   49.6168   23.5217   45.1342 O   0  0  0  0  0  0  0  0  0  0  0  0
   49.0558   25.6083   44.0305 O   0  0  0  0  0  0  0  0  0  0  0  0
   47.3824   24.6977   45.9112 C   0  0  0  0  0  0  0  0  0  0  0  0
   46.6305   25.7579   46.3755 C   0  0  0  0  0  0  0  0  0  0  0  0
   45.3276   25.5752   46.7924 C   0  0  0  0  0  0  0  0  0  0  0  0
   44.7203   26.4116   47.1635 H   0  0  0  0  0  0  0  0  0  0  0  0
   44.7113   24.3467   46.7705 C   0  0  0  0  0  0  0  0  0  0  0  0
   43.6928   24.1743   47.0906 H   0  0  0  0  0  0  0  0  0  0  0  0
   45.4707   23.2714   46.3007 C   0  0  0  0  0  0  0  0  0  0  0  0
   46.7652   23.4633   45.8885 C   0  0  0  0  0  0  0  0  0  0  0  0
   45.0682   22.2596   46.2462 H   0  0  0  0  0  0  0  0  0  0  0  0
   47.3339   22.6043   45.5264 H   0  0  0  0  0  0  0  0  0  0  0  0
  1  9  2  0
  2  1  1  0
  2  3  2  0
  3  4  1  0
  4  5  1  0
  5  6  1  0
  7  6  2  0
  8  4  2  0
  8  7  1  0
  9 16  1  0
  9  8  1  0
 10 15  2  0
 11 12  2  0
 11 10  1  0
 12 13  1  0
 13 14  2  0
 14  2  1  0
 15 14  1  0
 16 17  2  0
 17 18  1  0
 19 18  2  0
 20 16  1  0
 20 19  1  0
  1 21  1  0
  3 22  1  0
  5 23  1  0
  6 24  1  0
 10 25  1  0
 11 26  1  0
 12 27  1  0
 17 28  1  0
 18 29  1  0
 30 31  1  0
 31 32  2  0
 31 33  2  0
 31 34  1  0
 34 35  2  0
 35 36  1  0
 36 37  1  0
 36 38  2  0
 38 39  1  0
 38 40  1  0
 40 41  2  0
 41 34  1  0
 40 42  1  0
 41 43  1  0
 19 35  1  0
M  ISO  8  21  14  22  14  23   9  24  14  25  14  26  14  27  14  28  14
M  ISO  4  29  14  30  12  37  15  39  16
M  END
>  <DihAtoms>  (1) 
17,18,34,33

>  <DihDeg>  (1) 
-179.9918164169498

$$$$
