REMARK  Name = 
REMARK  3 active torsions:
REMARK  status: ('A' for Active; 'I' for Inactive)
REMARK    1  A    between atoms: C_5  and  C_7
REMARK    2  A    between atoms: C_9  and  C_25
REMARK    3  A    between atoms: S_21  and  C_24
REMARK                            x       y       z     vdW  Elec       q    Type
REMARK                         _______ _______ _______ _____ _____    ______ ____
ROOT
ATOM      1  C   UNL     1      46.018  32.802  46.943  0.00  0.00    +0.000 A 
ATOM      2  C   UNL     1      47.215  32.158  47.079  0.00  0.00    +0.000 A 
ATOM      3  C   UNL     1      47.505  31.305  48.122  0.00  0.00    +0.000 A 
ATOM      4  C   UNL     1      46.539  31.077  49.095  0.00  0.00    +0.000 A 
ATOM      5  C   UNL     1      45.334  31.704  48.988  0.00  0.00    +0.000 A 
ATOM      6  C   UNL     1      45.092  32.551  47.922  0.00  0.00    +0.000 A 
ATOM      7  H   UNL     1      47.990  32.316  46.343  0.00  0.00    +0.000 HD
ATOM      8  H   UNL     1      46.714  30.417  49.934  0.00  0.00    +0.000 HD
ATOM      9  H   UNL     1      44.546  31.555  49.727  0.00  0.00    +0.000 HD
ATOM     10  H   UNL     1      44.122  33.038  47.863  0.00  0.00    +0.000 HD
ENDROOT
BRANCH   1  15
ATOM     11  C   UNL     1      44.563  35.531  45.003  0.00  0.00    +0.000 A 
ATOM     12  C   UNL     1      45.197  35.450  43.766  0.00  0.00    +0.000 A 
ATOM     13  C   UNL     1      46.145  34.439  43.589  0.00  0.00    +0.000 A 
ATOM     14  N   UNL     1      46.397  33.590  44.631  0.00  0.00    +0.000 NA
ATOM     15  C   UNL     1      45.765  33.695  45.819  0.00  0.00    +0.000 A 
ATOM     16  N   UNL     1      44.839  34.682  45.995  0.00  0.00    +0.000 NA
ATOM     17  H   UNL     1      43.820  36.298  45.189  0.00  0.00    +0.000 HD
ATOM     18  H   UNL     1      44.989  36.119  42.966  0.00  0.00    +0.000 HD
ATOM     19  H   UNL     1      46.675  34.318  42.654  0.00  0.00    +0.000 HD
ENDBRANCH   1  15
BRANCH   3  21
ATOM     20  C   UNL     1      48.911  29.221  48.426  0.00  0.00    +0.000 A 
ATOM     21  C   UNL     1      48.758  30.587  48.321  0.00  0.00    +0.000 A 
ATOM     22  C   UNL     1      49.900  31.364  48.405  0.00  0.00    +0.000 A 
ATOM     23  H   UNL     1      49.906  32.457  48.336  0.00  0.00    +0.000 HD
ATOM     24  C   UNL     1      51.155  30.800  48.589  0.00  0.00    +0.000 A 
ATOM     25  H   UNL     1      52.080  31.361  48.661  0.00  0.00    +0.000 HD
ATOM     26  C   UNL     1      51.268  29.430  48.689  0.00  0.00    +0.000 A 
ATOM     27  C   UNL     1      50.145  28.631  48.609  0.00  0.00    +0.000 A 
BRANCH  20  29
ATOM     28  H   UNL     1      46.333  28.914  48.571  0.00  0.00    +0.000 HD
ATOM     29  S   UNL     1      47.484  28.232  48.330  0.00  0.00    +0.000 S 
ATOM     30  O   UNL     1      47.359  27.520  46.998  0.00  0.00    +0.000 OA
ATOM     31  O   UNL     1      47.565  27.145  49.397  0.00  0.00    +0.000 OA
ENDBRANCH  20  29
ENDBRANCH   3  21
TORSDOF 3
