
 OpenBabel03252506563D

 41 45  0  0  0  0  0  0  0  0999 V2000
   47.4140   31.2990   45.2630 C   0  0  0  0  0  0  0  0  0  0  0  0
   46.9470   32.6000   45.1400 C   0  0  0  0  0  0  0  0  0  0  0  0
   46.2360   33.2390   46.1300 C   0  0  0  0  0  0  0  0  0  0  0  0
   45.9590   32.5750   47.3210 C   0  0  0  0  0  0  0  0  0  0  0  0
   45.3070   32.8730   48.4800 N   0  0  0  0  0  0  0  0  0  0  0  0
   45.3710   31.7930   49.2910 C   0  0  0  0  0  0  0  0  0  0  0  0
   46.0600   30.8360   48.6290 N   0  0  0  0  0  0  0  0  0  0  0  0
   46.4300   31.2900   47.4210 C   0  0  0  0  0  0  0  0  0  0  0  0
   47.1430   30.6260   46.4480 C   0  0  0  0  0  0  0  0  0  0  0  0
   47.9750   30.8220   44.4590 H   0  0  0  0  0  0  0  0  0  0  0  0
   45.8640   34.2540   46.0500 H   0  0  0  0  0  0  0  0  0  0  0  0
   44.8800   33.8180   48.5810 H   0  0  0  0  0  0  0  0  0  0  0  0
   44.9230   31.7900   50.2730 H   0  0  0  0  0  0  0  0  0  0  0  0
   46.6780   35.0340   42.4000 C   0  0  0  0  0  0  0  0  0  0  0  0
   47.7460   34.6820   41.5730 C   0  0  0  0  0  0  0  0  0  0  0  0
   48.5530   33.6160   41.9530 C   0  0  0  0  0  0  0  0  0  0  0  0
   48.2730   32.9510   43.1210 N   0  0  0  0  0  0  0  0  0  0  0  0
   47.2220   33.3290   43.8950 C   0  0  0  0  0  0  0  0  0  0  0  0
   46.4220   34.3670   43.5440 N   0  0  0  0  0  0  0  0  0  0  0  0
   46.0710   35.8670   42.0780 H   0  0  0  0  0  0  0  0  0  0  0  0
   47.9980   35.1810   40.6470 H   0  0  0  0  0  0  0  0  0  0  0  0
   49.4020   33.2580   41.3930 H   0  0  0  0  0  0  0  0  0  0  0  0
   47.5970   29.2560   46.6620 C   0  0  0  0  0  0  0  0  0  0  0  0
   48.9080   28.8870   46.9010 C   0  0  0  0  0  0  0  0  0  0  0  0
   48.8740   27.5030   47.0420 C   0  0  0  0  0  0  0  0  0  0  0  0
   47.5640   27.1110   46.8830 C   0  0  0  0  0  0  0  0  0  0  0  0
   46.8510   28.1940   46.6610 O   0  0  0  0  0  0  0  0  0  0  0  0
   49.7480   29.5470   46.9590 H   0  0  0  0  0  0  0  0  0  0  0  0
   49.7350   26.8520   47.2420 H   0  0  0  0  0  0  0  0  0  0  0  0
   45.7980   25.5130   47.4800 C   0  0  0  0  0  0  0  0  0  0  0  0
   47.0500   25.7460   46.9500 C   0  0  0  0  0  0  0  0  0  0  0  0
   47.8270   24.7050   46.4790 C   0  0  0  0  0  0  0  0  0  0  0  0
   48.8250   24.8800   46.0550 H   0  0  0  0  0  0  0  0  0  0  0  0
   47.4050   23.3980   46.5110 C   0  0  0  0  0  0  0  0  0  0  0  0
   47.9910   22.5640   46.1510 H   0  0  0  0  0  0  0  0  0  0  0  0
   46.1370   23.1600   47.0480 C   0  0  0  0  0  3  0  0  0  0  0  0
   45.3730   24.2000   47.5130 C   0  0  0  0  0  3  0  0  0  0  0  0
   45.4850   27.9710   48.2840 H   0  0  0  0  0  0  0  0  0  0  0  0
   44.7940   26.8140   48.0830 S   0  0  0  0  0  0  0  0  0  0  0  0
   43.7200   27.0850   47.0450 O   0  0  0  0  0  0  0  0  0  0  0  0
   44.0620   26.3590   49.3350 O   0  0  0  0  0  0  0  0  0  0  0  0
  1  9  1  0  0  0  0
  2  1  2  0  0  0  0
  2  3  1  0  0  0  0
  3  4  2  0  0  0  0
  4  8  1  0  0  0  0
  4  5  1  0  0  0  0
  5 12  1  0  0  0  0
  5  6  1  0  0  0  0
  6 13  1  0  0  0  0
  7  6  2  0  0  0  0
  8  7  1  0  0  0  0
  9 23  1  0  0  0  0
  9  8  2  0  0  0  0
 10  1  1  0  0  0  0
 11  3  1  0  0  0  0
 14 19  1  0  0  0  0
 15 16  1  0  0  0  0
 15 14  2  0  0  0  0
 16 17  2  0  0  0  0
 17 18  1  0  0  0  0
 18  2  1  0  0  0  0
 19 18  2  0  0  0  0
 20 14  1  0  0  0  0
 21 15  1  0  0  0  0
 22 16  1  0  0  0  0
 23 24  2  0  0  0  0
 24 28  1  0  0  0  0
 24 25  1  0  0  0  0
 25 29  1  0  0  0  0
 26 31  1  0  0  0  0
 26 25  2  0  0  0  0
 27 23  1  0  0  0  0
 27 26  1  0  0  0  0
 30 37  1  0  0  0  0
 30 39  1  0  0  0  0
 31 30  2  0  0  0  0
 32 34  2  0  0  0  0
 32 31  1  0  0  0  0
 33 32  1  0  0  0  0
 34 36  1  0  0  0  0
 35 34  1  0  0  0  0
 36 37  2  0  0  0  0
 39 38  1  0  0  0  0
 39 41  2  0  0  0  0
 40 39  2  0  0  0  0
M  END
>  <minimizedAffinity>
-5.71498585

>  <minimizedRMSD>
0.869782567

$$$$
