
 OpenBabel03242516493D

 46 49  0  0  1  0  0  0  0  0999 V2000
   47.8300   32.8400   41.5880 C   0  0  1  0  0  0  0  0  0  0  0  0
   47.3690   32.1440   40.3700 C   0  0  0  0  0  0  0  0  0  0  0  0
   48.3640   32.5160   39.2750 C   0  0  0  0  0  0  0  0  0  0  0  0
   48.1160   33.9940   38.9760 C   0  0  0  0  0  0  0  0  0  0  0  0
   48.1770   34.8770   40.1560 C   0  0  0  0  0  0  0  0  0  0  0  0
   47.7480   34.3490   41.4630 C   0  0  1  0  0  0  0  0  0  0  0  0
   48.9400   32.6540   41.7060 H   0  0  0  0  0  0  0  0  0  0  0  0
   46.3570   32.3880   40.0390 H   0  0  0  0  0  0  0  0  0  0  0  0
   47.4300   31.0390   40.5800 H   0  0  0  0  0  0  0  0  0  0  0  0
   48.0890   31.9490   38.3770 H   0  0  0  0  0  0  0  0  0  0  0  0
   49.4010   32.3590   39.6120 H   0  0  0  0  0  0  0  0  0  0  0  0
   48.9130   34.2830   38.2490 H   0  0  0  0  0  0  0  0  0  0  0  0
   47.1740   34.0120   38.4030 H   0  0  0  0  0  0  0  0  0  0  0  0
   49.2020   35.3110   40.2240 H   0  0  0  0  0  0  0  0  0  0  0  0
   47.5330   35.7790   39.9290 H   0  0  0  0  0  0  0  0  0  0  0  0
   48.4210   34.7460   42.2570 H   0  0  0  0  0  0  0  0  0  0  0  0
   45.5310   31.0680   44.0060 C   0  0  0  0  0  0  0  0  0  0  0  0
   46.1570   31.5130   42.8440 C   0  0  0  0  0  0  0  0  0  0  0  0
   47.2210   32.4000   42.8380 C   0  0  0  0  0  0  0  0  0  0  0  0
   47.6310   32.8220   44.0460 N   0  0  0  0  0  0  0  0  0  0  0  0
   47.0360   32.4010   45.1880 C   0  0  0  0  0  0  0  0  0  0  0  0
   46.0090   31.5440   45.1790 N   0  0  0  0  0  0  0  0  0  0  0  0
   44.7040   30.3690   43.8960 H   0  0  0  0  0  0  0  0  0  0  0  0
   45.8030   31.1530   41.8770 H   0  0  0  0  0  0  0  0  0  0  0  0
   47.3660   32.7420   46.1660 H   0  0  0  0  0  0  0  0  0  0  0  0
   46.4010   34.8360   41.8490 C   0  0  0  0  0  0  0  0  0  0  0  0
   46.1050   35.6870   42.9170 C   0  0  0  0  0  0  0  0  0  0  0  0
   44.7550   36.0170   43.0560 C   0  0  0  0  0  0  0  0  0  0  0  0
   43.8540   35.4990   42.1660 C   0  0  0  0  0  0  0  0  0  0  0  0
   44.1490   34.6680   41.1280 C   0  0  0  0  0  0  0  0  0  0  0  0
   45.4610   34.3480   40.9930 N   0  0  0  0  0  0  0  0  0  0  0  0
   46.9260   35.9860   43.4990 H   0  0  0  0  0  0  0  0  0  0  0  0
   44.5380   36.6730   43.8810 H   0  0  0  0  0  0  0  0  0  0  0  0
   42.8730   35.8630   42.3740 H   0  0  0  0  0  0  0  0  0  0  0  0
   41.8420   34.3390   40.0730 C   0  0  0  0  0  0  0  0  0  0  0  0
   43.1960   34.1610   40.1480 C   0  0  0  0  0  0  0  0  0  0  0  0
   43.7420   33.3450   39.1700 C   0  0  0  0  0  0  0  0  0  0  0  0
   44.8030   33.1430   39.1330 H   0  0  0  0  0  0  0  0  0  0  0  0
   43.0460   32.7280   38.1670 C   0  0  0  0  0  0  0  0  0  0  0  0
   43.5020   32.0970   37.4160 H   0  0  0  0  0  0  0  0  0  0  0  0
   41.6830   32.9050   38.0850 C   0  0  0  0  0  3  0  0  0  0  0  0
   41.1210   33.7110   39.0490 C   0  0  0  0  0  3  0  0  0  0  0  0
   41.8810   36.0600   42.0050 H   0  0  0  0  0  0  0  0  0  0  0  0
   41.0430   35.2660   41.2770 S   0  0  0  0  0  0  0  0  0  0  0  0
   40.0420   34.5070   42.0980 O   0  0  0  0  0  0  0  0  0  0  0  0
   40.1760   36.2860   40.5070 O   0  0  0  0  0  0  0  0  0  0  0  0
  1  7  1  1  0  0  0
  1 19  1  0  0  0  0
  2  9  1  0  0  0  0
  2  1  1  0  0  0  0
  3 11  1  0  0  0  0
  3  2  1  0  0  0  0
  4  3  1  0  0  0  0
  4  5  1  0  0  0  0
  5 14  1  0  0  0  0
  5  6  1  0  0  0  0
  6  1  1  0  0  0  0
  6 26  1  0  0  0  0
  6 16  1  1  0  0  0
  8  2  1  0  0  0  0
 10  3  1  0  0  0  0
 12  4  1  0  0  0  0
 13  4  1  0  0  0  0
 15  5  1  0  0  0  0
 17 22  1  0  0  0  0
 18 17  2  0  0  0  0
 19 18  1  0  0  0  0
 19 20  2  0  0  0  0
 20 21  1  0  0  0  0
 21 25  1  0  0  0  0
 22 21  2  0  0  0  0
 23 17  1  0  0  0  0
 24 18  1  0  0  0  0
 26 27  1  0  0  0  0
 27 28  2  0  0  0  0
 27 32  1  0  0  0  0
 28 33  1  0  0  0  0
 29 34  1  0  0  0  0
 29 28  1  0  0  0  0
 30 29  2  0  0  0  0
 31 30  1  0  0  0  0
 31 26  2  0  0  0  0
 35 36  1  0  0  0  0
 35 44  1  0  0  0  0
 36 30  1  0  0  0  0
 37 36  2  0  0  0  0
 38 37  1  0  0  0  0
 39 37  1  0  0  0  0
 40 39  1  0  0  0  0
 41 39  2  0  0  0  0
 41 42  1  0  0  0  0
 42 35  2  0  0  0  0
 44 43  1  0  0  0  0
 44 45  2  0  0  0  0
 46 44  2  0  0  0  0
M  END
>  <minimizedAffinity>
-6.13721132

>  <minimizedRMSD>
0.794595063

$$$$
