REMARK  Name = 
REMARK  4 active torsions:
REMARK  status: ('A' for Active; 'I' for Inactive)
REMARK    1  A    between atoms: C_3  and  C_10
REMARK    2  A    between atoms: C_7  and  C_14
REMARK    3  A    between atoms: C_19  and  C_35
REMARK    4  A    between atoms: S_31  and  C_34
REMARK                            x       y       z     vdW  Elec       q    Type
REMARK                         _______ _______ _______ _____ _____    ______ ____
ROOT
ATOM      1  C   UNL     1      46.612  33.273  38.729  0.00  0.00    +0.000 A 
ATOM      2  C   UNL     1      45.332  32.736  38.745  0.00  0.00    +0.000 A 
ATOM      3  C   UNL     1      44.861  32.124  37.609  0.00  0.00    +0.000 A 
ATOM      4  C   UNL     1      45.649  32.047  36.475  0.00  0.00    +0.000 A 
ATOM      5  C   UNL     1      46.922  32.610  36.552  0.00  0.00    +0.000 A 
ATOM      6  C   UNL     1      47.429  33.215  37.640  0.00  0.00    +0.000 A 
ATOM      7  H   UNL     1      44.600  32.712  39.512  0.00  0.00    +0.000 HD
ATOM      8  H   UNL     1      43.852  31.680  37.565  0.00  0.00    +0.000 HD
ATOM      9  H   UNL     1      45.186  31.538  35.603  0.00  0.00    +0.000 HD
ATOM     10  H   UNL     1      47.376  32.450  35.574  0.00  0.00    +0.000 HD
ENDROOT
BRANCH   1  17
ATOM     11  F   UNL     1      45.259  33.468  41.167  0.00  0.00    +0.000 F 
ATOM     12  C   UNL     1      46.460  34.109  41.086  0.00  0.00    +0.000 A 
ATOM     13  C   UNL     1      46.934  34.825  42.136  0.00  0.00    +0.000 A 
ATOM     14  C   UNL     1      48.115  35.513  41.924  0.00  0.00    +0.000 A 
ATOM     15  C   UNL     1      48.784  35.486  40.716  0.00  0.00    +0.000 A 
ATOM     16  C   UNL     1      48.208  34.730  39.731  0.00  0.00    +0.000 A 
ATOM     17  C   UNL     1      47.062  34.028  39.871  0.00  0.00    +0.000 A 
ATOM     18  H   UNL     1      48.393  36.048  42.854  0.00  0.00    +0.000 HD
ATOM     19  H   UNL     1      49.650  36.096  40.822  0.00  0.00    +0.000 HD
ATOM     20  H   UNL     1      48.910  34.964  38.980  0.00  0.00    +0.000 HD
BRANCH  13  23
ATOM     21  C   UNL     1      44.462  35.913  44.785  0.00  0.00    +0.000 A 
ATOM     22  C   UNL     1      45.205  35.870  43.604  0.00  0.00    +0.000 A 
ATOM     23  C   UNL     1      46.165  34.855  43.369  0.00  0.00    +0.000 A 
ATOM     24  N   UNL     1      46.317  33.943  44.339  0.00  0.00    +0.000 NA
ATOM     25  C   UNL     1      45.587  34.002  45.473  0.00  0.00    +0.000 A 
ATOM     26  N   UNL     1      44.688  34.951  45.697  0.00  0.00    +0.000 NA
ATOM     27  H   UNL     1      43.757  36.698  44.905  0.00  0.00    +0.000 HD
ATOM     28  H   UNL     1      45.033  36.628  42.872  0.00  0.00    +0.000 HD
ATOM     29  H   UNL     1      45.749  33.232  46.236  0.00  0.00    +0.000 HD
ENDBRANCH  13  23
ENDBRANCH   1  17
BRANCH   6  31
ATOM     30  C   UNL     1      49.251  34.290  36.264  0.00  0.00    +0.000 A 
ATOM     31  C   UNL     1      48.749  33.541  37.323  0.00  0.00    +0.000 A 
ATOM     32  C   UNL     1      49.677  32.918  38.198  0.00  0.00    +0.000 A 
ATOM     33  H   UNL     1      49.400  32.303  39.068  0.00  0.00    +0.000 HD
ATOM     34  C   UNL     1      51.067  33.018  38.050  0.00  0.00    +0.000 A 
ATOM     35  H   UNL     1      51.755  32.546  38.712  0.00  0.00    +0.000 HD
ATOM     36  C   UNL     1      51.531  33.781  36.970  0.00  0.00    +0.000 A 
ATOM     37  C   UNL     1      50.626  34.391  36.115  0.00  0.00    +0.000 A 
BRANCH  30  39
ATOM     38  H   UNL     1      47.067  34.282  34.802  0.00  0.00    +0.000 HD
ATOM     39  S   UNL     1      48.082  35.014  35.255  0.00  0.00    +0.000 S 
ATOM     40  O   UNL     1      47.665  36.401  35.745  0.00  0.00    +0.000 OA
ATOM     41  O   UNL     1      48.828  35.389  33.987  0.00  0.00    +0.000 OA
ENDBRANCH  30  39
ENDBRANCH   6  31
TORSDOF 4
