
 OpenBabel03242511423D

 37 39  0  0  0  0  0  0  0  0999 V2000
   46.2390   31.8310   47.1080 C   0  0  0  0  0  0  0  0  0  0  0  0
   45.9710   32.4230   48.3330 C   0  0  0  0  0  0  0  0  0  0  0  0
   45.4160   31.7550   49.3920 C   0  0  0  0  0  0  0  0  0  0  0  0
   45.1180   30.4210   49.1940 C   0  0  0  0  0  0  0  0  0  0  0  0
   45.3990   29.8460   47.9490 C   0  0  0  0  0  0  0  0  0  0  0  0
   45.9580   30.5220   46.8910 C   0  0  0  0  0  0  0  0  0  0  0  0
   46.2770   33.4800   48.2870 H   0  0  0  0  0  0  0  0  0  0  0  0
   45.3130   32.4240   50.2120 H   0  0  0  0  0  0  0  0  0  0  0  0
   44.6850   30.0470   50.1350 H   0  0  0  0  0  0  0  0  0  0  0  0
   45.0520   28.8200   48.1300 H   0  0  0  0  0  0  0  0  0  0  0  0
   46.9770   28.6920   45.2750 C   0  0  0  0  0  0  0  0  0  0  0  0
   45.9790   29.4260   45.9250 C   0  0  0  0  0  0  0  0  0  0  0  0
   44.6450   29.0670   45.6660 C   0  0  0  0  0  0  0  0  0  0  0  0
   43.7270   29.5220   46.0780 H   0  0  0  0  0  0  0  0  0  0  0  0
   44.2940   28.0410   44.8180 C   0  0  0  0  0  0  0  0  0  0  0  0
   43.2960   27.7150   44.5750 H   0  0  0  0  0  0  0  0  0  0  0  0
   45.2920   27.3410   44.1980 C   0  0  0  0  0  0  0  0  0  0  0  0
   46.5930   27.6800   44.4410 C   0  0  0  0  0  0  0  0  0  0  0  0
   48.6160   30.0610   46.7420 H   0  0  0  0  0  0  0  0  0  0  0  0
   48.5690   29.2650   45.6540 S   0  0  0  0  0  0  0  0  0  0  0  0
   49.3690   28.0200   46.0150 O   0  0  0  0  0  0  0  0  0  0  0  0
   49.2690   29.8520   44.4470 O   0  0  0  0  0  0  0  0  0  0  0  0
   46.8320   32.5040   45.9220 C   0  0  0  0  0  0  0  0  0  0  0  0
   47.8160   32.0370   45.7140 H   0  0  0  0  0  0  0  0  0  0  0  0
   47.0470   33.5330   46.2650 H   0  0  0  0  0  0  0  0  0  0  0  0
   45.9100   32.4570   44.7410 C   0  0  0  0  0  0  0  0  0  0  0  0
   46.3730   31.9260   43.9330 H   0  0  0  0  0  0  0  0  0  0  0  0
   44.8820   32.1330   45.0500 H   0  0  0  0  0  0  0  0  0  0  0  0
   44.6150   35.9180   44.8240 C   0  0  0  0  0  0  0  0  0  0  0  0
   45.0330   36.4100   43.5560 C   0  0  0  0  0  0  0  0  0  0  0  0
   45.7540   35.5350   42.7490 C   0  0  0  0  0  0  0  0  0  0  0  0
   46.0270   34.2960   43.1680 N   0  0  0  0  0  0  0  0  0  0  0  0
   45.5960   33.8880   44.3940 C   0  0  0  0  0  0  0  0  0  0  0  0
   44.9120   34.6650   45.2070 N   0  0  0  0  0  0  0  0  0  0  0  0
   44.0530   36.5520   45.4970 H   0  0  0  0  0  0  0  0  0  0  0  0
   44.7890   37.4240   43.2550 H   0  0  0  0  0  0  0  0  0  0  0  0
   46.0600   35.9370   41.7860 H   0  0  0  0  0  0  0  0  0  0  0  0
  1  2  1  0  0  0  0
  2  3  2  0  0  0  0
  3  8  1  0  0  0  0
  4  3  1  0  0  0  0
  4  9  1  0  0  0  0
  5 10  1  0  0  0  0
  5  4  2  0  0  0  0
  6  1  2  0  0  0  0
  6  5  1  0  0  0  0
  7  2  1  0  0  0  0
 11 20  1  0  0  0  0
 11 12  1  0  0  0  0
 12  6  1  0  0  0  0
 13 12  2  0  0  0  0
 13 14  1  0  0  0  0
 15 13  1  0  0  0  0
 16 15  1  0  0  0  0
 17 18  1  0  0  0  0
 17 15  2  0  0  0  0
 18 11  2  0  0  0  0
 20 21  2  0  0  0  0
 20 19  1  0  0  0  0
 22 20  2  0  0  0  0
 23 25  1  0  0  0  0
 23  1  1  0  0  0  0
 24 23  1  0  0  0  0
 26 28  1  0  0  0  0
 26 23  1  0  0  0  0
 27 26  1  0  0  0  0
 29 34  1  0  0  0  0
 29 35  1  0  0  0  0
 30 29  2  0  0  0  0
 31 32  2  0  0  0  0
 31 30  1  0  0  0  0
 32 33  1  0  0  0  0
 33 26  1  0  0  0  0
 33 34  2  0  0  0  0
 36 30  1  0  0  0  0
 37 31  1  0  0  0  0
M  END
>  <minimizedAffinity>
-4.91412544

>  <minimizedRMSD>
0.943212092

$$$$
