
 OpenBabel03242521023D

 30 32  0  0  0  0  0  0  0  0999 V2000
   46.6590   34.7370   42.1680 C   0  0  0  0  0  0  0  0  0  0  0  0
   47.9230   35.2160   41.9430 C   0  0  0  0  0  0  0  0  0  0  0  0
   48.6340   35.0680   40.7800 C   0  0  0  0  0  0  0  0  0  0  0  0
   48.0390   34.3810   39.7370 C   0  0  0  0  0  0  0  0  0  0  0  0
   46.7790   33.9030   39.9570 C   0  0  0  0  0  0  0  0  0  0  0  0
   46.1630   34.0900   41.1130 N   0  0  0  0  0  0  0  0  0  0  0  0
   48.4340   35.7660   42.7410 H   0  0  0  0  0  0  0  0  0  0  0  0
   49.6380   35.4770   40.6750 H   0  0  0  0  0  0  0  0  0  0  0  0
   48.6180   34.2830   38.8430 H   0  0  0  0  0  0  0  0  0  0  0  0
   44.4230   36.0010   44.9320 C   0  0  0  0  0  0  0  0  0  0  0  0
   45.0560   35.9630   43.6920 C   0  0  0  0  0  0  0  0  0  0  0  0
   45.9290   34.9100   43.4150 C   0  0  0  0  0  0  0  0  0  0  0  0
   46.1160   33.9710   44.3750 N   0  0  0  0  0  0  0  0  0  0  0  0
   45.4830   34.0410   45.5680 C   0  0  0  0  0  0  0  0  0  0  0  0
   44.6490   35.0420   45.8410 N   0  0  0  0  0  0  0  0  0  0  0  0
   43.7670   36.8440   45.0680 H   0  0  0  0  0  0  0  0  0  0  0  0
   44.9620   36.6650   42.8830 H   0  0  0  0  0  0  0  0  0  0  0  0
   45.6790   33.2510   46.2970 H   0  0  0  0  0  0  0  0  0  0  0  0
   46.7070   32.8710   37.7060 C   0  0  0  0  0  0  0  0  0  0  0  0
   46.0930   33.1710   38.9010 C   0  0  0  0  0  0  0  0  0  0  0  0
   44.7930   32.7240   39.0070 C   0  0  0  0  0  0  0  0  0  0  0  0
   44.2210   32.9090   39.9050 H   0  0  0  0  0  0  0  0  0  0  0  0
   44.0940   32.0290   38.0440 C   0  0  0  0  0  0  0  0  0  0  0  0
   43.0730   31.7010   38.1800 H   0  0  0  0  0  0  0  0  0  0  0  0
   44.7430   31.7470   36.8610 C   0  0  0  0  0  0  0  0  0  0  0  0
   46.0270   32.1670   36.7050 C   0  0  0  0  0  0  0  0  0  0  0  0
   49.1540   33.1550   38.4750 H   0  0  0  0  0  0  0  0  0  0  0  0
   48.3550   33.3500   37.3780 S   0  0  0  0  0  0  0  0  0  0  0  0
   48.9440   32.4700   36.2810 O   0  0  0  0  0  0  0  0  0  0  0  0
   48.4580   34.7510   36.8440 O   0  0  0  0  0  0  0  0  0  0  0  0
  1 12  1  0  0  0  0
  2  1  1  0  0  0  0
  2  7  1  0  0  0  0
  3  2  2  0  0  0  0
  4  5  2  0  0  0  0
  4  3  1  0  0  0  0
  5  6  1  0  0  0  0
  6  1  2  0  0  0  0
  8  3  1  0  0  0  0
  9  4  1  0  0  0  0
 10 16  1  0  0  0  0
 10 15  1  0  0  0  0
 11 10  2  0  0  0  0
 12 11  1  0  0  0  0
 12 13  2  0  0  0  0
 13 14  1  0  0  0  0
 14 15  2  0  0  0  0
 14 18  1  0  0  0  0
 17 11  1  0  0  0  0
 19 20  1  0  0  0  0
 20 21  2  0  0  0  0
 20  5  1  0  0  0  0
 21 22  1  0  0  0  0
 23 24  1  0  0  0  0
 23 21  1  0  0  0  0
 25 23  2  0  0  0  0
 26 25  1  0  0  0  0
 26 19  2  0  0  0  0
 28 19  1  0  0  0  0
 28 27  1  0  0  0  0
 29 28  2  0  0  0  0
 30 28  2  0  0  0  0
M  END
>  <minimizedAffinity>
-5.65606308

>  <minimizedRMSD>
0.540320814

$$$$
