
 OpenBabel03252508263D

 44 48  0  0  1  0  0  0  0  0999 V2000
   47.0570   30.9950   45.4620 C   0  0  1  0  0  0  0  0  0  0  0  0
   47.1760   31.3010   46.8940 C   0  0  0  0  0  0  0  0  0  0  0  0
   45.8280   30.8330   46.2120 C   0  0  2  0  0  0  0  0  0  0  0  0
   47.8360   30.1720   45.2710 H   0  0  0  0  0  0  0  0  0  0  0  0
   47.4880   30.5800   47.6660 H   0  0  0  0  0  0  0  0  0  0  0  0
   47.2030   32.3410   47.2580 H   0  0  0  0  0  0  0  0  0  0  0  0
   45.1210   31.6870   46.4640 H   0  0  0  0  0  0  0  0  0  0  0  0
   45.2330   29.5530   46.5960 C   0  0  0  0  0  0  0  0  0  0  0  0
   45.3610   28.9030   47.7840 C   0  0  0  0  0  0  0  0  0  0  0  0
   44.8900   27.6280   48.0720 C   0  0  0  0  0  0  0  0  0  0  0  0
   44.2210   26.9620   47.0250 C   0  0  0  0  0  0  0  0  0  0  0  0
   44.0760   27.6070   45.8070 C   0  0  0  0  0  0  0  0  0  0  0  0
   43.3620   26.9360   44.8320 C   0  0  0  0  0  0  0  0  0  0  0  0
   43.1260   27.5640   43.6060 C   0  0  0  0  0  0  0  0  0  0  0  0
   43.5980   28.8400   43.3740 C   0  0  0  0  0  0  0  0  0  0  0  0
   44.3050   29.4580   44.3780 C   0  0  0  0  0  0  0  0  0  0  0  0
   44.5710   28.8750   45.6020 C   0  0  0  0  0  0  0  0  0  0  0  0
   45.8870   29.4630   48.5600 H   0  0  0  0  0  0  0  0  0  0  0  0
   45.0470   27.2180   49.0400 H   0  0  0  0  0  0  0  0  0  0  0  0
   43.8690   25.9800   47.2660 H   0  0  0  0  0  0  0  0  0  0  0  0
   42.9950   25.9280   45.0390 H   0  0  0  0  0  0  0  0  0  0  0  0
   42.5550   26.9370   42.9160 H   0  0  0  0  0  0  0  0  0  0  0  0
   43.3180   29.1480   42.3920 H   0  0  0  0  0  0  0  0  0  0  0  0
   44.4770   30.4260   44.0020 H   0  0  0  0  0  0  0  0  0  0  0  0
   46.7750   34.2650   43.7840 C   0  0  0  0  0  0  0  0  0  0  0  0
   47.2950   33.9950   42.4790 C   0  0  0  0  0  0  0  0  0  0  0  0
   47.7330   32.6840   42.2180 C   0  0  0  0  0  0  0  0  0  0  0  0
   47.6460   31.7690   43.1970 N   0  0  0  0  0  0  0  0  0  0  0  0
   47.1460   32.0650   44.4300 C   0  0  0  0  0  0  0  0  0  0  0  0
   46.7200   33.2910   44.7140 N   0  0  0  0  0  0  0  0  0  0  0  0
   46.4380   35.2560   43.9910 H   0  0  0  0  0  0  0  0  0  0  0  0
   47.3700   34.7770   41.7630 H   0  0  0  0  0  0  0  0  0  0  0  0
   49.6570   32.0090   40.6900 C   0  0  0  0  0  0  0  0  0  0  0  0
   48.3390   32.2230   40.9900 C   0  0  0  0  0  0  0  0  0  0  0  0
   47.4620   31.9870   39.9230 C   0  0  0  0  0  0  0  0  0  0  0  0
   46.3870   32.1290   40.0530 H   0  0  0  0  0  0  0  0  0  0  0  0
   47.8150   31.5720   38.6610 C   0  0  0  0  0  0  0  0  0  0  0  0
   47.0930   31.4080   37.8840 H   0  0  0  0  0  0  0  0  0  0  0  0
   49.1390   31.3630   38.3900 C   0  0  0  0  0  3  0  0  0  0  0  0
   50.0310   31.5850   39.4090 C   0  0  0  0  0  3  0  0  0  0  0  0
   52.1170   32.2870   41.1130 H   0  0  0  0  0  0  0  0  0  0  0  0
   50.8960   32.3360   41.8340 S   0  0  0  0  0  0  0  0  0  0  0  0
   50.8970   33.7500   42.3600 O   0  0  0  0  0  0  0  0  0  0  0  0
   51.0890   31.3030   42.8910 O   0  0  0  0  0  0  0  0  0  0  0  0
  1  4  1  6  0  0  0
  1  3  1  0  0  0  0
  1  2  1  0  0  0  0
  2  6  1  0  0  0  0
  2  5  1  0  0  0  0
  3  7  1  6  0  0  0
  3  8  1  0  0  0  0
  3  2  1  0  0  0  0
  8  9  1  0  0  0  0
  9 10  2  0  0  0  0
  9 18  1  0  0  0  0
 10 19  1  0  0  0  0
 11 20  1  0  0  0  0
 11 10  1  0  0  0  0
 12 11  2  0  0  0  0
 13 21  1  0  0  0  0
 13 12  1  0  0  0  0
 14 13  2  0  0  0  0
 15 14  1  0  0  0  0
 15 16  2  0  0  0  0
 16 17  1  0  0  0  0
 17 12  1  0  0  0  0
 17  8  2  0  0  0  0
 22 14  1  0  0  0  0
 23 15  1  0  0  0  0
 24 16  1  0  0  0  0
 25 31  1  0  0  0  0
 25 30  1  0  0  0  0
 26 25  2  0  0  0  0
 27 26  1  0  0  0  0
 27 28  2  0  0  0  0
 28 29  1  0  0  0  0
 29 30  2  0  0  0  0
 29  1  1  0  0  0  0
 32 26  1  0  0  0  0
 33 34  1  0  0  0  0
 33 42  1  0  0  0  0
 34 27  1  0  0  0  0
 35 36  1  0  0  0  0
 35 34  2  0  0  0  0
 37 35  1  0  0  0  0
 38 37  1  0  0  0  0
 39 37  2  0  0  0  0
 39 40  1  0  0  0  0
 40 33  2  0  0  0  0
 41 42  1  0  0  0  0
 42 43  2  0  0  0  0
 42 44  2  0  0  0  0
M  END
>  <minimizedAffinity>
-4.80937529

>  <minimizedRMSD>
3.06853318

$$$$
