
     RDKit          3D

 39 41  0  0  0  0  0  0  0  0999 V2000
   43.8576   33.6134   40.6197 C   0  0  0  0  0  0  0  0  0  0  0  0
   40.3893   34.8049   41.4728 C   0  0  0  0  0  0  0  0  0  0  0  0
   41.7530   34.8233   41.0944 C   0  0  0  0  0  0  0  0  0  0  0  0
   42.4223   33.6134   41.0161 C   0  0  0  0  0  0  0  0  0  0  0  0
   41.7270   32.4619   41.3097 N   0  0  0  0  0  0  0  0  0  0  0  0
   40.4371   32.4911   41.6635 C   0  0  0  0  0  0  0  0  0  0  0  0
   39.7543   33.6515   41.7499 N   0  0  0  0  0  0  0  0  0  0  0  0
   44.6739   34.0368   41.8355 C   0  0  0  0  0  0  0  0  0  0  0  0
   46.0560   34.3832   41.4400 C   0  0  0  0  0  0  0  0  0  0  0  0
   46.6366   34.0332   40.2378 C   0  0  0  0  0  0  0  0  0  0  0  0
   47.9285   34.3625   39.8677 C   0  0  0  0  0  0  0  0  0  0  0  0
   48.6542   35.0951   40.7990 C   0  0  0  0  0  0  0  0  0  0  0  0
   48.0905   35.4523   42.0027 C   0  0  0  0  0  0  0  0  0  0  0  0
   46.8168   35.1265   42.3654 C   0  0  0  0  0  0  0  0  0  0  0  0
   44.0261   34.3862   39.8445 H   0  0  0  0  0  0  0  0  0  0  0  0
   44.1603   32.5911   40.3202 H   0  0  0  0  0  0  0  0  0  0  0  0
   39.8858   35.7644   41.5274 H   0  0  0  0  0  0  0  0  0  0  0  0
   42.2539   35.7599   40.8735 H   0  0  0  0  0  0  0  0  0  0  0  0
   40.0258   31.5026   41.8642 H   0  0  0  0  0  0  0  0  0  0  0  0
   44.2121   35.0234   42.1406 H   0  0  0  0  0  0  0  0  0  0  0  0
   44.5810   33.3701   42.6895 H   0  0  0  0  0  0  0  0  0  0  0  0
   46.0419   33.4633   39.5377 H   0  0  0  0  0  0  0  0  0  0  0  0
   48.3448   34.0737   38.9269 H   0  0  0  0  0  0  0  0  0  0  0  0
   49.6638   35.3690   40.5439 H   0  0  0  0  0  0  0  0  0  0  0  0
   48.7215   36.0250   42.6787 H   0  0  0  0  0  0  0  0  0  0  0  0
   45.8765   38.3590   41.8395 H   0  0  0  0  0  0  0  0  0  0  0  0
   44.9263   37.4202   42.1761 S   0  0  0  0  0  0  0  0  0  0  0  0
   43.6608   38.1805   42.4928 O   0  0  0  0  0  0  0  0  0  0  0  0
   44.7398   36.4725   41.0406 O   0  0  0  0  0  0  0  0  0  0  0  0
   45.4449   36.6426   43.6489 C   0  0  0  0  0  0  0  0  0  0  0  0
   46.3383   35.5658   43.6711 C   0  0  0  0  0  0  0  0  0  0  0  0
   46.7154   34.9864   44.8774 C   0  0  0  0  0  0  0  0  0  0  0  0
   47.4145   34.1492   44.8419 H   0  0  0  0  0  0  0  0  0  0  0  0
   46.2158   35.4619   46.0781 C   0  0  0  0  0  0  0  0  0  0  0  0
   46.4997   35.0222   47.0210 H   0  0  0  0  0  0  0  0  0  0  0  0
   45.3270   36.5284   46.1041 C   0  0  0  0  0  0  0  0  0  0  0  0
   44.9820   37.0708   44.8836 C   0  0  0  0  0  0  0  0  0  0  0  0
   44.9042   36.9413   47.0196 H   0  0  0  0  0  0  0  0  0  0  0  0
   44.2893   37.9047   44.8754 H   0  0  0  0  0  0  0  0  0  0  0  0
  1  4  1  0
  1  8  1  0
  2  7  2  0
  3  2  1  0
  4  3  2  0
  4  5  1  0
  5  6  2  0
  6  7  1  0
  9  8  1  0
  9 14  1  0
 10  9  2  0
 11 10  1  0
 11 12  2  0
 12 13  1  0
 13 14  2  0
  1 15  1  0
  1 16  1  0
  2 17  1  0
  3 18  1  0
  6 19  1  0
  8 20  1  0
  8 21  1  0
 10 22  1  0
 11 23  1  0
 12 24  1  0
 13 25  1  0
 26 27  1  0
 27 28  2  0
 27 29  2  0
 27 30  1  0
 30 31  2  0
 31 32  1  0
 32 33  1  0
 32 34  2  0
 34 35  1  0
 34 36  1  0
 36 37  2  0
 37 30  1  0
 36 38  1  0
 37 39  1  0
 14 31  1  0
M  ISO  8  15   8  16   8  17  14  18  14  19  14  20   8  21   8  22  14
M  ISO  6  23  14  24  14  25  14  26  12  33  15  35  16
M  END
>  <DihAtoms>  (1) 
8,13,30,29

>  <DihDeg>  (1) 
90.00313637379121

$$$$
