
 OpenBabel03252504493D

 27 28  0  0  0  0  0  0  0  0999 V2000
   48.1450   30.7830   43.7060 C   0  0  0  0  0  0  0  0  0  0  0  0
   48.1700   30.1970   44.9690 C   0  0  0  0  0  0  0  0  0  0  0  0
   47.5100   30.8620   46.0030 C   0  0  0  0  0  0  0  0  0  0  0  0
   46.8850   32.0440   45.7090 N   0  0  0  0  0  0  0  0  0  0  0  0
   46.8800   32.5820   44.4780 C   0  0  0  0  0  0  0  0  0  0  0  0
   47.5120   31.9500   43.4760 N   0  0  0  0  0  0  0  0  0  0  0  0
   48.6310   30.3450   42.8220 H   0  0  0  0  0  0  0  0  0  0  0  0
   47.4920   30.4590   47.0040 H   0  0  0  0  0  0  0  0  0  0  0  0
   46.3770   34.6410   43.1780 C   0  0  0  0  0  0  0  0  0  0  0  0
   46.1750   33.8490   44.2960 C   0  0  0  0  0  0  0  0  0  0  0  0
   45.2910   34.2370   45.2800 C   0  0  0  0  0  0  0  0  0  0  0  0
   45.0850   33.6560   46.1920 H   0  0  0  0  0  0  0  0  0  0  0  0
   44.5670   35.4320   45.2020 C   0  0  0  0  0  0  0  0  0  0  0  0
   43.8690   35.7550   45.9620 H   0  0  0  0  0  0  0  0  0  0  0  0
   44.7890   36.1980   44.0780 C   0  0  0  0  0  3  0  0  0  0  0  0
   45.6640   35.8400   43.0740 C   0  0  0  0  0  3  0  0  0  0  0  0
   47.8830   32.8410   42.0590 H   0  0  0  0  0  0  0  0  0  0  0  0
   47.4980   34.1470   41.9290 S   0  0  0  0  0  0  0  0  0  0  0  0
   46.9350   34.4260   40.5570 O   0  0  0  0  0  0  0  0  0  0  0  0
   48.7630   34.9750   42.0890 O   0  0  0  0  0  0  0  0  0  0  0  0
   48.8590   28.9440   45.1590 C   0  0  0  0  0  0  0  0  0  0  0  0
   49.4710   28.6860   44.2800 H   0  0  0  0  0  0  0  0  0  0  0  0
   48.1070   28.1470   45.3960 H   0  0  0  0  0  0  0  0  0  0  0  0
   49.7600   29.0500   46.3710 C   0  0  0  0  0  0  0  0  0  0  0  0
   49.3710   29.6980   47.1540 H   0  0  0  0  0  0  0  0  0  0  0  0
   50.7640   29.3680   45.9970 H   0  0  0  0  0  0  0  0  0  0  0  0
   49.9130   27.9930   46.7350 H   0  0  0  0  0  0  0  0  0  0  0  0
  1  2  1  0  0  0  0
  2 21  1  0  0  0  0
  2  3  2  0  0  0  0
  3  8  1  0  0  0  0
  4  3  1  0  0  0  0
  5  4  2  0  0  0  0
  6  1  2  0  0  0  0
  6  5  1  0  0  0  0
  7  1  1  0  0  0  0
  9 10  1  0  0  0  0
 10  5  1  0  0  0  0
 10 11  2  0  0  0  0
 11 12  1  0  0  0  0
 13 11  1  0  0  0  0
 13 14  1  0  0  0  0
 15 13  2  0  0  0  0
 16  9  2  0  0  0  0
 16 15  1  0  0  0  0
 18 17  1  0  0  0  0
 18 20  2  0  0  0  0
 18  9  1  0  0  0  0
 19 18  2  0  0  0  0
 21 23  1  0  0  0  0
 21 24  1  0  0  0  0
 22 21  1  0  0  0  0
 24 27  1  0  0  0  0
 24 25  1  0  0  0  0
 26 24  1  0  0  0  0
M  END
>  <minimizedAffinity>
-4.20797014

>  <minimizedRMSD>
5.54855871

$$$$
