
 OpenBabel03242516203D

 31 33  0  0  0  0  0  0  0  0999 V2000
   45.9510   32.8530   47.0120 C   0  0  0  0  0  0  0  0  0  0  0  0
   47.1920   32.3570   47.2940 C   0  0  0  0  0  0  0  0  0  0  0  0
   47.4580   31.5390   48.3710 C   0  0  0  0  0  0  0  0  0  0  0  0
   46.4180   31.1910   49.2250 C   0  0  0  0  0  0  0  0  0  0  0  0
   45.1670   31.6680   48.9710 C   0  0  0  0  0  0  0  0  0  0  0  0
   44.9530   32.4860   47.8770 C   0  0  0  0  0  0  0  0  0  0  0  0
   48.0240   32.6120   46.6540 H   0  0  0  0  0  0  0  0  0  0  0  0
   46.5710   30.5520   50.0850 H   0  0  0  0  0  0  0  0  0  0  0  0
   44.3210   31.4210   49.6130 H   0  0  0  0  0  0  0  0  0  0  0  0
   43.9450   32.8520   47.7000 H   0  0  0  0  0  0  0  0  0  0  0  0
   44.5550   35.5350   44.9670 C   0  0  0  0  0  0  0  0  0  0  0  0
   45.2120   35.4150   43.7460 C   0  0  0  0  0  0  0  0  0  0  0  0
   46.1560   34.3930   43.6170 C   0  0  0  0  0  0  0  0  0  0  0  0
   46.3810   33.5720   44.6870 N   0  0  0  0  0  0  0  0  0  0  0  0
   45.7270   33.7150   45.8590 C   0  0  0  0  0  0  0  0  0  0  0  0
   44.8050   34.7130   45.9880 N   0  0  0  0  0  0  0  0  0  0  0  0
   43.8140   36.3120   45.1170 H   0  0  0  0  0  0  0  0  0  0  0  0
   45.0250   36.0630   42.9240 H   0  0  0  0  0  0  0  0  0  0  0  0
   46.7040   34.2420   42.6960 H   0  0  0  0  0  0  0  0  0  0  0  0
   49.2430   29.7430   48.3450 C   0  0  0  0  0  0  0  0  0  0  0  0
   48.7560   30.9770   48.7230 C   0  0  0  0  0  0  0  0  0  0  0  0
   49.5720   31.7710   49.5100 C   0  0  0  0  0  0  0  0  0  0  0  0
   49.2960   32.7660   49.8720 H   0  0  0  0  0  0  0  0  0  0  0  0
   50.8340   31.3510   49.9080 C   0  0  0  0  0  0  0  0  0  0  0  0
   51.5130   31.9320   50.5230 H   0  0  0  0  0  0  0  0  0  0  0  0
   51.2860   30.1110   49.5100 C   0  0  0  0  0  0  0  0  0  0  0  0
   50.4930   29.2990   48.7250 C   0  0  0  0  0  0  0  0  0  0  0  0
   46.8980   28.9160   47.5880 H   0  0  0  0  0  0  0  0  0  0  0  0
   48.2260   28.7320   47.3640 S   0  0  0  0  0  0  0  0  0  0  0  0
   48.4980   28.8970   45.8830 O   0  0  0  0  0  0  0  0  0  0  0  0
   48.5140   27.2720   47.6970 O   0  0  0  0  0  0  0  0  0  0  0  0
  1  2  2  0  0  0  0
  1  6  1  0  0  0  0
  2  3  1  0  0  0  0
  3 21  1  0  0  0  0
  3  4  2  0  0  0  0
  4  8  1  0  0  0  0
  5  4  1  0  0  0  0
  5  9  1  0  0  0  0
  6  5  2  0  0  0  0
  7  2  1  0  0  0  0
 10  6  1  0  0  0  0
 11 17  1  0  0  0  0
 11 16  1  0  0  0  0
 12 11  2  0  0  0  0
 13 12  1  0  0  0  0
 13 14  2  0  0  0  0
 14 15  1  0  0  0  0
 15 16  2  0  0  0  0
 15  1  1  0  0  0  0
 18 12  1  0  0  0  0
 19 13  1  0  0  0  0
 20 21  2  0  0  0  0
 20 27  1  0  0  0  0
 21 22  1  0  0  0  0
 22 23  1  0  0  0  0
 22 24  2  0  0  0  0
 24 25  1  0  0  0  0
 26 24  1  0  0  0  0
 27 26  2  0  0  0  0
 29 28  1  0  0  0  0
 29 31  2  0  0  0  0
 29 20  1  0  0  0  0
 30 29  2  0  0  0  0
M  END
>  <minimizedAffinity>
-5.90159941

>  <minimizedRMSD>
0.649318218

$$$$
