
 OpenBabel03242516203D

 31 33  0  0  0  0  0  0  0  0999 V2000
   46.1560   32.7140   46.9090 C   0  0  0  0  0  0  0  0  0  0  0  0
   47.2370   31.8820   46.8420 C   0  0  0  0  0  0  0  0  0  0  0  0
   47.5720   30.9880   47.8360 C   0  0  0  0  0  0  0  0  0  0  0  0
   46.7770   30.9170   48.9740 C   0  0  0  0  0  0  0  0  0  0  0  0
   45.6910   31.7330   49.0720 C   0  0  0  0  0  0  0  0  0  0  0  0
   45.3970   32.6130   48.0460 C   0  0  0  0  0  0  0  0  0  0  0  0
   47.8790   31.9140   45.9730 H   0  0  0  0  0  0  0  0  0  0  0  0
   46.9940   30.2340   49.7840 H   0  0  0  0  0  0  0  0  0  0  0  0
   45.0380   31.7120   49.9450 H   0  0  0  0  0  0  0  0  0  0  0  0
   44.5250   33.2530   48.1520 H   0  0  0  0  0  0  0  0  0  0  0  0
   44.5600   35.4580   45.1060 C   0  0  0  0  0  0  0  0  0  0  0  0
   45.1760   35.4550   43.8580 C   0  0  0  0  0  0  0  0  0  0  0  0
   46.1620   34.4920   43.6250 C   0  0  0  0  0  0  0  0  0  0  0  0
   46.4650   33.6120   44.6270 N   0  0  0  0  0  0  0  0  0  0  0  0
   45.8490   33.6410   45.8270 C   0  0  0  0  0  0  0  0  0  0  0  0
   44.8860   34.5810   46.0580 N   0  0  0  0  0  0  0  0  0  0  0  0
   43.7890   36.1850   45.3350 H   0  0  0  0  0  0  0  0  0  0  0  0
   44.9280   36.1470   43.0900 H   0  0  0  0  0  0  0  0  0  0  0  0
   46.6810   34.4320   42.6780 H   0  0  0  0  0  0  0  0  0  0  0  0
   49.8260   30.1450   48.6240 C   0  0  0  0  0  0  0  0  0  0  0  0
   48.7080   30.0740   47.8220 C   0  0  0  0  0  0  0  0  0  0  0  0
   48.6390   29.0310   46.9130 C   0  0  0  0  0  0  0  0  0  0  0  0
   47.8040   28.8700   46.2250 H   0  0  0  0  0  0  0  0  0  0  0  0
   49.6540   28.0900   46.8060 C   0  0  0  0  0  0  0  0  0  0  0  0
   49.6520   27.2550   46.1130 H   0  0  0  0  0  0  0  0  0  0  0  0
   50.7570   28.1940   47.6260 C   0  0  0  0  0  3  0  0  0  0  0  0
   50.8500   29.2230   48.5410 C   0  0  0  0  0  3  0  0  0  0  0  0
   48.8220   32.2410   49.7890 H   0  0  0  0  0  0  0  0  0  0  0  0
   49.9290   31.4530   49.7640 S   0  0  0  0  0  0  0  0  0  0  0  0
   50.2170   30.9750   51.1730 O   0  0  0  0  0  0  0  0  0  0  0  0
   51.0890   32.3610   49.3690 O   0  0  0  0  0  0  0  0  0  0  0  0
  1  6  1  0  0  0  0
  2  1  2  0  0  0  0
  2  3  1  0  0  0  0
  3  4  2  0  0  0  0
  4  5  1  0  0  0  0
  4  8  1  0  0  0  0
  5  9  1  0  0  0  0
  6 10  1  0  0  0  0
  6  5  2  0  0  0  0
  7  2  1  0  0  0  0
 11 17  1  0  0  0  0
 11 16  1  0  0  0  0
 12 11  2  0  0  0  0
 13 12  1  0  0  0  0
 13 14  2  0  0  0  0
 14 15  1  0  0  0  0
 15 16  2  0  0  0  0
 15  1  1  0  0  0  0
 18 12  1  0  0  0  0
 19 13  1  0  0  0  0
 20 29  1  0  0  0  0
 21  3  1  0  0  0  0
 21 20  2  0  0  0  0
 22 21  1  0  0  0  0
 23 22  1  0  0  0  0
 24 22  2  0  0  0  0
 24 26  1  0  0  0  0
 25 24  1  0  0  0  0
 26 27  2  0  0  0  0
 27 20  1  0  0  0  0
 29 28  1  0  0  0  0
 29 30  2  0  0  0  0
 31 29  2  0  0  0  0
M  END
>  <minimizedAffinity>
-5.60998249

>  <minimizedRMSD>
0.849587321

$$$$
