
     RDKit          3D

 35 37  0  0  0  0  0  0  0  0999 V2000
   44.4156   36.1798   44.7889 C   0  0  0  0  0  0  0  0  0  0  0  0
   45.0740   36.0629   43.5507 C   0  0  0  0  0  0  0  0  0  0  0  0
   45.9091   34.9689   43.3224 C   0  0  0  0  0  0  0  0  0  0  0  0
   46.0459   34.0635   44.3158 N   0  0  0  0  0  0  0  0  0  0  0  0
   45.3976   34.2041   45.4987 C   0  0  0  0  0  0  0  0  0  0  0  0
   44.5797   35.2697   45.7307 N   0  0  0  0  0  0  0  0  0  0  0  0
   45.5578   33.2312   46.5400 N   0  0  0  0  0  0  0  0  0  0  0  0
   46.6273   34.7508   42.1002 C   0  0  0  0  0  0  0  0  0  0  0  0
   47.8591   35.3532   41.9587 C   0  0  0  0  0  0  0  0  0  0  0  0
   48.6473   35.2132   40.8163 C   0  0  0  0  0  0  0  0  0  0  0  0
   48.1803   34.4348   39.7691 C   0  0  0  0  0  0  0  0  0  0  0  0
   46.9446   33.8365   39.9230 C   0  0  0  0  0  0  0  0  0  0  0  0
   46.1858   33.9872   41.0546 C   0  0  0  0  0  0  0  0  0  0  0  0
   43.7620   37.0276   44.9794 H   0  0  0  0  0  0  0  0  0  0  0  0
   44.9503   36.7988   42.7704 H   0  0  0  0  0  0  0  0  0  0  0  0
   45.8875   33.6180   47.4592 H   0  0  0  0  0  0  0  0  0  0  0  0
   45.3758   32.2080   46.4465 H   0  0  0  0  0  0  0  0  0  0  0  0
   48.2557   35.9585   42.7362 H   0  0  0  0  0  0  0  0  0  0  0  0
   49.6011   35.6917   40.7313 H   0  0  0  0  0  0  0  0  0  0  0  0
   48.8224   34.3498   38.8967 H   0  0  0  0  0  0  0  0  0  0  0  0
   46.5814   33.2230   39.0935 H   0  0  0  0  0  0  0  0  0  0  0  0
   43.2671   34.8861   38.3373 H   0  0  0  0  0  0  0  0  0  0  0  0
   44.3238   34.0423   38.6342 S   0  0  0  0  0  0  0  0  0  0  0  0
   44.3748   33.0141   37.5290 O   0  0  0  0  0  0  0  0  0  0  0  0
   45.5975   34.8295   38.7170 O   0  0  0  0  0  0  0  0  0  0  0  0
   43.9424   33.2796   40.1619 C   0  0  0  0  0  0  0  0  0  0  0  0
   44.8861   33.3348   41.1661 C   0  0  0  0  0  0  0  0  0  0  0  0
   44.5806   32.7291   42.3725 C   0  0  0  0  0  0  0  0  0  0  0  0
   45.2564   32.7133   43.2365 H   0  0  0  0  0  0  0  0  0  0  0  0
   43.3517   32.0956   42.5281 C   0  0  0  0  0  0  0  0  0  0  0  0
   43.0151   31.5873   43.4433 H   0  0  0  0  0  0  0  0  0  0  0  0
   42.4215   32.0530   41.5077 C   0  0  0  0  0  0  0  0  0  0  0  0
   42.7240   32.6584   40.2982 C   0  0  0  0  0  0  0  0  0  0  0  0
   41.4493   31.5557   41.6201 H   0  0  0  0  0  0  0  0  0  0  0  0
   42.0206   32.6506   39.4636 H   0  0  0  0  0  0  0  0  0  0  0  0
  1  6  2  0
  2  1  1  0
  3  2  2  0
  3  4  1  0
  4  5  2  0
  5  6  1  0
  5  7  1  0
  8  3  1  0
  9  8  2  0
 10  9  1  0
 11 12  1  0
 11 10  2  0
 12 13  2  0
 13  8  1  0
  1 14  1  0
  2 15  1  0
  7 16  1  0
  7 17  1  0
  9 18  1  0
 10 19  1  0
 11 20  1  0
 12 21  1  0
 22 23  1  0
 23 24  2  0
 23 25  2  0
 23 26  1  0
 26 27  2  0
 27 28  1  0
 28 29  1  0
 28 30  2  0
 30 31  1  0
 30 32  1  0
 32 33  2  0
 33 26  1  0
 32 34  1  0
 33 35  1  0
 13 27  1  0
M  ISO  8  14  14  15  14  18  14  19  14  20  14  21  14  22  12  29  15
M  ISO  1  31  16
M  END
>  <DihAtoms>  (1) 
11,12,26,25

>  <DihDeg>  (1) 
-88.02128207324482

$$$$
