
 OpenBabel03242520233D

 47 50  0  0  0  0  0  0  0  0999 V2000
   37.0900   26.3090   37.5090 C   0  0  0  0  0  0  0  0  0  0  0  0
   36.7570   25.7180   36.4320 O   0  0  0  0  0  0  0  0  0  0  0  0
   37.5410   27.6370   37.5930 N   0  0  0  0  0  0  0  0  0  0  0  0
   37.9260   28.0650   38.4620 H   0  0  0  0  0  0  0  0  0  0  0  0
   37.0090   25.5700   38.8030 C   0  0  0  0  0  0  0  0  0  0  0  0
   36.0780   24.5730   38.9700 C   0  0  0  0  0  0  0  0  0  0  0  0
   35.9120   23.8230   40.1150 C   0  0  0  0  0  0  0  0  0  0  0  0
   36.7910   24.1470   41.1600 C   0  0  0  0  0  0  0  0  0  0  0  0
   37.7130   25.1410   40.9780 C   0  0  0  0  0  0  0  0  0  0  0  0
   37.8080   25.8210   39.8360 N   0  0  0  0  0  0  0  0  0  0  0  0
   35.4220   24.3590   38.1370 H   0  0  0  0  0  0  0  0  0  0  0  0
   35.1690   23.0570   40.1890 H   0  0  0  0  0  0  0  0  0  0  0  0
   36.6450   23.5980   42.0610 H   0  0  0  0  0  0  0  0  0  0  0  0
   38.4820   26.6590   42.8670 C   0  0  0  0  0  0  0  0  0  0  0  0
   38.6400   25.5960   42.0100 C   0  0  0  0  0  0  0  0  0  0  0  0
   39.8180   24.8660   42.1980 C   0  0  0  0  0  0  0  0  0  0  0  0
   40.0200   24.0000   41.5550 H   0  0  0  0  0  0  0  0  0  0  0  0
   40.8040   25.1050   43.1280 C   0  0  0  0  0  0  0  0  0  0  0  0
   41.6830   24.4840   43.1970 H   0  0  0  0  0  0  0  0  0  0  0  0
   40.6340   26.1710   43.9740 C   0  0  0  0  0  3  0  0  0  0  0  0
   39.4830   26.9100   43.8170 C   0  0  0  0  0  3  0  0  0  0  0  0
   36.4510   27.7940   41.6710 H   0  0  0  0  0  0  0  0  0  0  0  0
   37.0640   27.6320   42.8600 S   0  0  0  0  0  0  0  0  0  0  0  0
   36.0920   27.2770   43.9630 O   0  0  0  0  0  0  0  0  0  0  0  0
   37.5230   29.0540   43.2420 O   0  0  0  0  0  0  0  0  0  0  0  0
   37.4540   28.4360   36.3890 C   0  0  0  0  0  0  0  0  0  0  0  0
   37.2530   27.8460   35.4950 H   0  0  0  0  0  0  0  0  0  0  0  0
   38.4550   28.9400   36.2780 H   0  0  0  0  0  0  0  0  0  0  0  0
   36.4160   29.5540   36.5170 C   0  0  0  0  0  0  0  0  0  0  0  0
   35.4360   29.0850   36.2520 H   0  0  0  0  0  0  0  0  0  0  0  0
   36.6640   30.4080   35.8850 H   0  0  0  0  0  0  0  0  0  0  0  0
   36.8440   31.4770   39.7550 C   0  0  0  0  0  0  0  0  0  0  0  0
   36.9840   31.0970   38.3930 C   0  0  0  0  0  0  0  0  0  0  0  0
   36.3130   29.9830   37.9320 C   0  0  0  0  0  0  0  0  0  0  0  0
   35.5370   29.3050   38.8580 N   0  0  0  0  0  0  0  0  0  0  0  0
   35.4430   29.7170   40.1480 C   0  0  0  0  0  0  0  0  0  0  0  0
   36.0900   30.7910   40.5890 N   0  0  0  0  0  0  0  0  0  0  0  0
   37.6010   31.6540   37.7010 H   0  0  0  0  0  0  0  0  0  0  0  0
   34.8180   29.1420   40.8200 H   0  0  0  0  0  0  0  0  0  0  0  0
   37.5940   32.6810   40.2360 C   0  0  0  0  0  0  0  0  0  0  0  0
   38.9400   32.2590   40.9470 C   0  0  0  0  0  0  0  0  0  0  0  0
   38.8470   33.1090   39.7590 C   0  0  0  0  0  0  0  0  0  0  0  0
   36.9620   33.3050   40.9330 H   0  0  0  0  0  0  0  0  0  0  0  0
   39.1560   32.7670   41.9070 H   0  0  0  0  0  0  0  0  0  0  0  0
   39.2480   31.2140   40.8440 H   0  0  0  0  0  0  0  0  0  0  0  0
   39.1410   34.1720   39.8380 H   0  0  0  0  0  0  0  0  0  0  0  0
   39.2100   32.6840   38.7770 H   0  0  0  0  0  0  0  0  0  0  0  0
  1  3  1  0  0  0  0
  1  5  1  0  0  0  0
  2  1  2  0  0  0  0
  3  4  1  0  0  0  0
  5  6  2  0  0  0  0
  5 10  1  0  0  0  0
  6  7  1  0  0  0  0
  7 12  1  0  0  0  0
  7  8  2  0  0  0  0
  8 13  1  0  0  0  0
  9  8  1  0  0  0  0
  9 15  1  0  0  0  0
 10  9  2  0  0  0  0
 11  6  1  0  0  0  0
 14 21  1  0  0  0  0
 15 16  1  0  0  0  0
 15 14  2  0  0  0  0
 16 18  2  0  0  0  0
 17 16  1  0  0  0  0
 18 19  1  0  0  0  0
 18 20  1  0  0  0  0
 21 20  2  0  0  0  0
 22 23  1  0  0  0  0
 23 14  1  0  0  0  0
 23 25  2  0  0  0  0
 23 24  2  0  0  0  0
 26 29  1  0  0  0  0
 26  3  1  0  0  0  0
 27 26  1  0  0  0  0
 28 26  1  0  0  0  0
 29 34  1  0  0  0  0
 30 29  1  0  0  0  0
 31 29  1  0  0  0  0
 32 40  1  0  0  0  0
 32 37  1  0  0  0  0
 33 32  2  0  0  0  0
 34 33  1  0  0  0  0
 34 35  2  0  0  0  0
 35 36  1  0  0  0  0
 36 37  2  0  0  0  0
 36 39  1  0  0  0  0
 38 33  1  0  0  0  0
 40 43  1  0  0  0  0
 40 41  1  0  0  0  0
 41 44  1  0  0  0  0
 42 46  1  0  0  0  0
 42 40  1  0  0  0  0
 42 41  1  0  0  0  0
 45 41  1  0  0  0  0
 47 42  1  0  0  0  0
M  END
>  <minimizedAffinity>
-6.16714954

$$$$

 OpenBabel03242520233D

 47 50  0  0  0  0  0  0  0  0999 V2000
   40.6830   32.2210   41.0810 C   0  0  0  0  0  0  0  0  0  0  0  0
   41.5740   32.6490   40.2810 O   0  0  0  0  0  0  0  0  0  0  0  0
   39.4630   32.8650   41.3470 N   0  0  0  0  0  0  0  0  0  0  0  0
   38.8000   32.5680   42.0950 H   0  0  0  0  0  0  0  0  0  0  0  0
   40.9100   30.9410   41.8130 C   0  0  0  0  0  0  0  0  0  0  0  0
   42.1470   30.6610   42.3450 C   0  0  0  0  0  0  0  0  0  0  0  0
   42.4740   29.5170   43.0410 C   0  0  0  0  0  0  0  0  0  0  0  0
   41.4210   28.6000   43.1880 C   0  0  0  0  0  0  0  0  0  0  0  0
   40.1960   28.8920   42.6540 C   0  0  0  0  0  0  0  0  0  0  0  0
   39.9630   30.0250   41.9920 N   0  0  0  0  0  0  0  0  0  0  0  0
   42.9260   31.3980   42.2060 H   0  0  0  0  0  0  0  0  0  0  0  0
   43.4540   29.3520   43.4350 H   0  0  0  0  0  0  0  0  0  0  0  0
   41.6740   27.6970   43.6920 H   0  0  0  0  0  0  0  0  0  0  0  0
   38.9120   26.7760   42.0770 C   0  0  0  0  0  0  0  0  0  0  0  0
   39.0470   27.9930   42.7010 C   0  0  0  0  0  0  0  0  0  0  0  0
   37.9560   28.3660   43.4930 C   0  0  0  0  0  0  0  0  0  0  0  0
   37.9860   29.3250   44.0270 H   0  0  0  0  0  0  0  0  0  0  0  0
   36.7960   27.6550   43.6970 C   0  0  0  0  0  0  0  0  0  0  0  0
   36.0050   28.0280   44.3280 H   0  0  0  0  0  0  0  0  0  0  0  0
   36.6740   26.4440   43.0650 C   0  0  0  0  0  3  0  0  0  0  0  0
   37.7320   26.0450   42.2790 C   0  0  0  0  0  3  0  0  0  0  0  0
   40.8490   26.9400   40.3260 H   0  0  0  0  0  0  0  0  0  0  0  0
   40.1730   26.0930   41.1280 S   0  0  0  0  0  0  0  0  0  0  0  0
   41.0950   25.1930   41.9200 O   0  0  0  0  0  0  0  0  0  0  0  0
   39.4880   25.1180   40.1500 O   0  0  0  0  0  0  0  0  0  0  0  0
   39.1300   34.0050   40.5200 C   0  0  0  0  0  0  0  0  0  0  0  0
   39.8930   34.2340   39.7760 H   0  0  0  0  0  0  0  0  0  0  0  0
   39.0280   34.8800   41.2220 H   0  0  0  0  0  0  0  0  0  0  0  0
   37.7710   33.8390   39.8340 C   0  0  0  0  0  0  0  0  0  0  0  0
   37.7540   34.5990   39.0140 H   0  0  0  0  0  0  0  0  0  0  0  0
   36.9470   33.9540   40.5400 H   0  0  0  0  0  0  0  0  0  0  0  0
   36.6500   30.3620   38.8210 C   0  0  0  0  0  0  0  0  0  0  0  0
   36.6870   31.6200   39.4810 C   0  0  0  0  0  0  0  0  0  0  0  0
   37.6980   32.5100   39.1820 C   0  0  0  0  0  0  0  0  0  0  0  0
   38.6230   32.0950   38.2380 N   0  0  0  0  0  0  0  0  0  0  0  0
   38.5360   30.8790   37.6400 C   0  0  0  0  0  0  0  0  0  0  0  0
   37.5600   30.0250   37.9310 N   0  0  0  0  0  0  0  0  0  0  0  0
   35.9450   31.9060   40.2150 H   0  0  0  0  0  0  0  0  0  0  0  0
   39.2910   30.6170   36.9100 H   0  0  0  0  0  0  0  0  0  0  0  0
   35.5520   29.4070   39.1740 C   0  0  0  0  0  0  0  0  0  0  0  0
   36.1360   28.0980   39.8380 C   0  0  0  0  0  0  0  0  0  0  0  0
   35.1930   29.0170   40.4780 C   0  0  0  0  0  0  0  0  0  0  0  0
   34.9330   29.1440   38.2670 H   0  0  0  0  0  0  0  0  0  0  0  0
   35.7210   27.1420   39.4620 H   0  0  0  0  0  0  0  0  0  0  0  0
   37.1910   28.1170   40.1240 H   0  0  0  0  0  0  0  0  0  0  0  0
   34.1680   28.6670   40.6930 H   0  0  0  0  0  0  0  0  0  0  0  0
   35.5710   29.6460   41.3380 H   0  0  0  0  0  0  0  0  0  0  0  0
  1  3  1  0  0  0  0
  1  5  1  0  0  0  0
  2  1  2  0  0  0  0
  3  4  1  0  0  0  0
  5 10  2  0  0  0  0
  5  6  1  0  0  0  0
  6  7  2  0  0  0  0
  7  8  1  0  0  0  0
  7 12  1  0  0  0  0
  8 13  1  0  0  0  0
  9 15  1  0  0  0  0
  9  8  2  0  0  0  0
 10  9  1  0  0  0  0
 11  6  1  0  0  0  0
 14 21  2  0  0  0  0
 14 15  1  0  0  0  0
 15 16  2  0  0  0  0
 16 18  1  0  0  0  0
 16 17  1  0  0  0  0
 18 19  1  0  0  0  0
 20 18  2  0  0  0  0
 21 20  1  0  0  0  0
 22 23  1  0  0  0  0
 23 24  2  0  0  0  0
 23 14  1  0  0  0  0
 25 23  2  0  0  0  0
 26 28  1  0  0  0  0
 26  3  1  0  0  0  0
 27 26  1  0  0  0  0
 29 26  1  0  0  0  0
 29 31  1  0  0  0  0
 30 29  1  0  0  0  0
 32 40  1  0  0  0  0
 32 33  1  0  0  0  0
 33 38  1  0  0  0  0
 34 33  2  0  0  0  0
 34 29  1  0  0  0  0
 35 34  1  0  0  0  0
 36 37  1  0  0  0  0
 36 35  2  0  0  0  0
 37 32  2  0  0  0  0
 39 36  1  0  0  0  0
 40 41  1  0  0  0  0
 40 42  1  0  0  0  0
 41 45  1  0  0  0  0
 41 42  1  0  0  0  0
 42 46  1  0  0  0  0
 42 47  1  0  0  0  0
 43 40  1  0  0  0  0
 44 41  1  0  0  0  0
M  END
>  <minimizedAffinity>
-6.06808519

$$$$

 OpenBabel03242520233D

 47 50  0  0  0  0  0  0  0  0999 V2000
   36.5620   28.0160   40.4720 C   0  0  0  0  0  0  0  0  0  0  0  0
   36.5970   26.7920   40.1250 O   0  0  0  0  0  0  0  0  0  0  0  0
   36.2880   28.4770   41.7700 N   0  0  0  0  0  0  0  0  0  0  0  0
   36.1410   29.4810   42.0100 H   0  0  0  0  0  0  0  0  0  0  0  0
   36.8280   29.0730   39.4530 C   0  0  0  0  0  0  0  0  0  0  0  0
   36.4010   28.9040   38.1570 C   0  0  0  0  0  0  0  0  0  0  0  0
   36.5850   29.8100   37.1340 C   0  0  0  0  0  0  0  0  0  0  0  0
   37.2700   30.9780   37.5020 C   0  0  0  0  0  0  0  0  0  0  0  0
   37.6880   31.1320   38.7950 C   0  0  0  0  0  0  0  0  0  0  0  0
   37.4700   30.2050   39.7270 N   0  0  0  0  0  0  0  0  0  0  0  0
   35.8770   27.9880   37.9210 H   0  0  0  0  0  0  0  0  0  0  0  0
   36.2290   29.6260   36.1420 H   0  0  0  0  0  0  0  0  0  0  0  0
   37.4500   31.6660   36.7100 H   0  0  0  0  0  0  0  0  0  0  0  0
   39.8190   32.3980   39.3600 C   0  0  0  0  0  0  0  0  0  0  0  0
   38.4520   32.2790   39.2770 C   0  0  0  0  0  0  0  0  0  0  0  0
   37.7420   33.4170   39.6740 C   0  0  0  0  0  0  0  0  0  0  0  0
   36.6450   33.4040   39.6360 H   0  0  0  0  0  0  0  0  0  0  0  0
   38.2660   34.6060   40.1280 C   0  0  0  0  0  0  0  0  0  0  0  0
   37.6340   35.4320   40.4130 H   0  0  0  0  0  0  0  0  0  0  0  0
   39.6310   34.7090   40.2080 C   0  0  0  0  0  3  0  0  0  0  0  0
   40.3600   33.6070   39.8230 C   0  0  0  0  0  3  0  0  0  0  0  0
   40.7340   29.9490   39.4410 H   0  0  0  0  0  0  0  0  0  0  0  0
   40.8770   31.1460   38.8390 S   0  0  0  0  0  0  0  0  0  0  0  0
   40.9620   31.0250   37.3340 O   0  0  0  0  0  0  0  0  0  0  0  0
   42.2970   31.5990   39.2350 O   0  0  0  0  0  0  0  0  0  0  0  0
   36.2100   27.4820   42.8170 C   0  0  0  0  0  0  0  0  0  0  0  0
   36.4870   26.4820   42.4810 H   0  0  0  0  0  0  0  0  0  0  0  0
   35.1360   27.4690   43.1560 H   0  0  0  0  0  0  0  0  0  0  0  0
   37.0470   27.8680   44.0400 C   0  0  0  0  0  0  0  0  0  0  0  0
   36.9740   26.9990   44.7390 H   0  0  0  0  0  0  0  0  0  0  0  0
   36.7020   28.8030   44.4840 H   0  0  0  0  0  0  0  0  0  0  0  0
   40.7350   27.1400   43.5560 C   0  0  0  0  0  0  0  0  0  0  0  0
   39.3810   26.9910   43.9590 C   0  0  0  0  0  0  0  0  0  0  0  0
   38.4720   27.9850   43.6550 C   0  0  0  0  0  0  0  0  0  0  0  0
   38.9680   29.0780   42.9640 N   0  0  0  0  0  0  0  0  0  0  0  0
   40.2750   29.1650   42.6060 C   0  0  0  0  0  0  0  0  0  0  0  0
   41.1460   28.2060   42.9000 N   0  0  0  0  0  0  0  0  0  0  0  0
   39.0330   26.1200   44.4990 H   0  0  0  0  0  0  0  0  0  0  0  0
   40.5950   30.0470   42.0670 H   0  0  0  0  0  0  0  0  0  0  0  0
   41.7040   26.0550   43.9120 C   0  0  0  0  0  0  0  0  0  0  0  0
   41.9380   25.0860   42.6870 C   0  0  0  0  0  0  0  0  0  0  0  0
   42.9790   25.8780   43.3430 C   0  0  0  0  0  0  0  0  0  0  0  0
   41.3520   25.4710   44.8120 H   0  0  0  0  0  0  0  0  0  0  0  0
   41.9160   24.0030   42.9190 H   0  0  0  0  0  0  0  0  0  0  0  0
   41.5410   25.4070   41.7190 H   0  0  0  0  0  0  0  0  0  0  0  0
   43.7740   25.3550   43.9060 H   0  0  0  0  0  0  0  0  0  0  0  0
   43.4250   26.7440   42.7690 H   0  0  0  0  0  0  0  0  0  0  0  0
  1  3  1  0  0  0  0
  2  1  2  0  0  0  0
  3  4  1  0  0  0  0
  3 26  1  0  0  0  0
  5 10  1  0  0  0  0
  5  1  1  0  0  0  0
  6  5  2  0  0  0  0
  7  8  2  0  0  0  0
  7  6  1  0  0  0  0
  8  9  1  0  0  0  0
  9 15  1  0  0  0  0
  9 10  2  0  0  0  0
 11  6  1  0  0  0  0
 12  7  1  0  0  0  0
 13  8  1  0  0  0  0
 14 21  1  0  0  0  0
 15 14  2  0  0  0  0
 15 16  1  0  0  0  0
 16 18  2  0  0  0  0
 17 16  1  0  0  0  0
 18 20  1  0  0  0  0
 18 19  1  0  0  0  0
 21 20  2  0  0  0  0
 23 25  2  0  0  0  0
 23 14  1  0  0  0  0
 23 22  1  0  0  0  0
 24 23  2  0  0  0  0
 26 28  1  0  0  0  0
 26 29  1  0  0  0  0
 27 26  1  0  0  0  0
 29 31  1  0  0  0  0
 29 30  1  0  0  0  0
 32 40  1  0  0  0  0
 32 33  1  0  0  0  0
 33 38  1  0  0  0  0
 34 33  2  0  0  0  0
 34 29  1  0  0  0  0
 35 34  1  0  0  0  0
 36 37  1  0  0  0  0
 36 35  2  0  0  0  0
 37 32  2  0  0  0  0
 39 36  1  0  0  0  0
 40 43  1  0  0  0  0
 41 44  1  0  0  0  0
 41 42  1  0  0  0  0
 41 40  1  0  0  0  0
 42 46  1  0  0  0  0
 42 40  1  0  0  0  0
 45 41  1  0  0  0  0
 47 42  1  0  0  0  0
M  END
>  <minimizedAffinity>
-6.06785965

$$$$

 OpenBabel03242520233D

 47 50  0  0  0  0  0  0  0  0999 V2000
   36.8930   28.4330   38.0220 C   0  0  0  0  0  0  0  0  0  0  0  0
   36.0530   28.5280   37.0710 O   0  0  0  0  0  0  0  0  0  0  0  0
   37.8160   29.4280   38.3850 N   0  0  0  0  0  0  0  0  0  0  0  0
   38.5770   29.2870   39.0830 H   0  0  0  0  0  0  0  0  0  0  0  0
   36.9330   27.1850   38.8410 C   0  0  0  0  0  0  0  0  0  0  0  0
   36.1280   26.1200   38.5120 C   0  0  0  0  0  0  0  0  0  0  0  0
   36.0810   24.9200   39.1900 C   0  0  0  0  0  0  0  0  0  0  0  0
   36.9450   24.8370   40.2940 C   0  0  0  0  0  0  0  0  0  0  0  0
   37.7390   25.9050   40.6070 C   0  0  0  0  0  0  0  0  0  0  0  0
   37.7240   27.0330   39.8990 N   0  0  0  0  0  0  0  0  0  0  0  0
   35.4810   26.2310   37.6540 H   0  0  0  0  0  0  0  0  0  0  0  0
   35.4350   24.1230   38.8890 H   0  0  0  0  0  0  0  0  0  0  0  0
   36.8870   23.9270   40.8450 H   0  0  0  0  0  0  0  0  0  0  0  0
   38.5270   26.7490   42.8720 C   0  0  0  0  0  0  0  0  0  0  0  0
   38.6340   25.9480   41.7600 C   0  0  0  0  0  0  0  0  0  0  0  0
   39.7150   25.0600   41.7830 C   0  0  0  0  0  0  0  0  0  0  0  0
   39.8700   24.3840   40.9320 H   0  0  0  0  0  0  0  0  0  0  0  0
   40.6530   24.9190   42.7800 C   0  0  0  0  0  0  0  0  0  0  0  0
   41.4550   24.2020   42.7060 H   0  0  0  0  0  0  0  0  0  0  0  0
   40.5350   25.7260   43.8810 C   0  0  0  0  0  3  0  0  0  0  0  0
   39.4800   26.6120   43.8920 C   0  0  0  0  0  3  0  0  0  0  0  0
   36.5530   28.2070   41.9680 H   0  0  0  0  0  0  0  0  0  0  0  0
   37.2210   27.8480   43.0810 S   0  0  0  0  0  0  0  0  0  0  0  0
   36.2920   27.4620   44.2100 O   0  0  0  0  0  0  0  0  0  0  0  0
   37.8510   29.1640   43.5810 O   0  0  0  0  0  0  0  0  0  0  0  0
   37.6800   30.7150   37.7370 C   0  0  0  0  0  0  0  0  0  0  0  0
   37.1050   30.6720   36.8120 H   0  0  0  0  0  0  0  0  0  0  0  0
   38.7270   31.0570   37.5010 H   0  0  0  0  0  0  0  0  0  0  0  0
   37.0800   31.7680   38.6730 C   0  0  0  0  0  0  0  0  0  0  0  0
   36.7150   31.2020   39.5650 H   0  0  0  0  0  0  0  0  0  0  0  0
   36.2930   32.3430   38.1810 H   0  0  0  0  0  0  0  0  0  0  0  0
   40.4530   33.3920   39.2670 C   0  0  0  0  0  0  0  0  0  0  0  0
   39.4650   32.4870   38.7920 C   0  0  0  0  0  0  0  0  0  0  0  0
   38.1470   32.6760   39.1540 C   0  0  0  0  0  0  0  0  0  0  0  0
   37.8850   33.7610   39.9740 N   0  0  0  0  0  0  0  0  0  0  0  0
   38.8720   34.5920   40.3970 C   0  0  0  0  0  0  0  0  0  0  0  0
   40.1400   34.4070   40.0450 N   0  0  0  0  0  0  0  0  0  0  0  0
   39.7120   31.6500   38.1530 H   0  0  0  0  0  0  0  0  0  0  0  0
   38.5980   35.4220   41.0350 H   0  0  0  0  0  0  0  0  0  0  0  0
   41.8790   33.1570   38.8730 C   0  0  0  0  0  0  0  0  0  0  0  0
   42.2620   34.0210   37.6080 C   0  0  0  0  0  0  0  0  0  0  0  0
   42.9090   34.1140   38.9180 C   0  0  0  0  0  0  0  0  0  0  0  0
   42.0720   32.0620   38.6730 H   0  0  0  0  0  0  0  0  0  0  0  0
   42.8220   33.4880   36.8130 H   0  0  0  0  0  0  0  0  0  0  0  0
   41.5490   34.7900   37.2980 H   0  0  0  0  0  0  0  0  0  0  0  0
   43.9620   33.7960   39.0180 H   0  0  0  0  0  0  0  0  0  0  0  0
   42.7320   35.0500   39.5270 H   0  0  0  0  0  0  0  0  0  0  0  0
  1  3  1  0  0  0  0
  1  5  1  0  0  0  0
  2  1  2  0  0  0  0
  3  4  1  0  0  0  0
  5 10  1  0  0  0  0
  6  5  2  0  0  0  0
  6  7  1  0  0  0  0
  7  8  2  0  0  0  0
  8  9  1  0  0  0  0
  8 13  1  0  0  0  0
  9 15  1  0  0  0  0
 10  9  2  0  0  0  0
 11  6  1  0  0  0  0
 12  7  1  0  0  0  0
 14 23  1  0  0  0  0
 14 21  1  0  0  0  0
 15 16  1  0  0  0  0
 15 14  2  0  0  0  0
 16 18  2  0  0  0  0
 17 16  1  0  0  0  0
 18 20  1  0  0  0  0
 19 18  1  0  0  0  0
 20 21  2  0  0  0  0
 22 23  1  0  0  0  0
 23 25  2  0  0  0  0
 23 24  2  0  0  0  0
 26  3  1  0  0  0  0
 26 29  1  0  0  0  0
 27 26  1  0  0  0  0
 28 26  1  0  0  0  0
 29 34  1  0  0  0  0
 29 30  1  0  0  0  0
 31 29  1  0  0  0  0
 32 37  1  0  0  0  0
 33 34  1  0  0  0  0
 33 32  2  0  0  0  0
 34 35  2  0  0  0  0
 35 36  1  0  0  0  0
 36 39  1  0  0  0  0
 37 36  2  0  0  0  0
 38 33  1  0  0  0  0
 40 42  1  0  0  0  0
 40 32  1  0  0  0  0
 41 40  1  0  0  0  0
 41 42  1  0  0  0  0
 42 46  1  0  0  0  0
 42 47  1  0  0  0  0
 43 40  1  0  0  0  0
 44 41  1  0  0  0  0
 45 41  1  0  0  0  0
M  END
>  <minimizedAffinity>
-5.99524164

$$$$

 OpenBabel03242520233D

 47 50  0  0  0  0  0  0  0  0999 V2000
   38.0220   31.1260   39.0310 C   0  0  0  0  0  0  0  0  0  0  0  0
   38.6570   30.2700   38.3350 O   0  0  0  0  0  0  0  0  0  0  0  0
   36.7070   30.9670   39.5000 N   0  0  0  0  0  0  0  0  0  0  0  0
   36.1610   31.7260   39.9610 H   0  0  0  0  0  0  0  0  0  0  0  0
   38.6900   32.4090   39.4000 C   0  0  0  0  0  0  0  0  0  0  0  0
   37.9530   33.4410   39.9290 C   0  0  0  0  0  0  0  0  0  0  0  0
   38.4580   34.6670   40.3090 C   0  0  0  0  0  0  0  0  0  0  0  0
   39.8410   34.8150   40.1160 C   0  0  0  0  0  0  0  0  0  0  0  0
   40.5610   33.7780   39.5890 C   0  0  0  0  0  0  0  0  0  0  0  0
   39.9940   32.6220   39.2470 N   0  0  0  0  0  0  0  0  0  0  0  0
   36.8920   33.2800   40.0580 H   0  0  0  0  0  0  0  0  0  0  0  0
   37.8370   35.4360   40.7170 H   0  0  0  0  0  0  0  0  0  0  0  0
   40.2330   35.7710   40.3720 H   0  0  0  0  0  0  0  0  0  0  0  0
   43.0310   33.6400   40.1760 C   0  0  0  0  0  0  0  0  0  0  0  0
   41.9900   33.8390   39.2990 C   0  0  0  0  0  0  0  0  0  0  0  0
   42.3800   34.0910   37.9800 C   0  0  0  0  0  0  0  0  0  0  0  0
   41.6090   34.2600   37.2170 H   0  0  0  0  0  0  0  0  0  0  0  0
   43.6650   34.1600   37.4920 C   0  0  0  0  0  0  0  0  0  0  0  0
   43.8670   34.3620   36.4520 H   0  0  0  0  0  0  0  0  0  0  0  0
   44.6920   33.9620   38.3790 C   0  0  0  0  0  3  0  0  0  0  0  0
   44.3430   33.7090   39.6870 C   0  0  0  0  0  3  0  0  0  0  0  0
   41.5400   33.4890   42.3210 H   0  0  0  0  0  0  0  0  0  0  0  0
   42.7670   33.2310   41.8250 S   0  0  0  0  0  0  0  0  0  0  0  0
   43.2480   31.8420   42.1800 O   0  0  0  0  0  0  0  0  0  0  0  0
   43.7010   34.1450   42.6440 O   0  0  0  0  0  0  0  0  0  0  0  0
   36.1000   29.6660   39.3210 C   0  0  0  0  0  0  0  0  0  0  0  0
   36.7780   28.9310   38.8880 H   0  0  0  0  0  0  0  0  0  0  0  0
   35.2330   29.8210   38.6190 H   0  0  0  0  0  0  0  0  0  0  0  0
   35.5110   29.1230   40.6260 C   0  0  0  0  0  0  0  0  0  0  0  0
   34.9390   28.2080   40.3380 H   0  0  0  0  0  0  0  0  0  0  0  0
   34.8970   29.8690   41.1310 H   0  0  0  0  0  0  0  0  0  0  0  0
   38.0300   26.9660   42.4620 C   0  0  0  0  0  0  0  0  0  0  0  0
   36.9660   27.3460   41.6010 C   0  0  0  0  0  0  0  0  0  0  0  0
   36.6050   28.6760   41.5200 C   0  0  0  0  0  0  0  0  0  0  0  0
   37.3280   29.5570   42.3080 N   0  0  0  0  0  0  0  0  0  0  0  0
   38.3360   29.1340   43.1130 C   0  0  0  0  0  0  0  0  0  0  0  0
   38.6800   27.8530   43.1870 N   0  0  0  0  0  0  0  0  0  0  0  0
   36.4250   26.6260   41.0010 H   0  0  0  0  0  0  0  0  0  0  0  0
   38.8600   29.8750   43.7010 H   0  0  0  0  0  0  0  0  0  0  0  0
   38.3930   25.5150   42.5430 C   0  0  0  0  0  0  0  0  0  0  0  0
   39.6420   25.1960   41.6300 C   0  0  0  0  0  0  0  0  0  0  0  0
   39.5880   24.9990   43.0800 C   0  0  0  0  0  0  0  0  0  0  0  0
   37.5200   24.8590   42.2570 H   0  0  0  0  0  0  0  0  0  0  0  0
   39.5580   24.2870   41.0010 H   0  0  0  0  0  0  0  0  0  0  0  0
   40.1860   26.0510   41.2180 H   0  0  0  0  0  0  0  0  0  0  0  0
   39.6200   23.9700   43.4810 H   0  0  0  0  0  0  0  0  0  0  0  0
   40.2120   25.6830   43.7280 H   0  0  0  0  0  0  0  0  0  0  0  0
  1  5  1  0  0  0  0
  1  3  1  0  0  0  0
  2  1  2  0  0  0  0
  3  4  1  0  0  0  0
  5  6  1  0  0  0  0
  6 11  1  0  0  0  0
  6  7  2  0  0  0  0
  7 12  1  0  0  0  0
  8  7  1  0  0  0  0
  8 13  1  0  0  0  0
  9  8  2  0  0  0  0
 10  5  2  0  0  0  0
 10  9  1  0  0  0  0
 14 23  1  0  0  0  0
 15  9  1  0  0  0  0
 15 14  2  0  0  0  0
 16 15  1  0  0  0  0
 17 16  1  0  0  0  0
 18 16  2  0  0  0  0
 18 20  1  0  0  0  0
 19 18  1  0  0  0  0
 20 21  2  0  0  0  0
 21 14  1  0  0  0  0
 23 24  2  0  0  0  0
 23 22  1  0  0  0  0
 23 25  2  0  0  0  0
 26  3  1  0  0  0  0
 26 29  1  0  0  0  0
 27 26  1  0  0  0  0
 28 26  1  0  0  0  0
 29 31  1  0  0  0  0
 29 34  1  0  0  0  0
 30 29  1  0  0  0  0
 32 40  1  0  0  0  0
 32 37  1  0  0  0  0
 33 32  2  0  0  0  0
 34 33  1  0  0  0  0
 34 35  2  0  0  0  0
 35 36  1  0  0  0  0
 36 37  2  0  0  0  0
 36 39  1  0  0  0  0
 38 33  1  0  0  0  0
 40 42  1  0  0  0  0
 41 40  1  0  0  0  0
 41 42  1  0  0  0  0
 42 46  1  0  0  0  0
 42 47  1  0  0  0  0
 43 40  1  0  0  0  0
 44 41  1  0  0  0  0
 45 41  1  0  0  0  0
M  END
>  <minimizedAffinity>
-5.928936

$$$$

 OpenBabel03242520233D

 47 50  0  0  0  0  0  0  0  0999 V2000
   37.1370   31.7310   38.6470 C   0  0  0  0  0  0  0  0  0  0  0  0
   37.5250   32.0090   37.4670 O   0  0  0  0  0  0  0  0  0  0  0  0
   37.0270   32.6580   39.6970 N   0  0  0  0  0  0  0  0  0  0  0  0
   36.8270   32.3930   40.6860 H   0  0  0  0  0  0  0  0  0  0  0  0
   36.7590   30.3260   38.9810 C   0  0  0  0  0  0  0  0  0  0  0  0
   35.8210   29.6670   38.2240 C   0  0  0  0  0  0  0  0  0  0  0  0
   35.3960   28.3720   38.4350 C   0  0  0  0  0  0  0  0  0  0  0  0
   36.0040   27.7260   39.5230 C   0  0  0  0  0  0  0  0  0  0  0  0
   36.9360   28.3950   40.2660 C   0  0  0  0  0  0  0  0  0  0  0  0
   37.2920   29.6500   39.9950 N   0  0  0  0  0  0  0  0  0  0  0  0
   35.3800   30.2050   37.3970 H   0  0  0  0  0  0  0  0  0  0  0  0
   34.6610   27.9070   37.8120 H   0  0  0  0  0  0  0  0  0  0  0  0
   35.6540   26.7380   39.7150 H   0  0  0  0  0  0  0  0  0  0  0  0
   38.7330   27.0730   41.4860 C   0  0  0  0  0  0  0  0  0  0  0  0
   37.5930   27.8410   41.4460 C   0  0  0  0  0  0  0  0  0  0  0  0
   37.0450   28.1360   42.6990 C   0  0  0  0  0  0  0  0  0  0  0  0
   36.1340   28.7460   42.7540 H   0  0  0  0  0  0  0  0  0  0  0  0
   37.5220   27.7410   43.9280 C   0  0  0  0  0  0  0  0  0  0  0  0
   37.0270   28.0190   44.8450 H   0  0  0  0  0  0  0  0  0  0  0  0
   38.6580   26.9740   43.9510 C   0  0  0  0  0  3  0  0  0  0  0  0
   39.2240   26.6660   42.7340 C   0  0  0  0  0  3  0  0  0  0  0  0
   38.9160   26.0720   39.0760 H   0  0  0  0  0  0  0  0  0  0  0  0
   39.6110   26.6710   40.0630 S   0  0  0  0  0  0  0  0  0  0  0  0
   40.4700   27.8060   39.5510 O   0  0  0  0  0  0  0  0  0  0  0  0
   40.6470   25.6120   40.4890 O   0  0  0  0  0  0  0  0  0  0  0  0
   37.2050   34.0540   39.3610 C   0  0  0  0  0  0  0  0  0  0  0  0
   36.2900   34.6380   39.4540 H   0  0  0  0  0  0  0  0  0  0  0  0
   37.5450   34.0750   38.2880 H   0  0  0  0  0  0  0  0  0  0  0  0
   38.3210   34.7040   40.1840 C   0  0  0  0  0  0  0  0  0  0  0  0
   37.9220   34.7760   41.2250 H   0  0  0  0  0  0  0  0  0  0  0  0
   38.6150   35.6700   39.7710 H   0  0  0  0  0  0  0  0  0  0  0  0
   41.6970   33.1100   39.5250 C   0  0  0  0  0  0  0  0  0  0  0  0
   40.5910   33.9960   39.4270 C   0  0  0  0  0  0  0  0  0  0  0  0
   39.4930   33.7990   40.2400 C   0  0  0  0  0  0  0  0  0  0  0  0
   39.5590   32.7230   41.1100 N   0  0  0  0  0  0  0  0  0  0  0  0
   40.6450   31.9100   41.1590 C   0  0  0  0  0  0  0  0  0  0  0  0
   41.7000   32.1040   40.3740 N   0  0  0  0  0  0  0  0  0  0  0  0
   40.5780   34.8260   38.7320 H   0  0  0  0  0  0  0  0  0  0  0  0
   40.6320   31.0870   41.8620 H   0  0  0  0  0  0  0  0  0  0  0  0
   42.8700   33.3370   38.6220 C   0  0  0  0  0  0  0  0  0  0  0  0
   42.6320   32.6660   37.2120 C   0  0  0  0  0  0  0  0  0  0  0  0
   42.8550   34.0940   37.4360 C   0  0  0  0  0  0  0  0  0  0  0  0
   43.8230   32.9480   39.0850 H   0  0  0  0  0  0  0  0  0  0  0  0
   43.4840   32.0860   36.8050 H   0  0  0  0  0  0  0  0  0  0  0  0
   41.6220   32.3000   37.0020 H   0  0  0  0  0  0  0  0  0  0  0  0
   43.7850   34.5560   37.0570 H   0  0  0  0  0  0  0  0  0  0  0  0
   41.9850   34.7970   37.2700 H   0  0  0  0  0  0  0  0  0  0  0  0
  1  5  1  0  0  0  0
  1  3  1  0  0  0  0
  2  1  2  0  0  0  0
  3  4  1  0  0  0  0
  5 10  1  0  0  0  0
  6  7  1  0  0  0  0
  6  5  2  0  0  0  0
  7  8  2  0  0  0  0
  8 13  1  0  0  0  0
  8  9  1  0  0  0  0
  9 15  1  0  0  0  0
 10  9  2  0  0  0  0
 11  6  1  0  0  0  0
 12  7  1  0  0  0  0
 14 21  1  0  0  0  0
 15 14  2  0  0  0  0
 15 16  1  0  0  0  0
 16 17  1  0  0  0  0
 16 18  2  0  0  0  0
 18 20  1  0  0  0  0
 18 19  1  0  0  0  0
 21 20  2  0  0  0  0
 22 23  1  0  0  0  0
 23 25  2  0  0  0  0
 23 14  1  0  0  0  0
 24 23  2  0  0  0  0
 26 27  1  0  0  0  0
 26  3  1  0  0  0  0
 26 29  1  0  0  0  0
 28 26  1  0  0  0  0
 29 34  1  0  0  0  0
 29 30  1  0  0  0  0
 31 29  1  0  0  0  0
 32 37  1  0  0  0  0
 33 32  2  0  0  0  0
 33 34  1  0  0  0  0
 34 35  2  0  0  0  0
 35 36  1  0  0  0  0
 36 39  1  0  0  0  0
 37 36  2  0  0  0  0
 38 33  1  0  0  0  0
 40 43  1  0  0  0  0
 40 32  1  0  0  0  0
 41 42  1  0  0  0  0
 41 40  1  0  0  0  0
 42 40  1  0  0  0  0
 44 41  1  0  0  0  0
 45 41  1  0  0  0  0
 46 42  1  0  0  0  0
 47 42  1  0  0  0  0
M  END
>  <minimizedAffinity>
-5.86298656

$$$$

 OpenBabel03242520233D

 47 50  0  0  0  0  0  0  0  0999 V2000
   35.4750   25.5280   37.7990 C   0  0  0  0  0  0  0  0  0  0  0  0
   34.5610   24.7850   37.3200 O   0  0  0  0  0  0  0  0  0  0  0  0
   35.8990   26.7460   37.2390 N   0  0  0  0  0  0  0  0  0  0  0  0
   36.7300   27.2800   37.5730 H   0  0  0  0  0  0  0  0  0  0  0  0
   36.1760   25.1130   39.0490 C   0  0  0  0  0  0  0  0  0  0  0  0
   36.4480   23.7860   39.2780 C   0  0  0  0  0  0  0  0  0  0  0  0
   37.0910   23.2850   40.3910 C   0  0  0  0  0  0  0  0  0  0  0  0
   37.4730   24.2550   41.3310 C   0  0  0  0  0  0  0  0  0  0  0  0
   37.1960   25.5720   41.0890 C   0  0  0  0  0  0  0  0  0  0  0  0
   36.5690   25.9730   39.9850 N   0  0  0  0  0  0  0  0  0  0  0  0
   36.1340   23.0760   38.5250 H   0  0  0  0  0  0  0  0  0  0  0  0
   37.2780   22.2400   40.5160 H   0  0  0  0  0  0  0  0  0  0  0  0
   37.9360   23.8730   42.2110 H   0  0  0  0  0  0  0  0  0  0  0  0
   38.5570   27.5350   41.9590 C   0  0  0  0  0  0  0  0  0  0  0  0
   37.5010   26.6560   42.0180 C   0  0  0  0  0  0  0  0  0  0  0  0
   36.6170   26.8760   43.0800 C   0  0  0  0  0  0  0  0  0  0  0  0
   35.7470   26.2170   43.1970 H   0  0  0  0  0  0  0  0  0  0  0  0
   36.7040   27.8550   44.0430 C   0  0  0  0  0  0  0  0  0  0  0  0
   35.9700   27.9450   44.8280 H   0  0  0  0  0  0  0  0  0  0  0  0
   37.7640   28.7220   43.9730 C   0  0  0  0  0  3  0  0  0  0  0  0
   38.6520   28.5350   42.9380 C   0  0  0  0  0  3  0  0  0  0  0  0
   40.3400   26.3190   40.4810 H   0  0  0  0  0  0  0  0  0  0  0  0
   39.7080   27.4930   40.6830 S   0  0  0  0  0  0  0  0  0  0  0  0
   39.1940   28.0970   39.3950 O   0  0  0  0  0  0  0  0  0  0  0  0
   40.8360   28.4590   41.0970 O   0  0  0  0  0  0  0  0  0  0  0  0
   35.1180   27.2670   36.1380 C   0  0  0  0  0  0  0  0  0  0  0  0
   34.1820   26.7320   35.9820 H   0  0  0  0  0  0  0  0  0  0  0  0
   35.7610   27.1550   35.2200 H   0  0  0  0  0  0  0  0  0  0  0  0
   34.8400   28.7660   36.2910 C   0  0  0  0  0  0  0  0  0  0  0  0
   33.7310   28.8750   36.2000 H   0  0  0  0  0  0  0  0  0  0  0  0
   35.3890   29.3540   35.5540 H   0  0  0  0  0  0  0  0  0  0  0  0
   36.5500   30.4700   39.2130 C   0  0  0  0  0  0  0  0  0  0  0  0
   36.2520   30.0670   37.8830 C   0  0  0  0  0  0  0  0  0  0  0  0
   35.1980   29.2040   37.6600 C   0  0  0  0  0  0  0  0  0  0  0  0
   34.4970   28.7880   38.7800 N   0  0  0  0  0  0  0  0  0  0  0  0
   34.8300   29.2080   40.0280 C   0  0  0  0  0  0  0  0  0  0  0  0
   35.8450   30.0390   40.2380 N   0  0  0  0  0  0  0  0  0  0  0  0
   36.8250   30.4150   37.0340 H   0  0  0  0  0  0  0  0  0  0  0  0
   34.2400   28.8450   40.8590 H   0  0  0  0  0  0  0  0  0  0  0  0
   37.7080   31.3960   39.4310 C   0  0  0  0  0  0  0  0  0  0  0  0
   37.2440   32.9040   39.3580 C   0  0  0  0  0  0  0  0  0  0  0  0
   37.8620   32.2700   40.5230 C   0  0  0  0  0  0  0  0  0  0  0  0
   38.5310   31.2020   38.6830 H   0  0  0  0  0  0  0  0  0  0  0  0
   37.8880   33.5760   38.7560 H   0  0  0  0  0  0  0  0  0  0  0  0
   36.1660   33.0910   39.3490 H   0  0  0  0  0  0  0  0  0  0  0  0
   38.8700   32.5960   40.8370 H   0  0  0  0  0  0  0  0  0  0  0  0
   37.2160   32.0950   41.4330 H   0  0  0  0  0  0  0  0  0  0  0  0
  1  5  1  0  0  0  0
  2  1  2  0  0  0  0
  3  4  1  0  0  0  0
  3  1  1  0  0  0  0
  5  6  2  0  0  0  0
  5 10  1  0  0  0  0
  6  7  1  0  0  0  0
  7 12  1  0  0  0  0
  7  8  2  0  0  0  0
  8 13  1  0  0  0  0
  9  8  1  0  0  0  0
  9 15  1  0  0  0  0
 10  9  2  0  0  0  0
 11  6  1  0  0  0  0
 14 15  2  0  0  0  0
 14 21  1  0  0  0  0
 15 16  1  0  0  0  0
 16 17  1  0  0  0  0
 16 18  2  0  0  0  0
 18 19  1  0  0  0  0
 20 18  1  0  0  0  0
 21 20  2  0  0  0  0
 22 23  1  0  0  0  0
 23 25  2  0  0  0  0
 23 14  1  0  0  0  0
 24 23  2  0  0  0  0
 26 29  1  0  0  0  0
 26  3  1  0  0  0  0
 27 26  1  0  0  0  0
 28 26  1  0  0  0  0
 29 34  1  0  0  0  0
 30 29  1  0  0  0  0
 31 29  1  0  0  0  0
 32 40  1  0  0  0  0
 32 37  1  0  0  0  0
 33 32  2  0  0  0  0
 34 33  1  0  0  0  0
 34 35  2  0  0  0  0
 35 36  1  0  0  0  0
 36 37  2  0  0  0  0
 36 39  1  0  0  0  0
 38 33  1  0  0  0  0
 40 42  1  0  0  0  0
 41 40  1  0  0  0  0
 41 42  1  0  0  0  0
 42 46  1  0  0  0  0
 42 47  1  0  0  0  0
 43 40  1  0  0  0  0
 44 41  1  0  0  0  0
 45 41  1  0  0  0  0
M  END
>  <minimizedAffinity>
-5.81990767

$$$$

 OpenBabel03242520233D

 47 50  0  0  0  0  0  0  0  0999 V2000
   36.2180   28.9460   39.8920 C   0  0  0  0  0  0  0  0  0  0  0  0
   34.9510   29.0480   39.8430 O   0  0  0  0  0  0  0  0  0  0  0  0
   37.0860   29.1550   38.8070 N   0  0  0  0  0  0  0  0  0  0  0  0
   38.1070   28.9480   38.8320 H   0  0  0  0  0  0  0  0  0  0  0  0
   36.8740   28.5800   41.1820 C   0  0  0  0  0  0  0  0  0  0  0  0
   36.1800   27.8650   42.1290 C   0  0  0  0  0  0  0  0  0  0  0  0
   36.6790   27.4680   43.3510 C   0  0  0  0  0  0  0  0  0  0  0  0
   38.0070   27.8540   43.5940 C   0  0  0  0  0  0  0  0  0  0  0  0
   38.6840   28.5650   42.6430 C   0  0  0  0  0  0  0  0  0  0  0  0
   38.1260   28.9100   41.4830 N   0  0  0  0  0  0  0  0  0  0  0  0
   35.1600   27.5900   41.8970 H   0  0  0  0  0  0  0  0  0  0  0  0
   36.0930   26.9100   44.0510 H   0  0  0  0  0  0  0  0  0  0  0  0
   38.3890   27.5850   44.5510 H   0  0  0  0  0  0  0  0  0  0  0  0
   41.1760   28.3290   43.0900 C   0  0  0  0  0  0  0  0  0  0  0  0
   40.0470   29.0620   42.8090 C   0  0  0  0  0  0  0  0  0  0  0  0
   40.2700   30.4320   42.6320 C   0  0  0  0  0  0  0  0  0  0  0  0
   39.4200   31.0870   42.4030 H   0  0  0  0  0  0  0  0  0  0  0  0
   41.4740   31.0940   42.7140 C   0  0  0  0  0  0  0  0  0  0  0  0
   41.5460   32.1600   42.5610 H   0  0  0  0  0  0  0  0  0  0  0  0
   42.5900   30.3510   42.9980 C   0  0  0  0  0  3  0  0  0  0  0  0
   42.4060   28.9980   43.1760 C   0  0  0  0  0  3  0  0  0  0  0  0
   40.3250   26.1280   44.2180 H   0  0  0  0  0  0  0  0  0  0  0  0
   41.1330   26.6180   43.2580 S   0  0  0  0  0  0  0  0  0  0  0  0
   40.9650   25.8940   41.9410 O   0  0  0  0  0  0  0  0  0  0  0  0
   42.5480   26.2010   43.7080 O   0  0  0  0  0  0  0  0  0  0  0  0
   36.5030   29.6900   37.5960 C   0  0  0  0  0  0  0  0  0  0  0  0
   35.4770   30.0350   37.7280 H   0  0  0  0  0  0  0  0  0  0  0  0
   36.5120   28.8480   36.8480 H   0  0  0  0  0  0  0  0  0  0  0  0
   37.3550   30.8120   36.9960 C   0  0  0  0  0  0  0  0  0  0  0  0
   36.6450   31.4450   36.4080 H   0  0  0  0  0  0  0  0  0  0  0  0
   38.1740   30.4170   36.3930 H   0  0  0  0  0  0  0  0  0  0  0  0
   39.7140   32.7050   39.2810 C   0  0  0  0  0  0  0  0  0  0  0  0
   39.2470   31.8640   38.2340 C   0  0  0  0  0  0  0  0  0  0  0  0
   37.8900   31.6680   38.0800 C   0  0  0  0  0  0  0  0  0  0  0  0
   37.0680   32.3230   38.9830 N   0  0  0  0  0  0  0  0  0  0  0  0
   37.5730   33.1150   39.9640 C   0  0  0  0  0  0  0  0  0  0  0  0
   38.8810   33.3010   40.1090 N   0  0  0  0  0  0  0  0  0  0  0  0
   39.9230   31.3690   37.5490 H   0  0  0  0  0  0  0  0  0  0  0  0
   36.8750   33.5980   40.6350 H   0  0  0  0  0  0  0  0  0  0  0  0
   41.1920   32.8900   39.4370 C   0  0  0  0  0  0  0  0  0  0  0  0
   41.6680   34.2250   38.7400 C   0  0  0  0  0  0  0  0  0  0  0  0
   41.8150   33.9210   40.1640 C   0  0  0  0  0  0  0  0  0  0  0  0
   41.7600   32.0070   39.0230 H   0  0  0  0  0  0  0  0  0  0  0  0
   42.5810   34.1420   38.1170 H   0  0  0  0  0  0  0  0  0  0  0  0
   40.8880   34.9170   38.4100 H   0  0  0  0  0  0  0  0  0  0  0  0
   42.8290   33.7770   40.5780 H   0  0  0  0  0  0  0  0  0  0  0  0
   41.1830   34.5060   40.8960 H   0  0  0  0  0  0  0  0  0  0  0  0
  1  5  1  0  0  0  0
  2  1  2  0  0  0  0
  3  4  1  0  0  0  0
  3  1  1  0  0  0  0
  5 10  2  0  0  0  0
  5  6  1  0  0  0  0
  6  7  2  0  0  0  0
  7  8  1  0  0  0  0
  7 12  1  0  0  0  0
  8 13  1  0  0  0  0
  9 15  1  0  0  0  0
  9  8  2  0  0  0  0
 10  9  1  0  0  0  0
 11  6  1  0  0  0  0
 14 21  1  0  0  0  0
 14 23  1  0  0  0  0
 15 14  2  0  0  0  0
 16 18  2  0  0  0  0
 16 15  1  0  0  0  0
 17 16  1  0  0  0  0
 18 20  1  0  0  0  0
 19 18  1  0  0  0  0
 20 21  2  0  0  0  0
 23 25  2  0  0  0  0
 23 22  1  0  0  0  0
 24 23  2  0  0  0  0
 26 27  1  0  0  0  0
 26  3  1  0  0  0  0
 28 26  1  0  0  0  0
 29 26  1  0  0  0  0
 29 34  1  0  0  0  0
 30 29  1  0  0  0  0
 31 29  1  0  0  0  0
 32 40  1  0  0  0  0
 32 37  1  0  0  0  0
 33 32  2  0  0  0  0
 34 33  1  0  0  0  0
 34 35  2  0  0  0  0
 35 36  1  0  0  0  0
 36 37  2  0  0  0  0
 36 39  1  0  0  0  0
 38 33  1  0  0  0  0
 40 42  1  0  0  0  0
 41 40  1  0  0  0  0
 41 42  1  0  0  0  0
 42 46  1  0  0  0  0
 42 47  1  0  0  0  0
 43 40  1  0  0  0  0
 44 41  1  0  0  0  0
 45 41  1  0  0  0  0
M  END
>  <minimizedAffinity>
-5.79242706

$$$$

 OpenBabel03242520233D

 47 50  0  0  0  0  0  0  0  0999 V2000
   37.1190   31.7220   38.6340 C   0  0  0  0  0  0  0  0  0  0  0  0
   37.4850   32.0110   37.4500 O   0  0  0  0  0  0  0  0  0  0  0  0
   37.0360   32.6380   39.6970 N   0  0  0  0  0  0  0  0  0  0  0  0
   36.8550   32.3630   40.6860 H   0  0  0  0  0  0  0  0  0  0  0  0
   36.7380   30.3170   38.9600 C   0  0  0  0  0  0  0  0  0  0  0  0
   35.7980   29.6630   38.2000 C   0  0  0  0  0  0  0  0  0  0  0  0
   35.3700   28.3680   38.4030 C   0  0  0  0  0  0  0  0  0  0  0  0
   35.9770   27.7140   39.4870 C   0  0  0  0  0  0  0  0  0  0  0  0
   36.9110   28.3770   40.2340 C   0  0  0  0  0  0  0  0  0  0  0  0
   37.2690   29.6330   39.9700 N   0  0  0  0  0  0  0  0  0  0  0  0
   35.3590   30.2080   37.3760 H   0  0  0  0  0  0  0  0  0  0  0  0
   34.6340   27.9090   37.7770 H   0  0  0  0  0  0  0  0  0  0  0  0
   35.6250   26.7270   39.6740 H   0  0  0  0  0  0  0  0  0  0  0  0
   38.7110   27.0520   41.4460 C   0  0  0  0  0  0  0  0  0  0  0  0
   37.5670   27.8150   41.4110 C   0  0  0  0  0  0  0  0  0  0  0  0
   37.0140   28.0950   42.6640 C   0  0  0  0  0  0  0  0  0  0  0  0
   36.1000   28.7000   42.7230 H   0  0  0  0  0  0  0  0  0  0  0  0
   37.4890   27.6900   43.8910 C   0  0  0  0  0  0  0  0  0  0  0  0
   36.9900   27.9580   44.8090 H   0  0  0  0  0  0  0  0  0  0  0  0
   38.6290   26.9290   43.9100 C   0  0  0  0  0  3  0  0  0  0  0  0
   39.2000   26.6350   42.6930 C   0  0  0  0  0  3  0  0  0  0  0  0
   39.5390   27.5660   39.0190 H   0  0  0  0  0  0  0  0  0  0  0  0
   39.5950   26.6690   40.0220 S   0  0  0  0  0  0  0  0  0  0  0  0
   41.0080   26.2090   40.3030 O   0  0  0  0  0  0  0  0  0  0  0  0
   38.9270   25.4080   39.4360 O   0  0  0  0  0  0  0  0  0  0  0  0
   37.2170   34.0360   39.3730 C   0  0  0  0  0  0  0  0  0  0  0  0
   36.3440   34.6470   39.6010 H   0  0  0  0  0  0  0  0  0  0  0  0
   37.4120   34.0760   38.2640 H   0  0  0  0  0  0  0  0  0  0  0  0
   38.4560   34.6270   40.0530 C   0  0  0  0  0  0  0  0  0  0  0  0
   38.1670   34.7770   41.1220 H   0  0  0  0  0  0  0  0  0  0  0  0
   38.7820   35.5470   39.5660 H   0  0  0  0  0  0  0  0  0  0  0  0
   40.9090   31.9390   41.1130 C   0  0  0  0  0  0  0  0  0  0  0  0
   39.8570   32.8920   41.1710 C   0  0  0  0  0  0  0  0  0  0  0  0
   39.5530   33.6310   40.0460 C   0  0  0  0  0  0  0  0  0  0  0  0
   40.3200   33.3790   38.9200 N   0  0  0  0  0  0  0  0  0  0  0  0
   41.3140   32.4550   38.9250 C   0  0  0  0  0  0  0  0  0  0  0  0
   41.6030   31.7440   40.0110 N   0  0  0  0  0  0  0  0  0  0  0  0
   39.2810   33.0590   42.0720 H   0  0  0  0  0  0  0  0  0  0  0  0
   41.8740   32.3070   38.0110 H   0  0  0  0  0  0  0  0  0  0  0  0
   41.2300   31.1590   42.3510 C   0  0  0  0  0  0  0  0  0  0  0  0
   39.9940   30.2850   42.8010 C   0  0  0  0  0  0  0  0  0  0  0  0
   41.3090   29.7570   42.4380 C   0  0  0  0  0  0  0  0  0  0  0  0
   41.5540   31.8410   43.1900 H   0  0  0  0  0  0  0  0  0  0  0  0
   39.7510   30.3160   43.8820 H   0  0  0  0  0  0  0  0  0  0  0  0
   39.1620   30.2030   42.0960 H   0  0  0  0  0  0  0  0  0  0  0  0
   41.9290   29.2800   43.2190 H   0  0  0  0  0  0  0  0  0  0  0  0
   41.3950   29.1730   41.4730 H   0  0  0  0  0  0  0  0  0  0  0  0
  1  5  1  0  0  0  0
  1  3  1  0  0  0  0
  2  1  2  0  0  0  0
  3  4  1  0  0  0  0
  5 10  1  0  0  0  0
  6  7  1  0  0  0  0
  6  5  2  0  0  0  0
  7  8  2  0  0  0  0
  8 13  1  0  0  0  0
  8  9  1  0  0  0  0
  9 15  1  0  0  0  0
 10  9  2  0  0  0  0
 11  6  1  0  0  0  0
 12  7  1  0  0  0  0
 14 21  1  0  0  0  0
 15 14  2  0  0  0  0
 15 16  1  0  0  0  0
 16 17  1  0  0  0  0
 16 18  2  0  0  0  0
 18 20  1  0  0  0  0
 18 19  1  0  0  0  0
 21 20  2  0  0  0  0
 22 23  1  0  0  0  0
 23 24  2  0  0  0  0
 23 14  1  0  0  0  0
 25 23  2  0  0  0  0
 26 27  1  0  0  0  0
 26  3  1  0  0  0  0
 26 29  1  0  0  0  0
 28 26  1  0  0  0  0
 29 30  1  0  0  0  0
 31 29  1  0  0  0  0
 32 33  1  0  0  0  0
 32 40  1  0  0  0  0
 33 38  1  0  0  0  0
 34 29  1  0  0  0  0
 34 33  2  0  0  0  0
 35 36  2  0  0  0  0
 35 34  1  0  0  0  0
 36 37  1  0  0  0  0
 37 32  2  0  0  0  0
 39 36  1  0  0  0  0
 40 42  1  0  0  0  0
 40 41  1  0  0  0  0
 40 43  1  0  0  0  0
 41 44  1  0  0  0  0
 42 41  1  0  0  0  0
 42 46  1  0  0  0  0
 45 41  1  0  0  0  0
 47 42  1  0  0  0  0
M  END
>  <minimizedAffinity>
-5.65746832

$$$$
