REMARK  Name = 
REMARK  7 active torsions:
REMARK  status: ('A' for Active; 'I' for Inactive)
REMARK    1  A    between atoms: C_3  and  O_7
REMARK    2  A    between atoms: O_7  and  P_9
REMARK    3  A    between atoms: P_9  and  O_10
REMARK    4  A    between atoms: P_9  and  O_11
REMARK    5  A    between atoms: O_11  and  C_12
REMARK    6  A    between atoms: C_12  and  C_23
REMARK    7  A    between atoms: S_19  and  C_22
REMARK                            x       y       z     vdW  Elec       q    Type
REMARK                         _______ _______ _______ _____ _____    ______ ____
ROOT
ATOM      1  O   UNL     1      47.459  32.206  48.123  0.00  0.00    +0.000 OA
ENDROOT
BRANCH   1   3
ATOM      2  O   UNL     1      45.318  30.874  47.469  0.00  0.00    +0.000 OA
ATOM      3  P   UNL     1      45.815  32.108  48.269  0.00  0.00    +0.000 P 
BRANCH   3   4
ATOM      4  O   UNL     1      45.321  31.820  49.850  0.00  0.00    +0.000 OA
ATOM      5  H   UNL     1      45.500  30.884  50.063  0.00  0.00    +0.000 HD
ENDBRANCH   3   4
BRANCH   3   6
ATOM      6  O   UNL     1      45.038  33.471  47.647  0.00  0.00    +0.000 OA
BRANCH   6   9
ATOM      7  C   UNL     1      46.539  33.623  44.340  0.00  0.00    +0.000 A 
ATOM      8  C   UNL     1      46.245  33.211  45.648  0.00  0.00    +0.000 A 
ATOM      9  C   UNL     1      45.299  33.903  46.365  0.00  0.00    +0.000 A 
ATOM     10  N   UNL     1      44.686  34.963  45.767  0.00  0.00    +0.000 NA
ATOM     11  C   UNL     1      44.976  35.344  44.517  0.00  0.00    +0.000 A 
ATOM     12  N   UNL     1      45.895  34.687  43.799  0.00  0.00    +0.000 NA
ATOM     13  H   UNL     1      47.265  33.148  43.696  0.00  0.00    +0.000 HD
ATOM     14  H   UNL     1      46.827  32.370  45.921  0.00  0.00    +0.000 HD
ATOM     15  H   UNL     1      44.388  36.206  44.212  0.00  0.00    +0.000 HD
ENDBRANCH   6   9
ENDBRANCH   3   6
ENDBRANCH   1   3
BRANCH   1  16
ATOM     16  C   UNL     1      48.479  31.424  48.527  0.00  0.00    +0.000 C 
ATOM     17  O   UNL     1      49.220  32.008  49.442  0.00  0.00    +0.000 OA
BRANCH  16  19
ATOM     18  C   UNL     1      50.511  30.031  48.276  0.00  0.00    +0.000 A 
ATOM     19  C   UNL     1      49.152  30.094  48.343  0.00  0.00    +0.000 A 
ATOM     20  C   UNL     1      48.398  28.914  48.209  0.00  0.00    +0.000 A 
ATOM     21  H   UNL     1      47.302  29.051  48.276  0.00  0.00    +0.000 HD
ATOM     22  C   UNL     1      48.885  27.653  48.010  0.00  0.00    +0.000 A 
ATOM     23  H   UNL     1      48.183  26.846  47.926  0.00  0.00    +0.000 HD
ATOM     24  C   UNL     1      50.248  27.585  47.941  0.00  0.00    +0.000 A 
ATOM     25  C   UNL     1      50.999  28.722  48.070  0.00  0.00    +0.000 A 
BRANCH  18  27
ATOM     26  H   UNL     1      52.936  30.750  48.371  0.00  0.00    +0.000 HD
ATOM     27  S   UNL     1      51.659  31.313  48.417  0.00  0.00    +0.000 S 
ATOM     28  O   UNL     1      51.629  32.262  47.253  0.00  0.00    +0.000 OA
ATOM     29  O   UNL     1      51.640  32.018  49.754  0.00  0.00    +0.000 OA
ENDBRANCH  18  27
ENDBRANCH  16  19
ENDBRANCH   1  16
TORSDOF 7
