
 OpenBabel03242521433D

 41 43  0  0  1  0  0  0  0  0999 V2000
   45.3520   36.0950   43.7410 C   0  0  0  0  0  0  0  0  0  0  0  0
   46.1680   35.2130   43.0130 C   0  0  0  0  0  0  0  0  0  0  0  0
   46.3980   33.9180   43.4980 C   0  0  0  0  0  0  0  0  0  0  0  0
   45.8180   33.5830   44.6500 N   0  0  0  0  0  0  0  0  0  0  0  0
   45.0300   34.4520   45.3400 C   0  0  0  0  0  0  0  0  0  0  0  0
   44.7970   35.6950   44.8970 N   0  0  0  0  0  0  0  0  0  0  0  0
   46.5840   35.5890   42.0970 H   0  0  0  0  0  0  0  0  0  0  0  0
   44.6330   34.0290   46.2560 H   0  0  0  0  0  0  0  0  0  0  0  0
   48.4980   33.7020   42.1850 C   0  0  2  0  0  0  0  0  0  0  0  0
   47.2540   33.0600   42.6890 C   0  0  2  0  0  0  0  0  0  0  0  0
   46.6550   32.6310   41.4680 O   0  0  0  0  0  0  0  0  0  0  0  0
   47.6930   31.9570   40.8510 C   0  0  0  0  0  0  0  0  0  0  0  0
   49.0010   32.5350   41.3090 C   0  0  1  0  0  0  0  0  0  0  0  0
   48.2950   34.5010   41.4190 H   0  0  0  0  0  0  0  0  0  0  0  0
   47.5140   32.1390   43.2450 H   0  0  0  0  0  0  0  0  0  0  0  0
   47.6020   30.8780   41.1090 H   0  0  0  0  0  0  0  0  0  0  0  0
   47.5760   32.0290   39.7460 H   0  0  0  0  0  0  0  0  0  0  0  0
   49.5780   31.8060   41.9360 H   0  0  0  0  0  0  0  0  0  0  0  0
   49.3770   34.0940   43.1470 O   0  0  0  0  0  0  0  0  0  0  0  0
   49.3400   35.0830   43.2930 H   0  0  0  0  0  0  0  0  0  0  0  0
   49.7840   33.0540   40.2850 O   0  0  0  0  0  0  0  0  0  0  0  0
   50.4740   33.6140   40.7470 H   0  0  0  0  0  0  0  0  0  0  0  0
   45.1270   37.4710   43.2160 C   0  0  0  0  0  0  0  0  0  0  0  0
   44.1970   37.4750   42.5950 H   0  0  0  0  0  0  0  0  0  0  0  0
   46.0060   37.7890   42.6270 H   0  0  0  0  0  0  0  0  0  0  0  0
   45.1520   39.7200   44.4550 C   0  0  0  0  0  0  0  0  0  0  0  0
   45.6410   40.2720   43.4320 O   0  0  0  0  0  0  0  0  0  0  0  0
   44.8840   38.3250   44.3630 N   0  0  0  0  0  0  0  0  0  0  0  0
   44.4660   37.8580   45.2100 H   0  0  0  0  0  0  0  0  0  0  0  0
   44.4420   41.8020   45.5870 C   0  0  0  0  0  0  0  0  0  0  0  0
   44.8850   40.4970   45.6590 C   0  0  0  0  0  0  0  0  0  0  0  0
   45.0580   39.9810   46.9360 C   0  0  0  0  0  0  0  0  0  0  0  0
   45.4000   38.9750   47.0200 H   0  0  0  0  0  0  0  0  0  0  0  0
   44.7990   40.7370   48.0830 C   0  0  0  0  0  0  0  0  0  0  0  0
   44.9720   40.2250   49.0250 H   0  0  0  0  0  0  0  0  0  0  0  0
   44.3540   42.0490   47.9620 C   0  0  0  0  0  3  0  0  0  0  0  0
   44.1730   42.5880   46.6950 C   0  0  0  0  0  3  0  0  0  0  0  0
   44.0890   41.5850   43.0460 H   0  0  0  0  0  0  0  0  0  0  0  0
   44.1910   42.5480   44.0220 S   0  0  0  0  0  0  0  0  0  0  0  0
   45.3500   43.4800   43.7340 O   0  0  0  0  0  0  0  0  0  0  0  0
   42.8970   43.3240   44.1350 O   0  0  0  0  0  0  0  0  0  0  0  0
  1  6  1  0  0  0  0
  2  3  1  0  0  0  0
  2  1  2  0  0  0  0
  3  4  2  0  0  0  0
  4  5  1  0  0  0  0
  5  8  1  0  0  0  0
  6  5  2  0  0  0  0
  7  2  1  0  0  0  0
  9 14  1  6  0  0  0
  9 10  1  0  0  0  0
  9 19  1  0  0  0  0
 10 15  1  1  0  0  0
 10  3  1  0  0  0  0
 11 10  1  0  0  0  0
 12 16  1  0  0  0  0
 12 13  1  0  0  0  0
 12 11  1  0  0  0  0
 13 18  1  1  0  0  0
 13  9  1  0  0  0  0
 17 12  1  0  0  0  0
 19 20  1  0  0  0  0
 21 22  1  0  0  0  0
 21 13  1  0  0  0  0
 23  1  1  0  0  0  0
 23 28  1  0  0  0  0
 24 23  1  0  0  0  0
 25 23  1  0  0  0  0
 26 31  1  0  0  0  0
 27 26  2  0  0  0  0
 28 26  1  0  0  0  0
 28 29  1  0  0  0  0
 30 31  2  0  0  0  0
 30 37  1  0  0  0  0
 31 32  1  0  0  0  0
 32 33  1  0  0  0  0
 32 34  2  0  0  0  0
 34 35  1  0  0  0  0
 36 34  1  0  0  0  0
 37 36  2  0  0  0  0
 38 39  1  0  0  0  0
 39 41  2  0  0  0  0
 39 30  1  0  0  0  0
 40 39  2  0  0  0  0
M  END
>  <minimizedAffinity>
0.290057033

>  <minimizedRMSD>
0.768606424

$$$$
