
 OpenBabel03242522503D

 29 30  0  0  0  0  0  0  0  0999 V2000
   47.4970   30.6360   49.3260 O   0  0  0  0  0  0  0  0  0  0  0  0
   45.3150   30.5080   47.9080 O   0  0  0  0  0  0  0  0  0  0  0  0
   46.1350   31.4390   48.8410 P   0  0  1  0  0  0  0  0  0  0  0  0
   45.0980   31.7850   50.1190 O   0  0  0  0  0  0  0  0  0  0  0  0
   44.6450   30.9600   50.3800 H   0  0  0  0  0  0  0  0  0  0  0  0
   46.4970   32.8430   47.9780 O   0  0  0  0  0  0  0  0  0  0  0  0
   47.0360   32.0240   44.4780 C   0  0  0  0  0  0  0  0  0  0  0  0
   47.1440   32.0160   45.8760 C   0  0  0  0  0  0  0  0  0  0  0  0
   46.3620   32.8770   46.6070 C   0  0  0  0  0  0  0  0  0  0  0  0
   45.5120   33.7030   45.9350 N   0  0  0  0  0  0  0  0  0  0  0  0
   45.4190   33.6990   44.5990 C   0  0  0  0  0  0  0  0  0  0  0  0
   46.1710   32.8700   43.8650 N   0  0  0  0  0  0  0  0  0  0  0  0
   47.6060   31.3890   43.8150 H   0  0  0  0  0  0  0  0  0  0  0  0
   47.8560   31.3020   46.1980 H   0  0  0  0  0  0  0  0  0  0  0  0
   44.6900   34.4230   44.2440 H   0  0  0  0  0  0  0  0  0  0  0  0
   48.7700   30.6110   48.8860 C   0  0  0  0  0  0  0  0  0  0  0  0
   49.3690   31.7720   49.0310 O   0  0  0  0  0  0  0  0  0  0  0  0
   50.9180   29.3840   48.9960 C   0  0  0  0  0  0  0  0  0  0  0  0
   49.8350   29.7560   48.2590 C   0  0  0  0  0  0  0  0  0  0  0  0
   49.7450   29.3590   46.9130 C   0  0  0  0  0  0  0  0  0  0  0  0
   48.8350   29.7010   46.3860 H   0  0  0  0  0  0  0  0  0  0  0  0
   50.6550   28.6090   46.2210 C   0  0  0  0  0  0  0  0  0  0  0  0
   50.4480   28.3850   45.1930 H   0  0  0  0  0  0  0  0  0  0  0  0
   51.7430   28.2340   46.9560 C   0  0  0  0  0  3  0  0  0  0  0  0
   51.8490   28.6110   48.2680 C   0  0  0  0  0  3  0  0  0  0  0  0
   52.3030   28.8820   51.0550 H   0  0  0  0  0  0  0  0  0  0  0  0
   51.2670   29.7260   50.6530 S   0  0  0  0  0  0  0  0  0  0  0  0
   51.8090   31.1110   50.8670 O   0  0  0  0  0  0  0  0  0  0  0  0
   50.1460   29.3780   51.6060 O   0  0  0  0  0  0  0  0  0  0  0  0
  3  2  2  6  0  0  0
  3  1  1  0  0  0  0
  3  4  1  0  0  0  0
  4  5  1  0  0  0  0
  6  3  1  0  0  0  0
  7  8  1  0  0  0  0
  8 14  1  0  0  0  0
  8  9  2  0  0  0  0
  9  6  1  0  0  0  0
 10  9  1  0  0  0  0
 11 10  2  0  0  0  0
 12  7  2  0  0  0  0
 12 11  1  0  0  0  0
 13  7  1  0  0  0  0
 15 11  1  0  0  0  0
 16 17  2  0  0  0  0
 16  1  1  0  0  0  0
 18 27  1  0  0  0  0
 19 16  1  0  0  0  0
 19 18  2  0  0  0  0
 20 19  1  0  0  0  0
 21 20  1  0  0  0  0
 22 20  2  0  0  0  0
 22 24  1  0  0  0  0
 23 22  1  0  0  0  0
 24 25  2  0  0  0  0
 25 18  1  0  0  0  0
 27 28  2  0  0  0  0
 27 26  1  0  0  0  0
 27 29  2  0  0  0  0
M  END
>  <minimizedAffinity>
-4.22425652

>  <minimizedRMSD>
1.31816721

$$$$
