
 OpenBabel03242519433D

 32 33  0  0  0  0  0  0  0  0999 V2000
   38.8810   28.6270   39.1650 O   0  0  0  0  0  0  0  0  0  0  0  0
   37.7710   29.5530   39.7350 P   0  0  2  0  0  0  0  0  0  0  0  0
   37.8840   31.0800   38.9580 O   0  0  0  0  0  0  0  0  0  0  0  0
   38.9120   34.1610   40.6020 C   0  0  0  0  0  0  0  0  0  0  0  0
   38.0870   33.1630   40.0360 C   0  0  0  0  0  0  0  0  0  0  0  0
   38.7220   32.0300   39.5030 C   0  0  0  0  0  0  0  0  0  0  0  0
   40.0670   31.9510   39.5550 N   0  0  0  0  0  0  0  0  0  0  0  0
   40.8280   32.9240   40.1030 C   0  0  0  0  0  0  0  0  0  0  0  0
   40.2680   34.0250   40.6260 N   0  0  0  0  0  0  0  0  0  0  0  0
   38.4170   35.0240   41.0080 H   0  0  0  0  0  0  0  0  0  0  0  0
   37.0140   33.3130   40.0400 H   0  0  0  0  0  0  0  0  0  0  0  0
   41.9060   32.7560   40.0920 H   0  0  0  0  0  0  0  0  0  0  0  0
   38.0290   29.7580   41.3580 O   0  0  0  0  0  0  0  0  0  0  0  0
   38.3540   28.8500   42.3150 C   0  0  0  0  0  0  0  0  0  0  0  0
   37.7000   28.9350   43.4950 O   0  0  0  0  0  0  0  0  0  0  0  0
   38.7550   26.4180   42.4310 C   0  0  0  0  0  0  0  0  0  0  0  0
   39.1690   27.6810   42.7100 C   0  0  0  0  0  0  0  0  0  0  0  0
   40.4170   27.8290   43.3090 C   0  0  0  0  0  0  0  0  0  0  0  0
   40.7100   28.8810   43.5160 H   0  0  0  0  0  0  0  0  0  0  0  0
   41.3380   26.8900   43.6800 C   0  0  0  0  0  0  0  0  0  0  0  0
   42.2640   27.1740   44.1370 H   0  0  0  0  0  0  0  0  0  0  0  0
   40.9250   25.6170   43.3980 C   0  0  0  0  0  3  0  0  0  0  0  0
   39.6990   25.4440   42.8090 C   0  0  0  0  0  3  0  0  0  0  0  0
   36.2660   26.7590   42.1930 H   0  0  0  0  0  0  0  0  0  0  0  0
   37.2750   25.8820   41.7450 S   0  0  0  0  0  0  0  0  0  0  0  0
   37.2100   25.8980   40.2410 O   0  0  0  0  0  0  0  0  0  0  0  0
   36.9000   24.5370   42.2960 O   0  0  0  0  0  0  0  0  0  0  0  0
   36.3240   28.8570   39.3350 O   0  0  0  0  0  0  0  0  0  0  0  0
   35.2870   29.2690   40.1570 C   0  0  0  0  0  0  0  0  0  0  0  0
   34.0580   29.2300   39.5220 F   0  0  0  0  0  0  0  0  0  0  0  0
   35.3020   28.5780   41.3250 F   0  0  0  0  0  0  0  0  0  0  0  0
   35.5330   30.6100   40.4450 F   0  0  0  0  0  0  0  0  0  0  0  0
  2  1  2  6  0  0  0
  2 13  1  0  0  0  0
  3  6  1  0  0  0  0
  3  2  1  0  0  0  0
  4  9  1  0  0  0  0
  4 10  1  0  0  0  0
  5 11  1  0  0  0  0
  5  4  2  0  0  0  0
  6  7  2  0  0  0  0
  6  5  1  0  0  0  0
  7  8  1  0  0  0  0
  8  9  2  0  0  0  0
 12  8  1  0  0  0  0
 13 14  1  0  0  0  0
 14 17  1  0  0  0  0
 14 15  2  0  0  0  0
 16 17  2  0  0  0  0
 16 23  1  0  0  0  0
 17 18  1  0  0  0  0
 18 19  1  0  0  0  0
 18 20  2  0  0  0  0
 20 21  1  0  0  0  0
 22 20  1  0  0  0  0
 23 22  2  0  0  0  0
 25 24  1  0  0  0  0
 25 27  2  0  0  0  0
 25 16  1  0  0  0  0
 26 25  2  0  0  0  0
 28  2  1  0  0  0  0
 28 29  1  0  0  0  0
 29 32  1  0  0  0  0
 29 31  1  0  0  0  0
 30 29  1  0  0  0  0
M  END
>  <minimizedAffinity>
-5.25152493

$$$$

 OpenBabel03242519433D

 32 33  0  0  0  0  0  0  0  0999 V2000
   37.7820   29.6320   39.7110 O   0  0  0  0  0  0  0  0  0  0  0  0
   37.1000   30.2940   40.9400 P   0  0  2  0  0  0  0  0  0  0  0  0
   37.6290   31.9240   41.0440 O   0  0  0  0  0  0  0  0  0  0  0  0
   40.4530   33.3100   39.2140 C   0  0  0  0  0  0  0  0  0  0  0  0
   39.1240   33.0000   39.5790 C   0  0  0  0  0  0  0  0  0  0  0  0
   38.9390   32.2070   40.7220 C   0  0  0  0  0  0  0  0  0  0  0  0
   40.0220   31.7860   41.4060 N   0  0  0  0  0  0  0  0  0  0  0  0
   41.2820   32.1000   41.0310 C   0  0  0  0  0  0  0  0  0  0  0  0
   41.5090   32.8560   39.9460 N   0  0  0  0  0  0  0  0  0  0  0  0
   40.5850   33.9190   38.3380 H   0  0  0  0  0  0  0  0  0  0  0  0
   38.3150   33.3840   38.9690 H   0  0  0  0  0  0  0  0  0  0  0  0
   42.0840   31.7060   41.6570 H   0  0  0  0  0  0  0  0  0  0  0  0
   37.5700   29.4910   42.3090 O   0  0  0  0  0  0  0  0  0  0  0  0
   37.5260   28.1650   42.6070 C   0  0  0  0  0  0  0  0  0  0  0  0
   36.7890   27.7980   43.6790 O   0  0  0  0  0  0  0  0  0  0  0  0
   39.2480   26.4890   42.0490 C   0  0  0  0  0  0  0  0  0  0  0  0
   37.9410   26.7880   42.2650 C   0  0  0  0  0  0  0  0  0  0  0  0
   37.0290   25.7380   42.2290 C   0  0  0  0  0  0  0  0  0  0  0  0
   35.9730   26.0340   42.4130 H   0  0  0  0  0  0  0  0  0  0  0  0
   37.2230   24.4040   42.0060 C   0  0  0  0  0  0  0  0  0  0  0  0
   36.4010   23.7170   42.0110 H   0  0  0  0  0  0  0  0  0  0  0  0
   38.5380   24.0990   41.7890 C   0  0  0  0  0  3  0  0  0  0  0  0
   39.4570   25.1160   41.8190 C   0  0  0  0  0  3  0  0  0  0  0  0
   41.7510   26.7210   41.8350 H   0  0  0  0  0  0  0  0  0  0  0  0
   40.6090   27.5330   41.9810 S   0  0  0  0  0  0  0  0  0  0  0  0
   40.6310   28.5030   40.8290 O   0  0  0  0  0  0  0  0  0  0  0  0
   40.7930   28.2380   43.2940 O   0  0  0  0  0  0  0  0  0  0  0  0
   35.4730   30.2790   40.6400 O   0  0  0  0  0  0  0  0  0  0  0  0
   35.0940   29.2490   39.7930 C   0  0  0  0  0  0  0  0  0  0  0  0
   35.3890   29.5160   38.4680 F   0  0  0  0  0  0  0  0  0  0  0  0
   35.6080   28.0680   40.2220 F   0  0  0  0  0  0  0  0  0  0  0  0
   33.7060   29.1730   39.8750 F   0  0  0  0  0  0  0  0  0  0  0  0
  2  1  2  6  0  0  0
  2  3  1  0  0  0  0
  2 13  1  0  0  0  0
  4  5  2  0  0  0  0
  4  9  1  0  0  0  0
  5  6  1  0  0  0  0
  6  3  1  0  0  0  0
  6  7  2  0  0  0  0
  8  7  1  0  0  0  0
  8 12  1  0  0  0  0
  9  8  2  0  0  0  0
 10  4  1  0  0  0  0
 11  5  1  0  0  0  0
 13 14  1  0  0  0  0
 14 15  2  0  0  0  0
 16 17  1  0  0  0  0
 17 14  1  0  0  0  0
 18 17  2  0  0  0  0
 18 19  1  0  0  0  0
 20 21  1  0  0  0  0
 20 18  1  0  0  0  0
 22 23  1  0  0  0  0
 22 20  2  0  0  0  0
 23 16  2  0  0  0  0
 24 25  1  0  0  0  0
 25 16  1  0  0  0  0
 25 27  2  0  0  0  0
 26 25  2  0  0  0  0
 28  2  1  0  0  0  0
 29 32  1  0  0  0  0
 29 31  1  0  0  0  0
 29 28  1  0  0  0  0
 30 29  1  0  0  0  0
M  END
>  <minimizedAffinity>
-5.21095991

$$$$

 OpenBabel03242519433D

 32 33  0  0  0  0  0  0  0  0999 V2000
   38.1250   28.8990   39.8260 O   0  0  0  0  0  0  0  0  0  0  0  0
   36.8980   29.5820   40.4910 P   0  0  2  0  0  0  0  0  0  0  0  0
   37.4310   31.0090   41.2820 O   0  0  0  0  0  0  0  0  0  0  0  0
   40.8040   30.8150   42.6390 C   0  0  0  0  0  0  0  0  0  0  0  0
   39.4130   30.6140   42.4890 C   0  0  0  0  0  0  0  0  0  0  0  0
   38.7880   31.2270   41.3920 C   0  0  0  0  0  0  0  0  0  0  0  0
   39.5340   31.9670   40.5470 N   0  0  0  0  0  0  0  0  0  0  0  0
   40.8630   32.1410   40.7180 C   0  0  0  0  0  0  0  0  0  0  0  0
   41.5050   31.5750   41.7510 N   0  0  0  0  0  0  0  0  0  0  0  0
   41.2730   30.3420   43.4820 H   0  0  0  0  0  0  0  0  0  0  0  0
   38.8960   30.0020   43.2190 H   0  0  0  0  0  0  0  0  0  0  0  0
   41.3680   32.7590   39.9740 H   0  0  0  0  0  0  0  0  0  0  0  0
   36.2610   28.5510   41.6190 O   0  0  0  0  0  0  0  0  0  0  0  0
   36.8670   27.6060   42.3840 C   0  0  0  0  0  0  0  0  0  0  0  0
   36.3400   27.3700   43.6070 O   0  0  0  0  0  0  0  0  0  0  0  0
   38.0080   25.5360   41.6760 C   0  0  0  0  0  0  0  0  0  0  0  0
   37.9430   26.5990   42.5170 C   0  0  0  0  0  0  0  0  0  0  0  0
   38.9650   26.7430   43.4510 C   0  0  0  0  0  0  0  0  0  0  0  0
   38.8660   27.6290   44.1150 H   0  0  0  0  0  0  0  0  0  0  0  0
   40.0690   25.9710   43.6790 C   0  0  0  0  0  0  0  0  0  0  0  0
   40.7700   26.2220   44.4490 H   0  0  0  0  0  0  0  0  0  0  0  0
   40.1390   24.8990   42.8330 C   0  0  0  0  0  3  0  0  0  0  0  0
   39.1430   24.7350   41.9050 C   0  0  0  0  0  3  0  0  0  0  0  0
   35.7600   25.8530   40.5740 H   0  0  0  0  0  0  0  0  0  0  0  0
   36.9070   25.0430   40.4540 S   0  0  0  0  0  0  0  0  0  0  0  0
   37.3910   25.2060   39.0370 O   0  0  0  0  0  0  0  0  0  0  0  0
   36.4300   23.6440   40.7130 O   0  0  0  0  0  0  0  0  0  0  0  0
   35.8710   30.0040   39.2640 O   0  0  0  0  0  0  0  0  0  0  0  0
   34.8950   29.0470   39.0320 C   0  0  0  0  0  0  0  0  0  0  0  0
   35.4140   27.7670   38.9510 F   0  0  0  0  0  0  0  0  0  0  0  0
   33.8950   29.1560   39.9440 F   0  0  0  0  0  0  0  0  0  0  0  0
   34.3670   29.3330   37.7750 F   0  0  0  0  0  0  0  0  0  0  0  0
  2  1  2  6  0  0  0
  2  3  1  0  0  0  0
  2 13  1  0  0  0  0
  3  6  1  0  0  0  0
  4 10  1  0  0  0  0
  5  4  1  0  0  0  0
  5 11  1  0  0  0  0
  6  5  2  0  0  0  0
  7  8  2  0  0  0  0
  7  6  1  0  0  0  0
  8  9  1  0  0  0  0
  9  4  2  0  0  0  0
 12  8  1  0  0  0  0
 13 14  1  0  0  0  0
 14 17  1  0  0  0  0
 14 15  2  0  0  0  0
 16 23  2  0  0  0  0
 16 17  1  0  0  0  0
 17 18  2  0  0  0  0
 18 20  1  0  0  0  0
 18 19  1  0  0  0  0
 20 21  1  0  0  0  0
 22 20  2  0  0  0  0
 23 22  1  0  0  0  0
 25 24  1  0  0  0  0
 25 27  2  0  0  0  0
 25 16  1  0  0  0  0
 26 25  2  0  0  0  0
 28  2  1  0  0  0  0
 29 28  1  0  0  0  0
 29 31  1  0  0  0  0
 30 29  1  0  0  0  0
 32 29  1  0  0  0  0
M  END
>  <minimizedAffinity>
-5.17079544

$$$$

 OpenBabel03242519433D

 32 33  0  0  0  0  0  0  0  0999 V2000
   37.3280   28.4060   36.8900 O   0  0  0  0  0  0  0  0  0  0  0  0
   37.0380   29.5430   37.9090 P   0  0  2  0  0  0  0  0  0  0  0  0
   37.7660   30.9870   37.3340 O   0  0  0  0  0  0  0  0  0  0  0  0
   37.6580   33.5910   39.8760 C   0  0  0  0  0  0  0  0  0  0  0  0
   37.2300   32.6410   38.9210 C   0  0  0  0  0  0  0  0  0  0  0  0
   38.2230   31.9010   38.2600 C   0  0  0  0  0  0  0  0  0  0  0  0
   39.5170   32.1300   38.5620 N   0  0  0  0  0  0  0  0  0  0  0  0
   39.8940   33.0470   39.4810 C   0  0  0  0  0  0  0  0  0  0  0  0
   38.9820   33.7780   40.1400 N   0  0  0  0  0  0  0  0  0  0  0  0
   36.8900   34.1520   40.3770 H   0  0  0  0  0  0  0  0  0  0  0  0
   36.1670   32.5260   38.7440 H   0  0  0  0  0  0  0  0  0  0  0  0
   40.9670   33.1490   39.6470 H   0  0  0  0  0  0  0  0  0  0  0  0
   37.7200   29.1420   39.3630 O   0  0  0  0  0  0  0  0  0  0  0  0
   38.0820   27.9280   39.8570 C   0  0  0  0  0  0  0  0  0  0  0  0
   39.3740   27.5610   39.7060 O   0  0  0  0  0  0  0  0  0  0  0  0
   37.6310   26.6580   41.9230 C   0  0  0  0  0  0  0  0  0  0  0  0
   37.6850   26.6940   40.5670 C   0  0  0  0  0  0  0  0  0  0  0  0
   37.2790   25.5540   39.8780 C   0  0  0  0  0  0  0  0  0  0  0  0
   37.3410   25.6340   38.7710 H   0  0  0  0  0  0  0  0  0  0  0  0
   36.8170   24.3560   40.3450 C   0  0  0  0  0  0  0  0  0  0  0  0
   36.5440   23.5690   39.6720 H   0  0  0  0  0  0  0  0  0  0  0  0
   36.7600   24.3170   41.7110 C   0  0  0  0  0  3  0  0  0  0  0  0
   37.1540   25.4270   42.4120 C   0  0  0  0  0  3  0  0  0  0  0  0
   37.7700   27.3560   44.3440 H   0  0  0  0  0  0  0  0  0  0  0  0
   38.0900   27.8550   43.0650 S   0  0  0  0  0  0  0  0  0  0  0  0
   39.5570   28.1940   43.1000 O   0  0  0  0  0  0  0  0  0  0  0  0
   37.2470   29.0860   42.9010 O   0  0  0  0  0  0  0  0  0  0  0  0
   35.3960   29.7460   37.9340 O   0  0  0  0  0  0  0  0  0  0  0  0
   34.7660   28.8980   38.8300 C   0  0  0  0  0  0  0  0  0  0  0  0
   35.0730   27.5660   38.6070 F   0  0  0  0  0  0  0  0  0  0  0  0
   35.0080   29.2900   40.1070 F   0  0  0  0  0  0  0  0  0  0  0  0
   33.4000   29.0270   38.5880 F   0  0  0  0  0  0  0  0  0  0  0  0
  2  1  2  6  0  0  0
  2 28  1  0  0  0  0
  2 13  1  0  0  0  0
  3  2  1  0  0  0  0
  3  6  1  0  0  0  0
  4  9  1  0  0  0  0
  4 10  1  0  0  0  0
  5  4  2  0  0  0  0
  6  7  2  0  0  0  0
  6  5  1  0  0  0  0
  7  8  1  0  0  0  0
  8 12  1  0  0  0  0
  8  9  2  0  0  0  0
 11  5  1  0  0  0  0
 13 14  1  0  0  0  0
 14 17  1  0  0  0  0
 15 14  2  0  0  0  0
 16 23  1  0  0  0  0
 16 25  1  0  0  0  0
 17 16  2  0  0  0  0
 18 20  2  0  0  0  0
 18 17  1  0  0  0  0
 19 18  1  0  0  0  0
 20 22  1  0  0  0  0
 21 20  1  0  0  0  0
 22 23  2  0  0  0  0
 25 26  2  0  0  0  0
 25 24  1  0  0  0  0
 27 25  2  0  0  0  0
 28 29  1  0  0  0  0
 29 31  1  0  0  0  0
 30 29  1  0  0  0  0
 32 29  1  0  0  0  0
M  END
>  <minimizedAffinity>
-5.11623573

$$$$

 OpenBabel03242519433D

 32 33  0  0  0  0  0  0  0  0999 V2000
   38.1940   26.7160   40.3990 O   0  0  0  0  0  0  0  0  0  0  0  0
   37.5410   26.7880   41.8060 P   0  0  2  0  0  0  0  0  0  0  0  0
   36.9320   25.2330   42.2050 O   0  0  0  0  0  0  0  0  0  0  0  0
   36.2050   22.9400   39.4730 C   0  0  0  0  0  0  0  0  0  0  0  0
   36.0540   23.9840   40.4130 C   0  0  0  0  0  0  0  0  0  0  0  0
   37.1180   24.2080   41.3010 C   0  0  0  0  0  0  0  0  0  0  0  0
   38.2140   23.4280   41.2160 N   0  0  0  0  0  0  0  0  0  0  0  0
   38.3270   22.4360   40.3050 C   0  0  0  0  0  0  0  0  0  0  0  0
   37.3380   22.1840   39.4340 N   0  0  0  0  0  0  0  0  0  0  0  0
   35.3850   22.7770   38.7970 H   0  0  0  0  0  0  0  0  0  0  0  0
   35.1360   24.5600   40.4060 H   0  0  0  0  0  0  0  0  0  0  0  0
   39.2580   21.8670   40.3240 H   0  0  0  0  0  0  0  0  0  0  0  0
   36.2800   27.8590   41.7550 O   0  0  0  0  0  0  0  0  0  0  0  0
   36.0270   28.8740   40.8880 C   0  0  0  0  0  0  0  0  0  0  0  0
   34.7400   29.0640   40.5190 O   0  0  0  0  0  0  0  0  0  0  0  0
   36.7590   29.8520   38.7440 C   0  0  0  0  0  0  0  0  0  0  0  0
   36.5530   29.9940   40.0780 C   0  0  0  0  0  0  0  0  0  0  0  0
   36.7820   31.2500   40.6320 C   0  0  0  0  0  0  0  0  0  0  0  0
   36.5990   31.3150   41.7270 H   0  0  0  0  0  0  0  0  0  0  0  0
   37.1940   32.4140   40.0460 C   0  0  0  0  0  0  0  0  0  0  0  0
   37.3260   33.3070   40.6230 H   0  0  0  0  0  0  0  0  0  0  0  0
   37.4010   32.2750   38.7020 C   0  0  0  0  0  3  0  0  0  0  0  0
   37.1830   31.0470   38.1320 C   0  0  0  0  0  3  0  0  0  0  0  0
   37.1640   27.3750   38.4870 H   0  0  0  0  0  0  0  0  0  0  0  0
   36.6140   28.4510   37.7620 S   0  0  0  0  0  0  0  0  0  0  0  0
   35.2080   28.0450   37.4070 O   0  0  0  0  0  0  0  0  0  0  0  0
   37.4730   28.5800   36.5370 O   0  0  0  0  0  0  0  0  0  0  0  0
   38.7500   27.1750   42.8680 O   0  0  0  0  0  0  0  0  0  0  0  0
   39.2250   28.4650   42.6900 C   0  0  0  0  0  0  0  0  0  0  0  0
   40.4520   28.6680   43.2970 F   0  0  0  0  0  0  0  0  0  0  0  0
   39.2260   28.7950   41.3730 F   0  0  0  0  0  0  0  0  0  0  0  0
   38.3250   29.3010   43.3450 F   0  0  0  0  0  0  0  0  0  0  0  0
  2  1  2  6  0  0  0
  2  3  1  0  0  0  0
  2 28  1  0  0  0  0
  4  5  1  0  0  0  0
  5  6  2  0  0  0  0
  6  3  1  0  0  0  0
  7  6  1  0  0  0  0
  8 12  1  0  0  0  0
  8  7  2  0  0  0  0
  9  4  2  0  0  0  0
  9  8  1  0  0  0  0
 10  4  1  0  0  0  0
 11  5  1  0  0  0  0
 13  2  1  0  0  0  0
 14 13  1  0  0  0  0
 15 14  2  0  0  0  0
 16 17  1  0  0  0  0
 17 18  2  0  0  0  0
 17 14  1  0  0  0  0
 18 19  1  0  0  0  0
 20 21  1  0  0  0  0
 20 18  1  0  0  0  0
 22 20  2  0  0  0  0
 23 22  1  0  0  0  0
 23 16  2  0  0  0  0
 25 24  1  0  0  0  0
 25 16  1  0  0  0  0
 26 25  2  0  0  0  0
 27 25  2  0  0  0  0
 29 28  1  0  0  0  0
 29 30  1  0  0  0  0
 29 32  1  0  0  0  0
 31 29  1  0  0  0  0
M  END
>  <minimizedAffinity>
-5.07058191

$$$$

 OpenBabel03242519433D

 32 33  0  0  0  0  0  0  0  0999 V2000
   38.3310   28.8890   38.0820 O   0  0  0  0  0  0  0  0  0  0  0  0
   37.4360   29.6200   39.1200 P   0  0  2  0  0  0  0  0  0  0  0  0
   37.2690   31.2590   38.6370 O   0  0  0  0  0  0  0  0  0  0  0  0
   38.6750   34.1580   40.3300 C   0  0  0  0  0  0  0  0  0  0  0  0
   37.7350   33.2060   39.8740 C   0  0  0  0  0  0  0  0  0  0  0  0
   38.2160   32.1650   39.0650 C   0  0  0  0  0  0  0  0  0  0  0  0
   39.5300   32.1240   38.7660 N   0  0  0  0  0  0  0  0  0  0  0  0
   40.4040   33.0510   39.2190 C   0  0  0  0  0  0  0  0  0  0  0  0
   39.9930   34.0640   39.9960 N   0  0  0  0  0  0  0  0  0  0  0  0
   38.2970   34.9510   40.9500 H   0  0  0  0  0  0  0  0  0  0  0  0
   36.6980   33.3200   40.1660 H   0  0  0  0  0  0  0  0  0  0  0  0
   41.4440   32.9210   38.9170 H   0  0  0  0  0  0  0  0  0  0  0  0
   38.1820   29.5700   40.5970 O   0  0  0  0  0  0  0  0  0  0  0  0
   38.3430   28.5360   41.4630 C   0  0  0  0  0  0  0  0  0  0  0  0
   38.5310   28.8450   42.7660 O   0  0  0  0  0  0  0  0  0  0  0  0
   39.5970   26.4220   41.6770 C   0  0  0  0  0  0  0  0  0  0  0  0
   38.4050   27.0740   41.6740 C   0  0  0  0  0  0  0  0  0  0  0  0
   37.2650   26.3270   41.9530 C   0  0  0  0  0  0  0  0  0  0  0  0
   36.3160   26.9060   41.9390 H   0  0  0  0  0  0  0  0  0  0  0  0
   37.1250   24.9980   42.2410 C   0  0  0  0  0  0  0  0  0  0  0  0
   36.1610   24.5720   42.4330 H   0  0  0  0  0  0  0  0  0  0  0  0
   38.3230   24.3390   42.2470 C   0  0  0  0  0  3  0  0  0  0  0  0
   39.4620   25.0520   41.9750 C   0  0  0  0  0  3  0  0  0  0  0  0
   41.0800   27.7750   40.1490 H   0  0  0  0  0  0  0  0  0  0  0  0
   41.1690   27.0210   41.3380 S   0  0  0  0  0  0  0  0  0  0  0  0
   41.7550   27.9410   42.3760 O   0  0  0  0  0  0  0  0  0  0  0  0
   42.1020   25.8900   41.0170 O   0  0  0  0  0  0  0  0  0  0  0  0
   35.9510   28.8920   39.0580 O   0  0  0  0  0  0  0  0  0  0  0  0
   35.0760   29.3790   40.0160 C   0  0  0  0  0  0  0  0  0  0  0  0
   35.4330   30.6370   40.4710 F   0  0  0  0  0  0  0  0  0  0  0  0
   33.7960   29.3230   39.5660 F   0  0  0  0  0  0  0  0  0  0  0  0
   35.1880   28.5240   41.1100 F   0  0  0  0  0  0  0  0  0  0  0  0
  2  1  2  6  0  0  0
  2 13  1  0  0  0  0
  3  6  1  0  0  0  0
  3  2  1  0  0  0  0
  4 10  1  0  0  0  0
  5 11  1  0  0  0  0
  5  4  2  0  0  0  0
  6  5  1  0  0  0  0
  7  6  2  0  0  0  0
  7  8  1  0  0  0  0
  8  9  2  0  0  0  0
  9  4  1  0  0  0  0
 12  8  1  0  0  0  0
 13 14  1  0  0  0  0
 14 17  1  0  0  0  0
 14 15  2  0  0  0  0
 16 23  1  0  0  0  0
 17 16  2  0  0  0  0
 17 18  1  0  0  0  0
 18 20  2  0  0  0  0
 19 18  1  0  0  0  0
 20 22  1  0  0  0  0
 20 21  1  0  0  0  0
 23 22  2  0  0  0  0
 24 25  1  0  0  0  0
 25 16  1  0  0  0  0
 25 26  2  0  0  0  0
 27 25  2  0  0  0  0
 28  2  1  0  0  0  0
 28 29  1  0  0  0  0
 29 30  1  0  0  0  0
 29 32  1  0  0  0  0
 31 29  1  0  0  0  0
M  END
>  <minimizedAffinity>
-5.05490589

$$$$

 OpenBabel03242519433D

 32 33  0  0  0  0  0  0  0  0999 V2000
   38.8950   28.7840   39.3660 O   0  0  0  0  0  0  0  0  0  0  0  0
   38.8940   30.0860   40.2140 P   0  0  2  0  0  0  0  0  0  0  0  0
   40.5030   30.6760   40.3060 O   0  0  0  0  0  0  0  0  0  0  0  0
   41.7620   31.8290   37.0910 C   0  0  0  0  0  0  0  0  0  0  0  0
   41.3110   30.9650   38.1150 C   0  0  0  0  0  0  0  0  0  0  0  0
   40.9340   31.5520   39.3330 C   0  0  0  0  0  0  0  0  0  0  0  0
   41.0210   32.8910   39.4660 N   0  0  0  0  0  0  0  0  0  0  0  0
   41.4560   33.6900   38.4670 C   0  0  0  0  0  0  0  0  0  0  0  0
   41.8270   33.1760   37.2840 N   0  0  0  0  0  0  0  0  0  0  0  0
   42.0480   31.3700   36.1620 H   0  0  0  0  0  0  0  0  0  0  0  0
   41.2750   29.9000   37.9160 H   0  0  0  0  0  0  0  0  0  0  0  0
   41.4850   34.7590   38.6830 H   0  0  0  0  0  0  0  0  0  0  0  0
   38.3660   29.7280   41.7410 O   0  0  0  0  0  0  0  0  0  0  0  0
   38.2330   28.5270   42.3640 C   0  0  0  0  0  0  0  0  0  0  0  0
   37.9220   28.5450   43.6800 O   0  0  0  0  0  0  0  0  0  0  0  0
   39.4360   26.3730   42.3390 C   0  0  0  0  0  0  0  0  0  0  0  0
   38.2620   27.0520   42.2650 C   0  0  0  0  0  0  0  0  0  0  0  0
   37.0930   26.3040   42.1700 C   0  0  0  0  0  0  0  0  0  0  0  0
   36.1600   26.9050   42.1120 H   0  0  0  0  0  0  0  0  0  0  0  0
   36.9090   24.9500   42.1390 C   0  0  0  0  0  0  0  0  0  0  0  0
   35.9280   24.5270   42.0610 H   0  0  0  0  0  0  0  0  0  0  0  0
   38.0880   24.2620   42.2150 C   0  0  0  0  0  3  0  0  0  0  0  0
   39.2550   24.9770   42.3090 C   0  0  0  0  0  3  0  0  0  0  0  0
   41.8940   25.8680   42.6010 H   0  0  0  0  0  0  0  0  0  0  0  0
   41.0410   26.9760   42.4200 S   0  0  0  0  0  0  0  0  0  0  0  0
   41.5330   27.6890   41.1880 O   0  0  0  0  0  0  0  0  0  0  0  0
   41.2230   27.8170   43.6500 O   0  0  0  0  0  0  0  0  0  0  0  0
   37.9690   31.1830   39.3900 O   0  0  0  0  0  0  0  0  0  0  0  0
   37.3170   32.0710   40.2310 C   0  0  0  0  0  0  0  0  0  0  0  0
   36.2490   31.4900   40.8910 F   0  0  0  0  0  0  0  0  0  0  0  0
   38.2000   32.6650   41.0730 F   0  0  0  0  0  0  0  0  0  0  0  0
   36.7760   33.0550   39.4070 F   0  0  0  0  0  0  0  0  0  0  0  0
  2  1  2  6  0  0  0
  2  3  1  0  0  0  0
  2 13  1  0  0  0  0
  4  9  2  0  0  0  0
  4  5  1  0  0  0  0
  5  6  2  0  0  0  0
  6  7  1  0  0  0  0
  6  3  1  0  0  0  0
  8 12  1  0  0  0  0
  8  7  2  0  0  0  0
  9  8  1  0  0  0  0
 10  4  1  0  0  0  0
 11  5  1  0  0  0  0
 13 14  1  0  0  0  0
 14 15  2  0  0  0  0
 16 25  1  0  0  0  0
 17 16  2  0  0  0  0
 17 14  1  0  0  0  0
 18 17  1  0  0  0  0
 19 18  1  0  0  0  0
 20 18  2  0  0  0  0
 20 22  1  0  0  0  0
 21 20  1  0  0  0  0
 22 23  2  0  0  0  0
 23 16  1  0  0  0  0
 25 24  1  0  0  0  0
 25 27  2  0  0  0  0
 26 25  2  0  0  0  0
 28  2  1  0  0  0  0
 28 29  1  0  0  0  0
 29 30  1  0  0  0  0
 29 31  1  0  0  0  0
 32 29  1  0  0  0  0
M  END
>  <minimizedAffinity>
-4.96498346

$$$$

 OpenBabel03242519433D

 32 33  0  0  0  0  0  0  0  0999 V2000
   35.7240   29.5960   40.8910 O   0  0  0  0  0  0  0  0  0  0  0  0
   36.8120   30.3450   40.0720 P   0  0  2  0  0  0  0  0  0  0  0  0
   36.2620   30.5030   38.4530 O   0  0  0  0  0  0  0  0  0  0  0  0
   37.4730   28.3270   35.7980 C   0  0  0  0  0  0  0  0  0  0  0  0
   37.3630   29.4360   36.6670 C   0  0  0  0  0  0  0  0  0  0  0  0
   36.3380   29.4020   37.6270 C   0  0  0  0  0  0  0  0  0  0  0  0
   35.5220   28.3310   37.6710 N   0  0  0  0  0  0  0  0  0  0  0  0
   35.6530   27.2850   36.8250 C   0  0  0  0  0  0  0  0  0  0  0  0
   36.6170   27.2700   35.8920 N   0  0  0  0  0  0  0  0  0  0  0  0
   38.2610   28.3620   35.0680 H   0  0  0  0  0  0  0  0  0  0  0  0
   38.0660   30.2530   36.5570 H   0  0  0  0  0  0  0  0  0  0  0  0
   34.9380   26.4700   36.9510 H   0  0  0  0  0  0  0  0  0  0  0  0
   38.2000   29.4440   40.0790 O   0  0  0  0  0  0  0  0  0  0  0  0
   38.3790   28.1100   40.2680 C   0  0  0  0  0  0  0  0  0  0  0  0
   39.5820   27.5940   39.9300 O   0  0  0  0  0  0  0  0  0  0  0  0
   37.7380   26.5310   42.0530 C   0  0  0  0  0  0  0  0  0  0  0  0
   37.8180   26.8220   40.7290 C   0  0  0  0  0  0  0  0  0  0  0  0
   37.2820   25.8980   39.8360 C   0  0  0  0  0  0  0  0  0  0  0  0
   37.3710   26.1820   38.7650 H   0  0  0  0  0  0  0  0  0  0  0  0
   36.6640   24.7010   40.0660 C   0  0  0  0  0  0  0  0  0  0  0  0
   36.3040   24.1000   39.2560 H   0  0  0  0  0  0  0  0  0  0  0  0
   36.5810   24.4060   41.3990 C   0  0  0  0  0  3  0  0  0  0  0  0
   37.1020   25.3000   42.2990 C   0  0  0  0  0  3  0  0  0  0  0  0
   38.0640   26.6470   44.5520 H   0  0  0  0  0  0  0  0  0  0  0  0
   38.3270   27.4170   43.4010 S   0  0  0  0  0  0  0  0  0  0  0  0
   39.8090   27.6890   43.4060 O   0  0  0  0  0  0  0  0  0  0  0  0
   37.5370   28.6800   43.5830 O   0  0  0  0  0  0  0  0  0  0  0  0
   36.9480   31.8530   40.7380 O   0  0  0  0  0  0  0  0  0  0  0  0
   37.6540   32.7320   39.9320 C   0  0  0  0  0  0  0  0  0  0  0  0
   38.6380   32.1000   39.1910 F   0  0  0  0  0  0  0  0  0  0  0  0
   36.8040   33.4640   39.1670 F   0  0  0  0  0  0  0  0  0  0  0  0
   38.3160   33.6010   40.7960 F   0  0  0  0  0  0  0  0  0  0  0  0
  2 13  1  0  0  0  0
  2 28  1  0  0  0  0
  2  1  2  1  0  0  0
  3  2  1  0  0  0  0
  4  9  2  0  0  0  0
  4  5  1  0  0  0  0
  5  6  2  0  0  0  0
  6  7  1  0  0  0  0
  6  3  1  0  0  0  0
  8 12  1  0  0  0  0
  8  7  2  0  0  0  0
  9  8  1  0  0  0  0
 10  4  1  0  0  0  0
 11  5  1  0  0  0  0
 13 14  1  0  0  0  0
 14 17  1  0  0  0  0
 15 14  2  0  0  0  0
 16 23  1  0  0  0  0
 16 25  1  0  0  0  0
 17 16  2  0  0  0  0
 18 20  2  0  0  0  0
 18 17  1  0  0  0  0
 19 18  1  0  0  0  0
 20 22  1  0  0  0  0
 21 20  1  0  0  0  0
 22 23  2  0  0  0  0
 25 26  2  0  0  0  0
 25 27  2  0  0  0  0
 25 24  1  0  0  0  0
 29 28  1  0  0  0  0
 29 32  1  0  0  0  0
 30 29  1  0  0  0  0
 31 29  1  0  0  0  0
M  END
>  <minimizedAffinity>
-4.96346664

$$$$

 OpenBabel03242519433D

 32 33  0  0  0  0  0  0  0  0999 V2000
   39.6270   29.0180   40.2740 O   0  0  0  0  0  0  0  0  0  0  0  0
   38.5680   30.1360   40.4780 P   0  0  2  0  0  0  0  0  0  0  0  0
   39.2270   31.3240   41.5280 O   0  0  0  0  0  0  0  0  0  0  0  0
   41.0070   34.1580   40.0970 C   0  0  0  0  0  0  0  0  0  0  0  0
   39.9500   33.3510   40.5750 C   0  0  0  0  0  0  0  0  0  0  0  0
   40.2850   32.0820   41.0740 C   0  0  0  0  0  0  0  0  0  0  0  0
   41.5780   31.7010   41.0730 N   0  0  0  0  0  0  0  0  0  0  0  0
   42.5670   32.4970   40.6080 C   0  0  0  0  0  0  0  0  0  0  0  0
   42.2970   33.7180   40.1220 N   0  0  0  0  0  0  0  0  0  0  0  0
   40.7410   35.1280   39.7170 H   0  0  0  0  0  0  0  0  0  0  0  0
   38.9410   33.7420   40.5370 H   0  0  0  0  0  0  0  0  0  0  0  0
   43.5770   32.0880   40.6550 H   0  0  0  0  0  0  0  0  0  0  0  0
   37.2270   29.4770   41.1910 O   0  0  0  0  0  0  0  0  0  0  0  0
   36.9970   28.2090   41.6220 C   0  0  0  0  0  0  0  0  0  0  0  0
   36.6760   28.0490   42.9250 O   0  0  0  0  0  0  0  0  0  0  0  0
   36.6530   26.3550   40.0300 C   0  0  0  0  0  0  0  0  0  0  0  0
   36.9150   26.7690   41.2970 C   0  0  0  0  0  0  0  0  0  0  0  0
   37.1780   25.7890   42.2500 C   0  0  0  0  0  0  0  0  0  0  0  0
   37.3870   26.1790   43.2700 H   0  0  0  0  0  0  0  0  0  0  0  0
   37.2220   24.4290   42.1320 C   0  0  0  0  0  0  0  0  0  0  0  0
   37.4410   23.8070   42.9760 H   0  0  0  0  0  0  0  0  0  0  0  0
   36.9600   24.0080   40.8570 C   0  0  0  0  0  3  0  0  0  0  0  0
   36.6970   24.9540   39.9000 C   0  0  0  0  0  3  0  0  0  0  0  0
   35.5720   28.4320   39.0900 H   0  0  0  0  0  0  0  0  0  0  0  0
   36.2520   27.2810   38.6420 S   0  0  0  0  0  0  0  0  0  0  0  0
   37.4190   27.7730   37.8260 O   0  0  0  0  0  0  0  0  0  0  0  0
   35.2600   26.5440   37.7900 O   0  0  0  0  0  0  0  0  0  0  0  0
   38.3120   30.8200   38.9940 O   0  0  0  0  0  0  0  0  0  0  0  0
   37.1360   31.5520   38.9380 C   0  0  0  0  0  0  0  0  0  0  0  0
   36.7830   32.0840   40.1660 F   0  0  0  0  0  0  0  0  0  0  0  0
   37.2040   32.4870   37.9560 F   0  0  0  0  0  0  0  0  0  0  0  0
   36.1330   30.6450   38.6050 F   0  0  0  0  0  0  0  0  0  0  0  0
  2  1  2  6  0  0  0
  2 13  1  0  0  0  0
  2  3  1  0  0  0  0
  4  9  2  0  0  0  0
  4  5  1  0  0  0  0
  5  6  2  0  0  0  0
  6  3  1  0  0  0  0
  7  6  1  0  0  0  0
  8 12  1  0  0  0  0
  8  7  2  0  0  0  0
  9  8  1  0  0  0  0
 10  4  1  0  0  0  0
 11  5  1  0  0  0  0
 13 14  1  0  0  0  0
 14 15  2  0  0  0  0
 16 17  1  0  0  0  0
 17 14  1  0  0  0  0
 17 18  2  0  0  0  0
 18 19  1  0  0  0  0
 20 18  1  0  0  0  0
 20 21  1  0  0  0  0
 22 20  2  0  0  0  0
 23 16  2  0  0  0  0
 23 22  1  0  0  0  0
 25 24  1  0  0  0  0
 25 16  1  0  0  0  0
 26 25  2  0  0  0  0
 27 25  2  0  0  0  0
 28  2  1  0  0  0  0
 29 28  1  0  0  0  0
 29 30  1  0  0  0  0
 31 29  1  0  0  0  0
 32 29  1  0  0  0  0
M  END
>  <minimizedAffinity>
-4.93110847

$$$$
