
 OpenBabel03242519403D

 32 33  0  0  0  0  0  0  0  0999 V2000
   47.8760   32.7950   41.6610 O   0  0  0  0  0  0  0  0  0  0  0  0
   46.9980   34.0090   41.2510 P   0  0  2  0  0  0  0  0  0  0  0  0
   45.4350   33.8060   41.9310 O   0  0  0  0  0  0  0  0  0  0  0  0
   44.4000   35.9200   44.7080 C   0  0  0  0  0  0  0  0  0  0  0  0
   44.6230   35.4670   43.3880 C   0  0  0  0  0  0  0  0  0  0  0  0
   45.2320   34.2110   43.2330 C   0  0  0  0  0  0  0  0  0  0  0  0
   45.5690   33.5100   44.3340 N   0  0  0  0  0  0  0  0  0  0  0  0
   45.3420   33.9720   45.5840 C   0  0  0  0  0  0  0  0  0  0  0  0
   44.7630   35.1650   45.7830 N   0  0  0  0  0  0  0  0  0  0  0  0
   43.9330   36.8820   44.8160 H   0  0  0  0  0  0  0  0  0  0  0  0
   44.3170   36.1000   42.5630 H   0  0  0  0  0  0  0  0  0  0  0  0
   45.6550   33.3210   46.4020 H   0  0  0  0  0  0  0  0  0  0  0  0
   46.8640   34.0380   39.6010 O   0  0  0  0  0  0  0  0  0  0  0  0
   46.2530   33.1670   38.7560 C   0  0  0  0  0  0  0  0  0  0  0  0
   44.9020   33.1440   38.7640 O   0  0  0  0  0  0  0  0  0  0  0  0
   47.6000   31.8390   37.1710 C   0  0  0  0  0  0  0  0  0  0  0  0
   46.3890   32.1280   37.7130 C   0  0  0  0  0  0  0  0  0  0  0  0
   45.3030   31.3600   37.3030 C   0  0  0  0  0  0  0  0  0  0  0  0
   44.3350   31.6340   37.7750 H   0  0  0  0  0  0  0  0  0  0  0  0
   45.2380   30.3210   36.4170 C   0  0  0  0  0  0  0  0  0  0  0  0
   44.3090   29.8280   36.2100 H   0  0  0  0  0  0  0  0  0  0  0  0
   46.4570   30.0250   35.8710 C   0  0  0  0  0  3  0  0  0  0  0  0
   47.5420   30.7690   36.2580 C   0  0  0  0  0  3  0  0  0  0  0  0
   50.0320   32.0150   36.5260 H   0  0  0  0  0  0  0  0  0  0  0  0
   49.1150   32.6070   37.4190 S   0  0  0  0  0  0  0  0  0  0  0  0
   49.1510   34.0850   37.1410 O   0  0  0  0  0  0  0  0  0  0  0  0
   49.6420   32.2930   38.7880 O   0  0  0  0  0  0  0  0  0  0  0  0
   47.7020   35.3480   41.9230 O   0  0  0  0  0  0  0  0  0  0  0  0
   48.9480   35.6250   41.3820 C   0  0  0  0  0  0  0  0  0  0  0  0
   49.3990   36.8920   41.7100 F   0  0  0  0  0  0  0  0  0  0  0  0
   49.8340   34.6480   41.7040 F   0  0  0  0  0  0  0  0  0  0  0  0
   48.7780   35.6180   40.0000 F   0  0  0  0  0  0  0  0  0  0  0  0
  2  1  2  1  0  0  0
  2 28  1  0  0  0  0
  2  3  1  0  0  0  0
  3  6  1  0  0  0  0
  4 10  1  0  0  0  0
  4  9  1  0  0  0  0
  5  4  2  0  0  0  0
  6  5  1  0  0  0  0
  6  7  2  0  0  0  0
  7  8  1  0  0  0  0
  8  9  2  0  0  0  0
  8 12  1  0  0  0  0
 11  5  1  0  0  0  0
 13  2  1  0  0  0  0
 14 15  2  0  0  0  0
 14 13  1  0  0  0  0
 16 25  1  0  0  0  0
 16 17  1  0  0  0  0
 17 14  1  0  0  0  0
 18 17  2  0  0  0  0
 18 19  1  0  0  0  0
 20 18  1  0  0  0  0
 21 20  1  0  0  0  0
 22 23  1  0  0  0  0
 22 20  2  0  0  0  0
 23 16  2  0  0  0  0
 24 25  1  0  0  0  0
 25 27  2  0  0  0  0
 26 25  2  0  0  0  0
 29 31  1  0  0  0  0
 29 30  1  0  0  0  0
 29 28  1  0  0  0  0
 32 29  1  0  0  0  0
M  END
>  <minimizedAffinity>
-5.26718426

>  <minimizedRMSD>
1.80514896

$$$$
