
 OpenBabel03242519413D

 32 33  0  0  0  0  0  0  0  0999 V2000
   48.0890   32.8460   41.6830 O   0  0  0  0  0  0  0  0  0  0  0  0
   47.1380   33.9950   41.2460 P   0  0  2  0  0  0  0  0  0  0  0  0
   45.5850   33.7010   41.9150 O   0  0  0  0  0  0  0  0  0  0  0  0
   44.4040   35.8440   44.6100 C   0  0  0  0  0  0  0  0  0  0  0  0
   44.6750   35.3660   43.3080 C   0  0  0  0  0  0  0  0  0  0  0  0
   45.3360   34.1320   43.2010 C   0  0  0  0  0  0  0  0  0  0  0  0
   45.6750   33.4740   44.3270 N   0  0  0  0  0  0  0  0  0  0  0  0
   45.4010   33.9580   45.5590 C   0  0  0  0  0  0  0  0  0  0  0  0
   44.7710   35.1320   45.7130 N   0  0  0  0  0  0  0  0  0  0  0  0
   43.8980   36.7900   44.6820 H   0  0  0  0  0  0  0  0  0  0  0  0
   44.3640   35.9650   42.4600 H   0  0  0  0  0  0  0  0  0  0  0  0
   45.7200   33.3420   46.4010 H   0  0  0  0  0  0  0  0  0  0  0  0
   47.0190   33.9900   39.5950 O   0  0  0  0  0  0  0  0  0  0  0  0
   46.6180   33.0050   38.7480 C   0  0  0  0  0  0  0  0  0  0  0  0
   45.9390   33.3820   37.6410 O   0  0  0  0  0  0  0  0  0  0  0  0
   47.6580   30.9410   37.8850 C   0  0  0  0  0  0  0  0  0  0  0  0
   46.5800   31.5620   38.4300 C   0  0  0  0  0  0  0  0  0  0  0  0
   45.4770   30.7740   38.7450 C   0  0  0  0  0  0  0  0  0  0  0  0
   44.6230   31.3280   39.1900 H   0  0  0  0  0  0  0  0  0  0  0  0
   45.2790   29.4300   38.5980 C   0  0  0  0  0  0  0  0  0  0  0  0
   44.3570   28.9700   38.8950 H   0  0  0  0  0  0  0  0  0  0  0  0
   46.3630   28.8000   38.0500 C   0  0  0  0  0  3  0  0  0  0  0  0
   47.4620   29.5550   37.7300 C   0  0  0  0  0  3  0  0  0  0  0  0
   49.8770   30.5670   36.7460 H   0  0  0  0  0  0  0  0  0  0  0  0
   49.1440   31.6100   37.3450 S   0  0  0  0  0  0  0  0  0  0  0  0
   49.0320   32.6970   36.3080 O   0  0  0  0  0  0  0  0  0  0  0  0
   49.9720   32.0540   38.5150 O   0  0  0  0  0  0  0  0  0  0  0  0
   47.7480   35.3860   41.9020 O   0  0  0  0  0  0  0  0  0  0  0  0
   48.9980   35.7110   41.4010 C   0  0  0  0  0  0  0  0  0  0  0  0
   49.4020   36.9840   41.7640 F   0  0  0  0  0  0  0  0  0  0  0  0
   49.9050   34.7550   41.7280 F   0  0  0  0  0  0  0  0  0  0  0  0
   48.8650   35.7270   40.0140 F   0  0  0  0  0  0  0  0  0  0  0  0
  2  1  2  1  0  0  0
  2 28  1  0  0  0  0
  2  3  1  0  0  0  0
  3  6  1  0  0  0  0
  4 10  1  0  0  0  0
  4  9  1  0  0  0  0
  5  4  2  0  0  0  0
  6  5  1  0  0  0  0
  6  7  2  0  0  0  0
  7  8  1  0  0  0  0
  8  9  2  0  0  0  0
  8 12  1  0  0  0  0
 11  5  1  0  0  0  0
 13  2  1  0  0  0  0
 14 13  1  0  0  0  0
 15 14  2  0  0  0  0
 16 17  1  0  0  0  0
 17 18  2  0  0  0  0
 17 14  1  0  0  0  0
 18 19  1  0  0  0  0
 20 18  1  0  0  0  0
 20 21  1  0  0  0  0
 22 20  2  0  0  0  0
 23 16  2  0  0  0  0
 23 22  1  0  0  0  0
 24 25  1  0  0  0  0
 25 16  1  0  0  0  0
 25 27  2  0  0  0  0
 26 25  2  0  0  0  0
 29 31  1  0  0  0  0
 29 30  1  0  0  0  0
 29 28  1  0  0  0  0
 32 29  1  0  0  0  0
M  END
>  <minimizedAffinity>
-4.91281509

>  <minimizedRMSD>
0.511597157

$$$$
