REMARK  Name = 
REMARK  8 active torsions:
REMARK  status: ('A' for Active; 'I' for Inactive)
REMARK    1  A    between atoms: P_2  and  O_3
REMARK    2  A    between atoms: P_2  and  O_10
REMARK    3  A    between atoms: P_2  and  O_13
REMARK    4  A    between atoms: O_3  and  C_6
REMARK    5  A    between atoms: O_10  and  C_11
REMARK    6  A    between atoms: C_11  and  C_26
REMARK    7  A    between atoms: O_13  and  C_14
REMARK    8  A    between atoms: S_22  and  C_25
REMARK                            x       y       z     vdW  Elec       q    Type
REMARK                         _______ _______ _______ _____ _____    ______ ____
ROOT
ATOM      1  O   UNL     1      48.089  32.911  41.910  0.00  0.00    +0.000 OA
ATOM      2  P   UNL     1      47.193  34.040  41.330  0.00  0.00    +0.000 P 
ENDROOT
BRANCH   2   3
ATOM      3  O   UNL     1      45.596  33.826  41.923  0.00  0.00    +0.000 OA
BRANCH   3   6
ATOM      4  C   UNL     1      44.363  35.919  44.634  0.00  0.00    +0.000 A 
ATOM      5  C   UNL     1      44.663  35.467  43.329  0.00  0.00    +0.000 A 
ATOM      6  C   UNL     1      45.318  34.231  43.211  0.00  0.00    +0.000 A 
ATOM      7  N   UNL     1      45.625  33.546  44.331  0.00  0.00    +0.000 NA
ATOM      8  C   UNL     1      45.324  34.006  45.566  0.00  0.00    +0.000 A 
ATOM      9  N   UNL     1      44.698  35.181  45.730  0.00  0.00    +0.000 NA
ATOM     10  H   UNL     1      43.861  36.866  44.714  0.00  0.00    +0.000 HD
ATOM     11  H   UNL     1      44.377  36.086  42.487  0.00  0.00    +0.000 HD
ATOM     12  H   UNL     1      45.618  33.370  46.402  0.00  0.00    +0.000 HD
ENDBRANCH   3   6
ENDBRANCH   2   3
BRANCH   2  13
ATOM     13  O   UNL     1      47.173  33.911  39.680  0.00  0.00    +0.000 OA
BRANCH  13  14
ATOM     14  C   UNL     1      46.534  33.019  38.878  0.00  0.00    +0.000 C 
ATOM     15  O   UNL     1      45.945  33.504  37.762  0.00  0.00    +0.000 OA
BRANCH  14  17
ATOM     16  C   UNL     1      46.901  30.823  37.815  0.00  0.00    +0.000 A 
ATOM     17  C   UNL     1      46.148  31.615  38.621  0.00  0.00    +0.000 A 
ATOM     18  C   UNL     1      45.051  31.033  39.249  0.00  0.00    +0.000 A 
ATOM     19  H   UNL     1      44.469  31.721  39.898  0.00  0.00    +0.000 HD
ATOM     20  C   UNL     1      44.580  29.751  39.198  0.00  0.00    +0.000 A 
ATOM     21  H   UNL     1      43.709  29.459  39.750  0.00  0.00    +0.000 HD
ATOM     22  C   UNL     1      45.337  28.950  38.388  0.00  0.00    +0.000 A 
ATOM     23  C   UNL     1      46.423  29.500  37.757  0.00  0.00    +0.000 A 
BRANCH  16  25
ATOM     24  H   UNL     1      48.549  30.118  36.040  0.00  0.00    +0.000 HD
ATOM     25  S   UNL     1      48.276  31.225  36.868  0.00  0.00    +0.000 S 
ATOM     26  O   UNL     1      48.114  32.407  35.950  0.00  0.00    +0.000 OA
ATOM     27  O   UNL     1      49.488  31.372  37.742  0.00  0.00    +0.000 OA
ENDBRANCH  16  25
ENDBRANCH  14  17
ENDBRANCH  13  14
ENDBRANCH   2  13
BRANCH   2  28
ATOM     28  O   UNL     1      47.793  35.466  41.917  0.00  0.00    +0.000 OA
BRANCH  28  29
ATOM     29  C   UNL     1      49.044  35.771  41.404  0.00  0.00    +0.000 C 
ATOM     30  F   UNL     1      49.453  37.053  41.728  0.00  0.00    +0.000 F 
ATOM     31  F   UNL     1      49.948  34.822  41.758  0.00  0.00    +0.000 F 
ATOM     32  F   UNL     1      48.909  35.745  40.018  0.00  0.00    +0.000 F 
ENDBRANCH  28  29
ENDBRANCH   2  28
TORSDOF 8
