
 OpenBabel03242519403D

 32 33  0  0  0  0  0  0  0  0999 V2000
   47.8760   32.7960   41.6620 O   0  0  0  0  0  0  0  0  0  0  0  0
   46.9980   34.0100   41.2500 P   0  0  2  0  0  0  0  0  0  0  0  0
   45.4350   33.8070   41.9310 O   0  0  0  0  0  0  0  0  0  0  0  0
   44.4000   35.9200   44.7090 C   0  0  0  0  0  0  0  0  0  0  0  0
   44.6230   35.4670   43.3880 C   0  0  0  0  0  0  0  0  0  0  0  0
   45.2320   34.2120   43.2330 C   0  0  0  0  0  0  0  0  0  0  0  0
   45.5700   33.5100   44.3330 N   0  0  0  0  0  0  0  0  0  0  0  0
   45.3430   33.9710   45.5840 C   0  0  0  0  0  0  0  0  0  0  0  0
   44.7630   35.1640   45.7830 N   0  0  0  0  0  0  0  0  0  0  0  0
   43.9330   36.8810   44.8170 H   0  0  0  0  0  0  0  0  0  0  0  0
   44.3170   36.1010   42.5640 H   0  0  0  0  0  0  0  0  0  0  0  0
   45.6560   33.3200   46.4010 H   0  0  0  0  0  0  0  0  0  0  0  0
   46.8640   34.0380   39.6010 O   0  0  0  0  0  0  0  0  0  0  0  0
   46.2540   33.1660   38.7560 C   0  0  0  0  0  0  0  0  0  0  0  0
   44.9020   33.1420   38.7650 O   0  0  0  0  0  0  0  0  0  0  0  0
   47.5990   31.8380   37.1720 C   0  0  0  0  0  0  0  0  0  0  0  0
   46.3890   32.1270   37.7130 C   0  0  0  0  0  0  0  0  0  0  0  0
   45.3030   31.3590   37.3030 C   0  0  0  0  0  0  0  0  0  0  0  0
   44.3350   31.6340   37.7750 H   0  0  0  0  0  0  0  0  0  0  0  0
   45.2370   30.3210   36.4170 C   0  0  0  0  0  0  0  0  0  0  0  0
   44.3090   29.8290   36.2090 H   0  0  0  0  0  0  0  0  0  0  0  0
   46.4560   30.0250   35.8710 C   0  0  0  0  0  3  0  0  0  0  0  0
   47.5420   30.7680   36.2570 C   0  0  0  0  0  3  0  0  0  0  0  0
   50.0320   32.0130   36.5260 H   0  0  0  0  0  0  0  0  0  0  0  0
   49.1150   32.6050   37.4190 S   0  0  0  0  0  0  0  0  0  0  0  0
   49.1520   34.0840   37.1400 O   0  0  0  0  0  0  0  0  0  0  0  0
   49.6430   32.2920   38.7890 O   0  0  0  0  0  0  0  0  0  0  0  0
   47.7020   35.3490   41.9220 O   0  0  0  0  0  0  0  0  0  0  0  0
   48.9480   35.6250   41.3820 C   0  0  0  0  0  0  0  0  0  0  0  0
   49.4000   36.8920   41.7100 F   0  0  0  0  0  0  0  0  0  0  0  0
   49.8340   34.6480   41.7030 F   0  0  0  0  0  0  0  0  0  0  0  0
   48.7790   35.6190   39.9990 F   0  0  0  0  0  0  0  0  0  0  0  0
  2  1  2  1  0  0  0
  2 28  1  0  0  0  0
  2  3  1  0  0  0  0
  3  6  1  0  0  0  0
  4 10  1  0  0  0  0
  4  9  1  0  0  0  0
  5  4  2  0  0  0  0
  6  5  1  0  0  0  0
  6  7  2  0  0  0  0
  7  8  1  0  0  0  0
  8  9  2  0  0  0  0
  8 12  1  0  0  0  0
 11  5  1  0  0  0  0
 13  2  1  0  0  0  0
 14 15  2  0  0  0  0
 14 13  1  0  0  0  0
 16 25  1  0  0  0  0
 16 17  1  0  0  0  0
 17 14  1  0  0  0  0
 18 17  2  0  0  0  0
 18 19  1  0  0  0  0
 20 18  1  0  0  0  0
 21 20  1  0  0  0  0
 22 23  1  0  0  0  0
 22 20  2  0  0  0  0
 23 16  2  0  0  0  0
 24 25  1  0  0  0  0
 25 27  2  0  0  0  0
 26 25  2  0  0  0  0
 29 31  1  0  0  0  0
 29 30  1  0  0  0  0
 29 28  1  0  0  0  0
 32 29  1  0  0  0  0
M  END
>  <minimizedAffinity>
-5.26699877

>  <minimizedRMSD>
1.97443259

$$$$
