
 OpenBabel03242521173D

 41 43  0  0  0  0  0  0  0  0999 V2000
   46.5890   32.6630   46.4980 C   0  0  0  0  0  0  0  0  0  0  0  0
   47.5130   33.0940   46.9640 H   0  0  0  0  0  0  0  0  0  0  0  0
   46.9180   31.8030   45.8730 H   0  0  0  0  0  0  0  0  0  0  0  0
   44.6060   35.4500   44.9600 C   0  0  0  0  0  0  0  0  0  0  0  0
   45.1800   35.4760   43.6720 C   0  0  0  0  0  0  0  0  0  0  0  0
   46.1950   34.5540   43.4110 C   0  0  0  0  0  0  0  0  0  0  0  0
   46.5670   33.6910   44.4060 N   0  0  0  0  0  0  0  0  0  0  0  0
   45.9940   33.7030   45.6100 C   0  0  0  0  0  0  0  0  0  0  0  0
   45.0000   34.5840   45.9140 N   0  0  0  0  0  0  0  0  0  0  0  0
   43.8230   36.1490   45.1880 H   0  0  0  0  0  0  0  0  0  0  0  0
   44.8420   36.1790   42.9350 H   0  0  0  0  0  0  0  0  0  0  0  0
   46.7870   34.5650   42.1170 N   0  0  0  0  0  0  0  0  0  0  0  0
   47.9760   35.2010   41.9720 C   0  0  0  0  0  0  0  0  0  0  0  0
   48.5650   35.2170   40.7070 C   0  0  0  0  0  0  0  0  0  0  0  0
   47.9150   34.5940   39.6920 C   0  0  0  0  0  0  0  0  0  0  0  0
   48.4570   34.6090   38.5280 O   0  0  0  0  0  0  0  0  0  0  0  0
   46.7300   33.9540   39.8160 N   0  0  0  0  0  0  0  0  0  0  0  0
   46.2120   33.9750   41.0670 C   0  0  0  0  0  0  0  0  0  0  0  0
   45.1190   33.4160   41.2990 O   0  0  0  0  0  0  0  0  0  0  0  0
   48.4800   35.6890   42.7770 H   0  0  0  0  0  0  0  0  0  0  0  0
   49.5190   35.7130   40.5220 H   0  0  0  0  0  0  0  0  0  0  0  0
   46.2250   33.4730   39.0370 H   0  0  0  0  0  0  0  0  0  0  0  0
   45.6060   32.2270   47.5650 C   0  0  0  0  0  0  0  0  0  0  0  0
   44.8870   33.0760   47.7550 H   0  0  0  0  0  0  0  0  0  0  0  0
   46.1360   32.0850   48.5290 H   0  0  0  0  0  0  0  0  0  0  0  0
   45.4560   29.8100   47.4920 C   0  0  0  0  0  0  0  0  0  0  0  0
   46.5850   29.7820   48.0570 O   0  0  0  0  0  0  0  0  0  0  0  0
   44.9070   31.0460   47.1430 N   0  0  0  0  0  0  0  0  0  0  0  0
   44.0200   31.0740   46.5950 H   0  0  0  0  0  0  0  0  0  0  0  0
   44.2880   28.0160   46.0950 C   0  0  0  0  0  0  0  0  0  0  0  0
   44.8280   28.5160   47.2600 C   0  0  0  0  0  0  0  0  0  0  0  0
   44.8150   27.7390   48.4240 C   0  0  0  0  0  0  0  0  0  0  0  0
   45.2160   28.0420   49.3960 H   0  0  0  0  0  0  0  0  0  0  0  0
   44.2580   26.4670   48.4100 C   0  0  0  0  0  0  0  0  0  0  0  0
   44.2180   25.8200   49.2760 H   0  0  0  0  0  0  0  0  0  0  0  0
   43.7220   25.9830   47.2350 C   0  0  0  0  0  3  0  0  0  0  0  0
   43.7320   26.7530   46.0680 C   0  0  0  0  0  3  0  0  0  0  0  0
   43.5800   30.1910   44.8550 H   0  0  0  0  0  0  0  0  0  0  0  0
   44.3780   29.0990   44.7230 S   0  0  0  0  0  0  0  0  0  0  0  0
   43.8130   28.3140   43.5500 O   0  0  0  0  0  0  0  0  0  0  0  0
   45.7910   29.4280   44.3640 O   0  0  0  0  0  0  0  0  0  0  0  0
  1  2  1  0  0  0  0
  1 23  1  0  0  0  0
  3  1  1  0  0  0  0
  4 10  1  0  0  0  0
  4  9  1  0  0  0  0
  5  4  2  0  0  0  0
  6  5  1  0  0  0  0
  6  7  2  0  0  0  0
  7  8  1  0  0  0  0
  8  9  2  0  0  0  0
  8  1  1  0  0  0  0
 11  5  1  0  0  0  0
 12  6  1  0  0  0  0
 13 12  1  0  0  0  0
 13 20  1  0  0  0  0
 14 13  2  0  0  0  0
 15 17  1  0  0  0  0
 15 14  1  0  0  0  0
 16 15  2  0  0  0  0
 17 18  1  0  0  0  0
 18 19  2  0  0  0  0
 18 12  1  0  0  0  0
 21 14  1  0  0  0  0
 22 17  1  0  0  0  0
 23 24  1  0  0  0  0
 23 25  1  0  0  0  0
 26 27  2  0  0  0  0
 28 26  1  0  0  0  0
 28 23  1  0  0  0  0
 29 28  1  0  0  0  0
 30 31  1  0  0  0  0
 31 26  1  0  0  0  0
 31 32  2  0  0  0  0
 32 33  1  0  0  0  0
 34 32  1  0  0  0  0
 34 35  1  0  0  0  0
 36 34  2  0  0  0  0
 37 30  2  0  0  0  0
 37 36  1  0  0  0  0
 39 38  1  0  0  0  0
 39 30  1  0  0  0  0
 40 39  2  0  0  0  0
 41 39  2  0  0  0  0
M  END
>  <minimizedAffinity>
-6.29420805

>  <minimizedRMSD>
1.66067278

$$$$
