
 OpenBabel03242510523D

 25 26  0  0  0  0  0  0  0  0999 V2000
   41.2090   34.1570   39.7770 C   0  0  0  0  0  0  0  0  0  0  0  0
   41.3970   33.7710   38.4430 C   0  0  0  0  0  0  0  0  0  0  0  0
   40.9010   32.5140   38.0490 C   0  0  0  0  0  0  0  0  0  0  0  0
   40.2630   31.7350   38.9800 N   0  0  0  0  0  0  0  0  0  0  0  0
   40.1070   32.1530   40.2570 C   0  0  0  0  0  0  0  0  0  0  0  0
   40.5850   33.3690   40.6470 N   0  0  0  0  0  0  0  0  0  0  0  0
   39.3060   29.9350   40.7940 C   0  0  0  0  0  0  0  0  0  0  0  0
   39.7250   29.4260   39.7260 O   0  0  0  0  0  0  0  0  0  0  0  0
   39.4360   31.2930   41.1720 N   0  0  0  0  0  0  0  0  0  0  0  0
   41.5500   35.1020   40.1930 H   0  0  0  0  0  0  0  0  0  0  0  0
   41.9130   34.4580   37.7910 H   0  0  0  0  0  0  0  0  0  0  0  0
   41.0470   32.2200   37.0190 H   0  0  0  0  0  0  0  0  0  0  0  0
   39.1000   31.7400   42.0480 H   0  0  0  0  0  0  0  0  0  0  0  0
   37.2430   28.8440   41.6920 C   0  0  0  0  0  0  0  0  0  0  0  0
   38.6190   29.0180   41.7270 C   0  0  0  0  0  0  0  0  0  0  0  0
   39.3140   28.3040   42.6610 C   0  0  0  0  0  0  0  0  0  0  0  0
   40.3890   28.3590   42.7760 H   0  0  0  0  0  0  0  0  0  0  0  0
   38.7630   27.4240   43.5730 C   0  0  0  0  0  0  0  0  0  0  0  0
   39.3180   26.8600   44.3090 H   0  0  0  0  0  0  0  0  0  0  0  0
   37.3890   27.2630   43.5250 C   0  0  0  0  0  3  0  0  0  0  0  0
   36.6500   27.9630   42.5980 C   0  0  0  0  0  3  0  0  0  0  0  0
   36.9020   29.8560   39.3100 H   0  0  0  0  0  0  0  0  0  0  0  0
   36.2820   29.7290   40.5110 S   0  0  0  0  0  0  0  0  0  0  0  0
   36.1620   31.1460   41.0660 O   0  0  0  0  0  0  0  0  0  0  0  0
   34.8790   29.1970   40.4150 O   0  0  0  0  0  0  0  0  0  0  0  0
  1 10  1  0  0  0  0
  1  6  1  0  0  0  0
  2  1  2  0  0  0  0
  3  2  1  0  0  0  0
  3  4  2  0  0  0  0
  4  5  1  0  0  0  0
  5  6  2  0  0  0  0
  5  9  1  0  0  0  0
  7  9  1  0  0  0  0
  7 15  1  0  0  0  0
  8  7  2  0  0  0  0
  9 13  1  0  0  0  0
 11  2  1  0  0  0  0
 12  3  1  0  0  0  0
 14 15  2  0  0  0  0
 14 21  1  0  0  0  0
 15 16  1  0  0  0  0
 16 17  1  0  0  0  0
 16 18  2  0  0  0  0
 18 19  1  0  0  0  0
 20 18  1  0  0  0  0
 21 20  2  0  0  0  0
 22 23  1  0  0  0  0
 23 24  2  0  0  0  0
 23 14  1  0  0  0  0
 25 23  2  0  0  0  0
M  END
>  <minimizedAffinity>
-4.88298368

$$$$

 OpenBabel03242510523D

 25 26  0  0  0  0  0  0  0  0999 V2000
   41.1490   32.2180   37.3050 C   0  0  0  0  0  0  0  0  0  0  0  0
   41.4510   33.4040   37.9880 C   0  0  0  0  0  0  0  0  0  0  0  0
   41.1010   33.4830   39.3500 C   0  0  0  0  0  0  0  0  0  0  0  0
   40.4880   32.4050   39.9370 N   0  0  0  0  0  0  0  0  0  0  0  0
   40.2180   31.2820   39.2340 C   0  0  0  0  0  0  0  0  0  0  0  0
   40.5530   31.1980   37.9140 N   0  0  0  0  0  0  0  0  0  0  0  0
   38.9470   30.4990   41.1360 C   0  0  0  0  0  0  0  0  0  0  0  0
   38.9050   31.6270   41.6870 O   0  0  0  0  0  0  0  0  0  0  0  0
   39.5790   30.2020   39.9050 N   0  0  0  0  0  0  0  0  0  0  0  0
   41.3710   32.0460   36.2560 H   0  0  0  0  0  0  0  0  0  0  0  0
   41.9340   34.1930   37.4340 H   0  0  0  0  0  0  0  0  0  0  0  0
   41.3360   34.3990   39.8740 H   0  0  0  0  0  0  0  0  0  0  0  0
   39.6280   29.2800   39.4280 H   0  0  0  0  0  0  0  0  0  0  0  0
   36.9900   28.9870   41.5100 C   0  0  0  0  0  0  0  0  0  0  0  0
   38.2700   29.3990   41.8530 C   0  0  0  0  0  0  0  0  0  0  0  0
   38.8810   28.7420   42.8830 C   0  0  0  0  0  0  0  0  0  0  0  0
   39.8790   28.9760   43.2330 H   0  0  0  0  0  0  0  0  0  0  0  0
   38.3320   27.7030   43.6110 C   0  0  0  0  0  0  0  0  0  0  0  0
   38.8210   27.1860   44.4240 H   0  0  0  0  0  0  0  0  0  0  0  0
   37.0540   27.3070   43.2570 C   0  0  0  0  0  3  0  0  0  0  0  0
   36.4030   27.9410   42.2240 C   0  0  0  0  0  3  0  0  0  0  0  0
   35.9980   31.1230   40.3840 H   0  0  0  0  0  0  0  0  0  0  0  0
   36.1420   29.7870   40.1900 S   0  0  0  0  0  0  0  0  0  0  0  0
   34.7280   29.2130   40.2090 O   0  0  0  0  0  0  0  0  0  0  0  0
   36.7220   29.4290   38.8500 O   0  0  0  0  0  0  0  0  0  0  0  0
  1  6  2  0  0  0  0
  1  2  1  0  0  0  0
  2  3  2  0  0  0  0
  3 12  1  0  0  0  0
  3  4  1  0  0  0  0
  5  9  1  0  0  0  0
  5  4  2  0  0  0  0
  6  5  1  0  0  0  0
  7  8  2  0  0  0  0
  7 15  1  0  0  0  0
  9  7  1  0  0  0  0
 10  1  1  0  0  0  0
 11  2  1  0  0  0  0
 13  9  1  0  0  0  0
 14 15  2  0  0  0  0
 14 21  1  0  0  0  0
 15 16  1  0  0  0  0
 16 17  1  0  0  0  0
 16 18  2  0  0  0  0
 18 19  1  0  0  0  0
 20 18  1  0  0  0  0
 21 20  2  0  0  0  0
 23 24  2  0  0  0  0
 23 22  1  0  0  0  0
 23 14  1  0  0  0  0
 25 23  2  0  0  0  0
M  END
>  <minimizedAffinity>
-4.79430008

$$$$

 OpenBabel03242510523D

 25 26  0  0  0  0  0  0  0  0999 V2000
   37.7030   32.9680   40.2550 C   0  0  0  0  0  0  0  0  0  0  0  0
   38.9290   33.0770   39.5830 C   0  0  0  0  0  0  0  0  0  0  0  0
   39.5920   31.8850   39.2330 C   0  0  0  0  0  0  0  0  0  0  0  0
   39.0130   30.6870   39.5620 N   0  0  0  0  0  0  0  0  0  0  0  0
   37.8280   30.6340   40.2120 C   0  0  0  0  0  0  0  0  0  0  0  0
   37.1790   31.7830   40.5550 N   0  0  0  0  0  0  0  0  0  0  0  0
   38.1720   28.2540   40.4680 C   0  0  0  0  0  0  0  0  0  0  0  0
   39.3890   28.3050   40.1650 O   0  0  0  0  0  0  0  0  0  0  0  0
   37.2850   29.3560   40.5240 N   0  0  0  0  0  0  0  0  0  0  0  0
   37.1050   33.8170   40.5740 H   0  0  0  0  0  0  0  0  0  0  0  0
   39.2970   34.0690   39.3720 H   0  0  0  0  0  0  0  0  0  0  0  0
   40.5370   31.9740   38.7140 H   0  0  0  0  0  0  0  0  0  0  0  0
   36.2750   29.3420   40.7720 H   0  0  0  0  0  0  0  0  0  0  0  0
   37.6050   26.4430   42.0970 C   0  0  0  0  0  0  0  0  0  0  0  0
   37.6370   26.9150   40.7930 C   0  0  0  0  0  0  0  0  0  0  0  0
   37.1510   26.0910   39.8190 C   0  0  0  0  0  0  0  0  0  0  0  0
   37.1230   26.3560   38.7700 H   0  0  0  0  0  0  0  0  0  0  0  0
   36.6310   24.8260   40.0230 C   0  0  0  0  0  0  0  0  0  0  0  0
   36.2460   24.1780   39.2480 H   0  0  0  0  0  0  0  0  0  0  0  0
   36.6090   24.3700   41.3300 C   0  0  0  0  0  3  0  0  0  0  0  0
   37.0880   25.1700   42.3420 C   0  0  0  0  0  3  0  0  0  0  0  0
   37.9380   26.9500   44.6360 H   0  0  0  0  0  0  0  0  0  0  0  0
   38.2130   27.4530   43.4060 S   0  0  0  0  0  0  0  0  0  0  0  0
   37.4270   28.7580   43.3080 O   0  0  0  0  0  0  0  0  0  0  0  0
   39.6580   27.8190   43.2100 O   0  0  0  0  0  0  0  0  0  0  0  0
  1  6  1  0  0  0  0
  1 10  1  0  0  0  0
  2  1  2  0  0  0  0
  3  4  2  0  0  0  0
  3  2  1  0  0  0  0
  4  5  1  0  0  0  0
  5  9  1  0  0  0  0
  5  6  2  0  0  0  0
  7  9  1  0  0  0  0
  7 15  1  0  0  0  0
  8  7  2  0  0  0  0
  9 13  1  0  0  0  0
 11  2  1  0  0  0  0
 12  3  1  0  0  0  0
 14 21  1  0  0  0  0
 14 23  1  0  0  0  0
 15 14  2  0  0  0  0
 16 18  2  0  0  0  0
 16 15  1  0  0  0  0
 17 16  1  0  0  0  0
 18 20  1  0  0  0  0
 19 18  1  0  0  0  0
 20 21  2  0  0  0  0
 23 22  1  0  0  0  0
 24 23  2  0  0  0  0
 25 23  2  0  0  0  0
M  END
>  <minimizedAffinity>
-4.71840668

$$$$

 OpenBabel03242510523D

 25 26  0  0  0  0  0  0  0  0999 V2000
   37.0620   26.8800   41.6780 C   0  0  0  0  0  0  0  0  0  0  0  0
   36.8080   27.0210   43.0490 C   0  0  0  0  0  0  0  0  0  0  0  0
   37.2530   28.1990   43.6800 C   0  0  0  0  0  0  0  0  0  0  0  0
   37.9050   29.1430   42.9290 N   0  0  0  0  0  0  0  0  0  0  0  0
   38.1260   28.9600   41.6070 C   0  0  0  0  0  0  0  0  0  0  0  0
   37.6990   27.8220   40.9890 N   0  0  0  0  0  0  0  0  0  0  0  0
   39.5280   30.9300   41.6560 C   0  0  0  0  0  0  0  0  0  0  0  0
   39.6080   30.9530   42.9080 O   0  0  0  0  0  0  0  0  0  0  0  0
   38.8110   29.9800   40.8890 N   0  0  0  0  0  0  0  0  0  0  0  0
   36.7670   26.0160   41.0890 H   0  0  0  0  0  0  0  0  0  0  0  0
   36.2870   26.2190   43.5470 H   0  0  0  0  0  0  0  0  0  0  0  0
   37.0550   28.3040   44.7380 H   0  0  0  0  0  0  0  0  0  0  0  0
   38.7290   29.9370   39.8540 H   0  0  0  0  0  0  0  0  0  0  0  0
   39.5860   32.9300   40.1560 C   0  0  0  0  0  0  0  0  0  0  0  0
   40.2540   31.9970   40.9370 C   0  0  0  0  0  0  0  0  0  0  0  0
   41.6130   32.1080   41.0150 C   0  0  0  0  0  0  0  0  0  0  0  0
   42.2340   31.4390   41.5960 H   0  0  0  0  0  0  0  0  0  0  0  0
   42.3780   33.0700   40.3820 C   0  0  0  0  0  0  0  0  0  0  0  0
   43.4530   33.1530   40.4490 H   0  0  0  0  0  0  0  0  0  0  0  0
   41.6960   33.9910   39.6050 C   0  0  0  0  0  3  0  0  0  0  0  0
   40.3260   33.9160   39.5010 C   0  0  0  0  0  3  0  0  0  0  0  0
   37.2320   32.3290   41.1120 H   0  0  0  0  0  0  0  0  0  0  0  0
   37.8320   32.8510   40.0120 S   0  0  0  0  0  0  0  0  0  0  0  0
   37.5620   31.8580   38.8850 O   0  0  0  0  0  0  0  0  0  0  0  0
   37.2450   34.1610   39.5660 O   0  0  0  0  0  0  0  0  0  0  0  0
  1  2  1  0  0  0  0
  2 11  1  0  0  0  0
  2  3  2  0  0  0  0
  3 12  1  0  0  0  0
  4  3  1  0  0  0  0
  5  4  2  0  0  0  0
  6  5  1  0  0  0  0
  6  1  2  0  0  0  0
  7  8  2  0  0  0  0
  9  5  1  0  0  0  0
  9  7  1  0  0  0  0
 10  1  1  0  0  0  0
 13  9  1  0  0  0  0
 14 15  1  0  0  0  0
 15 16  2  0  0  0  0
 15  7  1  0  0  0  0
 16 17  1  0  0  0  0
 18 19  1  0  0  0  0
 18 16  1  0  0  0  0
 20 18  2  0  0  0  0
 21 20  1  0  0  0  0
 21 14  2  0  0  0  0
 23 14  1  0  0  0  0
 23 22  1  0  0  0  0
 24 23  2  0  0  0  0
 25 23  2  0  0  0  0
M  END
>  <minimizedAffinity>
-4.71377659

$$$$

 OpenBabel03242510523D

 25 26  0  0  0  0  0  0  0  0999 V2000
   37.6810   31.7760   38.0740 C   0  0  0  0  0  0  0  0  0  0  0  0
   37.3290   32.7080   39.0590 C   0  0  0  0  0  0  0  0  0  0  0  0
   37.2230   32.2500   40.3860 C   0  0  0  0  0  0  0  0  0  0  0  0
   37.4680   30.9260   40.6490 N   0  0  0  0  0  0  0  0  0  0  0  0
   37.8060   30.0650   39.6620 C   0  0  0  0  0  0  0  0  0  0  0  0
   37.9100   30.5010   38.3740 N   0  0  0  0  0  0  0  0  0  0  0  0
   37.5660   28.2690   41.2630 C   0  0  0  0  0  0  0  0  0  0  0  0
   36.9550   28.9760   42.1010 O   0  0  0  0  0  0  0  0  0  0  0  0
   38.0450   28.7050   40.0050 N   0  0  0  0  0  0  0  0  0  0  0  0
   37.7920   32.0150   37.0200 H   0  0  0  0  0  0  0  0  0  0  0  0
   37.1560   33.7260   38.7470 H   0  0  0  0  0  0  0  0  0  0  0  0
   36.9510   32.9720   41.1440 H   0  0  0  0  0  0  0  0  0  0  0  0
   38.5530   28.1420   39.2930 H   0  0  0  0  0  0  0  0  0  0  0  0
   38.9380   26.4690   42.3260 C   0  0  0  0  0  0  0  0  0  0  0  0
   37.7950   26.8600   41.6440 C   0  0  0  0  0  0  0  0  0  0  0  0
   36.8880   25.8860   41.3380 C   0  0  0  0  0  0  0  0  0  0  0  0
   35.9620   26.0770   40.8110 H   0  0  0  0  0  0  0  0  0  0  0  0
   37.0130   24.5450   41.6510 C   0  0  0  0  0  0  0  0  0  0  0  0
   36.2910   23.7790   41.4070 H   0  0  0  0  0  0  0  0  0  0  0  0
   38.1600   24.1730   42.3310 C   0  0  0  0  0  3  0  0  0  0  0  0
   39.0990   25.1230   42.6590 C   0  0  0  0  0  3  0  0  0  0  0  0
   39.6090   28.8390   43.1920 H   0  0  0  0  0  0  0  0  0  0  0  0
   40.1510   27.6720   42.7570 S   0  0  0  0  0  0  0  0  0  0  0  0
   40.8680   28.0110   41.4540 O   0  0  0  0  0  0  0  0  0  0  0  0
   41.1980   27.1110   43.6780 O   0  0  0  0  0  0  0  0  0  0  0  0
  1  6  2  0  0  0  0
  1  2  1  0  0  0  0
  2  3  2  0  0  0  0
  3  4  1  0  0  0  0
  3 12  1  0  0  0  0
  5  9  1  0  0  0  0
  5  4  2  0  0  0  0
  6  5  1  0  0  0  0
  7 15  1  0  0  0  0
  7  8  2  0  0  0  0
  9  7  1  0  0  0  0
 10  1  1  0  0  0  0
 11  2  1  0  0  0  0
 13  9  1  0  0  0  0
 14 21  1  0  0  0  0
 14 23  1  0  0  0  0
 15 14  2  0  0  0  0
 16 15  1  0  0  0  0
 16 18  2  0  0  0  0
 17 16  1  0  0  0  0
 18 20  1  0  0  0  0
 19 18  1  0  0  0  0
 20 21  2  0  0  0  0
 23 22  1  0  0  0  0
 23 25  2  0  0  0  0
 24 23  2  0  0  0  0
M  END
>  <minimizedAffinity>
-4.60721731

$$$$

 OpenBabel03242510523D

 25 26  0  0  0  0  0  0  0  0999 V2000
   38.2020   31.8580   38.1780 C   0  0  0  0  0  0  0  0  0  0  0  0
   37.3940   32.6840   38.9730 C   0  0  0  0  0  0  0  0  0  0  0  0
   37.0970   32.2490   40.2780 C   0  0  0  0  0  0  0  0  0  0  0  0
   37.6070   31.0500   40.7060 N   0  0  0  0  0  0  0  0  0  0  0  0
   38.3820   30.2890   39.9010 C   0  0  0  0  0  0  0  0  0  0  0  0
   38.6750   30.7030   38.6350 N   0  0  0  0  0  0  0  0  0  0  0  0
   38.2410   28.5370   41.5620 C   0  0  0  0  0  0  0  0  0  0  0  0
   37.2850   29.0720   42.1760 O   0  0  0  0  0  0  0  0  0  0  0  0
   38.8770   29.0550   40.4090 N   0  0  0  0  0  0  0  0  0  0  0  0
   38.4950   32.0910   37.1580 H   0  0  0  0  0  0  0  0  0  0  0  0
   37.0440   33.6080   38.5400 H   0  0  0  0  0  0  0  0  0  0  0  0
   36.4740   32.8890   40.8880 H   0  0  0  0  0  0  0  0  0  0  0  0
   39.6680   28.6330   39.8820 H   0  0  0  0  0  0  0  0  0  0  0  0
   38.2630   26.0380   41.6340 C   0  0  0  0  0  0  0  0  0  0  0  0
   38.7300   27.2550   42.1090 C   0  0  0  0  0  0  0  0  0  0  0  0
   39.6630   27.2190   43.1060 C   0  0  0  0  0  0  0  0  0  0  0  0
   40.0980   28.1050   43.5490 H   0  0  0  0  0  0  0  0  0  0  0  0
   40.1810   26.0730   43.6800 C   0  0  0  0  0  0  0  0  0  0  0  0
   40.9200   26.0500   44.4670 H   0  0  0  0  0  0  0  0  0  0  0  0
   39.7030   24.8670   43.1940 C   0  0  0  0  0  3  0  0  0  0  0  0
   38.7630   24.8590   42.1890 C   0  0  0  0  0  3  0  0  0  0  0  0
   35.9490   26.7270   40.6420 H   0  0  0  0  0  0  0  0  0  0  0  0
   37.0610   26.0070   40.3460 S   0  0  0  0  0  0  0  0  0  0  0  0
   36.6010   24.5560   40.2550 O   0  0  0  0  0  0  0  0  0  0  0  0
   37.6610   26.3420   39.0090 O   0  0  0  0  0  0  0  0  0  0  0  0
  1  6  2  0  0  0  0
  1  2  1  0  0  0  0
  2  3  2  0  0  0  0
  3  4  1  0  0  0  0
  3 12  1  0  0  0  0
  5  9  1  0  0  0  0
  5  4  2  0  0  0  0
  6  5  1  0  0  0  0
  7 15  1  0  0  0  0
  7  8  2  0  0  0  0
  9  7  1  0  0  0  0
 10  1  1  0  0  0  0
 11  2  1  0  0  0  0
 13  9  1  0  0  0  0
 14 15  2  0  0  0  0
 14 21  1  0  0  0  0
 15 16  1  0  0  0  0
 16 17  1  0  0  0  0
 16 18  2  0  0  0  0
 18 19  1  0  0  0  0
 20 18  1  0  0  0  0
 21 20  2  0  0  0  0
 23 22  1  0  0  0  0
 23 14  1  0  0  0  0
 24 23  2  0  0  0  0
 25 23  2  0  0  0  0
M  END
>  <minimizedAffinity>
-4.57907724

$$$$

 OpenBabel03242510523D

 25 26  0  0  0  0  0  0  0  0999 V2000
   34.6180   27.1040   35.8160 C   0  0  0  0  0  0  0  0  0  0  0  0
   33.6360   28.0970   35.6960 C   0  0  0  0  0  0  0  0  0  0  0  0
   33.5200   29.0330   36.7410 C   0  0  0  0  0  0  0  0  0  0  0  0
   34.3660   28.9300   37.8150 N   0  0  0  0  0  0  0  0  0  0  0  0
   35.2980   27.9520   37.8850 C   0  0  0  0  0  0  0  0  0  0  0  0
   35.4160   27.0410   36.8770 N   0  0  0  0  0  0  0  0  0  0  0  0
   35.7200   28.6340   40.1660 C   0  0  0  0  0  0  0  0  0  0  0  0
   34.6730   29.3220   40.2510 O   0  0  0  0  0  0  0  0  0  0  0  0
   36.1420   27.9030   39.0300 N   0  0  0  0  0  0  0  0  0  0  0  0
   34.7970   26.3300   35.0740 H   0  0  0  0  0  0  0  0  0  0  0  0
   33.0210   28.0890   34.8090 H   0  0  0  0  0  0  0  0  0  0  0  0
   32.7620   29.7980   36.6440 H   0  0  0  0  0  0  0  0  0  0  0  0
   37.0020   27.3270   38.9330 H   0  0  0  0  0  0  0  0  0  0  0  0
   37.5670   29.5410   41.5870 C   0  0  0  0  0  0  0  0  0  0  0  0
   36.5730   28.5970   41.3720 C   0  0  0  0  0  0  0  0  0  0  0  0
   36.4150   27.6300   42.3230 C   0  0  0  0  0  0  0  0  0  0  0  0
   35.6710   26.8460   42.2610 H   0  0  0  0  0  0  0  0  0  0  0  0
   37.1620   27.5120   43.4810 C   0  0  0  0  0  0  0  0  0  0  0  0
   37.0310   26.7460   44.2310 H   0  0  0  0  0  0  0  0  0  0  0  0
   38.1500   28.4620   43.6790 C   0  0  0  0  0  3  0  0  0  0  0  0
   38.3410   29.4540   42.7450 C   0  0  0  0  0  3  0  0  0  0  0  0
   37.8640   30.3610   39.1270 H   0  0  0  0  0  0  0  0  0  0  0  0
   37.8250   30.8200   40.4040 S   0  0  0  0  0  0  0  0  0  0  0  0
   39.2230   31.3610   40.6900 O   0  0  0  0  0  0  0  0  0  0  0  0
   36.8810   31.9720   40.6060 O   0  0  0  0  0  0  0  0  0  0  0  0
  1  6  1  0  0  0  0
  2  1  2  0  0  0  0
  2  3  1  0  0  0  0
  3  4  2  0  0  0  0
  4  5  1  0  0  0  0
  5  9  1  0  0  0  0
  6  5  2  0  0  0  0
  7  8  2  0  0  0  0
  7 15  1  0  0  0  0
  9  7  1  0  0  0  0
 10  1  1  0  0  0  0
 11  2  1  0  0  0  0
 12  3  1  0  0  0  0
 13  9  1  0  0  0  0
 14 21  1  0  0  0  0
 15 14  2  0  0  0  0
 15 16  1  0  0  0  0
 16 18  2  0  0  0  0
 17 16  1  0  0  0  0
 18 20  1  0  0  0  0
 18 19  1  0  0  0  0
 21 20  2  0  0  0  0
 22 23  1  0  0  0  0
 23 25  2  0  0  0  0
 23 24  2  0  0  0  0
 23 14  1  0  0  0  0
M  END
>  <minimizedAffinity>
-4.52928257

$$$$

 OpenBabel03242510523D

 25 26  0  0  0  0  0  0  0  0999 V2000
   38.3920   25.0960   40.8770 C   0  0  0  0  0  0  0  0  0  0  0  0
   37.4900   24.8710   41.9260 C   0  0  0  0  0  0  0  0  0  0  0  0
   36.8520   25.9910   42.4930 C   0  0  0  0  0  0  0  0  0  0  0  0
   37.1400   27.2360   41.9950 N   0  0  0  0  0  0  0  0  0  0  0  0
   38.0190   27.4010   40.9810 C   0  0  0  0  0  0  0  0  0  0  0  0
   38.6420   26.3210   40.4270 N   0  0  0  0  0  0  0  0  0  0  0  0
   37.8830   29.7850   41.3650 C   0  0  0  0  0  0  0  0  0  0  0  0
   37.3320   29.6650   42.4860 O   0  0  0  0  0  0  0  0  0  0  0  0
   38.2730   28.7220   40.5150 N   0  0  0  0  0  0  0  0  0  0  0  0
   38.9410   24.3100   40.3650 H   0  0  0  0  0  0  0  0  0  0  0  0
   37.3340   23.8510   42.2420 H   0  0  0  0  0  0  0  0  0  0  0  0
   36.1570   25.8130   43.3010 H   0  0  0  0  0  0  0  0  0  0  0  0
   38.7310   28.7930   39.5840 H   0  0  0  0  0  0  0  0  0  0  0  0
   39.3540   31.7960   41.1440 C   0  0  0  0  0  0  0  0  0  0  0  0
   38.1390   31.1670   40.9100 C   0  0  0  0  0  0  0  0  0  0  0  0
   37.1880   31.8800   40.2370 C   0  0  0  0  0  0  0  0  0  0  0  0
   36.2070   31.4890   39.9970 H   0  0  0  0  0  0  0  0  0  0  0  0
   37.3330   33.1740   39.7720 C   0  0  0  0  0  0  0  0  0  0  0  0
   36.5770   33.7320   39.2400 H   0  0  0  0  0  0  0  0  0  0  0  0
   38.5500   33.7860   40.0170 C   0  0  0  0  0  3  0  0  0  0  0  0
   39.5370   33.1030   40.6900 C   0  0  0  0  0  3  0  0  0  0  0  0
   40.2770   30.5890   43.2670 H   0  0  0  0  0  0  0  0  0  0  0  0
   40.6290   30.9350   42.0030 S   0  0  0  0  0  0  0  0  0  0  0  0
   41.7670   31.9410   42.1520 O   0  0  0  0  0  0  0  0  0  0  0  0
   41.1810   29.7950   41.1930 O   0  0  0  0  0  0  0  0  0  0  0  0
  1  2  1  0  0  0  0
  2 11  1  0  0  0  0
  2  3  2  0  0  0  0
  3 12  1  0  0  0  0
  4  3  1  0  0  0  0
  5  4  2  0  0  0  0
  6  1  2  0  0  0  0
  6  5  1  0  0  0  0
  7  8  2  0  0  0  0
  9  5  1  0  0  0  0
  9  7  1  0  0  0  0
 10  1  1  0  0  0  0
 13  9  1  0  0  0  0
 14 23  1  0  0  0  0
 15 14  1  0  0  0  0
 15  7  1  0  0  0  0
 16 15  2  0  0  0  0
 17 16  1  0  0  0  0
 18 20  2  0  0  0  0
 18 16  1  0  0  0  0
 19 18  1  0  0  0  0
 20 21  1  0  0  0  0
 21 14  2  0  0  0  0
 23 24  2  0  0  0  0
 23 22  1  0  0  0  0
 25 23  2  0  0  0  0
M  END
>  <minimizedAffinity>
-4.44690323

$$$$

 OpenBabel03242510523D

 25 26  0  0  0  0  0  0  0  0999 V2000
   39.2850   24.5570   41.6540 C   0  0  0  0  0  0  0  0  0  0  0  0
   38.0460   24.0600   42.0840 C   0  0  0  0  0  0  0  0  0  0  0  0
   36.9270   24.9060   41.9720 C   0  0  0  0  0  0  0  0  0  0  0  0
   37.0990   26.1640   41.4530 N   0  0  0  0  0  0  0  0  0  0  0  0
   38.3160   26.5980   41.0520 C   0  0  0  0  0  0  0  0  0  0  0  0
   39.4060   25.7840   41.1570 N   0  0  0  0  0  0  0  0  0  0  0  0
   37.3500   28.7990   40.7890 C   0  0  0  0  0  0  0  0  0  0  0  0
   36.3140   28.5220   41.4410 O   0  0  0  0  0  0  0  0  0  0  0  0
   38.4230   27.9150   40.5240 N   0  0  0  0  0  0  0  0  0  0  0  0
   40.2140   23.9960   41.6930 H   0  0  0  0  0  0  0  0  0  0  0  0
   38.0190   23.0560   42.4770 H   0  0  0  0  0  0  0  0  0  0  0  0
   35.9730   24.5190   42.3040 H   0  0  0  0  0  0  0  0  0  0  0  0
   39.2910   28.1180   39.9880 H   0  0  0  0  0  0  0  0  0  0  0  0
   36.9750   30.4940   38.9880 C   0  0  0  0  0  0  0  0  0  0  0  0
   37.4370   30.1750   40.2580 C   0  0  0  0  0  0  0  0  0  0  0  0
   37.9750   31.1880   40.9980 C   0  0  0  0  0  0  0  0  0  0  0  0
   38.3630   31.0560   42.0000 H   0  0  0  0  0  0  0  0  0  0  0  0
   38.0980   32.5040   40.5900 C   0  0  0  0  0  0  0  0  0  0  0  0
   38.5240   33.3010   41.1810 H   0  0  0  0  0  0  0  0  0  0  0  0
   37.6340   32.8030   39.3210 C   0  0  0  0  0  3  0  0  0  0  0  0
   37.0840   31.8120   38.5420 C   0  0  0  0  0  3  0  0  0  0  0  0
   36.9220   28.0530   38.0650 H   0  0  0  0  0  0  0  0  0  0  0  0
   36.2650   29.2380   37.9780 S   0  0  0  0  0  0  0  0  0  0  0  0
   36.4610   29.7140   36.5420 O   0  0  0  0  0  0  0  0  0  0  0  0
   34.7800   29.1230   38.1830 O   0  0  0  0  0  0  0  0  0  0  0  0
  1 10  1  0  0  0  0
  1  2  1  0  0  0  0
  2 11  1  0  0  0  0
  3  2  2  0  0  0  0
  3 12  1  0  0  0  0
  4  3  1  0  0  0  0
  5  6  1  0  0  0  0
  5  4  2  0  0  0  0
  6  1  2  0  0  0  0
  7  8  2  0  0  0  0
  9  7  1  0  0  0  0
  9  5  1  0  0  0  0
 13  9  1  0  0  0  0
 14 15  1  0  0  0  0
 15  7  1  0  0  0  0
 15 16  2  0  0  0  0
 16 17  1  0  0  0  0
 18 16  1  0  0  0  0
 18 19  1  0  0  0  0
 20 18  2  0  0  0  0
 21 14  2  0  0  0  0
 21 20  1  0  0  0  0
 23 22  1  0  0  0  0
 23 25  2  0  0  0  0
 23 14  1  0  0  0  0
 24 23  2  0  0  0  0
M  END
>  <minimizedAffinity>
-4.39572906

$$$$
