
     RDKit          3D

 40 42  0  0  0  0  0  0  0  0999 V2000
   43.9845   34.5765   41.2813 C   0  0  0  0  0  0  0  0  0  0  0  0
   42.8247   35.2793   40.8810 C   0  0  0  0  0  0  0  0  0  0  0  0
   42.2948   35.0247   39.6253 C   0  0  0  0  0  0  0  0  0  0  0  0
   42.9324   34.1012   38.8424 N   0  0  0  0  0  0  0  0  0  0  0  0
   44.0420   33.4552   39.2733 C   0  0  0  0  0  0  0  0  0  0  0  0
   44.5604   33.6894   40.4759 N   0  0  0  0  0  0  0  0  0  0  0  0
   44.5483   34.8653   42.6292 C   0  0  0  0  0  0  0  0  0  0  0  0
   46.0573   35.2695   42.5561 C   0  0  0  0  0  0  0  0  0  0  0  0
   44.9822   36.1445   43.0610 C   0  0  0  0  0  0  0  0  0  0  0  0
   41.0689   35.7414   39.1766 C   0  0  0  0  0  0  0  0  0  0  0  0
   39.9757   35.6351   40.2133 C   0  0  0  0  0  0  0  0  0  0  0  0
   39.0242   33.4846   40.7838 C   0  0  0  0  0  0  0  0  0  0  0  0
   39.7936   33.2319   41.7405 O   0  0  0  0  0  0  0  0  0  0  0  0
   39.0341   34.5774   39.8864 N   0  0  0  0  0  0  0  0  0  0  0  0
   42.3865   35.9961   41.5699 H   0  0  0  0  0  0  0  0  0  0  0  0
   44.5613   32.7218   38.6735 H   0  0  0  0  0  0  0  0  0  0  0  0
   44.3226   34.0558   43.3480 H   0  0  0  0  0  0  0  0  0  0  0  0
   46.4881   35.4434   41.5579 H   0  0  0  0  0  0  0  0  0  0  0  0
   46.6812   34.7662   43.3283 H   0  0  0  0  0  0  0  0  0  0  0  0
   44.8960   36.4026   44.1541 H   0  0  0  0  0  0  0  0  0  0  0  0
   44.7564   37.0450   42.4270 H   0  0  0  0  0  0  0  0  0  0  0  0
   40.7079   35.2598   38.2373 H   0  0  0  0  0  0  0  0  0  0  0  0
   41.3267   36.8116   39.0272 H   0  0  0  0  0  0  0  0  0  0  0  0
   40.4366   35.5440   41.1921 H   0  0  0  0  0  0  0  0  0  0  0  0
   39.3960   36.6027   40.1785 H   0  0  0  0  0  0  0  0  0  0  0  0
   38.4346   34.6394   39.0682 H   0  0  0  0  0  0  0  0  0  0  0  0
   37.6629   33.9549   37.7325 H   0  0  0  0  0  0  0  0  0  0  0  0
   38.0759   32.6903   37.9788 S   0  0  0  0  0  0  0  0  0  0  0  0
   37.6236   31.8398   36.8127 O   0  0  0  0  0  0  0  0  0  0  0  0
   39.5705   32.5803   38.0219 O   0  0  0  0  0  0  0  0  0  0  0  0
   37.3688   32.0042   39.4233 C   0  0  0  0  0  0  0  0  0  0  0  0
   37.9394   32.4956   40.5532 C   0  0  0  0  0  0  0  0  0  0  0  0
   37.4939   32.0557   41.8058 C   0  0  0  0  0  0  0  0  0  0  0  0
   37.8395   32.3460   42.8077 H   0  0  0  0  0  0  0  0  0  0  0  0
   36.4674   31.1163   41.9091 C   0  0  0  0  0  0  0  0  0  0  0  0
   36.0682   30.7280   42.8347 H   0  0  0  0  0  0  0  0  0  0  0  0
   35.9087   30.6369   40.7429 C   0  0  0  0  0  0  0  0  0  0  0  0
   36.3559   31.0774   39.5136 C   0  0  0  0  0  0  0  0  0  0  0  0
   35.1039   29.9009   40.7235 H   0  0  0  0  0  0  0  0  0  0  0  0
   35.9736   30.7505   38.5541 H   0  0  0  0  0  0  0  0  0  0  0  0
  1  7  1  0
  2  1  2  0
  3  2  1  0
  4  5  1  0
  4  3  2  0
  5  6  2  0
  6  1  1  0
  7  9  1  0
  8  7  1  0
  8  9  1  0
 10  3  1  0
 10 11  1  0
 12 13  2  0
 14 11  1  0
 14 12  1  0
  2 15  1  0
  5 16  1  0
  7 17  1  0
  8 18  1  0
  8 19  1  0
  9 20  1  0
  9 21  1  0
 10 22  1  0
 10 23  1  0
 11 24  1  0
 11 25  1  0
 14 26  1  0
 27 28  1  0
 28 29  2  0
 28 30  2  0
 28 31  1  0
 31 32  2  0
 32 33  1  0
 33 34  1  0
 33 35  2  0
 35 36  1  0
 35 37  1  0
 37 38  2  0
 38 31  1  0
 37 39  1  0
 38 40  1  0
 12 32  1  0
M  ISO  8  15  14  16  14  17  13  18  13  19  13  20  13  21  13  22   8
M  ISO  6  23   8  24   8  25   8  27  12  34  15  36  16
M  END
>  <DihAtoms>  (1) 
12,11,31,30

>  <DihDeg>  (1) 
-112.62016737244527

$$$$
