REMARK  Name = 
REMARK  6 active torsions:
REMARK  status: ('A' for Active; 'I' for Inactive)
REMARK    1  A    between atoms: C_1  and  C_7
REMARK    2  A    between atoms: C_3  and  C_10
REMARK    3  A    between atoms: C_10  and  C_11
REMARK    4  A    between atoms: C_11  and  N_14
REMARK    5  A    between atoms: C_12  and  C_32
REMARK    6  A    between atoms: S_28  and  C_31
REMARK                            x       y       z     vdW  Elec       q    Type
REMARK                         _______ _______ _______ _____ _____    ______ ____
ROOT
ATOM      1  C   UNL     1      41.069  35.741  39.177  0.00  0.00    +0.000 C 
ATOM      2  H   UNL     1      40.708  35.260  38.237  0.00  0.00    +0.000 HD
ATOM      3  H   UNL     1      41.327  36.812  39.027  0.00  0.00    +0.000 HD
ENDROOT
BRANCH   1   6
ATOM      4  C   UNL     1      43.984  34.577  41.281  0.00  0.00    +0.000 A 
ATOM      5  C   UNL     1      42.825  35.279  40.881  0.00  0.00    +0.000 A 
ATOM      6  C   UNL     1      42.295  35.025  39.625  0.00  0.00    +0.000 A 
ATOM      7  N   UNL     1      42.932  34.101  38.842  0.00  0.00    +0.000 NA
ATOM      8  C   UNL     1      44.042  33.455  39.273  0.00  0.00    +0.000 A 
ATOM      9  N   UNL     1      44.560  33.689  40.476  0.00  0.00    +0.000 NA
ATOM     10  H   UNL     1      42.386  35.996  41.570  0.00  0.00    +0.000 HD
ATOM     11  H   UNL     1      44.561  32.722  38.673  0.00  0.00    +0.000 HD
BRANCH   4  12
ATOM     12  C   UNL     1      44.548  34.865  42.629  0.00  0.00    +0.000 C 
ATOM     13  C   UNL     1      46.057  35.270  42.556  0.00  0.00    +0.000 C 
ATOM     14  C   UNL     1      44.982  36.145  43.061  0.00  0.00    +0.000 C 
ATOM     15  H   UNL     1      44.323  34.056  43.348  0.00  0.00    +0.000 HD
ATOM     16  H   UNL     1      46.488  35.443  41.558  0.00  0.00    +0.000 HD
ATOM     17  H   UNL     1      46.681  34.766  43.328  0.00  0.00    +0.000 HD
ATOM     18  H   UNL     1      44.896  36.403  44.154  0.00  0.00    +0.000 HD
ATOM     19  H   UNL     1      44.756  37.045  42.427  0.00  0.00    +0.000 HD
ENDBRANCH   4  12
ENDBRANCH   1   6
BRANCH   1  20
ATOM     20  C   UNL     1      39.976  35.635  40.213  0.00  0.00    +0.000 C 
ATOM     21  H   UNL     1      40.437  35.544  41.192  0.00  0.00    +0.000 HD
ATOM     22  H   UNL     1      39.396  36.603  40.178  0.00  0.00    +0.000 HD
BRANCH  20  25
ATOM     23  C   UNL     1      39.024  33.485  40.784  0.00  0.00    +0.000 C 
ATOM     24  O   UNL     1      39.794  33.232  41.740  0.00  0.00    +0.000 OA
ATOM     25  N   UNL     1      39.034  34.577  39.886  0.00  0.00    +0.000 N 
ATOM     26  H   UNL     1      38.435  34.639  39.068  0.00  0.00    +0.000 HD
BRANCH  23  28
ATOM     27  C   UNL     1      37.017  32.356  39.566  0.00  0.00    +0.000 A 
ATOM     28  C   UNL     1      37.939  32.496  40.553  0.00  0.00    +0.000 A 
ATOM     29  C   UNL     1      37.963  31.585  41.617  0.00  0.00    +0.000 A 
ATOM     30  H   UNL     1      38.632  31.551  42.488  0.00  0.00    +0.000 HD
ATOM     31  C   UNL     1      37.048  30.533  41.677  0.00  0.00    +0.000 A 
ATOM     32  H   UNL     1      37.001  29.792  42.461  0.00  0.00    +0.000 HD
ATOM     33  C   UNL     1      36.125  30.419  40.659  0.00  0.00    +0.000 A 
ATOM     34  C   UNL     1      36.111  31.322  39.615  0.00  0.00    +0.000 A 
BRANCH  27  36
ATOM     35  H   UNL     1      36.681  34.797  38.742  0.00  0.00    +0.000 HD
ATOM     36  S   UNL     1      37.169  33.599  38.346  0.00  0.00    +0.000 S 
ATOM     37  O   UNL     1      36.350  33.157  37.154  0.00  0.00    +0.000 OA
ATOM     38  O   UNL     1      38.587  33.696  37.867  0.00  0.00    +0.000 OA
ENDBRANCH  27  36
ENDBRANCH  23  28
ENDBRANCH  20  25
ENDBRANCH   1  20
TORSDOF 6
