
 OpenBabel03242520193D

 38 40  0  0  0  0  0  0  0  0999 V2000
   41.3290   35.6380   38.9070 C   0  0  0  0  0  0  0  0  0  0  0  0
   41.2220   35.3580   37.8320 H   0  0  0  0  0  0  0  0  0  0  0  0
   41.4870   36.7300   39.0420 H   0  0  0  0  0  0  0  0  0  0  0  0
   44.0940   34.5250   41.2300 C   0  0  0  0  0  0  0  0  0  0  0  0
   42.9730   35.2260   40.7310 C   0  0  0  0  0  0  0  0  0  0  0  0
   42.5130   34.9240   39.4580 C   0  0  0  0  0  0  0  0  0  0  0  0
   43.1790   33.9560   38.7560 N   0  0  0  0  0  0  0  0  0  0  0  0
   44.2500   33.3130   39.2800 C   0  0  0  0  0  0  0  0  0  0  0  0
   44.7000   33.5930   40.5000 N   0  0  0  0  0  0  0  0  0  0  0  0
   42.5080   35.9800   41.3610 H   0  0  0  0  0  0  0  0  0  0  0  0
   44.7900   32.5460   38.7450 H   0  0  0  0  0  0  0  0  0  0  0  0
   44.5830   34.8650   42.5950 C   0  0  0  0  0  0  0  0  0  0  0  0
   46.0940   35.2680   42.5900 C   0  0  0  0  0  0  0  0  0  0  0  0
   44.9940   36.1610   43.0010 C   0  0  0  0  0  0  0  0  0  0  0  0
   44.3180   34.0840   43.3300 H   0  0  0  0  0  0  0  0  0  0  0  0
   46.5800   35.4030   41.6110 H   0  0  0  0  0  0  0  0  0  0  0  0
   46.6740   34.7940   43.4140 H   0  0  0  0  0  0  0  0  0  0  0  0
   44.8480   36.4600   44.0770 H   0  0  0  0  0  0  0  0  0  0  0  0
   44.8050   37.0360   42.3220 H   0  0  0  0  0  0  0  0  0  0  0  0
   40.0690   35.2270   39.6310 C   0  0  0  0  0  0  0  0  0  0  0  0
   40.0470   35.7280   40.5940 H   0  0  0  0  0  0  0  0  0  0  0  0
   39.2000   35.5980   39.0130 H   0  0  0  0  0  0  0  0  0  0  0  0
   39.7600   33.2530   40.9950 C   0  0  0  0  0  0  0  0  0  0  0  0
   39.8260   33.8300   42.1060 O   0  0  0  0  0  0  0  0  0  0  0  0
   39.9410   33.7800   39.6960 N   0  0  0  0  0  0  0  0  0  0  0  0
   39.9810   33.2090   38.8570 H   0  0  0  0  0  0  0  0  0  0  0  0
   40.2320   30.6930   41.0680 C   0  0  0  0  0  0  0  0  0  0  0  0
   39.4480   31.8010   41.0420 C   0  0  0  0  0  0  0  0  0  0  0  0
   38.0530   31.6680   41.0580 C   0  0  0  0  0  0  0  0  0  0  0  0
   37.2810   32.4490   41.0420 H   0  0  0  0  0  0  0  0  0  0  0  0
   37.4580   30.4080   41.0980 C   0  0  0  0  0  0  0  0  0  0  0  0
   36.3930   30.2220   41.1120 H   0  0  0  0  0  0  0  0  0  0  0  0
   38.2810   29.3020   41.1230 C   0  0  0  0  0  3  0  0  0  0  0  0
   39.6530   29.4440   41.1080 C   0  0  0  0  0  3  0  0  0  0  0  0
   42.2350   32.0830   40.1710 H   0  0  0  0  0  0  0  0  0  0  0  0
   41.9340   31.0920   41.0410 S   0  0  0  0  0  0  0  0  0  0  0  0
   42.6750   29.8560   40.5800 O   0  0  0  0  0  0  0  0  0  0  0  0
   42.4270   31.3840   42.4260 O   0  0  0  0  0  0  0  0  0  0  0  0
  1  3  1  0  0  0  0
  1  6  1  0  0  0  0
  1 20  1  0  0  0  0
  2  1  1  0  0  0  0
  4 12  1  0  0  0  0
  5  4  1  0  0  0  0
  5 10  1  0  0  0  0
  6  5  2  0  0  0  0
  7  8  2  0  0  0  0
  7  6  1  0  0  0  0
  8  9  1  0  0  0  0
  9  4  2  0  0  0  0
 11  8  1  0  0  0  0
 12 14  1  0  0  0  0
 12 15  1  0  0  0  0
 13 12  1  0  0  0  0
 13 14  1  0  0  0  0
 13 17  1  0  0  0  0
 14 18  1  0  0  0  0
 16 13  1  0  0  0  0
 19 14  1  0  0  0  0
 20 25  1  0  0  0  0
 20 21  1  0  0  0  0
 22 20  1  0  0  0  0
 23 28  1  0  0  0  0
 23 24  2  0  0  0  0
 25 23  1  0  0  0  0
 26 25  1  0  0  0  0
 27 34  1  0  0  0  0
 28 29  1  0  0  0  0
 28 27  2  0  0  0  0
 29 31  2  0  0  0  0
 30 29  1  0  0  0  0
 31 32  1  0  0  0  0
 31 33  1  0  0  0  0
 34 33  2  0  0  0  0
 35 36  1  0  0  0  0
 36 27  1  0  0  0  0
 36 38  2  0  0  0  0
 37 36  2  0  0  0  0
M  END
>  <minimizedAffinity>
-4.87570477

>  <minimizedRMSD>
2.69271278

$$$$
