
 OpenBabel03252501323D

 27 28  0  0  0  0  0  0  0  0999 V2000
   43.3600   34.0480   41.2770 C   0  0  0  0  0  0  0  0  0  0  0  0
   44.4470   34.1660   40.6330 O   0  0  0  0  0  0  0  0  0  0  0  0
   43.5650   33.4930   42.5830 N   0  0  0  0  0  0  0  0  0  0  0  0
   42.7960   33.3100   43.2450 H   0  0  0  0  0  0  0  0  0  0  0  0
   44.9860   33.2570   42.7690 C   0  0  0  0  0  0  0  0  0  0  0  0
   45.6590   32.1020   42.4260 C   0  0  0  0  0  0  0  0  0  0  0  0
   47.0230   32.0690   42.6850 C   0  0  0  0  0  0  0  0  0  0  0  0
   47.5920   33.1490   43.2430 N   0  0  0  0  0  0  0  0  0  0  0  0
   46.8990   34.2660   43.5660 C   0  0  0  0  0  0  0  0  0  0  0  0
   45.5870   34.3370   43.3330 N   0  0  0  0  0  0  0  0  0  0  0  0
   47.5280   31.1540   42.4090 H   0  0  0  0  0  0  0  0  0  0  0  0
   47.4810   35.0670   44.0120 H   0  0  0  0  0  0  0  0  0  0  0  0
   44.8780   31.0800   41.8460 N   0  0  0  0  0  0  0  0  0  0  0  0
   43.9230   30.8560   42.1850 H   0  0  0  0  0  0  0  0  0  0  0  0
   45.1460   30.4510   41.0440 H   0  0  0  0  0  0  0  0  0  0  0  0
   41.1290   33.5300   40.2270 C   0  0  0  0  0  0  0  0  0  0  0  0
   42.0020   34.4020   40.8410 C   0  0  0  0  0  0  0  0  0  0  0  0
   41.6620   35.7200   41.1040 C   0  0  0  0  0  0  0  0  0  0  0  0
   42.3000   36.4380   41.5770 H   0  0  0  0  0  0  0  0  0  0  0  0
   40.3970   36.1910   40.7420 C   0  0  0  0  0  0  0  0  0  0  0  0
   40.0720   37.2230   40.9260 H   0  0  0  0  0  0  0  0  0  0  0  0
   39.5440   35.3080   40.1330 C   0  0  0  0  0  3  0  0  0  0  0  0
   39.8630   33.9850   39.8600 C   0  0  0  0  0  3  0  0  0  0  0  0
   42.8600   31.8630   39.2510 H   0  0  0  0  0  0  0  0  0  0  0  0
   41.6840   31.9000   39.9560 S   0  0  0  0  0  0  0  0  0  0  0  0
   41.7890   31.1900   41.2690 O   0  0  0  0  0  0  0  0  0  0  0  0
   40.6290   31.2160   39.1160 O   0  0  0  0  0  0  0  0  0  0  0  0
  1  3  1  0  0  0  0
  2  1  2  0  0  0  0
  3  5  1  0  0  0  0
  3  4  1  0  0  0  0
  5 10  1  0  0  0  0
  6  7  1  0  0  0  0
  6  5  2  0  0  0  0
  7  8  2  0  0  0  0
  8  9  1  0  0  0  0
  9 12  1  0  0  0  0
 10  9  2  0  0  0  0
 11  7  1  0  0  0  0
 13 14  1  0  0  0  0
 13  6  1  0  0  0  0
 15 13  1  0  0  0  0
 16 17  1  0  0  0  0
 17 18  2  0  0  0  0
 17  1  1  0  0  0  0
 18 19  1  0  0  0  0
 20 21  1  0  0  0  0
 20 18  1  0  0  0  0
 22 20  2  0  0  0  0
 23 22  1  0  0  0  0
 23 16  2  0  0  0  0
 24 25  1  0  0  0  0
 25 16  1  0  0  0  0
 25 26  2  0  0  0  0
 27 25  2  0  0  0  0
M  END
>  <minimizedAffinity>
-4.38403034

>  <minimizedRMSD>
4.40642595

$$$$
