
 OpenBabel03252507173D

 32 34  0  0  0  0  0  0  0  0999 V2000
   39.1740   31.7730   40.8110 C   0  0  0  0  0  0  0  0  0  0  0  0
   38.3900   30.7910   40.1660 C   0  0  0  0  0  0  0  0  0  0  0  0
   37.2720   31.1910   39.4710 C   0  0  0  0  0  0  0  0  0  0  0  0
   36.9560   32.5000   39.4270 N   0  0  0  0  0  0  0  0  0  0  0  0
   37.7250   33.4450   40.0580 C   0  0  0  0  0  0  0  0  0  0  0  0
   38.8060   33.0530   40.7280 N   0  0  0  0  0  0  0  0  0  0  0  0
   40.0650   31.5060   41.3710 H   0  0  0  0  0  0  0  0  0  0  0  0
   37.4820   34.4990   40.0300 H   0  0  0  0  0  0  0  0  0  0  0  0
   36.4720   30.1790   38.8100 C   0  0  0  0  0  0  0  0  0  0  0  0
   35.3360   29.6850   39.4390 C   0  0  0  0  0  0  0  0  0  0  0  0
   34.5950   28.7260   38.7880 C   0  0  0  0  0  0  0  0  0  0  0  0
   34.9210   28.2210   37.5320 C   0  0  0  0  0  0  0  0  0  0  0  0
   36.0580   28.7590   36.9740 C   0  0  0  0  0  0  0  0  0  0  0  0
   36.7880   29.7010   37.6090 N   0  0  0  0  0  0  0  0  0  0  0  0
   35.0150   30.0330   40.4270 H   0  0  0  0  0  0  0  0  0  0  0  0
   33.6970   28.3150   39.2520 H   0  0  0  0  0  0  0  0  0  0  0  0
   34.3540   27.4740   37.0130 H   0  0  0  0  0  0  0  0  0  0  0  0
   36.4370   28.4670   36.0050 H   0  0  0  0  0  0  0  0  0  0  0  0
   38.7950   29.4130   40.2630 C   0  0  0  0  0  0  0  0  0  0  0  0
   39.6610   29.0090   39.4190 O   0  0  0  0  0  0  0  0  0  0  0  0
   37.5890   27.4220   41.2430 C   0  0  0  0  0  0  0  0  0  0  0  0
   38.1420   28.6810   41.3290 C   0  0  0  0  0  0  0  0  0  0  0  0
   38.0410   29.2650   42.5960 C   0  0  0  0  0  0  0  0  0  0  0  0
   38.4480   30.2550   42.7550 H   0  0  0  0  0  0  0  0  0  0  0  0
   37.4460   28.6540   43.6790 C   0  0  0  0  0  0  0  0  0  0  0  0
   37.4050   29.1610   44.6240 H   0  0  0  0  0  0  0  0  0  0  0  0
   36.9100   27.3940   43.5370 C   0  0  0  0  0  3  0  0  0  0  0  0
   36.9860   26.7780   42.3010 C   0  0  0  0  0  3  0  0  0  0  0  0
   37.8400   27.4390   38.6470 H   0  0  0  0  0  0  0  0  0  0  0  0
   37.6540   26.6150   39.7090 S   0  0  0  0  0  0  0  0  0  0  0  0
   36.4410   25.7200   39.5110 O   0  0  0  0  0  0  0  0  0  0  0  0
   38.8280   25.6530   39.7320 O   0  0  0  0  0  0  0  0  0  0  0  0
  1  7  1  0  0  0  0
  2 19  1  0  0  0  0
  2  1  2  0  0  0  0
  3  2  1  0  0  0  0
  4  3  2  0  0  0  0
  4  5  1  0  0  0  0
  5  6  2  0  0  0  0
  6  1  1  0  0  0  0
  8  5  1  0  0  0  0
  9 10  1  0  0  0  0
  9  3  1  0  0  0  0
 10 15  1  0  0  0  0
 11 16  1  0  0  0  0
 11 10  2  0  0  0  0
 12 11  1  0  0  0  0
 13 12  2  0  0  0  0
 13 14  1  0  0  0  0
 14  9  2  0  0  0  0
 17 12  1  0  0  0  0
 18 13  1  0  0  0  0
 19 22  1  0  0  0  0
 20 19  2  0  0  0  0
 21 22  2  0  0  0  0
 21 28  1  0  0  0  0
 22 23  1  0  0  0  0
 23 24  1  0  0  0  0
 23 25  2  0  0  0  0
 25 26  1  0  0  0  0
 27 25  1  0  0  0  0
 28 27  2  0  0  0  0
 29 30  1  0  0  0  0
 30 32  2  0  0  0  0
 30 21  1  0  0  0  0
 31 30  2  0  0  0  0
M  END
>  <minimizedAffinity>
-5.34824371

$$$$

 OpenBabel03252507173D

 32 34  0  0  0  0  0  0  0  0999 V2000
   38.3370   31.6060   38.7920 C   0  0  0  0  0  0  0  0  0  0  0  0
   38.3060   30.5120   39.6850 C   0  0  0  0  0  0  0  0  0  0  0  0
   38.6590   30.7220   40.9980 C   0  0  0  0  0  0  0  0  0  0  0  0
   39.0240   31.9580   41.3930 N   0  0  0  0  0  0  0  0  0  0  0  0
   39.0520   33.0120   40.5160 C   0  0  0  0  0  0  0  0  0  0  0  0
   38.7080   32.8040   39.2480 N   0  0  0  0  0  0  0  0  0  0  0  0
   38.0670   31.4900   37.7470 H   0  0  0  0  0  0  0  0  0  0  0  0
   39.3430   34.0080   40.8210 H   0  0  0  0  0  0  0  0  0  0  0  0
   38.6240   29.5960   41.9110 C   0  0  0  0  0  0  0  0  0  0  0  0
   37.4500   29.3060   42.5950 C   0  0  0  0  0  0  0  0  0  0  0  0
   37.4450   28.2320   43.4540 C   0  0  0  0  0  0  0  0  0  0  0  0
   38.5520   27.4170   43.6780 C   0  0  0  0  0  0  0  0  0  0  0  0
   39.6750   27.7680   42.9640 C   0  0  0  0  0  0  0  0  0  0  0  0
   39.6850   28.8210   42.1190 N   0  0  0  0  0  0  0  0  0  0  0  0
   36.5380   29.9000   42.4720 H   0  0  0  0  0  0  0  0  0  0  0  0
   36.5420   27.9740   44.0090 H   0  0  0  0  0  0  0  0  0  0  0  0
   38.5640   26.5780   44.3440 H   0  0  0  0  0  0  0  0  0  0  0  0
   40.6110   27.2320   43.0320 H   0  0  0  0  0  0  0  0  0  0  0  0
   37.9060   29.2230   39.1820 C   0  0  0  0  0  0  0  0  0  0  0  0
   38.8100   28.3260   39.1200 O   0  0  0  0  0  0  0  0  0  0  0  0
   35.9950   29.0390   37.5410 C   0  0  0  0  0  0  0  0  0  0  0  0
   36.5070   29.1430   38.8160 C   0  0  0  0  0  0  0  0  0  0  0  0
   35.5350   29.1610   39.8230 C   0  0  0  0  0  0  0  0  0  0  0  0
   35.8470   29.2420   40.8560 H   0  0  0  0  0  0  0  0  0  0  0  0
   34.1800   29.0840   39.5850 C   0  0  0  0  0  0  0  0  0  0  0  0
   33.4890   29.1040   40.4070 H   0  0  0  0  0  0  0  0  0  0  0  0
   33.7230   28.9810   38.2900 C   0  0  0  0  0  3  0  0  0  0  0  0
   34.6490   28.9590   37.2620 C   0  0  0  0  0  3  0  0  0  0  0  0
   38.3000   29.6340   36.4760 H   0  0  0  0  0  0  0  0  0  0  0  0
   37.1190   29.0170   36.2200 S   0  0  0  0  0  0  0  0  0  0  0  0
   36.4780   29.5510   34.9490 O   0  0  0  0  0  0  0  0  0  0  0  0
   37.4370   27.5690   35.8970 O   0  0  0  0  0  0  0  0  0  0  0  0
  1  6  2  0  0  0  0
  1  2  1  0  0  0  0
  2  3  2  0  0  0  0
  3  4  1  0  0  0  0
  3  9  1  0  0  0  0
  5  8  1  0  0  0  0
  5  4  2  0  0  0  0
  6  5  1  0  0  0  0
  7  1  1  0  0  0  0
  9 14  2  0  0  0  0
  9 10  1  0  0  0  0
 10 11  2  0  0  0  0
 11 12  1  0  0  0  0
 11 16  1  0  0  0  0
 12 17  1  0  0  0  0
 13 18  1  0  0  0  0
 13 12  2  0  0  0  0
 14 13  1  0  0  0  0
 15 10  1  0  0  0  0
 19  2  1  0  0  0  0
 20 19  2  0  0  0  0
 21 22  1  0  0  0  0
 22 19  1  0  0  0  0
 22 23  2  0  0  0  0
 23 24  1  0  0  0  0
 25 23  1  0  0  0  0
 25 26  1  0  0  0  0
 27 25  2  0  0  0  0
 28 21  2  0  0  0  0
 28 27  1  0  0  0  0
 30 29  1  0  0  0  0
 30 21  1  0  0  0  0
 31 30  2  0  0  0  0
 32 30  2  0  0  0  0
M  END
>  <minimizedAffinity>
-5.24086523

$$$$

 OpenBabel03252507173D

 32 34  0  0  0  0  0  0  0  0999 V2000
   39.0610   31.6090   40.7760 C   0  0  0  0  0  0  0  0  0  0  0  0
   38.3110   30.7160   39.9790 C   0  0  0  0  0  0  0  0  0  0  0  0
   37.2940   31.2220   39.2030 C   0  0  0  0  0  0  0  0  0  0  0  0
   37.0420   32.5450   39.2250 N   0  0  0  0  0  0  0  0  0  0  0  0
   37.7760   33.4020   40.0040 C   0  0  0  0  0  0  0  0  0  0  0  0
   38.7600   32.9090   40.7530 N   0  0  0  0  0  0  0  0  0  0  0  0
   39.8740   31.2580   41.4050 H   0  0  0  0  0  0  0  0  0  0  0  0
   37.5840   34.4660   40.0310 H   0  0  0  0  0  0  0  0  0  0  0  0
   36.5280   30.3020   38.3850 C   0  0  0  0  0  0  0  0  0  0  0  0
   35.4410   29.6360   38.9370 C   0  0  0  0  0  0  0  0  0  0  0  0
   34.7320   28.7690   38.1380 C   0  0  0  0  0  0  0  0  0  0  0  0
   35.0430   28.5210   36.8040 C   0  0  0  0  0  0  0  0  0  0  0  0
   36.1310   29.2160   36.3300 C   0  0  0  0  0  0  0  0  0  0  0  0
   36.8300   30.0690   37.1100 N   0  0  0  0  0  0  0  0  0  0  0  0
   35.1340   29.7800   39.9800 H   0  0  0  0  0  0  0  0  0  0  0  0
   33.8730   28.2290   38.5380 H   0  0  0  0  0  0  0  0  0  0  0  0
   34.5010   27.8480   36.1700 H   0  0  0  0  0  0  0  0  0  0  0  0
   36.4940   29.1280   35.3150 H   0  0  0  0  0  0  0  0  0  0  0  0
   38.6430   29.3160   40.0130 C   0  0  0  0  0  0  0  0  0  0  0  0
   39.1660   28.8250   38.9590 O   0  0  0  0  0  0  0  0  0  0  0  0
   39.2170   28.2670   42.2370 C   0  0  0  0  0  0  0  0  0  0  0  0
   38.3240   28.6660   41.2670 C   0  0  0  0  0  0  0  0  0  0  0  0
   36.9860   28.3990   41.5770 C   0  0  0  0  0  0  0  0  0  0  0  0
   36.2150   28.6780   40.8710 H   0  0  0  0  0  0  0  0  0  0  0  0
   36.5730   27.7920   42.7430 C   0  0  0  0  0  0  0  0  0  0  0  0
   35.5280   27.6180   42.9160 H   0  0  0  0  0  0  0  0  0  0  0  0
   37.5100   27.4140   43.6800 C   0  0  0  0  0  3  0  0  0  0  0  0
   38.8450   27.6570   43.4150 C   0  0  0  0  0  3  0  0  0  0  0  0
   41.1920   29.7660   41.4280 H   0  0  0  0  0  0  0  0  0  0  0  0
   40.9040   28.5440   41.9440 S   0  0  0  0  0  0  0  0  0  0  0  0
   41.5020   27.4310   41.0990 O   0  0  0  0  0  0  0  0  0  0  0  0
   41.6360   28.4410   43.2690 O   0  0  0  0  0  0  0  0  0  0  0  0
  1  7  1  0  0  0  0
  2 19  1  0  0  0  0
  2  1  2  0  0  0  0
  3  4  2  0  0  0  0
  3  2  1  0  0  0  0
  4  5  1  0  0  0  0
  5  8  1  0  0  0  0
  5  6  2  0  0  0  0
  6  1  1  0  0  0  0
  9 10  1  0  0  0  0
  9  3  1  0  0  0  0
 10 15  1  0  0  0  0
 11 16  1  0  0  0  0
 11 10  2  0  0  0  0
 12 11  1  0  0  0  0
 13 12  2  0  0  0  0
 13 14  1  0  0  0  0
 14  9  2  0  0  0  0
 17 12  1  0  0  0  0
 18 13  1  0  0  0  0
 19 22  1  0  0  0  0
 20 19  2  0  0  0  0
 21 28  1  0  0  0  0
 22 23  1  0  0  0  0
 22 21  2  0  0  0  0
 23 25  2  0  0  0  0
 24 23  1  0  0  0  0
 25 26  1  0  0  0  0
 25 27  1  0  0  0  0
 28 27  2  0  0  0  0
 29 30  1  0  0  0  0
 30 21  1  0  0  0  0
 30 32  2  0  0  0  0
 31 30  2  0  0  0  0
M  END
>  <minimizedAffinity>
-5.20002317

$$$$

 OpenBabel03252507173D

 32 34  0  0  0  0  0  0  0  0999 V2000
   38.6680   29.1770   42.5670 C   0  0  0  0  0  0  0  0  0  0  0  0
   37.9750   29.0230   41.3460 C   0  0  0  0  0  0  0  0  0  0  0  0
   36.7880   28.3280   41.3440 C   0  0  0  0  0  0  0  0  0  0  0  0
   36.3220   27.8150   42.5000 N   0  0  0  0  0  0  0  0  0  0  0  0
   37.0040   27.9700   43.6800 C   0  0  0  0  0  0  0  0  0  0  0  0
   38.1520   28.6440   43.6770 N   0  0  0  0  0  0  0  0  0  0  0  0
   39.6090   29.7170   42.6190 H   0  0  0  0  0  0  0  0  0  0  0  0
   36.6410   27.5630   44.6140 H   0  0  0  0  0  0  0  0  0  0  0  0
   36.0800   28.1750   40.0880 C   0  0  0  0  0  0  0  0  0  0  0  0
   35.0750   29.0740   39.7540 C   0  0  0  0  0  0  0  0  0  0  0  0
   34.4200   28.9040   38.5560 C   0  0  0  0  0  0  0  0  0  0  0  0
   34.7080   27.8800   37.6580 C   0  0  0  0  0  0  0  0  0  0  0  0
   35.7140   27.0320   38.0590 C   0  0  0  0  0  0  0  0  0  0  0  0
   36.3610   27.1940   39.2340 N   0  0  0  0  0  0  0  0  0  0  0  0
   34.7910   29.9050   40.4090 H   0  0  0  0  0  0  0  0  0  0  0  0
   33.6250   29.5910   38.2610 H   0  0  0  0  0  0  0  0  0  0  0  0
   34.2070   27.7350   36.7220 H   0  0  0  0  0  0  0  0  0  0  0  0
   36.0500   26.1900   37.4690 H   0  0  0  0  0  0  0  0  0  0  0  0
   38.5420   29.6000   40.1550 C   0  0  0  0  0  0  0  0  0  0  0  0
   39.0460   28.7900   39.3090 O   0  0  0  0  0  0  0  0  0  0  0  0
   39.4700   31.9420   40.3290 C   0  0  0  0  0  0  0  0  0  0  0  0
   38.4500   31.0450   40.1000 C   0  0  0  0  0  0  0  0  0  0  0  0
   37.2250   31.6400   39.7780 C   0  0  0  0  0  0  0  0  0  0  0  0
   36.3680   31.0090   39.5830 H   0  0  0  0  0  0  0  0  0  0  0  0
   37.0310   33.0010   39.6920 C   0  0  0  0  0  0  0  0  0  0  0  0
   36.0620   33.3900   39.4400 H   0  0  0  0  0  0  0  0  0  0  0  0
   38.0860   33.8530   39.9310 C   0  0  0  0  0  3  0  0  0  0  0  0
   39.3170   33.3090   40.2530 C   0  0  0  0  0  3  0  0  0  0  0  0
   40.9920   30.1590   41.4700 H   0  0  0  0  0  0  0  0  0  0  0  0
   41.0280   31.3050   40.7450 S   0  0  0  0  0  0  0  0  0  0  0  0
   41.8880   32.3620   41.4200 O   0  0  0  0  0  0  0  0  0  0  0  0
   41.7670   30.9900   39.4570 O   0  0  0  0  0  0  0  0  0  0  0  0
  1  7  1  0  0  0  0
  1  6  1  0  0  0  0
  2  1  2  0  0  0  0
  3  2  1  0  0  0  0
  3  4  2  0  0  0  0
  4  5  1  0  0  0  0
  5  8  1  0  0  0  0
  6  5  2  0  0  0  0
  9  3  1  0  0  0  0
 10  9  1  0  0  0  0
 10 15  1  0  0  0  0
 11 10  2  0  0  0  0
 12 13  2  0  0  0  0
 12 11  1  0  0  0  0
 13 14  1  0  0  0  0
 14  9  2  0  0  0  0
 16 11  1  0  0  0  0
 17 12  1  0  0  0  0
 18 13  1  0  0  0  0
 19  2  1  0  0  0  0
 20 19  2  0  0  0  0
 21 30  1  0  0  0  0
 22 19  1  0  0  0  0
 22 21  2  0  0  0  0
 23 22  1  0  0  0  0
 24 23  1  0  0  0  0
 25 23  2  0  0  0  0
 25 27  1  0  0  0  0
 26 25  1  0  0  0  0
 27 28  2  0  0  0  0
 28 21  1  0  0  0  0
 30 31  2  0  0  0  0
 30 29  1  0  0  0  0
 32 30  2  0  0  0  0
M  END
>  <minimizedAffinity>
-5.1725955

$$$$

 OpenBabel03252507173D

 32 34  0  0  0  0  0  0  0  0999 V2000
   38.2650   27.7760   39.0770 C   0  0  0  0  0  0  0  0  0  0  0  0
   38.2260   29.0930   39.5860 C   0  0  0  0  0  0  0  0  0  0  0  0
   38.4740   30.1390   38.7280 C   0  0  0  0  0  0  0  0  0  0  0  0
   38.7470   29.8810   37.4330 N   0  0  0  0  0  0  0  0  0  0  0  0
   38.7830   28.5970   36.9510 C   0  0  0  0  0  0  0  0  0  0  0  0
   38.5410   27.5890   37.7840 N   0  0  0  0  0  0  0  0  0  0  0  0
   38.0760   26.9180   39.7150 H   0  0  0  0  0  0  0  0  0  0  0  0
   39.0000   28.3770   35.9140 H   0  0  0  0  0  0  0  0  0  0  0  0
   38.4320   31.4890   39.2550 C   0  0  0  0  0  0  0  0  0  0  0  0
   37.3780   32.3260   38.9110 C   0  0  0  0  0  0  0  0  0  0  0  0
   37.3630   33.6020   39.4260 C   0  0  0  0  0  0  0  0  0  0  0  0
   38.3470   34.1020   40.2740 C   0  0  0  0  0  0  0  0  0  0  0  0
   39.3560   33.2150   40.5690 C   0  0  0  0  0  0  0  0  0  0  0  0
   39.3750   31.9620   40.0660 N   0  0  0  0  0  0  0  0  0  0  0  0
   36.5660   32.0040   38.2480 H   0  0  0  0  0  0  0  0  0  0  0  0
   36.5520   34.2870   39.1770 H   0  0  0  0  0  0  0  0  0  0  0  0
   38.3490   35.0930   40.6830 H   0  0  0  0  0  0  0  0  0  0  0  0
   40.1900   33.4580   41.2130 H   0  0  0  0  0  0  0  0  0  0  0  0
   37.9290   29.2840   40.9820 C   0  0  0  0  0  0  0  0  0  0  0  0
   36.9100   29.9980   41.2580 O   0  0  0  0  0  0  0  0  0  0  0  0
   38.6120   27.4860   42.6180 C   0  0  0  0  0  0  0  0  0  0  0  0
   38.8550   28.6210   41.8770 C   0  0  0  0  0  0  0  0  0  0  0  0
   40.1440   29.1430   42.0350 C   0  0  0  0  0  0  0  0  0  0  0  0
   40.4220   30.0360   41.4910 H   0  0  0  0  0  0  0  0  0  0  0  0
   41.1020   28.5880   42.8550 C   0  0  0  0  0  0  0  0  0  0  0  0
   42.0730   29.0420   42.9280 H   0  0  0  0  0  0  0  0  0  0  0  0
   40.8050   27.4510   43.5730 C   0  0  0  0  0  3  0  0  0  0  0  0
   39.5430   26.9000   43.4480 C   0  0  0  0  0  3  0  0  0  0  0  0
   36.4060   26.9890   41.3190 H   0  0  0  0  0  0  0  0  0  0  0  0
   37.0390   26.7660   42.4980 S   0  0  0  0  0  0  0  0  0  0  0  0
   36.1660   27.1600   43.6800 O   0  0  0  0  0  0  0  0  0  0  0  0
   37.1970   25.2630   42.6370 O   0  0  0  0  0  0  0  0  0  0  0  0
  1  2  1  0  0  0  0
  1  7  1  0  0  0  0
  2 19  1  0  0  0  0
  3  9  1  0  0  0  0
  3  2  2  0  0  0  0
  4  3  1  0  0  0  0
  5  4  2  0  0  0  0
  5  6  1  0  0  0  0
  6  1  2  0  0  0  0
  8  5  1  0  0  0  0
  9 14  1  0  0  0  0
 10  9  2  0  0  0  0
 10 11  1  0  0  0  0
 11 12  2  0  0  0  0
 12 13  1  0  0  0  0
 12 17  1  0  0  0  0
 13 18  1  0  0  0  0
 14 13  2  0  0  0  0
 15 10  1  0  0  0  0
 16 11  1  0  0  0  0
 19 20  2  0  0  0  0
 19 22  1  0  0  0  0
 21 28  1  0  0  0  0
 22 23  1  0  0  0  0
 22 21  2  0  0  0  0
 23 25  2  0  0  0  0
 24 23  1  0  0  0  0
 25 26  1  0  0  0  0
 25 27  1  0  0  0  0
 28 27  2  0  0  0  0
 29 30  1  0  0  0  0
 30 21  1  0  0  0  0
 30 32  2  0  0  0  0
 30 31  2  0  0  0  0
M  END
>  <minimizedAffinity>
-5.17146969

$$$$

 OpenBabel03252507173D

 32 34  0  0  0  0  0  0  0  0999 V2000
   37.4480   30.0860   37.7220 C   0  0  0  0  0  0  0  0  0  0  0  0
   37.7470   29.6390   39.0280 C   0  0  0  0  0  0  0  0  0  0  0  0
   36.7770   28.9640   39.7320 C   0  0  0  0  0  0  0  0  0  0  0  0
   35.5750   28.7520   39.1610 N   0  0  0  0  0  0  0  0  0  0  0  0
   35.2960   29.1930   37.8930 C   0  0  0  0  0  0  0  0  0  0  0  0
   36.2380   29.8430   37.2150 N   0  0  0  0  0  0  0  0  0  0  0  0
   38.1810   30.6230   37.1270 H   0  0  0  0  0  0  0  0  0  0  0  0
   34.3350   29.0290   37.4240 H   0  0  0  0  0  0  0  0  0  0  0  0
   37.0890   28.5050   41.0720 C   0  0  0  0  0  0  0  0  0  0  0  0
   37.2410   27.1450   41.3120 C   0  0  0  0  0  0  0  0  0  0  0  0
   37.5370   26.7380   42.5920 C   0  0  0  0  0  0  0  0  0  0  0  0
   37.6950   27.6140   43.6630 C   0  0  0  0  0  0  0  0  0  0  0  0
   37.5300   28.9430   43.3460 C   0  0  0  0  0  0  0  0  0  0  0  0
   37.2390   29.3470   42.0910 N   0  0  0  0  0  0  0  0  0  0  0  0
   37.1320   26.3950   40.5200 H   0  0  0  0  0  0  0  0  0  0  0  0
   37.6630   25.6780   42.8180 H   0  0  0  0  0  0  0  0  0  0  0  0
   37.9250   27.3120   44.6650 H   0  0  0  0  0  0  0  0  0  0  0  0
   37.6210   29.7400   44.0700 H   0  0  0  0  0  0  0  0  0  0  0  0
   39.0560   29.9070   39.5660 C   0  0  0  0  0  0  0  0  0  0  0  0
   39.7810   28.8950   39.8410 O   0  0  0  0  0  0  0  0  0  0  0  0
   40.2700   32.0460   38.9930 C   0  0  0  0  0  0  0  0  0  0  0  0
   39.3520   31.3170   39.7170 C   0  0  0  0  0  0  0  0  0  0  0  0
   38.6580   32.0620   40.6770 C   0  0  0  0  0  0  0  0  0  0  0  0
   37.9180   31.5690   41.2930 H   0  0  0  0  0  0  0  0  0  0  0  0
   38.8580   33.4070   40.8970 C   0  0  0  0  0  0  0  0  0  0  0  0
   38.2890   33.9170   41.6520 H   0  0  0  0  0  0  0  0  0  0  0  0
   39.7890   34.0870   40.1430 C   0  0  0  0  0  3  0  0  0  0  0  0
   40.4990   33.3910   39.1820 C   0  0  0  0  0  3  0  0  0  0  0  0
   40.4600   30.3840   36.9920 H   0  0  0  0  0  0  0  0  0  0  0  0
   41.1900   31.2110   37.7820 S   0  0  0  0  0  0  0  0  0  0  0  0
   42.3740   30.4840   38.4000 O   0  0  0  0  0  0  0  0  0  0  0  0
   41.8220   32.2480   36.8730 O   0  0  0  0  0  0  0  0  0  0  0  0
  1  2  1  0  0  0  0
  2 19  1  0  0  0  0
  2  3  2  0  0  0  0
  3  9  1  0  0  0  0
  4  3  1  0  0  0  0
  5  4  2  0  0  0  0
  6  1  2  0  0  0  0
  6  5  1  0  0  0  0
  7  1  1  0  0  0  0
  8  5  1  0  0  0  0
  9 10  2  0  0  0  0
  9 14  1  0  0  0  0
 10 11  1  0  0  0  0
 11 16  1  0  0  0  0
 11 12  2  0  0  0  0
 12 17  1  0  0  0  0
 13 12  1  0  0  0  0
 13 18  1  0  0  0  0
 14 13  2  0  0  0  0
 15 10  1  0  0  0  0
 19 22  1  0  0  0  0
 19 20  2  0  0  0  0
 21 28  2  0  0  0  0
 21 22  1  0  0  0  0
 22 23  2  0  0  0  0
 23 25  1  0  0  0  0
 23 24  1  0  0  0  0
 25 26  1  0  0  0  0
 27 25  2  0  0  0  0
 28 27  1  0  0  0  0
 29 30  1  0  0  0  0
 30 31  2  0  0  0  0
 30 21  1  0  0  0  0
 32 30  2  0  0  0  0
M  END
>  <minimizedAffinity>
-5.06326675

$$$$

 OpenBabel03252507173D

 32 34  0  0  0  0  0  0  0  0999 V2000
   34.6220   29.2870   39.8470 C   0  0  0  0  0  0  0  0  0  0  0  0
   35.9610   29.7000   39.6700 C   0  0  0  0  0  0  0  0  0  0  0  0
   36.4920   29.6900   38.4010 C   0  0  0  0  0  0  0  0  0  0  0  0
   35.7260   29.2870   37.3680 N   0  0  0  0  0  0  0  0  0  0  0  0
   34.4270   28.8870   37.5530 C   0  0  0  0  0  0  0  0  0  0  0  0
   33.9170   28.9000   38.7810 N   0  0  0  0  0  0  0  0  0  0  0  0
   34.1590   29.2790   40.8290 H   0  0  0  0  0  0  0  0  0  0  0  0
   33.8020   28.5610   36.7320 H   0  0  0  0  0  0  0  0  0  0  0  0
   37.8670   30.1160   38.2250 C   0  0  0  0  0  0  0  0  0  0  0  0
   38.1500   31.4670   38.0650 C   0  0  0  0  0  0  0  0  0  0  0  0
   39.4630   31.8420   37.9000 C   0  0  0  0  0  0  0  0  0  0  0  0
   40.5270   30.9440   37.8840 C   0  0  0  0  0  0  0  0  0  0  0  0
   40.1660   29.6260   38.0480 C   0  0  0  0  0  0  0  0  0  0  0  0
   38.8790   29.2520   38.2110 N   0  0  0  0  0  0  0  0  0  0  0  0
   37.3670   32.2340   38.0660 H   0  0  0  0  0  0  0  0  0  0  0  0
   39.7230   32.8940   37.7710 H   0  0  0  0  0  0  0  0  0  0  0  0
   41.5540   31.2210   37.7560 H   0  0  0  0  0  0  0  0  0  0  0  0
   40.8800   28.8140   38.0580 H   0  0  0  0  0  0  0  0  0  0  0  0
   36.7130   30.1150   40.8260 C   0  0  0  0  0  0  0  0  0  0  0  0
   36.7440   31.3660   41.0710 O   0  0  0  0  0  0  0  0  0  0  0  0
   38.6330   28.9690   41.9980 C   0  0  0  0  0  0  0  0  0  0  0  0
   37.3330   29.0230   41.5480 C   0  0  0  0  0  0  0  0  0  0  0  0
   36.5740   27.8860   41.8490 C   0  0  0  0  0  0  0  0  0  0  0  0
   35.5410   27.8420   41.5320 H   0  0  0  0  0  0  0  0  0  0  0  0
   37.0640   26.7960   42.5360 C   0  0  0  0  0  0  0  0  0  0  0  0
   36.4240   25.9560   42.7330 H   0  0  0  0  0  0  0  0  0  0  0  0
   38.3720   26.7950   42.9640 C   0  0  0  0  0  3  0  0  0  0  0  0
   39.1600   27.8980   42.6880 C   0  0  0  0  0  3  0  0  0  0  0  0
   39.2080   31.1470   40.6850 H   0  0  0  0  0  0  0  0  0  0  0  0
   39.6600   30.3270   41.6660 S   0  0  0  0  0  0  0  0  0  0  0  0
   41.0890   29.8790   41.4000 O   0  0  0  0  0  0  0  0  0  0  0  0
   39.7600   31.1610   42.9300 O   0  0  0  0  0  0  0  0  0  0  0  0
  1  7  1  0  0  0  0
  2  1  1  0  0  0  0
  2 19  1  0  0  0  0
  3  2  2  0  0  0  0
  4  5  2  0  0  0  0
  4  3  1  0  0  0  0
  5  6  1  0  0  0  0
  6  1  2  0  0  0  0
  8  5  1  0  0  0  0
  9  3  1  0  0  0  0
 10 15  1  0  0  0  0
 10  9  2  0  0  0  0
 11 10  1  0  0  0  0
 12 11  2  0  0  0  0
 12 13  1  0  0  0  0
 13 18  1  0  0  0  0
 13 14  2  0  0  0  0
 14  9  1  0  0  0  0
 16 11  1  0  0  0  0
 17 12  1  0  0  0  0
 19 20  2  0  0  0  0
 19 22  1  0  0  0  0
 21 28  1  0  0  0  0
 22 23  1  0  0  0  0
 22 21  2  0  0  0  0
 23 25  2  0  0  0  0
 24 23  1  0  0  0  0
 25 26  1  0  0  0  0
 25 27  1  0  0  0  0
 28 27  2  0  0  0  0
 29 30  1  0  0  0  0
 30 21  1  0  0  0  0
 30 32  2  0  0  0  0
 31 30  2  0  0  0  0
M  END
>  <minimizedAffinity>
-5.06090307

$$$$

 OpenBabel03252507173D

 32 34  0  0  0  0  0  0  0  0999 V2000
   36.0350   26.8430   38.3600 C   0  0  0  0  0  0  0  0  0  0  0  0
   36.7280   28.0190   38.7250 C   0  0  0  0  0  0  0  0  0  0  0  0
   36.1910   29.2360   38.3740 C   0  0  0  0  0  0  0  0  0  0  0  0
   35.0270   29.2730   37.6950 N   0  0  0  0  0  0  0  0  0  0  0  0
   34.3650   28.1250   37.3460 C   0  0  0  0  0  0  0  0  0  0  0  0
   34.8870   26.9500   37.6890 N   0  0  0  0  0  0  0  0  0  0  0  0
   36.4190   25.8600   38.6150 H   0  0  0  0  0  0  0  0  0  0  0  0
   33.4300   28.1410   36.8020 H   0  0  0  0  0  0  0  0  0  0  0  0
   36.9050   30.4400   38.7520 C   0  0  0  0  0  0  0  0  0  0  0  0
   36.5150   31.1410   39.8870 C   0  0  0  0  0  0  0  0  0  0  0  0
   37.2110   32.2800   40.2210 C   0  0  0  0  0  0  0  0  0  0  0  0
   38.2860   32.7710   39.4860 C   0  0  0  0  0  0  0  0  0  0  0  0
   38.6120   32.0230   38.3770 C   0  0  0  0  0  0  0  0  0  0  0  0
   37.9320   30.9040   38.0450 N   0  0  0  0  0  0  0  0  0  0  0  0
   35.6790   30.8170   40.5160 H   0  0  0  0  0  0  0  0  0  0  0  0
   36.9320   32.8550   41.1050 H   0  0  0  0  0  0  0  0  0  0  0  0
   38.8360   33.6560   39.7330 H   0  0  0  0  0  0  0  0  0  0  0  0
   39.4220   32.2780   37.7090 H   0  0  0  0  0  0  0  0  0  0  0  0
   37.9670   27.8940   39.4480 C   0  0  0  0  0  0  0  0  0  0  0  0
   39.0140   27.6670   38.7570 O   0  0  0  0  0  0  0  0  0  0  0  0
   38.6340   28.7990   41.7090 C   0  0  0  0  0  0  0  0  0  0  0  0
   37.8290   28.0470   40.8820 C   0  0  0  0  0  0  0  0  0  0  0  0
   36.7850   27.3890   41.5420 C   0  0  0  0  0  0  0  0  0  0  0  0
   36.1040   26.7740   40.9690 H   0  0  0  0  0  0  0  0  0  0  0  0
   36.5610   27.4730   42.8990 C   0  0  0  0  0  0  0  0  0  0  0  0
   35.7390   26.9410   43.3400 H   0  0  0  0  0  0  0  0  0  0  0  0
   37.3960   28.2410   43.6790 C   0  0  0  0  0  3  0  0  0  0  0  0
   38.4430   28.9080   43.0690 C   0  0  0  0  0  3  0  0  0  0  0  0
   39.7590   30.0260   39.7010 H   0  0  0  0  0  0  0  0  0  0  0  0
   39.9640   29.6480   40.9880 S   0  0  0  0  0  0  0  0  0  0  0  0
   41.2570   28.8610   41.1350 O   0  0  0  0  0  0  0  0  0  0  0  0
   40.2040   30.9140   41.7890 O   0  0  0  0  0  0  0  0  0  0  0  0
  1  7  1  0  0  0  0
  1  2  1  0  0  0  0
  2 19  1  0  0  0  0
  3  2  2  0  0  0  0
  3  9  1  0  0  0  0
  4  3  1  0  0  0  0
  5  6  1  0  0  0  0
  5  4  2  0  0  0  0
  6  1  2  0  0  0  0
  8  5  1  0  0  0  0
  9 10  1  0  0  0  0
 10 11  2  0  0  0  0
 10 15  1  0  0  0  0
 11 16  1  0  0  0  0
 12 17  1  0  0  0  0
 12 11  1  0  0  0  0
 13 12  2  0  0  0  0
 14 13  1  0  0  0  0
 14  9  2  0  0  0  0
 18 13  1  0  0  0  0
 19 22  1  0  0  0  0
 20 19  2  0  0  0  0
 21 28  1  0  0  0  0
 22 23  1  0  0  0  0
 22 21  2  0  0  0  0
 23 25  2  0  0  0  0
 24 23  1  0  0  0  0
 25 26  1  0  0  0  0
 25 27  1  0  0  0  0
 28 27  2  0  0  0  0
 29 30  1  0  0  0  0
 30 31  2  0  0  0  0
 30 21  1  0  0  0  0
 30 32  2  0  0  0  0
M  END
>  <minimizedAffinity>
-5.0130682

$$$$

 OpenBabel03252507173D

 32 34  0  0  0  0  0  0  0  0999 V2000
   37.0880   26.8720   41.5130 C   0  0  0  0  0  0  0  0  0  0  0  0
   37.4040   28.1170   40.9240 C   0  0  0  0  0  0  0  0  0  0  0  0
   37.5500   29.2140   41.7400 C   0  0  0  0  0  0  0  0  0  0  0  0
   37.3850   29.0740   43.0710 N   0  0  0  0  0  0  0  0  0  0  0  0
   37.0770   27.8600   43.6300 C   0  0  0  0  0  0  0  0  0  0  0  0
   36.9390   26.8010   42.8370 N   0  0  0  0  0  0  0  0  0  0  0  0
   36.9630   25.9780   40.9100 H   0  0  0  0  0  0  0  0  0  0  0  0
   36.9430   27.7350   44.6970 H   0  0  0  0  0  0  0  0  0  0  0  0
   37.8770   30.4890   41.1310 C   0  0  0  0  0  0  0  0  0  0  0  0
   36.8560   31.3020   40.6540 C   0  0  0  0  0  0  0  0  0  0  0  0
   37.1950   32.5060   40.0810 C   0  0  0  0  0  0  0  0  0  0  0  0
   38.5060   32.9570   39.9530 C   0  0  0  0  0  0  0  0  0  0  0  0
   39.4590   32.0980   40.4490 C   0  0  0  0  0  0  0  0  0  0  0  0
   39.1310   30.9150   41.0130 N   0  0  0  0  0  0  0  0  0  0  0  0
   35.8000   31.0150   40.7190 H   0  0  0  0  0  0  0  0  0  0  0  0
   36.4200   33.1690   39.6950 H   0  0  0  0  0  0  0  0  0  0  0  0
   38.7850   33.8910   39.5090 H   0  0  0  0  0  0  0  0  0  0  0  0
   40.5190   32.3090   40.4210 H   0  0  0  0  0  0  0  0  0  0  0  0
   37.5620   28.1830   39.4940 C   0  0  0  0  0  0  0  0  0  0  0  0
   38.7370   28.4140   39.0570 O   0  0  0  0  0  0  0  0  0  0  0  0
   36.0030   26.8680   38.0050 C   0  0  0  0  0  0  0  0  0  0  0  0
   36.3330   27.9740   38.7570 C   0  0  0  0  0  0  0  0  0  0  0  0
   35.3430   28.9630   38.7830 C   0  0  0  0  0  0  0  0  0  0  0  0
   35.5180   29.8690   39.3500 H   0  0  0  0  0  0  0  0  0  0  0  0
   34.1380   28.8620   38.1240 C   0  0  0  0  0  0  0  0  0  0  0  0
   33.4230   29.6620   38.1880 H   0  0  0  0  0  0  0  0  0  0  0  0
   33.8600   27.7330   37.3860 C   0  0  0  0  0  3  0  0  0  0  0  0
   34.8100   26.7290   37.3310 C   0  0  0  0  0  3  0  0  0  0  0  0
   38.4350   25.9510   38.2200 H   0  0  0  0  0  0  0  0  0  0  0  0
   37.1680   25.5870   37.9000 S   0  0  0  0  0  0  0  0  0  0  0  0
   37.1130   24.9080   36.5410 O   0  0  0  0  0  0  0  0  0  0  0  0
   36.7610   24.5000   38.8770 O   0  0  0  0  0  0  0  0  0  0  0  0
  1  6  1  0  0  0  0
  2  1  2  0  0  0  0
  2  3  1  0  0  0  0
  3  4  2  0  0  0  0
  4  5  1  0  0  0  0
  5  8  1  0  0  0  0
  6  5  2  0  0  0  0
  7  1  1  0  0  0  0
  9  3  1  0  0  0  0
 10 15  1  0  0  0  0
 10  9  2  0  0  0  0
 11 10  1  0  0  0  0
 12 11  2  0  0  0  0
 12 13  1  0  0  0  0
 13 14  2  0  0  0  0
 14  9  1  0  0  0  0
 16 11  1  0  0  0  0
 17 12  1  0  0  0  0
 18 13  1  0  0  0  0
 19  2  1  0  0  0  0
 20 19  2  0  0  0  0
 21 22  1  0  0  0  0
 22 23  2  0  0  0  0
 22 19  1  0  0  0  0
 23 24  1  0  0  0  0
 25 26  1  0  0  0  0
 25 23  1  0  0  0  0
 27 25  2  0  0  0  0
 28 27  1  0  0  0  0
 28 21  2  0  0  0  0
 30 21  1  0  0  0  0
 30 29  1  0  0  0  0
 30 32  2  0  0  0  0
 31 30  2  0  0  0  0
M  END
>  <minimizedAffinity>
-4.95781374

$$$$
