REMARK  Name = 
REMARK  4 active torsions:
REMARK  status: ('A' for Active; 'I' for Inactive)
REMARK    1  A    between atoms: C_2  and  C_13
REMARK    2  A    between atoms: C_3  and  C_7
REMARK    3  A    between atoms: C_13  and  C_26
REMARK    4  A    between atoms: S_22  and  C_25
REMARK                            x       y       z     vdW  Elec       q    Type
REMARK                         _______ _______ _______ _____ _____    ______ ____
ROOT
ATOM      1  C   UNL     1      45.259  36.157  43.169  0.00  0.00    +0.000 A 
ATOM      2  C   UNL     1      45.864  34.906  42.915  0.00  0.00    +0.000 A 
ATOM      3  C   UNL     1      45.834  33.947  43.901  0.00  0.00    +0.000 A 
ATOM      4  N   UNL     1      45.234  34.226  45.075  0.00  0.00    +0.000 NA
ATOM      5  C   UNL     1      44.651  35.445  45.310  0.00  0.00    +0.000 A 
ATOM      6  N   UNL     1      44.681  36.369  44.353  0.00  0.00    +0.000 NA
ATOM      7  H   UNL     1      45.257  36.945  42.422  0.00  0.00    +0.000 HD
ATOM      8  H   UNL     1      44.166  35.681  46.248  0.00  0.00    +0.000 HD
ENDROOT
BRANCH   3   9
ATOM      9  C   UNL     1      46.455  32.664  43.635  0.00  0.00    +0.000 A 
ATOM     10  C   UNL     1      45.661  31.576  43.295  0.00  0.00    +0.000 A 
ATOM     11  C   UNL     1      46.277  30.371  43.048  0.00  0.00    +0.000 A 
ATOM     12  C   UNL     1      47.654  30.180  43.119  0.00  0.00    +0.000 A 
ATOM     13  C   UNL     1      48.372  31.303  43.461  0.00  0.00    +0.000 A 
ATOM     14  N   UNL     1      47.772  32.488  43.704  0.00  0.00    +0.000 NA
ATOM     15  H   UNL     1      44.570  31.648  43.219  0.00  0.00    +0.000 HD
ATOM     16  H   UNL     1      45.685  29.495  42.779  0.00  0.00    +0.000 HD
ATOM     17  H   UNL     1      48.148  29.248  42.930  0.00  0.00    +0.000 HD
ATOM     18  H   UNL     1      49.449  31.311  43.556  0.00  0.00    +0.000 HD
ENDBRANCH   3   9
BRANCH   2  19
ATOM     19  C   UNL     1      46.486  34.688  41.635  0.00  0.00    +0.000 C 
ATOM     20  O   UNL     1      47.670  35.138  41.489  0.00  0.00    +0.000 OA
BRANCH  19  22
ATOM     21  C   UNL     1      45.976  33.648  39.391  0.00  0.00    +0.000 A 
ATOM     22  C   UNL     1      45.652  33.976  40.689  0.00  0.00    +0.000 A 
ATOM     23  C   UNL     1      44.380  33.549  41.087  0.00  0.00    +0.000 A 
ATOM     24  H   UNL     1      44.042  33.764  42.092  0.00  0.00    +0.000 HD
ATOM     25  C   UNL     1      43.511  32.860  40.269  0.00  0.00    +0.000 A 
ATOM     26  H   UNL     1      42.548  32.562  40.641  0.00  0.00    +0.000 HD
ATOM     27  C   UNL     1      43.887  32.558  38.979  0.00  0.00    +0.000 A 
ATOM     28  C   UNL     1      45.136  32.961  38.543  0.00  0.00    +0.000 A 
BRANCH  21  30
ATOM     29  H   UNL     1      48.408  34.512  39.762  0.00  0.00    +0.000 HD
ATOM     30  S   UNL     1      47.530  34.142  38.798  0.00  0.00    +0.000 S 
ATOM     31  O   UNL     1      47.392  35.217  37.731  0.00  0.00    +0.000 OA
ATOM     32  O   UNL     1      48.148  32.967  38.065  0.00  0.00    +0.000 OA
ENDBRANCH  21  30
ENDBRANCH  19  22
ENDBRANCH   2  19
TORSDOF 4
