
 OpenBabel03252506223D

 38 40  0  0  0  0  0  0  0  0999 V2000
   39.1940   33.2090   40.5040 C   0  0  0  0  0  0  0  0  0  0  0  0
   38.4940   34.4230   40.3640 C   0  0  0  0  0  0  0  0  0  0  0  0
   39.2470   35.5760   40.1110 C   0  0  0  0  0  0  0  0  0  0  0  0
   40.5940   35.4740   40.0130 N   0  0  0  0  0  0  0  0  0  0  0  0
   41.2200   34.2900   40.1540 C   0  0  0  0  0  0  0  0  0  0  0  0
   40.5300   33.1550   40.3990 N   0  0  0  0  0  0  0  0  0  0  0  0
   37.4310   34.3940   40.4600 H   0  0  0  0  0  0  0  0  0  0  0  0
   38.7140   36.5130   40.0020 H   0  0  0  0  0  0  0  0  0  0  0  0
   42.2690   33.8570   37.3490 Cl  0  0  0  0  0  0  0  0  0  0  0  0
   43.2380   34.0720   38.7680 C   0  0  0  0  0  0  0  0  0  0  0  0
   42.6910   34.2680   40.0320 C   0  0  0  0  0  0  0  0  0  0  0  0
   43.4380   34.4410   41.1620 C   0  0  0  0  0  0  0  0  0  0  0  0
   44.8010   34.4140   41.0200 C   0  0  0  0  0  0  0  0  0  0  0  0
   45.4490   34.2300   39.8240 C   0  0  0  0  0  0  0  0  0  0  0  0
   44.6140   34.0640   38.7350 C   0  0  0  0  0  0  0  0  0  0  0  0
   43.0150   34.5910   42.1400 H   0  0  0  0  0  0  0  0  0  0  0  0
   45.4160   34.5510   41.9150 H   0  0  0  0  0  0  0  0  0  0  0  0
   46.5300   34.2090   39.7110 H   0  0  0  0  0  0  0  0  0  0  0  0
   45.0880   33.9120   37.7550 H   0  0  0  0  0  0  0  0  0  0  0  0
   38.4100   31.9890   40.7710 C   0  0  0  0  0  3  0  0  0  0  0  0
   38.9650   31.0390   41.4890 C   0  0  0  0  0  3  0  0  0  0  0  0
   38.1930   29.7980   41.7720 C   0  0  0  0  0  0  0  0  0  0  0  0
   38.7820   28.9730   41.2950 H   0  0  0  0  0  0  0  0  0  0  0  0
   37.1730   29.8050   41.3880 H   0  0  0  0  0  0  0  0  0  0  0  0
   38.2390   29.5800   43.2170 N   0  0  0  0  0  0  0  0  0  0  0  0
   39.2210   29.4000   43.5180 H   0  0  0  0  0  0  0  0  0  0  0  0
   37.3660   28.0890   43.4740 S   0  0  0  0  0  0  0  0  0  0  0  0
   36.7410   28.0620   44.8250 O   0  0  0  0  0  0  0  0  0  0  0  0
   36.3270   28.0200   42.3890 O   0  0  0  0  0  0  0  0  0  0  0  0
   38.4980   26.7700   43.2380 C   0  0  0  0  0  0  0  0  0  0  0  0
   38.1990   25.6900   42.4280 C   0  0  0  0  0  0  0  0  0  0  0  0
   37.2310   25.6360   41.9090 H   0  0  0  0  0  0  0  0  0  0  0  0
   39.0770   24.6630   42.2430 C   0  0  0  0  0  0  0  0  0  0  0  0
   38.8970   23.7960   41.6240 H   0  0  0  0  0  0  0  0  0  0  0  0
   40.2900   24.7810   42.9230 C   0  0  0  0  0  0  0  0  0  0  0  0
   41.0050   23.9550   42.7790 H   0  0  0  0  0  0  0  0  0  0  0  0
   40.6460   25.8410   43.7490 C   0  0  0  0  0  3  0  0  0  0  0  0
   39.7080   26.8620   43.9000 C   0  0  0  0  0  3  0  0  0  0  0  0
  1 20  1  0  0  0  0
  2  7  1  0  0  0  0
  2  1  2  0  0  0  0
  3  2  1  0  0  0  0
  4  3  2  0  0  0  0
  4  5  1  0  0  0  0
  5  6  2  0  0  0  0
  6  1  1  0  0  0  0
  8  3  1  0  0  0  0
  9 10  1  0  0  0  0
 10 11  1  0  0  0  0
 11  5  1  0  0  0  0
 11 12  2  0  0  0  0
 12 16  1  0  0  0  0
 13 12  1  0  0  0  0
 13 17  1  0  0  0  0
 14 13  2  0  0  0  0
 15 10  2  0  0  0  0
 15 14  1  0  0  0  0
 18 14  1  0  0  0  0
 19 15  1  0  0  0  0
 20 21  2  0  0  0  0
 21 22  1  0  0  0  0
 22 25  1  0  0  0  0
 23 22  1  0  0  0  0
 24 22  1  0  0  0  0
 25 27  1  0  0  0  0
 25 26  1  0  0  0  0
 27 28  2  0  0  0  0
 29 27  2  0  0  0  0
 30 27  1  0  0  0  0
 30 38  1  0  0  0  0
 31 30  2  0  0  0  0
 32 31  1  0  0  0  0
 33 31  1  0  0  0  0
 33 35  2  0  0  0  0
 34 33  1  0  0  0  0
 35 37  1  0  0  0  0
 36 35  1  0  0  0  0
 37 38  2  0  0  0  0
M  END
>  <minimizedAffinity>
-6.65085125

$$$$

 OpenBabel03252506223D

 38 40  0  0  0  0  0  0  0  0999 V2000
   39.3690   31.6390   39.2080 C   0  0  0  0  0  0  0  0  0  0  0  0
   39.7680   31.5690   37.8600 C   0  0  0  0  0  0  0  0  0  0  0  0
   40.8250   32.3960   37.4580 C   0  0  0  0  0  0  0  0  0  0  0  0
   41.4060   33.2110   38.3700 N   0  0  0  0  0  0  0  0  0  0  0  0
   40.9900   33.2430   39.6490 C   0  0  0  0  0  0  0  0  0  0  0  0
   39.9730   32.4620   40.0770 N   0  0  0  0  0  0  0  0  0  0  0  0
   39.2430   30.8930   37.2230 H   0  0  0  0  0  0  0  0  0  0  0  0
   41.1390   32.3470   36.4220 H   0  0  0  0  0  0  0  0  0  0  0  0
   39.6910   35.9580   39.9710 Cl  0  0  0  0  0  0  0  0  0  0  0  0
   41.1320   35.4260   40.7700 C   0  0  0  0  0  0  0  0  0  0  0  0
   41.6780   34.1610   40.5780 C   0  0  0  0  0  0  0  0  0  0  0  0
   42.8130   33.7230   41.1990 C   0  0  0  0  0  0  0  0  0  0  0  0
   43.4330   34.5960   42.0550 C   0  0  0  0  0  0  0  0  0  0  0  0
   42.9840   35.8660   42.3210 C   0  0  0  0  0  0  0  0  0  0  0  0
   41.8310   36.2230   41.6490 C   0  0  0  0  0  0  0  0  0  0  0  0
   43.2360   32.7450   41.0490 H   0  0  0  0  0  0  0  0  0  0  0  0
   44.3430   34.2620   42.5620 H   0  0  0  0  0  0  0  0  0  0  0  0
   43.4760   36.5580   43.0000 H   0  0  0  0  0  0  0  0  0  0  0  0
   41.4330   37.2310   41.8300 H   0  0  0  0  0  0  0  0  0  0  0  0
   38.2550   30.7730   39.6410 C   0  0  0  0  0  3  0  0  0  0  0  0
   37.7500   30.9640   40.8390 C   0  0  0  0  0  3  0  0  0  0  0  0
   36.6270   30.1020   41.2980 C   0  0  0  0  0  0  0  0  0  0  0  0
   36.7060   29.1670   40.6850 H   0  0  0  0  0  0  0  0  0  0  0  0
   35.6390   30.5480   41.1790 H   0  0  0  0  0  0  0  0  0  0  0  0
   36.9030   29.7320   42.6860 N   0  0  0  0  0  0  0  0  0  0  0  0
   37.7920   30.1780   43.0010 H   0  0  0  0  0  0  0  0  0  0  0  0
   37.2040   28.0130   42.6400 S   0  0  0  0  0  0  0  0  0  0  0  0
   36.2830   27.2850   43.5560 O   0  0  0  0  0  0  0  0  0  0  0  0
   37.0040   27.5900   41.2110 O   0  0  0  0  0  0  0  0  0  0  0  0
   38.8900   27.7640   43.0570 C   0  0  0  0  0  0  0  0  0  0  0  0
   39.3060   26.6630   43.7840 C   0  0  0  0  0  0  0  0  0  0  0  0
   38.5760   25.9120   44.1200 H   0  0  0  0  0  0  0  0  0  0  0  0
   40.6160   26.4670   44.1100 C   0  0  0  0  0  0  0  0  0  0  0  0
   40.9960   25.6280   44.6740 H   0  0  0  0  0  0  0  0  0  0  0  0
   41.4990   27.4490   43.6590 C   0  0  0  0  0  0  0  0  0  0  0  0
   42.5590   27.2980   43.9180 H   0  0  0  0  0  0  0  0  0  0  0  0
   41.1410   28.5750   42.9260 C   0  0  0  0  0  3  0  0  0  0  0  0
   39.7870   28.7220   42.6230 C   0  0  0  0  0  3  0  0  0  0  0  0
  1 20  1  0  0  0  0
  1  6  1  0  0  0  0
  2  1  2  0  0  0  0
  3  2  1  0  0  0  0
  3  4  2  0  0  0  0
  4  5  1  0  0  0  0
  5  6  2  0  0  0  0
  5 11  1  0  0  0  0
  7  2  1  0  0  0  0
  8  3  1  0  0  0  0
  9 10  1  0  0  0  0
 10 15  1  0  0  0  0
 11 10  2  0  0  0  0
 11 12  1  0  0  0  0
 12 13  2  0  0  0  0
 13 14  1  0  0  0  0
 13 17  1  0  0  0  0
 14 18  1  0  0  0  0
 15 19  1  0  0  0  0
 15 14  2  0  0  0  0
 16 12  1  0  0  0  0
 20 21  2  0  0  0  0
 21 22  1  0  0  0  0
 22 25  1  0  0  0  0
 23 22  1  0  0  0  0
 24 22  1  0  0  0  0
 25 26  1  0  0  0  0
 27 25  1  0  0  0  0
 27 30  1  0  0  0  0
 27 28  2  0  0  0  0
 29 27  2  0  0  0  0
 30 31  1  0  0  0  0
 31 33  2  0  0  0  0
 31 32  1  0  0  0  0
 33 34  1  0  0  0  0
 35 36  1  0  0  0  0
 35 33  1  0  0  0  0
 37 35  2  0  0  0  0
 38 37  1  0  0  0  0
 38 30  2  0  0  0  0
M  END
>  <minimizedAffinity>
-6.54157066

$$$$

 OpenBabel03252506223D

 38 40  0  0  0  0  0  0  0  0999 V2000
   39.2500   33.0710   40.6490 C   0  0  0  0  0  0  0  0  0  0  0  0
   38.5020   34.2480   40.4560 C   0  0  0  0  0  0  0  0  0  0  0  0
   39.2070   35.4110   40.1210 C   0  0  0  0  0  0  0  0  0  0  0  0
   40.5550   35.3510   39.9990 N   0  0  0  0  0  0  0  0  0  0  0  0
   41.2270   34.2020   40.1930 C   0  0  0  0  0  0  0  0  0  0  0  0
   40.5840   33.0590   40.5180 N   0  0  0  0  0  0  0  0  0  0  0  0
   37.4430   34.1870   40.5770 H   0  0  0  0  0  0  0  0  0  0  0  0
   38.6380   36.3210   39.9700 H   0  0  0  0  0  0  0  0  0  0  0  0
   42.2300   33.7860   37.3680 Cl  0  0  0  0  0  0  0  0  0  0  0  0
   43.2200   34.0400   38.7650 C   0  0  0  0  0  0  0  0  0  0  0  0
   42.6950   34.2250   40.0400 C   0  0  0  0  0  0  0  0  0  0  0  0
   43.4590   34.4270   41.1530 C   0  0  0  0  0  0  0  0  0  0  0  0
   44.8200   34.4420   40.9820 C   0  0  0  0  0  0  0  0  0  0  0  0
   45.4470   34.2720   39.7730 C   0  0  0  0  0  0  0  0  0  0  0  0
   44.5950   34.0740   38.7030 C   0  0  0  0  0  0  0  0  0  0  0  0
   43.0530   34.5690   42.1390 H   0  0  0  0  0  0  0  0  0  0  0  0
   45.4480   34.6030   41.8630 H   0  0  0  0  0  0  0  0  0  0  0  0
   46.5260   34.2840   39.6370 H   0  0  0  0  0  0  0  0  0  0  0  0
   45.0530   33.9320   37.7140 H   0  0  0  0  0  0  0  0  0  0  0  0
   38.5160   31.8410   41.0030 C   0  0  0  0  0  3  0  0  0  0  0  0
   37.2600   31.7390   40.6340 C   0  0  0  0  0  3  0  0  0  0  0  0
   36.4990   30.5070   40.9810 C   0  0  0  0  0  0  0  0  0  0  0  0
   36.8480   29.7330   40.2490 H   0  0  0  0  0  0  0  0  0  0  0  0
   35.4160   30.6170   40.9270 H   0  0  0  0  0  0  0  0  0  0  0  0
   36.9480   30.0790   42.3050 N   0  0  0  0  0  0  0  0  0  0  0  0
   37.8720   30.5100   42.5230 H   0  0  0  0  0  0  0  0  0  0  0  0
   37.2290   28.3630   42.1510 S   0  0  0  0  0  0  0  0  0  0  0  0
   36.2000   27.5850   42.8950 O   0  0  0  0  0  0  0  0  0  0  0  0
   37.1850   28.0610   40.6790 O   0  0  0  0  0  0  0  0  0  0  0  0
   38.8530   28.0420   42.7310 C   0  0  0  0  0  0  0  0  0  0  0  0
   39.9170   28.8650   42.4110 C   0  0  0  0  0  0  0  0  0  0  0  0
   39.7630   29.7500   41.7750 H   0  0  0  0  0  0  0  0  0  0  0  0
   41.1810   28.6170   42.8600 C   0  0  0  0  0  0  0  0  0  0  0  0
   42.0470   29.2250   42.6410 H   0  0  0  0  0  0  0  0  0  0  0  0
   41.3210   27.4840   43.6610 C   0  0  0  0  0  0  0  0  0  0  0  0
   42.3390   27.2780   44.0280 H   0  0  0  0  0  0  0  0  0  0  0  0
   40.2920   26.6210   44.0160 C   0  0  0  0  0  3  0  0  0  0  0  0
   39.0210   26.9240   43.5280 C   0  0  0  0  0  3  0  0  0  0  0  0
  1 20  1  0  0  0  0
  2  7  1  0  0  0  0
  2  1  2  0  0  0  0
  3  2  1  0  0  0  0
  4  3  2  0  0  0  0
  4  5  1  0  0  0  0
  5  6  2  0  0  0  0
  6  1  1  0  0  0  0
  8  3  1  0  0  0  0
  9 10  1  0  0  0  0
 10 11  1  0  0  0  0
 11  5  1  0  0  0  0
 11 12  2  0  0  0  0
 12 16  1  0  0  0  0
 13 12  1  0  0  0  0
 13 17  1  0  0  0  0
 14 13  2  0  0  0  0
 15 10  2  0  0  0  0
 15 14  1  0  0  0  0
 18 14  1  0  0  0  0
 19 15  1  0  0  0  0
 21 22  1  0  0  0  0
 21 20  2  0  0  0  0
 22 25  1  0  0  0  0
 23 22  1  0  0  0  0
 24 22  1  0  0  0  0
 25 26  1  0  0  0  0
 27 25  1  0  0  0  0
 27 30  1  0  0  0  0
 27 28  2  0  0  0  0
 29 27  2  0  0  0  0
 30 38  1  0  0  0  0
 31 30  2  0  0  0  0
 31 33  1  0  0  0  0
 32 31  1  0  0  0  0
 33 35  2  0  0  0  0
 34 33  1  0  0  0  0
 35 37  1  0  0  0  0
 35 36  1  0  0  0  0
 38 37  2  0  0  0  0
M  END
>  <minimizedAffinity>
-6.41852474

$$$$

 OpenBabel03252506223D

 38 40  0  0  0  0  0  0  0  0999 V2000
   37.2360   30.4770   40.1970 C   0  0  0  0  0  0  0  0  0  0  0  0
   35.9470   30.0120   39.8740 C   0  0  0  0  0  0  0  0  0  0  0  0
   35.6000   28.7230   40.3000 C   0  0  0  0  0  0  0  0  0  0  0  0
   36.5080   27.9940   40.9920 N   0  0  0  0  0  0  0  0  0  0  0  0
   37.7300   28.4810   41.2770 C   0  0  0  0  0  0  0  0  0  0  0  0
   38.1020   29.7190   40.8840 N   0  0  0  0  0  0  0  0  0  0  0  0
   35.3080   30.6680   39.3240 H   0  0  0  0  0  0  0  0  0  0  0  0
   34.6100   28.3600   40.0560 H   0  0  0  0  0  0  0  0  0  0  0  0
   37.2140   28.3520   44.2570 Cl  0  0  0  0  0  0  0  0  0  0  0  0
   38.4740   27.5170   43.4120 C   0  0  0  0  0  0  0  0  0  0  0  0
   38.6570   27.6190   42.0360 C   0  0  0  0  0  0  0  0  0  0  0  0
   39.6440   26.9680   41.3520 C   0  0  0  0  0  0  0  0  0  0  0  0
   40.4910   26.1750   42.0830 C   0  0  0  0  0  0  0  0  0  0  0  0
   40.4040   25.9990   43.4420 C   0  0  0  0  0  0  0  0  0  0  0  0
   39.3770   26.6960   44.0490 C   0  0  0  0  0  0  0  0  0  0  0  0
   39.7850   27.0480   40.2890 H   0  0  0  0  0  0  0  0  0  0  0  0
   41.2870   25.6460   41.5510 H   0  0  0  0  0  0  0  0  0  0  0  0
   41.0760   25.3710   44.0200 H   0  0  0  0  0  0  0  0  0  0  0  0
   39.2680   26.5860   45.1370 H   0  0  0  0  0  0  0  0  0  0  0  0
   37.6100   31.8330   39.7520 C   0  0  0  0  0  3  0  0  0  0  0  0
   38.0430   32.6850   40.6530 C   0  0  0  0  0  3  0  0  0  0  0  0
   38.4260   34.0590   40.2280 C   0  0  0  0  0  0  0  0  0  0  0  0
   37.5250   34.6910   40.4390 H   0  0  0  0  0  0  0  0  0  0  0  0
   38.7090   34.1430   39.1790 H   0  0  0  0  0  0  0  0  0  0  0  0
   39.4880   34.5100   41.1260 N   0  0  0  0  0  0  0  0  0  0  0  0
   39.2070   35.4020   41.5880 H   0  0  0  0  0  0  0  0  0  0  0  0
   40.8280   34.8990   40.0770 S   0  0  0  0  0  0  0  0  0  0  0  0
   41.0290   33.8390   39.0510 O   0  0  0  0  0  0  0  0  0  0  0  0
   40.4930   36.2200   39.4410 O   0  0  0  0  0  0  0  0  0  0  0  0
   42.2420   35.1200   41.0910 C   0  0  0  0  0  0  0  0  0  0  0  0
   42.2660   36.0480   42.1160 C   0  0  0  0  0  0  0  0  0  0  0  0
   41.3860   36.6750   42.3180 H   0  0  0  0  0  0  0  0  0  0  0  0
   43.3650   36.2220   42.9060 C   0  0  0  0  0  0  0  0  0  0  0  0
   43.4390   36.9300   43.7180 H   0  0  0  0  0  0  0  0  0  0  0  0
   44.4540   35.4010   42.6080 C   0  0  0  0  0  0  0  0  0  0  0  0
   45.3450   35.5360   43.2410 H   0  0  0  0  0  0  0  0  0  0  0  0
   44.4890   34.4530   41.5920 C   0  0  0  0  0  3  0  0  0  0  0  0
   43.3360   34.3200   40.8170 C   0  0  0  0  0  3  0  0  0  0  0  0
  1  6  1  0  0  0  0
  2  1  2  0  0  0  0
  2  3  1  0  0  0  0
  3  4  2  0  0  0  0
  4  5  1  0  0  0  0
  5 11  1  0  0  0  0
  6  5  2  0  0  0  0
  7  2  1  0  0  0  0
  8  3  1  0  0  0  0
 10 15  1  0  0  0  0
 10  9  1  0  0  0  0
 11 10  2  0  0  0  0
 12 11  1  0  0  0  0
 12 13  2  0  0  0  0
 13 14  1  0  0  0  0
 14 18  1  0  0  0  0
 14 15  2  0  0  0  0
 15 19  1  0  0  0  0
 16 12  1  0  0  0  0
 17 13  1  0  0  0  0
 20  1  1  0  0  0  0
 20 21  2  0  0  0  0
 22 23  1  0  0  0  0
 22 21  1  0  0  0  0
 22 25  1  0  0  0  0
 24 22  1  0  0  0  0
 25 26  1  0  0  0  0
 27 30  1  0  0  0  0
 27 25  1  0  0  0  0
 28 27  2  0  0  0  0
 29 27  2  0  0  0  0
 30 31  1  0  0  0  0
 31 32  1  0  0  0  0
 31 33  2  0  0  0  0
 33 34  1  0  0  0  0
 35 33  1  0  0  0  0
 35 36  1  0  0  0  0
 37 35  2  0  0  0  0
 38 30  2  0  0  0  0
 38 37  1  0  0  0  0
M  END
>  <minimizedAffinity>
-6.40024233

$$$$

 OpenBabel03252506223D

 38 40  0  0  0  0  0  0  0  0999 V2000
   37.8720   30.7650   41.0650 C   0  0  0  0  0  0  0  0  0  0  0  0
   36.8920   30.5050   40.0880 C   0  0  0  0  0  0  0  0  0  0  0  0
   36.7630   31.4290   39.0430 C   0  0  0  0  0  0  0  0  0  0  0  0
   37.5730   32.5140   39.0220 N   0  0  0  0  0  0  0  0  0  0  0  0
   38.4960   32.7210   39.9790 C   0  0  0  0  0  0  0  0  0  0  0  0
   38.6520   31.8530   41.0030 N   0  0  0  0  0  0  0  0  0  0  0  0
   36.3050   29.6200   40.1990 H   0  0  0  0  0  0  0  0  0  0  0  0
   36.0120   31.2350   38.2870 H   0  0  0  0  0  0  0  0  0  0  0  0
   41.2540   32.2700   38.8160 Cl  0  0  0  0  0  0  0  0  0  0  0  0
   40.6190   33.7890   39.3520 C   0  0  0  0  0  0  0  0  0  0  0  0
   39.3380   33.9290   39.8780 C   0  0  0  0  0  0  0  0  0  0  0  0
   38.8200   35.1180   40.3060 C   0  0  0  0  0  0  0  0  0  0  0  0
   39.6250   36.2230   40.2010 C   0  0  0  0  0  0  0  0  0  0  0  0
   40.9020   36.2040   39.6970 C   0  0  0  0  0  0  0  0  0  0  0  0
   41.3430   34.9590   39.2900 C   0  0  0  0  0  0  0  0  0  0  0  0
   37.8300   35.2250   40.7140 H   0  0  0  0  0  0  0  0  0  0  0  0
   39.2260   37.1850   40.5380 H   0  0  0  0  0  0  0  0  0  0  0  0
   41.5390   37.0800   39.6150 H   0  0  0  0  0  0  0  0  0  0  0  0
   42.3590   34.8940   38.8800 H   0  0  0  0  0  0  0  0  0  0  0  0
   38.0150   29.7970   42.1700 C   0  0  0  0  0  3  0  0  0  0  0  0
   37.3210   28.6840   42.1140 C   0  0  0  0  0  3  0  0  0  0  0  0
   37.4480   27.6930   43.2170 C   0  0  0  0  0  0  0  0  0  0  0  0
   36.8100   28.0950   44.0460 H   0  0  0  0  0  0  0  0  0  0  0  0
   38.4690   27.5370   43.5670 H   0  0  0  0  0  0  0  0  0  0  0  0
   36.8260   26.4510   42.7580 N   0  0  0  0  0  0  0  0  0  0  0  0
   36.4820   25.9040   43.5760 H   0  0  0  0  0  0  0  0  0  0  0  0
   38.1310   25.5260   42.0600 S   0  0  0  0  0  0  0  0  0  0  0  0
   38.0380   24.0920   42.4520 O   0  0  0  0  0  0  0  0  0  0  0  0
   38.0160   25.6940   40.5710 O   0  0  0  0  0  0  0  0  0  0  0  0
   39.6350   26.2620   42.5820 C   0  0  0  0  0  0  0  0  0  0  0  0
   40.0480   26.2190   43.9020 C   0  0  0  0  0  0  0  0  0  0  0  0
   39.4310   25.7150   44.6600 H   0  0  0  0  0  0  0  0  0  0  0  0
   41.2170   26.7910   44.3100 C   0  0  0  0  0  0  0  0  0  0  0  0
   41.5880   26.7880   45.3250 H   0  0  0  0  0  0  0  0  0  0  0  0
   41.9610   27.4170   43.3090 C   0  0  0  0  0  0  0  0  0  0  0  0
   42.9060   27.8810   43.6310 H   0  0  0  0  0  0  0  0  0  0  0  0
   41.5980   27.4930   41.9690 C   0  0  0  0  0  3  0  0  0  0  0  0
   40.3920   26.8900   41.6100 C   0  0  0  0  0  3  0  0  0  0  0  0
  1 20  1  0  0  0  0
  2  7  1  0  0  0  0
  2  1  2  0  0  0  0
  3  2  1  0  0  0  0
  4  3  2  0  0  0  0
  4  5  1  0  0  0  0
  5  6  2  0  0  0  0
  6  1  1  0  0  0  0
  8  3  1  0  0  0  0
  9 10  1  0  0  0  0
 10 11  1  0  0  0  0
 11  5  1  0  0  0  0
 11 12  2  0  0  0  0
 12 16  1  0  0  0  0
 13 12  1  0  0  0  0
 13 17  1  0  0  0  0
 14 13  2  0  0  0  0
 15 10  2  0  0  0  0
 15 14  1  0  0  0  0
 18 14  1  0  0  0  0
 19 15  1  0  0  0  0
 21 20  2  0  0  0  0
 21 22  1  0  0  0  0
 22 24  1  0  0  0  0
 22 23  1  0  0  0  0
 25 22  1  0  0  0  0
 25 26  1  0  0  0  0
 27 28  2  0  0  0  0
 27 30  1  0  0  0  0
 27 25  1  0  0  0  0
 29 27  2  0  0  0  0
 30 31  1  0  0  0  0
 31 33  2  0  0  0  0
 31 32  1  0  0  0  0
 33 34  1  0  0  0  0
 35 36  1  0  0  0  0
 35 33  1  0  0  0  0
 37 35  2  0  0  0  0
 38 37  1  0  0  0  0
 38 30  2  0  0  0  0
M  END
>  <minimizedAffinity>
-5.99949169

$$$$

 OpenBabel03252506223D

 38 40  0  0  0  0  0  0  0  0999 V2000
   38.3150   28.6300   42.7970 C   0  0  0  0  0  0  0  0  0  0  0  0
   37.3600   28.6750   43.8310 C   0  0  0  0  0  0  0  0  0  0  0  0
   36.5060   27.5730   43.9680 C   0  0  0  0  0  0  0  0  0  0  0  0
   36.6350   26.5310   43.1120 N   0  0  0  0  0  0  0  0  0  0  0  0
   37.5640   26.5330   42.1380 C   0  0  0  0  0  0  0  0  0  0  0  0
   38.4060   27.5770   41.9730 N   0  0  0  0  0  0  0  0  0  0  0  0
   37.3420   29.5440   44.4500 H   0  0  0  0  0  0  0  0  0  0  0  0
   35.7690   27.6000   44.7610 H   0  0  0  0  0  0  0  0  0  0  0  0
   39.4540   24.3520   43.0480 Cl  0  0  0  0  0  0  0  0  0  0  0  0
   38.4880   24.3180   41.6120 C   0  0  0  0  0  0  0  0  0  0  0  0
   37.6370   25.3570   41.2500 C   0  0  0  0  0  0  0  0  0  0  0  0
   36.8670   25.3480   40.1220 C   0  0  0  0  0  0  0  0  0  0  0  0
   36.9550   24.2430   39.3140 C   0  0  0  0  0  0  0  0  0  0  0  0
   37.7590   23.1600   39.5730 C   0  0  0  0  0  0  0  0  0  0  0  0
   38.5020   23.2570   40.7340 C   0  0  0  0  0  0  0  0  0  0  0  0
   36.2090   26.1510   39.8410 H   0  0  0  0  0  0  0  0  0  0  0  0
   36.3450   24.2180   38.4070 H   0  0  0  0  0  0  0  0  0  0  0  0
   37.8290   22.2840   38.9330 H   0  0  0  0  0  0  0  0  0  0  0  0
   39.1610   22.4140   40.9830 H   0  0  0  0  0  0  0  0  0  0  0  0
   39.2190   29.7860   42.6450 C   0  0  0  0  0  3  0  0  0  0  0  0
   39.6060   30.1160   41.4340 C   0  0  0  0  0  3  0  0  0  0  0  0
   40.5180   31.2780   41.2550 C   0  0  0  0  0  0  0  0  0  0  0  0
   40.5670   31.4440   40.1480 H   0  0  0  0  0  0  0  0  0  0  0  0
   41.5200   31.1320   41.6590 H   0  0  0  0  0  0  0  0  0  0  0  0
   39.8530   32.4440   41.8350 N   0  0  0  0  0  0  0  0  0  0  0  0
   39.0590   32.1370   42.4380 H   0  0  0  0  0  0  0  0  0  0  0  0
   39.1430   33.2790   40.4750 S   0  0  0  0  0  0  0  0  0  0  0  0
   37.9070   32.5890   40.0120 O   0  0  0  0  0  0  0  0  0  0  0  0
   38.8470   34.6750   40.9470 O   0  0  0  0  0  0  0  0  0  0  0  0
   40.3640   33.3690   39.2190 C   0  0  0  0  0  0  0  0  0  0  0  0
   40.4220   32.4470   38.1900 C   0  0  0  0  0  0  0  0  0  0  0  0
   39.6910   31.6260   38.1400 H   0  0  0  0  0  0  0  0  0  0  0  0
   41.3710   32.5150   37.2130 C   0  0  0  0  0  0  0  0  0  0  0  0
   41.4620   31.8240   36.3880 H   0  0  0  0  0  0  0  0  0  0  0  0
   42.2710   33.5750   37.3240 C   0  0  0  0  0  0  0  0  0  0  0  0
   43.0400   33.6370   36.5390 H   0  0  0  0  0  0  0  0  0  0  0  0
   42.2640   34.5310   38.3330 C   0  0  0  0  0  3  0  0  0  0  0  0
   41.2700   34.4110   39.3050 C   0  0  0  0  0  3  0  0  0  0  0  0
  1  2  1  0  0  0  0
  2  3  2  0  0  0  0
  2  7  1  0  0  0  0
  3  8  1  0  0  0  0
  4  3  1  0  0  0  0
  5  4  2  0  0  0  0
  6  5  1  0  0  0  0
  6  1  2  0  0  0  0
 10  9  1  0  0  0  0
 11 10  1  0  0  0  0
 11  5  1  0  0  0  0
 12 11  2  0  0  0  0
 13 14  2  0  0  0  0
 13 12  1  0  0  0  0
 14 15  1  0  0  0  0
 15 19  1  0  0  0  0
 15 10  2  0  0  0  0
 16 12  1  0  0  0  0
 17 13  1  0  0  0  0
 18 14  1  0  0  0  0
 20  1  1  0  0  0  0
 21 20  2  0  0  0  0
 22 21  1  0  0  0  0
 22 24  1  0  0  0  0
 22 25  1  0  0  0  0
 23 22  1  0  0  0  0
 25 26  1  0  0  0  0
 27 29  2  0  0  0  0
 27 25  1  0  0  0  0
 28 27  2  0  0  0  0
 30 38  1  0  0  0  0
 30 27  1  0  0  0  0
 31 30  2  0  0  0  0
 32 31  1  0  0  0  0
 33 35  2  0  0  0  0
 33 31  1  0  0  0  0
 34 33  1  0  0  0  0
 35 37  1  0  0  0  0
 36 35  1  0  0  0  0
 37 38  2  0  0  0  0
M  END
>  <minimizedAffinity>
-5.97089958

$$$$

 OpenBabel03252506223D

 38 40  0  0  0  0  0  0  0  0999 V2000
   35.9790   29.7360   39.1250 C   0  0  0  0  0  0  0  0  0  0  0  0
   35.7650   29.0810   40.3520 C   0  0  0  0  0  0  0  0  0  0  0  0
   36.4280   29.5870   41.4780 C   0  0  0  0  0  0  0  0  0  0  0  0
   37.2320   30.6680   41.3360 N   0  0  0  0  0  0  0  0  0  0  0  0
   37.4060   31.2620   40.1410 C   0  0  0  0  0  0  0  0  0  0  0  0
   36.7850   30.8030   39.0320 N   0  0  0  0  0  0  0  0  0  0  0  0
   35.1110   28.2360   40.3550 H   0  0  0  0  0  0  0  0  0  0  0  0
   36.2670   29.0880   42.4260 H   0  0  0  0  0  0  0  0  0  0  0  0
   40.3540   30.6190   39.9110 Cl  0  0  0  0  0  0  0  0  0  0  0  0
   39.6680   32.2070   39.9690 C   0  0  0  0  0  0  0  0  0  0  0  0
   38.2990   32.4350   40.0750 C   0  0  0  0  0  0  0  0  0  0  0  0
   37.7390   33.6790   40.1220 C   0  0  0  0  0  0  0  0  0  0  0  0
   38.5930   34.7510   40.0610 C   0  0  0  0  0  0  0  0  0  0  0  0
   39.9570   34.6450   39.9540 C   0  0  0  0  0  0  0  0  0  0  0  0
   40.4350   33.3490   39.9140 C   0  0  0  0  0  0  0  0  0  0  0  0
   36.6810   33.8550   40.2050 H   0  0  0  0  0  0  0  0  0  0  0  0
   38.1620   35.7560   40.0960 H   0  0  0  0  0  0  0  0  0  0  0  0
   40.6340   35.4950   39.9060 H   0  0  0  0  0  0  0  0  0  0  0  0
   41.5220   33.2150   39.8290 H   0  0  0  0  0  0  0  0  0  0  0  0
   35.2860   29.2090   37.9330 C   0  0  0  0  0  3  0  0  0  0  0  0
   34.8040   27.9880   37.9850 C   0  0  0  0  0  3  0  0  0  0  0  0
   34.1020   27.4350   36.7950 C   0  0  0  0  0  0  0  0  0  0  0  0
   34.1480   26.3220   36.9200 H   0  0  0  0  0  0  0  0  0  0  0  0
   34.5370   27.7250   35.8390 H   0  0  0  0  0  0  0  0  0  0  0  0
   32.6960   27.8210   36.9040 N   0  0  0  0  0  0  0  0  0  0  0  0
   32.0890   26.9760   36.8350 H   0  0  0  0  0  0  0  0  0  0  0  0
   32.3800   28.7720   35.4730 S   0  0  0  0  0  0  0  0  0  0  0  0
   33.6500   29.1650   34.8030 O   0  0  0  0  0  0  0  0  0  0  0  0
   31.5300   27.9130   34.5780 O   0  0  0  0  0  0  0  0  0  0  0  0
   31.4300   30.1620   35.9660 C   0  0  0  0  0  0  0  0  0  0  0  0
   31.2050   31.2290   35.1150 C   0  0  0  0  0  0  0  0  0  0  0  0
   31.6250   31.2260   34.0990 H   0  0  0  0  0  0  0  0  0  0  0  0
   30.4670   32.3110   35.4960 C   0  0  0  0  0  0  0  0  0  0  0  0
   30.2600   33.1710   34.8750 H   0  0  0  0  0  0  0  0  0  0  0  0
   29.9590   32.2640   36.7950 C   0  0  0  0  0  0  0  0  0  0  0  0
   29.3620   33.1340   37.1090 H   0  0  0  0  0  0  0  0  0  0  0  0
   30.1510   31.2210   37.6930 C   0  0  0  0  0  3  0  0  0  0  0  0
   30.9140   30.1410   37.2480 C   0  0  0  0  0  3  0  0  0  0  0  0
  1  2  1  0  0  0  0
  2  7  1  0  0  0  0
  2  3  2  0  0  0  0
  3  8  1  0  0  0  0
  4  3  1  0  0  0  0
  5  4  2  0  0  0  0
  6  1  2  0  0  0  0
  6  5  1  0  0  0  0
  9 10  1  0  0  0  0
 10 11  1  0  0  0  0
 11 12  2  0  0  0  0
 11  5  1  0  0  0  0
 12 16  1  0  0  0  0
 13 17  1  0  0  0  0
 13 12  1  0  0  0  0
 14 13  2  0  0  0  0
 15 14  1  0  0  0  0
 15 10  2  0  0  0  0
 18 14  1  0  0  0  0
 19 15  1  0  0  0  0
 20 21  2  0  0  0  0
 20  1  1  0  0  0  0
 22 25  1  0  0  0  0
 22 23  1  0  0  0  0
 22 21  1  0  0  0  0
 24 22  1  0  0  0  0
 26 25  1  0  0  0  0
 27 30  1  0  0  0  0
 27 25  1  0  0  0  0
 28 27  2  0  0  0  0
 29 27  2  0  0  0  0
 30 38  1  0  0  0  0
 31 33  1  0  0  0  0
 31 30  2  0  0  0  0
 32 31  1  0  0  0  0
 33 35  2  0  0  0  0
 34 33  1  0  0  0  0
 35 36  1  0  0  0  0
 35 37  1  0  0  0  0
 38 37  2  0  0  0  0
M  END
>  <minimizedAffinity>
-5.84421682

$$$$

 OpenBabel03252506223D

 38 40  0  0  0  0  0  0  0  0999 V2000
   38.4220   29.6570   42.4260 C   0  0  0  0  0  0  0  0  0  0  0  0
   38.1720   28.8460   43.5490 C   0  0  0  0  0  0  0  0  0  0  0  0
   37.1280   27.9160   43.4530 C   0  0  0  0  0  0  0  0  0  0  0  0
   36.4190   27.8410   42.3010 N   0  0  0  0  0  0  0  0  0  0  0  0
   36.6950   28.6390   41.2530 C   0  0  0  0  0  0  0  0  0  0  0  0
   37.6930   29.5480   41.3060 N   0  0  0  0  0  0  0  0  0  0  0  0
   38.7900   28.9860   44.4080 H   0  0  0  0  0  0  0  0  0  0  0  0
   36.9310   27.2880   44.3120 H   0  0  0  0  0  0  0  0  0  0  0  0
   37.8160   26.7530   39.1670 Cl  0  0  0  0  0  0  0  0  0  0  0  0
   36.3330   27.6370   39.0380 C   0  0  0  0  0  0  0  0  0  0  0  0
   35.8730   28.4900   40.0360 C   0  0  0  0  0  0  0  0  0  0  0  0
   34.7070   29.1950   39.9520 C   0  0  0  0  0  0  0  0  0  0  0  0
   33.9630   29.0400   38.8110 C   0  0  0  0  0  0  0  0  0  0  0  0
   34.3190   28.2260   37.7630 C   0  0  0  0  0  0  0  0  0  0  0  0
   35.5130   27.5520   37.9350 C   0  0  0  0  0  0  0  0  0  0  0  0
   34.3510   29.8550   40.7240 H   0  0  0  0  0  0  0  0  0  0  0  0
   33.0250   29.5960   38.7260 H   0  0  0  0  0  0  0  0  0  0  0  0
   33.7290   28.1020   36.8580 H   0  0  0  0  0  0  0  0  0  0  0  0
   35.8380   26.8880   37.1230 H   0  0  0  0  0  0  0  0  0  0  0  0
   39.5180   30.6400   42.5180 C   0  0  0  0  0  3  0  0  0  0  0  0
   40.4810   30.5820   41.6270 C   0  0  0  0  0  3  0  0  0  0  0  0
   41.5980   31.5630   41.7000 C   0  0  0  0  0  0  0  0  0  0  0  0
   42.2380   31.3440   40.8060 H   0  0  0  0  0  0  0  0  0  0  0  0
   42.1920   31.5030   42.6120 H   0  0  0  0  0  0  0  0  0  0  0  0
   41.0210   32.8920   41.5010 N   0  0  0  0  0  0  0  0  0  0  0  0
   40.0280   32.8980   41.8180 H   0  0  0  0  0  0  0  0  0  0  0  0
   40.9870   33.1120   39.7690 S   0  0  0  0  0  0  0  0  0  0  0  0
   41.1620   34.5460   39.4100 O   0  0  0  0  0  0  0  0  0  0  0  0
   42.1020   32.2680   39.2170 O   0  0  0  0  0  0  0  0  0  0  0  0
   39.4650   32.4610   39.1880 C   0  0  0  0  0  0  0  0  0  0  0  0
   38.2480   32.9160   39.6640 C   0  0  0  0  0  0  0  0  0  0  0  0
   38.2120   33.7050   40.4290 H   0  0  0  0  0  0  0  0  0  0  0  0
   37.0640   32.4110   39.2140 C   0  0  0  0  0  0  0  0  0  0  0  0
   36.0870   32.7280   39.5500 H   0  0  0  0  0  0  0  0  0  0  0  0
   37.1670   31.4120   38.2450 C   0  0  0  0  0  0  0  0  0  0  0  0
   36.2150   31.0000   37.8760 H   0  0  0  0  0  0  0  0  0  0  0  0
   38.3580   30.9160   37.7290 C   0  0  0  0  0  3  0  0  0  0  0  0
   39.5380   31.4690   38.2270 C   0  0  0  0  0  3  0  0  0  0  0  0
  1 20  1  0  0  0  0
  1  2  1  0  0  0  0
  2  7  1  0  0  0  0
  3  2  2  0  0  0  0
  3  8  1  0  0  0  0
  4  3  1  0  0  0  0
  5  6  1  0  0  0  0
  5  4  2  0  0  0  0
  6  1  2  0  0  0  0
 10  9  1  0  0  0  0
 10 11  1  0  0  0  0
 11  5  1  0  0  0  0
 12 11  2  0  0  0  0
 12 16  1  0  0  0  0
 13 12  1  0  0  0  0
 14 15  1  0  0  0  0
 14 13  2  0  0  0  0
 15 10  2  0  0  0  0
 17 13  1  0  0  0  0
 18 14  1  0  0  0  0
 19 15  1  0  0  0  0
 21 22  1  0  0  0  0
 21 20  2  0  0  0  0
 22 24  1  0  0  0  0
 23 22  1  0  0  0  0
 25 22  1  0  0  0  0
 25 26  1  0  0  0  0
 27 25  1  0  0  0  0
 28 27  2  0  0  0  0
 29 27  2  0  0  0  0
 30 31  1  0  0  0  0
 30 27  1  0  0  0  0
 31 32  1  0  0  0  0
 33 34  1  0  0  0  0
 33 31  2  0  0  0  0
 35 33  1  0  0  0  0
 36 35  1  0  0  0  0
 37 38  1  0  0  0  0
 37 35  2  0  0  0  0
 38 30  2  0  0  0  0
M  END
>  <minimizedAffinity>
-5.80361509

$$$$

 OpenBabel03252506223D

 38 40  0  0  0  0  0  0  0  0999 V2000
   40.8200   29.9450   40.0830 C   0  0  0  0  0  0  0  0  0  0  0  0
   40.7210   29.4400   38.7720 C   0  0  0  0  0  0  0  0  0  0  0  0
   40.4120   30.3510   37.7530 C   0  0  0  0  0  0  0  0  0  0  0  0
   40.2260   31.6540   38.0710 N   0  0  0  0  0  0  0  0  0  0  0  0
   40.3310   32.0900   39.3400 C   0  0  0  0  0  0  0  0  0  0  0  0
   40.6270   31.2440   40.3510 N   0  0  0  0  0  0  0  0  0  0  0  0
   40.8860   28.3950   38.6300 H   0  0  0  0  0  0  0  0  0  0  0  0
   40.3350   29.9700   36.7420 H   0  0  0  0  0  0  0  0  0  0  0  0
   37.5400   32.8220   40.2540 Cl  0  0  0  0  0  0  0  0  0  0  0  0
   38.8500   33.9300   40.0200 C   0  0  0  0  0  0  0  0  0  0  0  0
   40.1130   33.5270   39.5970 C   0  0  0  0  0  0  0  0  0  0  0  0
   41.1590   34.3850   39.4080 C   0  0  0  0  0  0  0  0  0  0  0  0
   40.9280   35.7140   39.6530 C   0  0  0  0  0  0  0  0  0  0  0  0
   39.7240   36.2240   40.0740 C   0  0  0  0  0  0  0  0  0  0  0  0
   38.7250   35.2830   40.2390 C   0  0  0  0  0  0  0  0  0  0  0  0
   42.1350   34.0740   39.0800 H   0  0  0  0  0  0  0  0  0  0  0  0
   41.7540   36.4170   39.5070 H   0  0  0  0  0  0  0  0  0  0  0  0
   39.5410   37.2780   40.2690 H   0  0  0  0  0  0  0  0  0  0  0  0
   37.7430   35.6440   40.5740 H   0  0  0  0  0  0  0  0  0  0  0  0
   41.1440   28.9930   41.1630 C   0  0  0  0  0  3  0  0  0  0  0  0
   41.6630   27.8330   40.8340 C   0  0  0  0  0  3  0  0  0  0  0  0
   41.9980   26.8570   41.9060 C   0  0  0  0  0  0  0  0  0  0  0  0
   41.5890   27.3060   42.8480 H   0  0  0  0  0  0  0  0  0  0  0  0
   43.0640   26.6560   42.0160 H   0  0  0  0  0  0  0  0  0  0  0  0
   41.2300   25.6410   41.6400 N   0  0  0  0  0  0  0  0  0  0  0  0
   40.6290   25.7780   40.7990 H   0  0  0  0  0  0  0  0  0  0  0  0
   40.1460   25.4890   43.0010 S   0  0  0  0  0  0  0  0  0  0  0  0
   39.7750   24.0650   43.2310 O   0  0  0  0  0  0  0  0  0  0  0  0
   40.8740   26.0640   44.1840 O   0  0  0  0  0  0  0  0  0  0  0  0
   38.7480   26.4950   42.6730 C   0  0  0  0  0  0  0  0  0  0  0  0
   38.0050   26.3570   41.5140 C   0  0  0  0  0  0  0  0  0  0  0  0
   38.2820   25.6010   40.7650 H   0  0  0  0  0  0  0  0  0  0  0  0
   36.9180   27.1390   41.2570 C   0  0  0  0  0  0  0  0  0  0  0  0
   36.3030   27.0740   40.3710 H   0  0  0  0  0  0  0  0  0  0  0  0
   36.6100   28.0810   42.2400 C   0  0  0  0  0  0  0  0  0  0  0  0
   35.7330   28.7160   42.0390 H   0  0  0  0  0  0  0  0  0  0  0  0
   37.3170   28.2660   43.4220 C   0  0  0  0  0  3  0  0  0  0  0  0
   38.4200   27.4380   43.6310 C   0  0  0  0  0  3  0  0  0  0  0  0
  1  6  1  0  0  0  0
  1 20  1  0  0  0  0
  2  1  2  0  0  0  0
  3  4  2  0  0  0  0
  3  2  1  0  0  0  0
  4  5  1  0  0  0  0
  5 11  1  0  0  0  0
  5  6  2  0  0  0  0
  7  2  1  0  0  0  0
  8  3  1  0  0  0  0
 10 15  1  0  0  0  0
 10  9  1  0  0  0  0
 11 10  2  0  0  0  0
 12 11  1  0  0  0  0
 12 13  2  0  0  0  0
 13 14  1  0  0  0  0
 14 15  2  0  0  0  0
 14 18  1  0  0  0  0
 15 19  1  0  0  0  0
 16 12  1  0  0  0  0
 17 13  1  0  0  0  0
 21 20  2  0  0  0  0
 21 22  1  0  0  0  0
 22 24  1  0  0  0  0
 22 23  1  0  0  0  0
 25 22  1  0  0  0  0
 25 27  1  0  0  0  0
 26 25  1  0  0  0  0
 27 28  2  0  0  0  0
 27 29  2  0  0  0  0
 30 27  1  0  0  0  0
 30 38  1  0  0  0  0
 31 30  2  0  0  0  0
 32 31  1  0  0  0  0
 33 31  1  0  0  0  0
 33 35  2  0  0  0  0
 34 33  1  0  0  0  0
 35 37  1  0  0  0  0
 36 35  1  0  0  0  0
 37 38  2  0  0  0  0
M  END
>  <minimizedAffinity>
-5.78893137

$$$$
