
 OpenBabel03242517013D

 35 37  0  0  0  0  0  0  0  0999 V2000
   37.3920   31.3440   39.9700 C   0  0  0  0  0  0  0  0  0  0  0  0
   37.2940   32.6640   39.5520 C   0  0  0  0  0  0  0  0  0  0  0  0
   38.2220   33.5800   40.0480 C   0  0  0  0  0  0  0  0  0  0  0  0
   39.1930   33.1700   40.9200 C   0  0  0  0  0  0  0  0  0  0  0  0
   39.3090   31.8800   41.3460 C   0  0  0  0  0  0  0  0  0  0  0  0
   38.3660   30.9750   40.8360 C   0  0  0  0  0  0  0  0  0  0  0  0
   36.5180   32.9870   38.8540 H   0  0  0  0  0  0  0  0  0  0  0  0
   38.1170   34.5990   39.7000 H   0  0  0  0  0  0  0  0  0  0  0  0
   39.8890   33.9200   41.2770 H   0  0  0  0  0  0  0  0  0  0  0  0
   40.0670   31.5390   42.0350 H   0  0  0  0  0  0  0  0  0  0  0  0
   35.3550   29.1360   37.6800 C   0  0  0  0  0  0  0  0  0  0  0  0
   36.3550   30.0320   38.0990 C   0  0  0  0  0  0  0  0  0  0  0  0
   36.4000   30.4220   39.4240 C   0  0  0  0  0  0  0  0  0  0  0  0
   35.4620   29.9080   40.2530 N   0  0  0  0  0  0  0  0  0  0  0  0
   34.5000   29.0490   39.8550 C   0  0  0  0  0  0  0  0  0  0  0  0
   34.4470   28.6590   38.5510 N   0  0  0  0  0  0  0  0  0  0  0  0
   35.3390   28.8460   36.6400 H   0  0  0  0  0  0  0  0  0  0  0  0
   37.0960   30.4390   37.4480 H   0  0  0  0  0  0  0  0  0  0  0  0
   33.8250   28.7280   40.6370 H   0  0  0  0  0  0  0  0  0  0  0  0
   38.1610   28.8790   42.4000 C   0  0  0  0  0  0  0  0  0  0  0  0
   37.8390   29.3460   43.4960 O   0  0  0  0  0  0  0  0  0  0  0  0
   38.3770   29.6040   41.1990 N   0  0  0  0  0  0  0  0  0  0  0  0
   38.6080   29.1410   40.2810 H   0  0  0  0  0  0  0  0  0  0  0  0
   39.4710   26.7010   42.5020 C   0  0  0  0  0  0  0  0  0  0  0  0
   38.3360   27.4270   42.3470 C   0  0  0  0  0  0  0  0  0  0  0  0
   37.1210   26.7800   42.1000 C   0  0  0  0  0  0  0  0  0  0  0  0
   36.1450   27.2540   41.9580 H   0  0  0  0  0  0  0  0  0  0  0  0
   37.0960   25.3860   42.0150 C   0  0  0  0  0  0  0  0  0  0  0  0
   36.1820   24.8270   41.8240 H   0  0  0  0  0  0  0  0  0  0  0  0
   38.2620   24.6420   42.1740 C   0  0  0  0  0  3  0  0  0  0  0  0
   39.4560   25.3240   42.4200 C   0  0  0  0  0  3  0  0  0  0  0  0
   40.7470   28.5850   43.7310 H   0  0  0  0  0  0  0  0  0  0  0  0
   40.9090   27.6120   42.8040 S   0  0  0  0  0  0  0  0  0  0  0  0
   41.3220   28.3270   41.5220 O   0  0  0  0  0  0  0  0  0  0  0  0
   42.0780   26.6940   43.1060 O   0  0  0  0  0  0  0  0  0  0  0  0
  1  6  1  0  0  0  0
  2  1  2  0  0  0  0
  2  3  1  0  0  0  0
  3  4  2  0  0  0  0
  4  9  1  0  0  0  0
  4  5  1  0  0  0  0
  5 10  1  0  0  0  0
  6 22  1  0  0  0  0
  6  5  2  0  0  0  0
  7  2  1  0  0  0  0
  8  3  1  0  0  0  0
 11 12  2  0  0  0  0
 11 16  1  0  0  0  0
 12 13  1  0  0  0  0
 13  1  1  0  0  0  0
 13 14  2  0  0  0  0
 15 14  1  0  0  0  0
 15 19  1  0  0  0  0
 16 15  2  0  0  0  0
 17 11  1  0  0  0  0
 18 12  1  0  0  0  0
 20 21  2  0  0  0  0
 22 20  1  0  0  0  0
 23 22  1  0  0  0  0
 24 33  1  0  0  0  0
 25 20  1  0  0  0  0
 25 24  2  0  0  0  0
 26 25  1  0  0  0  0
 27 26  1  0  0  0  0
 28 26  2  0  0  0  0
 28 30  1  0  0  0  0
 29 28  1  0  0  0  0
 30 31  2  0  0  0  0
 31 24  1  0  0  0  0
 33 35  2  0  0  0  0
 33 32  1  0  0  0  0
 34 33  2  0  0  0  0
M  END
>  <minimizedAffinity>
-5.78126526

$$$$

 OpenBabel03242517013D

 35 37  0  0  0  0  0  0  0  0999 V2000
   36.7730   25.4640   40.5680 C   0  0  0  0  0  0  0  0  0  0  0  0
   36.6340   24.1070   40.8220 C   0  0  0  0  0  0  0  0  0  0  0  0
   36.0770   23.3060   39.8250 C   0  0  0  0  0  0  0  0  0  0  0  0
   35.6850   23.8610   38.6370 C   0  0  0  0  0  0  0  0  0  0  0  0
   35.8100   25.1910   38.3640 C   0  0  0  0  0  0  0  0  0  0  0  0
   36.3720   25.9790   39.3800 C   0  0  0  0  0  0  0  0  0  0  0  0
   36.9490   23.6680   41.7710 H   0  0  0  0  0  0  0  0  0  0  0  0
   35.9850   22.2530   40.0560 H   0  0  0  0  0  0  0  0  0  0  0  0
   35.2580   23.1970   37.8950 H   0  0  0  0  0  0  0  0  0  0  0  0
   35.5050   25.6470   37.4340 H   0  0  0  0  0  0  0  0  0  0  0  0
   39.0780   26.8560   43.2170 C   0  0  0  0  0  0  0  0  0  0  0  0
   38.6070   26.0220   42.1860 C   0  0  0  0  0  0  0  0  0  0  0  0
   37.3600   26.2620   41.6400 C   0  0  0  0  0  0  0  0  0  0  0  0
   36.6550   27.3040   42.1400 N   0  0  0  0  0  0  0  0  0  0  0  0
   37.1030   28.1060   43.1290 C   0  0  0  0  0  0  0  0  0  0  0  0
   38.3300   27.8770   43.6740 N   0  0  0  0  0  0  0  0  0  0  0  0
   40.0540   26.6490   43.6290 H   0  0  0  0  0  0  0  0  0  0  0  0
   39.1600   25.2010   41.7910 H   0  0  0  0  0  0  0  0  0  0  0  0
   36.4210   28.8950   43.4170 H   0  0  0  0  0  0  0  0  0  0  0  0
   35.7070   28.4810   38.9610 C   0  0  0  0  0  0  0  0  0  0  0  0
   34.4780   28.4560   38.8460 O   0  0  0  0  0  0  0  0  0  0  0  0
   36.5580   27.3760   39.2230 N   0  0  0  0  0  0  0  0  0  0  0  0
   37.5990   27.4700   39.3550 H   0  0  0  0  0  0  0  0  0  0  0  0
   36.8110   30.3850   37.6850 C   0  0  0  0  0  0  0  0  0  0  0  0
   36.3390   29.7930   38.8100 C   0  0  0  0  0  0  0  0  0  0  0  0
   36.4280   30.4560   40.0380 C   0  0  0  0  0  0  0  0  0  0  0  0
   36.0860   30.0840   41.0080 H   0  0  0  0  0  0  0  0  0  0  0  0
   37.0070   31.7270   40.0860 C   0  0  0  0  0  0  0  0  0  0  0  0
   37.1040   32.2910   41.0110 H   0  0  0  0  0  0  0  0  0  0  0  0
   37.4900   32.3320   38.9300 C   0  0  0  0  0  3  0  0  0  0  0  0
   37.3830   31.6390   37.7220 C   0  0  0  0  0  3  0  0  0  0  0  0
   35.6090   28.5950   36.2560 H   0  0  0  0  0  0  0  0  0  0  0  0
   36.6430   29.4670   36.2280 S   0  0  0  0  0  0  0  0  0  0  0  0
   37.8940   28.6200   36.0290 O   0  0  0  0  0  0  0  0  0  0  0  0
   36.6180   30.3780   35.0160 O   0  0  0  0  0  0  0  0  0  0  0  0
  1  2  1  0  0  0  0
  1 13  1  0  0  0  0
  2  7  1  0  0  0  0
  3  8  1  0  0  0  0
  3  2  2  0  0  0  0
  4  3  1  0  0  0  0
  5  4  2  0  0  0  0
  5  6  1  0  0  0  0
  6  1  2  0  0  0  0
  9  4  1  0  0  0  0
 10  5  1  0  0  0  0
 11 17  1  0  0  0  0
 11 16  1  0  0  0  0
 12 11  2  0  0  0  0
 13 14  2  0  0  0  0
 13 12  1  0  0  0  0
 14 15  1  0  0  0  0
 15 19  1  0  0  0  0
 15 16  2  0  0  0  0
 18 12  1  0  0  0  0
 20 22  1  0  0  0  0
 21 20  2  0  0  0  0
 22 23  1  0  0  0  0
 22  6  1  0  0  0  0
 24 31  2  0  0  0  0
 24 25  1  0  0  0  0
 25 20  1  0  0  0  0
 25 26  2  0  0  0  0
 26 28  1  0  0  0  0
 26 27  1  0  0  0  0
 28 29  1  0  0  0  0
 30 28  2  0  0  0  0
 31 30  1  0  0  0  0
 33 32  1  0  0  0  0
 33 24  1  0  0  0  0
 34 33  2  0  0  0  0
 35 33  2  0  0  0  0
M  END
>  <minimizedAffinity>
-5.58718681

$$$$

 OpenBabel03242517013D

 35 37  0  0  0  0  0  0  0  0999 V2000
   37.0560   30.9620   39.1390 C   0  0  0  0  0  0  0  0  0  0  0  0
   37.1360   32.2930   38.7540 C   0  0  0  0  0  0  0  0  0  0  0  0
   37.8450   33.1720   39.5730 C   0  0  0  0  0  0  0  0  0  0  0  0
   38.4380   32.7170   40.7180 C   0  0  0  0  0  0  0  0  0  0  0  0
   38.3740   31.4150   41.1180 C   0  0  0  0  0  0  0  0  0  0  0  0
   37.6560   30.5470   40.2810 C   0  0  0  0  0  0  0  0  0  0  0  0
   36.6610   32.6520   37.8380 H   0  0  0  0  0  0  0  0  0  0  0  0
   37.8870   34.2010   39.2410 H   0  0  0  0  0  0  0  0  0  0  0  0
   38.9770   33.4390   41.3200 H   0  0  0  0  0  0  0  0  0  0  0  0
   38.8350   31.0380   42.0190 H   0  0  0  0  0  0  0  0  0  0  0  0
   35.8240   29.0000   36.1560 C   0  0  0  0  0  0  0  0  0  0  0  0
   36.6170   29.8750   36.9210 C   0  0  0  0  0  0  0  0  0  0  0  0
   36.3050   30.0800   38.2520 C   0  0  0  0  0  0  0  0  0  0  0  0
   35.2360   29.4130   38.7470 N   0  0  0  0  0  0  0  0  0  0  0  0
   34.4720   28.5730   38.0160 C   0  0  0  0  0  0  0  0  0  0  0  0
   34.7710   28.3660   36.7040 N   0  0  0  0  0  0  0  0  0  0  0  0
   36.0860   28.8560   35.1190 H   0  0  0  0  0  0  0  0  0  0  0  0
   37.4600   30.4010   36.5340 H   0  0  0  0  0  0  0  0  0  0  0  0
   33.6540   28.1170   38.5570 H   0  0  0  0  0  0  0  0  0  0  0  0
   38.3280   28.0160   40.4300 C   0  0  0  0  0  0  0  0  0  0  0  0
   39.4810   27.9790   39.9910 O   0  0  0  0  0  0  0  0  0  0  0  0
   37.5140   29.1690   40.5830 N   0  0  0  0  0  0  0  0  0  0  0  0
   36.5500   29.1410   41.0070 H   0  0  0  0  0  0  0  0  0  0  0  0
   37.7420   26.1490   42.0560 C   0  0  0  0  0  0  0  0  0  0  0  0
   37.7520   26.7310   40.8310 C   0  0  0  0  0  0  0  0  0  0  0  0
   37.1540   26.0850   39.7450 C   0  0  0  0  0  0  0  0  0  0  0  0
   37.0980   26.4510   38.7160 H   0  0  0  0  0  0  0  0  0  0  0  0
   36.5500   24.8400   39.9420 C   0  0  0  0  0  0  0  0  0  0  0  0
   36.0690   24.2890   39.1360 H   0  0  0  0  0  0  0  0  0  0  0  0
   36.5400   24.2440   41.2000 C   0  0  0  0  0  3  0  0  0  0  0  0
   37.1490   24.9210   42.2590 C   0  0  0  0  0  3  0  0  0  0  0  0
   38.3130   26.5220   44.5500 H   0  0  0  0  0  0  0  0  0  0  0  0
   38.5130   27.0450   43.3180 S   0  0  0  0  0  0  0  0  0  0  0  0
   37.9210   28.4490   43.3630 O   0  0  0  0  0  0  0  0  0  0  0  0
   39.9790   27.2740   43.0010 O   0  0  0  0  0  0  0  0  0  0  0  0
  1  6  1  0  0  0  0
  2  1  2  0  0  0  0
  2  3  1  0  0  0  0
  3  4  2  0  0  0  0
  4  5  1  0  0  0  0
  4  9  1  0  0  0  0
  5 10  1  0  0  0  0
  6 22  1  0  0  0  0
  6  5  2  0  0  0  0
  7  2  1  0  0  0  0
  8  3  1  0  0  0  0
 11 16  2  0  0  0  0
 11 12  1  0  0  0  0
 12 13  2  0  0  0  0
 13 14  1  0  0  0  0
 13  1  1  0  0  0  0
 15 19  1  0  0  0  0
 15 14  2  0  0  0  0
 16 15  1  0  0  0  0
 17 11  1  0  0  0  0
 18 12  1  0  0  0  0
 20 22  1  0  0  0  0
 20 25  1  0  0  0  0
 21 20  2  0  0  0  0
 22 23  1  0  0  0  0
 24 31  1  0  0  0  0
 24 33  1  0  0  0  0
 25 24  2  0  0  0  0
 26 28  2  0  0  0  0
 26 25  1  0  0  0  0
 27 26  1  0  0  0  0
 28 30  1  0  0  0  0
 29 28  1  0  0  0  0
 30 31  2  0  0  0  0
 33 34  2  0  0  0  0
 33 32  1  0  0  0  0
 35 33  2  0  0  0  0
M  END
>  <minimizedAffinity>
-5.54696274

$$$$

 OpenBabel03242517013D

 35 37  0  0  0  0  0  0  0  0999 V2000
   37.0010   25.7780   40.7990 C   0  0  0  0  0  0  0  0  0  0  0  0
   36.8360   24.5160   41.3520 C   0  0  0  0  0  0  0  0  0  0  0  0
   36.2450   23.5260   40.5670 C   0  0  0  0  0  0  0  0  0  0  0  0
   35.8460   23.8110   39.2890 C   0  0  0  0  0  0  0  0  0  0  0  0
   35.9970   25.0420   38.7240 C   0  0  0  0  0  0  0  0  0  0  0  0
   36.5930   26.0230   39.5310 C   0  0  0  0  0  0  0  0  0  0  0  0
   37.1570   24.2920   42.3730 H   0  0  0  0  0  0  0  0  0  0  0  0
   36.1330   22.5550   41.0290 H   0  0  0  0  0  0  0  0  0  0  0  0
   35.3930   23.0090   38.7200 H   0  0  0  0  0  0  0  0  0  0  0  0
   35.6880   25.2860   37.7180 H   0  0  0  0  0  0  0  0  0  0  0  0
   37.6810   28.3460   43.4850 C   0  0  0  0  0  0  0  0  0  0  0  0
   36.9850   27.3910   42.7210 C   0  0  0  0  0  0  0  0  0  0  0  0
   37.6240   26.7800   41.6580 C   0  0  0  0  0  0  0  0  0  0  0  0
   38.9050   27.1440   41.4140 N   0  0  0  0  0  0  0  0  0  0  0  0
   39.5760   28.0590   42.1440 C   0  0  0  0  0  0  0  0  0  0  0  0
   38.9550   28.6670   43.1930 N   0  0  0  0  0  0  0  0  0  0  0  0
   37.1620   28.8100   44.3090 H   0  0  0  0  0  0  0  0  0  0  0  0
   35.9760   27.1030   42.9110 H   0  0  0  0  0  0  0  0  0  0  0  0
   40.5930   28.2400   41.8220 H   0  0  0  0  0  0  0  0  0  0  0  0
   36.0120   28.5150   38.9530 C   0  0  0  0  0  0  0  0  0  0  0  0
   34.8440   28.6520   39.3280 O   0  0  0  0  0  0  0  0  0  0  0  0
   36.8080   27.3440   39.0630 N   0  0  0  0  0  0  0  0  0  0  0  0
   37.8170   27.3040   38.7630 H   0  0  0  0  0  0  0  0  0  0  0  0
   37.2680   30.7270   38.9260 C   0  0  0  0  0  0  0  0  0  0  0  0
   36.6290   29.6890   38.3330 C   0  0  0  0  0  0  0  0  0  0  0  0
   36.4950   29.6540   36.9410 C   0  0  0  0  0  0  0  0  0  0  0  0
   36.0030   28.8760   36.3510 H   0  0  0  0  0  0  0  0  0  0  0  0
   37.0260   30.6980   36.1790 C   0  0  0  0  0  0  0  0  0  0  0  0
   36.9530   30.7270   35.0940 H   0  0  0  0  0  0  0  0  0  0  0  0
   37.6820   31.7630   36.7910 C   0  0  0  0  0  3  0  0  0  0  0  0
   37.7950   31.7620   38.1830 C   0  0  0  0  0  3  0  0  0  0  0  0
   37.5580   29.4050   41.1300 H   0  0  0  0  0  0  0  0  0  0  0  0
   37.3710   30.6570   40.6510 S   0  0  0  0  0  0  0  0  0  0  0  0
   36.0520   31.1350   41.2460 O   0  0  0  0  0  0  0  0  0  0  0  0
   38.3920   31.6500   41.1720 O   0  0  0  0  0  0  0  0  0  0  0  0
  1  2  1  0  0  0  0
  1 13  1  0  0  0  0
  2  7  1  0  0  0  0
  3  8  1  0  0  0  0
  3  2  2  0  0  0  0
  4  3  1  0  0  0  0
  5  4  2  0  0  0  0
  5  6  1  0  0  0  0
  6  1  2  0  0  0  0
  9  4  1  0  0  0  0
 10  5  1  0  0  0  0
 11 17  1  0  0  0  0
 12 18  1  0  0  0  0
 12 11  2  0  0  0  0
 13 12  1  0  0  0  0
 14 13  2  0  0  0  0
 14 15  1  0  0  0  0
 15 16  2  0  0  0  0
 16 11  1  0  0  0  0
 19 15  1  0  0  0  0
 20 22  1  0  0  0  0
 20 21  2  0  0  0  0
 22  6  1  0  0  0  0
 23 22  1  0  0  0  0
 24 33  1  0  0  0  0
 25 24  1  0  0  0  0
 25 20  1  0  0  0  0
 26 25  2  0  0  0  0
 27 26  1  0  0  0  0
 28 30  2  0  0  0  0
 28 26  1  0  0  0  0
 29 28  1  0  0  0  0
 30 31  1  0  0  0  0
 31 24  2  0  0  0  0
 33 32  1  0  0  0  0
 33 35  2  0  0  0  0
 33 34  2  0  0  0  0
M  END
>  <minimizedAffinity>
-5.52521133

$$$$

 OpenBabel03242517013D

 35 37  0  0  0  0  0  0  0  0999 V2000
   38.0170   27.2500   41.7080 C   0  0  0  0  0  0  0  0  0  0  0  0
   37.9800   25.9340   42.1460 C   0  0  0  0  0  0  0  0  0  0  0  0
   38.9510   25.5170   43.0550 C   0  0  0  0  0  0  0  0  0  0  0  0
   39.9070   26.3940   43.4910 C   0  0  0  0  0  0  0  0  0  0  0  0
   39.9650   27.6910   43.0750 C   0  0  0  0  0  0  0  0  0  0  0  0
   38.9780   28.0910   42.1600 C   0  0  0  0  0  0  0  0  0  0  0  0
   37.2150   25.2370   41.7970 H   0  0  0  0  0  0  0  0  0  0  0  0
   38.8910   24.4850   43.3770 H   0  0  0  0  0  0  0  0  0  0  0  0
   40.6390   26.0220   44.1960 H   0  0  0  0  0  0  0  0  0  0  0  0
   40.7120   28.3980   43.4060 H   0  0  0  0  0  0  0  0  0  0  0  0
   35.8020   27.5420   38.6620 C   0  0  0  0  0  0  0  0  0  0  0  0
   36.8390   27.0900   39.4980 C   0  0  0  0  0  0  0  0  0  0  0  0
   36.9810   27.6410   40.7580 C   0  0  0  0  0  0  0  0  0  0  0  0
   36.0950   28.6010   41.1160 N   0  0  0  0  0  0  0  0  0  0  0  0
   35.0990   29.0380   40.3170 C   0  0  0  0  0  0  0  0  0  0  0  0
   34.9520   28.5010   39.0740 N   0  0  0  0  0  0  0  0  0  0  0  0
   35.7110   27.0970   37.6830 H   0  0  0  0  0  0  0  0  0  0  0  0
   37.5380   26.3340   39.2180 H   0  0  0  0  0  0  0  0  0  0  0  0
   34.4760   29.8090   40.7490 H   0  0  0  0  0  0  0  0  0  0  0  0
   39.3580   30.0480   40.4550 C   0  0  0  0  0  0  0  0  0  0  0  0
   39.8890   29.5060   39.4810 O   0  0  0  0  0  0  0  0  0  0  0  0
   38.9270   29.4130   41.6490 N   0  0  0  0  0  0  0  0  0  0  0  0
   38.4390   29.9250   42.4300 H   0  0  0  0  0  0  0  0  0  0  0  0
   40.0480   32.4940   40.5700 C   0  0  0  0  0  0  0  0  0  0  0  0
   39.1570   31.4940   40.3550 C   0  0  0  0  0  0  0  0  0  0  0  0
   37.8430   31.7970   39.9840 C   0  0  0  0  0  0  0  0  0  0  0  0
   37.0390   31.0830   39.7840 H   0  0  0  0  0  0  0  0  0  0  0  0
   37.4670   33.1360   39.8390 C   0  0  0  0  0  0  0  0  0  0  0  0
   36.4610   33.4330   39.5540 H   0  0  0  0  0  0  0  0  0  0  0  0
   38.3830   34.1600   40.0600 C   0  0  0  0  0  3  0  0  0  0  0  0
   39.6860   33.8170   40.4300 C   0  0  0  0  0  3  0  0  0  0  0  0
   41.6520   31.0250   41.9690 H   0  0  0  0  0  0  0  0  0  0  0  0
   41.6400   31.9940   41.0240 S   0  0  0  0  0  0  0  0  0  0  0  0
   42.3760   33.1790   41.6360 O   0  0  0  0  0  0  0  0  0  0  0  0
   42.4640   31.6400   39.8000 O   0  0  0  0  0  0  0  0  0  0  0  0
  1  2  2  0  0  0  0
  1  6  1  0  0  0  0
  2  3  1  0  0  0  0
  3  8  1  0  0  0  0
  3  4  2  0  0  0  0
  4  9  1  0  0  0  0
  5 10  1  0  0  0  0
  5  4  1  0  0  0  0
  6  5  2  0  0  0  0
  7  2  1  0  0  0  0
 11 16  2  0  0  0  0
 11 12  1  0  0  0  0
 12 13  2  0  0  0  0
 13 14  1  0  0  0  0
 13  1  1  0  0  0  0
 15 19  1  0  0  0  0
 15 14  2  0  0  0  0
 16 15  1  0  0  0  0
 17 11  1  0  0  0  0
 18 12  1  0  0  0  0
 20 22  1  0  0  0  0
 21 20  2  0  0  0  0
 22  6  1  0  0  0  0
 22 23  1  0  0  0  0
 24 33  1  0  0  0  0
 25 20  1  0  0  0  0
 25 24  2  0  0  0  0
 26 25  1  0  0  0  0
 27 26  1  0  0  0  0
 28 26  2  0  0  0  0
 28 30  1  0  0  0  0
 29 28  1  0  0  0  0
 30 31  2  0  0  0  0
 31 24  1  0  0  0  0
 33 34  2  0  0  0  0
 33 32  1  0  0  0  0
 35 33  2  0  0  0  0
M  END
>  <minimizedAffinity>
-5.32405376

$$$$

 OpenBabel03242517013D

 35 37  0  0  0  0  0  0  0  0999 V2000
   40.4180   25.9310   42.4530 C   0  0  0  0  0  0  0  0  0  0  0  0
   41.4200   25.1290   42.9790 C   0  0  0  0  0  0  0  0  0  0  0  0
   42.5020   25.7520   43.6010 C   0  0  0  0  0  0  0  0  0  0  0  0
   42.5560   27.1160   43.6790 C   0  0  0  0  0  0  0  0  0  0  0  0
   41.5840   27.9260   43.1700 C   0  0  0  0  0  0  0  0  0  0  0  0
   40.5050   27.2790   42.5490 C   0  0  0  0  0  0  0  0  0  0  0  0
   41.3730   24.0390   42.9150 H   0  0  0  0  0  0  0  0  0  0  0  0
   43.2640   25.0960   44.0000 H   0  0  0  0  0  0  0  0  0  0  0  0
   43.4170   27.5530   44.1710 H   0  0  0  0  0  0  0  0  0  0  0  0
   41.6100   29.0050   43.2220 H   0  0  0  0  0  0  0  0  0  0  0  0
   38.2580   23.9580   40.0630 C   0  0  0  0  0  0  0  0  0  0  0  0
   39.3940   24.6000   40.5880 C   0  0  0  0  0  0  0  0  0  0  0  0
   39.3060   25.2350   41.8130 C   0  0  0  0  0  0  0  0  0  0  0  0
   38.1080   25.1990   42.4430 N   0  0  0  0  0  0  0  0  0  0  0  0
   37.0160   24.5850   41.9430 C   0  0  0  0  0  0  0  0  0  0  0  0
   37.0930   23.9570   40.7370 N   0  0  0  0  0  0  0  0  0  0  0  0
   38.3510   23.4690   39.1050 H   0  0  0  0  0  0  0  0  0  0  0  0
   40.3390   24.6300   40.0930 H   0  0  0  0  0  0  0  0  0  0  0  0
   36.1350   24.6450   42.5680 H   0  0  0  0  0  0  0  0  0  0  0  0
   38.3080   28.7120   42.4900 C   0  0  0  0  0  0  0  0  0  0  0  0
   38.0320   28.8980   43.6780 O   0  0  0  0  0  0  0  0  0  0  0  0
   39.4290   28.0060   41.9790 N   0  0  0  0  0  0  0  0  0  0  0  0
   39.6340   27.9200   40.9490 H   0  0  0  0  0  0  0  0  0  0  0  0
   37.4750   30.4480   40.8270 C   0  0  0  0  0  0  0  0  0  0  0  0
   37.3760   29.2850   41.5160 C   0  0  0  0  0  0  0  0  0  0  0  0
   36.2650   28.4570   41.3340 C   0  0  0  0  0  0  0  0  0  0  0  0
   36.0730   27.5000   41.8290 H   0  0  0  0  0  0  0  0  0  0  0  0
   35.2660   28.8450   40.4370 C   0  0  0  0  0  0  0  0  0  0  0  0
   34.3780   28.2440   40.2530 H   0  0  0  0  0  0  0  0  0  0  0  0
   35.3690   30.0400   39.7300 C   0  0  0  0  0  3  0  0  0  0  0  0
   36.4950   30.8400   39.9410 C   0  0  0  0  0  3  0  0  0  0  0  0
   39.1280   31.5910   42.4550 H   0  0  0  0  0  0  0  0  0  0  0  0
   38.8950   31.3860   41.1380 S   0  0  0  0  0  0  0  0  0  0  0  0
   38.7180   32.7710   40.5270 O   0  0  0  0  0  0  0  0  0  0  0  0
   40.0930   30.8100   40.4060 O   0  0  0  0  0  0  0  0  0  0  0  0
  1  6  2  0  0  0  0
  1  2  1  0  0  0  0
  2  3  2  0  0  0  0
  3  4  1  0  0  0  0
  3  8  1  0  0  0  0
  4  9  1  0  0  0  0
  5 10  1  0  0  0  0
  5  4  2  0  0  0  0
  6  5  1  0  0  0  0
  7  2  1  0  0  0  0
 11 12  2  0  0  0  0
 11 16  1  0  0  0  0
 12 13  1  0  0  0  0
 13 14  2  0  0  0  0
 13  1  1  0  0  0  0
 15 14  1  0  0  0  0
 15 19  1  0  0  0  0
 16 15  2  0  0  0  0
 17 11  1  0  0  0  0
 18 12  1  0  0  0  0
 20 21  2  0  0  0  0
 22 20  1  0  0  0  0
 22  6  1  0  0  0  0
 23 22  1  0  0  0  0
 24 33  1  0  0  0  0
 24 25  1  0  0  0  0
 25 20  1  0  0  0  0
 26 25  2  0  0  0  0
 26 27  1  0  0  0  0
 28 26  1  0  0  0  0
 29 28  1  0  0  0  0
 30 31  1  0  0  0  0
 30 28  2  0  0  0  0
 31 24  2  0  0  0  0
 33 32  1  0  0  0  0
 34 33  2  0  0  0  0
 35 33  2  0  0  0  0
M  END
>  <minimizedAffinity>
-5.29069948

$$$$

 OpenBabel03242517013D

 35 37  0  0  0  0  0  0  0  0999 V2000
   37.5540   31.8340   40.0030 C   0  0  0  0  0  0  0  0  0  0  0  0
   37.2370   33.1080   39.5520 C   0  0  0  0  0  0  0  0  0  0  0  0
   38.0790   34.1600   39.9120 C   0  0  0  0  0  0  0  0  0  0  0  0
   39.1800   33.9250   40.6880 C   0  0  0  0  0  0  0  0  0  0  0  0
   39.5130   32.6840   41.1440 C   0  0  0  0  0  0  0  0  0  0  0  0
   38.6530   31.6390   40.7710 C   0  0  0  0  0  0  0  0  0  0  0  0
   36.3570   33.2920   38.9320 H   0  0  0  0  0  0  0  0  0  0  0  0
   37.8020   35.1390   39.5420 H   0  0  0  0  0  0  0  0  0  0  0  0
   39.8020   34.7750   40.9410 H   0  0  0  0  0  0  0  0  0  0  0  0
   40.3770   32.4780   41.7590 H   0  0  0  0  0  0  0  0  0  0  0  0
   35.5800   29.2970   38.0200 C   0  0  0  0  0  0  0  0  0  0  0  0
   36.4840   30.3390   38.2960 C   0  0  0  0  0  0  0  0  0  0  0  0
   36.6460   30.7650   39.6010 C   0  0  0  0  0  0  0  0  0  0  0  0
   35.9100   30.1420   40.5520 N   0  0  0  0  0  0  0  0  0  0  0  0
   35.0410   29.1420   40.2920 C   0  0  0  0  0  0  0  0  0  0  0  0
   34.8750   28.7160   39.0090 N   0  0  0  0  0  0  0  0  0  0  0  0
   35.4700   28.9810   36.9940 H   0  0  0  0  0  0  0  0  0  0  0  0
   37.0650   30.8310   37.5500 H   0  0  0  0  0  0  0  0  0  0  0  0
   34.5300   28.7480   41.1590 H   0  0  0  0  0  0  0  0  0  0  0  0
   40.0250   29.5560   41.5840 C   0  0  0  0  0  0  0  0  0  0  0  0
   41.1750   29.9820   41.7230 O   0  0  0  0  0  0  0  0  0  0  0  0
   38.8860   30.3010   41.1790 N   0  0  0  0  0  0  0  0  0  0  0  0
   37.9180   29.8880   41.1220 H   0  0  0  0  0  0  0  0  0  0  0  0
   39.8930   27.0780   41.0210 C   0  0  0  0  0  0  0  0  0  0  0  0
   39.8280   28.1330   41.8700 C   0  0  0  0  0  0  0  0  0  0  0  0
   39.5380   27.9250   43.2220 C   0  0  0  0  0  0  0  0  0  0  0  0
   39.4580   28.6910   43.9990 H   0  0  0  0  0  0  0  0  0  0  0  0
   39.3180   26.6230   43.6800 C   0  0  0  0  0  0  0  0  0  0  0  0
   39.0880   26.3990   44.7190 H   0  0  0  0  0  0  0  0  0  0  0  0
   39.3860   25.5420   42.8060 C   0  0  0  0  0  3  0  0  0  0  0  0
   39.6780   25.7900   41.4630 C   0  0  0  0  0  3  0  0  0  0  0  0
   41.2940   28.3250   39.2400 H   0  0  0  0  0  0  0  0  0  0  0  0
   40.2600   27.4620   39.3750 S   0  0  0  0  0  0  0  0  0  0  0  0
   39.0570   28.1550   38.7480 O   0  0  0  0  0  0  0  0  0  0  0  0
   40.4300   26.2000   38.5510 O   0  0  0  0  0  0  0  0  0  0  0  0
  1  6  1  0  0  0  0
  2  3  1  0  0  0  0
  2  1  2  0  0  0  0
  3  4  2  0  0  0  0
  4  9  1  0  0  0  0
  4  5  1  0  0  0  0
  5 10  1  0  0  0  0
  6  5  2  0  0  0  0
  6 22  1  0  0  0  0
  7  2  1  0  0  0  0
  8  3  1  0  0  0  0
 11 12  2  0  0  0  0
 11 16  1  0  0  0  0
 12 13  1  0  0  0  0
 13  1  1  0  0  0  0
 13 14  2  0  0  0  0
 15 14  1  0  0  0  0
 15 19  1  0  0  0  0
 16 15  2  0  0  0  0
 17 11  1  0  0  0  0
 18 12  1  0  0  0  0
 20 21  2  0  0  0  0
 20 25  1  0  0  0  0
 22 20  1  0  0  0  0
 23 22  1  0  0  0  0
 24 31  2  0  0  0  0
 24 25  1  0  0  0  0
 25 26  2  0  0  0  0
 26 28  1  0  0  0  0
 26 27  1  0  0  0  0
 28 29  1  0  0  0  0
 30 28  2  0  0  0  0
 31 30  1  0  0  0  0
 32 33  1  0  0  0  0
 33 24  1  0  0  0  0
 34 33  2  0  0  0  0
 35 33  2  0  0  0  0
M  END
>  <minimizedAffinity>
-5.28381538

$$$$

 OpenBabel03242517013D

 35 37  0  0  0  0  0  0  0  0999 V2000
   36.8960   28.7230   39.8600 C   0  0  0  0  0  0  0  0  0  0  0  0
   35.8000   28.0910   39.2900 C   0  0  0  0  0  0  0  0  0  0  0  0
   35.3260   28.5720   38.0700 C   0  0  0  0  0  0  0  0  0  0  0  0
   35.9370   29.6370   37.4670 C   0  0  0  0  0  0  0  0  0  0  0  0
   37.0150   30.2740   38.0070 C   0  0  0  0  0  0  0  0  0  0  0  0
   37.4750   29.7750   39.2350 C   0  0  0  0  0  0  0  0  0  0  0  0
   35.3150   27.2400   39.7740 H   0  0  0  0  0  0  0  0  0  0  0  0
   34.4710   28.0550   37.6540 H   0  0  0  0  0  0  0  0  0  0  0  0
   35.5310   29.9730   36.5210 H   0  0  0  0  0  0  0  0  0  0  0  0
   37.5090   31.1170   37.5470 H   0  0  0  0  0  0  0  0  0  0  0  0
   37.1160   27.5680   43.4500 C   0  0  0  0  0  0  0  0  0  0  0  0
   36.5690   28.1050   42.2710 C   0  0  0  0  0  0  0  0  0  0  0  0
   37.3560   28.1850   41.1370 C   0  0  0  0  0  0  0  0  0  0  0  0
   38.6280   27.7310   41.2330 N   0  0  0  0  0  0  0  0  0  0  0  0
   39.1570   27.2150   42.3630 C   0  0  0  0  0  0  0  0  0  0  0  0
   38.3890   27.1330   43.4850 N   0  0  0  0  0  0  0  0  0  0  0  0
   36.4830   27.5160   44.3230 H   0  0  0  0  0  0  0  0  0  0  0  0
   35.5680   28.4630   42.1920 H   0  0  0  0  0  0  0  0  0  0  0  0
   40.1860   26.8970   42.2780 H   0  0  0  0  0  0  0  0  0  0  0  0
   38.8010   31.5140   40.6840 C   0  0  0  0  0  0  0  0  0  0  0  0
   37.9510   32.3430   41.0210 O   0  0  0  0  0  0  0  0  0  0  0  0
   38.5880   30.3490   39.9020 N   0  0  0  0  0  0  0  0  0  0  0  0
   39.3490   29.6530   39.6850 H   0  0  0  0  0  0  0  0  0  0  0  0
   41.1270   32.5390   40.5760 C   0  0  0  0  0  0  0  0  0  0  0  0
   40.1670   31.7700   41.1460 C   0  0  0  0  0  0  0  0  0  0  0  0
   40.4320   31.0930   42.3400 C   0  0  0  0  0  0  0  0  0  0  0  0
   39.7420   30.4470   42.8930 H   0  0  0  0  0  0  0  0  0  0  0  0
   41.6920   31.2210   42.9310 C   0  0  0  0  0  0  0  0  0  0  0  0
   41.9560   30.7190   43.8590 H   0  0  0  0  0  0  0  0  0  0  0  0
   42.6760   32.0110   42.3440 C   0  0  0  0  0  3  0  0  0  0  0  0
   42.3730   32.6710   41.1510 C   0  0  0  0  0  3  0  0  0  0  0  0
   39.5200   34.0160   39.1890 H   0  0  0  0  0  0  0  0  0  0  0  0
   40.6810   33.3260   39.1020 S   0  0  0  0  0  0  0  0  0  0  0  0
   40.4560   32.2720   38.0250 O   0  0  0  0  0  0  0  0  0  0  0  0
   41.8280   34.1610   38.5660 O   0  0  0  0  0  0  0  0  0  0  0  0
  1 13  1  0  0  0  0
  2  7  1  0  0  0  0
  2  1  1  0  0  0  0
  3  2  2  0  0  0  0
  4  5  2  0  0  0  0
  4  3  1  0  0  0  0
  5  6  1  0  0  0  0
  6  1  2  0  0  0  0
  6 22  1  0  0  0  0
  8  3  1  0  0  0  0
  9  4  1  0  0  0  0
 10  5  1  0  0  0  0
 11 16  1  0  0  0  0
 11 17  1  0  0  0  0
 12 11  2  0  0  0  0
 13 14  2  0  0  0  0
 13 12  1  0  0  0  0
 14 15  1  0  0  0  0
 15 16  2  0  0  0  0
 18 12  1  0  0  0  0
 19 15  1  0  0  0  0
 20 21  2  0  0  0  0
 20 25  1  0  0  0  0
 22 20  1  0  0  0  0
 23 22  1  0  0  0  0
 24 25  2  0  0  0  0
 24 31  1  0  0  0  0
 25 26  1  0  0  0  0
 26 27  1  0  0  0  0
 26 28  2  0  0  0  0
 28 29  1  0  0  0  0
 30 28  1  0  0  0  0
 31 30  2  0  0  0  0
 33 32  1  0  0  0  0
 33 24  1  0  0  0  0
 34 33  2  0  0  0  0
 35 33  2  0  0  0  0
M  END
>  <minimizedAffinity>
-5.27676916

$$$$

 OpenBabel03242517013D

 35 37  0  0  0  0  0  0  0  0999 V2000
   36.8100   29.6920   38.8540 C   0  0  0  0  0  0  0  0  0  0  0  0
   35.7830   29.7920   37.9260 C   0  0  0  0  0  0  0  0  0  0  0  0
   35.0340   28.6480   37.6500 C   0  0  0  0  0  0  0  0  0  0  0  0
   35.3190   27.4710   38.2860 C   0  0  0  0  0  0  0  0  0  0  0  0
   36.3210   27.3480   39.2010 C   0  0  0  0  0  0  0  0  0  0  0  0
   37.0630   28.5100   39.4650 C   0  0  0  0  0  0  0  0  0  0  0  0
   35.5590   30.7340   37.4210 H   0  0  0  0  0  0  0  0  0  0  0  0
   34.2410   28.7630   36.9220 H   0  0  0  0  0  0  0  0  0  0  0  0
   34.7090   26.6110   38.0370 H   0  0  0  0  0  0  0  0  0  0  0  0
   36.5620   26.4270   39.7120 H   0  0  0  0  0  0  0  0  0  0  0  0
   37.8680   33.1460   39.9610 C   0  0  0  0  0  0  0  0  0  0  0  0
   37.0500   32.0180   39.7660 C   0  0  0  0  0  0  0  0  0  0  0  0
   37.5650   30.9150   39.1110 C   0  0  0  0  0  0  0  0  0  0  0  0
   38.8500   30.9880   38.6900 N   0  0  0  0  0  0  0  0  0  0  0  0
   39.6380   32.0690   38.8750 C   0  0  0  0  0  0  0  0  0  0  0  0
   39.1390   33.1600   39.5180 N   0  0  0  0  0  0  0  0  0  0  0  0
   37.4450   33.9950   40.4740 H   0  0  0  0  0  0  0  0  0  0  0  0
   36.0380   31.9570   40.0960 H   0  0  0  0  0  0  0  0  0  0  0  0
   40.6400   31.9720   38.4800 H   0  0  0  0  0  0  0  0  0  0  0  0
   38.2840   28.9020   41.7530 C   0  0  0  0  0  0  0  0  0  0  0  0
   37.3980   29.3200   42.5050 O   0  0  0  0  0  0  0  0  0  0  0  0
   38.1330   28.5160   40.3950 N   0  0  0  0  0  0  0  0  0  0  0  0
   38.9220   28.1240   39.8170 H   0  0  0  0  0  0  0  0  0  0  0  0
   40.2210   27.7240   42.9080 C   0  0  0  0  0  0  0  0  0  0  0  0
   39.6230   28.7980   42.3340 C   0  0  0  0  0  0  0  0  0  0  0  0
   40.3090   30.0130   42.2440 C   0  0  0  0  0  0  0  0  0  0  0  0
   39.9350   30.9440   41.8070 H   0  0  0  0  0  0  0  0  0  0  0  0
   41.6090   30.1020   42.7510 C   0  0  0  0  0  0  0  0  0  0  0  0
   42.1910   31.0200   42.7100 H   0  0  0  0  0  0  0  0  0  0  0  0
   42.2200   28.9980   43.3380 C   0  0  0  0  0  3  0  0  0  0  0  0
   41.5020   27.8020   43.4100 C   0  0  0  0  0  3  0  0  0  0  0  0
   38.1190   26.4150   43.6540 H   0  0  0  0  0  0  0  0  0  0  0  0
   39.2730   26.2780   42.9600 S   0  0  0  0  0  0  0  0  0  0  0  0
   40.0640   25.1930   43.6800 O   0  0  0  0  0  0  0  0  0  0  0  0
   39.0630   25.7190   41.5660 O   0  0  0  0  0  0  0  0  0  0  0  0
  1 13  1  0  0  0  0
  1  6  1  0  0  0  0
  2  1  2  0  0  0  0
  3  2  1  0  0  0  0
  3  4  2  0  0  0  0
  4  5  1  0  0  0  0
  5  6  2  0  0  0  0
  5 10  1  0  0  0  0
  6 22  1  0  0  0  0
  7  2  1  0  0  0  0
  8  3  1  0  0  0  0
  9  4  1  0  0  0  0
 11 17  1  0  0  0  0
 12 11  1  0  0  0  0
 12 18  1  0  0  0  0
 13 12  2  0  0  0  0
 14 15  2  0  0  0  0
 14 13  1  0  0  0  0
 15 16  1  0  0  0  0
 16 11  2  0  0  0  0
 19 15  1  0  0  0  0
 20 25  1  0  0  0  0
 20 21  2  0  0  0  0
 22 20  1  0  0  0  0
 23 22  1  0  0  0  0
 24 33  1  0  0  0  0
 24 31  1  0  0  0  0
 25 24  2  0  0  0  0
 26 25  1  0  0  0  0
 26 28  2  0  0  0  0
 27 26  1  0  0  0  0
 28 30  1  0  0  0  0
 29 28  1  0  0  0  0
 30 31  2  0  0  0  0
 33 32  1  0  0  0  0
 33 34  2  0  0  0  0
 35 33  2  0  0  0  0
M  END
>  <minimizedAffinity>
-5.21552515

$$$$
