
 OpenBabel03252507593D

 32 34  0  0  1  0  0  0  0  0999 V2000
   46.6780   34.6180   43.1520 C   0  0  0  0  0  0  0  0  0  0  0  0
   45.6240   35.5700   43.3000 C   0  0  0  0  0  0  0  0  0  0  0  0
   44.8090   35.3990   44.4070 C   0  0  0  0  0  0  0  0  0  0  0  0
   45.0570   34.3680   45.2540 N   0  0  0  0  0  0  0  0  0  0  0  0
   46.0790   33.4900   45.0600 C   0  0  0  0  0  0  0  0  0  0  0  0
   46.8900   33.5950   44.0290 N   0  0  0  0  0  0  0  0  0  0  0  0
   45.5190   36.3540   42.5620 H   0  0  0  0  0  0  0  0  0  0  0  0
   44.0010   36.0950   44.5580 H   0  0  0  0  0  0  0  0  0  0  0  0
   46.2650   32.3980   46.0460 C   0  0  1  0  0  0  0  0  0  0  0  0
   46.9850   32.6800   47.3430 C   0  0  0  0  0  0  0  0  0  0  0  0
   45.4850   32.5480   47.2930 C   0  0  1  0  0  0  0  0  0  0  0  0
   46.4360   31.4200   45.5670 H   0  0  0  0  0  0  0  0  0  0  0  0
   47.5060   31.8420   47.8260 H   0  0  0  0  0  0  0  0  0  0  0  0
   47.4540   33.6610   47.4100 H   0  0  0  0  0  0  0  0  0  0  0  0
   45.0080   31.6530   47.7090 H   0  0  0  0  0  0  0  0  0  0  0  0
   44.8090   33.7930   47.5780 N   0  0  0  0  0  0  0  0  0  0  0  0
   43.8620   33.8950   47.2500 H   0  0  0  0  0  0  0  0  0  0  0  0
   45.4000   34.6130   47.7060 H   0  0  0  0  0  0  0  0  0  0  0  0
   47.5390   34.8110   42.0030 C   0  0  0  0  0  0  0  0  0  0  0  0
   48.3750   35.7800   41.9210 O   0  0  0  0  0  0  0  0  0  0  0  0
   48.1930   32.7320   40.7380 C   0  0  0  0  0  0  0  0  0  0  0  0
   47.3360   33.7850   40.9800 C   0  0  0  0  0  0  0  0  0  0  0  0
   46.1990   33.8400   40.1630 C   0  0  0  0  0  0  0  0  0  0  0  0
   45.5130   34.6670   40.3420 H   0  0  0  0  0  0  0  0  0  0  0  0
   45.9210   32.9210   39.1730 C   0  0  0  0  0  0  0  0  0  0  0  0
   45.0220   33.0280   38.5820 H   0  0  0  0  0  0  0  0  0  0  0  0
   46.8030   31.8810   38.9610 C   0  0  0  0  0  3  0  0  0  0  0  0
   47.9320   31.8020   39.7510 C   0  0  0  0  0  3  0  0  0  0  0  0
   49.9470   33.8160   42.2310 H   0  0  0  0  0  0  0  0  0  0  0  0
   49.6260   32.6010   41.7150 S   0  0  0  0  0  0  0  0  0  0  0  0
   50.7390   32.1000   40.8070 O   0  0  0  0  0  0  0  0  0  0  0  0
   49.4540   31.6270   42.8410 O   0  0  0  0  0  0  0  0  0  0  0  0
  1  2  2  0  0  0  0
  1  6  1  0  0  0  0
  2  3  1  0  0  0  0
  3  8  1  0  0  0  0
  3  4  2  0  0  0  0
  5  4  1  0  0  0  0
  5  9  1  0  0  0  0
  6  5  2  0  0  0  0
  7  2  1  0  0  0  0
  9 12  1  6  0  0  0
  9 11  1  0  0  0  0
  9 10  1  0  0  0  0
 10 14  1  0  0  0  0
 10 13  1  0  0  0  0
 11 10  1  0  0  0  0
 11 16  1  0  0  0  0
 11 15  1  1  0  0  0
 16 18  1  0  0  0  0
 17 16  1  0  0  0  0
 19  1  1  0  0  0  0
 20 19  2  0  0  0  0
 21 22  1  0  0  0  0
 21 30  1  0  0  0  0
 22 19  1  0  0  0  0
 23 24  1  0  0  0  0
 23 22  2  0  0  0  0
 25 23  1  0  0  0  0
 26 25  1  0  0  0  0
 27 25  2  0  0  0  0
 27 28  1  0  0  0  0
 28 21  2  0  0  0  0
 30 29  1  0  0  0  0
 30 32  2  0  0  0  0
 31 30  2  0  0  0  0
M  END
>  <minimizedAffinity>
-5.45105791

>  <minimizedRMSD>
1.7179637

$$$$
