REMARK  Name = 
REMARK  5 active torsions:
REMARK  status: ('A' for Active; 'I' for Inactive)
REMARK    1  A    between atoms: C_1  and  C_11
REMARK    2  A    between atoms: C_5  and  C_7
REMARK    3  A    between atoms: C_9  and  N_10
REMARK    4  A    between atoms: C_11  and  C_26
REMARK    5  A    between atoms: S_22  and  C_25
REMARK                            x       y       z     vdW  Elec       q    Type
REMARK                         _______ _______ _______ _____ _____    ______ ____
ROOT
ATOM      1  C   UNL     1      46.257  34.755  43.236  0.00  0.00    +0.000 A 
ATOM      2  C   UNL     1      45.292  35.746  43.588  0.00  0.00    +0.000 A 
ATOM      3  C   UNL     1      44.663  35.567  44.810  0.00  0.00    +0.000 A 
ATOM      4  N   UNL     1      44.995  34.493  45.569  0.00  0.00    +0.000 NA
ATOM      5  C   UNL     1      45.925  33.578  45.179  0.00  0.00    +0.000 A 
ATOM      6  N   UNL     1      46.559  33.689  44.031  0.00  0.00    +0.000 NA
ATOM      7  H   UNL     1      45.106  36.563  42.904  0.00  0.00    +0.000 HD
ATOM      8  H   UNL     1      43.928  36.292  45.116  0.00  0.00    +0.000 HD
ENDROOT
BRANCH   5   9
ATOM      9  C   UNL     1      46.215  32.440  46.084  0.00  0.00    +0.000 C 
ATOM     10  C   UNL     1      47.032  32.671  47.333  0.00  0.00    +0.000 C 
ATOM     11  C   UNL     1      45.537  32.502  47.396  0.00  0.00    +0.000 C 
ATOM     12  H   UNL     1      46.369  31.495  45.539  0.00  0.00    +0.000 HD
ATOM     13  H   UNL     1      47.610  31.823  47.725  0.00  0.00    +0.000 HD
ATOM     14  H   UNL     1      47.483  33.660  47.417  0.00  0.00    +0.000 HD
ATOM     15  H   UNL     1      45.115  31.573  47.799  0.00  0.00    +0.000 HD
BRANCH  11  16
ATOM     16  N   UNL     1      44.858  33.711  47.804  0.00  0.00    +0.000 NA
ATOM     17  H   UNL     1      43.885  33.804  47.559  0.00  0.00    +0.000 HD
ATOM     18  H   UNL     1      45.439  34.538  47.930  0.00  0.00    +0.000 HD
ENDBRANCH  11  16
ENDBRANCH   5   9
BRANCH   1  19
ATOM     19  C   UNL     1      46.925  34.955  41.966  0.00  0.00    +0.000 C 
ATOM     20  O   UNL     1      48.076  35.513  41.871  0.00  0.00    +0.000 OA
BRANCH  19  22
ATOM     21  C   UNL     1      44.761  34.401  40.800  0.00  0.00    +0.000 A 
ATOM     22  C   UNL     1      46.139  34.452  40.840  0.00  0.00    +0.000 A 
ATOM     23  C   UNL     1      46.795  33.977  39.697  0.00  0.00    +0.000 A 
ATOM     24  H   UNL     1      47.883  34.010  39.713  0.00  0.00    +0.000 HD
ATOM     25  C   UNL     1      46.141  33.484  38.586  0.00  0.00    +0.000 A 
ATOM     26  H   UNL     1      46.716  33.134  37.740  0.00  0.00    +0.000 HD
ATOM     27  C   UNL     1      44.762  33.450  38.585  0.00  0.00    +0.000 A 
ATOM     28  C   UNL     1      44.089  33.912  39.698  0.00  0.00    +0.000 A 
BRANCH  21  30
ATOM     29  H   UNL     1      44.348  36.195  42.560  0.00  0.00    +0.000 HD
ATOM     30  S   UNL     1      43.880  34.975  42.185  0.00  0.00    +0.000 S 
ATOM     31  O   UNL     1      44.093  33.960  43.299  0.00  0.00    +0.000 OA
ATOM     32  O   UNL     1      42.410  35.085  41.914  0.00  0.00    +0.000 OA
ENDBRANCH  21  30
ENDBRANCH  19  22
ENDBRANCH   1  19
TORSDOF 5
