
 OpenBabel03252507593D

 32 34  0  0  1  0  0  0  0  0999 V2000
   47.4940   34.2580   43.1750 C   0  0  0  0  0  0  0  0  0  0  0  0
   46.3240   34.9890   42.8100 C   0  0  0  0  0  0  0  0  0  0  0  0
   45.1830   34.7040   43.5440 C   0  0  0  0  0  0  0  0  0  0  0  0
   45.2510   33.7760   44.5310 N   0  0  0  0  0  0  0  0  0  0  0  0
   46.3980   33.1080   44.8330 C   0  0  0  0  0  0  0  0  0  0  0  0
   47.5160   33.3310   44.1750 N   0  0  0  0  0  0  0  0  0  0  0  0
   46.3840   35.7080   42.0040 H   0  0  0  0  0  0  0  0  0  0  0  0
   44.2770   35.2340   43.3040 H   0  0  0  0  0  0  0  0  0  0  0  0
   46.3650   32.1130   45.9310 C   0  0  1  0  0  0  0  0  0  0  0  0
   47.0270   32.4370   47.2500 C   0  0  0  0  0  0  0  0  0  0  0  0
   45.5310   32.4950   47.0900 C   0  0  1  0  0  0  0  0  0  0  0  0
   46.4340   31.0770   45.5650 H   0  0  0  0  0  0  0  0  0  0  0  0
   47.3950   31.5950   47.8530 H   0  0  0  0  0  0  0  0  0  0  0  0
   47.6200   33.3510   47.2600 H   0  0  0  0  0  0  0  0  0  0  0  0
   44.9070   31.7190   47.5510 H   0  0  0  0  0  0  0  0  0  0  0  0
   45.0130   33.8410   47.1970 N   0  0  0  0  0  0  0  0  0  0  0  0
   44.1130   34.0270   46.7840 H   0  0  0  0  0  0  0  0  0  0  0  0
   45.7000   34.5860   47.2940 H   0  0  0  0  0  0  0  0  0  0  0  0
   48.6890   34.5710   42.4170 C   0  0  0  0  0  0  0  0  0  0  0  0
   49.6170   35.3290   42.8730 O   0  0  0  0  0  0  0  0  0  0  0  0
   49.2920   32.7140   40.8230 C   0  0  0  0  0  0  0  0  0  0  0  0
   48.6980   33.9280   41.1040 C   0  0  0  0  0  0  0  0  0  0  0  0
   48.0660   34.5560   40.0220 C   0  0  0  0  0  0  0  0  0  0  0  0
   47.5920   35.5140   40.2280 H   0  0  0  0  0  0  0  0  0  0  0  0
   48.0200   34.0290   38.7480 C   0  0  0  0  0  0  0  0  0  0  0  0
   47.5150   34.5730   37.9630 H   0  0  0  0  0  0  0  0  0  0  0  0
   48.6270   32.8130   38.5080 C   0  0  0  0  0  3  0  0  0  0  0  0
   49.2570   32.1710   39.5550 C   0  0  0  0  0  3  0  0  0  0  0  0
   50.3890   32.7460   43.1210 H   0  0  0  0  0  0  0  0  0  0  0  0
   50.0950   31.8770   42.1190 S   0  0  0  0  0  0  0  0  0  0  0  0
   51.3720   31.2840   41.5400 O   0  0  0  0  0  0  0  0  0  0  0  0
   49.2600   30.7630   42.6740 O   0  0  0  0  0  0  0  0  0  0  0  0
  1  6  1  0  0  0  0
  2  1  2  0  0  0  0
  2  3  1  0  0  0  0
  3  4  2  0  0  0  0
  4  5  1  0  0  0  0
  5  9  1  0  0  0  0
  6  5  2  0  0  0  0
  7  2  1  0  0  0  0
  8  3  1  0  0  0  0
  9 12  1  6  0  0  0
  9 11  1  0  0  0  0
  9 10  1  0  0  0  0
 10 14  1  0  0  0  0
 10 13  1  0  0  0  0
 11 16  1  0  0  0  0
 11 10  1  0  0  0  0
 11 15  1  1  0  0  0
 16 18  1  0  0  0  0
 17 16  1  0  0  0  0
 19 20  2  0  0  0  0
 19  1  1  0  0  0  0
 21 22  1  0  0  0  0
 21 30  1  0  0  0  0
 22 19  1  0  0  0  0
 23 24  1  0  0  0  0
 23 22  2  0  0  0  0
 25 23  1  0  0  0  0
 26 25  1  0  0  0  0
 27 25  2  0  0  0  0
 27 28  1  0  0  0  0
 28 21  2  0  0  0  0
 30 32  2  0  0  0  0
 30 29  1  0  0  0  0
 31 30  2  0  0  0  0
M  END
>  <minimizedAffinity>
-5.37742281

>  <minimizedRMSD>
3.27507854

$$$$
