
 OpenBabel03252507593D

 32 34  0  0  1  0  0  0  0  0999 V2000
   46.5260   34.4490   43.3810 C   0  0  0  0  0  0  0  0  0  0  0  0
   45.5280   35.4420   43.6190 C   0  0  0  0  0  0  0  0  0  0  0  0
   44.8160   35.3090   44.8010 C   0  0  0  0  0  0  0  0  0  0  0  0
   45.1040   34.2750   45.6290 N   0  0  0  0  0  0  0  0  0  0  0  0
   46.0690   33.3560   45.3480 C   0  0  0  0  0  0  0  0  0  0  0  0
   46.7820   33.4240   44.2430 N   0  0  0  0  0  0  0  0  0  0  0  0
   45.3820   36.2250   42.8870 H   0  0  0  0  0  0  0  0  0  0  0  0
   44.0540   36.0370   45.0210 H   0  0  0  0  0  0  0  0  0  0  0  0
   46.3060   32.2640   46.3220 C   0  0  1  0  0  0  0  0  0  0  0  0
   47.0830   32.5480   47.5850 C   0  0  0  0  0  0  0  0  0  0  0  0
   45.5840   32.4070   47.6030 C   0  0  1  0  0  0  0  0  0  0  0  0
   46.4620   31.2880   45.8340 H   0  0  0  0  0  0  0  0  0  0  0  0
   47.6310   31.7130   48.0420 H   0  0  0  0  0  0  0  0  0  0  0  0
   47.5490   33.5320   47.6330 H   0  0  0  0  0  0  0  0  0  0  0  0
   45.1310   31.5080   48.0400 H   0  0  0  0  0  0  0  0  0  0  0  0
   44.9130   33.6480   47.9220 N   0  0  0  0  0  0  0  0  0  0  0  0
   43.9510   33.7430   47.6370 H   0  0  0  0  0  0  0  0  0  0  0  0
   45.5050   34.4700   48.0250 H   0  0  0  0  0  0  0  0  0  0  0  0
   47.2800   34.6010   42.1530 C   0  0  0  0  0  0  0  0  0  0  0  0
   47.8170   35.7130   41.8060 O   0  0  0  0  0  0  0  0  0  0  0  0
   46.3260   32.8590   40.6030 C   0  0  0  0  0  0  0  0  0  0  0  0
   47.3470   33.3590   41.3860 C   0  0  0  0  0  0  0  0  0  0  0  0
   48.5160   32.5880   41.4190 C   0  0  0  0  0  0  0  0  0  0  0  0
   49.3310   32.9700   42.0320 H   0  0  0  0  0  0  0  0  0  0  0  0
   48.6740   31.4040   40.7290 C   0  0  0  0  0  0  0  0  0  0  0  0
   49.6070   30.8620   40.8040 H   0  0  0  0  0  0  0  0  0  0  0  0
   47.6290   30.9370   39.9580 C   0  0  0  0  0  3  0  0  0  0  0  0
   46.4650   31.6750   39.9060 C   0  0  0  0  0  3  0  0  0  0  0  0
   45.0810   35.0720   40.7980 H   0  0  0  0  0  0  0  0  0  0  0  0
   44.8440   33.7650   40.5150 S   0  0  0  0  0  0  0  0  0  0  0  0
   43.8940   33.1630   41.5400 O   0  0  0  0  0  0  0  0  0  0  0  0
   44.2050   33.6720   39.1620 O   0  0  0  0  0  0  0  0  0  0  0  0
  1  2  2  0  0  0  0
  1  6  1  0  0  0  0
  2  3  1  0  0  0  0
  3  8  1  0  0  0  0
  3  4  2  0  0  0  0
  5  4  1  0  0  0  0
  5  9  1  0  0  0  0
  6  5  2  0  0  0  0
  7  2  1  0  0  0  0
  9 12  1  6  0  0  0
  9 10  1  0  0  0  0
  9 11  1  0  0  0  0
 10 11  1  0  0  0  0
 10 14  1  0  0  0  0
 10 13  1  0  0  0  0
 11 16  1  0  0  0  0
 11 15  1  1  0  0  0
 16 18  1  0  0  0  0
 17 16  1  0  0  0  0
 19  1  1  0  0  0  0
 20 19  2  0  0  0  0
 21 22  1  0  0  0  0
 22 23  2  0  0  0  0
 22 19  1  0  0  0  0
 23 24  1  0  0  0  0
 25 26  1  0  0  0  0
 25 23  1  0  0  0  0
 27 25  2  0  0  0  0
 28 27  1  0  0  0  0
 28 21  2  0  0  0  0
 30 21  1  0  0  0  0
 30 29  1  0  0  0  0
 30 31  2  0  0  0  0
 32 30  2  0  0  0  0
M  END
>  <minimizedAffinity>
-5.05823517

>  <minimizedRMSD>
1.98102462

$$$$
