
 OpenBabel03252507153D

 32 34  0  0  0  0  0  0  0  0999 V2000
   45.1350   36.1590   43.5780 C   0  0  0  0  0  0  0  0  0  0  0  0
   45.7790   34.9640   43.1860 C   0  0  0  0  0  0  0  0  0  0  0  0
   45.8150   33.9130   44.0740 C   0  0  0  0  0  0  0  0  0  0  0  0
   45.2400   34.0520   45.2850 N   0  0  0  0  0  0  0  0  0  0  0  0
   44.6190   35.2180   45.6540 C   0  0  0  0  0  0  0  0  0  0  0  0
   44.5850   36.2310   44.7920 N   0  0  0  0  0  0  0  0  0  0  0  0
   45.0810   37.0150   42.9120 H   0  0  0  0  0  0  0  0  0  0  0  0
   44.1540   35.3420   46.6230 H   0  0  0  0  0  0  0  0  0  0  0  0
   46.4750   32.6880   43.6670 C   0  0  0  0  0  0  0  0  0  0  0  0
   45.7140   31.6160   43.2190 C   0  0  0  0  0  0  0  0  0  0  0  0
   46.3680   30.4660   42.8390 C   0  0  0  0  0  0  0  0  0  0  0  0
   47.7510   30.3170   42.8780 C   0  0  0  0  0  0  0  0  0  0  0  0
   48.4350   31.4210   43.3320 C   0  0  0  0  0  0  0  0  0  0  0  0
   47.7980   32.5520   43.7060 N   0  0  0  0  0  0  0  0  0  0  0  0
   44.6210   31.6580   43.1600 H   0  0  0  0  0  0  0  0  0  0  0  0
   45.8020   29.6040   42.4820 H   0  0  0  0  0  0  0  0  0  0  0  0
   48.2740   29.4280   42.5860 H   0  0  0  0  0  0  0  0  0  0  0  0
   49.5120   31.4560   43.4190 H   0  0  0  0  0  0  0  0  0  0  0  0
   46.3700   34.8970   41.8750 C   0  0  0  0  0  0  0  0  0  0  0  0
   47.5560   35.3510   41.7570 O   0  0  0  0  0  0  0  0  0  0  0  0
   45.8630   33.3700   39.9300 C   0  0  0  0  0  0  0  0  0  0  0  0
   45.5080   34.3120   40.8700 C   0  0  0  0  0  0  0  0  0  0  0  0
   44.1650   34.7040   40.8090 C   0  0  0  0  0  0  0  0  0  0  0  0
   43.7990   35.4410   41.5120 H   0  0  0  0  0  0  0  0  0  0  0  0
   43.2600   34.2050   39.8990 C   0  0  0  0  0  0  0  0  0  0  0  0
   42.2440   34.5520   39.9080 H   0  0  0  0  0  0  0  0  0  0  0  0
   43.6690   33.2650   38.9810 C   0  0  0  0  0  3  0  0  0  0  0  0
   44.9870   32.8470   39.0030 C   0  0  0  0  0  3  0  0  0  0  0  0
   48.1190   32.8440   41.1260 H   0  0  0  0  0  0  0  0  0  0  0  0
   47.5090   32.8240   39.9150 S   0  0  0  0  0  0  0  0  0  0  0  0
   48.3240   33.5730   38.8720 O   0  0  0  0  0  0  0  0  0  0  0  0
   47.5230   31.3850   39.4370 O   0  0  0  0  0  0  0  0  0  0  0  0
  1  6  1  0  0  0  0
  2  1  2  0  0  0  0
  2  3  1  0  0  0  0
  3  4  2  0  0  0  0
  4  5  1  0  0  0  0
  5  8  1  0  0  0  0
  6  5  2  0  0  0  0
  7  1  1  0  0  0  0
  9 14  1  0  0  0  0
  9  3  1  0  0  0  0
 10  9  2  0  0  0  0
 11 12  2  0  0  0  0
 11 10  1  0  0  0  0
 12 13  1  0  0  0  0
 13 18  1  0  0  0  0
 13 14  2  0  0  0  0
 15 10  1  0  0  0  0
 16 11  1  0  0  0  0
 17 12  1  0  0  0  0
 19  2  1  0  0  0  0
 20 19  2  0  0  0  0
 21 22  1  0  0  0  0
 22 19  1  0  0  0  0
 23 22  2  0  0  0  0
 23 24  1  0  0  0  0
 25 26  1  0  0  0  0
 25 23  1  0  0  0  0
 27 28  1  0  0  0  0
 27 25  2  0  0  0  0
 28 21  2  0  0  0  0
 30 21  1  0  0  0  0
 30 29  1  0  0  0  0
 31 30  2  0  0  0  0
 32 30  2  0  0  0  0
M  END
>  <minimizedAffinity>
-4.77910471

>  <minimizedRMSD>
0.624817729

$$$$
