
 OpenBabel03252503343D

 25 26  0  0  0  0  0  0  0  0999 V2000
   46.7730   33.5060   40.9920 C   0  0  0  0  0  0  0  0  0  0  0  0
   45.6200   33.0050   41.1580 O   0  0  0  0  0  0  0  0  0  0  0  0
   47.1880   34.3330   42.0650 N   0  0  0  0  0  0  0  0  0  0  0  0
   48.1770   34.7020   42.0680 H   0  0  0  0  0  0  0  0  0  0  0  0
   44.6640   36.0390   44.2160 C   0  0  0  0  0  0  0  0  0  0  0  0
   45.4770   35.7920   43.0990 C   0  0  0  0  0  0  0  0  0  0  0  0
   46.3210   34.6820   43.1320 C   0  0  0  0  0  0  0  0  0  0  0  0
   46.3280   33.8850   44.2330 N   0  0  0  0  0  0  0  0  0  0  0  0
   45.5210   34.1550   45.3050 C   0  0  0  0  0  0  0  0  0  0  0  0
   44.6990   35.2290   45.2820 N   0  0  0  0  0  0  0  0  0  0  0  0
   44.0370   36.9160   44.1130 H   0  0  0  0  0  0  0  0  0  0  0  0
   45.5120   36.3910   42.1930 H   0  0  0  0  0  0  0  0  0  0  0  0
   45.4570   33.5880   46.1950 H   0  0  0  0  0  0  0  0  0  0  0  0
   48.5540   32.2370   39.9490 C   0  0  0  0  0  0  0  0  0  0  0  0
   47.6420   33.2900   39.8280 C   0  0  0  0  0  0  0  0  0  0  0  0
   47.5560   34.0720   38.6980 C   0  0  0  0  0  0  0  0  0  0  0  0
   46.8360   34.8820   38.6350 H   0  0  0  0  0  0  0  0  0  0  0  0
   48.4220   33.7880   37.6480 C   0  0  0  0  0  0  0  0  0  0  0  0
   48.3900   34.3700   36.7300 H   0  0  0  0  0  0  0  0  0  0  0  0
   49.3510   32.7550   37.7090 C   0  0  0  0  0  3  0  0  0  0  0  0
   49.4040   31.9880   38.8710 C   0  0  0  0  0  3  0  0  0  0  0  0
   49.7160   30.4200   41.2550 H   0  0  0  0  0  0  0  0  0  0  0  0
   48.6330   31.2600   41.4130 S   0  0  0  0  0  0  0  0  0  0  0  0
   47.4300   30.4100   41.5960 O   0  0  0  0  0  0  0  0  0  0  0  0
   48.9200   32.1270   42.6130 O   0  0  0  0  0  0  0  0  0  0  0  0
  1  2  2  0  0  0  0
  1  3  1  0  0  0  0
  3  4  1  0  0  0  0
  3  7  1  0  0  0  0
  5 10  1  0  0  0  0
  6  7  1  0  0  0  0
  6  5  2  0  0  0  0
  7  8  2  0  0  0  0
  8  9  1  0  0  0  0
  9 13  1  0  0  0  0
 10  9  2  0  0  0  0
 11  5  1  0  0  0  0
 12  6  1  0  0  0  0
 14 23  1  0  0  0  0
 15 14  1  0  0  0  0
 15  1  1  0  0  0  0
 16 15  2  0  0  0  0
 17 16  1  0  0  0  0
 18 20  2  0  0  0  0
 18 16  1  0  0  0  0
 19 18  1  0  0  0  0
 20 21  1  0  0  0  0
 21 14  2  0  0  0  0
 22 23  1  0  0  0  0
 23 24  2  0  0  0  0
 23 25  2  0  0  0  0
M  END
>  <minimizedAffinity>
-4.11555004

>  <minimizedRMSD>
1.28733683

$$$$
