REMARK  Name = 
REMARK  3 active torsions:
REMARK  status: ('A' for Active; 'I' for Inactive)
REMARK    1  A    between atoms: C_3  and  C_10
REMARK    2  A    between atoms: C_7  and  C_22
REMARK    3  A    between atoms: S_18  and  C_21
REMARK                            x       y       z     vdW  Elec       q    Type
REMARK                         _______ _______ _______ _____ _____    ______ ____
ROOT
ATOM      1  C   UNL     1      45.429  35.198  43.093  0.00  0.00    +0.000 A 
ATOM      2  C   UNL     1      46.456  35.561  42.208  0.00  0.00    +0.000 A 
ATOM      3  C   UNL     1      47.682  34.880  42.384  0.00  0.00    +0.000 A 
ATOM      4  N   UNL     1      47.761  33.963  43.362  0.00  0.00    +0.000 NA
ATOM      5  C   UNL     1      46.748  33.642  44.194  0.00  0.00    +0.000 A 
ATOM      6  N   UNL     1      45.562  34.278  44.049  0.00  0.00    +0.000 NA
ATOM      7  C   UNL     1      43.410  35.364  41.884  0.00  0.00    +0.000 C 
ATOM      8  O   UNL     1      43.941  34.449  41.157  0.00  0.00    +0.000 OA
ATOM      9  N   UNL     1      44.142  35.828  43.003  0.00  0.00    +0.000 N 
ATOM     10  H   UNL     1      46.288  36.303  41.466  0.00  0.00    +0.000 HD
ATOM     11  H   UNL     1      46.928  32.886  44.947  0.00  0.00    +0.000 HD
ATOM     12  H   UNL     1      43.644  36.529  43.563  0.00  0.00    +0.000 HD
ENDROOT
BRANCH   7  14
ATOM     13  C   UNL     1      40.929  35.557  42.077  0.00  0.00    +0.000 A 
ATOM     14  C   UNL     1      42.093  35.780  41.410  0.00  0.00    +0.000 A 
ATOM     15  C   UNL     1      42.116  36.438  40.198  0.00  0.00    +0.000 A 
ATOM     16  H   UNL     1      43.018  36.635  39.638  0.00  0.00    +0.000 HD
ATOM     17  C   UNL     1      40.947  36.908  39.592  0.00  0.00    +0.000 A 
ATOM     18  H   UNL     1      40.912  37.429  38.645  0.00  0.00    +0.000 HD
ATOM     19  C   UNL     1      39.767  36.663  40.304  0.00  0.00    +0.000 A 
ATOM     20  C   UNL     1      39.726  36.005  41.520  0.00  0.00    +0.000 A 
BRANCH  13  22
ATOM     21  H   UNL     1      42.202  34.930  44.183  0.00  0.00    +0.000 HD
ATOM     22  S   UNL     1      40.973  34.728  43.590  0.00  0.00    +0.000 S 
ATOM     23  O   UNL     1      39.941  35.277  44.548  0.00  0.00    +0.000 OA
ATOM     24  O   UNL     1      40.696  33.247  43.453  0.00  0.00    +0.000 OA
ENDBRANCH  13  22
ENDBRANCH   7  14
BRANCH   3  25
ATOM     25  C   UNL     1      48.742  35.273  41.449  0.00  0.00    +0.000 C 
ATOM     26  F   UNL     1      49.853  34.442  41.666  0.00  0.00    +0.000 F 
ATOM     27  F   UNL     1      49.153  36.540  41.811  0.00  0.00    +0.000 F 
ATOM     28  F   UNL     1      48.392  35.155  40.135  0.00  0.00    +0.000 F 
ENDBRANCH   3  25
TORSDOF 3
