
 OpenBabel03252503343D

 25 26  0  0  0  0  0  0  0  0999 V2000
   45.5020   33.1570   40.9650 C   0  0  0  0  0  0  0  0  0  0  0  0
   44.8230   32.3680   41.6900 O   0  0  0  0  0  0  0  0  0  0  0  0
   45.9580   34.3060   41.6580 N   0  0  0  0  0  0  0  0  0  0  0  0
   46.6250   34.9620   41.1680 H   0  0  0  0  0  0  0  0  0  0  0  0
   44.4240   35.9100   44.6550 C   0  0  0  0  0  0  0  0  0  0  0  0
   44.7670   35.7150   43.3080 C   0  0  0  0  0  0  0  0  0  0  0  0
   45.5480   34.6060   42.9820 C   0  0  0  0  0  0  0  0  0  0  0  0
   45.9460   33.7610   43.9690 N   0  0  0  0  0  0  0  0  0  0  0  0
   45.5930   33.9810   45.2720 C   0  0  0  0  0  0  0  0  0  0  0  0
   44.8360   35.0540   45.5980 N   0  0  0  0  0  0  0  0  0  0  0  0
   43.8160   36.7900   44.8260 H   0  0  0  0  0  0  0  0  0  0  0  0
   44.4770   36.3540   42.4780 H   0  0  0  0  0  0  0  0  0  0  0  0
   45.8510   33.3750   46.0990 H   0  0  0  0  0  0  0  0  0  0  0  0
   44.7900   33.2610   38.6530 C   0  0  0  0  0  0  0  0  0  0  0  0
   45.8220   32.9570   39.5460 C   0  0  0  0  0  0  0  0  0  0  0  0
   47.0530   32.5040   39.1320 C   0  0  0  0  0  0  0  0  0  0  0  0
   47.8330   32.2770   39.8510 H   0  0  0  0  0  0  0  0  0  0  0  0
   47.2580   32.3470   37.7650 C   0  0  0  0  0  0  0  0  0  0  0  0
   48.2160   32.0010   37.3840 H   0  0  0  0  0  0  0  0  0  0  0  0
   46.2720   32.6330   36.8280 C   0  0  0  0  0  3  0  0  0  0  0  0
   45.0380   33.0890   37.2910 C   0  0  0  0  0  3  0  0  0  0  0  0
   42.5630   34.3120   38.1100 H   0  0  0  0  0  0  0  0  0  0  0  0
   43.2260   33.8380   39.2250 S   0  0  0  0  0  0  0  0  0  0  0  0
   43.3500   34.9630   40.1850 O   0  0  0  0  0  0  0  0  0  0  0  0
   42.4090   32.6950   39.7710 O   0  0  0  0  0  0  0  0  0  0  0  0
  1  3  1  0  0  0  0
  1  2  2  0  0  0  0
  3  7  1  0  0  0  0
  4  3  1  0  0  0  0
  5 11  1  0  0  0  0
  5 10  1  0  0  0  0
  6  5  2  0  0  0  0
  7  6  1  0  0  0  0
  7  8  2  0  0  0  0
  8  9  1  0  0  0  0
  9 10  2  0  0  0  0
  9 13  1  0  0  0  0
 12  6  1  0  0  0  0
 14 23  1  0  0  0  0
 14 15  1  0  0  0  0
 15  1  1  0  0  0  0
 16 15  2  0  0  0  0
 16 17  1  0  0  0  0
 18 16  1  0  0  0  0
 19 18  1  0  0  0  0
 20 21  1  0  0  0  0
 20 18  2  0  0  0  0
 21 14  2  0  0  0  0
 22 23  1  0  0  0  0
 23 25  2  0  0  0  0
 23 24  2  0  0  0  0
M  END
>  <minimizedAffinity>
-3.92374945

>  <minimizedRMSD>
1.69905579

$$$$
