
 OpenBabel03252503343D

 25 26  0  0  0  0  0  0  0  0999 V2000
   45.7530   33.2650   40.6300 C   0  0  0  0  0  0  0  0  0  0  0  0
   45.1720   34.1920   39.9890 O   0  0  0  0  0  0  0  0  0  0  0  0
   46.1310   32.1690   39.8160 N   0  0  0  0  0  0  0  0  0  0  0  0
   46.7200   31.4020   40.2400 H   0  0  0  0  0  0  0  0  0  0  0  0
   44.2740   31.4380   36.6660 C   0  0  0  0  0  0  0  0  0  0  0  0
   44.5470   31.4840   38.0420 C   0  0  0  0  0  0  0  0  0  0  0  0
   45.7460   32.0660   38.4550 C   0  0  0  0  0  0  0  0  0  0  0  0
   46.5990   32.5640   37.5210 N   0  0  0  0  0  0  0  0  0  0  0  0
   46.3000   32.5030   36.1880 C   0  0  0  0  0  0  0  0  0  0  0  0
   45.1400   31.9400   35.7770 N   0  0  0  0  0  0  0  0  0  0  0  0
   43.3250   30.9730   36.4270 H   0  0  0  0  0  0  0  0  0  0  0  0
   43.9040   31.1050   38.8320 H   0  0  0  0  0  0  0  0  0  0  0  0
   46.9000   32.8690   35.3970 H   0  0  0  0  0  0  0  0  0  0  0  0
   47.3580   33.5620   42.4200 C   0  0  0  0  0  0  0  0  0  0  0  0
   46.0360   33.2660   42.0720 C   0  0  0  0  0  0  0  0  0  0  0  0
   45.0640   32.9970   43.0060 C   0  0  0  0  0  0  0  0  0  0  0  0
   44.0460   32.7710   42.7020 H   0  0  0  0  0  0  0  0  0  0  0  0
   45.4300   33.0230   44.3480 C   0  0  0  0  0  0  0  0  0  0  0  0
   44.6990   32.8260   45.1280 H   0  0  0  0  0  0  0  0  0  0  0  0
   46.7280   33.3100   44.7570 C   0  0  0  0  0  3  0  0  0  0  0  0
   47.6830   33.5770   43.7770 C   0  0  0  0  0  3  0  0  0  0  0  0
   49.7330   34.2080   41.8750 H   0  0  0  0  0  0  0  0  0  0  0  0
   48.5740   33.9000   41.1920 S   0  0  0  0  0  0  0  0  0  0  0  0
   48.2240   35.0730   40.3510 O   0  0  0  0  0  0  0  0  0  0  0  0
   48.8590   32.6650   40.3750 O   0  0  0  0  0  0  0  0  0  0  0  0
  1 15  1  0  0  0  0
  2  1  2  0  0  0  0
  3  4  1  0  0  0  0
  3  1  1  0  0  0  0
  5  6  1  0  0  0  0
  6  7  2  0  0  0  0
  6 12  1  0  0  0  0
  7  3  1  0  0  0  0
  8  7  1  0  0  0  0
  9  8  2  0  0  0  0
 10  9  1  0  0  0  0
 10  5  2  0  0  0  0
 11  5  1  0  0  0  0
 13  9  1  0  0  0  0
 14 21  1  0  0  0  0
 15 14  2  0  0  0  0
 15 16  1  0  0  0  0
 16 18  2  0  0  0  0
 17 16  1  0  0  0  0
 18 20  1  0  0  0  0
 18 19  1  0  0  0  0
 21 20  2  0  0  0  0
 23 22  1  0  0  0  0
 23 14  1  0  0  0  0
 24 23  2  0  0  0  0
 25 23  2  0  0  0  0
M  END
>  <minimizedAffinity>
-3.15218115

>  <minimizedRMSD>
6.20141029

$$$$
