
 OpenBabel03252503343D

 25 26  0  0  0  0  0  0  0  0999 V2000
   45.8530   33.3060   40.8800 C   0  0  0  0  0  0  0  0  0  0  0  0
   45.3710   32.3940   41.6180 O   0  0  0  0  0  0  0  0  0  0  0  0
   46.0710   34.5280   41.5640 N   0  0  0  0  0  0  0  0  0  0  0  0
   46.5750   35.3070   41.0610 H   0  0  0  0  0  0  0  0  0  0  0  0
   44.4010   35.8730   44.6150 C   0  0  0  0  0  0  0  0  0  0  0  0
   44.7600   35.7610   43.2630 C   0  0  0  0  0  0  0  0  0  0  0  0
   45.6360   34.7390   42.8970 C   0  0  0  0  0  0  0  0  0  0  0  0
   46.1060   33.8930   43.8520 N   0  0  0  0  0  0  0  0  0  0  0  0
   45.7340   34.0310   45.1620 C   0  0  0  0  0  0  0  0  0  0  0  0
   44.8850   35.0200   45.5260 N   0  0  0  0  0  0  0  0  0  0  0  0
   43.7180   36.6890   44.8170 H   0  0  0  0  0  0  0  0  0  0  0  0
   44.4160   36.4050   42.4580 H   0  0  0  0  0  0  0  0  0  0  0  0
   46.0440   33.4180   45.9660 H   0  0  0  0  0  0  0  0  0  0  0  0
   45.0880   33.2720   38.5820 C   0  0  0  0  0  0  0  0  0  0  0  0
   46.1770   33.1730   39.4530 C   0  0  0  0  0  0  0  0  0  0  0  0
   47.4640   32.9690   39.0140 C   0  0  0  0  0  0  0  0  0  0  0  0
   48.2880   32.8970   39.7170 H   0  0  0  0  0  0  0  0  0  0  0  0
   47.6690   32.8560   37.6420 C   0  0  0  0  0  0  0  0  0  0  0  0
   48.6680   32.7030   37.2410 H   0  0  0  0  0  0  0  0  0  0  0  0
   46.6270   32.9460   36.7260 C   0  0  0  0  0  3  0  0  0  0  0  0
   45.3380   33.1540   37.2150 C   0  0  0  0  0  3  0  0  0  0  0  0
   42.6840   33.8480   38.0850 H   0  0  0  0  0  0  0  0  0  0  0  0
   43.4530   33.5340   39.1870 S   0  0  0  0  0  0  0  0  0  0  0  0
   43.3710   34.6750   40.1310 O   0  0  0  0  0  0  0  0  0  0  0  0
   42.8930   32.2590   39.7650 O   0  0  0  0  0  0  0  0  0  0  0  0
  1  3  1  0  0  0  0
  1  2  2  0  0  0  0
  3  7  1  0  0  0  0
  4  3  1  0  0  0  0
  5 11  1  0  0  0  0
  5 10  1  0  0  0  0
  6  5  2  0  0  0  0
  7  6  1  0  0  0  0
  7  8  2  0  0  0  0
  8  9  1  0  0  0  0
  9 10  2  0  0  0  0
  9 13  1  0  0  0  0
 12  6  1  0  0  0  0
 14 23  1  0  0  0  0
 14 15  1  0  0  0  0
 15  1  1  0  0  0  0
 16 15  2  0  0  0  0
 16 17  1  0  0  0  0
 18 16  1  0  0  0  0
 19 18  1  0  0  0  0
 20 21  1  0  0  0  0
 20 18  2  0  0  0  0
 21 14  2  0  0  0  0
 22 23  1  0  0  0  0
 23 25  2  0  0  0  0
 23 24  2  0  0  0  0
M  END
>  <minimizedAffinity>
-3.95667529

>  <minimizedRMSD>
1.5165019

$$$$
