
     RDKit          3D

 27 28  0  0  0  0  0  0  0  0999 V2000
   44.9109   35.1455   44.0340 C   0  0  0  0  0  0  0  0  0  0  0  0
   45.7580   35.3932   42.9211 C   0  0  0  0  0  0  0  0  0  0  0  0
   46.9460   34.6745   42.8413 C   0  0  0  0  0  0  0  0  0  0  0  0
   47.2613   33.7842   43.7926 N   0  0  0  0  0  0  0  0  0  0  0  0
   46.4281   33.5672   44.8505 C   0  0  0  0  0  0  0  0  0  0  0  0
   45.2692   34.2432   44.9628 N   0  0  0  0  0  0  0  0  0  0  0  0
   43.6918   35.8338   44.1817 N   0  0  0  0  0  0  0  0  0  0  0  0
   47.7327   34.9847   41.6871 C   0  0  0  0  0  0  0  0  0  0  0  0
   48.6690   35.8087   41.6200 O   0  0  0  0  0  0  0  0  0  0  0  0
   45.3743   36.1348   42.2391 H   0  0  0  0  0  0  0  0  0  0  0  0
   46.6499   32.8651   45.6250 H   0  0  0  0  0  0  0  0  0  0  0  0
   43.5590   36.8409   44.4221 H   0  0  0  0  0  0  0  0  0  0  0  0
   42.8791   35.1840   44.0133 H   0  0  0  0  0  0  0  0  0  0  0  0
   46.8934   31.6046   42.4076 H   0  0  0  0  0  0  0  0  0  0  0  0
   46.0100   32.5013   41.8401 S   0  0  0  0  0  0  0  0  0  0  0  0
   45.5079   33.5142   42.8114 O   0  0  0  0  0  0  0  0  0  0  0  0
   44.8045   31.6757   41.4472 O   0  0  0  0  0  0  0  0  0  0  0  0
   46.6869   33.1587   40.3963 C   0  0  0  0  0  0  0  0  0  0  0  0
   47.4624   34.2965   40.4133 C   0  0  0  0  0  0  0  0  0  0  0  0
   47.9649   34.7584   39.2280 C   0  0  0  0  0  0  0  0  0  0  0  0
   48.5791   35.6450   39.1780 H   0  0  0  0  0  0  0  0  0  0  0  0
   47.7383   34.1477   38.0136 C   0  0  0  0  0  0  0  0  0  0  0  0
   48.1344   34.5120   37.0798 H   0  0  0  0  0  0  0  0  0  0  0  0
   46.9645   33.0054   37.9666 C   0  0  0  0  0  0  0  0  0  0  0  0
   46.4576   32.5399   39.1635 C   0  0  0  0  0  0  0  0  0  0  0  0
   46.7618   32.4942   37.0329 H   0  0  0  0  0  0  0  0  0  0  0  0
   45.8461   31.6467   39.1685 H   0  0  0  0  0  0  0  0  0  0  0  0
  1  7  1  0
  1  6  2  0
  2  1  1  0
  3  2  2  0
  3  4  1  0
  4  5  2  0
  5  6  1  0
  8  3  1  0
  9  8  2  0
  2 10  1  0
  5 11  1  0
  7 12  1  0
  7 13  1  0
 14 15  1  0
 15 16  2  0
 15 17  2  0
 15 18  1  0
 18 19  2  0
 19 20  1  0
 20 21  1  0
 20 22  2  0
 22 23  1  0
 22 24  1  0
 24 25  2  0
 25 18  1  0
 24 26  1  0
 25 27  1  0
  8 19  1  0
M  ISO  5  10  14  11  14  14  12  21  15  23  16
M  END
>  <DihAtoms>  (1) 
2,7,18,17

>  <DihDeg>  (1) 
-135.00088339273293

$$$$
