
 OpenBabel03242520443D

 25 26  0  0  0  0  0  0  0  0999 V2000
   48.4430   35.0440   41.9950 C   0  0  0  0  0  0  0  0  0  0  0  0
   48.9740   36.1260   41.6690 O   0  0  0  0  0  0  0  0  0  0  0  0
   46.1910   33.6650   44.5500 C   0  0  0  0  0  0  0  0  0  0  0  0
   47.3360   33.8970   43.7420 C   0  0  0  0  0  0  0  0  0  0  0  0
   47.2430   34.8740   42.7570 C   0  0  0  0  0  0  0  0  0  0  0  0
   46.1030   35.5610   42.5930 N   0  0  0  0  0  0  0  0  0  0  0  0
   45.0200   35.3160   43.3840 C   0  0  0  0  0  0  0  0  0  0  0  0
   45.0700   34.3780   44.3480 N   0  0  0  0  0  0  0  0  0  0  0  0
   46.2100   32.6910   45.5670 N   0  0  0  0  0  0  0  0  0  0  0  0
   48.1780   33.2700   43.9890 H   0  0  0  0  0  0  0  0  0  0  0  0
   44.0970   35.8450   43.2790 H   0  0  0  0  0  0  0  0  0  0  0  0
   46.2250   31.6540   45.4510 H   0  0  0  0  0  0  0  0  0  0  0  0
   46.2090   33.1510   46.5160 H   0  0  0  0  0  0  0  0  0  0  0  0
   48.7580   33.2050   40.3780 C   0  0  0  0  0  0  0  0  0  0  0  0
   49.1760   33.8600   41.5160 C   0  0  0  0  0  0  0  0  0  0  0  0
   50.2750   33.3820   42.1740 C   0  0  0  0  0  0  0  0  0  0  0  0
   50.6500   33.8520   43.0710 H   0  0  0  0  0  0  0  0  0  0  0  0
   50.9900   32.2780   41.7630 C   0  0  0  0  0  0  0  0  0  0  0  0
   51.8560   31.9010   42.2810 H   0  0  0  0  0  0  0  0  0  0  0  0
   50.5940   31.6030   40.6260 C   0  0  0  0  0  3  0  0  0  0  0  0
   49.4840   32.0860   39.9620 C   0  0  0  0  0  3  0  0  0  0  0  0
   47.0990   35.0510   39.7920 H   0  0  0  0  0  0  0  0  0  0  0  0
   47.3820   33.7350   39.4810 S   0  0  0  0  0  0  0  0  0  0  0  0
   47.4610   33.4900   38.0140 O   0  0  0  0  0  0  0  0  0  0  0  0
   46.1860   32.9460   39.9680 O   0  0  0  0  0  0  0  0  0  0  0  0
  1  5  1  0  0  0  0
  2  1  2  0  0  0  0
  3  9  1  0  0  0  0
  4 10  1  0  0  0  0
  4  3  2  0  0  0  0
  5  4  1  0  0  0  0
  6  5  2  0  0  0  0
  6  7  1  0  0  0  0
  7  8  2  0  0  0  0
  8  3  1  0  0  0  0
  9 13  1  0  0  0  0
 11  7  1  0  0  0  0
 12  9  1  0  0  0  0
 14 15  1  0  0  0  0
 15  1  1  0  0  0  0
 15 16  2  0  0  0  0
 16 17  1  0  0  0  0
 18 16  1  0  0  0  0
 18 19  1  0  0  0  0
 20 18  2  0  0  0  0
 21 14  2  0  0  0  0
 21 20  1  0  0  0  0
 23 22  1  0  0  0  0
 23 25  2  0  0  0  0
 23 14  1  0  0  0  0
 24 23  2  0  0  0  0
M  END
>  <minimizedAffinity>
-4.61221838

>  <minimizedRMSD>
3.10304117

$$$$
