REMARK  Name = 
REMARK  7 active torsions:
REMARK  status: ('A' for Active; 'I' for Inactive)
REMARK    1  A    between atoms: C_1  and  C_11
REMARK    2  A    between atoms: C_5  and  C_7
REMARK    3  A    between atoms: C_9  and  N_10
REMARK    4  A    between atoms: C_11  and  C_14
REMARK    5  A    between atoms: C_13  and  S_19
REMARK    6  A    between atoms: S_19  and  C_39
REMARK    7  A    between atoms: S_35  and  C_38
REMARK                            x       y       z     vdW  Elec       q    Type
REMARK                         _______ _______ _______ _____ _____    ______ ____
ROOT
ATOM      1  C   UNL     1      41.993  33.311  41.306  0.00  0.00    +0.000 A 
ATOM      2  C   UNL     1      42.813  34.402  41.310  0.00  0.00    +0.000 A 
ATOM      3  C   UNL     1      42.230  35.662  41.066  0.00  0.00    +0.000 A 
ATOM      4  C   UNL     1      40.892  35.845  40.828  0.00  0.00    +0.000 A 
ATOM      5  C   UNL     1      40.078  34.748  40.827  0.00  0.00    +0.000 A 
ATOM      6  C   UNL     1      40.630  33.525  41.061  0.00  0.00    +0.000 A 
ATOM      7  H   UNL     1      42.808  36.583  41.041  0.00  0.00    +0.000 HD
ATOM      8  H   UNL     1      40.465  36.795  40.647  0.00  0.00    +0.000 HD
ATOM      9  H   UNL     1      39.034  34.819  40.650  0.00  0.00    +0.000 HD
ATOM     10  H   UNL     1      39.962  32.652  41.056  0.00  0.00    +0.000 HD
ENDROOT
BRANCH   1  11
ATOM     11  S   UNL     1      42.529  31.762  41.674  0.00  0.00    +0.000 S 
ATOM     12  O   UNL     1      42.391  31.073  40.278  0.00  0.00    +0.000 OA
ATOM     13  O   UNL     1      41.630  31.041  42.601  0.00  0.00    +0.000 OA
BRANCH  11  15
ATOM     14  C   UNL     1      44.218  29.903  42.509  0.00  0.00    +0.000 A 
ATOM     15  C   UNL     1      44.075  31.116  41.791  0.00  0.00    +0.000 A 
ATOM     16  C   UNL     1      45.314  31.521  41.232  0.00  0.00    +0.000 A 
ATOM     17  H   UNL     1      45.177  32.447  40.637  0.00  0.00    +0.000 HD
ATOM     18  C   UNL     1      46.574  30.964  41.270  0.00  0.00    +0.000 A 
ATOM     19  H   UNL     1      47.367  31.451  40.772  0.00  0.00    +0.000 HD
ATOM     20  C   UNL     1      46.521  29.826  41.990  0.00  0.00    +0.000 A 
ATOM     21  C   UNL     1      45.434  29.268  42.604  0.00  0.00    +0.000 A 
BRANCH  14  23
ATOM     22  H   UNL     1      42.002  28.517  42.522  0.00  0.00    +0.000 HD
ATOM     23  S   UNL     1      42.886  29.120  43.341  0.00  0.00    +0.000 S 
ATOM     24  O   UNL     1      42.248  30.037  44.372  0.00  0.00    +0.000 OA
ATOM     25  O   UNL     1      43.402  27.979  44.212  0.00  0.00    +0.000 OA
ENDBRANCH  14  23
ENDBRANCH  11  15
ENDBRANCH   1  11
BRANCH   2  26
ATOM     26  C   UNL     1      44.241  34.314  41.548  0.00  0.00    +0.000 C 
ATOM     27  O   UNL     1      45.114  34.157  40.639  0.00  0.00    +0.000 OA
BRANCH  26  28
ATOM     28  C   UNL     1      44.590  34.424  42.940  0.00  0.00    +0.000 A 
ATOM     29  C   UNL     1      44.305  35.692  43.556  0.00  0.00    +0.000 A 
ATOM     30  C   UNL     1      44.626  35.816  44.897  0.00  0.00    +0.000 A 
ATOM     31  N   UNL     1      45.182  34.751  45.537  0.00  0.00    +0.000 NA
ATOM     32  C   UNL     1      45.433  33.563  44.899  0.00  0.00    +0.000 A 
ATOM     33  N   UNL     1      45.136  33.444  43.653  0.00  0.00    +0.000 NA
ATOM     34  H   UNL     1      43.880  36.562  43.133  0.00  0.00    +0.000 HD
ATOM     35  H   UNL     1      44.459  36.720  45.469  0.00  0.00    +0.000 HD
BRANCH  32  36
ATOM     36  C   UNL     1      46.031  32.461  45.676  0.00  0.00    +0.000 C 
ATOM     37  C   UNL     1      46.967  32.788  46.819  0.00  0.00    +0.000 C 
ATOM     38  C   UNL     1      45.553  32.361  47.081  0.00  0.00    +0.000 C 
ATOM     39  H   UNL     1      46.234  31.521  45.144  0.00  0.00    +0.000 HD
ATOM     40  H   UNL     1      47.242  33.875  46.843  0.00  0.00    +0.000 HD
ATOM     41  H   UNL     1      47.802  32.092  46.985  0.00  0.00    +0.000 HD
ATOM     42  H   UNL     1      45.480  31.334  47.507  0.00  0.00    +0.000 HD
BRANCH  38  43
ATOM     43  N   UNL     1      44.756  33.425  47.655  0.00  0.00    +0.000 NA
ATOM     44  H   UNL     1      44.107  33.037  48.375  0.00  0.00    +0.000 HD
ATOM     45  H   UNL     1      45.294  34.240  47.974  0.00  0.00    +0.000 HD
ENDBRANCH  38  43
ENDBRANCH  32  36
ENDBRANCH  26  28
ENDBRANCH   2  26
TORSDOF 7
