
 OpenBabel03252507453D

 40 42  0  0  0  0  0  0  0  0999 V2000
   48.4880   34.0090   41.3500 C   0  0  0  0  0  0  0  0  0  0  0  0
   48.9270   32.7790   40.8970 C   0  0  0  0  0  0  0  0  0  0  0  0
   50.1710   32.2790   41.2610 C   0  0  0  0  0  0  0  0  0  0  0  0
   50.9330   33.0500   42.0810 N   0  0  0  0  0  0  0  0  0  0  0  0
   50.4710   34.2600   42.5110 C   0  0  0  0  0  0  0  0  0  0  0  0
   49.2810   34.6980   42.1390 N   0  0  0  0  0  0  0  0  0  0  0  0
   50.5740   31.3500   40.9530 H   0  0  0  0  0  0  0  0  0  0  0  0
   51.0270   34.9240   43.1630 H   0  0  0  0  0  0  0  0  0  0  0  0
   47.1650   34.4390   40.8890 C   0  0  0  0  0  0  0  0  0  0  0  0
   47.2800   35.2290   40.0850 H   0  0  0  0  0  0  0  0  0  0  0  0
   46.5830   33.6350   40.4040 H   0  0  0  0  0  0  0  0  0  0  0  0
   46.3100   35.0090   41.9890 C   0  0  0  0  0  0  0  0  0  0  0  0
   46.5600   36.0850   42.1030 H   0  0  0  0  0  0  0  0  0  0  0  0
   46.6130   34.4570   42.9220 H   0  0  0  0  0  0  0  0  0  0  0  0
   44.8570   34.9520   41.7400 C   0  0  0  0  0  0  0  0  0  0  0  0
   43.9570   35.4350   42.7290 C   0  0  0  0  0  0  0  0  0  0  0  0
   42.3110   35.1540   41.9710 S   0  0  0  0  0  0  0  0  0  0  0  0
   43.1340   34.4150   40.4130 C   0  0  0  0  0  0  0  0  0  0  0  0
   44.2440   34.4930   40.6790 N   0  0  0  0  0  0  0  0  0  0  0  0
   44.1940   35.8620   43.6900 H   0  0  0  0  0  0  0  0  0  0  0  0
   42.4110   33.9450   39.3200 O   0  0  0  0  0  0  0  0  0  0  0  0
   40.4390   34.3950   37.6120 O   0  0  0  0  0  0  0  0  0  0  0  0
   41.5200   35.0800   38.4300 P   0  0  0  0  0  0  0  0  0  0  0  0
   40.7940   36.1530   39.5120 O   0  0  0  0  0  0  0  0  0  0  0  0
   40.3520   36.9170   39.0530 H   0  0  0  0  0  0  0  0  0  0  0  0
   42.5680   35.9570   37.4240 O   0  0  0  0  0  0  0  0  0  0  0  0
   43.1130   35.2900   36.9530 H   0  0  0  0  0  0  0  0  0  0  0  0
   47.8990   31.7850   39.7890 S   0  0  0  0  0  0  0  0  0  0  0  0
   47.1280   29.5280   40.9870 C   0  0  0  0  0  0  0  0  0  0  0  0
   46.6990   30.8180   40.6710 C   0  0  0  0  0  0  0  0  0  0  0  0
   45.4290   31.1650   41.0720 C   0  0  0  0  0  0  0  0  0  0  0  0
   45.1310   32.1520   40.8140 H   0  0  0  0  0  0  0  0  0  0  0  0
   44.5850   30.3200   41.7550 C   0  0  0  0  0  0  0  0  0  0  0  0
   43.6070   30.6860   42.0260 H   0  0  0  0  0  0  0  0  0  0  0  0
   45.0050   29.0460   42.0690 C   0  0  0  0  0  3  0  0  0  0  0  0
   46.2840   28.6690   41.6760 C   0  0  0  0  0  3  0  0  0  0  0  0
   49.3050   29.3550   39.5840 H   0  0  0  0  0  0  0  0  0  0  0  0
   48.6600   28.7770   40.6250 S   0  0  0  0  0  0  0  0  0  0  0  0
   48.4820   27.3030   40.3520 O   0  0  0  0  0  0  0  0  0  0  0  0
   49.5450   28.8770   41.8380 O   0  0  0  0  0  0  0  0  0  0  0  0
  1  6  1  0  0  0  0
  2  3  1  0  0  0  0
  2  1  2  0  0  0  0
  3  4  2  0  0  0  0
  4  5  1  0  0  0  0
  5  8  1  0  0  0  0
  6  5  2  0  0  0  0
  7  3  1  0  0  0  0
  9  1  1  0  0  0  0
  9 12  1  0  0  0  0
 10  9  1  0  0  0  0
 11  9  1  0  0  0  0
 12 13  1  0  0  0  0
 12 14  1  0  0  0  0
 15 12  1  0  0  0  0
 15 16  2  0  0  0  0
 16 20  1  0  0  0  0
 17 16  1  0  0  0  0
 18 19  2  0  0  0  0
 18 17  1  0  0  0  0
 19 15  1  0  0  0  0
 21 18  1  0  0  0  0
 22 23  2  0  0  0  0
 23 21  1  0  0  0  0
 23 24  1  0  0  0  0
 25 24  1  0  0  0  0
 26 23  1  0  0  0  0
 27 26  1  0  0  0  0
 28 30  1  0  0  0  0
 28  2  1  0  0  0  0
 29 36  1  0  0  0  0
 30 29  2  0  0  0  0
 30 31  1  0  0  0  0
 31 33  2  0  0  0  0
 32 31  1  0  0  0  0
 33 34  1  0  0  0  0
 33 35  1  0  0  0  0
 36 35  2  0  0  0  0
 37 38  1  0  0  0  0
 38 29  1  0  0  0  0
 38 40  2  0  0  0  0
 39 38  2  0  0  0  0
M  END
>  <minimizedAffinity>
-4.2064395

>  <minimizedRMSD>
0.598469675

$$$$
