
 OpenBabel03242522213D

 48 51  0  0  0  0  0  0  0  0999 V2000
   37.0770   30.1610   39.8590 C   0  0  0  0  0  0  0  0  0  0  0  0
   36.6230   28.9610   39.3650 C   0  0  0  0  0  0  0  0  0  0  0  0
   36.6580   27.7390   40.0220 C   0  0  0  0  0  0  0  0  0  0  0  0
   37.2040   27.7710   41.2790 C   0  0  0  0  0  0  0  0  0  0  0  0
   37.6570   28.9660   41.7760 C   0  0  0  0  0  0  0  0  0  0  0  0
   37.6080   30.1280   41.1120 N   0  0  0  0  0  0  0  0  0  0  0  0
   36.2050   29.0190   38.3630 H   0  0  0  0  0  0  0  0  0  0  0  0
   36.2840   26.8420   39.5730 H   0  0  0  0  0  0  0  0  0  0  0  0
   38.2310   28.8850   43.1480 C   0  0  0  0  0  0  0  0  0  0  0  0
   39.3000   27.9740   43.1470 F   0  0  0  0  0  0  0  0  0  0  0  0
   37.2980   28.5850   44.1100 F   0  0  0  0  0  0  0  0  0  0  0  0
   38.7940   30.1000   43.4940 F   0  0  0  0  0  0  0  0  0  0  0  0
   37.0730   31.4580   39.2370 C   0  0  0  0  0  0  0  0  0  0  0  0
   37.8430   31.5020   38.4260 H   0  0  0  0  0  0  0  0  0  0  0  0
   36.1000   31.5850   38.6840 H   0  0  0  0  0  0  0  0  0  0  0  0
   37.2840   32.6260   40.1390 C   0  0  0  0  0  0  0  0  0  0  0  0
   37.1260   32.3840   41.2140 H   0  0  0  0  0  0  0  0  0  0  0  0
   36.5500   33.4250   39.9030 H   0  0  0  0  0  0  0  0  0  0  0  0
   40.7700   33.5340   39.2860 C   0  0  0  0  0  0  0  0  0  0  0  0
   40.8150   34.7620   39.8600 C   0  0  0  0  0  0  0  0  0  0  0  0
   39.1250   34.9110   40.5570 S   0  0  0  0  0  0  0  0  0  0  0  0
   38.6300   33.2360   39.9350 C   0  0  0  0  0  0  0  0  0  0  0  0
   39.6140   32.9630   39.4390 N   0  0  0  0  0  0  0  0  0  0  0  0
   41.6270   35.4790   39.9040 H   0  0  0  0  0  0  0  0  0  0  0  0
   42.8570   31.6610   36.7910 C   0  0  0  0  0  0  0  0  0  0  0  0
   41.7300   32.2140   37.4040 C   0  0  0  0  0  0  0  0  0  0  0  0
   41.9010   32.9150   38.5710 C   0  0  0  0  0  0  0  0  0  0  0  0
   43.1970   33.0210   39.0620 N   0  0  0  0  0  0  0  0  0  0  0  0
   44.2430   32.4680   38.4290 C   0  0  0  0  0  0  0  0  0  0  0  0
   44.0790   31.7860   37.2920 N   0  0  0  0  0  0  0  0  0  0  0  0
   42.7100   31.1010   35.8570 H   0  0  0  0  0  0  0  0  0  0  0  0
   45.2350   32.5780   38.8500 H   0  0  0  0  0  0  0  0  0  0  0  0
   40.4700   32.0170   36.7750 N   0  0  0  0  0  0  0  0  0  0  0  0
   39.8770   32.7930   36.3750 H   0  0  0  0  0  0  0  0  0  0  0  0
   40.0380   31.0850   36.6660 H   0  0  0  0  0  0  0  0  0  0  0  0
   37.2920   26.2380   42.2070 S   0  0  0  0  0  0  0  0  0  0  0  0
   38.6590   24.4070   40.8610 C   0  0  0  0  0  0  0  0  0  0  0  0
   37.3710   24.8080   41.1780 C   0  0  0  0  0  0  0  0  0  0  0  0
   36.3310   24.0670   40.6680 C   0  0  0  0  0  0  0  0  0  0  0  0
   35.3510   24.4260   40.9480 H   0  0  0  0  0  0  0  0  0  0  0  0
   36.5600   22.9650   39.8720 C   0  0  0  0  0  0  0  0  0  0  0  0
   35.7150   22.4080   39.4900 H   0  0  0  0  0  0  0  0  0  0  0  0
   37.8330   22.5470   39.5430 C   0  0  0  0  0  3  0  0  0  0  0  0
   38.8740   23.2930   40.0560 C   0  0  0  0  0  3  0  0  0  0  0  0
   39.8790   26.5800   41.4870 H   0  0  0  0  0  0  0  0  0  0  0  0
   40.1080   25.2410   41.4270 S   0  0  0  0  0  0  0  0  0  0  0  0
   41.2180   24.9980   40.4300 O   0  0  0  0  0  0  0  0  0  0  0  0
   40.5790   24.6910   42.7240 O   0  0  0  0  0  0  0  0  0  0  0  0
  1  6  1  0  0  0  0
  2  1  2  0  0  0  0
  2  3  1  0  0  0  0
  3  4  2  0  0  0  0
  4  5  1  0  0  0  0
  4 36  1  0  0  0  0
  5  9  1  0  0  0  0
  6  5  2  0  0  0  0
  7  2  1  0  0  0  0
  8  3  1  0  0  0  0
  9 12  1  0  0  0  0
  9 11  1  0  0  0  0
 10  9  1  0  0  0  0
 13  1  1  0  0  0  0
 13 16  1  0  0  0  0
 14 13  1  0  0  0  0
 15 13  1  0  0  0  0
 16 17  1  0  0  0  0
 18 16  1  0  0  0  0
 19 23  1  0  0  0  0
 19 20  2  0  0  0  0
 20 24  1  0  0  0  0
 20 21  1  0  0  0  0
 22 16  1  0  0  0  0
 22 21  1  0  0  0  0
 23 22  2  0  0  0  0
 25 30  2  0  0  0  0
 25 26  1  0  0  0  0
 26 27  2  0  0  0  0
 27 28  1  0  0  0  0
 27 19  1  0  0  0  0
 29 32  1  0  0  0  0
 29 28  2  0  0  0  0
 30 29  1  0  0  0  0
 31 25  1  0  0  0  0
 33 26  1  0  0  0  0
 34 33  1  0  0  0  0
 35 33  1  0  0  0  0
 37 38  1  0  0  0  0
 37 46  1  0  0  0  0
 38 36  1  0  0  0  0
 39 40  1  0  0  0  0
 39 38  2  0  0  0  0
 41 39  1  0  0  0  0
 42 41  1  0  0  0  0
 43 41  2  0  0  0  0
 43 44  1  0  0  0  0
 44 37  2  0  0  0  0
 46 45  1  0  0  0  0
 46 48  2  0  0  0  0
 47 46  2  0  0  0  0
M  END
>  <minimizedAffinity>
-6.85510159

$$$$

 OpenBabel03242522213D

 48 51  0  0  0  0  0  0  0  0999 V2000
   38.1860   31.3290   41.1880 C   0  0  0  0  0  0  0  0  0  0  0  0
   39.2530   30.9950   41.9890 C   0  0  0  0  0  0  0  0  0  0  0  0
   39.4190   29.8030   42.6780 C   0  0  0  0  0  0  0  0  0  0  0  0
   38.4020   28.8960   42.5230 C   0  0  0  0  0  0  0  0  0  0  0  0
   37.3370   29.2240   41.7250 C   0  0  0  0  0  0  0  0  0  0  0  0
   37.2100   30.3870   41.0730 N   0  0  0  0  0  0  0  0  0  0  0  0
   40.0160   31.7660   42.0610 H   0  0  0  0  0  0  0  0  0  0  0  0
   40.2790   29.6120   43.2860 H   0  0  0  0  0  0  0  0  0  0  0  0
   36.2910   28.1670   41.6270 C   0  0  0  0  0  0  0  0  0  0  0  0
   35.9610   27.7270   42.9190 F   0  0  0  0  0  0  0  0  0  0  0  0
   36.6440   27.1280   40.8020 F   0  0  0  0  0  0  0  0  0  0  0  0
   35.1230   28.7070   41.1210 F   0  0  0  0  0  0  0  0  0  0  0  0
   37.9500   32.5380   40.4470 C   0  0  0  0  0  0  0  0  0  0  0  0
   36.9360   32.9480   40.6860 H   0  0  0  0  0  0  0  0  0  0  0  0
   38.6510   33.3320   40.8290 H   0  0  0  0  0  0  0  0  0  0  0  0
   38.0720   32.4420   38.9650 C   0  0  0  0  0  0  0  0  0  0  0  0
   37.9500   33.4220   38.4500 H   0  0  0  0  0  0  0  0  0  0  0  0
   37.2690   31.7910   38.5600 H   0  0  0  0  0  0  0  0  0  0  0  0
   41.5550   31.4610   38.1810 C   0  0  0  0  0  0  0  0  0  0  0  0
   41.3220   30.2100   37.7140 C   0  0  0  0  0  0  0  0  0  0  0  0
   39.4990   30.0850   37.8730 S   0  0  0  0  0  0  0  0  0  0  0  0
   39.3580   31.8000   38.5650 C   0  0  0  0  0  0  0  0  0  0  0  0
   40.4620   32.0620   38.5430 N   0  0  0  0  0  0  0  0  0  0  0  0
   42.0170   29.4660   37.3420 H   0  0  0  0  0  0  0  0  0  0  0  0
   44.5000   33.7500   37.7540 C   0  0  0  0  0  0  0  0  0  0  0  0
   43.2070   33.2380   37.6150 C   0  0  0  0  0  0  0  0  0  0  0  0
   42.8940   32.0740   38.2700 C   0  0  0  0  0  0  0  0  0  0  0  0
   43.8970   31.4840   39.0300 N   0  0  0  0  0  0  0  0  0  0  0  0
   45.1220   32.0230   39.1270 C   0  0  0  0  0  0  0  0  0  0  0  0
   45.4300   33.1560   38.4910 N   0  0  0  0  0  0  0  0  0  0  0  0
   44.7420   34.6820   37.2250 H   0  0  0  0  0  0  0  0  0  0  0  0
   45.8710   31.5260   39.7320 H   0  0  0  0  0  0  0  0  0  0  0  0
   42.2920   33.9600   36.8000 N   0  0  0  0  0  0  0  0  0  0  0  0
   41.4120   34.4200   37.1570 H   0  0  0  0  0  0  0  0  0  0  0  0
   42.4260   34.0860   35.7830 H   0  0  0  0  0  0  0  0  0  0  0  0
   38.5270   27.3230   43.3770 S   0  0  0  0  0  0  0  0  0  0  0  0
   40.4100   25.7180   42.4210 C   0  0  0  0  0  0  0  0  0  0  0  0
   40.1670   26.6730   43.3960 C   0  0  0  0  0  0  0  0  0  0  0  0
   41.2010   26.9950   44.2420 C   0  0  0  0  0  0  0  0  0  0  0  0
   40.9540   27.7450   44.9810 H   0  0  0  0  0  0  0  0  0  0  0  0
   42.4350   26.3910   44.1270 C   0  0  0  0  0  0  0  0  0  0  0  0
   43.2240   26.6720   44.8120 H   0  0  0  0  0  0  0  0  0  0  0  0
   42.7010   25.4380   43.1650 C   0  0  0  0  0  3  0  0  0  0  0  0
   41.6600   25.1170   42.3180 C   0  0  0  0  0  3  0  0  0  0  0  0
   38.0140   25.8060   41.4970 H   0  0  0  0  0  0  0  0  0  0  0  0
   39.1980   25.1840   41.2530 S   0  0  0  0  0  0  0  0  0  0  0  0
   38.9920   23.6960   41.4270 O   0  0  0  0  0  0  0  0  0  0  0  0
   39.6650   25.3860   39.8570 O   0  0  0  0  0  0  0  0  0  0  0  0
  1  2  1  0  0  0  0
  2  7  1  0  0  0  0
  2  3  2  0  0  0  0
  3  8  1  0  0  0  0
  4  3  1  0  0  0  0
  4 36  1  0  0  0  0
  5  4  2  0  0  0  0
  6  1  2  0  0  0  0
  6  5  1  0  0  0  0
  9  5  1  0  0  0  0
  9 10  1  0  0  0  0
 11  9  1  0  0  0  0
 12  9  1  0  0  0  0
 13 14  1  0  0  0  0
 13 15  1  0  0  0  0
 13  1  1  0  0  0  0
 16 13  1  0  0  0  0
 17 16  1  0  0  0  0
 18 16  1  0  0  0  0
 19 27  1  0  0  0  0
 19 23  1  0  0  0  0
 20 21  1  0  0  0  0
 20 19  2  0  0  0  0
 21 22  1  0  0  0  0
 22 16  1  0  0  0  0
 23 22  2  0  0  0  0
 24 20  1  0  0  0  0
 25 30  1  0  0  0  0
 26 25  2  0  0  0  0
 26 27  1  0  0  0  0
 27 28  2  0  0  0  0
 28 29  1  0  0  0  0
 29 32  1  0  0  0  0
 30 29  2  0  0  0  0
 31 25  1  0  0  0  0
 33 34  1  0  0  0  0
 33 26  1  0  0  0  0
 35 33  1  0  0  0  0
 36 38  1  0  0  0  0
 37 38  1  0  0  0  0
 38 39  2  0  0  0  0
 39 40  1  0  0  0  0
 41 39  1  0  0  0  0
 41 42  1  0  0  0  0
 43 41  2  0  0  0  0
 44 37  2  0  0  0  0
 44 43  1  0  0  0  0
 46 47  2  0  0  0  0
 46 45  1  0  0  0  0
 46 37  1  0  0  0  0
 48 46  2  0  0  0  0
M  END
>  <minimizedAffinity>
-6.60825014

$$$$

 OpenBabel03242522213D

 48 51  0  0  0  0  0  0  0  0999 V2000
   40.3830   27.3350   43.3740 C   0  0  0  0  0  0  0  0  0  0  0  0
   40.6380   28.5580   42.8000 C   0  0  0  0  0  0  0  0  0  0  0  0
   39.6910   29.4410   42.3000 C   0  0  0  0  0  0  0  0  0  0  0  0
   38.3900   29.0190   42.4050 C   0  0  0  0  0  0  0  0  0  0  0  0
   38.1330   27.8000   42.9770 C   0  0  0  0  0  0  0  0  0  0  0  0
   39.0730   26.9720   43.4500 N   0  0  0  0  0  0  0  0  0  0  0  0
   41.6920   28.8200   42.7540 H   0  0  0  0  0  0  0  0  0  0  0  0
   39.9630   30.3800   41.8640 H   0  0  0  0  0  0  0  0  0  0  0  0
   36.6880   27.4420   43.0400 C   0  0  0  0  0  0  0  0  0  0  0  0
   36.5610   26.0440   43.0610 F   0  0  0  0  0  0  0  0  0  0  0  0
   35.9430   28.0140   42.0380 F   0  0  0  0  0  0  0  0  0  0  0  0
   36.1490   27.8700   44.2400 F   0  0  0  0  0  0  0  0  0  0  0  0
   41.3090   26.3740   43.9110 C   0  0  0  0  0  0  0  0  0  0  0  0
   41.8010   26.7810   44.8300 H   0  0  0  0  0  0  0  0  0  0  0  0
   40.7250   25.4910   44.2950 H   0  0  0  0  0  0  0  0  0  0  0  0
   42.3770   25.8960   42.9880 C   0  0  0  0  0  0  0  0  0  0  0  0
   43.0280   25.1140   43.4390 H   0  0  0  0  0  0  0  0  0  0  0  0
   43.0560   26.7350   42.7280 H   0  0  0  0  0  0  0  0  0  0  0  0
   40.3420   24.7110   40.1320 C   0  0  0  0  0  0  0  0  0  0  0  0
   41.3240   24.6020   39.2040 C   0  0  0  0  0  0  0  0  0  0  0  0
   42.8000   25.1310   40.1560 S   0  0  0  0  0  0  0  0  0  0  0  0
   41.8060   25.4180   41.6950 C   0  0  0  0  0  0  0  0  0  0  0  0
   40.7930   25.1250   41.2770 N   0  0  0  0  0  0  0  0  0  0  0  0
   41.2700   24.2870   38.1680 H   0  0  0  0  0  0  0  0  0  0  0  0
   36.7490   23.7020   40.5410 C   0  0  0  0  0  0  0  0  0  0  0  0
   38.0780   23.9780   40.8720 C   0  0  0  0  0  0  0  0  0  0  0  0
   38.9240   24.3960   39.8750 C   0  0  0  0  0  0  0  0  0  0  0  0
   38.3900   24.5130   38.5980 N   0  0  0  0  0  0  0  0  0  0  0  0
   37.1030   24.2340   38.3400 C   0  0  0  0  0  0  0  0  0  0  0  0
   36.2770   23.8270   39.3070 N   0  0  0  0  0  0  0  0  0  0  0  0
   36.0790   23.3680   41.3450 H   0  0  0  0  0  0  0  0  0  0  0  0
   36.7320   24.3410   37.3270 H   0  0  0  0  0  0  0  0  0  0  0  0
   38.4730   23.8100   42.2270 N   0  0  0  0  0  0  0  0  0  0  0  0
   38.7950   24.5950   42.8560 H   0  0  0  0  0  0  0  0  0  0  0  0
   38.4740   22.8910   42.7010 H   0  0  0  0  0  0  0  0  0  0  0  0
   37.0950   30.0940   41.7850 S   0  0  0  0  0  0  0  0  0  0  0  0
   37.6660   31.4300   39.5660 C   0  0  0  0  0  0  0  0  0  0  0  0
   37.1050   30.2500   40.0280 C   0  0  0  0  0  0  0  0  0  0  0  0
   36.6340   29.3610   39.0910 C   0  0  0  0  0  0  0  0  0  0  0  0
   36.2080   28.4590   39.5090 H   0  0  0  0  0  0  0  0  0  0  0  0
   36.7150   29.6320   37.7420 C   0  0  0  0  0  0  0  0  0  0  0  0
   36.3330   28.9060   37.0360 H   0  0  0  0  0  0  0  0  0  0  0  0
   37.2690   30.7990   37.2580 C   0  0  0  0  0  3  0  0  0  0  0  0
   37.7410   31.6890   38.2010 C   0  0  0  0  0  3  0  0  0  0  0  0
   37.7190   32.6160   41.8440 H   0  0  0  0  0  0  0  0  0  0  0  0
   38.3190   32.6820   40.6260 S   0  0  0  0  0  0  0  0  0  0  0  0
   38.0060   34.0310   40.0200 O   0  0  0  0  0  0  0  0  0  0  0  0
   39.7990   32.5940   40.7200 O   0  0  0  0  0  0  0  0  0  0  0  0
  1  6  1  0  0  0  0
  1 13  1  0  0  0  0
  2  1  2  0  0  0  0
  3  4  2  0  0  0  0
  3  2  1  0  0  0  0
  4  5  1  0  0  0  0
  5  9  1  0  0  0  0
  5  6  2  0  0  0  0
  7  2  1  0  0  0  0
  8  3  1  0  0  0  0
  9 10  1  0  0  0  0
  9 12  1  0  0  0  0
 11  9  1  0  0  0  0
 13 15  1  0  0  0  0
 13 14  1  0  0  0  0
 16 17  1  0  0  0  0
 16 13  1  0  0  0  0
 18 16  1  0  0  0  0
 19 23  1  0  0  0  0
 20 19  2  0  0  0  0
 20 21  1  0  0  0  0
 21 22  1  0  0  0  0
 22 16  1  0  0  0  0
 23 22  2  0  0  0  0
 24 20  1  0  0  0  0
 25 26  1  0  0  0  0
 25 31  1  0  0  0  0
 26 33  1  0  0  0  0
 27 19  1  0  0  0  0
 27 26  2  0  0  0  0
 28 27  1  0  0  0  0
 29 28  2  0  0  0  0
 29 30  1  0  0  0  0
 30 25  2  0  0  0  0
 32 29  1  0  0  0  0
 33 35  1  0  0  0  0
 33 34  1  0  0  0  0
 36  4  1  0  0  0  0
 37 38  1  0  0  0  0
 37 46  1  0  0  0  0
 38 36  1  0  0  0  0
 39 40  1  0  0  0  0
 39 38  2  0  0  0  0
 41 39  1  0  0  0  0
 42 41  1  0  0  0  0
 43 41  2  0  0  0  0
 43 44  1  0  0  0  0
 44 37  2  0  0  0  0
 46 48  2  0  0  0  0
 46 45  1  0  0  0  0
 47 46  2  0  0  0  0
M  END
>  <minimizedAffinity>
-6.50322294

$$$$

 OpenBabel03242522213D

 48 51  0  0  0  0  0  0  0  0999 V2000
   37.9980   30.2920   40.8020 C   0  0  0  0  0  0  0  0  0  0  0  0
   38.8970   29.5840   40.0390 C   0  0  0  0  0  0  0  0  0  0  0  0
   39.3680   28.3060   40.3040 C   0  0  0  0  0  0  0  0  0  0  0  0
   38.8700   27.7280   41.4430 C   0  0  0  0  0  0  0  0  0  0  0  0
   37.9740   28.4310   42.2060 C   0  0  0  0  0  0  0  0  0  0  0  0
   37.5400   29.6650   41.9190 N   0  0  0  0  0  0  0  0  0  0  0  0
   39.2440   30.1100   39.1530 H   0  0  0  0  0  0  0  0  0  0  0  0
   40.0700   27.8140   39.6630 H   0  0  0  0  0  0  0  0  0  0  0  0
   37.4990   27.7090   43.4200 C   0  0  0  0  0  0  0  0  0  0  0  0
   38.6090   27.3000   44.1760 F   0  0  0  0  0  0  0  0  0  0  0  0
   36.6540   26.6650   43.1350 F   0  0  0  0  0  0  0  0  0  0  0  0
   36.8050   28.5780   44.2420 F   0  0  0  0  0  0  0  0  0  0  0  0
   37.4680   31.6120   40.5880 C   0  0  0  0  0  0  0  0  0  0  0  0
   36.3490   31.5830   40.5770 H   0  0  0  0  0  0  0  0  0  0  0  0
   37.7070   32.2430   41.4890 H   0  0  0  0  0  0  0  0  0  0  0  0
   37.9240   32.3180   39.3560 C   0  0  0  0  0  0  0  0  0  0  0  0
   37.1340   32.9520   38.8970 H   0  0  0  0  0  0  0  0  0  0  0  0
   38.2020   31.5770   38.5770 H   0  0  0  0  0  0  0  0  0  0  0  0
   41.3090   33.7900   39.6400 C   0  0  0  0  0  0  0  0  0  0  0  0
   40.9940   34.9110   40.3350 C   0  0  0  0  0  0  0  0  0  0  0  0
   39.1790   34.7320   40.5320 S   0  0  0  0  0  0  0  0  0  0  0  0
   39.1540   33.1210   39.6130 C   0  0  0  0  0  0  0  0  0  0  0  0
   40.2660   33.0570   39.3930 N   0  0  0  0  0  0  0  0  0  0  0  0
   41.6330   35.7130   40.6880 H   0  0  0  0  0  0  0  0  0  0  0  0
   44.4120   33.2360   37.6010 C   0  0  0  0  0  0  0  0  0  0  0  0
   43.0980   33.5930   37.9180 C   0  0  0  0  0  0  0  0  0  0  0  0
   42.6760   33.4390   39.2150 C   0  0  0  0  0  0  0  0  0  0  0  0
   43.5970   32.9330   40.1250 N   0  0  0  0  0  0  0  0  0  0  0  0
   44.8470   32.6080   39.7620 C   0  0  0  0  0  0  0  0  0  0  0  0
   45.2610   32.7570   38.5010 N   0  0  0  0  0  0  0  0  0  0  0  0
   44.7410   33.3630   36.5600 H   0  0  0  0  0  0  0  0  0  0  0  0
   45.5290   32.2170   40.5080 H   0  0  0  0  0  0  0  0  0  0  0  0
   42.2780   34.0970   36.8730 N   0  0  0  0  0  0  0  0  0  0  0  0
   41.8870   35.0780   36.8420 H   0  0  0  0  0  0  0  0  0  0  0  0
   41.9990   33.5300   36.0550 H   0  0  0  0  0  0  0  0  0  0  0  0
   39.4230   26.0760   41.8700 S   0  0  0  0  0  0  0  0  0  0  0  0
   38.9570   24.3250   39.9320 C   0  0  0  0  0  0  0  0  0  0  0  0
   39.9430   25.1350   40.4710 C   0  0  0  0  0  0  0  0  0  0  0  0
   41.1810   25.1150   39.8710 C   0  0  0  0  0  0  0  0  0  0  0  0
   41.9090   25.7660   40.3340 H   0  0  0  0  0  0  0  0  0  0  0  0
   41.4320   24.3190   38.7750 C   0  0  0  0  0  0  0  0  0  0  0  0
   42.4190   24.3310   38.3310 H   0  0  0  0  0  0  0  0  0  0  0  0
   40.4660   23.5040   38.2210 C   0  0  0  0  0  3  0  0  0  0  0  0
   39.2260   23.5270   38.8250 C   0  0  0  0  0  3  0  0  0  0  0  0
   37.3520   24.1590   41.9310 H   0  0  0  0  0  0  0  0  0  0  0  0
   37.3150   24.2270   40.5740 S   0  0  0  0  0  0  0  0  0  0  0  0
   36.6770   22.9580   40.0570 O   0  0  0  0  0  0  0  0  0  0  0  0
   36.4750   25.3510   40.0880 O   0  0  0  0  0  0  0  0  0  0  0  0
  1  6  1  0  0  0  0
  2  3  1  0  0  0  0
  2  1  2  0  0  0  0
  3  4  2  0  0  0  0
  4 36  1  0  0  0  0
  4  5  1  0  0  0  0
  5  9  1  0  0  0  0
  6  5  2  0  0  0  0
  7  2  1  0  0  0  0
  8  3  1  0  0  0  0
  9 10  1  0  0  0  0
  9 12  1  0  0  0  0
 11  9  1  0  0  0  0
 13  1  1  0  0  0  0
 13 15  1  0  0  0  0
 14 13  1  0  0  0  0
 16 22  1  0  0  0  0
 16 13  1  0  0  0  0
 17 16  1  0  0  0  0
 18 16  1  0  0  0  0
 19 20  2  0  0  0  0
 20 21  1  0  0  0  0
 20 24  1  0  0  0  0
 22 21  1  0  0  0  0
 23 22  2  0  0  0  0
 23 19  1  0  0  0  0
 25 26  2  0  0  0  0
 25 30  1  0  0  0  0
 26 27  1  0  0  0  0
 27 19  1  0  0  0  0
 27 28  2  0  0  0  0
 29 28  1  0  0  0  0
 29 32  1  0  0  0  0
 30 29  2  0  0  0  0
 31 25  1  0  0  0  0
 33 26  1  0  0  0  0
 34 33  1  0  0  0  0
 35 33  1  0  0  0  0
 37 38  1  0  0  0  0
 37 46  1  0  0  0  0
 38 36  1  0  0  0  0
 39 40  1  0  0  0  0
 39 38  2  0  0  0  0
 41 39  1  0  0  0  0
 42 41  1  0  0  0  0
 43 41  2  0  0  0  0
 43 44  1  0  0  0  0
 44 37  2  0  0  0  0
 46 45  1  0  0  0  0
 47 46  2  0  0  0  0
 48 46  2  0  0  0  0
M  END
>  <minimizedAffinity>
-6.47867346

$$$$

 OpenBabel03242522213D

 48 51  0  0  0  0  0  0  0  0999 V2000
   37.2290   31.5260   39.6860 C   0  0  0  0  0  0  0  0  0  0  0  0
   36.7420   31.1620   40.9200 C   0  0  0  0  0  0  0  0  0  0  0  0
   36.5720   29.8660   41.3840 C   0  0  0  0  0  0  0  0  0  0  0  0
   36.9330   28.8810   40.5000 C   0  0  0  0  0  0  0  0  0  0  0  0
   37.4190   29.2390   39.2700 C   0  0  0  0  0  0  0  0  0  0  0  0
   37.5710   30.5040   38.8550 N   0  0  0  0  0  0  0  0  0  0  0  0
   36.4790   32.0000   41.5620 H   0  0  0  0  0  0  0  0  0  0  0  0
   36.1850   29.6570   42.3600 H   0  0  0  0  0  0  0  0  0  0  0  0
   37.7790   28.0910   38.3920 C   0  0  0  0  0  0  0  0  0  0  0  0
   36.6170   27.3670   38.0810 F   0  0  0  0  0  0  0  0  0  0  0  0
   38.7610   27.2900   38.9200 F   0  0  0  0  0  0  0  0  0  0  0  0
   38.2470   28.5580   37.1760 F   0  0  0  0  0  0  0  0  0  0  0  0
   37.4320   32.8420   39.1430 C   0  0  0  0  0  0  0  0  0  0  0  0
   37.9620   32.7770   38.1590 H   0  0  0  0  0  0  0  0  0  0  0  0
   36.4280   33.2740   38.8720 H   0  0  0  0  0  0  0  0  0  0  0  0
   38.1700   33.8080   40.0040 C   0  0  0  0  0  0  0  0  0  0  0  0
   37.9730   33.6670   41.0900 H   0  0  0  0  0  0  0  0  0  0  0  0
   37.8440   34.8450   39.7750 H   0  0  0  0  0  0  0  0  0  0  0  0
   41.6440   33.1810   38.8880 C   0  0  0  0  0  0  0  0  0  0  0  0
   42.2740   34.1390   39.6120 C   0  0  0  0  0  0  0  0  0  0  0  0
   40.8740   34.9110   40.5110 S   0  0  0  0  0  0  0  0  0  0  0  0
   39.6360   33.7720   39.7310 C   0  0  0  0  0  0  0  0  0  0  0  0
   40.3620   33.1750   39.0940 N   0  0  0  0  0  0  0  0  0  0  0  0
   43.3270   34.3950   39.6590 H   0  0  0  0  0  0  0  0  0  0  0  0
   42.3780   30.4760   36.3920 C   0  0  0  0  0  0  0  0  0  0  0  0
   41.6490   31.3160   37.2360 C   0  0  0  0  0  0  0  0  0  0  0  0
   42.3310   32.2520   37.9710 C   0  0  0  0  0  0  0  0  0  0  0  0
   43.7120   32.2940   37.8200 N   0  0  0  0  0  0  0  0  0  0  0  0
   44.3590   31.4600   36.9920 C   0  0  0  0  0  0  0  0  0  0  0  0
   43.6980   30.5480   36.2750 N   0  0  0  0  0  0  0  0  0  0  0  0
   41.8240   29.7290   35.8070 H   0  0  0  0  0  0  0  0  0  0  0  0
   45.4380   31.5310   36.9070 H   0  0  0  0  0  0  0  0  0  0  0  0
   40.2370   31.1490   37.2800 N   0  0  0  0  0  0  0  0  0  0  0  0
   39.5410   31.8770   36.9640 H   0  0  0  0  0  0  0  0  0  0  0  0
   39.7850   30.2880   37.6320 H   0  0  0  0  0  0  0  0  0  0  0  0
   36.7480   27.1710   41.0110 S   0  0  0  0  0  0  0  0  0  0  0  0
   38.5000   25.3570   41.8300 C   0  0  0  0  0  0  0  0  0  0  0  0
   38.0250   26.6300   42.1010 C   0  0  0  0  0  0  0  0  0  0  0  0
   38.5870   27.3070   43.1570 C   0  0  0  0  0  0  0  0  0  0  0  0
   38.1780   28.2950   43.3200 H   0  0  0  0  0  0  0  0  0  0  0  0
   39.5860   26.7420   43.9200 C   0  0  0  0  0  0  0  0  0  0  0  0
   40.0030   27.3070   44.7430 H   0  0  0  0  0  0  0  0  0  0  0  0
   40.0750   25.4760   43.6700 C   0  0  0  0  0  3  0  0  0  0  0  0
   39.5090   24.8000   42.6100 C   0  0  0  0  0  3  0  0  0  0  0  0
   37.6270   25.1150   39.4260 H   0  0  0  0  0  0  0  0  0  0  0  0
   37.8940   24.3470   40.5160 S   0  0  0  0  0  0  0  0  0  0  0  0
   36.6010   23.7040   40.9650 O   0  0  0  0  0  0  0  0  0  0  0  0
   38.8320   23.2370   40.2080 O   0  0  0  0  0  0  0  0  0  0  0  0
  1  2  1  0  0  0  0
  2  3  2  0  0  0  0
  2  7  1  0  0  0  0
  3  8  1  0  0  0  0
  4 36  1  0  0  0  0
  4  3  1  0  0  0  0
  5  4  2  0  0  0  0
  6  5  1  0  0  0  0
  6  1  2  0  0  0  0
  9 11  1  0  0  0  0
  9  5  1  0  0  0  0
 10  9  1  0  0  0  0
 12  9  1  0  0  0  0
 13  1  1  0  0  0  0
 13 16  1  0  0  0  0
 14 13  1  0  0  0  0
 15 13  1  0  0  0  0
 16 17  1  0  0  0  0
 18 16  1  0  0  0  0
 19 23  1  0  0  0  0
 19 20  2  0  0  0  0
 20 24  1  0  0  0  0
 20 21  1  0  0  0  0
 22 16  1  0  0  0  0
 22 21  1  0  0  0  0
 23 22  2  0  0  0  0
 25 26  1  0  0  0  0
 26 33  1  0  0  0  0
 26 27  2  0  0  0  0
 27 19  1  0  0  0  0
 28 27  1  0  0  0  0
 29 28  2  0  0  0  0
 30 25  2  0  0  0  0
 30 29  1  0  0  0  0
 31 25  1  0  0  0  0
 32 29  1  0  0  0  0
 33 35  1  0  0  0  0
 34 33  1  0  0  0  0
 36 38  1  0  0  0  0
 37 38  2  0  0  0  0
 37 44  1  0  0  0  0
 38 39  1  0  0  0  0
 39 40  1  0  0  0  0
 39 41  2  0  0  0  0
 41 42  1  0  0  0  0
 43 41  1  0  0  0  0
 44 43  2  0  0  0  0
 45 46  1  0  0  0  0
 46 47  2  0  0  0  0
 46 37  1  0  0  0  0
 48 46  2  0  0  0  0
M  END
>  <minimizedAffinity>
-6.28950214

$$$$

 OpenBabel03242522213D

 48 51  0  0  0  0  0  0  0  0999 V2000
   36.9890   30.3390   39.8820 C   0  0  0  0  0  0  0  0  0  0  0  0
   36.5260   29.1330   39.4070 C   0  0  0  0  0  0  0  0  0  0  0  0
   36.5940   27.9140   40.0650 C   0  0  0  0  0  0  0  0  0  0  0  0
   37.1860   27.9530   41.3010 C   0  0  0  0  0  0  0  0  0  0  0  0
   37.6480   29.1520   41.7780 C   0  0  0  0  0  0  0  0  0  0  0  0
   37.5650   30.3120   41.1150 N   0  0  0  0  0  0  0  0  0  0  0  0
   36.0700   29.1860   38.4210 H   0  0  0  0  0  0  0  0  0  0  0  0
   36.2120   27.0120   39.6320 H   0  0  0  0  0  0  0  0  0  0  0  0
   38.2720   29.0780   43.1290 C   0  0  0  0  0  0  0  0  0  0  0  0
   39.3260   28.1500   43.0980 F   0  0  0  0  0  0  0  0  0  0  0  0
   37.3720   28.8060   44.1290 F   0  0  0  0  0  0  0  0  0  0  0  0
   38.8680   30.2880   43.4380 F   0  0  0  0  0  0  0  0  0  0  0  0
   36.9510   31.6340   39.2590 C   0  0  0  0  0  0  0  0  0  0  0  0
   37.2850   31.5620   38.1930 H   0  0  0  0  0  0  0  0  0  0  0  0
   35.8760   31.9590   39.1760 H   0  0  0  0  0  0  0  0  0  0  0  0
   37.7430   32.7110   39.9190 C   0  0  0  0  0  0  0  0  0  0  0  0
   37.6030   32.7440   41.0230 H   0  0  0  0  0  0  0  0  0  0  0  0
   37.4160   33.7040   39.5470 H   0  0  0  0  0  0  0  0  0  0  0  0
   41.4400   32.7320   39.7240 C   0  0  0  0  0  0  0  0  0  0  0  0
   41.5890   32.2040   38.4840 C   0  0  0  0  0  0  0  0  0  0  0  0
   39.8460   31.9370   37.9790 S   0  0  0  0  0  0  0  0  0  0  0  0
   39.1920   32.6060   39.5800 C   0  0  0  0  0  0  0  0  0  0  0  0
   40.1920   32.8420   40.0640 N   0  0  0  0  0  0  0  0  0  0  0  0
   42.4920   31.9880   37.9240 H   0  0  0  0  0  0  0  0  0  0  0  0
   43.7830   33.1210   42.6310 C   0  0  0  0  0  0  0  0  0  0  0  0
   42.6870   32.6880   41.8810 C   0  0  0  0  0  0  0  0  0  0  0  0
   42.5630   33.1370   40.5900 C   0  0  0  0  0  0  0  0  0  0  0  0
   43.5470   33.9990   40.1210 N   0  0  0  0  0  0  0  0  0  0  0  0
   44.5790   34.3810   40.8890 C   0  0  0  0  0  0  0  0  0  0  0  0
   44.7030   33.9460   42.1450 N   0  0  0  0  0  0  0  0  0  0  0  0
   43.8740   32.7570   43.6630 H   0  0  0  0  0  0  0  0  0  0  0  0
   45.3220   35.0560   40.4790 H   0  0  0  0  0  0  0  0  0  0  0  0
   41.7650   31.8030   42.5040 N   0  0  0  0  0  0  0  0  0  0  0  0
   41.5920   30.8090   42.1940 H   0  0  0  0  0  0  0  0  0  0  0  0
   41.1880   32.0760   43.3170 H   0  0  0  0  0  0  0  0  0  0  0  0
   37.3200   26.4220   42.2280 S   0  0  0  0  0  0  0  0  0  0  0  0
   38.7620   24.7690   40.7360 C   0  0  0  0  0  0  0  0  0  0  0  0
   37.4750   24.9990   41.1980 C   0  0  0  0  0  0  0  0  0  0  0  0
   36.4940   24.1160   40.8110 C   0  0  0  0  0  0  0  0  0  0  0  0
   35.5120   24.3460   41.2010 H   0  0  0  0  0  0  0  0  0  0  0  0
   36.7780   23.0430   39.9950 C   0  0  0  0  0  0  0  0  0  0  0  0
   35.9790   22.3710   39.7130 H   0  0  0  0  0  0  0  0  0  0  0  0
   38.0510   22.7930   39.5230 C   0  0  0  0  0  3  0  0  0  0  0  0
   39.0330   23.6810   39.9130 C   0  0  0  0  0  3  0  0  0  0  0  0
   39.9280   26.4190   42.3230 H   0  0  0  0  0  0  0  0  0  0  0  0
   40.1400   25.7990   41.1320 S   0  0  0  0  0  0  0  0  0  0  0  0
   40.2620   26.8620   40.0640 O   0  0  0  0  0  0  0  0  0  0  0  0
   41.4120   25.0330   41.1140 O   0  0  0  0  0  0  0  0  0  0  0  0
  1  6  1  0  0  0  0
  2  1  2  0  0  0  0
  2  3  1  0  0  0  0
  3  4  2  0  0  0  0
  4  5  1  0  0  0  0
  4 36  1  0  0  0  0
  5  9  1  0  0  0  0
  6  5  2  0  0  0  0
  7  2  1  0  0  0  0
  8  3  1  0  0  0  0
  9 12  1  0  0  0  0
  9 11  1  0  0  0  0
 10  9  1  0  0  0  0
 13  1  1  0  0  0  0
 13 16  1  0  0  0  0
 14 13  1  0  0  0  0
 15 13  1  0  0  0  0
 16 17  1  0  0  0  0
 18 16  1  0  0  0  0
 19 23  1  0  0  0  0
 19 27  1  0  0  0  0
 20 19  2  0  0  0  0
 21 20  1  0  0  0  0
 21 22  1  0  0  0  0
 22 16  1  0  0  0  0
 22 23  2  0  0  0  0
 24 20  1  0  0  0  0
 25 31  1  0  0  0  0
 26 33  1  0  0  0  0
 26 25  2  0  0  0  0
 27 26  1  0  0  0  0
 28 27  2  0  0  0  0
 28 29  1  0  0  0  0
 29 30  2  0  0  0  0
 30 25  1  0  0  0  0
 32 29  1  0  0  0  0
 33 35  1  0  0  0  0
 34 33  1  0  0  0  0
 37 46  1  0  0  0  0
 37 38  1  0  0  0  0
 38 36  1  0  0  0  0
 39 38  2  0  0  0  0
 39 40  1  0  0  0  0
 41 39  1  0  0  0  0
 42 41  1  0  0  0  0
 43 44  1  0  0  0  0
 43 41  2  0  0  0  0
 44 37  2  0  0  0  0
 46 45  1  0  0  0  0
 47 46  2  0  0  0  0
 48 46  2  0  0  0  0
M  END
>  <minimizedAffinity>
-6.16217947

$$$$

 OpenBabel03242522213D

 48 51  0  0  0  0  0  0  0  0999 V2000
   38.2260   29.4920   42.7810 C   0  0  0  0  0  0  0  0  0  0  0  0
   39.4420   30.1120   42.9520 C   0  0  0  0  0  0  0  0  0  0  0  0
   39.9340   31.1710   42.2040 C   0  0  0  0  0  0  0  0  0  0  0  0
   39.1020   31.6140   41.2070 C   0  0  0  0  0  0  0  0  0  0  0  0
   37.8890   31.0000   41.0340 C   0  0  0  0  0  0  0  0  0  0  0  0
   37.4450   29.9780   41.7770 N   0  0  0  0  0  0  0  0  0  0  0  0
   40.0420   29.7030   43.7620 H   0  0  0  0  0  0  0  0  0  0  0  0
   40.8940   31.6040   42.3940 H   0  0  0  0  0  0  0  0  0  0  0  0
   37.0680   31.5610   39.9240 C   0  0  0  0  0  0  0  0  0  0  0  0
   37.6580   31.2170   38.6970 F   0  0  0  0  0  0  0  0  0  0  0  0
   36.8560   32.9120   40.0350 F   0  0  0  0  0  0  0  0  0  0  0  0
   35.8240   30.9550   39.9080 F   0  0  0  0  0  0  0  0  0  0  0  0
   37.6540   28.3960   43.5160 C   0  0  0  0  0  0  0  0  0  0  0  0
   37.3320   28.7370   44.5330 H   0  0  0  0  0  0  0  0  0  0  0  0
   36.6880   28.1000   43.0200 H   0  0  0  0  0  0  0  0  0  0  0  0
   38.5140   27.1900   43.6830 C   0  0  0  0  0  0  0  0  0  0  0  0
   38.3890   26.6970   44.6730 H   0  0  0  0  0  0  0  0  0  0  0  0
   39.5850   27.4780   43.6260 H   0  0  0  0  0  0  0  0  0  0  0  0
   37.5100   25.2380   40.7020 C   0  0  0  0  0  0  0  0  0  0  0  0
   38.2930   24.1480   40.8910 C   0  0  0  0  0  0  0  0  0  0  0  0
   39.1660   24.5780   42.4450 S   0  0  0  0  0  0  0  0  0  0  0  0
   38.2960   26.2090   42.5810 C   0  0  0  0  0  0  0  0  0  0  0  0
   37.6660   26.1220   41.6400 N   0  0  0  0  0  0  0  0  0  0  0  0
   38.3910   23.2500   40.2900 H   0  0  0  0  0  0  0  0  0  0  0  0
   35.4760   26.6910   37.9010 C   0  0  0  0  0  0  0  0  0  0  0  0
   36.3690   26.6230   38.9740 C   0  0  0  0  0  0  0  0  0  0  0  0
   36.5850   25.4040   39.5660 C   0  0  0  0  0  0  0  0  0  0  0  0
   35.8910   24.3170   39.0480 N   0  0  0  0  0  0  0  0  0  0  0  0
   35.0460   24.4430   38.0140 C   0  0  0  0  0  0  0  0  0  0  0  0
   34.8330   25.6270   37.4360 N   0  0  0  0  0  0  0  0  0  0  0  0
   35.3090   27.6710   37.4340 H   0  0  0  0  0  0  0  0  0  0  0  0
   34.5270   23.5650   37.6450 H   0  0  0  0  0  0  0  0  0  0  0  0
   37.0020   27.8280   39.3870 N   0  0  0  0  0  0  0  0  0  0  0  0
   38.0410   28.0050   39.3290 H   0  0  0  0  0  0  0  0  0  0  0  0
   36.4810   28.6280   39.7820 H   0  0  0  0  0  0  0  0  0  0  0  0
   39.6540   32.9810   40.1850 S   0  0  0  0  0  0  0  0  0  0  0  0
   42.1980   32.7340   39.4760 C   0  0  0  0  0  0  0  0  0  0  0  0
   40.9040   32.5220   39.0280 C   0  0  0  0  0  0  0  0  0  0  0  0
   40.7460   31.9930   37.7690 C   0  0  0  0  0  0  0  0  0  0  0  0
   39.7160   31.8490   37.4740 H   0  0  0  0  0  0  0  0  0  0  0  0
   41.8330   31.6850   36.9800 C   0  0  0  0  0  0  0  0  0  0  0  0
   41.6670   31.2700   35.9950 H   0  0  0  0  0  0  0  0  0  0  0  0
   43.1310   31.8870   37.4040 C   0  0  0  0  0  3  0  0  0  0  0  0
   43.2850   32.4190   38.6680 C   0  0  0  0  0  3  0  0  0  0  0  0
   41.5970   33.1040   41.9460 H   0  0  0  0  0  0  0  0  0  0  0  0
   42.5840   33.4060   41.0620 S   0  0  0  0  0  0  0  0  0  0  0  0
   42.6600   34.9100   40.9370 O   0  0  0  0  0  0  0  0  0  0  0  0
   43.9190   32.9530   41.5320 O   0  0  0  0  0  0  0  0  0  0  0  0
  1  2  1  0  0  0  0
  1 13  1  0  0  0  0
  2  7  1  0  0  0  0
  3  8  1  0  0  0  0
  3  2  2  0  0  0  0
  4  3  1  0  0  0  0
  5  4  2  0  0  0  0
  5  6  1  0  0  0  0
  6  1  2  0  0  0  0
  9 11  1  0  0  0  0
  9  5  1  0  0  0  0
 10  9  1  0  0  0  0
 12  9  1  0  0  0  0
 13 16  1  0  0  0  0
 13 14  1  0  0  0  0
 15 13  1  0  0  0  0
 16 17  1  0  0  0  0
 18 16  1  0  0  0  0
 19 20  2  0  0  0  0
 19 23  1  0  0  0  0
 20 21  1  0  0  0  0
 21 22  1  0  0  0  0
 22 16  1  0  0  0  0
 23 22  2  0  0  0  0
 24 20  1  0  0  0  0
 25 26  1  0  0  0  0
 26 33  1  0  0  0  0
 26 27  2  0  0  0  0
 27 19  1  0  0  0  0
 28 27  1  0  0  0  0
 29 28  2  0  0  0  0
 30 25  2  0  0  0  0
 30 29  1  0  0  0  0
 31 25  1  0  0  0  0
 32 29  1  0  0  0  0
 33 35  1  0  0  0  0
 34 33  1  0  0  0  0
 36  4  1  0  0  0  0
 37 46  1  0  0  0  0
 38 37  1  0  0  0  0
 38 36  1  0  0  0  0
 39 38  2  0  0  0  0
 40 39  1  0  0  0  0
 41 43  2  0  0  0  0
 41 39  1  0  0  0  0
 42 41  1  0  0  0  0
 43 44  1  0  0  0  0
 44 37  2  0  0  0  0
 46 48  2  0  0  0  0
 46 45  1  0  0  0  0
 47 46  2  0  0  0  0
M  END
>  <minimizedAffinity>
-6.04843283

$$$$

 OpenBabel03242522213D

 48 51  0  0  0  0  0  0  0  0999 V2000
   37.6310   31.1020   38.7360 C   0  0  0  0  0  0  0  0  0  0  0  0
   38.6740   30.4240   38.1500 C   0  0  0  0  0  0  0  0  0  0  0  0
   38.9360   29.0660   38.2660 C   0  0  0  0  0  0  0  0  0  0  0  0
   38.0500   28.3680   39.0470 C   0  0  0  0  0  0  0  0  0  0  0  0
   37.0090   29.0410   39.6320 C   0  0  0  0  0  0  0  0  0  0  0  0
   36.7860   30.3550   39.4980 N   0  0  0  0  0  0  0  0  0  0  0  0
   39.3310   31.0470   37.5480 H   0  0  0  0  0  0  0  0  0  0  0  0
   39.7700   28.6040   37.7800 H   0  0  0  0  0  0  0  0  0  0  0  0
   36.1100   28.1870   40.4570 C   0  0  0  0  0  0  0  0  0  0  0  0
   36.6650   28.0400   41.7390 F   0  0  0  0  0  0  0  0  0  0  0  0
   35.8250   26.9760   39.8760 F   0  0  0  0  0  0  0  0  0  0  0  0
   34.9030   28.8320   40.6600 F   0  0  0  0  0  0  0  0  0  0  0  0
   37.3010   32.5000   38.6590 C   0  0  0  0  0  0  0  0  0  0  0  0
   37.6800   32.9360   37.7010 H   0  0  0  0  0  0  0  0  0  0  0  0
   36.1830   32.5970   38.5690 H   0  0  0  0  0  0  0  0  0  0  0  0
   37.7820   33.3570   39.7800 C   0  0  0  0  0  0  0  0  0  0  0  0
   37.1040   33.3460   40.6630 H   0  0  0  0  0  0  0  0  0  0  0  0
   37.8280   34.4170   39.4530 H   0  0  0  0  0  0  0  0  0  0  0  0
   41.4240   32.8800   40.2420 C   0  0  0  0  0  0  0  0  0  0  0  0
   41.3930   32.0400   41.3070 C   0  0  0  0  0  0  0  0  0  0  0  0
   39.5910   31.8680   41.5960 S   0  0  0  0  0  0  0  0  0  0  0  0
   39.1720   32.9950   40.1840 C   0  0  0  0  0  0  0  0  0  0  0  0
   40.2340   33.2230   39.8540 N   0  0  0  0  0  0  0  0  0  0  0  0
   42.2090   31.5830   41.8550 H   0  0  0  0  0  0  0  0  0  0  0  0
   43.9660   33.9880   37.7120 C   0  0  0  0  0  0  0  0  0  0  0  0
   42.7530   33.5390   38.2410 C   0  0  0  0  0  0  0  0  0  0  0  0
   42.6640   33.3500   39.5970 C   0  0  0  0  0  0  0  0  0  0  0  0
   43.7990   33.6210   40.3510 N   0  0  0  0  0  0  0  0  0  0  0  0
   44.9380   34.0510   39.7860 C   0  0  0  0  0  0  0  0  0  0  0  0
   45.0280   34.2360   38.4670 N   0  0  0  0  0  0  0  0  0  0  0  0
   44.0280   34.1360   36.6250 H   0  0  0  0  0  0  0  0  0  0  0  0
   45.7980   34.2500   40.4160 H   0  0  0  0  0  0  0  0  0  0  0  0
   41.6810   33.3060   37.3360 N   0  0  0  0  0  0  0  0  0  0  0  0
   40.7760   33.8500   37.3330 H   0  0  0  0  0  0  0  0  0  0  0  0
   41.7120   32.5760   36.6060 H   0  0  0  0  0  0  0  0  0  0  0  0
   38.3070   26.6050   39.2560 S   0  0  0  0  0  0  0  0  0  0  0  0
   38.6980   24.9230   41.2690 C   0  0  0  0  0  0  0  0  0  0  0  0
   39.0270   26.1890   40.8110 C   0  0  0  0  0  0  0  0  0  0  0  0
   39.8540   26.9540   41.5990 C   0  0  0  0  0  0  0  0  0  0  0  0
   40.0770   27.9300   41.1920 H   0  0  0  0  0  0  0  0  0  0  0  0
   40.3390   26.4810   42.8000 C   0  0  0  0  0  0  0  0  0  0  0  0
   40.9870   27.1140   43.3910 H   0  0  0  0  0  0  0  0  0  0  0  0
   40.0250   25.2250   43.2760 C   0  0  0  0  0  3  0  0  0  0  0  0
   39.1940   24.4600   42.4830 C   0  0  0  0  0  3  0  0  0  0  0  0
   37.6370   24.1300   39.0670 H   0  0  0  0  0  0  0  0  0  0  0  0
   37.6500   23.8080   40.3880 S   0  0  0  0  0  0  0  0  0  0  0  0
   36.2430   23.9550   40.9210 O   0  0  0  0  0  0  0  0  0  0  0  0
   38.0440   22.3950   40.6200 O   0  0  0  0  0  0  0  0  0  0  0  0
  1  6  1  0  0  0  0
  2  3  1  0  0  0  0
  2  1  2  0  0  0  0
  3  4  2  0  0  0  0
  4 36  1  0  0  0  0
  4  5  1  0  0  0  0
  5  9  1  0  0  0  0
  6  5  2  0  0  0  0
  7  2  1  0  0  0  0
  8  3  1  0  0  0  0
  9 12  1  0  0  0  0
  9 10  1  0  0  0  0
 11  9  1  0  0  0  0
 13  1  1  0  0  0  0
 13 16  1  0  0  0  0
 14 13  1  0  0  0  0
 15 13  1  0  0  0  0
 16 22  1  0  0  0  0
 16 17  1  0  0  0  0
 18 16  1  0  0  0  0
 19 20  2  0  0  0  0
 20 21  1  0  0  0  0
 20 24  1  0  0  0  0
 22 21  1  0  0  0  0
 23 22  2  0  0  0  0
 23 19  1  0  0  0  0
 25 26  2  0  0  0  0
 25 30  1  0  0  0  0
 26 27  1  0  0  0  0
 27 19  1  0  0  0  0
 27 28  2  0  0  0  0
 29 28  1  0  0  0  0
 29 32  1  0  0  0  0
 30 29  2  0  0  0  0
 31 25  1  0  0  0  0
 33 26  1  0  0  0  0
 34 33  1  0  0  0  0
 35 33  1  0  0  0  0
 36 38  1  0  0  0  0
 37 44  1  0  0  0  0
 38 37  2  0  0  0  0
 38 39  1  0  0  0  0
 39 41  2  0  0  0  0
 40 39  1  0  0  0  0
 41 43  1  0  0  0  0
 41 42  1  0  0  0  0
 44 43  2  0  0  0  0
 45 46  1  0  0  0  0
 46 48  2  0  0  0  0
 46 47  2  0  0  0  0
 46 37  1  0  0  0  0
M  END
>  <minimizedAffinity>
-5.98000669

$$$$

 OpenBabel03242522213D

 48 51  0  0  0  0  0  0  0  0999 V2000
   37.1210   31.5020   39.5960 C   0  0  0  0  0  0  0  0  0  0  0  0
   36.5750   31.1590   40.8110 C   0  0  0  0  0  0  0  0  0  0  0  0
   36.4210   29.8710   41.3040 C   0  0  0  0  0  0  0  0  0  0  0  0
   36.8650   28.8740   40.4740 C   0  0  0  0  0  0  0  0  0  0  0  0
   37.4090   29.2120   39.2630 C   0  0  0  0  0  0  0  0  0  0  0  0
   37.5430   30.4680   38.8180 N   0  0  0  0  0  0  0  0  0  0  0  0
   36.2480   32.0050   41.4100 H   0  0  0  0  0  0  0  0  0  0  0  0
   35.9850   29.6780   42.2630 H   0  0  0  0  0  0  0  0  0  0  0  0
   37.8570   28.0510   38.4430 C   0  0  0  0  0  0  0  0  0  0  0  0
   38.3360   28.5180   37.2090 F   0  0  0  0  0  0  0  0  0  0  0  0
   36.8910   27.0880   38.2920 F   0  0  0  0  0  0  0  0  0  0  0  0
   38.9440   27.4430   39.0450 F   0  0  0  0  0  0  0  0  0  0  0  0
   37.3110   32.8080   39.0230 C   0  0  0  0  0  0  0  0  0  0  0  0
   37.9920   32.7470   38.1370 H   0  0  0  0  0  0  0  0  0  0  0  0
   36.3340   33.1490   38.5810 H   0  0  0  0  0  0  0  0  0  0  0  0
   37.8350   33.8620   39.9370 C   0  0  0  0  0  0  0  0  0  0  0  0
   37.2400   33.9670   40.8720 H   0  0  0  0  0  0  0  0  0  0  0  0
   37.7850   34.8530   39.4400 H   0  0  0  0  0  0  0  0  0  0  0  0
   41.1710   32.7400   41.0870 C   0  0  0  0  0  0  0  0  0  0  0  0
   41.9270   33.7120   40.5200 C   0  0  0  0  0  0  0  0  0  0  0  0
   40.6570   34.7330   39.6800 S   0  0  0  0  0  0  0  0  0  0  0  0
   39.2750   33.6390   40.2570 C   0  0  0  0  0  0  0  0  0  0  0  0
   39.9060   32.8930   40.8350 N   0  0  0  0  0  0  0  0  0  0  0  0
   43.0010   33.8610   40.5450 H   0  0  0  0  0  0  0  0  0  0  0  0
   41.8640   29.3560   42.5560 C   0  0  0  0  0  0  0  0  0  0  0  0
   41.2930   30.3410   41.7450 C   0  0  0  0  0  0  0  0  0  0  0  0
   41.7160   31.6370   41.8990 C   0  0  0  0  0  0  0  0  0  0  0  0
   42.6920   31.8750   42.8600 N   0  0  0  0  0  0  0  0  0  0  0  0
   43.2040   30.8880   43.6090 C   0  0  0  0  0  0  0  0  0  0  0  0
   42.7950   29.6250   43.4620 N   0  0  0  0  0  0  0  0  0  0  0  0
   41.5180   28.3210   42.4260 H   0  0  0  0  0  0  0  0  0  0  0  0
   43.9640   31.1230   44.3460 H   0  0  0  0  0  0  0  0  0  0  0  0
   40.3040   29.9360   40.8070 N   0  0  0  0  0  0  0  0  0  0  0  0
   40.4150   30.0040   39.7590 H   0  0  0  0  0  0  0  0  0  0  0  0
   39.3920   29.5410   41.0890 H   0  0  0  0  0  0  0  0  0  0  0  0
   36.7060   27.1750   41.0280 S   0  0  0  0  0  0  0  0  0  0  0  0
   38.5410   25.4340   41.8260 C   0  0  0  0  0  0  0  0  0  0  0  0
   38.0000   26.6760   42.1180 C   0  0  0  0  0  0  0  0  0  0  0  0
   38.5180   27.3590   43.1930 C   0  0  0  0  0  0  0  0  0  0  0  0
   38.0580   28.3200   43.3720 H   0  0  0  0  0  0  0  0  0  0  0  0
   39.5380   26.8290   43.9540 C   0  0  0  0  0  0  0  0  0  0  0  0
   39.9190   27.3970   44.7920 H   0  0  0  0  0  0  0  0  0  0  0  0
   40.0930   25.5950   43.6830 C   0  0  0  0  0  3  0  0  0  0  0  0
   39.5700   24.9120   42.6030 C   0  0  0  0  0  3  0  0  0  0  0  0
   37.6250   25.2030   39.4370 H   0  0  0  0  0  0  0  0  0  0  0  0
   37.9970   24.4220   40.4860 S   0  0  0  0  0  0  0  0  0  0  0  0
   36.7880   23.6380   40.9410 O   0  0  0  0  0  0  0  0  0  0  0  0
   39.0300   23.4240   40.1060 O   0  0  0  0  0  0  0  0  0  0  0  0
  1  2  1  0  0  0  0
  2  3  2  0  0  0  0
  2  7  1  0  0  0  0
  3  8  1  0  0  0  0
  4 36  1  0  0  0  0
  4  3  1  0  0  0  0
  5  4  2  0  0  0  0
  6  5  1  0  0  0  0
  6  1  2  0  0  0  0
  9 12  1  0  0  0  0
  9  5  1  0  0  0  0
 10  9  1  0  0  0  0
 11  9  1  0  0  0  0
 13  1  1  0  0  0  0
 13 16  1  0  0  0  0
 14 13  1  0  0  0  0
 15 13  1  0  0  0  0
 16 22  1  0  0  0  0
 16 17  1  0  0  0  0
 18 16  1  0  0  0  0
 19 27  1  0  0  0  0
 20 24  1  0  0  0  0
 20 19  2  0  0  0  0
 21 22  1  0  0  0  0
 21 20  1  0  0  0  0
 22 23  2  0  0  0  0
 23 19  1  0  0  0  0
 25 30  1  0  0  0  0
 26 27  1  0  0  0  0
 26 25  2  0  0  0  0
 27 28  2  0  0  0  0
 28 29  1  0  0  0  0
 29 32  1  0  0  0  0
 30 29  2  0  0  0  0
 31 25  1  0  0  0  0
 33 35  1  0  0  0  0
 33 26  1  0  0  0  0
 34 33  1  0  0  0  0
 36 38  1  0  0  0  0
 37 38  2  0  0  0  0
 37 44  1  0  0  0  0
 38 39  1  0  0  0  0
 39 40  1  0  0  0  0
 39 41  2  0  0  0  0
 41 42  1  0  0  0  0
 43 41  1  0  0  0  0
 44 43  2  0  0  0  0
 45 46  1  0  0  0  0
 46 47  2  0  0  0  0
 46 37  1  0  0  0  0
 48 46  2  0  0  0  0
M  END
>  <minimizedAffinity>
-5.97269011

$$$$
