
 OpenBabel03252503163D

 39 42  0  0  0  0  0  0  0  0999 V2000
   45.0140   34.5610   41.2840 C   0  0  0  0  0  0  0  0  0  0  0  0
   43.7420   35.0560   41.0590 C   0  0  0  0  0  0  0  0  0  0  0  0
   43.2940   34.3900   39.9750 N   0  0  0  0  0  0  0  0  0  0  0  0
   44.2480   33.5310   39.5650 C   0  0  0  0  0  0  0  0  0  0  0  0
   45.3250   33.6300   40.3740 N   0  0  0  0  0  0  0  0  0  0  0  0
   44.2720   32.6070   38.4770 N   0  0  0  0  0  0  0  0  0  0  0  0
   43.2090   35.8130   41.6180 H   0  0  0  0  0  0  0  0  0  0  0  0
   44.3940   31.6000   38.7600 H   0  0  0  0  0  0  0  0  0  0  0  0
   44.1650   33.0490   37.5340 H   0  0  0  0  0  0  0  0  0  0  0  0
   40.8680   33.8750   39.6730 C   0  0  0  0  0  0  0  0  0  0  0  0
   42.0340   34.5290   39.3310 C   0  0  0  0  0  0  0  0  0  0  0  0
   41.9900   35.4080   38.2640 C   0  0  0  0  0  0  0  0  0  0  0  0
   42.8800   35.9620   37.9370 H   0  0  0  0  0  0  0  0  0  0  0  0
   40.8270   35.6330   37.5540 C   0  0  0  0  0  0  0  0  0  0  0  0
   40.7990   36.3350   36.7040 H   0  0  0  0  0  0  0  0  0  0  0  0
   39.6420   34.9790   37.8880 C   0  0  0  0  0  0  0  0  0  0  0  0
   39.7110   34.1070   38.9580 C   0  0  0  0  0  0  0  0  0  0  0  0
   41.9170   33.1240   41.9160 H   0  0  0  0  0  0  0  0  0  0  0  0
   40.9560   32.7720   41.0270 S   0  0  0  0  0  0  0  0  0  0  0  0
   39.6110   32.8840   41.7300 O   0  0  0  0  0  0  0  0  0  0  0  0
   41.1010   31.3670   40.5040 O   0  0  0  0  0  0  0  0  0  0  0  0
   45.9320   34.9960   42.3940 C   0  0  0  0  0  0  0  0  0  0  0  0
   47.0250   35.6160   42.1970 O   0  0  0  0  0  0  0  0  0  0  0  0
   44.8330   35.6400   44.4830 C   0  0  0  0  0  0  0  0  0  0  0  0
   45.6120   34.7260   43.7500 C   0  0  0  0  0  0  0  0  0  0  0  0
   46.0060   33.6050   44.4440 C   0  0  0  0  0  0  0  0  0  0  0  0
   45.6710   33.4010   45.7320 N   0  0  0  0  0  0  0  0  0  0  0  0
   44.9180   34.3150   46.3950 C   0  0  0  0  0  0  0  0  0  0  0  0
   44.5060   35.4250   45.7660 N   0  0  0  0  0  0  0  0  0  0  0  0
   44.4880   36.5460   43.9980 H   0  0  0  0  0  0  0  0  0  0  0  0
   44.6720   34.1100   47.4330 H   0  0  0  0  0  0  0  0  0  0  0  0
   46.7950   32.6350   43.7790 C   0  0  0  0  0  0  0  0  0  0  0  0
   48.1160   32.5070   43.4800 C   0  0  0  0  0  0  0  0  0  0  0  0
   48.5850   31.4630   42.8310 C   0  0  0  0  0  0  0  0  0  0  0  0
   47.7030   30.5100   42.4640 C   0  0  0  0  0  0  0  0  0  0  0  0
   46.1120   31.1450   43.0840 S   0  0  0  0  0  0  0  0  0  0  0  0
   48.7440   33.3510   43.8320 H   0  0  0  0  0  0  0  0  0  0  0  0
   49.6160   31.2880   42.5570 H   0  0  0  0  0  0  0  0  0  0  0  0
   47.8170   29.5460   41.9180 H   0  0  0  0  0  0  0  0  0  0  0  0
  1 22  1  0  0  0  0
  2  1  2  0  0  0  0
  2  7  1  0  0  0  0
  3  2  1  0  0  0  0
  4  3  1  0  0  0  0
  4  5  2  0  0  0  0
  5  1  1  0  0  0  0
  6  8  1  0  0  0  0
  6  4  1  0  0  0  0
  9  6  1  0  0  0  0
 10 19  1  0  0  0  0
 11 10  1  0  0  0  0
 11  3  1  0  0  0  0
 12 11  2  0  0  0  0
 13 12  1  0  0  0  0
 14 16  2  0  0  0  0
 14 12  1  0  0  0  0
 15 14  1  0  0  0  0
 16 17  1  0  0  0  0
 17 10  2  0  0  0  0
 19 20  2  0  0  0  0
 19 18  1  0  0  0  0
 21 19  2  0  0  0  0
 22 25  1  0  0  0  0
 23 22  2  0  0  0  0
 24 29  1  0  0  0  0
 25 26  1  0  0  0  0
 25 24  2  0  0  0  0
 26 27  2  0  0  0  0
 27 28  1  0  0  0  0
 28 31  1  0  0  0  0
 29 28  2  0  0  0  0
 30 24  1  0  0  0  0
 32 26  1  0  0  0  0
 33 32  2  0  0  0  0
 33 37  1  0  0  0  0
 34 33  1  0  0  0  0
 35 34  2  0  0  0  0
 35 36  1  0  0  0  0
 36 32  1  0  0  0  0
 38 34  1  0  0  0  0
 39 35  1  0  0  0  0
M  END
>  <minimizedAffinity>
-6.19737101

>  <minimizedRMSD>
1.90222359

$$$$
