
 OpenBabel03252508023D

 45 48  0  0  1  0  0  0  0  0999 V2000
   42.0570   33.2540   41.1470 C   0  0  0  0  0  0  0  0  0  0  0  0
   42.8020   34.3850   41.3140 C   0  0  0  0  0  0  0  0  0  0  0  0
   42.1360   35.6250   41.2520 C   0  0  0  0  0  0  0  0  0  0  0  0
   40.7870   35.7510   41.0350 C   0  0  0  0  0  0  0  0  0  0  0  0
   40.0480   34.6140   40.8700 C   0  0  0  0  0  0  0  0  0  0  0  0
   40.6820   33.4100   40.9280 C   0  0  0  0  0  0  0  0  0  0  0  0
   42.6510   36.5770   41.3640 H   0  0  0  0  0  0  0  0  0  0  0  0
   40.2970   36.6870   40.9910 H   0  0  0  0  0  0  0  0  0  0  0  0
   39.0010   34.6410   40.6990 H   0  0  0  0  0  0  0  0  0  0  0  0
   40.0740   32.5040   40.7920 H   0  0  0  0  0  0  0  0  0  0  0  0
   42.6970   31.7070   41.2890 S   0  0  0  0  0  0  0  0  0  0  0  0
   41.5760   30.8690   40.5920 O   0  0  0  0  0  0  0  0  0  0  0  0
   42.7770   31.2380   42.6900 O   0  0  0  0  0  0  0  0  0  0  0  0
   44.2690   29.6240   40.8510 C   0  0  0  0  0  0  0  0  0  0  0  0
   43.8290   30.8800   40.3650 C   0  0  0  0  0  0  0  0  0  0  0  0
   44.4090   31.1640   39.1020 C   0  0  0  0  0  0  0  0  0  0  0  0
   44.0210   32.1290   38.7160 H   0  0  0  0  0  0  0  0  0  0  0  0
   45.2900   30.4630   38.3080 C   0  0  0  0  0  0  0  0  0  0  0  0
   45.5950   30.8780   37.3870 H   0  0  0  0  0  0  0  0  0  0  0  0
   45.5980   29.3040   38.9240 C   0  0  0  0  0  3  0  0  0  0  0  0
   45.1470   28.8470   40.1310 C   0  0  0  0  0  3  0  0  0  0  0  0
   43.1550   29.8520   43.2040 H   0  0  0  0  0  0  0  0  0  0  0  0
   43.7590   28.9610   42.3930 S   0  0  0  0  0  0  0  0  0  0  0  0
   44.8700   28.1700   43.0630 O   0  0  0  0  0  0  0  0  0  0  0  0
   42.6930   27.8900   42.1840 O   0  0  0  0  0  0  0  0  0  0  0  0
   44.2340   34.3580   41.5450 C   0  0  0  0  0  0  0  0  0  0  0  0
   45.1090   34.2670   40.6290 O   0  0  0  0  0  0  0  0  0  0  0  0
   44.5840   34.4480   42.9380 C   0  0  0  0  0  0  0  0  0  0  0  0
   44.3070   35.7100   43.5700 C   0  0  0  0  0  0  0  0  0  0  0  0
   44.6290   35.8150   44.9130 C   0  0  0  0  0  0  0  0  0  0  0  0
   45.1780   34.7380   45.5390 N   0  0  0  0  0  0  0  0  0  0  0  0
   45.4210   33.5560   44.8850 C   0  0  0  0  0  0  0  0  0  0  0  0
   45.1230   33.4550   43.6380 N   0  0  0  0  0  0  0  0  0  0  0  0
   43.8880   36.5880   43.1580 H   0  0  0  0  0  0  0  0  0  0  0  0
   44.4680   36.7120   45.4960 H   0  0  0  0  0  0  0  0  0  0  0  0
   46.0120   32.4400   45.6480 C   0  0  1  0  0  0  0  0  0  0  0  0
   46.9650   32.7460   46.7830 C   0  0  0  0  0  0  0  0  0  0  0  0
   45.5480   32.3370   47.0580 C   0  0  1  0  0  0  0  0  0  0  0  0
   46.1950   31.5020   45.1070 H   0  0  0  0  0  0  0  0  0  0  0  0
   47.2550   33.8290   46.8120 H   0  0  0  0  0  0  0  0  0  0  0  0
   47.7910   32.0370   46.9350 H   0  0  0  0  0  0  0  0  0  0  0  0
   45.4650   31.3080   47.4770 H   0  0  0  0  0  0  0  0  0  0  0  0
   44.7720   33.4080   47.6480 N   0  0  0  0  0  0  0  0  0  0  0  0
   44.1250   33.0240   48.3720 H   0  0  0  0  0  0  0  0  0  0  0  0
   45.3250   34.2130   47.9660 H   0  0  0  0  0  0  0  0  0  0  0  0
  1 11  1  0  0  0  0
  1  2  1  0  0  0  0
  2 26  1  0  0  0  0
  3  2  2  0  0  0  0
  3  7  1  0  0  0  0
  4  3  1  0  0  0  0
  5  6  1  0  0  0  0
  5  4  2  0  0  0  0
  6  1  2  0  0  0  0
  8  4  1  0  0  0  0
  9  5  1  0  0  0  0
 10  6  1  0  0  0  0
 11 13  2  0  0  0  0
 12 11  2  0  0  0  0
 14 23  1  0  0  0  0
 15 14  1  0  0  0  0
 15 11  1  0  0  0  0
 16 15  2  0  0  0  0
 17 16  1  0  0  0  0
 18 20  2  0  0  0  0
 18 16  1  0  0  0  0
 19 18  1  0  0  0  0
 20 21  1  0  0  0  0
 21 14  2  0  0  0  0
 23 24  2  0  0  0  0
 23 22  1  0  0  0  0
 25 23  2  0  0  0  0
 26 28  1  0  0  0  0
 27 26  2  0  0  0  0
 28 29  2  0  0  0  0
 28 33  1  0  0  0  0
 29 30  1  0  0  0  0
 30 35  1  0  0  0  0
 30 31  2  0  0  0  0
 32 31  1  0  0  0  0
 32 36  1  0  0  0  0
 33 32  2  0  0  0  0
 34 29  1  0  0  0  0
 36 39  1  6  0  0  0
 36 37  1  0  0  0  0
 36 38  1  0  0  0  0
 37 40  1  0  0  0  0
 37 41  1  0  0  0  0
 37 38  1  0  0  0  0
 38 42  1  1  0  0  0
 38 43  1  0  0  0  0
 43 45  1  0  0  0  0
 43 44  1  0  0  0  0
M  END
>  <minimizedAffinity>
-5.52394629

>  <minimizedRMSD>
1.40222585

$$$$
