
 OpenBabel03252508023D

 45 48  0  0  1  0  0  0  0  0999 V2000
   42.0220   33.3020   41.0990 C   0  0  0  0  0  0  0  0  0  0  0  0
   42.7880   34.4130   41.3010 C   0  0  0  0  0  0  0  0  0  0  0  0
   42.1450   35.6670   41.2820 C   0  0  0  0  0  0  0  0  0  0  0  0
   40.7990   35.8250   41.0730 C   0  0  0  0  0  0  0  0  0  0  0  0
   40.0380   34.7080   40.8720 C   0  0  0  0  0  0  0  0  0  0  0  0
   40.6490   33.4910   40.8880 C   0  0  0  0  0  0  0  0  0  0  0  0
   42.6780   36.6040   41.4240 H   0  0  0  0  0  0  0  0  0  0  0  0
   40.3260   36.7710   41.0610 H   0  0  0  0  0  0  0  0  0  0  0  0
   38.9920   34.7590   40.7050 H   0  0  0  0  0  0  0  0  0  0  0  0
   40.0240   32.6020   40.7250 H   0  0  0  0  0  0  0  0  0  0  0  0
   42.6330   31.7400   41.1890 S   0  0  0  0  0  0  0  0  0  0  0  0
   41.4540   30.9350   40.5520 O   0  0  0  0  0  0  0  0  0  0  0  0
   42.7850   31.2540   42.5780 O   0  0  0  0  0  0  0  0  0  0  0  0
   44.0530   29.5870   40.5920 C   0  0  0  0  0  0  0  0  0  0  0  0
   43.6890   30.8970   40.1910 C   0  0  0  0  0  0  0  0  0  0  0  0
   44.2640   31.2190   38.9360 C   0  0  0  0  0  0  0  0  0  0  0  0
   43.9350   32.2280   38.6160 H   0  0  0  0  0  0  0  0  0  0  0  0
   45.0800   30.5110   38.0810 C   0  0  0  0  0  0  0  0  0  0  0  0
   45.3950   30.9600   37.1800 H   0  0  0  0  0  0  0  0  0  0  0  0
   45.3210   29.2980   38.6190 C   0  0  0  0  0  3  0  0  0  0  0  0
   44.8620   28.7990   39.8070 C   0  0  0  0  0  3  0  0  0  0  0  0
   43.0380   29.7520   42.9950 H   0  0  0  0  0  0  0  0  0  0  0  0
   43.5250   28.8680   42.1030 S   0  0  0  0  0  0  0  0  0  0  0  0
   44.5710   27.9240   42.6730 O   0  0  0  0  0  0  0  0  0  0  0  0
   42.3510   27.9240   41.8590 O   0  0  0  0  0  0  0  0  0  0  0  0
   44.2200   34.3520   41.5280 C   0  0  0  0  0  0  0  0  0  0  0  0
   45.0890   34.2300   40.6100 O   0  0  0  0  0  0  0  0  0  0  0  0
   44.5760   34.4450   42.9190 C   0  0  0  0  0  0  0  0  0  0  0  0
   44.3050   35.7090   43.5490 C   0  0  0  0  0  0  0  0  0  0  0  0
   44.6340   35.8170   44.8900 C   0  0  0  0  0  0  0  0  0  0  0  0
   45.1840   34.7410   45.5160 N   0  0  0  0  0  0  0  0  0  0  0  0
   45.4210   33.5580   44.8660 C   0  0  0  0  0  0  0  0  0  0  0  0
   45.1170   33.4540   43.6200 N   0  0  0  0  0  0  0  0  0  0  0  0
   43.8860   36.5870   43.1370 H   0  0  0  0  0  0  0  0  0  0  0  0
   44.4770   36.7170   45.4720 H   0  0  0  0  0  0  0  0  0  0  0  0
   46.0130   32.4430   45.6290 C   0  0  1  0  0  0  0  0  0  0  0  0
   46.9630   32.7500   46.7660 C   0  0  0  0  0  0  0  0  0  0  0  0
   45.5460   32.3370   47.0370 C   0  0  1  0  0  0  0  0  0  0  0  0
   46.2010   31.5050   45.0880 H   0  0  0  0  0  0  0  0  0  0  0  0
   47.2500   33.8340   46.7960 H   0  0  0  0  0  0  0  0  0  0  0  0
   47.7910   32.0440   46.9190 H   0  0  0  0  0  0  0  0  0  0  0  0
   45.4660   31.3080   47.4560 H   0  0  0  0  0  0  0  0  0  0  0  0
   44.7670   33.4050   47.6260 N   0  0  0  0  0  0  0  0  0  0  0  0
   44.1190   33.0190   48.3490 H   0  0  0  0  0  0  0  0  0  0  0  0
   45.3160   34.2120   47.9470 H   0  0  0  0  0  0  0  0  0  0  0  0
  1 11  1  0  0  0  0
  1  2  1  0  0  0  0
  2 26  1  0  0  0  0
  3  2  2  0  0  0  0
  3  7  1  0  0  0  0
  4  3  1  0  0  0  0
  5  6  1  0  0  0  0
  5  4  2  0  0  0  0
  6  1  2  0  0  0  0
  8  4  1  0  0  0  0
  9  5  1  0  0  0  0
 10  6  1  0  0  0  0
 11 13  2  0  0  0  0
 12 11  2  0  0  0  0
 14 23  1  0  0  0  0
 15 14  1  0  0  0  0
 15 11  1  0  0  0  0
 16 15  2  0  0  0  0
 17 16  1  0  0  0  0
 18 20  2  0  0  0  0
 18 16  1  0  0  0  0
 19 18  1  0  0  0  0
 20 21  1  0  0  0  0
 21 14  2  0  0  0  0
 23 24  2  0  0  0  0
 23 22  1  0  0  0  0
 25 23  2  0  0  0  0
 26 28  1  0  0  0  0
 27 26  2  0  0  0  0
 28 29  2  0  0  0  0
 28 33  1  0  0  0  0
 29 30  1  0  0  0  0
 30 35  1  0  0  0  0
 30 31  2  0  0  0  0
 32 31  1  0  0  0  0
 32 36  1  0  0  0  0
 33 32  2  0  0  0  0
 34 29  1  0  0  0  0
 36 39  1  6  0  0  0
 36 37  1  0  0  0  0
 36 38  1  0  0  0  0
 37 40  1  0  0  0  0
 37 41  1  0  0  0  0
 37 38  1  0  0  0  0
 38 42  1  1  0  0  0
 38 43  1  0  0  0  0
 43 45  1  0  0  0  0
 43 44  1  0  0  0  0
M  END
>  <minimizedAffinity>
-5.56268978

>  <minimizedRMSD>
1.42486906

$$$$
