
 OpenBabel03252508023D

 45 48  0  0  1  0  0  0  0  0999 V2000
   42.2630   33.2260   41.1640 C   0  0  0  0  0  0  0  0  0  0  0  0
   42.9550   34.3890   41.3340 C   0  0  0  0  0  0  0  0  0  0  0  0
   42.2430   35.6000   41.2180 C   0  0  0  0  0  0  0  0  0  0  0  0
   40.9010   35.6670   40.9460 C   0  0  0  0  0  0  0  0  0  0  0  0
   40.2150   34.4980   40.7780 C   0  0  0  0  0  0  0  0  0  0  0  0
   40.8920   33.3220   40.8880 C   0  0  0  0  0  0  0  0  0  0  0  0
   42.7150   36.5740   41.3280 H   0  0  0  0  0  0  0  0  0  0  0  0
   40.3760   36.5810   40.8610 H   0  0  0  0  0  0  0  0  0  0  0  0
   39.1750   34.4780   40.5660 H   0  0  0  0  0  0  0  0  0  0  0  0
   40.3260   32.3890   40.7500 H   0  0  0  0  0  0  0  0  0  0  0  0
   42.9570   31.7100   41.3670 S   0  0  0  0  0  0  0  0  0  0  0  0
   42.0420   30.8500   40.4360 O   0  0  0  0  0  0  0  0  0  0  0  0
   42.7980   31.1770   42.7380 O   0  0  0  0  0  0  0  0  0  0  0  0
   44.5600   31.3220   39.2970 C   0  0  0  0  0  0  0  0  0  0  0  0
   44.2920   30.9900   40.6470 C   0  0  0  0  0  0  0  0  0  0  0  0
   45.2940   30.1260   41.1630 C   0  0  0  0  0  0  0  0  0  0  0  0
   45.0940   29.9110   42.2330 H   0  0  0  0  0  0  0  0  0  0  0  0
   46.4260   29.5810   40.5990 C   0  0  0  0  0  0  0  0  0  0  0  0
   47.0380   28.9500   41.1830 H   0  0  0  0  0  0  0  0  0  0  0  0
   46.5190   30.0030   39.3220 C   0  0  0  0  0  3  0  0  0  0  0  0
   45.6660   30.8290   38.6450 C   0  0  0  0  0  3  0  0  0  0  0  0
   42.6540   33.0980   39.0730 H   0  0  0  0  0  0  0  0  0  0  0  0
   43.5170   32.3630   38.3430 S   0  0  0  0  0  0  0  0  0  0  0  0
   42.8700   31.6100   37.1920 O   0  0  0  0  0  0  0  0  0  0  0  0
   44.3450   33.4120   37.6070 O   0  0  0  0  0  0  0  0  0  0  0  0
   44.3770   34.4260   41.6210 C   0  0  0  0  0  0  0  0  0  0  0  0
   45.2900   34.4140   40.7390 O   0  0  0  0  0  0  0  0  0  0  0  0
   44.6680   34.4790   43.0300 C   0  0  0  0  0  0  0  0  0  0  0  0
   44.3310   35.7120   43.6900 C   0  0  0  0  0  0  0  0  0  0  0  0
   44.5950   35.7800   45.0470 C   0  0  0  0  0  0  0  0  0  0  0  0
   45.1490   34.6990   45.6610 N   0  0  0  0  0  0  0  0  0  0  0  0
   45.4510   33.5460   44.9810 C   0  0  0  0  0  0  0  0  0  0  0  0
   45.2060   33.4790   43.7200 N   0  0  0  0  0  0  0  0  0  0  0  0
   43.9040   36.5910   43.2900 H   0  0  0  0  0  0  0  0  0  0  0  0
   44.3860   36.6540   45.6520 H   0  0  0  0  0  0  0  0  0  0  0  0
   46.0410   32.4220   45.7310 C   0  0  1  0  0  0  0  0  0  0  0  0
   46.9790   32.7160   46.8820 C   0  0  0  0  0  0  0  0  0  0  0  0
   45.5630   32.2920   47.1340 C   0  0  1  0  0  0  0  0  0  0  0  0
   46.2380   31.4940   45.1770 H   0  0  0  0  0  0  0  0  0  0  0  0
   47.2620   33.8000   46.9320 H   0  0  0  0  0  0  0  0  0  0  0  0
   47.8100   32.0100   47.0310 H   0  0  0  0  0  0  0  0  0  0  0  0
   45.4830   31.2550   47.5350 H   0  0  0  0  0  0  0  0  0  0  0  0
   44.7730   33.3470   47.7330 N   0  0  0  0  0  0  0  0  0  0  0  0
   44.1210   32.9460   48.4430 H   0  0  0  0  0  0  0  0  0  0  0  0
   45.3160   34.1500   48.0710 H   0  0  0  0  0  0  0  0  0  0  0  0
  1  2  1  0  0  0  0
  1 11  1  0  0  0  0
  2 26  1  0  0  0  0
  3  7  1  0  0  0  0
  3  2  2  0  0  0  0
  4  3  1  0  0  0  0
  5  6  1  0  0  0  0
  5  4  2  0  0  0  0
  6  1  2  0  0  0  0
  8  4  1  0  0  0  0
  9  5  1  0  0  0  0
 10  6  1  0  0  0  0
 11 13  2  0  0  0  0
 12 11  2  0  0  0  0
 14 15  1  0  0  0  0
 15 16  2  0  0  0  0
 15 11  1  0  0  0  0
 16 17  1  0  0  0  0
 18 16  1  0  0  0  0
 18 19  1  0  0  0  0
 20 18  2  0  0  0  0
 21 14  2  0  0  0  0
 21 20  1  0  0  0  0
 23 22  1  0  0  0  0
 23 14  1  0  0  0  0
 24 23  2  0  0  0  0
 25 23  2  0  0  0  0
 26 28  1  0  0  0  0
 27 26  2  0  0  0  0
 28 29  2  0  0  0  0
 28 33  1  0  0  0  0
 29 30  1  0  0  0  0
 30 35  1  0  0  0  0
 30 31  2  0  0  0  0
 32 31  1  0  0  0  0
 32 36  1  0  0  0  0
 33 32  2  0  0  0  0
 34 29  1  0  0  0  0
 36 39  1  6  0  0  0
 36 37  1  0  0  0  0
 36 38  1  0  0  0  0
 37 40  1  0  0  0  0
 37 41  1  0  0  0  0
 37 38  1  0  0  0  0
 38 42  1  1  0  0  0
 38 43  1  0  0  0  0
 43 45  1  0  0  0  0
 43 44  1  0  0  0  0
M  END
>  <minimizedAffinity>
-5.80745554

>  <minimizedRMSD>
1.0965637

$$$$
