
 OpenBabel03252508023D

 45 48  0  0  1  0  0  0  0  0999 V2000
   42.2660   33.2300   41.1610 C   0  0  0  0  0  0  0  0  0  0  0  0
   42.9600   34.3930   41.3320 C   0  0  0  0  0  0  0  0  0  0  0  0
   42.2490   35.6040   41.2140 C   0  0  0  0  0  0  0  0  0  0  0  0
   40.9070   35.6720   40.9400 C   0  0  0  0  0  0  0  0  0  0  0  0
   40.2200   34.5030   40.7720 C   0  0  0  0  0  0  0  0  0  0  0  0
   40.8960   33.3260   40.8830 C   0  0  0  0  0  0  0  0  0  0  0  0
   42.7210   36.5770   41.3250 H   0  0  0  0  0  0  0  0  0  0  0  0
   40.3830   36.5860   40.8550 H   0  0  0  0  0  0  0  0  0  0  0  0
   39.1800   34.4840   40.5590 H   0  0  0  0  0  0  0  0  0  0  0  0
   40.3300   32.3950   40.7440 H   0  0  0  0  0  0  0  0  0  0  0  0
   42.9590   31.7130   41.3650 S   0  0  0  0  0  0  0  0  0  0  0  0
   42.0450   30.8540   40.4330 O   0  0  0  0  0  0  0  0  0  0  0  0
   42.7990   31.1810   42.7360 O   0  0  0  0  0  0  0  0  0  0  0  0
   44.5640   31.3240   39.2960 C   0  0  0  0  0  0  0  0  0  0  0  0
   44.2950   30.9920   40.6460 C   0  0  0  0  0  0  0  0  0  0  0  0
   45.2940   30.1270   41.1630 C   0  0  0  0  0  0  0  0  0  0  0  0
   45.0940   29.9120   42.2320 H   0  0  0  0  0  0  0  0  0  0  0  0
   46.4270   29.5810   40.6000 C   0  0  0  0  0  0  0  0  0  0  0  0
   47.0380   28.9490   41.1840 H   0  0  0  0  0  0  0  0  0  0  0  0
   46.5210   30.0020   39.3240 C   0  0  0  0  0  3  0  0  0  0  0  0
   45.6710   30.8300   38.6460 C   0  0  0  0  0  3  0  0  0  0  0  0
   42.6660   33.1070   39.0700 H   0  0  0  0  0  0  0  0  0  0  0  0
   43.5240   32.3650   38.3420 S   0  0  0  0  0  0  0  0  0  0  0  0
   42.8710   31.6130   37.1940 O   0  0  0  0  0  0  0  0  0  0  0  0
   44.3550   33.4090   37.5990 O   0  0  0  0  0  0  0  0  0  0  0  0
   44.3810   34.4280   41.6210 C   0  0  0  0  0  0  0  0  0  0  0  0
   45.2950   34.4160   40.7400 O   0  0  0  0  0  0  0  0  0  0  0  0
   44.6700   34.4810   43.0300 C   0  0  0  0  0  0  0  0  0  0  0  0
   44.3310   35.7120   43.6910 C   0  0  0  0  0  0  0  0  0  0  0  0
   44.5940   35.7800   45.0480 C   0  0  0  0  0  0  0  0  0  0  0  0
   45.1470   34.6990   45.6620 N   0  0  0  0  0  0  0  0  0  0  0  0
   45.4510   33.5470   44.9810 C   0  0  0  0  0  0  0  0  0  0  0  0
   45.2080   33.4800   43.7200 N   0  0  0  0  0  0  0  0  0  0  0  0
   43.9040   36.5920   43.2900 H   0  0  0  0  0  0  0  0  0  0  0  0
   44.3830   36.6530   45.6530 H   0  0  0  0  0  0  0  0  0  0  0  0
   46.0410   32.4230   45.7310 C   0  0  1  0  0  0  0  0  0  0  0  0
   46.9790   32.7160   46.8820 C   0  0  0  0  0  0  0  0  0  0  0  0
   45.5620   32.2920   47.1340 C   0  0  1  0  0  0  0  0  0  0  0  0
   46.2380   31.4940   45.1770 H   0  0  0  0  0  0  0  0  0  0  0  0
   47.2620   33.8000   46.9320 H   0  0  0  0  0  0  0  0  0  0  0  0
   47.8100   32.0100   47.0310 H   0  0  0  0  0  0  0  0  0  0  0  0
   45.4820   31.2550   47.5350 H   0  0  0  0  0  0  0  0  0  0  0  0
   44.7720   33.3470   47.7330 N   0  0  0  0  0  0  0  0  0  0  0  0
   44.1210   32.9460   48.4430 H   0  0  0  0  0  0  0  0  0  0  0  0
   45.3160   34.1510   48.0720 H   0  0  0  0  0  0  0  0  0  0  0  0
  1  2  1  0  0  0  0
  1 11  1  0  0  0  0
  2 26  1  0  0  0  0
  3  7  1  0  0  0  0
  3  2  2  0  0  0  0
  4  3  1  0  0  0  0
  5  6  1  0  0  0  0
  5  4  2  0  0  0  0
  6  1  2  0  0  0  0
  8  4  1  0  0  0  0
  9  5  1  0  0  0  0
 10  6  1  0  0  0  0
 11 13  2  0  0  0  0
 12 11  2  0  0  0  0
 14 15  1  0  0  0  0
 15 16  2  0  0  0  0
 15 11  1  0  0  0  0
 16 17  1  0  0  0  0
 18 16  1  0  0  0  0
 18 19  1  0  0  0  0
 20 18  2  0  0  0  0
 21 14  2  0  0  0  0
 21 20  1  0  0  0  0
 23 22  1  0  0  0  0
 23 14  1  0  0  0  0
 24 23  2  0  0  0  0
 25 23  2  0  0  0  0
 26 28  1  0  0  0  0
 27 26  2  0  0  0  0
 28 29  2  0  0  0  0
 28 33  1  0  0  0  0
 29 30  1  0  0  0  0
 30 35  1  0  0  0  0
 30 31  2  0  0  0  0
 32 31  1  0  0  0  0
 32 36  1  0  0  0  0
 33 32  2  0  0  0  0
 34 29  1  0  0  0  0
 36 39  1  6  0  0  0
 36 37  1  0  0  0  0
 36 38  1  0  0  0  0
 37 40  1  0  0  0  0
 37 41  1  0  0  0  0
 37 38  1  0  0  0  0
 38 42  1  1  0  0  0
 38 43  1  0  0  0  0
 43 45  1  0  0  0  0
 43 44  1  0  0  0  0
M  END
>  <minimizedAffinity>
-5.80718851

>  <minimizedRMSD>
1.06410956

$$$$
