
 OpenBabel03252503093D

 30 32  0  0  1  0  0  0  0  0999 V2000
   45.4510   36.1170   43.2560 C   0  0  0  0  0  0  0  0  0  0  0  0
   46.2160   34.9370   43.1280 C   0  0  0  0  0  0  0  0  0  0  0  0
   46.0860   34.0450   44.1800 C   0  0  0  0  0  0  0  0  0  0  0  0
   45.2870   34.2800   45.2540 N   0  0  0  0  0  0  0  0  0  0  0  0
   44.5680   35.4410   45.3260 C   0  0  0  0  0  0  0  0  0  0  0  0
   44.6520   36.3560   44.3290 N   0  0  0  0  0  0  0  0  0  0  0  0
   45.4430   36.9120   42.5230 H   0  0  0  0  0  0  0  0  0  0  0  0
   43.9500   35.5760   46.2000 H   0  0  0  0  0  0  0  0  0  0  0  0
   46.7920   32.8480   44.1310 C   0  0  0  0  0  0  0  0  0  0  0  0
   47.4680   32.1850   43.1270 C   0  0  0  0  0  0  0  0  0  0  0  0
   48.0590   31.0160   43.3310 C   0  0  0  0  0  0  0  0  0  0  0  0
   47.9790   30.4720   44.5970 C   0  0  0  0  0  0  0  0  0  0  0  0
   46.9780   31.7480   45.5530 S   0  0  0  0  0  0  0  0  0  0  0  0
   47.6350   32.4570   42.1190 H   0  0  0  0  0  0  0  0  0  0  0  0
   48.6290   30.2510   42.8640 H   0  0  0  0  0  0  0  0  0  0  0  0
   48.2240   29.6250   45.3400 H   0  0  0  0  0  0  0  0  0  0  0  0
   46.9820   34.7970   41.9670 C   0  0  2  0  0  0  0  0  0  0  0  0
   48.1910   35.3370   42.0980 O   0  0  0  0  0  0  0  0  0  0  0  0
   45.8610   33.5680   39.9600 C   0  0  0  0  0  0  0  0  0  0  0  0
   46.8260   34.2280   40.6120 C   0  0  0  0  0  0  0  0  0  0  0  0
   47.9860   34.3430   39.8030 C   0  0  0  0  0  0  0  0  0  0  0  0
   48.9050   34.8650   40.1500 H   0  0  0  0  0  0  0  0  0  0  0  0
   48.1860   33.8730   38.5220 C   0  0  0  0  0  0  0  0  0  0  0  0
   49.0770   33.9850   37.9550 H   0  0  0  0  0  0  0  0  0  0  0  0
   47.1200   33.2130   37.9730 C   0  0  0  0  0  0  0  0  0  0  0  0
   45.9560   33.0590   38.6880 C   0  0  0  0  0  0  0  0  0  0  0  0
   43.7090   34.4690   41.1720 H   0  0  0  0  0  0  0  0  0  0  0  0
   44.2960   33.4170   40.6390 S   0  0  0  0  0  0  0  0  0  0  0  0
   44.2650   32.2380   41.5680 O   0  0  0  0  0  0  0  0  0  0  0  0
   43.3070   32.9850   39.5150 O   0  0  0  0  0  0  0  0  0  0  0  0
  1  6  1  0  0  0  0
  2  1  2  0  0  0  0
  2  3  1  0  0  0  0
  3  4  2  0  0  0  0
  4  5  1  0  0  0  0
  5  8  1  0  0  0  0
  6  5  2  0  0  0  0
  7  1  1  0  0  0  0
  9  3  1  0  0  0  0
  9 13  1  0  0  0  0
 10 11  1  0  0  0  0
 10  9  2  0  0  0  0
 11 12  2  0  0  0  0
 12 16  1  0  0  0  0
 12 13  1  0  0  0  0
 14 10  1  0  0  0  0
 15 11  1  0  0  0  0
 17 18  1  6  0  0  0
 17  2  1  0  0  0  0
 19 20  1  0  0  0  0
 19 28  1  0  0  0  0
 20 17  1  0  0  0  0
 21 22  1  0  0  0  0
 21 20  2  0  0  0  0
 23 21  1  0  0  0  0
 24 23  1  0  0  0  0
 25 23  2  0  0  0  0
 25 26  1  0  0  0  0
 26 19  2  0  0  0  0
 28 27  1  0  0  0  0
 28 29  2  0  0  0  0
 30 28  2  0  0  0  0
M  END
>  <minimizedAffinity>
-5.2179842

>  <minimizedRMSD>
1.66889727

$$$$
