
 OpenBabel03252507453D

 40 42  0  0  0  0  0  0  0  0999 V2000
   48.7500   33.9240   41.2470 C   0  0  0  0  0  0  0  0  0  0  0  0
   48.9720   32.7200   40.6060 C   0  0  0  0  0  0  0  0  0  0  0  0
   50.1100   31.9650   40.8630 C   0  0  0  0  0  0  0  0  0  0  0  0
   50.9910   32.4630   41.7720 N   0  0  0  0  0  0  0  0  0  0  0  0
   50.7420   33.6550   42.3880 C   0  0  0  0  0  0  0  0  0  0  0  0
   49.6460   34.3410   42.1130 N   0  0  0  0  0  0  0  0  0  0  0  0
   50.3490   31.0390   40.4110 H   0  0  0  0  0  0  0  0  0  0  0  0
   51.4010   34.1080   43.1200 H   0  0  0  0  0  0  0  0  0  0  0  0
   47.5220   34.6380   40.8850 C   0  0  0  0  0  0  0  0  0  0  0  0
   47.7860   35.6010   40.3500 H   0  0  0  0  0  0  0  0  0  0  0  0
   46.8860   34.0890   40.1670 H   0  0  0  0  0  0  0  0  0  0  0  0
   46.6630   34.9800   42.0720 C   0  0  0  0  0  0  0  0  0  0  0  0
   46.8920   36.0210   42.3800 H   0  0  0  0  0  0  0  0  0  0  0  0
   46.9830   34.2730   42.8890 H   0  0  0  0  0  0  0  0  0  0  0  0
   45.2090   34.9380   41.8210 C   0  0  0  0  0  0  0  0  0  0  0  0
   44.3200   35.5410   42.7510 C   0  0  0  0  0  0  0  0  0  0  0  0
   42.6700   35.2330   42.0140 S   0  0  0  0  0  0  0  0  0  0  0  0
   43.4780   34.3220   40.5420 C   0  0  0  0  0  0  0  0  0  0  0  0
   44.5880   34.3950   40.8060 N   0  0  0  0  0  0  0  0  0  0  0  0
   44.5650   36.0550   43.6680 H   0  0  0  0  0  0  0  0  0  0  0  0
   42.7460   33.7670   39.4950 O   0  0  0  0  0  0  0  0  0  0  0  0
   40.7510   34.0500   37.7790 O   0  0  0  0  0  0  0  0  0  0  0  0
   41.7980   34.8200   38.5640 P   0  0  0  0  0  0  0  0  0  0  0  0
   41.0220   35.8980   39.6050 O   0  0  0  0  0  0  0  0  0  0  0  0
   40.5420   36.6210   39.1180 H   0  0  0  0  0  0  0  0  0  0  0  0
   42.7990   35.7070   37.5190 O   0  0  0  0  0  0  0  0  0  0  0  0
   43.3750   35.0490   37.0730 H   0  0  0  0  0  0  0  0  0  0  0  0
   47.7930   32.0950   39.3840 S   0  0  0  0  0  0  0  0  0  0  0  0
   45.2950   31.1650   39.2390 C   0  0  0  0  0  0  0  0  0  0  0  0
   46.3280   31.4350   40.1400 C   0  0  0  0  0  0  0  0  0  0  0  0
   46.0830   31.1620   41.4660 C   0  0  0  0  0  0  0  0  0  0  0  0
   46.8860   31.3800   42.1260 H   0  0  0  0  0  0  0  0  0  0  0  0
   44.8950   30.6470   41.9340 C   0  0  0  0  0  0  0  0  0  0  0  0
   44.7990   30.4670   42.9930 H   0  0  0  0  0  0  0  0  0  0  0  0
   43.8730   30.3800   41.0480 C   0  0  0  0  0  3  0  0  0  0  0  0
   44.0940   30.6470   39.7020 C   0  0  0  0  0  3  0  0  0  0  0  0
   46.1430   32.3490   37.0920 H   0  0  0  0  0  0  0  0  0  0  0  0
   45.2760   31.3980   37.5120 S   0  0  0  0  0  0  0  0  0  0  0  0
   43.8850   31.7380   37.0320 O   0  0  0  0  0  0  0  0  0  0  0  0
   45.6450   30.1000   36.8460 O   0  0  0  0  0  0  0  0  0  0  0  0
  1  6  1  0  0  0  0
  2  3  1  0  0  0  0
  2  1  2  0  0  0  0
  3  4  2  0  0  0  0
  4  5  1  0  0  0  0
  5  8  1  0  0  0  0
  6  5  2  0  0  0  0
  7  3  1  0  0  0  0
  9  1  1  0  0  0  0
  9 12  1  0  0  0  0
 10  9  1  0  0  0  0
 11  9  1  0  0  0  0
 12 13  1  0  0  0  0
 12 14  1  0  0  0  0
 15 12  1  0  0  0  0
 15 16  2  0  0  0  0
 16 20  1  0  0  0  0
 17 16  1  0  0  0  0
 18 19  2  0  0  0  0
 18 17  1  0  0  0  0
 19 15  1  0  0  0  0
 21 18  1  0  0  0  0
 22 23  2  0  0  0  0
 23 21  1  0  0  0  0
 23 24  1  0  0  0  0
 25 24  1  0  0  0  0
 26 23  1  0  0  0  0
 27 26  1  0  0  0  0
 28 30  1  0  0  0  0
 28  2  1  0  0  0  0
 29 36  2  0  0  0  0
 29 30  1  0  0  0  0
 30 31  2  0  0  0  0
 31 33  1  0  0  0  0
 31 32  1  0  0  0  0
 33 34  1  0  0  0  0
 35 33  2  0  0  0  0
 36 35  1  0  0  0  0
 37 38  1  0  0  0  0
 38 29  1  0  0  0  0
 39 38  2  0  0  0  0
 40 38  2  0  0  0  0
M  END
>  <minimizedAffinity>
-4.49091864

>  <minimizedRMSD>
1.28848577

$$$$
