
 OpenBabel03252508023D

 45 48  0  0  1  0  0  0  0  0999 V2000
   42.2260   33.1930   41.1860 C   0  0  0  0  0  0  0  0  0  0  0  0
   42.9160   34.3590   41.3470 C   0  0  0  0  0  0  0  0  0  0  0  0
   42.1980   35.5670   41.2370 C   0  0  0  0  0  0  0  0  0  0  0  0
   40.8520   35.6280   40.9800 C   0  0  0  0  0  0  0  0  0  0  0  0
   40.1690   34.4560   40.8220 C   0  0  0  0  0  0  0  0  0  0  0  0
   40.8520   33.2820   40.9260 C   0  0  0  0  0  0  0  0  0  0  0  0
   42.6680   36.5430   41.3400 H   0  0  0  0  0  0  0  0  0  0  0  0
   40.3230   36.5400   40.9000 H   0  0  0  0  0  0  0  0  0  0  0  0
   39.1270   34.4320   40.6220 H   0  0  0  0  0  0  0  0  0  0  0  0
   40.2890   32.3480   40.7950 H   0  0  0  0  0  0  0  0  0  0  0  0
   42.9290   31.6790   41.3830 S   0  0  0  0  0  0  0  0  0  0  0  0
   42.0090   30.8160   40.4610 O   0  0  0  0  0  0  0  0  0  0  0  0
   42.7860   31.1470   42.7560 O   0  0  0  0  0  0  0  0  0  0  0  0
   44.5050   31.2870   39.2940 C   0  0  0  0  0  0  0  0  0  0  0  0
   44.2600   30.9650   40.6500 C   0  0  0  0  0  0  0  0  0  0  0  0
   45.2760   30.1140   41.1580 C   0  0  0  0  0  0  0  0  0  0  0  0
   45.0940   29.9070   42.2330 H   0  0  0  0  0  0  0  0  0  0  0  0
   46.4050   29.5740   40.5830 C   0  0  0  0  0  0  0  0  0  0  0  0
   47.0310   28.9530   41.1630 H   0  0  0  0  0  0  0  0  0  0  0  0
   46.4750   29.9850   39.3020 C   0  0  0  0  0  3  0  0  0  0  0  0
   45.6070   30.7990   38.6300 C   0  0  0  0  0  3  0  0  0  0  0  0
   42.5190   32.9730   39.0730 H   0  0  0  0  0  0  0  0  0  0  0  0
   43.4410   32.3110   38.3460 S   0  0  0  0  0  0  0  0  0  0  0  0
   42.8700   31.5730   37.1460 O   0  0  0  0  0  0  0  0  0  0  0  0
   44.2360   33.4280   37.6770 O   0  0  0  0  0  0  0  0  0  0  0  0
   44.3410   34.4020   41.6180 C   0  0  0  0  0  0  0  0  0  0  0  0
   45.2440   34.3870   40.7250 O   0  0  0  0  0  0  0  0  0  0  0  0
   44.6470   34.4650   43.0230 C   0  0  0  0  0  0  0  0  0  0  0  0
   44.3240   35.7050   43.6760 C   0  0  0  0  0  0  0  0  0  0  0  0
   44.6040   35.7840   45.0290 C   0  0  0  0  0  0  0  0  0  0  0  0
   45.1580   34.7050   45.6460 N   0  0  0  0  0  0  0  0  0  0  0  0
   45.4460   33.5450   44.9730 C   0  0  0  0  0  0  0  0  0  0  0  0
   45.1880   33.4680   43.7150 N   0  0  0  0  0  0  0  0  0  0  0  0
   43.8980   36.5840   43.2720 H   0  0  0  0  0  0  0  0  0  0  0  0
   44.4060   36.6640   45.6290 H   0  0  0  0  0  0  0  0  0  0  0  0
   46.0390   32.4240   45.7260 C   0  0  1  0  0  0  0  0  0  0  0  0
   46.9780   32.7220   46.8750 C   0  0  0  0  0  0  0  0  0  0  0  0
   45.5620   32.2980   47.1300 C   0  0  1  0  0  0  0  0  0  0  0  0
   46.2360   31.4940   45.1750 H   0  0  0  0  0  0  0  0  0  0  0  0
   47.2590   33.8070   46.9210 H   0  0  0  0  0  0  0  0  0  0  0  0
   47.8090   32.0180   47.0260 H   0  0  0  0  0  0  0  0  0  0  0  0
   45.4840   31.2630   47.5350 H   0  0  0  0  0  0  0  0  0  0  0  0
   44.7720   33.3550   47.7260 N   0  0  0  0  0  0  0  0  0  0  0  0
   44.1210   32.9560   48.4390 H   0  0  0  0  0  0  0  0  0  0  0  0
   45.3150   34.1600   48.0610 H   0  0  0  0  0  0  0  0  0  0  0  0
  1  2  1  0  0  0  0
  1 11  1  0  0  0  0
  2 26  1  0  0  0  0
  3  7  1  0  0  0  0
  3  2  2  0  0  0  0
  4  3  1  0  0  0  0
  5  6  1  0  0  0  0
  5  4  2  0  0  0  0
  6  1  2  0  0  0  0
  8  4  1  0  0  0  0
  9  5  1  0  0  0  0
 10  6  1  0  0  0  0
 11 13  2  0  0  0  0
 12 11  2  0  0  0  0
 14 15  1  0  0  0  0
 15 16  2  0  0  0  0
 15 11  1  0  0  0  0
 16 17  1  0  0  0  0
 18 16  1  0  0  0  0
 18 19  1  0  0  0  0
 20 18  2  0  0  0  0
 21 14  2  0  0  0  0
 21 20  1  0  0  0  0
 23 22  1  0  0  0  0
 23 14  1  0  0  0  0
 24 23  2  0  0  0  0
 25 23  2  0  0  0  0
 26 28  1  0  0  0  0
 27 26  2  0  0  0  0
 28 29  2  0  0  0  0
 28 33  1  0  0  0  0
 29 30  1  0  0  0  0
 30 35  1  0  0  0  0
 30 31  2  0  0  0  0
 32 31  1  0  0  0  0
 32 36  1  0  0  0  0
 33 32  2  0  0  0  0
 34 29  1  0  0  0  0
 36 39  1  6  0  0  0
 36 37  1  0  0  0  0
 36 38  1  0  0  0  0
 37 40  1  0  0  0  0
 37 41  1  0  0  0  0
 37 38  1  0  0  0  0
 38 42  1  1  0  0  0
 38 43  1  0  0  0  0
 43 45  1  0  0  0  0
 43 44  1  0  0  0  0
M  END
>  <minimizedAffinity>
-5.79284573

>  <minimizedRMSD>
1.22304034

$$$$
