
 OpenBabel03252504003D

 39 43  0  0  0  0  0  0  0  0999 V2000
   47.1470   34.8800   42.6700 C   0  0  0  0  0  0  0  0  0  0  0  0
   46.1390   35.8210   42.4240 C   0  0  0  0  0  0  0  0  0  0  0  0
   45.0050   35.7840   43.2330 C   0  0  0  0  0  0  0  0  0  0  0  0
   44.9440   34.8460   44.2060 N   0  0  0  0  0  0  0  0  0  0  0  0
   45.9340   33.9580   44.4130 C   0  0  0  0  0  0  0  0  0  0  0  0
   47.0410   33.9660   43.6500 N   0  0  0  0  0  0  0  0  0  0  0  0
   46.2160   36.5630   41.6330 H   0  0  0  0  0  0  0  0  0  0  0  0
   44.2120   36.5060   43.0570 H   0  0  0  0  0  0  0  0  0  0  0  0
   46.0500   31.6160   45.1170 C   0  0  0  0  0  0  0  0  0  0  0  0
   45.8470   32.9460   45.4780 C   0  0  0  0  0  0  0  0  0  0  0  0
   45.5770   33.2610   46.7880 C   0  0  0  0  0  0  0  0  0  0  0  0
   45.5100   32.2580   47.7320 C   0  0  0  0  0  0  0  0  0  0  0  0
   45.2730   32.2450   49.0440 N   0  0  0  0  0  0  0  0  0  0  0  0
   45.3120   31.0060   49.5410 C   0  0  0  0  0  0  0  0  0  0  0  0
   45.5880   30.1470   48.5140 C   0  0  0  0  0  0  0  0  0  0  0  0
   45.7120   30.9320   47.3820 C   0  0  0  0  0  0  0  0  0  0  0  0
   45.9850   30.6110   46.0580 C   0  0  0  0  0  0  0  0  0  0  0  0
   46.2660   31.3450   44.0840 H   0  0  0  0  0  0  0  0  0  0  0  0
   45.4190   34.2980   47.0620 H   0  0  0  0  0  0  0  0  0  0  0  0
   45.0840   33.1090   49.5990 H   0  0  0  0  0  0  0  0  0  0  0  0
   45.1500   30.7390   50.5880 H   0  0  0  0  0  0  0  0  0  0  0  0
   45.6900   29.0910   48.5540 H   0  0  0  0  0  0  0  0  0  0  0  0
   46.1470   29.5930   45.7420 H   0  0  0  0  0  0  0  0  0  0  0  0
   48.2910   34.9720   41.7980 C   0  0  0  0  0  0  0  0  0  0  0  0
   49.3700   35.5960   42.0770 O   0  0  0  0  0  0  0  0  0  0  0  0
   48.4990   35.9800   39.1140 H   0  0  0  0  0  0  0  0  0  0  0  0
   48.3830   34.9770   39.3010 N   0  0  0  0  0  0  0  0  0  0  0  0
   48.2670   34.3160   40.4740 C   0  0  0  0  0  0  0  0  0  0  0  0
   48.1330   33.0020   40.2170 N   0  0  0  0  0  0  0  0  0  0  0  0
   48.1580   32.7950   38.8950 C   0  0  0  0  0  0  0  0  0  0  0  0
   48.0740   31.7420   38.0050 C   0  0  0  0  0  0  0  0  0  0  0  0
   48.1340   31.8540   36.6770 N   0  0  0  0  0  0  0  0  0  0  0  0
   48.2900   33.0950   36.1410 C   0  0  0  0  0  0  0  0  0  0  0  0
   48.3560   33.3460   35.0920 H   0  0  0  0  0  0  0  0  0  0  0  0
   48.3750   34.1400   36.9810 N   0  0  0  0  0  0  0  0  0  0  0  0
   48.3150   34.0420   38.3170 C   0  0  0  0  0  0  0  0  0  0  0  0
   47.9120   30.4420   38.5570 N   0  0  0  0  0  0  0  0  0  0  0  0
   48.8140   30.1030   39.0060 H   0  0  0  0  0  0  0  0  0  0  0  0
   47.3260   29.6020   38.7580 H   0  0  0  0  0  0  0  0  0  0  0  0
  1  6  1  0  0  0  0
  2  1  2  0  0  0  0
  2  3  1  0  0  0  0
  3  4  2  0  0  0  0
  4  5  1  0  0  0  0
  5 10  1  0  0  0  0
  6  5  2  0  0  0  0
  7  2  1  0  0  0  0
  8  3  1  0  0  0  0
  9 10  2  0  0  0  0
  9 17  1  0  0  0  0
 10 11  1  0  0  0  0
 11 19  1  0  0  0  0
 11 12  2  0  0  0  0
 12 13  1  0  0  0  0
 13 14  1  0  0  0  0
 13 20  1  0  0  0  0
 14 21  1  0  0  0  0
 15 22  1  0  0  0  0
 15 14  2  0  0  0  0
 16 12  1  0  0  0  0
 16 15  1  0  0  0  0
 17 16  2  0  0  0  0
 18  9  1  0  0  0  0
 23 17  1  0  0  0  0
 24 25  2  0  0  0  0
 24  1  1  0  0  0  0
 26 27  1  0  0  0  0
 27 28  1  0  0  0  0
 28 24  1  0  0  0  0
 29 28  2  0  0  0  0
 30 29  1  0  0  0  0
 31 37  1  0  0  0  0
 31 30  2  0  0  0  0
 32 31  1  0  0  0  0
 33 32  2  0  0  0  0
 33 35  1  0  0  0  0
 34 33  1  0  0  0  0
 35 36  2  0  0  0  0
 36 30  1  0  0  0  0
 36 27  1  0  0  0  0
 37 39  1  0  0  0  0
 37 38  1  0  0  0  0
M  END
>  <minimizedAffinity>
-6.93184233

>  <minimizedRMSD>
0.980249763

$$$$
