REMARK  Name = 
REMARK  7 active torsions:
REMARK  status: ('A' for Active; 'I' for Inactive)
REMARK    1  A    between atoms: C_1  and  C_4
REMARK    2  A    between atoms: C_1  and  O_8
REMARK    3  A    between atoms: O_8  and  P_10
REMARK    4  A    between atoms: P_10  and  O_11
REMARK    5  A    between atoms: P_10  and  O_12
REMARK    6  A    between atoms: O_12  and  C_21
REMARK    7  A    between atoms: C_24  and  N_25
REMARK                            x       y       z     vdW  Elec       q    Type
REMARK                         _______ _______ _______ _____ _____    ______ ____
ROOT
ATOM      1  O   UNL     1      50.657  33.111  41.908  0.00  0.00    +0.000 OA
ATOM      2  P   UNL     1      49.626  34.159  42.229  0.00  0.00    +0.000 P 
ENDROOT
BRANCH   2   3
ATOM      3  O   UNL     1      50.209  35.363  43.249  0.00  0.00    +0.000 OA
ATOM      4  H   UNL     1      51.089  35.171  43.643  0.00  0.00    +0.000 HD
ENDBRANCH   2   3
BRANCH   2   5
ATOM      5  O   UNL     1      48.313  33.411  43.011  0.00  0.00    +0.000 OA
BRANCH   5   6
ATOM      6  C   UNL     1      47.167  33.985  42.477  0.00  0.00    +0.000 C 
ATOM      7  H   UNL     1      46.683  33.214  41.813  0.00  0.00    +0.000 HD
ATOM      8  H   UNL     1      47.363  34.841  41.802  0.00  0.00    +0.000 HD
BRANCH   6  11
ATOM      9  C   UNL     1      45.293  34.226  45.694  0.00  0.00    +0.000 A 
ATOM     10  C   UNL     1      46.170  33.747  44.699  0.00  0.00    +0.000 A 
ATOM     11  C   UNL     1      46.264  34.461  43.525  0.00  0.00    +0.000 A 
ATOM     12  N   UNL     1      45.512  35.596  43.368  0.00  0.00    +0.000 NA
ATOM     13  C   UNL     1      44.680  36.027  44.347  0.00  0.00    +0.000 A 
ATOM     14  N   UNL     1      44.569  35.349  45.500  0.00  0.00    +0.000 NA
ATOM     15  H   UNL     1      45.163  33.724  46.641  0.00  0.00    +0.000 HD
ATOM     16  H   UNL     1      46.729  32.837  44.909  0.00  0.00    +0.000 HD
ATOM     17  H   UNL     1      44.088  36.928  44.211  0.00  0.00    +0.000 HD
ENDBRANCH   6  11
ENDBRANCH   5   6
ENDBRANCH   2   5
BRANCH   2  18
ATOM     18  O   UNL     1      49.060  34.791  40.780  0.00  0.00    +0.000 OA
BRANCH  18  21
ATOM     19  H   UNL     1      49.305  35.714  38.116  0.00  0.00    +0.000 HD
ATOM     20  N   UNL     1      49.605  36.322  38.912  0.00  0.00    +0.000 N 
ATOM     21  C   UNL     1      49.525  35.965  40.204  0.00  0.00    +0.000 A 
ATOM     22  N   UNL     1      50.004  37.003  40.934  0.00  0.00    +0.000 NA
ATOM     23  C   UNL     1      50.377  37.993  40.100  0.00  0.00    +0.000 A 
ATOM     24  C   UNL     1      50.915  39.252  40.209  0.00  0.00    +0.000 A 
ATOM     25  N   UNL     1      51.192  40.043  39.155  0.00  0.00    +0.000 NA
ATOM     26  C   UNL     1      50.937  39.602  37.901  0.00  0.00    +0.000 A 
ATOM     27  H   UNL     1      51.099  40.109  36.959  0.00  0.00    +0.000 HD
ATOM     28  N   UNL     1      50.413  38.380  37.787  0.00  0.00    +0.000 NA
ATOM     29  C   UNL     1      50.125  37.564  38.817  0.00  0.00    +0.000 A 
BRANCH  24  30
ATOM     30  N   UNL     1      51.199  39.757  41.509  0.00  0.00    +0.000 N 
ATOM     31  H   UNL     1      50.346  40.016  42.065  0.00  0.00    +0.000 HD
ATOM     32  H   UNL     1      51.901  40.020  42.249  0.00  0.00    +0.000 HD
ENDBRANCH  24  30
ENDBRANCH  18  21
ENDBRANCH   2  18
TORSDOF 7
