
 OpenBabel03242512393D

 39 43  0  0  0  0  0  0  0  0999 V2000
   37.6550   30.8360   39.7670 C   0  0  0  0  0  0  0  0  0  0  0  0
   37.1220   30.3430   38.5670 C   0  0  0  0  0  0  0  0  0  0  0  0
   37.8110   30.7660   37.4000 C   0  0  0  0  0  0  0  0  0  0  0  0
   38.8910   31.5850   37.5120 N   0  0  0  0  0  0  0  0  0  0  0  0
   39.3330   32.0090   38.6990 C   0  0  0  0  0  0  0  0  0  0  0  0
   38.7220   31.6410   39.8400 N   0  0  0  0  0  0  0  0  0  0  0  0
   36.2680   29.7000   38.5220 H   0  0  0  0  0  0  0  0  0  0  0  0
   37.4180   30.3980   36.4630 H   0  0  0  0  0  0  0  0  0  0  0  0
   40.4660   32.8660   38.7990 N   0  0  0  0  0  0  0  0  0  0  0  0
   40.5060   34.0030   39.5540 C   0  0  0  0  0  0  0  0  0  0  0  0
   39.6880   34.4010   40.1700 H   0  0  0  0  0  0  0  0  0  0  0  0
   41.7260   34.5340   39.3970 N   0  0  0  0  0  0  0  0  0  0  0  0
   42.4580   33.7750   38.5730 C   0  0  0  0  0  0  0  0  0  0  0  0
   43.7270   33.7670   38.0290 C   0  0  0  0  0  0  0  0  0  0  0  0
   44.1220   32.7960   37.2030 N   0  0  0  0  0  0  0  0  0  0  0  0
   43.3280   31.7710   36.8450 C   0  0  0  0  0  0  0  0  0  0  0  0
   43.7980   31.0740   36.1730 H   0  0  0  0  0  0  0  0  0  0  0  0
   42.0810   31.7510   37.3590 N   0  0  0  0  0  0  0  0  0  0  0  0
   41.6590   32.7170   38.1940 C   0  0  0  0  0  0  0  0  0  0  0  0
   44.5820   34.8620   38.4090 N   0  0  0  0  0  0  0  0  0  0  0  0
   45.3420   34.3910   38.9380 H   0  0  0  0  0  0  0  0  0  0  0  0
   44.3070   35.8290   38.1130 H   0  0  0  0  0  0  0  0  0  0  0  0
   36.9700   30.4150   40.9550 C   0  0  0  0  0  0  0  0  0  0  0  0
   35.9220   30.9150   41.4340 O   0  0  0  0  0  0  0  0  0  0  0  0
   36.6750   28.2260   42.1810 C   0  0  0  0  0  0  0  0  0  0  0  0
   37.4830   29.2880   41.7480 C   0  0  0  0  0  0  0  0  0  0  0  0
   38.8110   29.2660   42.0830 C   0  0  0  0  0  0  0  0  0  0  0  0
   39.4260   28.2660   42.8250 C   0  0  0  0  0  0  0  0  0  0  0  0
   40.6830   28.0630   43.2530 N   0  0  0  0  0  0  0  0  0  0  0  0
   40.7220   26.9140   43.9450 C   0  0  0  0  0  0  0  0  0  0  0  0
   39.4400   26.3760   43.9520 C   0  0  0  0  0  0  0  0  0  0  0  0
   38.6120   27.2260   43.2440 C   0  0  0  0  0  0  0  0  0  0  0  0
   37.2800   27.2090   42.9310 C   0  0  0  0  0  0  0  0  0  0  0  0
   35.6390   28.2400   41.9210 H   0  0  0  0  0  0  0  0  0  0  0  0
   39.5230   30.0570   41.7870 H   0  0  0  0  0  0  0  0  0  0  0  0
   41.5160   28.6740   43.0930 H   0  0  0  0  0  0  0  0  0  0  0  0
   41.5290   26.4040   44.4460 H   0  0  0  0  0  0  0  0  0  0  0  0
   39.0670   25.4740   44.3970 H   0  0  0  0  0  0  0  0  0  0  0  0
   36.6470   26.4010   43.2560 H   0  0  0  0  0  0  0  0  0  0  0  0
  1  6  1  0  0  0  0
  1 23  1  0  0  0  0
  2  1  2  0  0  0  0
  3  4  2  0  0  0  0
  3  2  1  0  0  0  0
  4  5  1  0  0  0  0
  5  9  1  0  0  0  0
  5  6  2  0  0  0  0
  7  2  1  0  0  0  0
  8  3  1  0  0  0  0
  9 10  1  0  0  0  0
 10 11  1  0  0  0  0
 12 10  2  0  0  0  0
 13 12  1  0  0  0  0
 14 20  1  0  0  0  0
 14 13  2  0  0  0  0
 15 14  1  0  0  0  0
 16 15  2  0  0  0  0
 16 18  1  0  0  0  0
 17 16  1  0  0  0  0
 18 19  2  0  0  0  0
 19 13  1  0  0  0  0
 19  9  1  0  0  0  0
 20 21  1  0  0  0  0
 22 20  1  0  0  0  0
 23 24  2  0  0  0  0
 23 26  1  0  0  0  0
 25 33  1  0  0  0  0
 26 27  1  0  0  0  0
 26 25  2  0  0  0  0
 27 28  2  0  0  0  0
 28 32  1  0  0  0  0
 28 29  1  0  0  0  0
 29 30  1  0  0  0  0
 30 31  2  0  0  0  0
 30 37  1  0  0  0  0
 31 38  1  0  0  0  0
 32 31  1  0  0  0  0
 33 32  2  0  0  0  0
 33 39  1  0  0  0  0
 34 25  1  0  0  0  0
 35 27  1  0  0  0  0
 36 29  1  0  0  0  0
M  END
>  <minimizedAffinity>
-7.27939558

$$$$

 OpenBabel03242512393D

 39 43  0  0  0  0  0  0  0  0999 V2000
   36.4930   29.9330   39.0240 C   0  0  0  0  0  0  0  0  0  0  0  0
   36.4410   29.6720   37.6470 C   0  0  0  0  0  0  0  0  0  0  0  0
   37.2690   30.5120   36.8580 C   0  0  0  0  0  0  0  0  0  0  0  0
   38.0240   31.4720   37.4560 N   0  0  0  0  0  0  0  0  0  0  0  0
   38.0130   31.6540   38.7800 C   0  0  0  0  0  0  0  0  0  0  0  0
   37.2490   30.8880   39.5800 N   0  0  0  0  0  0  0  0  0  0  0  0
   35.8310   28.9060   37.2150 H   0  0  0  0  0  0  0  0  0  0  0  0
   37.2460   30.3290   35.7930 H   0  0  0  0  0  0  0  0  0  0  0  0
   38.8100   32.6630   39.3910 N   0  0  0  0  0  0  0  0  0  0  0  0
   38.3480   33.5500   40.3200 C   0  0  0  0  0  0  0  0  0  0  0  0
   37.3230   33.6030   40.7120 H   0  0  0  0  0  0  0  0  0  0  0  0
   39.3790   34.3370   40.6570 N   0  0  0  0  0  0  0  0  0  0  0  0
   40.4750   33.9790   39.9780 C   0  0  0  0  0  0  0  0  0  0  0  0
   41.7960   34.3660   39.8690 C   0  0  0  0  0  0  0  0  0  0  0  0
   42.6360   33.7410   39.0410 N   0  0  0  0  0  0  0  0  0  0  0  0
   42.2650   32.7070   38.2650 C   0  0  0  0  0  0  0  0  0  0  0  0
   43.0620   32.3170   37.6560 H   0  0  0  0  0  0  0  0  0  0  0  0
   40.9800   32.3060   38.3470 N   0  0  0  0  0  0  0  0  0  0  0  0
   40.1140   32.9180   39.1740 C   0  0  0  0  0  0  0  0  0  0  0  0
   42.1980   35.4730   40.6980 N   0  0  0  0  0  0  0  0  0  0  0  0
   42.8920   35.0410   41.3400 H   0  0  0  0  0  0  0  0  0  0  0  0
   41.7610   36.4080   40.5180 H   0  0  0  0  0  0  0  0  0  0  0  0
   35.6610   29.0910   39.8340 C   0  0  0  0  0  0  0  0  0  0  0  0
   34.4170   29.1840   39.9840 O   0  0  0  0  0  0  0  0  0  0  0  0
   36.5150   28.0540   41.9740 C   0  0  0  0  0  0  0  0  0  0  0  0
   36.2500   27.9800   40.5980 C   0  0  0  0  0  0  0  0  0  0  0  0
   36.5560   26.8160   39.9430 C   0  0  0  0  0  0  0  0  0  0  0  0
   37.1140   25.6920   40.5400 C   0  0  0  0  0  0  0  0  0  0  0  0
   37.4820   24.4830   40.0860 N   0  0  0  0  0  0  0  0  0  0  0  0
   37.9750   23.7710   41.1100 C   0  0  0  0  0  0  0  0  0  0  0  0
   37.9130   24.5640   42.2510 C   0  0  0  0  0  0  0  0  0  0  0  0
   37.3680   25.7840   41.8990 C   0  0  0  0  0  0  0  0  0  0  0  0
   37.0770   26.9280   42.5910 C   0  0  0  0  0  0  0  0  0  0  0  0
   36.2770   28.9590   42.4870 H   0  0  0  0  0  0  0  0  0  0  0  0
   36.3830   26.6670   38.8620 H   0  0  0  0  0  0  0  0  0  0  0  0
   37.4120   24.1230   39.1080 H   0  0  0  0  0  0  0  0  0  0  0  0
   38.3720   22.7700   41.1650 H   0  0  0  0  0  0  0  0  0  0  0  0
   38.2090   24.3540   43.2610 H   0  0  0  0  0  0  0  0  0  0  0  0
   37.2750   27.0000   43.6470 H   0  0  0  0  0  0  0  0  0  0  0  0
  1  6  1  0  0  0  0
  1 23  1  0  0  0  0
  2  1  2  0  0  0  0
  3  4  2  0  0  0  0
  3  2  1  0  0  0  0
  4  5  1  0  0  0  0
  5  9  1  0  0  0  0
  5  6  2  0  0  0  0
  7  2  1  0  0  0  0
  8  3  1  0  0  0  0
  9 10  1  0  0  0  0
 10 12  2  0  0  0  0
 10 11  1  0  0  0  0
 13 12  1  0  0  0  0
 14 13  1  0  0  0  0
 14 20  1  0  0  0  0
 15 14  2  0  0  0  0
 16 18  2  0  0  0  0
 16 15  1  0  0  0  0
 17 16  1  0  0  0  0
 18 19  1  0  0  0  0
 19  9  1  0  0  0  0
 19 13  2  0  0  0  0
 20 21  1  0  0  0  0
 22 20  1  0  0  0  0
 23 24  2  0  0  0  0
 23 26  1  0  0  0  0
 25 34  1  0  0  0  0
 25 33  1  0  0  0  0
 26 25  2  0  0  0  0
 27 28  2  0  0  0  0
 27 26  1  0  0  0  0
 28 32  1  0  0  0  0
 29 28  1  0  0  0  0
 29 30  1  0  0  0  0
 30 37  1  0  0  0  0
 30 31  2  0  0  0  0
 31 38  1  0  0  0  0
 32 31  1  0  0  0  0
 32 33  2  0  0  0  0
 33 39  1  0  0  0  0
 35 27  1  0  0  0  0
 36 29  1  0  0  0  0
M  END
>  <minimizedAffinity>
-7.25516367

$$$$

 OpenBabel03242512393D

 39 43  0  0  0  0  0  0  0  0999 V2000
   38.0330   29.5010   41.3710 C   0  0  0  0  0  0  0  0  0  0  0  0
   38.4210   29.6120   42.7150 C   0  0  0  0  0  0  0  0  0  0  0  0
   39.5780   30.4040   42.9300 C   0  0  0  0  0  0  0  0  0  0  0  0
   40.2110   30.9780   41.8710 N   0  0  0  0  0  0  0  0  0  0  0  0
   39.7730   30.8200   40.6190 C   0  0  0  0  0  0  0  0  0  0  0  0
   38.6800   30.0810   40.3530 N   0  0  0  0  0  0  0  0  0  0  0  0
   37.8940   29.1430   43.5200 H   0  0  0  0  0  0  0  0  0  0  0  0
   39.8960   30.5040   43.9580 H   0  0  0  0  0  0  0  0  0  0  0  0
   40.4460   31.4270   39.5220 N   0  0  0  0  0  0  0  0  0  0  0  0
   40.7850   30.7760   38.3700 C   0  0  0  0  0  0  0  0  0  0  0  0
   40.5880   29.7190   38.1420 H   0  0  0  0  0  0  0  0  0  0  0  0
   41.3990   31.6680   37.5810 N   0  0  0  0  0  0  0  0  0  0  0  0
   41.4600   32.8590   38.1900 C   0  0  0  0  0  0  0  0  0  0  0  0
   41.9390   34.1280   37.9320 C   0  0  0  0  0  0  0  0  0  0  0  0
   41.8120   35.1120   38.8250 N   0  0  0  0  0  0  0  0  0  0  0  0
   41.2190   34.9440   40.0210 C   0  0  0  0  0  0  0  0  0  0  0  0
   41.1990   35.8360   40.6230 H   0  0  0  0  0  0  0  0  0  0  0  0
   40.7410   33.7140   40.3030 N   0  0  0  0  0  0  0  0  0  0  0  0
   40.8560   32.7060   39.4200 C   0  0  0  0  0  0  0  0  0  0  0  0
   42.5740   34.3130   36.6530 N   0  0  0  0  0  0  0  0  0  0  0  0
   41.9460   34.9900   36.1780 H   0  0  0  0  0  0  0  0  0  0  0  0
   43.4600   33.7860   36.4610 H   0  0  0  0  0  0  0  0  0  0  0  0
   36.8630   28.7040   41.1390 C   0  0  0  0  0  0  0  0  0  0  0  0
   35.6990   29.1240   40.9260 O   0  0  0  0  0  0  0  0  0  0  0  0
   36.9500   26.4650   42.3060 C   0  0  0  0  0  0  0  0  0  0  0  0
   36.9540   27.2360   41.1340 C   0  0  0  0  0  0  0  0  0  0  0  0
   37.0450   26.5840   39.9330 C   0  0  0  0  0  0  0  0  0  0  0  0
   37.1360   25.2050   39.7830 C   0  0  0  0  0  0  0  0  0  0  0  0
   37.2340   24.3890   38.7210 N   0  0  0  0  0  0  0  0  0  0  0  0
   37.2940   23.1220   39.1570 C   0  0  0  0  0  0  0  0  0  0  0  0
   37.2320   23.1440   40.5460 C   0  0  0  0  0  0  0  0  0  0  0  0
   37.1310   24.4610   40.9520 C   0  0  0  0  0  0  0  0  0  0  0  0
   37.0420   25.0730   42.1720 C   0  0  0  0  0  0  0  0  0  0  0  0
   36.8790   26.9710   43.2440 H   0  0  0  0  0  0  0  0  0  0  0  0
   37.0550   27.1070   38.9600 H   0  0  0  0  0  0  0  0  0  0  0  0
   37.2600   24.6590   37.7120 H   0  0  0  0  0  0  0  0  0  0  0  0
   37.3760   22.1840   38.6310 H   0  0  0  0  0  0  0  0  0  0  0  0
   37.2510   22.3400   41.2560 H   0  0  0  0  0  0  0  0  0  0  0  0
   37.0380   24.4950   43.0810 H   0  0  0  0  0  0  0  0  0  0  0  0
  1  2  1  0  0  0  0
  2  3  2  0  0  0  0
  2  7  1  0  0  0  0
  3  8  1  0  0  0  0
  4  3  1  0  0  0  0
  5  4  2  0  0  0  0
  6  5  1  0  0  0  0
  6  1  2  0  0  0  0
  9  5  1  0  0  0  0
 10  9  1  0  0  0  0
 11 10  1  0  0  0  0
 12 13  1  0  0  0  0
 12 10  2  0  0  0  0
 13 19  1  0  0  0  0
 14 13  2  0  0  0  0
 14 15  1  0  0  0  0
 15 16  2  0  0  0  0
 16 18  1  0  0  0  0
 16 17  1  0  0  0  0
 19  9  1  0  0  0  0
 19 18  2  0  0  0  0
 20 14  1  0  0  0  0
 21 20  1  0  0  0  0
 22 20  1  0  0  0  0
 23  1  1  0  0  0  0
 24 23  2  0  0  0  0
 25 34  1  0  0  0  0
 26 23  1  0  0  0  0
 26 25  2  0  0  0  0
 27 26  1  0  0  0  0
 28 27  2  0  0  0  0
 28 32  1  0  0  0  0
 29 30  1  0  0  0  0
 29 28  1  0  0  0  0
 30 31  2  0  0  0  0
 31 32  1  0  0  0  0
 31 38  1  0  0  0  0
 32 33  2  0  0  0  0
 33 25  1  0  0  0  0
 33 39  1  0  0  0  0
 35 27  1  0  0  0  0
 36 29  1  0  0  0  0
 37 30  1  0  0  0  0
M  END
>  <minimizedAffinity>
-7.24362755

$$$$

 OpenBabel03242512393D

 39 43  0  0  0  0  0  0  0  0999 V2000
   39.0210   33.0960   40.1360 C   0  0  0  0  0  0  0  0  0  0  0  0
   37.7220   33.1700   39.6100 C   0  0  0  0  0  0  0  0  0  0  0  0
   36.9620   31.9800   39.7540 C   0  0  0  0  0  0  0  0  0  0  0  0
   37.5120   30.8950   40.3610 N   0  0  0  0  0  0  0  0  0  0  0  0
   38.7610   30.9100   40.8350 C   0  0  0  0  0  0  0  0  0  0  0  0
   39.5300   32.0100   40.7290 N   0  0  0  0  0  0  0  0  0  0  0  0
   37.3270   34.0450   39.1390 H   0  0  0  0  0  0  0  0  0  0  0  0
   35.9570   32.0130   39.3560 H   0  0  0  0  0  0  0  0  0  0  0  0
   39.3230   29.7660   41.4680 N   0  0  0  0  0  0  0  0  0  0  0  0
   40.5560   29.2560   41.1810 C   0  0  0  0  0  0  0  0  0  0  0  0
   41.2640   29.6490   40.4390 H   0  0  0  0  0  0  0  0  0  0  0  0
   40.7320   28.1880   41.9730 N   0  0  0  0  0  0  0  0  0  0  0  0
   39.6580   28.0070   42.7500 C   0  0  0  0  0  0  0  0  0  0  0  0
   39.2260   27.1360   43.7300 C   0  0  0  0  0  0  0  0  0  0  0  0
   38.0310   27.2760   44.3070 N   0  0  0  0  0  0  0  0  0  0  0  0
   37.1720   28.2590   43.9810 C   0  0  0  0  0  0  0  0  0  0  0  0
   36.2520   28.2320   44.5390 H   0  0  0  0  0  0  0  0  0  0  0  0
   37.5640   29.1270   43.0260 N   0  0  0  0  0  0  0  0  0  0  0  0
   38.7640   29.0070   42.4290 C   0  0  0  0  0  0  0  0  0  0  0  0
   40.1420   26.0810   44.0830 N   0  0  0  0  0  0  0  0  0  0  0  0
   40.3750   26.2980   45.0720 H   0  0  0  0  0  0  0  0  0  0  0  0
   40.3770   25.3670   43.3520 H   0  0  0  0  0  0  0  0  0  0  0  0
   39.8000   34.2920   40.0000 C   0  0  0  0  0  0  0  0  0  0  0  0
   39.3710   35.4730   40.0050 O   0  0  0  0  0  0  0  0  0  0  0  0
   42.1580   34.3170   40.9070 C   0  0  0  0  0  0  0  0  0  0  0  0
   41.2600   34.2130   39.8350 C   0  0  0  0  0  0  0  0  0  0  0  0
   41.7730   34.0260   38.5780 C   0  0  0  0  0  0  0  0  0  0  0  0
   43.1270   33.9320   38.2800 C   0  0  0  0  0  0  0  0  0  0  0  0
   43.8200   33.7570   37.1420 N   0  0  0  0  0  0  0  0  0  0  0  0
   45.1290   33.7440   37.4340 C   0  0  0  0  0  0  0  0  0  0  0  0
   45.2620   33.9190   38.8060 C   0  0  0  0  0  0  0  0  0  0  0  0
   43.9980   34.0380   39.3510 C   0  0  0  0  0  0  0  0  0  0  0  0
   43.5270   34.2250   40.6220 C   0  0  0  0  0  0  0  0  0  0  0  0
   41.7610   34.4620   41.8870 H   0  0  0  0  0  0  0  0  0  0  0  0
   41.1440   33.9330   37.6750 H   0  0  0  0  0  0  0  0  0  0  0  0
   43.4370   33.6450   36.1760 H   0  0  0  0  0  0  0  0  0  0  0  0
   46.0020   33.6290   36.8120 H   0  0  0  0  0  0  0  0  0  0  0  0
   46.1420   33.9650   39.4190 H   0  0  0  0  0  0  0  0  0  0  0  0
   44.2040   34.3070   41.4560 H   0  0  0  0  0  0  0  0  0  0  0  0
  1  6  1  0  0  0  0
  2  3  1  0  0  0  0
  2  1  2  0  0  0  0
  3  4  2  0  0  0  0
  4  5  1  0  0  0  0
  5  9  1  0  0  0  0
  6  5  2  0  0  0  0
  7  2  1  0  0  0  0
  8  3  1  0  0  0  0
  9 19  1  0  0  0  0
 10  9  1  0  0  0  0
 10 12  2  0  0  0  0
 11 10  1  0  0  0  0
 12 13  1  0  0  0  0
 13 14  1  0  0  0  0
 14 20  1  0  0  0  0
 14 15  2  0  0  0  0
 16 15  1  0  0  0  0
 16 17  1  0  0  0  0
 18 16  2  0  0  0  0
 19 13  2  0  0  0  0
 19 18  1  0  0  0  0
 20 21  1  0  0  0  0
 22 20  1  0  0  0  0
 23 24  2  0  0  0  0
 23  1  1  0  0  0  0
 25 34  1  0  0  0  0
 26 23  1  0  0  0  0
 26 25  2  0  0  0  0
 27 26  1  0  0  0  0
 28 27  2  0  0  0  0
 28 32  1  0  0  0  0
 29 30  1  0  0  0  0
 29 28  1  0  0  0  0
 30 31  2  0  0  0  0
 31 32  1  0  0  0  0
 31 38  1  0  0  0  0
 32 33  2  0  0  0  0
 33 25  1  0  0  0  0
 33 39  1  0  0  0  0
 35 27  1  0  0  0  0
 36 29  1  0  0  0  0
 37 30  1  0  0  0  0
M  END
>  <minimizedAffinity>
-6.99431419

$$$$

 OpenBabel03242512393D

 39 43  0  0  0  0  0  0  0  0999 V2000
   36.9070   28.9550   39.6100 C   0  0  0  0  0  0  0  0  0  0  0  0
   36.3970   28.9210   40.9160 C   0  0  0  0  0  0  0  0  0  0  0  0
   36.9890   29.8570   41.8030 C   0  0  0  0  0  0  0  0  0  0  0  0
   37.9680   30.6890   41.3540 N   0  0  0  0  0  0  0  0  0  0  0  0
   38.3960   30.6540   40.0900 C   0  0  0  0  0  0  0  0  0  0  0  0
   37.8720   29.7890   39.2020 N   0  0  0  0  0  0  0  0  0  0  0  0
   35.6250   28.2490   41.2290 H   0  0  0  0  0  0  0  0  0  0  0  0
   36.6120   29.8490   42.8160 H   0  0  0  0  0  0  0  0  0  0  0  0
   39.4210   31.5320   39.6360 N   0  0  0  0  0  0  0  0  0  0  0  0
   40.5080   31.1350   38.9100 C   0  0  0  0  0  0  0  0  0  0  0  0
   40.7330   30.1090   38.5880 H   0  0  0  0  0  0  0  0  0  0  0  0
   41.2410   32.2310   38.6720 N   0  0  0  0  0  0  0  0  0  0  0  0
   40.6570   33.3050   39.2170 C   0  0  0  0  0  0  0  0  0  0  0  0
   40.8870   34.6620   39.3280 C   0  0  0  0  0  0  0  0  0  0  0  0
   40.0390   35.4590   39.9820 N   0  0  0  0  0  0  0  0  0  0  0  0
   38.9180   35.0070   40.5720 C   0  0  0  0  0  0  0  0  0  0  0  0
   38.3440   35.7780   41.0570 H   0  0  0  0  0  0  0  0  0  0  0  0
   38.6650   33.6850   40.4820 N   0  0  0  0  0  0  0  0  0  0  0  0
   39.5030   32.8610   39.8290 C   0  0  0  0  0  0  0  0  0  0  0  0
   42.0870   35.1510   38.6980 N   0  0  0  0  0  0  0  0  0  0  0  0
   41.7200   35.7750   37.9530 H   0  0  0  0  0  0  0  0  0  0  0  0
   43.0090   34.8200   39.0690 H   0  0  0  0  0  0  0  0  0  0  0  0
   36.3170   28.0150   38.7010 C   0  0  0  0  0  0  0  0  0  0  0  0
   36.5730   26.7880   38.6200 O   0  0  0  0  0  0  0  0  0  0  0  0
   35.5730   28.6630   36.3760 C   0  0  0  0  0  0  0  0  0  0  0  0
   35.2980   28.4540   37.7360 C   0  0  0  0  0  0  0  0  0  0  0  0
   34.0190   28.6700   38.1770 C   0  0  0  0  0  0  0  0  0  0  0  0
   32.9630   29.0850   37.3760 C   0  0  0  0  0  0  0  0  0  0  0  0
   31.6670   29.3500   37.6070 N   0  0  0  0  0  0  0  0  0  0  0  0
   31.0910   29.7220   36.4550 C   0  0  0  0  0  0  0  0  0  0  0  0
   32.0630   29.6900   35.4620 C   0  0  0  0  0  0  0  0  0  0  0  0
   33.2530   29.2860   36.0360 C   0  0  0  0  0  0  0  0  0  0  0  0
   34.5180   29.0820   35.5540 C   0  0  0  0  0  0  0  0  0  0  0  0
   36.5690   28.4960   36.0290 H   0  0  0  0  0  0  0  0  0  0  0  0
   33.7110   28.5320   39.2280 H   0  0  0  0  0  0  0  0  0  0  0  0
   31.1580   29.2870   38.5180 H   0  0  0  0  0  0  0  0  0  0  0  0
   30.0800   30.0140   36.2170 H   0  0  0  0  0  0  0  0  0  0  0  0
   31.9960   29.9180   34.4150 H   0  0  0  0  0  0  0  0  0  0  0  0
   34.7440   29.2380   34.5130 H   0  0  0  0  0  0  0  0  0  0  0  0
  1  2  1  0  0  0  0
  2  7  1  0  0  0  0
  2  3  2  0  0  0  0
  3  8  1  0  0  0  0
  4  3  1  0  0  0  0
  5  4  2  0  0  0  0
  6  1  2  0  0  0  0
  6  5  1  0  0  0  0
  9 19  1  0  0  0  0
  9  5  1  0  0  0  0
 10  9  1  0  0  0  0
 11 10  1  0  0  0  0
 12 10  2  0  0  0  0
 12 13  1  0  0  0  0
 13 14  2  0  0  0  0
 13 19  1  0  0  0  0
 14 15  1  0  0  0  0
 15 16  2  0  0  0  0
 16 17  1  0  0  0  0
 18 16  1  0  0  0  0
 19 18  2  0  0  0  0
 20 22  1  0  0  0  0
 20 14  1  0  0  0  0
 21 20  1  0  0  0  0
 23  1  1  0  0  0  0
 24 23  2  0  0  0  0
 25 26  1  0  0  0  0
 26 27  2  0  0  0  0
 26 23  1  0  0  0  0
 27 35  1  0  0  0  0
 28 29  1  0  0  0  0
 28 27  1  0  0  0  0
 29 36  1  0  0  0  0
 30 29  1  0  0  0  0
 31 32  1  0  0  0  0
 31 30  2  0  0  0  0
 32 28  2  0  0  0  0
 33 32  1  0  0  0  0
 33 25  2  0  0  0  0
 34 25  1  0  0  0  0
 37 30  1  0  0  0  0
 38 31  1  0  0  0  0
 39 33  1  0  0  0  0
M  END
>  <minimizedAffinity>
-6.69387102

$$$$

 OpenBabel03242512393D

 39 43  0  0  0  0  0  0  0  0999 V2000
   38.3920   26.9150   43.0990 C   0  0  0  0  0  0  0  0  0  0  0  0
   39.5480   26.5320   43.7950 C   0  0  0  0  0  0  0  0  0  0  0  0
   40.0730   25.2700   43.4120 C   0  0  0  0  0  0  0  0  0  0  0  0
   39.4520   24.5450   42.4430 N   0  0  0  0  0  0  0  0  0  0  0  0
   38.3500   24.9860   41.8300 C   0  0  0  0  0  0  0  0  0  0  0  0
   37.8070   26.1760   42.1490 N   0  0  0  0  0  0  0  0  0  0  0  0
   40.0060   27.1330   44.5520 H   0  0  0  0  0  0  0  0  0  0  0  0
   40.9640   24.9530   43.9350 H   0  0  0  0  0  0  0  0  0  0  0  0
   37.7120   24.2150   40.8170 N   0  0  0  0  0  0  0  0  0  0  0  0
   36.3710   23.9660   40.7710 C   0  0  0  0  0  0  0  0  0  0  0  0
   35.6210   24.3180   41.4920 H   0  0  0  0  0  0  0  0  0  0  0  0
   36.1500   23.2140   39.6840 N   0  0  0  0  0  0  0  0  0  0  0  0
   37.3000   22.9810   39.0410 C   0  0  0  0  0  0  0  0  0  0  0  0
   37.7390   22.3110   37.9160 C   0  0  0  0  0  0  0  0  0  0  0  0
   39.0290   22.2980   37.5740 N   0  0  0  0  0  0  0  0  0  0  0  0
   39.9810   22.9240   38.2880 C   0  0  0  0  0  0  0  0  0  0  0  0
   40.9710   22.8160   37.8780 H   0  0  0  0  0  0  0  0  0  0  0  0
   39.5850   23.5870   39.3950 N   0  0  0  0  0  0  0  0  0  0  0  0
   38.2910   23.6160   39.7600 C   0  0  0  0  0  0  0  0  0  0  0  0
   36.7220   21.6400   37.1470 N   0  0  0  0  0  0  0  0  0  0  0  0
   36.7380   22.1530   36.2440 H   0  0  0  0  0  0  0  0  0  0  0  0
   36.2110   20.8430   37.5960 H   0  0  0  0  0  0  0  0  0  0  0  0
   37.8510   28.1890   43.4740 C   0  0  0  0  0  0  0  0  0  0  0  0
   37.1010   28.4280   44.4540 O   0  0  0  0  0  0  0  0  0  0  0  0
   39.4020   30.0410   42.7350 C   0  0  0  0  0  0  0  0  0  0  0  0
   38.1610   29.3900   42.6830 C   0  0  0  0  0  0  0  0  0  0  0  0
   37.1970   29.9010   41.8530 C   0  0  0  0  0  0  0  0  0  0  0  0
   37.3550   31.0250   41.0520 C   0  0  0  0  0  0  0  0  0  0  0  0
   36.5550   31.6740   40.1910 N   0  0  0  0  0  0  0  0  0  0  0  0
   37.2260   32.7190   39.6840 C   0  0  0  0  0  0  0  0  0  0  0  0
   38.4960   32.7260   40.2490 C   0  0  0  0  0  0  0  0  0  0  0  0
   38.5870   31.6540   41.1170 C   0  0  0  0  0  0  0  0  0  0  0  0
   39.5770   31.1770   41.9330 C   0  0  0  0  0  0  0  0  0  0  0  0
   40.1540   29.6450   43.3800 H   0  0  0  0  0  0  0  0  0  0  0  0
   36.1920   29.4560   41.7470 H   0  0  0  0  0  0  0  0  0  0  0  0
   35.5700   31.4350   39.9340 H   0  0  0  0  0  0  0  0  0  0  0  0
   36.9430   33.4780   38.9710 H   0  0  0  0  0  0  0  0  0  0  0  0
   39.3200   33.3960   40.0990 H   0  0  0  0  0  0  0  0  0  0  0  0
   40.5350   31.6660   41.9830 H   0  0  0  0  0  0  0  0  0  0  0  0
  1 23  1  0  0  0  0
  1  2  1  0  0  0  0
  2  7  1  0  0  0  0
  3  2  2  0  0  0  0
  3  8  1  0  0  0  0
  4  3  1  0  0  0  0
  5  6  1  0  0  0  0
  5  4  2  0  0  0  0
  6  1  2  0  0  0  0
  9  5  1  0  0  0  0
 10  9  1  0  0  0  0
 10 11  1  0  0  0  0
 12 10  2  0  0  0  0
 13 12  1  0  0  0  0
 13 19  1  0  0  0  0
 14 13  2  0  0  0  0
 15 14  1  0  0  0  0
 15 16  2  0  0  0  0
 16 18  1  0  0  0  0
 17 16  1  0  0  0  0
 18 19  2  0  0  0  0
 19  9  1  0  0  0  0
 20 22  1  0  0  0  0
 20 14  1  0  0  0  0
 21 20  1  0  0  0  0
 23 24  2  0  0  0  0
 25 34  1  0  0  0  0
 26 25  1  0  0  0  0
 26 23  1  0  0  0  0
 27 26  2  0  0  0  0
 28 32  2  0  0  0  0
 28 27  1  0  0  0  0
 29 28  1  0  0  0  0
 30 29  1  0  0  0  0
 30 31  2  0  0  0  0
 31 32  1  0  0  0  0
 32 33  1  0  0  0  0
 33 39  1  0  0  0  0
 33 25  2  0  0  0  0
 35 27  1  0  0  0  0
 36 29  1  0  0  0  0
 37 30  1  0  0  0  0
 38 31  1  0  0  0  0
M  END
>  <minimizedAffinity>
-6.67076015

$$$$

 OpenBabel03242512393D

 39 43  0  0  0  0  0  0  0  0999 V2000
   39.1470   27.2110   42.8860 C   0  0  0  0  0  0  0  0  0  0  0  0
   37.9500   27.1240   43.6120 C   0  0  0  0  0  0  0  0  0  0  0  0
   37.2390   28.3470   43.7220 C   0  0  0  0  0  0  0  0  0  0  0  0
   37.7390   29.4740   43.1460 N   0  0  0  0  0  0  0  0  0  0  0  0
   38.8910   29.4680   42.4710 C   0  0  0  0  0  0  0  0  0  0  0  0
   39.6090   28.3380   42.3310 N   0  0  0  0  0  0  0  0  0  0  0  0
   37.5920   26.2160   44.0500 H   0  0  0  0  0  0  0  0  0  0  0  0
   36.3130   28.3050   44.2780 H   0  0  0  0  0  0  0  0  0  0  0  0
   39.4000   30.6560   41.8740 N   0  0  0  0  0  0  0  0  0  0  0  0
   40.6890   31.0890   42.0010 C   0  0  0  0  0  0  0  0  0  0  0  0
   41.4870   30.5920   42.5690 H   0  0  0  0  0  0  0  0  0  0  0  0
   40.7880   32.2310   41.3060 N   0  0  0  0  0  0  0  0  0  0  0  0
   39.6120   32.5330   40.7430 C   0  0  0  0  0  0  0  0  0  0  0  0
   39.0720   33.5220   39.9440 C   0  0  0  0  0  0  0  0  0  0  0  0
   37.7930   33.4870   39.5650 N   0  0  0  0  0  0  0  0  0  0  0  0
   36.9490   32.5030   39.9270 C   0  0  0  0  0  0  0  0  0  0  0  0
   35.9530   32.6240   39.5380 H   0  0  0  0  0  0  0  0  0  0  0  0
   37.4460   31.5230   40.7080 N   0  0  0  0  0  0  0  0  0  0  0  0
   38.7320   31.5350   41.1040 C   0  0  0  0  0  0  0  0  0  0  0  0
   39.9720   34.5770   39.5540 N   0  0  0  0  0  0  0  0  0  0  0  0
   40.0290   34.4630   38.5230 H   0  0  0  0  0  0  0  0  0  0  0  0
   40.3600   35.1970   40.3040 H   0  0  0  0  0  0  0  0  0  0  0  0
   39.8760   25.9810   42.7650 C   0  0  0  0  0  0  0  0  0  0  0  0
   40.7300   25.5320   43.5700 O   0  0  0  0  0  0  0  0  0  0  0  0
   40.2620   25.3070   40.3620 C   0  0  0  0  0  0  0  0  0  0  0  0
   39.6560   25.0980   41.6090 C   0  0  0  0  0  0  0  0  0  0  0  0
   38.8230   24.0200   41.7510 C   0  0  0  0  0  0  0  0  0  0  0  0
   38.5290   23.1070   40.7450 C   0  0  0  0  0  0  0  0  0  0  0  0
   37.7550   22.0110   40.6800 N   0  0  0  0  0  0  0  0  0  0  0  0
   37.8350   21.5020   39.4410 C   0  0  0  0  0  0  0  0  0  0  0  0
   38.6910   22.3100   38.7010 C   0  0  0  0  0  0  0  0  0  0  0  0
   39.1360   23.3300   39.5200 C   0  0  0  0  0  0  0  0  0  0  0  0
   39.9750   24.3960   39.3360 C   0  0  0  0  0  0  0  0  0  0  0  0
   40.9120   26.1470   40.2480 H   0  0  0  0  0  0  0  0  0  0  0  0
   38.3030   23.7770   42.6940 H   0  0  0  0  0  0  0  0  0  0  0  0
   37.1760   21.5960   41.4440 H   0  0  0  0  0  0  0  0  0  0  0  0
   37.3730   20.6390   38.9880 H   0  0  0  0  0  0  0  0  0  0  0  0
   39.0080   22.2340   37.6790 H   0  0  0  0  0  0  0  0  0  0  0  0
   40.4470   24.5690   38.3840 H   0  0  0  0  0  0  0  0  0  0  0  0
  1  2  1  0  0  0  0
  2  3  2  0  0  0  0
  2  7  1  0  0  0  0
  3  8  1  0  0  0  0
  4  3  1  0  0  0  0
  5  4  2  0  0  0  0
  6  5  1  0  0  0  0
  6  1  2  0  0  0  0
  9 10  1  0  0  0  0
  9  5  1  0  0  0  0
 10 11  1  0  0  0  0
 12 10  2  0  0  0  0
 13 19  1  0  0  0  0
 13 12  1  0  0  0  0
 14 13  2  0  0  0  0
 15 16  2  0  0  0  0
 15 14  1  0  0  0  0
 16 18  1  0  0  0  0
 17 16  1  0  0  0  0
 18 19  2  0  0  0  0
 19  9  1  0  0  0  0
 20 14  1  0  0  0  0
 20 22  1  0  0  0  0
 21 20  1  0  0  0  0
 23  1  1  0  0  0  0
 23 24  2  0  0  0  0
 25 26  1  0  0  0  0
 26 27  2  0  0  0  0
 26 23  1  0  0  0  0
 27 35  1  0  0  0  0
 28 27  1  0  0  0  0
 29 28  1  0  0  0  0
 29 36  1  0  0  0  0
 30 29  1  0  0  0  0
 31 30  2  0  0  0  0
 31 32  1  0  0  0  0
 32 28  2  0  0  0  0
 33 32  1  0  0  0  0
 33 25  2  0  0  0  0
 34 25  1  0  0  0  0
 37 30  1  0  0  0  0
 38 31  1  0  0  0  0
 39 33  1  0  0  0  0
M  END
>  <minimizedAffinity>
-6.53350639

$$$$

 OpenBabel03242512393D

 39 43  0  0  0  0  0  0  0  0999 V2000
   37.9750   29.5070   41.2130 C   0  0  0  0  0  0  0  0  0  0  0  0
   38.3300   29.6100   42.5660 C   0  0  0  0  0  0  0  0  0  0  0  0
   39.4840   30.3980   42.8130 C   0  0  0  0  0  0  0  0  0  0  0  0
   40.1440   30.9750   41.7730 N   0  0  0  0  0  0  0  0  0  0  0  0
   39.7370   30.8240   40.5100 C   0  0  0  0  0  0  0  0  0  0  0  0
   38.6480   30.0900   40.2130 N   0  0  0  0  0  0  0  0  0  0  0  0
   37.7820   29.1390   43.3560 H   0  0  0  0  0  0  0  0  0  0  0  0
   39.7770   30.4910   43.8490 H   0  0  0  0  0  0  0  0  0  0  0  0
   40.4390   31.4350   39.4330 N   0  0  0  0  0  0  0  0  0  0  0  0
   40.8030   30.7880   38.2870 C   0  0  0  0  0  0  0  0  0  0  0  0
   40.6090   29.7340   38.0480 H   0  0  0  0  0  0  0  0  0  0  0  0
   41.4400   31.6820   37.5180 N   0  0  0  0  0  0  0  0  0  0  0  0
   41.4890   32.8700   38.1330 C   0  0  0  0  0  0  0  0  0  0  0  0
   41.9790   34.1380   37.8940 C   0  0  0  0  0  0  0  0  0  0  0  0
   41.8330   35.1180   38.7890 N   0  0  0  0  0  0  0  0  0  0  0  0
   41.2100   34.9460   39.9680 C   0  0  0  0  0  0  0  0  0  0  0  0
   41.1780   35.8350   40.5740 H   0  0  0  0  0  0  0  0  0  0  0  0
   40.7220   33.7170   40.2320 N   0  0  0  0  0  0  0  0  0  0  0  0
   40.8550   32.7130   39.3480 C   0  0  0  0  0  0  0  0  0  0  0  0
   42.6460   34.3280   36.6320 N   0  0  0  0  0  0  0  0  0  0  0  0
   42.0310   35.0100   36.1450 H   0  0  0  0  0  0  0  0  0  0  0  0
   43.5340   33.7990   36.4590 H   0  0  0  0  0  0  0  0  0  0  0  0
   36.8090   28.7150   40.9480 C   0  0  0  0  0  0  0  0  0  0  0  0
   36.1080   28.1050   41.7940 O   0  0  0  0  0  0  0  0  0  0  0  0
   35.4070   29.4390   38.9760 C   0  0  0  0  0  0  0  0  0  0  0  0
   36.3170   28.5540   39.5710 C   0  0  0  0  0  0  0  0  0  0  0  0
   36.7660   27.4930   38.8300 C   0  0  0  0  0  0  0  0  0  0  0  0
   36.3860   27.2220   37.5210 C   0  0  0  0  0  0  0  0  0  0  0  0
   36.7010   26.2580   36.6410 N   0  0  0  0  0  0  0  0  0  0  0  0
   36.0310   26.4800   35.5010 C   0  0  0  0  0  0  0  0  0  0  0  0
   35.2670   27.6290   35.6720 C   0  0  0  0  0  0  0  0  0  0  0  0
   35.4860   28.1070   36.9500 C   0  0  0  0  0  0  0  0  0  0  0  0
   35.0130   29.1790   37.6560 C   0  0  0  0  0  0  0  0  0  0  0  0
   35.0550   30.2670   39.5510 H   0  0  0  0  0  0  0  0  0  0  0  0
   37.4830   26.7460   39.2150 H   0  0  0  0  0  0  0  0  0  0  0  0
   37.3530   25.4540   36.7850 H   0  0  0  0  0  0  0  0  0  0  0  0
   36.0060   25.9450   34.5650 H   0  0  0  0  0  0  0  0  0  0  0  0
   34.6010   28.1290   34.9950 H   0  0  0  0  0  0  0  0  0  0  0  0
   34.3130   29.8670   37.2120 H   0  0  0  0  0  0  0  0  0  0  0  0
  1  2  1  0  0  0  0
  2  3  2  0  0  0  0
  2  7  1  0  0  0  0
  3  8  1  0  0  0  0
  4  3  1  0  0  0  0
  5  4  2  0  0  0  0
  6  5  1  0  0  0  0
  6  1  2  0  0  0  0
  9  5  1  0  0  0  0
 10  9  1  0  0  0  0
 11 10  1  0  0  0  0
 12 13  1  0  0  0  0
 12 10  2  0  0  0  0
 13 19  1  0  0  0  0
 14 13  2  0  0  0  0
 14 15  1  0  0  0  0
 15 16  2  0  0  0  0
 16 18  1  0  0  0  0
 16 17  1  0  0  0  0
 19  9  1  0  0  0  0
 19 18  2  0  0  0  0
 20 14  1  0  0  0  0
 21 20  1  0  0  0  0
 22 20  1  0  0  0  0
 23  1  1  0  0  0  0
 23 24  2  0  0  0  0
 25 34  1  0  0  0  0
 25 26  1  0  0  0  0
 26 23  1  0  0  0  0
 27 35  1  0  0  0  0
 27 26  2  0  0  0  0
 28 27  1  0  0  0  0
 29 36  1  0  0  0  0
 29 28  1  0  0  0  0
 30 31  2  0  0  0  0
 30 29  1  0  0  0  0
 31 32  1  0  0  0  0
 32 28  2  0  0  0  0
 32 33  1  0  0  0  0
 33 25  2  0  0  0  0
 37 30  1  0  0  0  0
 38 31  1  0  0  0  0
 39 33  1  0  0  0  0
M  END
>  <minimizedAffinity>
-6.48062563

$$$$

 OpenBabel03242512393D

 39 43  0  0  0  0  0  0  0  0999 V2000
   37.1110   25.2380   39.8700 C   0  0  0  0  0  0  0  0  0  0  0  0
   36.4680   24.7710   38.7130 C   0  0  0  0  0  0  0  0  0  0  0  0
   35.8360   25.7830   37.9440 C   0  0  0  0  0  0  0  0  0  0  0  0
   35.8880   27.0780   38.3560 N   0  0  0  0  0  0  0  0  0  0  0  0
   36.5230   27.4370   39.4740 C   0  0  0  0  0  0  0  0  0  0  0  0
   37.1430   26.5230   40.2450 N   0  0  0  0  0  0  0  0  0  0  0  0
   36.4510   23.7410   38.4250 H   0  0  0  0  0  0  0  0  0  0  0  0
   35.3340   25.4460   37.0470 H   0  0  0  0  0  0  0  0  0  0  0  0
   36.5690   28.7970   39.8920 N   0  0  0  0  0  0  0  0  0  0  0  0
   36.2940   29.2220   41.1590 C   0  0  0  0  0  0  0  0  0  0  0  0
   36.0060   28.5870   42.0080 H   0  0  0  0  0  0  0  0  0  0  0  0
   36.4400   30.5540   41.1660 N   0  0  0  0  0  0  0  0  0  0  0  0
   36.7990   30.9860   39.9510 C   0  0  0  0  0  0  0  0  0  0  0  0
   37.0920   32.1800   39.3230 C   0  0  0  0  0  0  0  0  0  0  0  0
   37.4260   32.2220   38.0320 N   0  0  0  0  0  0  0  0  0  0  0  0
   37.5010   31.1230   37.2590 C   0  0  0  0  0  0  0  0  0  0  0  0
   37.7830   31.3290   36.2410 H   0  0  0  0  0  0  0  0  0  0  0  0
   37.2190   29.9400   37.8430 N   0  0  0  0  0  0  0  0  0  0  0  0
   36.8800   29.8710   39.1430 C   0  0  0  0  0  0  0  0  0  0  0  0
   37.0140   33.3590   40.1460 N   0  0  0  0  0  0  0  0  0  0  0  0
   37.9970   33.6960   40.1620 H   0  0  0  0  0  0  0  0  0  0  0  0
   36.0790   33.6290   40.5350 H   0  0  0  0  0  0  0  0  0  0  0  0
   37.7560   24.2270   40.6560 C   0  0  0  0  0  0  0  0  0  0  0  0
   37.4320   23.0160   40.7340 O   0  0  0  0  0  0  0  0  0  0  0  0
   38.8570   24.7220   42.8750 C   0  0  0  0  0  0  0  0  0  0  0  0
   38.9250   24.5640   41.4840 C   0  0  0  0  0  0  0  0  0  0  0  0
   40.1400   24.7300   40.8730 C   0  0  0  0  0  0  0  0  0  0  0  0
   41.3220   25.0480   41.5310 C   0  0  0  0  0  0  0  0  0  0  0  0
   42.5870   25.2520   41.1270 N   0  0  0  0  0  0  0  0  0  0  0  0
   43.3400   25.5370   42.2000 C   0  0  0  0  0  0  0  0  0  0  0  0
   42.5170   25.5100   43.3190 C   0  0  0  0  0  0  0  0  0  0  0  0
   41.2350   25.2000   42.9050 C   0  0  0  0  0  0  0  0  0  0  0  0
   40.0410   25.0420   43.5540 C   0  0  0  0  0  0  0  0  0  0  0  0
   37.9120   24.5920   43.3540 H   0  0  0  0  0  0  0  0  0  0  0  0
   40.2890   24.6260   39.7840 H   0  0  0  0  0  0  0  0  0  0  0  0
   42.9580   25.2060   40.1510 H   0  0  0  0  0  0  0  0  0  0  0  0
   44.3900   25.7610   42.3020 H   0  0  0  0  0  0  0  0  0  0  0  0
   42.7430   25.6830   44.3540 H   0  0  0  0  0  0  0  0  0  0  0  0
   39.9730   25.1600   44.6230 H   0  0  0  0  0  0  0  0  0  0  0  0
  1  6  1  0  0  0  0
  1 23  1  0  0  0  0
  2  1  2  0  0  0  0
  3  4  2  0  0  0  0
  3  2  1  0  0  0  0
  4  5  1  0  0  0  0
  5  9  1  0  0  0  0
  5  6  2  0  0  0  0
  7  2  1  0  0  0  0
  8  3  1  0  0  0  0
  9 10  1  0  0  0  0
 10 12  2  0  0  0  0
 10 11  1  0  0  0  0
 13 12  1  0  0  0  0
 14 13  1  0  0  0  0
 14 20  1  0  0  0  0
 15 14  2  0  0  0  0
 16 18  2  0  0  0  0
 16 15  1  0  0  0  0
 17 16  1  0  0  0  0
 18 19  1  0  0  0  0
 19  9  1  0  0  0  0
 19 13  2  0  0  0  0
 20 21  1  0  0  0  0
 20 22  1  0  0  0  0
 23 24  2  0  0  0  0
 23 26  1  0  0  0  0
 25 34  1  0  0  0  0
 25 33  1  0  0  0  0
 26 25  2  0  0  0  0
 27 26  1  0  0  0  0
 27 28  2  0  0  0  0
 28 32  1  0  0  0  0
 29 28  1  0  0  0  0
 29 30  1  0  0  0  0
 30 37  1  0  0  0  0
 30 31  2  0  0  0  0
 31 38  1  0  0  0  0
 32 31  1  0  0  0  0
 32 33  2  0  0  0  0
 33 39  1  0  0  0  0
 35 27  1  0  0  0  0
 36 29  1  0  0  0  0
M  END
>  <minimizedAffinity>
-6.44292307

$$$$
