
 OpenBabel03252504473D

 32 34  0  0  0  0  0  0  0  0999 V2000
   45.7010   31.2650   49.4200 O   0  0  0  0  0  0  0  0  0  0  0  0
   46.4240   31.6340   48.1290 P   0  0  1  0  0  0  0  0  0  0  0  0
   46.4480   30.2210   47.1910 O   0  0  0  0  0  0  0  0  0  0  0  0
   47.3230   29.7550   47.2670 H   0  0  0  0  0  0  0  0  0  0  0  0
   45.5370   32.8800   47.4160 O   0  0  0  0  0  0  0  0  0  0  0  0
   45.4050   34.8950   44.4260 C   0  0  0  0  0  0  0  0  0  0  0  0
   46.3800   34.2710   43.6260 C   0  0  0  0  0  0  0  0  0  0  0  0
   47.0460   33.1610   44.1770 C   0  0  0  0  0  0  0  0  0  0  0  0
   46.7090   32.7670   45.4310 N   0  0  0  0  0  0  0  0  0  0  0  0
   45.7650   33.4070   46.1480 C   0  0  0  0  0  0  0  0  0  0  0  0
   45.1110   34.4740   45.6450 N   0  0  0  0  0  0  0  0  0  0  0  0
   46.6240   34.6100   42.6300 H   0  0  0  0  0  0  0  0  0  0  0  0
   47.8020   32.6540   43.5910 H   0  0  0  0  0  0  0  0  0  0  0  0
   44.7010   36.0830   43.8260 C   0  0  0  0  0  0  0  0  0  0  0  0
   43.6580   36.1660   44.2040 H   0  0  0  0  0  0  0  0  0  0  0  0
   44.7380   36.0340   42.7120 H   0  0  0  0  0  0  0  0  0  0  0  0
   45.2780   36.9710   44.1620 H   0  0  0  0  0  0  0  0  0  0  0  0
   48.0130   32.1020   48.3950 O   0  0  0  0  0  0  0  0  0  0  0  0
   48.0290   29.6730   49.9050 H   0  0  0  0  0  0  0  0  0  0  0  0
   48.8340   30.2960   50.0280 N   0  0  0  0  0  0  0  0  0  0  0  0
   48.8060   31.4290   49.3110 C   0  0  0  0  0  0  0  0  0  0  0  0
   49.9240   32.1270   49.5860 N   0  0  0  0  0  0  0  0  0  0  0  0
   50.7010   31.4800   50.4760 C   0  0  0  0  0  0  0  0  0  0  0  0
   51.9000   31.6360   51.1360 C   0  0  0  0  0  0  0  0  0  0  0  0
   52.3690   30.7110   52.0040 N   0  0  0  0  0  0  0  0  0  0  0  0
   51.6040   29.6140   52.1980 C   0  0  0  0  0  0  0  0  0  0  0  0
   52.0100   28.9020   52.8940 H   0  0  0  0  0  0  0  0  0  0  0  0
   50.4090   29.3950   51.5780 N   0  0  0  0  0  0  0  0  0  0  0  0
   49.9820   30.3400   50.7250 C   0  0  0  0  0  0  0  0  0  0  0  0
   52.6180   32.8330   50.8500 N   0  0  0  0  0  0  0  0  0  0  0  0
   53.1210   33.2900   50.0630 H   0  0  0  0  0  0  0  0  0  0  0  0
   52.6220   33.4140   51.7310 H   0  0  0  0  0  0  0  0  0  0  0  0
  2 18  1  0  0  0  0
  2  1  2  1  0  0  0
  3  4  1  0  0  0  0
  3  2  1  0  0  0  0
  5  2  1  0  0  0  0
  6 11  1  0  0  0  0
  7  8  1  0  0  0  0
  7  6  2  0  0  0  0
  8  9  2  0  0  0  0
  9 10  1  0  0  0  0
 10  5  1  0  0  0  0
 11 10  2  0  0  0  0
 12  7  1  0  0  0  0
 13  8  1  0  0  0  0
 14 17  1  0  0  0  0
 14 15  1  0  0  0  0
 14  6  1  0  0  0  0
 16 14  1  0  0  0  0
 18 21  1  0  0  0  0
 19 20  1  0  0  0  0
 20 29  1  0  0  0  0
 21 22  2  0  0  0  0
 21 20  1  0  0  0  0
 22 23  1  0  0  0  0
 23 29  2  0  0  0  0
 23 24  1  0  0  0  0
 24 25  2  0  0  0  0
 25 26  1  0  0  0  0
 26 27  1  0  0  0  0
 28 26  2  0  0  0  0
 29 28  1  0  0  0  0
 30 24  1  0  0  0  0
 30 32  1  0  0  0  0
 31 30  1  0  0  0  0
M  END
>  <minimizedAffinity>
-6.00571394

>  <minimizedRMSD>
1.19405484

$$$$
