
     RDKit          3D

 42 46  0  0  0  0  0  0  0  0999 V2000
   47.5338   32.8432   43.9100 C   0  0  0  0  0  0  0  0  0  0  0  0
   48.3729   33.3917   43.0190 C   0  0  0  0  0  0  0  0  0  0  0  0
   49.2377   32.4939   42.4181 C   0  0  0  0  0  0  0  0  0  0  0  0
   49.1680   31.1366   42.7824 N   0  0  0  0  0  0  0  0  0  0  0  0
   48.3124   30.6794   43.6734 C   0  0  0  0  0  0  0  0  0  0  0  0
   47.4331   31.5424   44.2921 N   0  0  0  0  0  0  0  0  0  0  0  0
   48.5218   34.7741   42.7348 C   0  0  0  0  0  0  0  0  0  0  0  0
   49.5196   35.3953   42.0506 C   0  0  0  0  0  0  0  0  0  0  0  0
   48.2742   35.2180   41.2256 C   0  0  0  0  0  0  0  0  0  0  0  0
   46.4510   33.5334   44.6240 C   0  0  0  0  0  0  0  0  0  0  0  0
   45.8823   33.8991   45.6228 O   0  0  0  0  0  0  0  0  0  0  0  0
   44.6835   31.6644   42.9203 Cl  0  0  0  0  0  0  0  0  0  0  0  0
   44.6502   33.4172   42.7525 C   0  0  0  0  0  0  0  0  0  0  0  0
   45.5169   34.1186   43.6174 C   0  0  0  0  0  0  0  0  0  0  0  0
   45.4151   35.4869   43.4129 C   0  0  0  0  0  0  0  0  0  0  0  0
   44.6490   36.1708   42.5515 C   0  0  0  0  0  0  0  0  0  0  0  0
   43.8390   35.4176   41.7491 C   0  0  0  0  0  0  0  0  0  0  0  0
   43.8276   34.0713   41.8356 C   0  0  0  0  0  0  0  0  0  0  0  0
   49.9788   32.7328   41.6805 H   0  0  0  0  0  0  0  0  0  0  0  0
   48.3756   29.6119   43.8534 H   0  0  0  0  0  0  0  0  0  0  0  0
   48.0595   35.4455   43.4827 H   0  0  0  0  0  0  0  0  0  0  0  0
   50.3849   34.7916   41.6631 H   0  0  0  0  0  0  0  0  0  0  0  0
   49.8520   36.4626   42.0920 H   0  0  0  0  0  0  0  0  0  0  0  0
   47.5592   36.0528   41.1197 H   0  0  0  0  0  0  0  0  0  0  0  0
   48.2134   34.3515   40.5361 H   0  0  0  0  0  0  0  0  0  0  0  0
   46.0067   36.1914   44.0365 H   0  0  0  0  0  0  0  0  0  0  0  0
   44.6003   37.2312   42.4222 H   0  0  0  0  0  0  0  0  0  0  0  0
   43.1569   35.7950   40.9992 H   0  0  0  0  0  0  0  0  0  0  0  0
   43.0201   33.1602   41.0491 N   0  0  0  0  0  0  0  0  0  0  0  0
   43.3176   31.8526   40.8114 C   0  0  0  0  0  0  0  0  0  0  0  0
   44.1738   31.2938   41.1557 H   0  0  0  0  0  0  0  0  0  0  0  0
   42.3404   31.3103   40.0395 N   0  0  0  0  0  0  0  0  0  0  0  0
   41.4222   32.2797   39.7890 C   0  0  0  0  0  0  0  0  0  0  0  0
   40.2559   32.2089   39.0528 C   0  0  0  0  0  0  0  0  0  0  0  0
   39.8570   30.9802   38.4144 N   0  0  0  0  0  0  0  0  0  0  0  0
   40.3788   31.1650   37.5499 H   0  0  0  0  0  0  0  0  0  0  0  0
   39.5220   33.3577   38.9727 N   0  0  0  0  0  0  0  0  0  0  0  0
   39.9693   34.4729   39.6043 C   0  0  0  0  0  0  0  0  0  0  0  0
   39.3418   35.3442   39.5000 H   0  0  0  0  0  0  0  0  0  0  0  0
   41.1101   34.5432   40.3247 N   0  0  0  0  0  0  0  0  0  0  0  0
   41.8628   33.4211   40.4249 C   0  0  0  0  0  0  0  0  0  0  0  0
   39.2740   30.6586   39.2430 H   0  0  0  0  0  0  0  0  0  0  0  0
  1  6  1  0
  1 10  1  0
  2  1  2  0
  3  4  2  0
  3  2  1  0
  4  5  1  0
  5  6  2  0
  7  2  1  0
  8  7  1  0
  9  8  1  0
  9  7  1  0
 10 11  2  0
 13 12  1  0
 13 14  2  0
 14 10  1  0
 15 14  1  0
 16 15  2  0
 17 18  2  0
 17 16  1  0
 18 13  1  0
  3 19  1  0
  5 20  1  0
  7 21  1  0
  8 22  1  0
  8 23  1  0
  9 24  1  0
  9 25  1  0
 15 26  1  0
 16 27  1  0
 17 28  1  0
 29 30  1  0
 30 31  1  0
 30 32  2  0
 32 33  1  0
 33 34  2  0
 34 35  1  0
 35 36  1  0
 34 37  1  0
 37 38  2  0
 38 39  1  0
 38 40  1  0
 40 41  2  0
 41 29  1  0
 41 33  1  0
 35 42  1  0
 18 29  1  0
M  ISO  8  19  14  20  14  21  13  22  13  23  13  24  13  25  13  26  14
M  ISO  5  27  14  28  14  31  15  36   5  39  16
M  END
>  <DihAtoms>  (1) 
16,17,28,29

>  <DihDeg>  (1) 
-98.55745600930906

$$$$
