
 OpenBabel03242520193D

 40 43  0  0  0  0  0  0  0  0999 V2000
   40.1600   35.6910   39.7890 C   0  0  0  0  0  0  0  0  0  0  0  0
   40.4200   35.8790   40.8310 H   0  0  0  0  0  0  0  0  0  0  0  0
   39.4690   36.5380   39.5050 H   0  0  0  0  0  0  0  0  0  0  0  0
   39.4200   33.5490   40.6960 C   0  0  0  0  0  0  0  0  0  0  0  0
   39.7820   33.8090   41.8770 O   0  0  0  0  0  0  0  0  0  0  0  0
   39.5190   34.4120   39.5760 N   0  0  0  0  0  0  0  0  0  0  0  0
   39.1560   34.1610   38.6350 H   0  0  0  0  0  0  0  0  0  0  0  0
   38.9120   31.9820   38.3220 H   0  0  0  0  0  0  0  0  0  0  0  0
   38.6480   31.5830   39.2470 N   0  0  0  0  0  0  0  0  0  0  0  0
   38.8330   32.2140   40.4440 C   0  0  0  0  0  0  0  0  0  0  0  0
   38.3550   31.3450   41.3800 N   0  0  0  0  0  0  0  0  0  0  0  0
   37.8950   30.2290   40.8170 C   0  0  0  0  0  0  0  0  0  0  0  0
   37.3310   29.1080   41.4150 C   0  0  0  0  0  0  0  0  0  0  0  0
   36.9570   28.1260   40.5500 N   0  0  0  0  0  0  0  0  0  0  0  0
   37.1320   28.2550   39.2260 C   0  0  0  0  0  0  0  0  0  0  0  0
   36.8130   27.4350   38.5910 H   0  0  0  0  0  0  0  0  0  0  0  0
   37.6840   29.3610   38.6800 N   0  0  0  0  0  0  0  0  0  0  0  0
   38.0820   30.3810   39.4590 C   0  0  0  0  0  0  0  0  0  0  0  0
   37.1840   29.0560   42.8290 N   0  0  0  0  0  0  0  0  0  0  0  0
   38.1740   28.9900   43.1600 H   0  0  0  0  0  0  0  0  0  0  0  0
   36.3460   29.0750   43.4700 H   0  0  0  0  0  0  0  0  0  0  0  0
   41.4140   35.8600   38.9590 C   0  0  0  0  0  0  0  0  0  0  0  0
   41.7060   36.9280   38.8910 H   0  0  0  0  0  0  0  0  0  0  0  0
   41.2550   35.5180   37.9110 H   0  0  0  0  0  0  0  0  0  0  0  0
   44.0550   34.5740   41.3430 C   0  0  0  0  0  0  0  0  0  0  0  0
   42.9970   35.3490   40.8150 C   0  0  0  0  0  0  0  0  0  0  0  0
   42.5300   35.0760   39.5410 C   0  0  0  0  0  0  0  0  0  0  0  0
   43.1410   34.0480   38.8590 N   0  0  0  0  0  0  0  0  0  0  0  0
   44.1560   33.3330   39.4100 C   0  0  0  0  0  0  0  0  0  0  0  0
   44.6070   33.5920   40.6350 N   0  0  0  0  0  0  0  0  0  0  0  0
   42.5860   36.1300   41.4260 H   0  0  0  0  0  0  0  0  0  0  0  0
   44.6120   32.5290   38.8360 H   0  0  0  0  0  0  0  0  0  0  0  0
   44.5530   34.8820   42.7050 C   0  0  0  0  0  0  0  0  0  0  0  0
   46.0640   35.3130   42.6920 C   0  0  0  0  0  0  0  0  0  0  0  0
   44.9590   36.1660   43.1460 C   0  0  0  0  0  0  0  0  0  0  0  0
   44.3820   34.0500   43.4520 H   0  0  0  0  0  0  0  0  0  0  0  0
   46.7350   34.7830   43.3790 H   0  0  0  0  0  0  0  0  0  0  0  0
   46.4950   35.5720   41.7130 H   0  0  0  0  0  0  0  0  0  0  0  0
   44.9300   36.4040   44.2400 H   0  0  0  0  0  0  0  0  0  0  0  0
   44.7060   37.0970   42.5600 H   0  0  0  0  0  0  0  0  0  0  0  0
  1  2  1  0  0  0  0
  3  1  1  0  0  0  0
  4  5  2  0  0  0  0
  6  1  1  0  0  0  0
  6  4  1  0  0  0  0
  7  6  1  0  0  0  0
  8  9  1  0  0  0  0
  9 18  1  0  0  0  0
  9 10  1  0  0  0  0
 10  4  1  0  0  0  0
 10 11  2  0  0  0  0
 12 11  1  0  0  0  0
 12 13  1  0  0  0  0
 13 19  1  0  0  0  0
 14 13  2  0  0  0  0
 15 14  1  0  0  0  0
 16 15  1  0  0  0  0
 17 15  2  0  0  0  0
 17 18  1  0  0  0  0
 18 12  2  0  0  0  0
 19 20  1  0  0  0  0
 19 21  1  0  0  0  0
 22 27  1  0  0  0  0
 22  1  1  0  0  0  0
 23 22  1  0  0  0  0
 24 22  1  0  0  0  0
 25 33  1  0  0  0  0
 26 25  1  0  0  0  0
 26 31  1  0  0  0  0
 27 26  2  0  0  0  0
 28 29  2  0  0  0  0
 28 27  1  0  0  0  0
 29 30  1  0  0  0  0
 30 25  2  0  0  0  0
 32 29  1  0  0  0  0
 33 35  1  0  0  0  0
 33 36  1  0  0  0  0
 34 33  1  0  0  0  0
 34 35  1  0  0  0  0
 34 37  1  0  0  0  0
 35 39  1  0  0  0  0
 38 34  1  0  0  0  0
 40 35  1  0  0  0  0
M  END
>  <minimizedAffinity>
-5.59431744

>  <minimizedRMSD>
0.947929442

$$$$
