
 OpenBabel03252504233D

 37 41  0  0  0  0  0  0  0  0999 V2000
   46.3240   33.1550   40.0780 C   0  0  0  0  0  0  0  0  0  0  0  0
   47.6800   32.8600   39.8910 C   0  0  0  0  0  0  0  0  0  0  0  0
   48.5180   32.8250   41.0240 C   0  0  0  0  0  0  0  0  0  0  0  0
   47.9460   33.0820   42.2340 N   0  0  0  0  0  0  0  0  0  0  0  0
   46.6260   33.3630   42.3680 C   0  0  0  0  0  0  0  0  0  0  0  0
   45.8240   33.3980   41.2930 N   0  0  0  0  0  0  0  0  0  0  0  0
   46.1220   33.6170   43.6730 N   0  0  0  0  0  0  0  0  0  0  0  0
   45.2750   34.6170   44.0180 C   0  0  0  0  0  0  0  0  0  0  0  0
   45.0330   34.5170   45.3570 N   0  0  0  0  0  0  0  0  0  0  0  0
   45.7260   33.4730   45.7990 C   0  0  0  0  0  0  0  0  0  0  0  0
   45.8810   32.8880   47.0260 C   0  0  0  0  0  0  0  0  0  0  0  0
   46.6530   31.8200   47.2190 N   0  0  0  0  0  0  0  0  0  0  0  0
   47.3370   31.2410   46.2070 C   0  0  0  0  0  0  0  0  0  0  0  0
   47.1900   31.8070   45.0030 N   0  0  0  0  0  0  0  0  0  0  0  0
   46.4270   32.8810   44.7610 C   0  0  0  0  0  0  0  0  0  0  0  0
   48.1440   32.6560   38.9370 H   0  0  0  0  0  0  0  0  0  0  0  0
   49.5650   32.6050   40.9360 H   0  0  0  0  0  0  0  0  0  0  0  0
   44.8450   35.3800   43.3700 H   0  0  0  0  0  0  0  0  0  0  0  0
   47.9690   30.3710   46.3510 H   0  0  0  0  0  0  0  0  0  0  0  0
   45.2410   33.3640   48.1890 N   0  0  0  0  0  0  0  0  0  0  0  0
   45.7810   34.1390   48.6670 H   0  0  0  0  0  0  0  0  0  0  0  0
   44.3480   33.0640   48.6210 H   0  0  0  0  0  0  0  0  0  0  0  0
   45.3600   33.1700   38.5540 S   0  0  0  0  0  0  0  0  0  0  0  0
   42.5790   33.0610   37.1620 H   0  0  0  0  0  0  0  0  0  0  0  0
   42.5680   33.5080   38.0970 N   0  0  0  0  0  0  0  0  0  0  0  0
   43.6740   33.6460   38.8490 C   0  0  0  0  0  0  0  0  0  0  0  0
   43.2730   34.2670   39.9860 N   0  0  0  0  0  0  0  0  0  0  0  0
   41.9670   34.4970   39.9230 C   0  0  0  0  0  0  0  0  0  0  0  0
   41.0400   35.0810   40.7590 C   0  0  0  0  0  0  0  0  0  0  0  0
   39.7660   35.1500   40.3700 N   0  0  0  0  0  0  0  0  0  0  0  0
   39.3370   34.6740   39.1930 C   0  0  0  0  0  0  0  0  0  0  0  0
   38.2730   34.7830   38.9770 H   0  0  0  0  0  0  0  0  0  0  0  0
   40.2120   34.0920   38.3370 N   0  0  0  0  0  0  0  0  0  0  0  0
   41.4970   34.0180   38.7190 C   0  0  0  0  0  0  0  0  0  0  0  0
   41.4200   35.6000   42.0080 N   0  0  0  0  0  0  0  0  0  0  0  0
   42.3380   35.3820   42.4630 H   0  0  0  0  0  0  0  0  0  0  0  0
   40.7970   36.2400   42.5560 H   0  0  0  0  0  0  0  0  0  0  0  0
  1  6  1  0  0  0  0
  2  1  2  0  0  0  0
  2  3  1  0  0  0  0
  3  4  2  0  0  0  0
  4  5  1  0  0  0  0
  5  7  1  0  0  0  0
  6  5  2  0  0  0  0
  7  8  1  0  0  0  0
  7 15  1  0  0  0  0
  8  9  2  0  0  0  0
  9 10  1  0  0  0  0
 10 11  1  0  0  0  0
 11 12  2  0  0  0  0
 11 20  1  0  0  0  0
 13 19  1  0  0  0  0
 13 12  1  0  0  0  0
 14 13  2  0  0  0  0
 15 14  1  0  0  0  0
 15 10  2  0  0  0  0
 16  2  1  0  0  0  0
 17  3  1  0  0  0  0
 18  8  1  0  0  0  0
 20 22  1  0  0  0  0
 20 21  1  0  0  0  0
 23 26  1  0  0  0  0
 23  1  1  0  0  0  0
 24 25  1  0  0  0  0
 25 34  1  0  0  0  0
 25 26  1  0  0  0  0
 26 27  2  0  0  0  0
 28 27  1  0  0  0  0
 28 29  1  0  0  0  0
 29 35  1  0  0  0  0
 30 29  2  0  0  0  0
 31 30  1  0  0  0  0
 32 31  1  0  0  0  0
 33 34  1  0  0  0  0
 33 31  2  0  0  0  0
 34 28  2  0  0  0  0
 35 36  1  0  0  0  0
 35 37  1  0  0  0  0
M  END
>  <minimizedAffinity>
-7.05160046

>  <minimizedRMSD>
1.66493833

$$$$
