
 OpenBabel03252504233D

 37 41  0  0  0  0  0  0  0  0999 V2000
   46.5890   33.2710   39.9030 C   0  0  0  0  0  0  0  0  0  0  0  0
   47.9650   33.0160   39.8730 C   0  0  0  0  0  0  0  0  0  0  0  0
   48.6830   33.0900   41.0830 C   0  0  0  0  0  0  0  0  0  0  0  0
   47.9830   33.4060   42.2100 N   0  0  0  0  0  0  0  0  0  0  0  0
   46.6490   33.6450   42.1910 C   0  0  0  0  0  0  0  0  0  0  0  0
   45.9600   33.5760   41.0420 N   0  0  0  0  0  0  0  0  0  0  0  0
   46.0060   33.9670   43.4180 N   0  0  0  0  0  0  0  0  0  0  0  0
   45.0980   34.9550   43.6050 C   0  0  0  0  0  0  0  0  0  0  0  0
   44.7240   34.9370   44.9170 N   0  0  0  0  0  0  0  0  0  0  0  0
   45.4010   33.9520   45.4980 C   0  0  0  0  0  0  0  0  0  0  0  0
   45.4480   33.4580   46.7730 C   0  0  0  0  0  0  0  0  0  0  0  0
   46.2290   32.4340   47.1180 N   0  0  0  0  0  0  0  0  0  0  0  0
   47.0300   31.8150   46.2230 C   0  0  0  0  0  0  0  0  0  0  0  0
   46.9890   32.2930   44.9730 N   0  0  0  0  0  0  0  0  0  0  0  0
   46.2210   33.3180   44.5800 C   0  0  0  0  0  0  0  0  0  0  0  0
   48.5300   32.7660   38.9870 H   0  0  0  0  0  0  0  0  0  0  0  0
   49.7400   32.9050   41.1160 H   0  0  0  0  0  0  0  0  0  0  0  0
   44.7130   35.6560   42.8650 H   0  0  0  0  0  0  0  0  0  0  0  0
   47.6710   30.9810   46.4900 H   0  0  0  0  0  0  0  0  0  0  0  0
   44.6780   33.9850   47.8300 N   0  0  0  0  0  0  0  0  0  0  0  0
   45.1420   34.8120   48.3040 H   0  0  0  0  0  0  0  0  0  0  0  0
   43.7550   33.6820   48.1910 H   0  0  0  0  0  0  0  0  0  0  0  0
   45.7850   33.1470   38.2940 S   0  0  0  0  0  0  0  0  0  0  0  0
   43.6790   35.2700   37.4340 H   0  0  0  0  0  0  0  0  0  0  0  0
   43.2830   34.4670   37.9550 N   0  0  0  0  0  0  0  0  0  0  0  0
   44.0380   33.4500   38.4070 C   0  0  0  0  0  0  0  0  0  0  0  0
   43.1820   32.6020   39.0290 N   0  0  0  0  0  0  0  0  0  0  0  0
   41.9480   33.0890   38.9550 C   0  0  0  0  0  0  0  0  0  0  0  0
   40.7100   32.6740   39.3930 C   0  0  0  0  0  0  0  0  0  0  0  0
   39.6440   33.4320   39.1380 N   0  0  0  0  0  0  0  0  0  0  0  0
   39.7160   34.5910   38.4700 C   0  0  0  0  0  0  0  0  0  0  0  0
   38.7790   35.1300   38.3170 H   0  0  0  0  0  0  0  0  0  0  0  0
   40.9130   35.0410   38.0180 N   0  0  0  0  0  0  0  0  0  0  0  0
   41.9930   34.2850   38.2700 C   0  0  0  0  0  0  0  0  0  0  0  0
   40.5620   31.4690   40.1000 N   0  0  0  0  0  0  0  0  0  0  0  0
   41.3030   30.7320   40.1380 H   0  0  0  0  0  0  0  0  0  0  0  0
   39.6890   31.2430   40.6340 H   0  0  0  0  0  0  0  0  0  0  0  0
  1  6  1  0  0  0  0
  2  1  2  0  0  0  0
  2  3  1  0  0  0  0
  3 17  1  0  0  0  0
  3  4  2  0  0  0  0
  5  4  1  0  0  0  0
  5  7  1  0  0  0  0
  6  5  2  0  0  0  0
  7  8  1  0  0  0  0
  7 15  1  0  0  0  0
  8  9  2  0  0  0  0
  9 10  1  0  0  0  0
 10 11  1  0  0  0  0
 11 12  2  0  0  0  0
 11 20  1  0  0  0  0
 13 19  1  0  0  0  0
 13 12  1  0  0  0  0
 14 13  2  0  0  0  0
 15 14  1  0  0  0  0
 15 10  2  0  0  0  0
 16  2  1  0  0  0  0
 18  8  1  0  0  0  0
 20 22  1  0  0  0  0
 20 21  1  0  0  0  0
 23 26  1  0  0  0  0
 23  1  1  0  0  0  0
 24 25  1  0  0  0  0
 25 34  1  0  0  0  0
 25 26  1  0  0  0  0
 26 27  2  0  0  0  0
 28 27  1  0  0  0  0
 28 29  1  0  0  0  0
 29 35  1  0  0  0  0
 30 29  2  0  0  0  0
 31 30  1  0  0  0  0
 32 31  1  0  0  0  0
 33 34  1  0  0  0  0
 33 31  2  0  0  0  0
 34 28  2  0  0  0  0
 35 36  1  0  0  0  0
 35 37  1  0  0  0  0
M  END
>  <minimizedAffinity>
-6.5756917

>  <minimizedRMSD>
1.19944489

$$$$
