
 OpenBabel03252504233D

 37 41  0  0  0  0  0  0  0  0999 V2000
   46.5490   32.9700   40.7310 C   0  0  0  0  0  0  0  0  0  0  0  0
   47.9000   32.6660   40.5240 C   0  0  0  0  0  0  0  0  0  0  0  0
   48.7400   32.5610   41.6510 C   0  0  0  0  0  0  0  0  0  0  0  0
   48.1750   32.7640   42.8750 N   0  0  0  0  0  0  0  0  0  0  0  0
   46.8600   33.0560   43.0280 C   0  0  0  0  0  0  0  0  0  0  0  0
   46.0550   33.1570   41.9590 N   0  0  0  0  0  0  0  0  0  0  0  0
   46.3630   33.2490   44.3460 N   0  0  0  0  0  0  0  0  0  0  0  0
   45.5310   34.2430   44.7450 C   0  0  0  0  0  0  0  0  0  0  0  0
   45.2920   34.0770   46.0780 N   0  0  0  0  0  0  0  0  0  0  0  0
   45.9710   33.0020   46.4620 C   0  0  0  0  0  0  0  0  0  0  0  0
   46.1210   32.3520   47.6570 C   0  0  0  0  0  0  0  0  0  0  0  0
   46.8770   31.2640   47.7930 N   0  0  0  0  0  0  0  0  0  0  0  0
   47.5500   30.7280   46.7490 C   0  0  0  0  0  0  0  0  0  0  0  0
   47.4080   31.3580   45.5760 N   0  0  0  0  0  0  0  0  0  0  0  0
   46.6600   32.4530   45.3930 C   0  0  0  0  0  0  0  0  0  0  0  0
   48.3580   32.5050   39.5590 H   0  0  0  0  0  0  0  0  0  0  0  0
   49.7830   32.3310   41.5480 H   0  0  0  0  0  0  0  0  0  0  0  0
   45.1100   35.0440   44.1380 H   0  0  0  0  0  0  0  0  0  0  0  0
   48.1700   29.8430   46.8460 H   0  0  0  0  0  0  0  0  0  0  0  0
   45.4900   32.7760   48.8450 N   0  0  0  0  0  0  0  0  0  0  0  0
   46.0430   33.5180   49.3610 H   0  0  0  0  0  0  0  0  0  0  0  0
   44.5950   32.4670   49.2640 H   0  0  0  0  0  0  0  0  0  0  0  0
   45.5810   33.0780   39.2130 S   0  0  0  0  0  0  0  0  0  0  0  0
   43.5160   33.0150   41.5400 H   0  0  0  0  0  0  0  0  0  0  0  0
   43.1470   33.4110   40.6570 N   0  0  0  0  0  0  0  0  0  0  0  0
   43.8920   33.5200   39.5420 C   0  0  0  0  0  0  0  0  0  0  0  0
   43.0800   34.0760   38.6090 N   0  0  0  0  0  0  0  0  0  0  0  0
   41.8840   34.2960   39.1410 C   0  0  0  0  0  0  0  0  0  0  0  0
   40.6970   34.8240   38.6810 C   0  0  0  0  0  0  0  0  0  0  0  0
   39.6570   34.9000   39.5120 N   0  0  0  0  0  0  0  0  0  0  0  0
   39.7080   34.4840   40.7840 C   0  0  0  0  0  0  0  0  0  0  0  0
   38.7960   34.5940   41.3740 H   0  0  0  0  0  0  0  0  0  0  0  0
   40.8530   33.9580   41.2810 N   0  0  0  0  0  0  0  0  0  0  0  0
   41.9080   33.8770   40.4540 C   0  0  0  0  0  0  0  0  0  0  0  0
   40.5740   35.2800   37.3580 N   0  0  0  0  0  0  0  0  0  0  0  0
   41.3950   35.4560   36.7340 H   0  0  0  0  0  0  0  0  0  0  0  0
   39.6410   35.4710   36.9220 H   0  0  0  0  0  0  0  0  0  0  0  0
  1  6  1  0  0  0  0
  2  1  2  0  0  0  0
  2  3  1  0  0  0  0
  3  4  2  0  0  0  0
  4  5  1  0  0  0  0
  5  7  1  0  0  0  0
  6  5  2  0  0  0  0
  7  8  1  0  0  0  0
  7 15  1  0  0  0  0
  8  9  2  0  0  0  0
  9 10  1  0  0  0  0
 10 11  1  0  0  0  0
 11 12  2  0  0  0  0
 11 20  1  0  0  0  0
 13 19  1  0  0  0  0
 13 12  1  0  0  0  0
 14 13  2  0  0  0  0
 15 14  1  0  0  0  0
 15 10  2  0  0  0  0
 16  2  1  0  0  0  0
 17  3  1  0  0  0  0
 18  8  1  0  0  0  0
 20 22  1  0  0  0  0
 20 21  1  0  0  0  0
 23 26  1  0  0  0  0
 23  1  1  0  0  0  0
 25 24  1  0  0  0  0
 26 25  1  0  0  0  0
 27 28  1  0  0  0  0
 27 26  2  0  0  0  0
 28 34  1  0  0  0  0
 29 28  2  0  0  0  0
 29 30  1  0  0  0  0
 30 31  2  0  0  0  0
 31 33  1  0  0  0  0
 31 32  1  0  0  0  0
 34 25  1  0  0  0  0
 34 33  2  0  0  0  0
 35 29  1  0  0  0  0
 36 35  1  0  0  0  0
 37 35  1  0  0  0  0
M  END
>  <minimizedAffinity>
-6.6127634

>  <minimizedRMSD>
2.13218331

$$$$
