
 OpenBabel03252505473D

 34 37  0  0  1  0  0  0  0  0999 V2000
   46.0520   32.3160   44.6040 C   0  0  0  0  0  0  0  0  0  0  0  0
   47.0010   31.4820   43.9370 C   0  0  0  0  0  0  0  0  0  0  0  0
   47.8140   30.6130   44.6530 C   0  0  0  0  0  0  0  0  0  0  0  0
   47.6530   30.6060   46.0130 N   0  0  0  0  0  0  0  0  0  0  0  0
   46.7340   31.4200   46.6160 C   0  0  0  0  0  0  0  0  0  0  0  0
   45.9590   32.2490   45.9240 N   0  0  0  0  0  0  0  0  0  0  0  0
   47.0810   31.5340   42.8580 H   0  0  0  0  0  0  0  0  0  0  0  0
   48.5280   29.9790   44.1890 H   0  0  0  0  0  0  0  0  0  0  0  0
   45.2390   33.2250   43.7860 C   0  0  1  0  0  0  0  0  0  0  0  0
   45.8390   34.6770   43.7930 C   0  0  1  0  0  0  0  0  0  0  0  0
   45.6420   33.8180   42.5670 C   0  0  0  0  0  0  0  0  0  0  0  0
   44.1520   33.2110   44.0820 H   0  0  0  0  0  0  0  0  0  0  0  0
   46.8310   34.8210   44.2090 H   0  0  0  0  0  0  0  0  0  0  0  0
   46.6270   33.5310   42.0940 H   0  0  0  0  0  0  0  0  0  0  0  0
   44.9300   34.1510   41.8090 H   0  0  0  0  0  0  0  0  0  0  0  0
   44.8080   35.7640   43.9500 C   0  0  0  0  0  0  0  0  0  0  0  0
   45.2620   37.0020   43.6030 F   0  0  0  0  0  0  0  0  0  0  0  0
   43.7110   35.4630   43.1130 F   0  0  0  0  0  0  0  0  0  0  0  0
   44.2790   35.7630   45.2310 F   0  0  0  0  0  0  0  0  0  0  0  0
   46.6810   31.3110   47.9970 O   0  0  0  0  0  0  0  0  0  0  0  0
   47.6890   29.2460   49.4760 H   0  0  0  0  0  0  0  0  0  0  0  0
   48.1670   30.1880   49.3800 N   0  0  0  0  0  0  0  0  0  0  0  0
   47.8640   31.3270   48.7210 C   0  0  0  0  0  0  0  0  0  0  0  0
   48.8640   32.2120   48.9710 N   0  0  0  0  0  0  0  0  0  0  0  0
   49.7750   31.6250   49.7750 C   0  0  0  0  0  0  0  0  0  0  0  0
   50.9540   32.1370   50.2910 C   0  0  0  0  0  0  0  0  0  0  0  0
   51.7260   31.3660   51.0870 N   0  0  0  0  0  0  0  0  0  0  0  0
   51.2860   30.0990   51.3410 C   0  0  0  0  0  0  0  0  0  0  0  0
   51.8430   29.4020   51.9730 H   0  0  0  0  0  0  0  0  0  0  0  0
   50.1400   29.6040   50.8390 N   0  0  0  0  0  0  0  0  0  0  0  0
   49.3340   30.3380   50.0380 C   0  0  0  0  0  0  0  0  0  0  0  0
   51.3690   33.4720   49.9940 N   0  0  0  0  0  0  0  0  0  0  0  0
   52.0800   33.8910   49.3290 H   0  0  0  0  0  0  0  0  0  0  0  0
   50.7570   34.0300   50.6450 H   0  0  0  0  0  0  0  0  0  0  0  0
  1  6  1  0  0  0  0
  2  1  2  0  0  0  0
  2  3  1  0  0  0  0
  3  4  2  0  0  0  0
  4  5  1  0  0  0  0
  5 20  1  0  0  0  0
  6  5  2  0  0  0  0
  7  2  1  0  0  0  0
  8  3  1  0  0  0  0
  9 10  1  0  0  0  0
  9 12  1  1  0  0  0
  9  1  1  0  0  0  0
 10 16  1  0  0  0  0
 10 13  1  1  0  0  0
 11  9  1  0  0  0  0
 11 10  1  0  0  0  0
 14 11  1  0  0  0  0
 15 11  1  0  0  0  0
 16 19  1  0  0  0  0
 17 16  1  0  0  0  0
 18 16  1  0  0  0  0
 20 23  1  0  0  0  0
 22 21  1  0  0  0  0
 22 31  1  0  0  0  0
 23 24  2  0  0  0  0
 23 22  1  0  0  0  0
 24 25  1  0  0  0  0
 25 31  2  0  0  0  0
 25 26  1  0  0  0  0
 26 27  2  0  0  0  0
 27 28  1  0  0  0  0
 28 29  1  0  0  0  0
 30 28  2  0  0  0  0
 31 30  1  0  0  0  0
 32 26  1  0  0  0  0
 32 34  1  0  0  0  0
 33 32  1  0  0  0  0
M  END
>  <minimizedAffinity>
-5.96407557

>  <minimizedRMSD>
1.72141159

$$$$
