
     RDKit          3D

 34 37  0  0  0  0  0  0  0  0999 V2000
   45.2260   33.5621   43.7085 C   0  0  1  0  0  0  0  0  0  0  0  0
   45.8542   34.9854   43.4841 C   0  0  1  0  0  0  0  0  0  0  0  0
   45.8154   33.8741   42.4619 C   0  0  0  0  0  0  0  0  0  0  0  0
   45.8914   32.8643   44.8166 C   0  0  0  0  0  0  0  0  0  0  0  0
   46.7216   31.7461   44.5032 C   0  0  0  0  0  0  0  0  0  0  0  0
   47.3927   31.0533   45.5024 C   0  0  0  0  0  0  0  0  0  0  0  0
   47.2130   31.5007   46.7826 N   0  0  0  0  0  0  0  0  0  0  0  0
   46.4095   32.5772   47.0454 C   0  0  0  0  0  0  0  0  0  0  0  0
   45.7697   33.2349   46.0844 N   0  0  0  0  0  0  0  0  0  0  0  0
   46.3216   32.9217   48.3850 O   0  0  0  0  0  0  0  0  0  0  0  0
   44.8372   36.0713   43.2436 C   0  0  0  0  0  0  0  0  0  0  0  0
   45.3680   37.3270   43.2443 F   0  0  0  0  0  0  0  0  0  0  0  0
   44.2469   35.8577   41.9794 F   0  0  0  0  0  0  0  0  0  0  0  0
   43.7848   35.9693   44.1407 F   0  0  0  0  0  0  0  0  0  0  0  0
   44.1081   33.6055   43.8392 H   0  0  0  0  0  0  0  0  0  0  0  0
   46.7775   35.2259   43.9982 H   0  0  0  0  0  0  0  0  0  0  0  0
   46.8511   33.4975   42.2127 H   0  0  0  0  0  0  0  0  0  0  0  0
   45.2292   34.0252   41.5525 H   0  0  0  0  0  0  0  0  0  0  0  0
   46.8243   31.4399   43.4687 H   0  0  0  0  0  0  0  0  0  0  0  0
   48.0172   30.2175   45.3027 H   0  0  0  0  0  0  0  0  0  0  0  0
   46.4676   30.1948   48.4912 H   0  0  0  0  0  0  0  0  0  0  0  0
   46.9567   30.8368   49.1796 N   0  0  0  0  0  0  0  0  0  0  0  0
   47.0260   32.1792   49.3197 C   0  0  0  0  0  0  0  0  0  0  0  0
   47.8122   32.4277   50.3998 N   0  0  0  0  0  0  0  0  0  0  0  0
   48.2235   31.2526   50.9203 C   0  0  0  0  0  0  0  0  0  0  0  0
   49.0341   31.0113   52.0170 C   0  0  0  0  0  0  0  0  0  0  0  0
   49.5719   32.0880   52.7866 N   0  0  0  0  0  0  0  0  0  0  0  0
   50.5207   32.5559   52.8356 H   0  0  0  0  0  0  0  0  0  0  0  0
   49.3228   29.7386   52.3672 N   0  0  0  0  0  0  0  0  0  0  0  0
   48.7856   28.7450   51.6012 C   0  0  0  0  0  0  0  0  0  0  0  0
   48.9635   27.6866   51.8075 H   0  0  0  0  0  0  0  0  0  0  0  0
   47.9986   28.9825   50.5365 N   0  0  0  0  0  0  0  0  0  0  0  0
   47.6815   30.2392   50.1471 C   0  0  0  0  0  0  0  0  0  0  0  0
   48.7385   32.3630   53.3706 H   0  0  0  0  0  0  0  0  0  0  0  0
  1  4  1  0
  2  1  1  0
  3  2  1  0
  3  1  1  0
  4  9  1  0
  5  4  2  0
  5  6  1  0
  6  7  2  0
  7  8  1  0
  8 10  1  0
  9  8  2  0
 11  2  1  0
 11 14  1  0
 12 11  1  0
 13 11  1  0
  1 15  1  6
  2 16  1  1
  3 17  1  0
  3 18  1  0
  5 19  1  0
  6 20  1  0
 21 22  1  0
 22 23  1  0
 23 24  2  0
 24 25  1  0
 25 26  2  0
 26 27  1  0
 27 28  1  0
 26 29  1  0
 29 30  2  0
 30 31  1  0
 30 32  1  0
 32 33  2  0
 33 22  1  0
 33 25  1  0
 27 34  1  0
 10 23  1  0
M  ISO  8  15  13  16  13  17  13  18  13  19  14  20  14  21   9  28   5
M  ISO  1  31  16
M  END
>  <DihAtoms>  (1) 
7,9,22,21

>  <DihDeg>  (1) 
-179.997428205783

$$$$
