
 OpenBabel03242523183D

 42 46  0  0  0  0  0  0  0  0999 V2000
   43.7040   31.8960   41.2410 Cl  0  0  0  0  0  0  0  0  0  0  0  0
   44.1100   33.4990   41.8480 C   0  0  0  0  0  0  0  0  0  0  0  0
   45.3440   33.5880   42.5280 C   0  0  0  0  0  0  0  0  0  0  0  0
   45.5710   34.8830   42.9700 C   0  0  0  0  0  0  0  0  0  0  0  0
   44.8130   35.9810   42.8330 C   0  0  0  0  0  0  0  0  0  0  0  0
   43.6350   35.8110   42.1630 C   0  0  0  0  0  0  0  0  0  0  0  0
   43.2780   34.6040   41.6760 C   0  0  0  0  0  0  0  0  0  0  0  0
   46.4850   35.1220   43.5540 H   0  0  0  0  0  0  0  0  0  0  0  0
   45.0250   36.9670   43.1890 H   0  0  0  0  0  0  0  0  0  0  0  0
   42.9020   36.5790   41.9590 H   0  0  0  0  0  0  0  0  0  0  0  0
   42.0620   34.2890   40.9510 N   0  0  0  0  0  0  0  0  0  0  0  0
   41.0760   33.4600   41.3940 C   0  0  0  0  0  0  0  0  0  0  0  0
   41.0350   32.9180   42.3250 H   0  0  0  0  0  0  0  0  0  0  0  0
   40.0950   33.4020   40.4570 N   0  0  0  0  0  0  0  0  0  0  0  0
   40.4620   34.1970   39.4190 C   0  0  0  0  0  0  0  0  0  0  0  0
   39.7930   34.4590   38.2400 C   0  0  0  0  0  0  0  0  0  0  0  0
   40.4140   35.3090   37.3690 N   0  0  0  0  0  0  0  0  0  0  0  0
   41.6190   35.8340   37.7050 C   0  0  0  0  0  0  0  0  0  0  0  0
   42.0530   36.4980   36.9730 H   0  0  0  0  0  0  0  0  0  0  0  0
   42.2740   35.5790   38.8590 N   0  0  0  0  0  0  0  0  0  0  0  0
   41.6870   34.7390   39.7450 C   0  0  0  0  0  0  0  0  0  0  0  0
   38.5130   33.8550   37.9650 N   0  0  0  0  0  0  0  0  0  0  0  0
   38.9110   33.0110   37.5400 H   0  0  0  0  0  0  0  0  0  0  0  0
   37.9650   34.6680   38.3770 H   0  0  0  0  0  0  0  0  0  0  0  0
   46.3240   32.4850   42.7610 C   0  0  0  0  0  0  0  0  0  0  0  0
   45.8930   32.0900   43.8160 O   0  0  0  0  0  0  0  0  0  0  0  0
   47.2660   32.4520   41.6330 C   0  0  0  0  0  0  0  0  0  0  0  0
   48.2980   33.2850   41.4370 C   0  0  0  0  0  0  0  0  0  0  0  0
   48.9670   33.0960   40.2400 C   0  0  0  0  0  0  0  0  0  0  0  0
   48.5260   32.0840   39.3690 N   0  0  0  0  0  0  0  0  0  0  0  0
   47.4990   31.3030   39.6410 C   0  0  0  0  0  0  0  0  0  0  0  0
   46.8060   31.4620   40.8220 N   0  0  0  0  0  0  0  0  0  0  0  0
   49.8130   33.6580   39.8980 H   0  0  0  0  0  0  0  0  0  0  0  0
   47.2770   30.5670   38.8770 H   0  0  0  0  0  0  0  0  0  0  0  0
   48.8140   34.2280   42.3630 C   0  0  0  0  0  0  0  0  0  0  0  0
   50.0600   34.7720   42.4120 C   0  0  0  0  0  0  0  0  0  0  0  0
   49.0410   35.7060   41.8160 C   0  0  0  0  0  0  0  0  0  0  0  0
   48.3460   34.1860   43.3650 H   0  0  0  0  0  0  0  0  0  0  0  0
   50.8360   34.4480   41.6680 H   0  0  0  0  0  0  0  0  0  0  0  0
   50.6010   35.2320   43.2770 H   0  0  0  0  0  0  0  0  0  0  0  0
   48.5760   36.4880   42.4430 H   0  0  0  0  0  0  0  0  0  0  0  0
   48.9570   35.7650   40.7120 H   0  0  0  0  0  0  0  0  0  0  0  0
  1  2  1  0  0  0  0
  2  3  1  0  0  0  0
  3 25  1  0  0  0  0
  3  4  2  0  0  0  0
  4  8  1  0  0  0  0
  5  4  1  0  0  0  0
  5  9  1  0  0  0  0
  6  5  2  0  0  0  0
  7  2  2  0  0  0  0
  7  6  1  0  0  0  0
 10  6  1  0  0  0  0
 11 12  1  0  0  0  0
 11  7  1  0  0  0  0
 12 13  1  0  0  0  0
 14 12  2  0  0  0  0
 15 21  1  0  0  0  0
 15 14  1  0  0  0  0
 16 15  2  0  0  0  0
 17 18  2  0  0  0  0
 17 16  1  0  0  0  0
 18 20  1  0  0  0  0
 19 18  1  0  0  0  0
 20 21  2  0  0  0  0
 21 11  1  0  0  0  0
 22 16  1  0  0  0  0
 22 24  1  0  0  0  0
 23 22  1  0  0  0  0
 25 26  2  0  0  0  0
 27 25  1  0  0  0  0
 28 27  1  0  0  0  0
 28 35  1  0  0  0  0
 29 28  2  0  0  0  0
 30 31  2  0  0  0  0
 30 29  1  0  0  0  0
 31 32  1  0  0  0  0
 32 27  2  0  0  0  0
 33 29  1  0  0  0  0
 34 31  1  0  0  0  0
 35 36  1  0  0  0  0
 35 38  1  0  0  0  0
 36 40  1  0  0  0  0
 37 35  1  0  0  0  0
 37 36  1  0  0  0  0
 37 41  1  0  0  0  0
 39 36  1  0  0  0  0
 42 37  1  0  0  0  0
M  END
>  <minimizedAffinity>
-6.12718296

>  <minimizedRMSD>
2.15464449

$$$$
