
 OpenBabel03252502563D

 42 45  0  0  0  0  0  0  0  0999 V2000
   45.6340   29.9930   44.7360 Br  0  0  0  0  0  0  0  0  0  0  0  0
   45.6730   30.5980   46.5770 C   0  0  0  0  0  0  0  0  0  0  0  0
   46.3490   31.7560   46.7940 C   0  0  0  0  0  0  0  0  0  0  0  0
   46.3600   32.1680   48.1330 C   0  0  0  0  0  0  0  0  0  0  0  0
   45.7450   31.4710   49.1440 C   0  0  0  0  0  0  0  0  0  0  0  0
   45.0830   30.3110   48.8380 C   0  0  0  0  0  0  0  0  0  0  0  0
   45.0370   29.8520   47.5370 C   0  0  0  0  0  0  0  0  0  0  0  0
   46.8670   33.0720   48.4210 H   0  0  0  0  0  0  0  0  0  0  0  0
   45.7790   31.8260   50.1630 H   0  0  0  0  0  0  0  0  0  0  0  0
   44.5820   29.7190   49.5880 H   0  0  0  0  0  0  0  0  0  0  0  0
   47.0440   32.5910   45.8110 C   0  0  0  0  0  0  0  0  0  0  0  0
   47.9890   32.9480   46.2350 H   0  0  0  0  0  0  0  0  0  0  0  0
   47.3380   31.9040   44.9700 H   0  0  0  0  0  0  0  0  0  0  0  0
   44.5340   35.3120   45.3960 C   0  0  0  0  0  0  0  0  0  0  0  0
   44.7480   35.7070   44.0760 C   0  0  0  0  0  0  0  0  0  0  0  0
   45.7430   35.0420   43.3490 C   0  0  0  0  0  0  0  0  0  0  0  0
   46.4400   34.0600   43.9520 N   0  0  0  0  0  0  0  0  0  0  0  0
   46.2200   33.6830   45.2440 C   0  0  0  0  0  0  0  0  0  0  0  0
   45.2560   34.3360   45.9330 N   0  0  0  0  0  0  0  0  0  0  0  0
   43.7610   35.8350   45.9490 H   0  0  0  0  0  0  0  0  0  0  0  0
   44.1880   36.4960   43.5900 H   0  0  0  0  0  0  0  0  0  0  0  0
   45.9860   35.2670   42.3340 H   0  0  0  0  0  0  0  0  0  0  0  0
   44.3620   28.6720   47.2390 O   0  0  0  0  0  0  0  0  0  0  0  0
   44.2170   26.1170   46.8000 O   0  0  0  0  0  0  0  0  0  0  0  0
   44.9020   27.1370   47.6900 P   0  0  2  0  0  0  0  0  0  0  0  0
   44.4800   26.8990   49.3000 O   0  0  0  0  0  0  0  0  0  0  0  0
   45.2170   27.1980   49.8740 H   0  0  0  0  0  0  0  0  0  0  0  0
   46.5730   26.9800   47.4670 O   0  0  0  0  0  0  0  0  0  0  0  0
   49.2180   27.2900   48.4540 H   0  0  0  0  0  0  0  0  0  0  0  0
   48.6690   26.4300   48.6700 N   0  0  0  0  0  0  0  0  0  0  0  0
   47.4120   26.2210   48.2340 C   0  0  0  0  0  0  0  0  0  0  0  0
   47.0070   25.0190   48.6930 N   0  0  0  0  0  0  0  0  0  0  0  0
   48.0390   24.5130   49.4090 C   0  0  0  0  0  0  0  0  0  0  0  0
   48.0920   23.2870   50.0800 C   0  0  0  0  0  0  0  0  0  0  0  0
   49.2380   23.0020   50.7290 N   0  0  0  0  0  0  0  0  0  0  0  0
   50.2660   23.8820   50.7120 C   0  0  0  0  0  0  0  0  0  0  0  0
   51.1230   23.5330   51.2690 H   0  0  0  0  0  0  0  0  0  0  0  0
   50.2170   25.0720   50.0610 N   0  0  0  0  0  0  0  0  0  0  0  0
   49.1030   25.3920   49.4070 C   0  0  0  0  0  0  0  0  0  0  0  0
   46.9600   22.4110   50.0510 N   0  0  0  0  0  0  0  0  0  0  0  0
   46.8580   21.4820   49.5730 H   0  0  0  0  0  0  0  0  0  0  0  0
   46.0780   22.6710   50.5580 H   0  0  0  0  0  0  0  0  0  0  0  0
  1  2  1  0  0  0  0
  2  3  2  0  0  0  0
  2  7  1  0  0  0  0
  3  4  1  0  0  0  0
  4  8  1  0  0  0  0
  4  5  2  0  0  0  0
  5  9  1  0  0  0  0
  6  5  1  0  0  0  0
  6 10  1  0  0  0  0
  7  6  2  0  0  0  0
 11 12  1  0  0  0  0
 11  3  1  0  0  0  0
 13 11  1  0  0  0  0
 14 19  1  0  0  0  0
 14 20  1  0  0  0  0
 15 14  2  0  0  0  0
 16 17  2  0  0  0  0
 16 15  1  0  0  0  0
 17 18  1  0  0  0  0
 18 11  1  0  0  0  0
 18 19  2  0  0  0  0
 21 15  1  0  0  0  0
 22 16  1  0  0  0  0
 23  7  1  0  0  0  0
 23 25  1  0  0  0  0
 25 24  2  6  0  0  0
 25 26  1  0  0  0  0
 26 27  1  0  0  0  0
 28 25  1  0  0  0  0
 28 31  1  0  0  0  0
 29 30  1  0  0  0  0
 30 39  1  0  0  0  0
 31 30  1  0  0  0  0
 31 32  2  0  0  0  0
 32 33  1  0  0  0  0
 33 34  1  0  0  0  0
 34 35  2  0  0  0  0
 36 35  1  0  0  0  0
 36 37  1  0  0  0  0
 38 36  2  0  0  0  0
 39 33  2  0  0  0  0
 39 38  1  0  0  0  0
 40 34  1  0  0  0  0
 40 42  1  0  0  0  0
 41 40  1  0  0  0  0
M  END
>  <minimizedAffinity>
-6.16917753

>  <minimizedRMSD>
0.436088711

$$$$
