
     RDKit          3D

 42 46  0  0  0  0  0  0  0  0999 V2000
   46.0218   32.7019   46.6993 C   0  0  0  0  0  0  0  0  0  0  0  0
   45.5366   32.9424   48.0095 C   0  0  0  0  0  0  0  0  0  0  0  0
   45.7606   32.0968   49.0646 C   0  0  0  0  0  0  0  0  0  0  0  0
   46.4747   30.9635   48.8982 C   0  0  0  0  0  0  0  0  0  0  0  0
   46.9702   30.6791   47.6418 C   0  0  0  0  0  0  0  0  0  0  0  0
   47.6928   29.5241   47.5095 C   0  0  0  0  0  0  0  0  0  0  0  0
   48.2160   29.1819   46.2810 C   0  0  0  0  0  0  0  0  0  0  0  0
   47.9677   30.0551   45.2263 C   0  0  0  0  0  0  0  0  0  0  0  0
   47.2535   31.1694   45.4265 C   0  0  0  0  0  0  0  0  0  0  0  0
   46.7367   31.5325   46.5982 C   0  0  0  0  0  0  0  0  0  0  0  0
   44.4552   35.5107   45.0971 C   0  0  0  0  0  0  0  0  0  0  0  0
   45.1750   35.6129   43.8672 C   0  0  0  0  0  0  0  0  0  0  0  0
   46.2148   34.6860   43.5799 C   0  0  0  0  0  0  0  0  0  0  0  0
   46.4508   33.7529   44.5169 N   0  0  0  0  0  0  0  0  0  0  0  0
   45.8203   33.6409   45.6264 C   0  0  0  0  0  0  0  0  0  0  0  0
   44.8193   34.5344   45.9004 N   0  0  0  0  0  0  0  0  0  0  0  0
   44.7743   36.6742   43.0053 N   0  0  0  0  0  0  0  0  0  0  0  0
   47.1826   31.8023   44.2280 O   0  0  0  0  0  0  0  0  0  0  0  0
   44.9615   33.8370   48.1858 H   0  0  0  0  0  0  0  0  0  0  0  0
   45.3550   32.3543   50.0319 H   0  0  0  0  0  0  0  0  0  0  0  0
   46.6336   30.3236   49.7421 H   0  0  0  0  0  0  0  0  0  0  0  0
   47.8398   28.8852   48.4093 H   0  0  0  0  0  0  0  0  0  0  0  0
   48.7759   28.2273   46.3246 H   0  0  0  0  0  0  0  0  0  0  0  0
   48.4410   29.5293   44.4154 H   0  0  0  0  0  0  0  0  0  0  0  0
   43.6682   36.2226   45.2998 H   0  0  0  0  0  0  0  0  0  0  0  0
   46.7113   34.8208   42.6435 H   0  0  0  0  0  0  0  0  0  0  0  0
   44.7876   36.3234   42.0017 H   0  0  0  0  0  0  0  0  0  0  0  0
   44.5389   37.5896   43.4533 H   0  0  0  0  0  0  0  0  0  0  0  0
   47.3391   31.8162   41.1940 H   0  0  0  0  0  0  0  0  0  0  0  0
   48.0993   31.5203   41.8161 N   0  0  0  0  0  0  0  0  0  0  0  0
   47.9386   31.5350   43.1133 C   0  0  0  0  0  0  0  0  0  0  0  0
   49.1382   31.0115   43.5075 N   0  0  0  0  0  0  0  0  0  0  0  0
   49.9337   30.7193   42.4890 C   0  0  0  0  0  0  0  0  0  0  0  0
   51.2208   30.1827   42.3583 C   0  0  0  0  0  0  0  0  0  0  0  0
   51.9443   29.8276   43.5345 N   0  0  0  0  0  0  0  0  0  0  0  0
   52.2088   30.7018   44.0767 H   0  0  0  0  0  0  0  0  0  0  0  0
   51.7295   30.0220   41.1020 N   0  0  0  0  0  0  0  0  0  0  0  0
   51.0011   30.3756   40.0059 C   0  0  0  0  0  0  0  0  0  0  0  0
   51.4941   30.2093   39.0366 H   0  0  0  0  0  0  0  0  0  0  0  0
   49.7474   30.8994   40.1081 N   0  0  0  0  0  0  0  0  0  0  0  0
   49.2529   31.0549   41.3460 C   0  0  0  0  0  0  0  0  0  0  0  0
   52.2435   28.9107   43.9346 H   0  0  0  0  0  0  0  0  0  0  0  0
  1  2  2  0
  2  3  1  0
  4  3  2  0
  5  4  1  0
  6  5  2  0
  7  6  1  0
  8  9  1  0
  8  7  2  0
  9 10  2  0
 10  1  1  0
 10  5  1  0
 11 16  2  0
 12 11  1  0
 13 12  2  0
 13 14  1  0
 14 15  2  0
 15 16  1  0
 15  1  1  0
 17 12  1  0
 18  9  1  0
  2 19  1  0
  3 20  1  0
  4 21  1  0
  6 22  1  0
  7 23  1  0
  8 24  1  0
 11 25  1  0
 13 26  1  0
 17 27  1  0
 17 28  1  0
 29 30  1  0
 30 31  1  0
 31 32  2  0
 32 33  1  0
 33 34  2  0
 34 35  1  0
 35 36  1  0
 34 37  1  0
 37 38  2  0
 38 39  1  0
 38 40  1  0
 40 41  2  0
 41 30  1  0
 41 33  1  0
 35 42  1  0
 18 31  1  0
M  ISO  8  19  14  20  14  21  14  22  14  23  14  24  14  25  14  26  14
M  ISO  3  29   9  36   5  39  16
M  END
>  <DihAtoms>  (1) 
8,17,30,29

>  <DihDeg>  (1) 
-13.160515527981662

$$$$
