
 OpenBabel03242519413D

 34 36  0  0  0  0  0  0  0  0999 V2000
   48.1010   32.8060   42.3010 O   0  0  0  0  0  0  0  0  0  0  0  0
   47.1750   33.8100   41.5640 P   0  0  2  0  0  0  0  0  0  0  0  0
   45.5770   33.6260   42.1660 O   0  0  0  0  0  0  0  0  0  0  0  0
   44.3650   35.9810   44.6680 C   0  0  0  0  0  0  0  0  0  0  0  0
   44.6740   35.4080   43.4100 C   0  0  0  0  0  0  0  0  0  0  0  0
   45.2880   34.1510   43.4090 C   0  0  0  0  0  0  0  0  0  0  0  0
   45.5470   33.5580   44.5880 N   0  0  0  0  0  0  0  0  0  0  0  0
   45.2390   34.1300   45.7740 C   0  0  0  0  0  0  0  0  0  0  0  0
   44.6520   35.3340   45.8230 N   0  0  0  0  0  0  0  0  0  0  0  0
   43.8900   36.9560   44.6590 H   0  0  0  0  0  0  0  0  0  0  0  0
   44.4160   35.9830   42.5260 H   0  0  0  0  0  0  0  0  0  0  0  0
   45.4980   33.5540   46.6650 H   0  0  0  0  0  0  0  0  0  0  0  0
   47.1730   33.4570   39.9460 O   0  0  0  0  0  0  0  0  0  0  0  0
   46.1370   33.2510   39.0930 C   0  0  0  0  0  0  0  0  0  0  0  0
   46.4400   32.7810   37.8400 O   0  0  0  0  0  0  0  0  0  0  0  0
   44.1030   35.1290   39.8910 H   0  0  0  0  0  0  0  0  0  0  0  0
   43.7880   34.2590   39.3530 N   0  0  0  0  0  0  0  0  0  0  0  0
   44.6650   33.3090   38.9210 C   0  0  0  0  0  0  0  0  0  0  0  0
   43.8490   32.4650   38.3350 N   0  0  0  0  0  0  0  0  0  0  0  0
   42.5860   32.9050   38.4260 C   0  0  0  0  0  0  0  0  0  0  0  0
   41.5560   32.1790   37.8820 C   0  0  0  0  0  0  0  0  0  0  0  0
   40.3440   32.7760   38.0700 N   0  0  0  0  0  0  0  0  0  0  0  0
   40.1930   33.9430   38.7190 C   0  0  0  0  0  0  0  0  0  0  0  0
   39.2120   34.3900   38.8510 H   0  0  0  0  0  0  0  0  0  0  0  0
   41.2950   34.5780   39.2220 N   0  0  0  0  0  0  0  0  0  0  0  0
   42.5100   34.0920   39.0970 C   0  0  0  0  0  0  0  0  0  0  0  0
   41.6120   30.9440   37.1830 N   0  0  0  0  0  0  0  0  0  0  0  0
   41.5490   31.1000   36.1570 H   0  0  0  0  0  0  0  0  0  0  0  0
   41.7040   30.0200   37.6900 H   0  0  0  0  0  0  0  0  0  0  0  0
   47.7100   35.3320   41.9430 O   0  0  0  0  0  0  0  0  0  0  0  0
   48.9450   35.6150   41.3690 C   0  0  0  0  0  0  0  0  0  0  0  0
   49.4180   36.8650   41.7290 F   0  0  0  0  0  0  0  0  0  0  0  0
   49.8350   34.6230   41.6350 F   0  0  0  0  0  0  0  0  0  0  0  0
   48.7280   35.6610   39.9950 F   0  0  0  0  0  0  0  0  0  0  0  0
  2 30  1  0  0  0  0
  2  3  1  0  0  0  0
  2  1  2  1  0  0  0
  3  6  1  0  0  0  0
  4  9  1  0  0  0  0
  5  4  2  0  0  0  0
  6  5  1  0  0  0  0
  6  7  2  0  0  0  0
  7  8  1  0  0  0  0
  8  9  2  0  0  0  0
  8 12  1  0  0  0  0
 10  4  1  0  0  0  0
 11  5  1  0  0  0  0
 13  2  1  0  0  0  0
 14 13  1  0  0  0  0
 15 14  2  0  0  0  0
 17 16  1  0  0  0  0
 18 14  1  0  0  0  0
 18 17  1  0  0  0  0
 19 20  1  0  0  0  0
 19 18  2  0  0  0  0
 20 26  1  0  0  0  0
 21 22  1  0  0  0  0
 21 20  2  0  0  0  0
 22 23  2  0  0  0  0
 23 24  1  0  0  0  0
 23 25  1  0  0  0  0
 26 25  2  0  0  0  0
 26 17  1  0  0  0  0
 27 29  1  0  0  0  0
 27 21  1  0  0  0  0
 28 27  1  0  0  0  0
 31 33  1  0  0  0  0
 31 32  1  0  0  0  0
 31 30  1  0  0  0  0
 34 31  1  0  0  0  0
M  END
>  <minimizedAffinity>
-5.95628309

>  <minimizedRMSD>
3.61838746

$$$$
