
 OpenBabel03252503463D

 49 53  0  0  1  0  0  0  0  0999 V2000
   46.0020   35.5390   42.6810 C   0  0  0  0  0  0  0  0  0  0  0  0
   46.9960   35.4650   42.1980 H   0  0  0  0  0  0  0  0  0  0  0  0
   45.9020   36.6160   42.9550 H   0  0  0  0  0  0  0  0  0  0  0  0
   44.9790   35.1280   41.7090 C   0  0  0  0  0  0  0  0  0  0  0  0
   43.6700   35.5500   41.7120 C   0  0  0  0  0  0  0  0  0  0  0  0
   42.7490   35.1320   40.7840 C   0  0  0  0  0  0  0  0  0  0  0  0
   43.1470   34.2540   39.8090 C   0  0  0  0  0  0  0  0  0  0  0  0
   44.4690   33.8130   39.7860 C   0  0  0  0  0  0  0  0  0  0  0  0
   45.3960   34.2470   40.7370 C   0  0  0  0  0  0  0  0  0  0  0  0
   43.4250   36.2400   42.5070 H   0  0  0  0  0  0  0  0  0  0  0  0
   41.7420   35.5240   40.8720 H   0  0  0  0  0  0  0  0  0  0  0  0
   42.3800   33.9630   39.1100 H   0  0  0  0  0  0  0  0  0  0  0  0
   44.6200   33.1240   38.9530 H   0  0  0  0  0  0  0  0  0  0  0  0
   46.6460   33.6460   40.4450 N   0  0  0  0  0  0  0  0  0  0  0  0
   47.6980   34.1910   39.8040 C   0  0  0  0  0  0  0  0  0  0  0  0
   47.7930   35.1840   39.3900 H   0  0  0  0  0  0  0  0  0  0  0  0
   48.6900   33.3090   39.7220 N   0  0  0  0  0  0  0  0  0  0  0  0
   48.3000   32.1640   40.3120 C   0  0  0  0  0  0  0  0  0  0  0  0
   48.8570   30.9420   40.5370 C   0  0  0  0  0  0  0  0  0  0  0  0
   48.2010   29.9470   41.1820 N   0  0  0  0  0  0  0  0  0  0  0  0
   46.9320   30.1650   41.6260 C   0  0  0  0  0  0  0  0  0  0  0  0
   46.3460   29.4180   42.1490 H   0  0  0  0  0  0  0  0  0  0  0  0
   46.3680   31.3600   41.4150 N   0  0  0  0  0  0  0  0  0  0  0  0
   46.9950   32.3660   40.7780 C   0  0  0  0  0  0  0  0  0  0  0  0
   50.1830   30.7700   40.0500 N   0  0  0  0  0  0  0  0  0  0  0  0
   51.1010   30.3410   40.2830 H   0  0  0  0  0  0  0  0  0  0  0  0
   50.4640   31.1740   39.1390 H   0  0  0  0  0  0  0  0  0  0  0  0
   45.0290   34.8680   44.8590 C   0  0  0  0  0  0  0  0  0  0  0  0
   45.9650   34.6740   43.8480 C   0  0  0  0  0  0  0  0  0  0  0  0
   46.8600   33.6160   44.0070 C   0  0  0  0  0  0  0  0  0  0  0  0
   46.8140   32.8150   45.0980 N   0  0  0  0  0  0  0  0  0  0  0  0
   45.8890   33.0370   46.0580 C   0  0  0  0  0  0  0  0  0  0  0  0
   44.9950   34.0600   45.9480 N   0  0  0  0  0  0  0  0  0  0  0  0
   44.3240   35.6620   44.7890 H   0  0  0  0  0  0  0  0  0  0  0  0
   47.6300   33.3660   43.3300 H   0  0  0  0  0  0  0  0  0  0  0  0
   47.3160   31.8160   47.6880 C   0  0  2  0  0  0  0  0  0  0  0  0
   45.8700   32.1440   47.2180 C   0  0  1  0  0  0  0  0  0  0  0  0
   45.3880   32.6740   48.3660 O   0  0  0  0  0  0  0  0  0  0  0  0
   45.7540   31.8590   49.3970 C   0  0  0  0  0  0  0  0  0  0  0  0
   46.9310   31.0190   48.9420 C   0  0  2  0  0  0  0  0  0  0  0  0
   47.8350   31.1900   46.9440 H   0  0  0  0  0  0  0  0  0  0  0  0
   45.3600   31.1710   47.0050 H   0  0  0  0  0  0  0  0  0  0  0  0
   46.0560   32.4890   50.2590 H   0  0  0  0  0  0  0  0  0  0  0  0
   44.8770   31.2090   49.6570 H   0  0  0  0  0  0  0  0  0  0  0  0
   46.5640   30.0160   48.6750 H   0  0  0  0  0  0  0  0  0  0  0  0
   47.9400   32.9360   48.0990 O   0  0  0  0  0  0  0  0  0  0  0  0
   48.9330   32.7680   48.0550 H   0  0  0  0  0  0  0  0  0  0  0  0
   47.9410   30.9260   49.8510 O   0  0  0  0  0  0  0  0  0  0  0  0
   48.7410   31.4680   49.6260 H   0  0  0  0  0  0  0  0  0  0  0  0
  1  3  1  0  0  0  0
  1 29  1  0  0  0  0
  2  1  1  0  0  0  0
  4  5  1  0  0  0  0
  4  1  1  0  0  0  0
  5 10  1  0  0  0  0
  6 11  1  0  0  0  0
  6  5  2  0  0  0  0
  7  6  1  0  0  0  0
  8  7  2  0  0  0  0
  8  9  1  0  0  0  0
  9  4  2  0  0  0  0
 12  7  1  0  0  0  0
 13  8  1  0  0  0  0
 14  9  1  0  0  0  0
 14 24  1  0  0  0  0
 15 14  1  0  0  0  0
 16 15  1  0  0  0  0
 17 15  2  0  0  0  0
 17 18  1  0  0  0  0
 18 19  2  0  0  0  0
 18 24  1  0  0  0  0
 19 20  1  0  0  0  0
 20 21  2  0  0  0  0
 21 22  1  0  0  0  0
 23 21  1  0  0  0  0
 24 23  2  0  0  0  0
 25 26  1  0  0  0  0
 25 19  1  0  0  0  0
 27 25  1  0  0  0  0
 28 33  1  0  0  0  0
 29 30  1  0  0  0  0
 29 28  2  0  0  0  0
 30 31  2  0  0  0  0
 31 32  1  0  0  0  0
 32 37  1  0  0  0  0
 33 32  2  0  0  0  0
 34 28  1  0  0  0  0
 35 30  1  0  0  0  0
 36 41  1  6  0  0  0
 36 46  1  0  0  0  0
 36 40  1  0  0  0  0
 37 42  1  6  0  0  0
 37 36  1  0  0  0  0
 37 38  1  0  0  0  0
 38 39  1  0  0  0  0
 39 44  1  0  0  0  0
 39 43  1  0  0  0  0
 40 45  1  6  0  0  0
 40 39  1  0  0  0  0
 40 48  1  0  0  0  0
 47 46  1  0  0  0  0
 49 48  1  0  0  0  0
M  END
>  <minimizedAffinity>
-7.07179689

>  <minimizedRMSD>
0.90419817

$$$$
