
     RDKit          3D

 32 34  0  0  0  0  0  0  0  0999 V2000
   45.4981   34.9101   44.1537 C   0  0  0  0  0  0  0  0  0  0  0  0
   46.5477   34.2264   43.5147 C   0  0  0  0  0  0  0  0  0  0  0  0
   47.1456   33.1659   44.2213 C   0  0  0  0  0  0  0  0  0  0  0  0
   46.6758   32.8747   45.4602 N   0  0  0  0  0  0  0  0  0  0  0  0
   45.6654   33.5681   46.0192 C   0  0  0  0  0  0  0  0  0  0  0  0
   45.0735   34.5892   45.3654 N   0  0  0  0  0  0  0  0  0  0  0  0
   44.8680   36.0439   43.3882 C   0  0  0  0  0  0  0  0  0  0  0  0
   45.3015   33.1453   47.2937 O   0  0  0  0  0  0  0  0  0  0  0  0
   45.3273   31.7154   49.4401 O   0  0  0  0  0  0  0  0  0  0  0  0
   45.6276   31.6240   47.9477 P   0  0  1  0  0  0  0  0  0  0  0  0
   44.6083   30.4122   47.3423 O   0  0  0  0  0  0  0  0  0  0  0  0
   47.2122   31.1639   47.6414 O   0  0  0  0  0  0  0  0  0  0  0  0
   46.8982   34.4841   42.5258 H   0  0  0  0  0  0  0  0  0  0  0  0
   47.9570   32.6157   43.7618 H   0  0  0  0  0  0  0  0  0  0  0  0
   43.7923   36.1537   43.6460 H   0  0  0  0  0  0  0  0  0  0  0  0
   45.0232   35.9040   42.2918 H   0  0  0  0  0  0  0  0  0  0  0  0
   45.4118   36.9578   43.7100 H   0  0  0  0  0  0  0  0  0  0  0  0
   45.0921   29.5489   47.2499 H   0  0  0  0  0  0  0  0  0  0  0  0
   47.8999   28.6557   48.8305 H   0  0  0  0  0  0  0  0  0  0  0  0
   48.3471   29.4900   49.2245 N   0  0  0  0  0  0  0  0  0  0  0  0
   48.0105   30.6547   48.6520 C   0  0  0  0  0  0  0  0  0  0  0  0
   48.6790   31.6399   49.2810 N   0  0  0  0  0  0  0  0  0  0  0  0
   49.4587   31.1528   50.2667 C   0  0  0  0  0  0  0  0  0  0  0  0
   50.3404   31.5969   51.2279 C   0  0  0  0  0  0  0  0  0  0  0  0
   50.5615   33.0042   51.2694 N   0  0  0  0  0  0  0  0  0  0  0  0
   50.9843   33.7595   50.6932 H   0  0  0  0  0  0  0  0  0  0  0  0
   50.9600   30.7503   52.0820 N   0  0  0  0  0  0  0  0  0  0  0  0
   50.6743   29.4349   51.9508 C   0  0  0  0  0  0  0  0  0  0  0  0
   51.1858   28.7943   52.6468 H   0  0  0  0  0  0  0  0  0  0  0  0
   49.8133   28.9283   51.0232 N   0  0  0  0  0  0  0  0  0  0  0  0
   49.2211   29.8056   50.1966 C   0  0  0  0  0  0  0  0  0  0  0  0
   50.1602   33.3582   52.1788 H   0  0  0  0  0  0  0  0  0  0  0  0
  1  6  2  0
  2  1  1  0
  2  3  2  0
  3  4  1  0
  4  5  2  0
  5  8  1  0
  6  5  1  0
  7  1  1  0
 10  8  1  6
 10  9  2  0
 11 10  1  0
 12 10  1  0
  2 13  1  0
  3 14  1  0
  7 15  1  0
  7 16  1  0
  7 17  1  0
 11 18  1  0
 19 20  1  0
 20 21  1  0
 21 22  2  0
 22 23  1  0
 23 24  2  0
 24 25  1  0
 25 26  1  0
 24 27  1  0
 27 28  2  0
 28 29  1  0
 28 30  1  0
 30 31  2  0
 31 20  1  0
 31 23  1  0
 25 32  1  0
 12 21  1  0
M  ISO  8  13  14  14  14  15   8  16   8  17   8  18   3  19   9  26   5
M  ISO  1  29  16
M  END
>  <DihAtoms>  (1) 
9,11,20,19

>  <DihDeg>  (1) 
0.021303304790187747

$$$$
