
 OpenBabel03252504273D

 27 29  0  0  0  0  0  0  0  0999 V2000
   42.5650   36.8320   40.6800 H   0  0  0  0  0  0  0  0  0  0  0  0
   42.3600   35.8060   40.6970 N   0  0  0  0  0  0  0  0  0  0  0  0
   42.7880   34.9330   41.6280 C   0  0  0  0  0  0  0  0  0  0  0  0
   42.3280   33.7240   41.3170 N   0  0  0  0  0  0  0  0  0  0  0  0
   41.5960   33.8010   40.1800 C   0  0  0  0  0  0  0  0  0  0  0  0
   40.8840   32.9530   39.3720 C   0  0  0  0  0  0  0  0  0  0  0  0
   40.2500   33.3850   38.2730 N   0  0  0  0  0  0  0  0  0  0  0  0
   40.2900   34.6980   37.9110 C   0  0  0  0  0  0  0  0  0  0  0  0
   39.7400   34.9290   37.0040 H   0  0  0  0  0  0  0  0  0  0  0  0
   40.9810   35.5530   38.6860 N   0  0  0  0  0  0  0  0  0  0  0  0
   41.6210   35.1330   39.7930 C   0  0  0  0  0  0  0  0  0  0  0  0
   40.8380   31.5890   39.7400 N   0  0  0  0  0  0  0  0  0  0  0  0
   39.8340   31.4730   40.0600 H   0  0  0  0  0  0  0  0  0  0  0  0
   41.4030   30.7160   39.8020 H   0  0  0  0  0  0  0  0  0  0  0  0
   43.5810   35.1780   42.7520 O   0  0  0  0  0  0  0  0  0  0  0  0
   44.7760   35.8690   42.6260 C   0  0  0  0  0  0  0  0  0  0  0  0
   44.8560   36.3360   41.6060 H   0  0  0  0  0  0  0  0  0  0  0  0
   44.8060   36.7280   43.3290 H   0  0  0  0  0  0  0  0  0  0  0  0
   45.9980   34.2510   43.9230 C   0  0  0  0  0  0  0  0  0  0  0  0
   45.9690   35.0330   42.7830 C   0  0  0  0  0  0  0  0  0  0  0  0
   47.0440   34.9540   41.9190 C   0  0  0  0  0  0  0  0  0  0  0  0
   48.0500   34.1200   42.2480 N   0  0  0  0  0  0  0  0  0  0  0  0
   48.0600   33.3650   43.3630 C   0  0  0  0  0  0  0  0  0  0  0  0
   47.0190   33.4000   44.2610 N   0  0  0  0  0  0  0  0  0  0  0  0
   45.2040   34.2310   44.6770 H   0  0  0  0  0  0  0  0  0  0  0  0
   47.0010   35.5650   41.0490 H   0  0  0  0  0  0  0  0  0  0  0  0
   48.9580   32.7470   43.4650 H   0  0  0  0  0  0  0  0  0  0  0  0
  1  2  1  0  0  0  0
  2  3  1  0  0  0  0
  3 15  1  0  0  0  0
  4  3  2  0  0  0  0
  5  4  1  0  0  0  0
  6 12  1  0  0  0  0
  6  5  2  0  0  0  0
  7  6  1  0  0  0  0
  8  7  2  0  0  0  0
  8 10  1  0  0  0  0
  9  8  1  0  0  0  0
 10 11  2  0  0  0  0
 11  5  1  0  0  0  0
 11  2  1  0  0  0  0
 12 14  1  0  0  0  0
 12 13  1  0  0  0  0
 16 15  1  0  0  0  0
 16 20  1  0  0  0  0
 16 18  1  0  0  0  0
 17 16  1  0  0  0  0
 19 24  1  0  0  0  0
 19 25  1  0  0  0  0
 20 19  2  0  0  0  0
 21 22  2  0  0  0  0
 21 20  1  0  0  0  0
 22 23  1  0  0  0  0
 23 27  1  0  0  0  0
 23 24  2  0  0  0  0
 26 21  1  0  0  0  0
M  END
>  <minimizedAffinity>
-4.29933405

>  <minimizedRMSD>
2.8702817

$$$$
