REMARK  Name = 
REMARK  5 active torsions:
REMARK  status: ('A' for Active; 'I' for Inactive)
REMARK    1  A    between atoms: C_1  and  C_10
REMARK    2  A    between atoms: C_2  and  C_7
REMARK    3  A    between atoms: C_10  and  C_14
REMARK    4  A    between atoms: C_18  and  N_29
REMARK    5  A    between atoms: C_34  and  N_35
REMARK                            x       y       z     vdW  Elec       q    Type
REMARK                         _______ _______ _______ _____ _____    ______ ____
ROOT
ATOM      1 CL   UNL     1      44.684  31.664  42.920  0.00  0.00    +0.000 Cl
ATOM      2  C   UNL     1      44.650  33.417  42.752  0.00  0.00    +0.000 A 
ATOM      3  C   UNL     1      45.517  34.119  43.617  0.00  0.00    +0.000 A 
ATOM      4  C   UNL     1      45.415  35.487  43.413  0.00  0.00    +0.000 A 
ATOM      5  C   UNL     1      44.649  36.171  42.551  0.00  0.00    +0.000 A 
ATOM      6  C   UNL     1      43.839  35.418  41.749  0.00  0.00    +0.000 A 
ATOM      7  C   UNL     1      43.828  34.071  41.836  0.00  0.00    +0.000 A 
ATOM      8  H   UNL     1      46.007  36.191  44.036  0.00  0.00    +0.000 HD
ATOM      9  H   UNL     1      44.600  37.231  42.422  0.00  0.00    +0.000 HD
ATOM     10  H   UNL     1      43.157  35.795  40.999  0.00  0.00    +0.000 HD
ENDROOT
BRANCH   7  11
ATOM     11  N   UNL     1      43.020  33.160  41.049  0.00  0.00    +0.000 N 
ATOM     12  C   UNL     1      43.318  31.853  40.811  0.00  0.00    +0.000 A 
ATOM     13  H   UNL     1      44.174  31.294  41.156  0.00  0.00    +0.000 HD
ATOM     14  N   UNL     1      42.340  31.310  40.039  0.00  0.00    +0.000 NA
ATOM     15  C   UNL     1      41.422  32.280  39.789  0.00  0.00    +0.000 A 
ATOM     16  C   UNL     1      40.256  32.209  39.053  0.00  0.00    +0.000 A 
ATOM     17  N   UNL     1      39.522  33.358  38.973  0.00  0.00    +0.000 NA
ATOM     18  C   UNL     1      39.969  34.473  39.604  0.00  0.00    +0.000 A 
ATOM     19  H   UNL     1      39.342  35.344  39.500  0.00  0.00    +0.000 HD
ATOM     20  N   UNL     1      41.110  34.543  40.325  0.00  0.00    +0.000 NA
ATOM     21  C   UNL     1      41.863  33.421  40.425  0.00  0.00    +0.000 A 
BRANCH  16  22
ATOM     22  N   UNL     1      39.857  30.980  38.414  0.00  0.00    +0.000 N 
ATOM     23  H   UNL     1      40.379  31.165  37.550  0.00  0.00    +0.000 HD
ATOM     24  H   UNL     1      39.274  30.659  39.243  0.00  0.00    +0.000 HD
ENDBRANCH  16  22
ENDBRANCH   7  11
BRANCH   3  25
ATOM     25  C   UNL     1      46.451  33.533  44.624  0.00  0.00    +0.000 C 
ATOM     26  O   UNL     1      45.882  33.899  45.623  0.00  0.00    +0.000 OA
BRANCH  25  27
ATOM     27  C   UNL     1      47.534  32.843  43.910  0.00  0.00    +0.000 A 
ATOM     28  C   UNL     1      48.373  33.392  43.019  0.00  0.00    +0.000 A 
ATOM     29  C   UNL     1      49.238  32.494  42.418  0.00  0.00    +0.000 A 
ATOM     30  N   UNL     1      49.168  31.137  42.782  0.00  0.00    +0.000 NA
ATOM     31  C   UNL     1      48.312  30.679  43.673  0.00  0.00    +0.000 A 
ATOM     32  N   UNL     1      47.433  31.542  44.292  0.00  0.00    +0.000 NA
ATOM     33  H   UNL     1      49.979  32.733  41.681  0.00  0.00    +0.000 HD
ATOM     34  H   UNL     1      48.376  29.612  43.853  0.00  0.00    +0.000 HD
BRANCH  28  35
ATOM     35  C   UNL     1      48.522  34.774  42.735  0.00  0.00    +0.000 C 
ATOM     36  C   UNL     1      49.520  35.395  42.051  0.00  0.00    +0.000 C 
ATOM     37  C   UNL     1      48.274  35.218  41.226  0.00  0.00    +0.000 C 
ATOM     38  H   UNL     1      48.059  35.446  43.483  0.00  0.00    +0.000 HD
ATOM     39  H   UNL     1      50.385  34.792  41.663  0.00  0.00    +0.000 HD
ATOM     40  H   UNL     1      49.852  36.463  42.092  0.00  0.00    +0.000 HD
ATOM     41  H   UNL     1      47.559  36.053  41.120  0.00  0.00    +0.000 HD
ATOM     42  H   UNL     1      48.213  34.352  40.536  0.00  0.00    +0.000 HD
ENDBRANCH  28  35
ENDBRANCH  25  27
ENDBRANCH   3  25
TORSDOF 5
