
 OpenBabel03252504233D

 37 41  0  0  0  0  0  0  0  0999 V2000
   47.4290   33.3510   40.0930 C   0  0  0  0  0  0  0  0  0  0  0  0
   48.7980   33.0980   40.2490 C   0  0  0  0  0  0  0  0  0  0  0  0
   49.3450   33.1680   41.5460 C   0  0  0  0  0  0  0  0  0  0  0  0
   48.4990   33.4800   42.5680 N   0  0  0  0  0  0  0  0  0  0  0  0
   47.1790   33.7170   42.3700 C   0  0  0  0  0  0  0  0  0  0  0  0
   46.6520   33.6520   41.1380 N   0  0  0  0  0  0  0  0  0  0  0  0
   46.3760   34.0340   43.5000 N   0  0  0  0  0  0  0  0  0  0  0  0
   45.4490   35.0210   43.5650 C   0  0  0  0  0  0  0  0  0  0  0  0
   44.9010   34.9980   44.8150 N   0  0  0  0  0  0  0  0  0  0  0  0
   45.4950   34.0120   45.4790 C   0  0  0  0  0  0  0  0  0  0  0  0
   45.3700   33.5130   46.7470 C   0  0  0  0  0  0  0  0  0  0  0  0
   46.0980   32.4900   47.1910 N   0  0  0  0  0  0  0  0  0  0  0  0
   47.0140   31.8740   46.4100 C   0  0  0  0  0  0  0  0  0  0  0  0
   47.1420   32.3560   45.1670 N   0  0  0  0  0  0  0  0  0  0  0  0
   46.4330   33.3820   44.6780 C   0  0  0  0  0  0  0  0  0  0  0  0
   49.4780   32.8510   39.4470 H   0  0  0  0  0  0  0  0  0  0  0  0
   50.3880   32.9830   41.7210 H   0  0  0  0  0  0  0  0  0  0  0  0
   45.1670   35.7240   42.7820 H   0  0  0  0  0  0  0  0  0  0  0  0
   47.6140   31.0400   46.7590 H   0  0  0  0  0  0  0  0  0  0  0  0
   44.4630   34.0370   47.6910 N   0  0  0  0  0  0  0  0  0  0  0  0
   44.8570   34.8620   48.2260 H   0  0  0  0  0  0  0  0  0  0  0  0
   43.5010   33.7320   47.9240 H   0  0  0  0  0  0  0  0  0  0  0  0
   46.8510   33.2310   38.3900 S   0  0  0  0  0  0  0  0  0  0  0  0
   45.3490   30.5060   38.3540 H   0  0  0  0  0  0  0  0  0  0  0  0
   44.7270   31.3330   38.3000 N   0  0  0  0  0  0  0  0  0  0  0  0
   45.1950   32.5950   38.3020 C   0  0  0  0  0  0  0  0  0  0  0  0
   44.1010   33.3940   38.2210 N   0  0  0  0  0  0  0  0  0  0  0  0
   43.0090   32.6400   38.1710 C   0  0  0  0  0  0  0  0  0  0  0  0
   41.6570   32.8920   38.0840 C   0  0  0  0  0  0  0  0  0  0  0  0
   40.8070   31.8650   38.0540 N   0  0  0  0  0  0  0  0  0  0  0  0
   41.2050   30.5870   38.1030 C   0  0  0  0  0  0  0  0  0  0  0  0
   40.4240   29.8270   38.0720 H   0  0  0  0  0  0  0  0  0  0  0  0
   42.5260   30.2900   38.1890 N   0  0  0  0  0  0  0  0  0  0  0  0
   43.3900   31.3170   38.2200 C   0  0  0  0  0  0  0  0  0  0  0  0
   41.1700   34.2070   38.0280 N   0  0  0  0  0  0  0  0  0  0  0  0
   41.7510   35.0450   38.2700 H   0  0  0  0  0  0  0  0  0  0  0  0
   40.1870   34.4240   37.7380 H   0  0  0  0  0  0  0  0  0  0  0  0
  1  2  2  0  0  0  0
  1  6  1  0  0  0  0
  2  3  1  0  0  0  0
  3 17  1  0  0  0  0
  3  4  2  0  0  0  0
  5  4  1  0  0  0  0
  5  7  1  0  0  0  0
  6  5  2  0  0  0  0
  7  8  1  0  0  0  0
  7 15  1  0  0  0  0
  8  9  2  0  0  0  0
  9 10  1  0  0  0  0
 10 11  1  0  0  0  0
 11 12  2  0  0  0  0
 11 20  1  0  0  0  0
 13 19  1  0  0  0  0
 13 12  1  0  0  0  0
 14 13  2  0  0  0  0
 15 14  1  0  0  0  0
 15 10  2  0  0  0  0
 16  2  1  0  0  0  0
 18  8  1  0  0  0  0
 20 22  1  0  0  0  0
 20 21  1  0  0  0  0
 23  1  1  0  0  0  0
 25 26  1  0  0  0  0
 25 24  1  0  0  0  0
 26 23  1  0  0  0  0
 27 26  2  0  0  0  0
 28 34  1  0  0  0  0
 28 27  1  0  0  0  0
 29 28  2  0  0  0  0
 30 29  1  0  0  0  0
 30 31  2  0  0  0  0
 31 33  1  0  0  0  0
 32 31  1  0  0  0  0
 33 34  2  0  0  0  0
 34 25  1  0  0  0  0
 35 29  1  0  0  0  0
 35 36  1  0  0  0  0
 37 35  1  0  0  0  0
M  END
>  <minimizedAffinity>
-6.22587013

>  <minimizedRMSD>
1.7052716

$$$$
