
 OpenBabel03242512363D

 39 43  0  0  0  0  0  0  0  0999 V2000
   46.6790   34.7460   42.8190 C   0  0  0  0  0  0  0  0  0  0  0  0
   45.7800   35.7800   43.1240 C   0  0  0  0  0  0  0  0  0  0  0  0
   44.8910   35.4900   44.1920 C   0  0  0  0  0  0  0  0  0  0  0  0
   44.9610   34.2860   44.8210 N   0  0  0  0  0  0  0  0  0  0  0  0
   45.8500   33.3550   44.4650 C   0  0  0  0  0  0  0  0  0  0  0  0
   46.7200   33.5720   43.4610 N   0  0  0  0  0  0  0  0  0  0  0  0
   45.7580   36.7140   42.6020 H   0  0  0  0  0  0  0  0  0  0  0  0
   44.1890   36.2720   44.4450 H   0  0  0  0  0  0  0  0  0  0  0  0
   45.9100   32.1000   45.1350 N   0  0  0  0  0  0  0  0  0  0  0  0
   45.9610   30.8920   44.5010 C   0  0  0  0  0  0  0  0  0  0  0  0
   45.9620   30.7290   43.4150 H   0  0  0  0  0  0  0  0  0  0  0  0
   46.0080   29.9510   45.4540 N   0  0  0  0  0  0  0  0  0  0  0  0
   45.9910   30.5190   46.6660 C   0  0  0  0  0  0  0  0  0  0  0  0
   46.0150   30.1310   47.9910 C   0  0  0  0  0  0  0  0  0  0  0  0
   45.9810   31.0280   48.9780 N   0  0  0  0  0  0  0  0  0  0  0  0
   45.9200   32.3540   48.7600 C   0  0  0  0  0  0  0  0  0  0  0  0
   45.8990   32.9400   49.6630 H   0  0  0  0  0  0  0  0  0  0  0  0
   45.8940   32.7660   47.4760 N   0  0  0  0  0  0  0  0  0  0  0  0
   45.9280   31.8820   46.4630 C   0  0  0  0  0  0  0  0  0  0  0  0
   46.0810   28.7120   48.2290 N   0  0  0  0  0  0  0  0  0  0  0  0
   47.0040   28.5970   48.6920 H   0  0  0  0  0  0  0  0  0  0  0  0
   45.2690   28.1230   47.9240 H   0  0  0  0  0  0  0  0  0  0  0  0
   47.5840   35.0260   41.7420 C   0  0  0  0  0  0  0  0  0  0  0  0
   48.5830   35.7870   41.7800 O   0  0  0  0  0  0  0  0  0  0  0  0
   46.2360   33.6800   40.0840 C   0  0  0  0  0  0  0  0  0  0  0  0
   47.3930   34.3950   40.4280 C   0  0  0  0  0  0  0  0  0  0  0  0
   48.3860   34.5070   39.4900 C   0  0  0  0  0  0  0  0  0  0  0  0
   48.3370   33.9620   38.2130 C   0  0  0  0  0  0  0  0  0  0  0  0
   49.1830   33.9560   37.1700 N   0  0  0  0  0  0  0  0  0  0  0  0
   48.6230   33.2660   36.1650 C   0  0  0  0  0  0  0  0  0  0  0  0
   47.3770   32.8230   36.5950 C   0  0  0  0  0  0  0  0  0  0  0  0
   47.1860   33.2600   37.8910 C   0  0  0  0  0  0  0  0  0  0  0  0
   46.1710   33.1240   38.7990 C   0  0  0  0  0  0  0  0  0  0  0  0
   45.4610   33.5920   40.8120 H   0  0  0  0  0  0  0  0  0  0  0  0
   49.3310   35.0500   39.6720 H   0  0  0  0  0  0  0  0  0  0  0  0
   50.1260   34.4020   37.1150 H   0  0  0  0  0  0  0  0  0  0  0  0
   48.9710   33.0320   35.1720 H   0  0  0  0  0  0  0  0  0  0  0  0
   46.6310   32.2440   36.0840 H   0  0  0  0  0  0  0  0  0  0  0  0
   45.2770   32.5780   38.5490 H   0  0  0  0  0  0  0  0  0  0  0  0
  1  2  2  0  0  0  0
  1  6  1  0  0  0  0
  2  3  1  0  0  0  0
  3  8  1  0  0  0  0
  3  4  2  0  0  0  0
  5  4  1  0  0  0  0
  5  9  1  0  0  0  0
  6  5  2  0  0  0  0
  7  2  1  0  0  0  0
  9 19  1  0  0  0  0
 10  9  1  0  0  0  0
 10 12  2  0  0  0  0
 11 10  1  0  0  0  0
 12 13  1  0  0  0  0
 13 14  1  0  0  0  0
 14 20  1  0  0  0  0
 14 15  2  0  0  0  0
 16 15  1  0  0  0  0
 16 17  1  0  0  0  0
 18 16  2  0  0  0  0
 19 13  2  0  0  0  0
 19 18  1  0  0  0  0
 20 21  1  0  0  0  0
 22 20  1  0  0  0  0
 23 24  2  0  0  0  0
 23  1  1  0  0  0  0
 25 26  1  0  0  0  0
 25 34  1  0  0  0  0
 26 23  1  0  0  0  0
 27 35  1  0  0  0  0
 27 26  2  0  0  0  0
 28 27  1  0  0  0  0
 29 28  1  0  0  0  0
 30 31  2  0  0  0  0
 30 29  1  0  0  0  0
 31 32  1  0  0  0  0
 32 28  2  0  0  0  0
 32 33  1  0  0  0  0
 33 25  2  0  0  0  0
 36 29  1  0  0  0  0
 37 30  1  0  0  0  0
 38 31  1  0  0  0  0
 39 33  1  0  0  0  0
M  END
>  <minimizedAffinity>
-7.41146326

>  <minimizedRMSD>
0.882575631

$$$$
