
     RDKit          3D

 34 36  0  0  0  0  0  0  0  0999 V2000
   48.0913   32.9119   41.9138 O   0  0  0  0  0  0  0  0  0  0  0  0
   47.1974   34.0390   41.3315 P   0  0  2  0  0  0  0  0  0  0  0  0
   45.5961   33.8277   41.9160 O   0  0  0  0  0  0  0  0  0  0  0  0
   44.3688   35.9147   44.6381 C   0  0  0  0  0  0  0  0  0  0  0  0
   44.6681   35.4652   43.3293 C   0  0  0  0  0  0  0  0  0  0  0  0
   45.3179   34.2324   43.2048 C   0  0  0  0  0  0  0  0  0  0  0  0
   45.6197   33.5467   44.3233 N   0  0  0  0  0  0  0  0  0  0  0  0
   45.3201   34.0034   45.5602 C   0  0  0  0  0  0  0  0  0  0  0  0
   44.6986   35.1795   45.7260 N   0  0  0  0  0  0  0  0  0  0  0  0
   47.1758   33.9138   39.6800 O   0  0  0  0  0  0  0  0  0  0  0  0
   46.5576   33.0129   38.8753 C   0  0  0  0  0  0  0  0  0  0  0  0
   45.9024   33.5008   37.7725 O   0  0  0  0  0  0  0  0  0  0  0  0
   47.7861   35.4748   41.9116 O   0  0  0  0  0  0  0  0  0  0  0  0
   49.0463   35.7734   41.4035 C   0  0  0  0  0  0  0  0  0  0  0  0
   49.4536   37.0552   41.7279 F   0  0  0  0  0  0  0  0  0  0  0  0
   49.9483   34.8268   41.7768 F   0  0  0  0  0  0  0  0  0  0  0  0
   48.9177   35.7428   40.0176 F   0  0  0  0  0  0  0  0  0  0  0  0
   43.8649   36.8724   44.7236 H   0  0  0  0  0  0  0  0  0  0  0  0
   44.3743   36.1060   42.5037 H   0  0  0  0  0  0  0  0  0  0  0  0
   45.6148   33.3591   46.3915 H   0  0  0  0  0  0  0  0  0  0  0  0
   44.1355   31.4640   38.6925 H   0  0  0  0  0  0  0  0  0  0  0  0
   45.0640   30.9434   38.5820 N   0  0  0  0  0  0  0  0  0  0  0  0
   46.2694   31.5764   38.6432 C   0  0  0  0  0  0  0  0  0  0  0  0
   47.0891   30.5686   38.4596 N   0  0  0  0  0  0  0  0  0  0  0  0
   46.3960   29.4323   38.3037 C   0  0  0  0  0  0  0  0  0  0  0  0
   47.0486   28.2427   38.0978 C   0  0  0  0  0  0  0  0  0  0  0  0
   48.4457   27.9971   38.0156 N   0  0  0  0  0  0  0  0  0  0  0  0
   48.7446   27.9042   37.0252 H   0  0  0  0  0  0  0  0  0  0  0  0
   46.1877   27.1936   37.9614 N   0  0  0  0  0  0  0  0  0  0  0  0
   44.8523   27.3278   38.0243 C   0  0  0  0  0  0  0  0  0  0  0  0
   44.1941   26.4713   37.9116 H   0  0  0  0  0  0  0  0  0  0  0  0
   44.3110   28.5665   38.2345 N   0  0  0  0  0  0  0  0  0  0  0  0
   45.0496   29.6443   38.3792 C   0  0  0  0  0  0  0  0  0  0  0  0
   49.0510   27.9283   38.8816 H   0  0  0  0  0  0  0  0  0  0  0  0
  2  1  2  0
  2  3  1  1
  2 13  1  0
  3  6  1  0
  4  9  2  0
  5  4  1  0
  6  5  2  0
  6  7  1  0
  7  8  2  0
  8  9  1  0
 10  2  1  0
 11 10  1  0
 12 11  2  0
 14 16  1  0
 14 15  1  0
 14 13  1  0
 17 14  1  0
  4 18  1  0
  5 19  1  0
  8 20  1  0
 21 22  1  0
 22 23  1  0
 23 24  2  0
 24 25  1  0
 25 26  2  0
 26 27  1  0
 27 28  1  0
 26 29  1  0
 29 30  2  0
 30 31  1  0
 30 32  1  0
 32 33  2  0
 33 22  1  0
 33 25  1  0
 27 34  1  0
 11 23  1  0
M  ISO  6  18  14  19  14  20  14  21   9  28   5  31  16
M  END
>  <DihAtoms>  (1) 
9,10,22,21

>  <DihDeg>  (1) 
-0.05768188170349848

$$$$
