
 OpenBabel03242521173D

 43 46  0  0  0  0  0  0  0  0999 V2000
   46.5040   32.9540   46.4740 C   0  0  0  0  0  0  0  0  0  0  0  0
   46.7620   32.0470   45.8760 H   0  0  0  0  0  0  0  0  0  0  0  0
   47.4710   33.3210   46.8710 H   0  0  0  0  0  0  0  0  0  0  0  0
   44.5270   35.6410   44.7800 C   0  0  0  0  0  0  0  0  0  0  0  0
   45.1260   35.6150   43.5020 C   0  0  0  0  0  0  0  0  0  0  0  0
   46.1470   34.6980   43.3030 C   0  0  0  0  0  0  0  0  0  0  0  0
   46.5050   33.8890   44.3450 N   0  0  0  0  0  0  0  0  0  0  0  0
   45.9090   33.9500   45.5390 C   0  0  0  0  0  0  0  0  0  0  0  0
   44.9110   34.8260   45.7790 N   0  0  0  0  0  0  0  0  0  0  0  0
   43.7260   36.3400   44.9810 H   0  0  0  0  0  0  0  0  0  0  0  0
   44.8140   36.2700   42.7080 H   0  0  0  0  0  0  0  0  0  0  0  0
   46.7690   34.6500   42.0240 N   0  0  0  0  0  0  0  0  0  0  0  0
   47.9620   35.2400   41.8610 C   0  0  0  0  0  0  0  0  0  0  0  0
   48.5730   35.1970   40.6190 C   0  0  0  0  0  0  0  0  0  0  0  0
   47.9240   34.5520   39.6130 C   0  0  0  0  0  0  0  0  0  0  0  0
   48.4940   34.5150   38.4650 O   0  0  0  0  0  0  0  0  0  0  0  0
   46.7340   33.9530   39.7410 N   0  0  0  0  0  0  0  0  0  0  0  0
   46.1830   34.0280   40.9820 C   0  0  0  0  0  0  0  0  0  0  0  0
   45.0770   33.5060   41.2170 O   0  0  0  0  0  0  0  0  0  0  0  0
   48.4870   35.7560   42.6550 H   0  0  0  0  0  0  0  0  0  0  0  0
   49.5420   35.6580   40.4220 H   0  0  0  0  0  0  0  0  0  0  0  0
   46.2290   33.4540   38.9700 H   0  0  0  0  0  0  0  0  0  0  0  0
   45.5090   32.5990   47.5690 C   0  0  0  0  0  0  0  0  0  0  0  0
   46.0550   32.6040   48.5130 H   0  0  0  0  0  0  0  0  0  0  0  0
   44.7480   33.4280   47.6680 H   0  0  0  0  0  0  0  0  0  0  0  0
   45.4640   30.1510   47.7280 C   0  0  0  0  0  0  0  0  0  0  0  0
   46.4940   30.2680   48.4270 O   0  0  0  0  0  0  0  0  0  0  0  0
   44.8980   31.3380   47.2490 N   0  0  0  0  0  0  0  0  0  0  0  0
   44.0390   31.3150   46.6620 H   0  0  0  0  0  0  0  0  0  0  0  0
   43.7710   29.2870   45.6450 H   0  0  0  0  0  0  0  0  0  0  0  0
   44.1150   28.6110   46.3900 N   0  0  0  0  0  0  0  0  0  0  0  0
   44.9180   28.8240   47.4520 C   0  0  0  0  0  0  0  0  0  0  0  0
   45.0880   27.6890   48.1230 N   0  0  0  0  0  0  0  0  0  0  0  0
   44.3640   26.7520   47.4480 C   0  0  0  0  0  0  0  0  0  0  0  0
   44.1450   25.4030   47.6480 C   0  0  0  0  0  0  0  0  0  0  0  0
   43.3550   24.7290   46.7770 N   0  0  0  0  0  0  0  0  0  0  0  0
   42.7670   25.3040   45.7220 C   0  0  0  0  0  0  0  0  0  0  0  0
   42.1500   24.6650   45.0860 H   0  0  0  0  0  0  0  0  0  0  0  0
   42.9670   26.6050   45.5150 N   0  0  0  0  0  0  0  0  0  0  0  0
   43.7430   27.3200   46.3490 C   0  0  0  0  0  0  0  0  0  0  0  0
   44.7360   24.7200   48.7460 N   0  0  0  0  0  0  0  0  0  0  0  0
   43.9530   24.5370   49.4240 H   0  0  0  0  0  0  0  0  0  0  0  0
   45.6830   24.3770   49.0300 H   0  0  0  0  0  0  0  0  0  0  0  0
  1  3  1  0  0  0  0
  1 23  1  0  0  0  0
  2  1  1  0  0  0  0
  4 10  1  0  0  0  0
  4  9  1  0  0  0  0
  5  4  2  0  0  0  0
  6  5  1  0  0  0  0
  6  7  2  0  0  0  0
  7  8  1  0  0  0  0
  8  9  2  0  0  0  0
  8  1  1  0  0  0  0
 11  5  1  0  0  0  0
 12  6  1  0  0  0  0
 13 12  1  0  0  0  0
 13 20  1  0  0  0  0
 14 13  2  0  0  0  0
 15 17  1  0  0  0  0
 15 14  1  0  0  0  0
 16 15  2  0  0  0  0
 17 18  1  0  0  0  0
 18 19  2  0  0  0  0
 18 12  1  0  0  0  0
 21 14  1  0  0  0  0
 22 17  1  0  0  0  0
 23 25  1  0  0  0  0
 23 24  1  0  0  0  0
 26 27  2  0  0  0  0
 28 23  1  0  0  0  0
 28 26  1  0  0  0  0
 29 28  1  0  0  0  0
 30 31  1  0  0  0  0
 31 32  1  0  0  0  0
 32 26  1  0  0  0  0
 32 33  2  0  0  0  0
 34 35  1  0  0  0  0
 34 33  1  0  0  0  0
 35 41  1  0  0  0  0
 36 35  2  0  0  0  0
 37 36  1  0  0  0  0
 38 37  1  0  0  0  0
 39 37  2  0  0  0  0
 39 40  1  0  0  0  0
 40 31  1  0  0  0  0
 40 34  2  0  0  0  0
 41 43  1  0  0  0  0
 41 42  1  0  0  0  0
M  END
>  <minimizedAffinity>
-7.04894543

>  <minimizedRMSD>
1.66271651

$$$$
