
 OpenBabel03242515563D

 42 46  0  0  0  0  0  0  0  0999 V2000
   45.9300   32.6870   46.6750 C   0  0  0  0  0  0  0  0  0  0  0  0
   45.5370   32.9520   48.0120 C   0  0  0  0  0  0  0  0  0  0  0  0
   45.7330   32.0740   49.0450 C   0  0  0  0  0  0  0  0  0  0  0  0
   46.3270   30.8800   48.8300 C   0  0  0  0  0  0  0  0  0  0  0  0
   46.7280   30.5700   47.5470 C   0  0  0  0  0  0  0  0  0  0  0  0
   47.3300   29.3540   47.3660 C   0  0  0  0  0  0  0  0  0  0  0  0
   47.7550   28.9830   46.1080 C   0  0  0  0  0  0  0  0  0  0  0  0
   47.5380   29.8910   45.0760 C   0  0  0  0  0  0  0  0  0  0  0  0
   46.9440   31.0640   45.3240 C   0  0  0  0  0  0  0  0  0  0  0  0
   46.5240   31.4570   46.5250 C   0  0  0  0  0  0  0  0  0  0  0  0
   45.0600   33.8950   48.2270 H   0  0  0  0  0  0  0  0  0  0  0  0
   45.4030   32.3530   50.0350 H   0  0  0  0  0  0  0  0  0  0  0  0
   46.4670   30.2160   49.6580 H   0  0  0  0  0  0  0  0  0  0  0  0
   47.4610   28.6900   48.2490 H   0  0  0  0  0  0  0  0  0  0  0  0
   48.2230   27.9780   46.1120 H   0  0  0  0  0  0  0  0  0  0  0  0
   47.9170   29.3350   44.2360 H   0  0  0  0  0  0  0  0  0  0  0  0
   44.4620   35.5820   45.1340 C   0  0  0  0  0  0  0  0  0  0  0  0
   45.1920   35.6900   43.9100 C   0  0  0  0  0  0  0  0  0  0  0  0
   46.2030   34.7370   43.6050 C   0  0  0  0  0  0  0  0  0  0  0  0
   46.4040   33.7750   44.5210 N   0  0  0  0  0  0  0  0  0  0  0  0
   45.7640   33.6570   45.6240 C   0  0  0  0  0  0  0  0  0  0  0  0
   44.7910   34.5750   45.9150 N   0  0  0  0  0  0  0  0  0  0  0  0
   43.6980   36.3140   45.3500 H   0  0  0  0  0  0  0  0  0  0  0  0
   46.7080   34.8780   42.6750 H   0  0  0  0  0  0  0  0  0  0  0  0
   44.8300   36.7830   43.0710 N   0  0  0  0  0  0  0  0  0  0  0  0
   44.8380   36.4560   42.0600 H   0  0  0  0  0  0  0  0  0  0  0  0
   44.6220   37.6960   43.5400 H   0  0  0  0  0  0  0  0  0  0  0  0
   46.8730   31.7190   44.1380 O   0  0  0  0  0  0  0  0  0  0  0  0
   46.8580   30.0520   41.5980 H   0  0  0  0  0  0  0  0  0  0  0  0
   47.5950   30.7190   41.8540 N   0  0  0  0  0  0  0  0  0  0  0  0
   47.5250   31.3860   42.9760 C   0  0  0  0  0  0  0  0  0  0  0  0
   48.7100   32.0640   42.9240 N   0  0  0  0  0  0  0  0  0  0  0  0
   49.4090   31.7970   41.8310 C   0  0  0  0  0  0  0  0  0  0  0  0
   50.6430   32.2160   41.3160 C   0  0  0  0  0  0  0  0  0  0  0  0
   51.0500   31.7070   40.1170 N   0  0  0  0  0  0  0  0  0  0  0  0
   50.2730   30.8140   39.4410 C   0  0  0  0  0  0  0  0  0  0  0  0
   50.6830   30.4590   38.4840 H   0  0  0  0  0  0  0  0  0  0  0  0
   49.0700   30.3910   39.9220 N   0  0  0  0  0  0  0  0  0  0  0  0
   48.6750   30.8970   41.1010 C   0  0  0  0  0  0  0  0  0  0  0  0
   51.4200   33.1530   42.0590 N   0  0  0  0  0  0  0  0  0  0  0  0
   50.9390   34.0990   42.0670 H   0  0  0  0  0  0  0  0  0  0  0  0
   52.3280   33.0750   42.5700 H   0  0  0  0  0  0  0  0  0  0  0  0
  1  2  1  0  0  0  0
  2 11  1  0  0  0  0
  2  3  2  0  0  0  0
  3 12  1  0  0  0  0
  4  3  1  0  0  0  0
  4 13  1  0  0  0  0
  5  4  2  0  0  0  0
  6  5  1  0  0  0  0
  6 14  1  0  0  0  0
  7 15  1  0  0  0  0
  7  6  2  0  0  0  0
  8  9  2  0  0  0  0
  8  7  1  0  0  0  0
  9 10  1  0  0  0  0
 10  1  2  0  0  0  0
 10  5  1  0  0  0  0
 16  8  1  0  0  0  0
 17 23  1  0  0  0  0
 17 22  1  0  0  0  0
 18 17  2  0  0  0  0
 19 18  1  0  0  0  0
 19 20  2  0  0  0  0
 20 21  1  0  0  0  0
 21 22  2  0  0  0  0
 21  1  1  0  0  0  0
 24 19  1  0  0  0  0
 25 27  1  0  0  0  0
 25 18  1  0  0  0  0
 26 25  1  0  0  0  0
 28  9  1  0  0  0  0
 29 30  1  0  0  0  0
 30 31  1  0  0  0  0
 31 28  1  0  0  0  0
 32 31  2  0  0  0  0
 33 32  1  0  0  0  0
 34 33  1  0  0  0  0
 34 40  1  0  0  0  0
 35 34  2  0  0  0  0
 36 38  2  0  0  0  0
 36 35  1  0  0  0  0
 37 36  1  0  0  0  0
 38 39  1  0  0  0  0
 39 33  2  0  0  0  0
 39 30  1  0  0  0  0
 40 41  1  0  0  0  0
 40 42  1  0  0  0  0
M  END
>  <minimizedAffinity>
-6.64879942

>  <minimizedRMSD>
0.463035792

$$$$
