
 OpenBabel03252506273D

 50 55  0  0  0  0  0  0  0  0999 V2000
   40.2310   29.1190   40.9300 C   0  0  0  0  0  0  0  0  0  0  0  0
   39.3510   30.1220   40.5750 C   0  0  0  0  0  0  0  0  0  0  0  0
   38.1760   30.2040   41.3280 C   0  0  0  0  0  0  0  0  0  0  0  0
   37.9120   29.3350   42.3630 C   0  0  0  0  0  0  0  0  0  0  0  0
   36.8950   29.1760   43.2390 N   0  0  0  0  0  0  0  0  0  0  0  0
   37.1340   28.1530   44.0670 C   0  0  0  0  0  0  0  0  0  0  0  0
   38.3530   27.5920   43.7500 C   0  0  0  0  0  0  0  0  0  0  0  0
   38.7980   28.3470   42.6990 C   0  0  0  0  0  0  0  0  0  0  0  0
   39.9610   28.2610   41.9570 C   0  0  0  0  0  0  0  0  0  0  0  0
   41.1260   29.1090   40.3060 H   0  0  0  0  0  0  0  0  0  0  0  0
   37.3930   30.9350   41.1700 H   0  0  0  0  0  0  0  0  0  0  0  0
   36.0310   29.7610   43.2800 H   0  0  0  0  0  0  0  0  0  0  0  0
   36.4800   27.8020   44.8740 H   0  0  0  0  0  0  0  0  0  0  0  0
   38.7860   26.7480   44.2670 H   0  0  0  0  0  0  0  0  0  0  0  0
   40.9210   27.2560   42.2570 N   0  0  0  0  0  0  0  0  0  0  0  0
   40.9200   26.0720   41.6330 C   0  0  0  0  0  0  0  0  0  0  0  0
   40.3070   25.6130   40.8600 H   0  0  0  0  0  0  0  0  0  0  0  0
   41.9270   25.3090   42.1010 N   0  0  0  0  0  0  0  0  0  0  0  0
   42.5810   26.0160   43.0400 C   0  0  0  0  0  0  0  0  0  0  0  0
   43.6810   25.8020   43.8760 C   0  0  0  0  0  0  0  0  0  0  0  0
   44.0810   26.7660   44.7310 N   0  0  0  0  0  0  0  0  0  0  0  0
   43.4310   27.9590   44.7980 C   0  0  0  0  0  0  0  0  0  0  0  0
   43.8350   28.6550   45.5140 H   0  0  0  0  0  0  0  0  0  0  0  0
   42.3550   28.2010   43.9950 N   0  0  0  0  0  0  0  0  0  0  0  0
   41.9390   27.2560   43.1370 C   0  0  0  0  0  0  0  0  0  0  0  0
   44.2670   24.5310   43.7150 N   0  0  0  0  0  0  0  0  0  0  0  0
   43.6770   23.9050   44.3360 H   0  0  0  0  0  0  0  0  0  0  0  0
   45.0400   24.7680   43.0420 H   0  0  0  0  0  0  0  0  0  0  0  0
   39.4380   31.1300   39.5300 C   0  0  0  0  0  0  0  0  0  0  0  0
   40.4880   31.3570   39.2650 H   0  0  0  0  0  0  0  0  0  0  0  0
   39.0170   30.6580   38.5970 H   0  0  0  0  0  0  0  0  0  0  0  0
   38.6860   32.3880   39.7360 C   0  0  0  0  0  0  0  0  0  0  0  0
   37.8750   32.3090   40.4520 H   0  0  0  0  0  0  0  0  0  0  0  0
   38.2460   32.6810   38.7540 H   0  0  0  0  0  0  0  0  0  0  0  0
   41.4350   34.4430   40.7400 C   0  0  0  0  0  0  0  0  0  0  0  0
   40.4100   35.4040   40.5450 C   0  0  0  0  0  0  0  0  0  0  0  0
   39.2800   34.7640   40.1530 C   0  0  0  0  0  0  0  0  0  0  0  0
   39.5960   33.4630   40.1090 N   0  0  0  0  0  0  0  0  0  0  0  0
   40.8740   33.2730   40.4570 N   0  0  0  0  0  0  0  0  0  0  0  0
   40.5300   36.4740   40.6910 H   0  0  0  0  0  0  0  0  0  0  0  0
   38.2990   35.1490   39.9110 H   0  0  0  0  0  0  0  0  0  0  0  0
   44.2170   35.9120   42.5820 C   0  0  0  0  0  0  0  0  0  0  0  0
   45.3310   35.3680   41.9660 C   0  0  0  0  0  0  0  0  0  0  0  0
   45.1220   34.4800   40.8960 C   0  0  0  0  0  0  0  0  0  0  0  0
   43.8450   34.2170   40.5440 N   0  0  0  0  0  0  0  0  0  0  0  0
   42.7790   34.7590   41.1600 C   0  0  0  0  0  0  0  0  0  0  0  0
   42.9700   35.6100   42.1840 N   0  0  0  0  0  0  0  0  0  0  0  0
   44.4440   36.5810   43.3900 H   0  0  0  0  0  0  0  0  0  0  0  0
   46.3550   35.5360   42.1980 H   0  0  0  0  0  0  0  0  0  0  0  0
   45.9120   34.0010   40.3460 H   0  0  0  0  0  0  0  0  0  0  0  0
  1  9  1  0  0  0  0
  2  1  2  0  0  0  0
  2  3  1  0  0  0  0
  3  4  2  0  0  0  0
  4  8  1  0  0  0  0
  4  5  1  0  0  0  0
  5 12  1  0  0  0  0
  5  6  1  0  0  0  0
  6 13  1  0  0  0  0
  7  6  2  0  0  0  0
  7 14  1  0  0  0  0
  8  7  1  0  0  0  0
  9 15  1  0  0  0  0
  9  8  2  0  0  0  0
 10  1  1  0  0  0  0
 11  3  1  0  0  0  0
 15 25  1  0  0  0  0
 16 18  2  0  0  0  0
 16 15  1  0  0  0  0
 17 16  1  0  0  0  0
 18 19  1  0  0  0  0
 19 25  2  0  0  0  0
 19 20  1  0  0  0  0
 20 21  2  0  0  0  0
 21 22  1  0  0  0  0
 22 23  1  0  0  0  0
 24 22  2  0  0  0  0
 25 24  1  0  0  0  0
 26 20  1  0  0  0  0
 26 27  1  0  0  0  0
 28 26  1  0  0  0  0
 29 32  1  0  0  0  0
 29  2  1  0  0  0  0
 30 29  1  0  0  0  0
 31 29  1  0  0  0  0
 32 38  1  0  0  0  0
 32 33  1  0  0  0  0
 34 32  1  0  0  0  0
 35 46  1  0  0  0  0
 36 40  1  0  0  0  0
 36 35  1  0  0  0  0
 37 36  2  0  0  0  0
 38 37  1  0  0  0  0
 38 39  1  0  0  0  0
 39 35  2  0  0  0  0
 41 37  1  0  0  0  0
 42 48  1  0  0  0  0
 43 49  1  0  0  0  0
 43 42  2  0  0  0  0
 44 43  1  0  0  0  0
 45 44  2  0  0  0  0
 45 46  1  0  0  0  0
 46 47  2  0  0  0  0
 47 42  1  0  0  0  0
 50 44  1  0  0  0  0
M  END
>  <minimizedAffinity>
-7.36993647

$$$$

 OpenBabel03252506273D

 50 55  0  0  0  0  0  0  0  0999 V2000
   38.4460   30.2230   41.6430 C   0  0  0  0  0  0  0  0  0  0  0  0
   37.4840   29.3300   42.0700 C   0  0  0  0  0  0  0  0  0  0  0  0
   36.5180   28.9680   41.1260 C   0  0  0  0  0  0  0  0  0  0  0  0
   36.5270   29.4730   39.8460 C   0  0  0  0  0  0  0  0  0  0  0  0
   35.7500   29.3120   38.7510 N   0  0  0  0  0  0  0  0  0  0  0  0
   36.2020   30.0510   37.7320 C   0  0  0  0  0  0  0  0  0  0  0  0
   37.3240   30.7400   38.1380 C   0  0  0  0  0  0  0  0  0  0  0  0
   37.4900   30.3580   39.4420 C   0  0  0  0  0  0  0  0  0  0  0  0
   38.4470   30.7190   40.3710 C   0  0  0  0  0  0  0  0  0  0  0  0
   39.1690   30.4640   42.4250 H   0  0  0  0  0  0  0  0  0  0  0  0
   35.7030   28.2800   41.3110 H   0  0  0  0  0  0  0  0  0  0  0  0
   34.9060   28.7000   38.6890 H   0  0  0  0  0  0  0  0  0  0  0  0
   35.7660   30.1110   36.7280 H   0  0  0  0  0  0  0  0  0  0  0  0
   37.8880   31.4110   37.5050 H   0  0  0  0  0  0  0  0  0  0  0  0
   39.4750   31.6350   40.0130 N   0  0  0  0  0  0  0  0  0  0  0  0
   40.6600   31.2180   39.5530 C   0  0  0  0  0  0  0  0  0  0  0  0
   41.1070   30.2450   39.3540 H   0  0  0  0  0  0  0  0  0  0  0  0
   41.4470   32.2800   39.2910 N   0  0  0  0  0  0  0  0  0  0  0  0
   40.7530   33.3930   39.5880 C   0  0  0  0  0  0  0  0  0  0  0  0
   40.9910   34.7690   39.5410 C   0  0  0  0  0  0  0  0  0  0  0  0
   40.0340   35.6380   39.9290 N   0  0  0  0  0  0  0  0  0  0  0  0
   38.8240   35.1980   40.3710 C   0  0  0  0  0  0  0  0  0  0  0  0
   38.1360   35.9760   40.6550 H   0  0  0  0  0  0  0  0  0  0  0  0
   38.5590   33.8610   40.4280 N   0  0  0  0  0  0  0  0  0  0  0  0
   39.4960   32.9790   40.0470 C   0  0  0  0  0  0  0  0  0  0  0  0
   42.2760   35.0990   39.0680 N   0  0  0  0  0  0  0  0  0  0  0  0
   42.8860   35.0260   39.9340 H   0  0  0  0  0  0  0  0  0  0  0  0
   42.0620   35.2730   38.0530 H   0  0  0  0  0  0  0  0  0  0  0  0
   37.2970   28.6860   43.3610 C   0  0  0  0  0  0  0  0  0  0  0  0
   38.0670   28.9990   44.0920 H   0  0  0  0  0  0  0  0  0  0  0  0
   36.3370   29.0980   43.7860 H   0  0  0  0  0  0  0  0  0  0  0  0
   37.1600   27.2130   43.3720 C   0  0  0  0  0  0  0  0  0  0  0  0
   36.4890   26.8230   42.6140 H   0  0  0  0  0  0  0  0  0  0  0  0
   36.7540   26.9210   44.3690 H   0  0  0  0  0  0  0  0  0  0  0  0
   40.5980   26.2550   43.5930 C   0  0  0  0  0  0  0  0  0  0  0  0
   40.0720   25.2540   42.7370 C   0  0  0  0  0  0  0  0  0  0  0  0
   38.7480   25.4860   42.5550 C   0  0  0  0  0  0  0  0  0  0  0  0
   38.4700   26.5850   43.2690 N   0  0  0  0  0  0  0  0  0  0  0  0
   39.5680   27.0400   43.8840 N   0  0  0  0  0  0  0  0  0  0  0  0
   40.6510   24.4400   42.3080 H   0  0  0  0  0  0  0  0  0  0  0  0
   38.0110   24.9480   41.9740 H   0  0  0  0  0  0  0  0  0  0  0  0
   43.5860   27.1300   45.4890 C   0  0  0  0  0  0  0  0  0  0  0  0
   44.5990   26.4740   44.8110 C   0  0  0  0  0  0  0  0  0  0  0  0
   44.2480   25.7160   43.6800 C   0  0  0  0  0  0  0  0  0  0  0  0
   42.9430   25.6800   43.3340 N   0  0  0  0  0  0  0  0  0  0  0  0
   41.9780   26.3280   44.0100 C   0  0  0  0  0  0  0  0  0  0  0  0
   42.3050   27.0560   45.0930 N   0  0  0  0  0  0  0  0  0  0  0  0
   43.9190   27.6910   46.3420 H   0  0  0  0  0  0  0  0  0  0  0  0
   45.6380   26.4640   45.0350 H   0  0  0  0  0  0  0  0  0  0  0  0
   44.9510   25.1670   43.0800 H   0  0  0  0  0  0  0  0  0  0  0  0
  1  2  1  0  0  0  0
  1 10  1  0  0  0  0
  2 29  1  0  0  0  0
  3 11  1  0  0  0  0
  3  2  2  0  0  0  0
  4  3  1  0  0  0  0
  5  4  1  0  0  0  0
  6  7  2  0  0  0  0
  6  5  1  0  0  0  0
  7  8  1  0  0  0  0
  8  4  2  0  0  0  0
  8  9  1  0  0  0  0
  9  1  2  0  0  0  0
 12  5  1  0  0  0  0
 13  6  1  0  0  0  0
 14  7  1  0  0  0  0
 15 25  1  0  0  0  0
 15  9  1  0  0  0  0
 16 15  1  0  0  0  0
 17 16  1  0  0  0  0
 18 16  2  0  0  0  0
 18 19  1  0  0  0  0
 19 25  1  0  0  0  0
 20 19  2  0  0  0  0
 20 21  1  0  0  0  0
 21 22  2  0  0  0  0
 22 24  1  0  0  0  0
 22 23  1  0  0  0  0
 25 24  2  0  0  0  0
 26 20  1  0  0  0  0
 26 27  1  0  0  0  0
 28 26  1  0  0  0  0
 29 32  1  0  0  0  0
 29 31  1  0  0  0  0
 29 30  1  0  0  0  0
 32 34  1  0  0  0  0
 33 32  1  0  0  0  0
 35 39  2  0  0  0  0
 35 46  1  0  0  0  0
 36 35  1  0  0  0  0
 37 36  2  0  0  0  0
 37 38  1  0  0  0  0
 38 32  1  0  0  0  0
 38 39  1  0  0  0  0
 40 36  1  0  0  0  0
 41 37  1  0  0  0  0
 42 48  1  0  0  0  0
 43 49  1  0  0  0  0
 43 42  2  0  0  0  0
 44 43  1  0  0  0  0
 45 44  2  0  0  0  0
 45 46  1  0  0  0  0
 46 47  2  0  0  0  0
 47 42  1  0  0  0  0
 50 44  1  0  0  0  0
M  END
>  <minimizedAffinity>
-7.11753511

$$$$

 OpenBabel03252506273D

 50 55  0  0  0  0  0  0  0  0999 V2000
   39.4750   33.3060   40.6370 C   0  0  0  0  0  0  0  0  0  0  0  0
   38.5490   32.5570   39.9390 C   0  0  0  0  0  0  0  0  0  0  0  0
   38.9340   32.1380   38.6620 C   0  0  0  0  0  0  0  0  0  0  0  0
   40.1650   32.4530   38.1330 C   0  0  0  0  0  0  0  0  0  0  0  0
   40.7950   32.1970   36.9640 N   0  0  0  0  0  0  0  0  0  0  0  0
   42.0140   32.7470   36.9490 C   0  0  0  0  0  0  0  0  0  0  0  0
   42.2280   33.4010   38.1430 C   0  0  0  0  0  0  0  0  0  0  0  0
   41.0690   33.1970   38.8410 C   0  0  0  0  0  0  0  0  0  0  0  0
   40.6930   33.6150   40.1040 C   0  0  0  0  0  0  0  0  0  0  0  0
   39.1140   33.6010   41.6240 H   0  0  0  0  0  0  0  0  0  0  0  0
   38.3180   31.5460   37.9960 H   0  0  0  0  0  0  0  0  0  0  0  0
   40.4010   31.6460   36.1690 H   0  0  0  0  0  0  0  0  0  0  0  0
   42.7410   32.6960   36.1300 H   0  0  0  0  0  0  0  0  0  0  0  0
   43.1370   33.9320   38.3910 H   0  0  0  0  0  0  0  0  0  0  0  0
   41.5890   34.3910   40.8910 N   0  0  0  0  0  0  0  0  0  0  0  0
   41.4410   35.7130   41.0270 C   0  0  0  0  0  0  0  0  0  0  0  0
   40.7320   36.4490   40.6520 H   0  0  0  0  0  0  0  0  0  0  0  0
   42.4160   36.2020   41.8180 N   0  0  0  0  0  0  0  0  0  0  0  0
   43.1990   35.1750   42.1930 C   0  0  0  0  0  0  0  0  0  0  0  0
   44.3400   35.0170   42.9850 C   0  0  0  0  0  0  0  0  0  0  0  0
   44.8860   33.7940   43.1530 N   0  0  0  0  0  0  0  0  0  0  0  0
   44.3430   32.6950   42.5610 C   0  0  0  0  0  0  0  0  0  0  0  0
   44.8580   31.7720   42.7630 H   0  0  0  0  0  0  0  0  0  0  0  0
   43.2290   32.8150   41.7820 N   0  0  0  0  0  0  0  0  0  0  0  0
   42.6700   34.0220   41.6010 C   0  0  0  0  0  0  0  0  0  0  0  0
   44.8070   36.2240   43.5420 N   0  0  0  0  0  0  0  0  0  0  0  0
   45.4060   36.6380   42.7690 H   0  0  0  0  0  0  0  0  0  0  0  0
   44.3500   36.1810   44.4880 H   0  0  0  0  0  0  0  0  0  0  0  0
   37.2120   32.1200   40.3100 C   0  0  0  0  0  0  0  0  0  0  0  0
   37.1060   32.0090   41.4070 H   0  0  0  0  0  0  0  0  0  0  0  0
   36.5170   32.9690   40.0540 H   0  0  0  0  0  0  0  0  0  0  0  0
   36.6750   30.9210   39.6280 C   0  0  0  0  0  0  0  0  0  0  0  0
   37.1090   30.7340   38.6510 H   0  0  0  0  0  0  0  0  0  0  0  0
   35.5800   31.0760   39.4900 H   0  0  0  0  0  0  0  0  0  0  0  0
   37.7820   28.2170   41.6880 C   0  0  0  0  0  0  0  0  0  0  0  0
   36.3780   28.0180   41.6780 C   0  0  0  0  0  0  0  0  0  0  0  0
   35.8050   28.9870   40.9210 C   0  0  0  0  0  0  0  0  0  0  0  0
   36.8150   29.7500   40.4840 N   0  0  0  0  0  0  0  0  0  0  0  0
   37.9870   29.2930   40.9390 N   0  0  0  0  0  0  0  0  0  0  0  0
   35.8620   27.2150   42.1990 H   0  0  0  0  0  0  0  0  0  0  0  0
   34.7670   29.1700   40.6760 H   0  0  0  0  0  0  0  0  0  0  0  0
   39.4110   25.2490   43.0400 C   0  0  0  0  0  0  0  0  0  0  0  0
   40.4930   25.7650   43.7330 C   0  0  0  0  0  0  0  0  0  0  0  0
   40.6660   27.1610   43.7360 C   0  0  0  0  0  0  0  0  0  0  0  0
   39.7620   27.9020   43.0600 N   0  0  0  0  0  0  0  0  0  0  0  0
   38.7180   27.3750   42.3940 C   0  0  0  0  0  0  0  0  0  0  0  0
   38.5450   26.0410   42.3870 N   0  0  0  0  0  0  0  0  0  0  0  0
   39.3350   24.1790   43.0770 H   0  0  0  0  0  0  0  0  0  0  0  0
   41.2340   25.2350   44.2800 H   0  0  0  0  0  0  0  0  0  0  0  0
   41.4680   27.6680   44.2390 H   0  0  0  0  0  0  0  0  0  0  0  0
  1 10  1  0  0  0  0
  2 29  1  0  0  0  0
  2  1  2  0  0  0  0
  3  2  1  0  0  0  0
  4  3  2  0  0  0  0
  4  8  1  0  0  0  0
  5  4  1  0  0  0  0
  6  5  1  0  0  0  0
  6  7  2  0  0  0  0
  7 14  1  0  0  0  0
  7  8  1  0  0  0  0
  8  9  2  0  0  0  0
  9  1  1  0  0  0  0
  9 15  1  0  0  0  0
 11  3  1  0  0  0  0
 12  5  1  0  0  0  0
 13  6  1  0  0  0  0
 15 16  1  0  0  0  0
 15 25  1  0  0  0  0
 16 18  2  0  0  0  0
 17 16  1  0  0  0  0
 18 19  1  0  0  0  0
 19 20  1  0  0  0  0
 20 21  2  0  0  0  0
 20 26  1  0  0  0  0
 22 23  1  0  0  0  0
 22 21  1  0  0  0  0
 24 22  2  0  0  0  0
 25 24  1  0  0  0  0
 25 19  2  0  0  0  0
 26 28  1  0  0  0  0
 27 26  1  0  0  0  0
 29 30  1  0  0  0  0
 31 29  1  0  0  0  0
 32 29  1  0  0  0  0
 32 38  1  0  0  0  0
 33 32  1  0  0  0  0
 34 32  1  0  0  0  0
 35 46  1  0  0  0  0
 36 35  1  0  0  0  0
 36 40  1  0  0  0  0
 37 36  2  0  0  0  0
 38 37  1  0  0  0  0
 38 39  1  0  0  0  0
 39 35  2  0  0  0  0
 41 37  1  0  0  0  0
 42 48  1  0  0  0  0
 42 43  1  0  0  0  0
 43 44  2  0  0  0  0
 43 49  1  0  0  0  0
 44 50  1  0  0  0  0
 45 44  1  0  0  0  0
 46 45  2  0  0  0  0
 47 46  1  0  0  0  0
 47 42  2  0  0  0  0
M  END
>  <minimizedAffinity>
-7.10053682

$$$$

 OpenBabel03252506273D

 50 55  0  0  0  0  0  0  0  0999 V2000
   38.0220   30.6570   41.6330 C   0  0  0  0  0  0  0  0  0  0  0  0
   37.4580   29.4260   41.9040 C   0  0  0  0  0  0  0  0  0  0  0  0
   36.8330   28.7850   40.8300 C   0  0  0  0  0  0  0  0  0  0  0  0
   36.7850   29.3480   39.5750 C   0  0  0  0  0  0  0  0  0  0  0  0
   36.2680   28.9770   38.3820 N   0  0  0  0  0  0  0  0  0  0  0  0
   36.4990   29.9090   37.4510 C   0  0  0  0  0  0  0  0  0  0  0  0
   37.1950   30.9530   38.0210 C   0  0  0  0  0  0  0  0  0  0  0  0
   37.3500   30.5700   39.3260 C   0  0  0  0  0  0  0  0  0  0  0  0
   37.9680   31.2080   40.3840 C   0  0  0  0  0  0  0  0  0  0  0  0
   38.4920   31.1030   42.5100 H   0  0  0  0  0  0  0  0  0  0  0  0
   36.3480   27.8190   40.8870 H   0  0  0  0  0  0  0  0  0  0  0  0
   35.7550   28.0880   38.1920 H   0  0  0  0  0  0  0  0  0  0  0  0
   36.1920   29.8680   36.3990 H   0  0  0  0  0  0  0  0  0  0  0  0
   37.5090   31.8380   37.4870 H   0  0  0  0  0  0  0  0  0  0  0  0
   38.5750   32.4800   40.1900 N   0  0  0  0  0  0  0  0  0  0  0  0
   37.8680   33.6140   40.2520 C   0  0  0  0  0  0  0  0  0  0  0  0
   36.8230   33.8580   40.4340 H   0  0  0  0  0  0  0  0  0  0  0  0
   38.6780   34.6690   40.0330 N   0  0  0  0  0  0  0  0  0  0  0  0
   39.9220   34.2000   39.8270 C   0  0  0  0  0  0  0  0  0  0  0  0
   41.1740   34.7580   39.5560 C   0  0  0  0  0  0  0  0  0  0  0  0
   42.2530   33.9620   39.4020 N   0  0  0  0  0  0  0  0  0  0  0  0
   42.1480   32.6090   39.5070 C   0  0  0  0  0  0  0  0  0  0  0  0
   43.0700   32.0710   39.3670 H   0  0  0  0  0  0  0  0  0  0  0  0
   40.9400   32.0330   39.7720 N   0  0  0  0  0  0  0  0  0  0  0  0
   39.8540   32.8050   39.9280 C   0  0  0  0  0  0  0  0  0  0  0  0
   41.1540   36.1640   39.4710 N   0  0  0  0  0  0  0  0  0  0  0  0
   40.8590   36.3470   38.4670 H   0  0  0  0  0  0  0  0  0  0  0  0
   41.4430   36.4140   40.4510 H   0  0  0  0  0  0  0  0  0  0  0  0
   37.3990   28.6650   43.1420 C   0  0  0  0  0  0  0  0  0  0  0  0
   38.2520   28.8990   43.8090 H   0  0  0  0  0  0  0  0  0  0  0  0
   36.5000   29.0450   43.7070 H   0  0  0  0  0  0  0  0  0  0  0  0
   37.2330   27.1990   43.0310 C   0  0  0  0  0  0  0  0  0  0  0  0
   36.6770   26.8800   42.1560 H   0  0  0  0  0  0  0  0  0  0  0  0
   36.6760   26.8550   43.9330 H   0  0  0  0  0  0  0  0  0  0  0  0
   40.6330   26.2220   43.5540 C   0  0  0  0  0  0  0  0  0  0  0  0
   40.1240   25.1200   42.8200 C   0  0  0  0  0  0  0  0  0  0  0  0
   38.8160   25.3480   42.5410 C   0  0  0  0  0  0  0  0  0  0  0  0
   38.5320   26.5400   43.0810 N   0  0  0  0  0  0  0  0  0  0  0  0
   39.6100   27.0580   43.6810 N   0  0  0  0  0  0  0  0  0  0  0  0
   40.7030   24.2450   42.5370 H   0  0  0  0  0  0  0  0  0  0  0  0
   38.0940   24.7470   42.0050 H   0  0  0  0  0  0  0  0  0  0  0  0
   43.5240   27.1850   45.5550 C   0  0  0  0  0  0  0  0  0  0  0  0
   44.5770   26.5390   44.9280 C   0  0  0  0  0  0  0  0  0  0  0  0
   44.2870   25.7570   43.7950 C   0  0  0  0  0  0  0  0  0  0  0  0
   42.9980   25.6900   43.3980 N   0  0  0  0  0  0  0  0  0  0  0  0
   41.9930   26.3290   44.0240 C   0  0  0  0  0  0  0  0  0  0  0  0
   42.2620   27.0790   45.1080 N   0  0  0  0  0  0  0  0  0  0  0  0
   43.8120   27.7650   46.4110 H   0  0  0  0  0  0  0  0  0  0  0  0
   45.6060   26.5530   45.1940 H   0  0  0  0  0  0  0  0  0  0  0  0
   45.0240   25.2130   43.2330 H   0  0  0  0  0  0  0  0  0  0  0  0
  1  2  1  0  0  0  0
  1 10  1  0  0  0  0
  2 29  1  0  0  0  0
  3 11  1  0  0  0  0
  3  2  2  0  0  0  0
  4  3  1  0  0  0  0
  5  4  1  0  0  0  0
  6  7  2  0  0  0  0
  6  5  1  0  0  0  0
  7  8  1  0  0  0  0
  8  4  2  0  0  0  0
  8  9  1  0  0  0  0
  9  1  2  0  0  0  0
 12  5  1  0  0  0  0
 13  6  1  0  0  0  0
 14  7  1  0  0  0  0
 15 16  1  0  0  0  0
 15  9  1  0  0  0  0
 16 17  1  0  0  0  0
 18 16  2  0  0  0  0
 19 25  1  0  0  0  0
 19 18  1  0  0  0  0
 20 19  2  0  0  0  0
 21 22  2  0  0  0  0
 21 20  1  0  0  0  0
 22 24  1  0  0  0  0
 23 22  1  0  0  0  0
 24 25  2  0  0  0  0
 25 15  1  0  0  0  0
 26 20  1  0  0  0  0
 26 28  1  0  0  0  0
 27 26  1  0  0  0  0
 29 31  1  0  0  0  0
 29 30  1  0  0  0  0
 32 38  1  0  0  0  0
 32 29  1  0  0  0  0
 32 34  1  0  0  0  0
 33 32  1  0  0  0  0
 35 39  2  0  0  0  0
 35 46  1  0  0  0  0
 36 35  1  0  0  0  0
 37 36  2  0  0  0  0
 37 38  1  0  0  0  0
 38 39  1  0  0  0  0
 40 36  1  0  0  0  0
 41 37  1  0  0  0  0
 42 48  1  0  0  0  0
 43 49  1  0  0  0  0
 43 42  2  0  0  0  0
 44 43  1  0  0  0  0
 45 44  2  0  0  0  0
 45 46  1  0  0  0  0
 46 47  2  0  0  0  0
 47 42  1  0  0  0  0
 50 44  1  0  0  0  0
M  END
>  <minimizedAffinity>
-7.01386166

$$$$

 OpenBabel03252506273D

 50 55  0  0  0  0  0  0  0  0999 V2000
   39.2790   31.7870   39.7720 C   0  0  0  0  0  0  0  0  0  0  0  0
   37.9540   32.1750   39.7880 C   0  0  0  0  0  0  0  0  0  0  0  0
   37.7160   33.5520   39.8290 C   0  0  0  0  0  0  0  0  0  0  0  0
   38.7440   34.4670   39.8520 C   0  0  0  0  0  0  0  0  0  0  0  0
   38.8190   35.8160   39.8910 N   0  0  0  0  0  0  0  0  0  0  0  0
   40.0930   36.2240   39.8980 C   0  0  0  0  0  0  0  0  0  0  0  0
   40.9190   35.1210   39.8630 C   0  0  0  0  0  0  0  0  0  0  0  0
   40.0510   34.0620   39.8350 C   0  0  0  0  0  0  0  0  0  0  0  0
   40.2920   32.7020   39.7950 C   0  0  0  0  0  0  0  0  0  0  0  0
   39.3960   30.7020   39.7400 H   0  0  0  0  0  0  0  0  0  0  0  0
   36.7340   34.0070   39.8460 H   0  0  0  0  0  0  0  0  0  0  0  0
   38.0050   36.4700   39.9130 H   0  0  0  0  0  0  0  0  0  0  0  0
   40.4440   37.2610   39.9260 H   0  0  0  0  0  0  0  0  0  0  0  0
   41.9980   35.1690   39.8600 H   0  0  0  0  0  0  0  0  0  0  0  0
   41.6290   32.2180   39.7760 N   0  0  0  0  0  0  0  0  0  0  0  0
   42.3520   32.1010   40.8960 C   0  0  0  0  0  0  0  0  0  0  0  0
   42.1710   32.3020   41.9510 H   0  0  0  0  0  0  0  0  0  0  0  0
   43.5760   31.6220   40.6010 N   0  0  0  0  0  0  0  0  0  0  0  0
   43.6360   31.4300   39.2710 C   0  0  0  0  0  0  0  0  0  0  0  0
   44.5940   30.9680   38.3640 C   0  0  0  0  0  0  0  0  0  0  0  0
   44.3070   30.9030   37.0470 N   0  0  0  0  0  0  0  0  0  0  0  0
   43.0880   31.2820   36.5750 C   0  0  0  0  0  0  0  0  0  0  0  0
   42.9660   31.1890   35.5100 H   0  0  0  0  0  0  0  0  0  0  0  0
   42.1300   31.7370   37.4340 N   0  0  0  0  0  0  0  0  0  0  0  0
   42.3940   31.8100   38.7480 C   0  0  0  0  0  0  0  0  0  0  0  0
   45.8130   30.6080   38.9720 N   0  0  0  0  0  0  0  0  0  0  0  0
   46.3340   31.5300   39.0470 H   0  0  0  0  0  0  0  0  0  0  0  0
   45.6660   29.5730   39.0840 H   0  0  0  0  0  0  0  0  0  0  0  0
   36.7350   31.3800   39.7700 C   0  0  0  0  0  0  0  0  0  0  0  0
   35.9340   31.8700   39.1830 H   0  0  0  0  0  0  0  0  0  0  0  0
   36.9720   30.4480   39.1810 H   0  0  0  0  0  0  0  0  0  0  0  0
   36.2010   30.9250   41.0720 C   0  0  0  0  0  0  0  0  0  0  0  0
   35.1200   30.9750   41.1520 H   0  0  0  0  0  0  0  0  0  0  0  0
   36.6310   31.5860   41.8610 H   0  0  0  0  0  0  0  0  0  0  0  0
   37.9710   27.9990   42.1180 C   0  0  0  0  0  0  0  0  0  0  0  0
   36.8210   27.4390   41.5060 C   0  0  0  0  0  0  0  0  0  0  0  0
   36.0340   28.4470   41.0500 C   0  0  0  0  0  0  0  0  0  0  0  0
   36.6740   29.5790   41.3680 N   0  0  0  0  0  0  0  0  0  0  0  0
   37.8230   29.3130   42.0020 N   0  0  0  0  0  0  0  0  0  0  0  0
   36.6190   26.3750   41.4250 H   0  0  0  0  0  0  0  0  0  0  0  0
   35.0850   28.4210   40.5320 H   0  0  0  0  0  0  0  0  0  0  0  0
   41.0590   27.1520   43.8610 C   0  0  0  0  0  0  0  0  0  0  0  0
   41.0550   25.7670   43.8630 C   0  0  0  0  0  0  0  0  0  0  0  0
   39.9700   25.1120   43.2540 C   0  0  0  0  0  0  0  0  0  0  0  0
   39.0050   25.8820   42.7080 N   0  0  0  0  0  0  0  0  0  0  0  0
   39.0320   27.2270   42.7190 C   0  0  0  0  0  0  0  0  0  0  0  0
   40.0660   27.8620   43.2990 N   0  0  0  0  0  0  0  0  0  0  0  0
   41.9130   27.5900   44.3410 H   0  0  0  0  0  0  0  0  0  0  0  0
   41.7830   25.1110   44.2750 H   0  0  0  0  0  0  0  0  0  0  0  0
   39.8650   24.0440   43.1970 H   0  0  0  0  0  0  0  0  0  0  0  0
  1  2  2  0  0  0  0
  1  9  1  0  0  0  0
  2  3  1  0  0  0  0
  3 11  1  0  0  0  0
  3  4  2  0  0  0  0
  4  5  1  0  0  0  0
  5  6  1  0  0  0  0
  5 12  1  0  0  0  0
  6 13  1  0  0  0  0
  7  6  2  0  0  0  0
  8  4  1  0  0  0  0
  8  7  1  0  0  0  0
  9  8  2  0  0  0  0
 10  1  1  0  0  0  0
 14  7  1  0  0  0  0
 15  9  1  0  0  0  0
 15 16  1  0  0  0  0
 16 17  1  0  0  0  0
 18 16  2  0  0  0  0
 19 18  1  0  0  0  0
 20 26  1  0  0  0  0
 20 19  2  0  0  0  0
 21 20  1  0  0  0  0
 22 21  2  0  0  0  0
 22 24  1  0  0  0  0
 23 22  1  0  0  0  0
 24 25  2  0  0  0  0
 25 19  1  0  0  0  0
 25 15  1  0  0  0  0
 26 27  1  0  0  0  0
 26 28  1  0  0  0  0
 29  2  1  0  0  0  0
 29 32  1  0  0  0  0
 30 29  1  0  0  0  0
 31 29  1  0  0  0  0
 32 33  1  0  0  0  0
 32 38  1  0  0  0  0
 32 34  1  0  0  0  0
 35 46  1  0  0  0  0
 36 35  1  0  0  0  0
 37 38  1  0  0  0  0
 37 36  2  0  0  0  0
 38 39  1  0  0  0  0
 39 35  2  0  0  0  0
 40 36  1  0  0  0  0
 41 37  1  0  0  0  0
 42 43  1  0  0  0  0
 42 48  1  0  0  0  0
 43 49  1  0  0  0  0
 44 43  2  0  0  0  0
 45 46  2  0  0  0  0
 45 44  1  0  0  0  0
 46 47  1  0  0  0  0
 47 42  2  0  0  0  0
 50 44  1  0  0  0  0
M  END
>  <minimizedAffinity>
-6.98299503

$$$$

 OpenBabel03252506273D

 50 55  0  0  0  0  0  0  0  0999 V2000
   37.9870   29.0940   39.6040 C   0  0  0  0  0  0  0  0  0  0  0  0
   38.3740   30.2940   40.1690 C   0  0  0  0  0  0  0  0  0  0  0  0
   38.2020   30.4080   41.5510 C   0  0  0  0  0  0  0  0  0  0  0  0
   37.6780   29.3830   42.3060 C   0  0  0  0  0  0  0  0  0  0  0  0
   37.4030   29.2090   43.6180 N   0  0  0  0  0  0  0  0  0  0  0  0
   36.8870   27.9950   43.8410 C   0  0  0  0  0  0  0  0  0  0  0  0
   36.8040   27.3140   42.6450 C   0  0  0  0  0  0  0  0  0  0  0  0
   37.3000   28.2010   41.7280 C   0  0  0  0  0  0  0  0  0  0  0  0
   37.4670   28.0830   40.3610 C   0  0  0  0  0  0  0  0  0  0  0  0
   38.1470   29.0700   38.5250 H   0  0  0  0  0  0  0  0  0  0  0  0
   38.4580   31.2830   42.1340 H   0  0  0  0  0  0  0  0  0  0  0  0
   37.5640   29.9130   44.3720 H   0  0  0  0  0  0  0  0  0  0  0  0
   36.5740   27.5880   44.8090 H   0  0  0  0  0  0  0  0  0  0  0  0
   36.4220   26.3080   42.5430 H   0  0  0  0  0  0  0  0  0  0  0  0
   37.0940   26.8800   39.7010 N   0  0  0  0  0  0  0  0  0  0  0  0
   36.0020   26.8090   38.9310 C   0  0  0  0  0  0  0  0  0  0  0  0
   35.2250   27.5120   38.6350 H   0  0  0  0  0  0  0  0  0  0  0  0
   35.8790   25.5650   38.4280 N   0  0  0  0  0  0  0  0  0  0  0  0
   36.9080   24.8300   38.8850 C   0  0  0  0  0  0  0  0  0  0  0  0
   37.3440   23.5100   38.7390 C   0  0  0  0  0  0  0  0  0  0  0  0
   38.4640   23.0910   39.3650 N   0  0  0  0  0  0  0  0  0  0  0  0
   39.1900   23.9370   40.1460 C   0  0  0  0  0  0  0  0  0  0  0  0
   40.0640   23.5000   40.5960 H   0  0  0  0  0  0  0  0  0  0  0  0
   38.7920   25.2320   40.3080 N   0  0  0  0  0  0  0  0  0  0  0  0
   37.6810   25.6700   39.6960 C   0  0  0  0  0  0  0  0  0  0  0  0
   36.5110   22.7340   37.9090 N   0  0  0  0  0  0  0  0  0  0  0  0
   35.7450   22.4040   38.5660 H   0  0  0  0  0  0  0  0  0  0  0  0
   37.0220   22.8250   36.9950 H   0  0  0  0  0  0  0  0  0  0  0  0
   38.9430   31.4860   39.5590 C   0  0  0  0  0  0  0  0  0  0  0  0
   40.0320   31.5620   39.7420 H   0  0  0  0  0  0  0  0  0  0  0  0
   38.8640   31.3410   38.4430 H   0  0  0  0  0  0  0  0  0  0  0  0
   38.2890   32.7800   39.8580 C   0  0  0  0  0  0  0  0  0  0  0  0
   37.5210   32.7230   40.6220 H   0  0  0  0  0  0  0  0  0  0  0  0
   37.8090   33.1380   38.9180 H   0  0  0  0  0  0  0  0  0  0  0  0
   41.2180   34.6110   40.7830 C   0  0  0  0  0  0  0  0  0  0  0  0
   40.2610   35.6480   40.6360 C   0  0  0  0  0  0  0  0  0  0  0  0
   39.0730   35.0990   40.2790 C   0  0  0  0  0  0  0  0  0  0  0  0
   39.2900   33.7790   40.2090 N   0  0  0  0  0  0  0  0  0  0  0  0
   40.5620   33.4910   40.5080 N   0  0  0  0  0  0  0  0  0  0  0  0
   40.4650   36.7040   40.7890 H   0  0  0  0  0  0  0  0  0  0  0  0
   38.1150   35.5590   40.0780 H   0  0  0  0  0  0  0  0  0  0  0  0
   44.8550   34.3650   40.8250 C   0  0  0  0  0  0  0  0  0  0  0  0
   45.2210   35.2130   41.8570 C   0  0  0  0  0  0  0  0  0  0  0  0
   44.1980   35.8830   42.5510 C   0  0  0  0  0  0  0  0  0  0  0  0
   42.9260   35.6510   42.1610 N   0  0  0  0  0  0  0  0  0  0  0  0
   42.5960   34.8210   41.1550 C   0  0  0  0  0  0  0  0  0  0  0  0
   43.5690   34.1760   40.4860 N   0  0  0  0  0  0  0  0  0  0  0  0
   45.6810   33.8850   40.3370 H   0  0  0  0  0  0  0  0  0  0  0  0
   46.2000   35.4350   42.2060 H   0  0  0  0  0  0  0  0  0  0  0  0
   44.3670   36.5630   43.3660 H   0  0  0  0  0  0  0  0  0  0  0  0
  1  2  2  0  0  0  0
  1  9  1  0  0  0  0
  2  3  1  0  0  0  0
  3 11  1  0  0  0  0
  3  4  2  0  0  0  0
  4  5  1  0  0  0  0
  5  6  1  0  0  0  0
  5 12  1  0  0  0  0
  6 13  1  0  0  0  0
  7  6  2  0  0  0  0
  8  4  1  0  0  0  0
  8  7  1  0  0  0  0
  9  8  2  0  0  0  0
 10  1  1  0  0  0  0
 14  7  1  0  0  0  0
 15  9  1  0  0  0  0
 16 15  1  0  0  0  0
 17 16  1  0  0  0  0
 18 19  1  0  0  0  0
 18 16  2  0  0  0  0
 19 25  1  0  0  0  0
 20 19  2  0  0  0  0
 20 21  1  0  0  0  0
 21 22  2  0  0  0  0
 22 24  1  0  0  0  0
 22 23  1  0  0  0  0
 25 15  1  0  0  0  0
 25 24  2  0  0  0  0
 26 27  1  0  0  0  0
 26 20  1  0  0  0  0
 28 26  1  0  0  0  0
 29 30  1  0  0  0  0
 29 32  1  0  0  0  0
 29  2  1  0  0  0  0
 31 29  1  0  0  0  0
 32 38  1  0  0  0  0
 32 33  1  0  0  0  0
 34 32  1  0  0  0  0
 35 46  1  0  0  0  0
 36 35  1  0  0  0  0
 36 40  1  0  0  0  0
 37 36  2  0  0  0  0
 38 37  1  0  0  0  0
 38 39  1  0  0  0  0
 39 35  2  0  0  0  0
 41 37  1  0  0  0  0
 42 43  1  0  0  0  0
 43 49  1  0  0  0  0
 43 44  2  0  0  0  0
 44 50  1  0  0  0  0
 45 44  1  0  0  0  0
 46 45  2  0  0  0  0
 47 42  2  0  0  0  0
 47 46  1  0  0  0  0
 48 42  1  0  0  0  0
M  END
>  <minimizedAffinity>
-6.95893192

$$$$

 OpenBabel03252506273D

 50 55  0  0  0  0  0  0  0  0999 V2000
   39.1830   32.3620   41.1480 C   0  0  0  0  0  0  0  0  0  0  0  0
   38.7090   33.4580   40.4570 C   0  0  0  0  0  0  0  0  0  0  0  0
   37.9260   33.1850   39.3310 C   0  0  0  0  0  0  0  0  0  0  0  0
   37.6440   31.8970   38.9360 C   0  0  0  0  0  0  0  0  0  0  0  0
   36.9390   31.3430   37.9250 N   0  0  0  0  0  0  0  0  0  0  0  0
   36.9770   30.0070   37.9930 C   0  0  0  0  0  0  0  0  0  0  0  0
   37.7330   29.6330   39.0830 C   0  0  0  0  0  0  0  0  0  0  0  0
   38.1230   30.8230   39.6360 C   0  0  0  0  0  0  0  0  0  0  0  0
   38.8990   31.0870   40.7490 C   0  0  0  0  0  0  0  0  0  0  0  0
   39.7850   32.6420   42.0140 H   0  0  0  0  0  0  0  0  0  0  0  0
   37.4850   33.9380   38.6900 H   0  0  0  0  0  0  0  0  0  0  0  0
   36.4260   31.8670   37.1820 H   0  0  0  0  0  0  0  0  0  0  0  0
   36.4930   29.3060   37.3030 H   0  0  0  0  0  0  0  0  0  0  0  0
   37.9230   28.6080   39.3680 H   0  0  0  0  0  0  0  0  0  0  0  0
   39.4260   30.0140   41.5180 N   0  0  0  0  0  0  0  0  0  0  0  0
   40.7250   29.6940   41.4840 C   0  0  0  0  0  0  0  0  0  0  0  0
   41.5970   30.0830   40.9610 H   0  0  0  0  0  0  0  0  0  0  0  0
   40.9590   28.6470   42.2980 N   0  0  0  0  0  0  0  0  0  0  0  0
   39.7900   28.2910   42.8620 C   0  0  0  0  0  0  0  0  0  0  0  0
   39.3670   27.3150   43.7690 C   0  0  0  0  0  0  0  0  0  0  0  0
   38.0690   27.2410   44.1290 N   0  0  0  0  0  0  0  0  0  0  0  0
   37.1490   28.1060   43.6230 C   0  0  0  0  0  0  0  0  0  0  0  0
   36.1430   27.9580   43.9770 H   0  0  0  0  0  0  0  0  0  0  0  0
   37.5290   29.0710   42.7360 N   0  0  0  0  0  0  0  0  0  0  0  0
   38.8150   29.1630   42.3630 C   0  0  0  0  0  0  0  0  0  0  0  0
   40.4090   26.4810   44.2200 N   0  0  0  0  0  0  0  0  0  0  0  0
   40.4790   25.7410   43.4620 H   0  0  0  0  0  0  0  0  0  0  0  0
   40.6590   26.9660   45.1190 H   0  0  0  0  0  0  0  0  0  0  0  0
   38.8880   34.8820   40.7020 C   0  0  0  0  0  0  0  0  0  0  0  0
   37.9310   35.4330   40.6370 H   0  0  0  0  0  0  0  0  0  0  0  0
   39.1870   34.9820   41.7850 H   0  0  0  0  0  0  0  0  0  0  0  0
   39.9290   35.5810   39.9170 C   0  0  0  0  0  0  0  0  0  0  0  0
   39.8960   36.6620   39.9990 H   0  0  0  0  0  0  0  0  0  0  0  0
   39.7750   35.3160   38.8450 H   0  0  0  0  0  0  0  0  0  0  0  0
   42.9970   34.6420   41.4950 C   0  0  0  0  0  0  0  0  0  0  0  0
   43.1890   34.1590   40.1750 C   0  0  0  0  0  0  0  0  0  0  0  0
   42.0860   34.4460   39.4400 C   0  0  0  0  0  0  0  0  0  0  0  0
   41.2500   35.0790   40.2720 N   0  0  0  0  0  0  0  0  0  0  0  0
   41.7900   35.1960   41.4900 N   0  0  0  0  0  0  0  0  0  0  0  0
   44.0820   33.6440   39.8290 H   0  0  0  0  0  0  0  0  0  0  0  0
   41.8570   34.2410   38.4030 H   0  0  0  0  0  0  0  0  0  0  0  0
   45.1340   35.4710   44.3290 C   0  0  0  0  0  0  0  0  0  0  0  0
   45.8040   34.2850   44.5830 C   0  0  0  0  0  0  0  0  0  0  0  0
   45.5150   33.1800   43.7630 C   0  0  0  0  0  0  0  0  0  0  0  0
   44.6010   33.3520   42.7840 N   0  0  0  0  0  0  0  0  0  0  0  0
   43.9650   34.5150   42.5580 C   0  0  0  0  0  0  0  0  0  0  0  0
   44.2360   35.5790   43.3370 N   0  0  0  0  0  0  0  0  0  0  0  0
   45.4000   36.2750   44.9880 H   0  0  0  0  0  0  0  0  0  0  0  0
   46.5290   34.0910   45.3350 H   0  0  0  0  0  0  0  0  0  0  0  0
   45.9730   32.2140   43.8700 H   0  0  0  0  0  0  0  0  0  0  0  0
  1 10  1  0  0  0  0
  2 29  1  0  0  0  0
  2  1  2  0  0  0  0
  3  2  1  0  0  0  0
  4  3  2  0  0  0  0
  4  8  1  0  0  0  0
  5  6  1  0  0  0  0
  5  4  1  0  0  0  0
  6  7  2  0  0  0  0
  7 14  1  0  0  0  0
  7  8  1  0  0  0  0
  8  9  2  0  0  0  0
  9  1  1  0  0  0  0
  9 15  1  0  0  0  0
 11  3  1  0  0  0  0
 12  5  1  0  0  0  0
 13  6  1  0  0  0  0
 15 25  1  0  0  0  0
 16 15  1  0  0  0  0
 16 18  2  0  0  0  0
 17 16  1  0  0  0  0
 18 19  1  0  0  0  0
 19 20  1  0  0  0  0
 20 21  2  0  0  0  0
 20 26  1  0  0  0  0
 22 23  1  0  0  0  0
 22 21  1  0  0  0  0
 24 22  2  0  0  0  0
 25 24  1  0  0  0  0
 25 19  2  0  0  0  0
 26 28  1  0  0  0  0
 27 26  1  0  0  0  0
 29 31  1  0  0  0  0
 30 29  1  0  0  0  0
 32 33  1  0  0  0  0
 32 38  1  0  0  0  0
 32 29  1  0  0  0  0
 34 32  1  0  0  0  0
 35 46  1  0  0  0  0
 36 35  1  0  0  0  0
 37 36  2  0  0  0  0
 37 38  1  0  0  0  0
 38 39  1  0  0  0  0
 39 35  2  0  0  0  0
 40 36  1  0  0  0  0
 41 37  1  0  0  0  0
 42 43  1  0  0  0  0
 42 48  1  0  0  0  0
 43 49  1  0  0  0  0
 44 50  1  0  0  0  0
 44 43  2  0  0  0  0
 45 44  1  0  0  0  0
 46 45  2  0  0  0  0
 46 47  1  0  0  0  0
 47 42  2  0  0  0  0
M  END
>  <minimizedAffinity>
-6.95591354

$$$$

 OpenBabel03252506273D

 50 55  0  0  0  0  0  0  0  0999 V2000
   37.4880   27.3690   40.9180 C   0  0  0  0  0  0  0  0  0  0  0  0
   36.4260   27.8550   40.1820 C   0  0  0  0  0  0  0  0  0  0  0  0
   36.0190   27.0710   39.0980 C   0  0  0  0  0  0  0  0  0  0  0  0
   36.6410   25.8850   38.7840 C   0  0  0  0  0  0  0  0  0  0  0  0
   36.4740   24.9440   37.8270 N   0  0  0  0  0  0  0  0  0  0  0  0
   37.3670   23.9570   37.9670 C   0  0  0  0  0  0  0  0  0  0  0  0
   38.1710   24.2280   39.0530 C   0  0  0  0  0  0  0  0  0  0  0  0
   37.6930   25.4200   39.5260 C   0  0  0  0  0  0  0  0  0  0  0  0
   38.1000   26.1910   40.5990 C   0  0  0  0  0  0  0  0  0  0  0  0
   37.7550   28.0250   41.7480 H   0  0  0  0  0  0  0  0  0  0  0  0
   35.2040   27.3200   38.4300 H   0  0  0  0  0  0  0  0  0  0  0  0
   35.7530   24.9660   37.0720 H   0  0  0  0  0  0  0  0  0  0  0  0
   37.4590   23.0690   37.3320 H   0  0  0  0  0  0  0  0  0  0  0  0
   38.9760   23.5890   39.3870 H   0  0  0  0  0  0  0  0  0  0  0  0
   39.1870   25.7620   41.4100 N   0  0  0  0  0  0  0  0  0  0  0  0
   38.9970   25.0160   42.5040 C   0  0  0  0  0  0  0  0  0  0  0  0
   38.1270   24.5940   43.0040 H   0  0  0  0  0  0  0  0  0  0  0  0
   40.1830   24.7500   43.0850 N   0  0  0  0  0  0  0  0  0  0  0  0
   41.1460   25.3370   42.3510 C   0  0  0  0  0  0  0  0  0  0  0  0
   42.5380   25.4360   42.4130 C   0  0  0  0  0  0  0  0  0  0  0  0
   43.2120   26.1310   41.4730 N   0  0  0  0  0  0  0  0  0  0  0  0
   42.5580   26.7450   40.4500 C   0  0  0  0  0  0  0  0  0  0  0  0
   43.1920   27.2700   39.7570 H   0  0  0  0  0  0  0  0  0  0  0  0
   41.1990   26.6660   40.3590 N   0  0  0  0  0  0  0  0  0  0  0  0
   40.5080   25.9810   41.2840 C   0  0  0  0  0  0  0  0  0  0  0  0
   43.0990   24.7610   43.5150 N   0  0  0  0  0  0  0  0  0  0  0  0
   43.0170   25.4660   44.3060 H   0  0  0  0  0  0  0  0  0  0  0  0
   43.3540   23.8470   43.0630 H   0  0  0  0  0  0  0  0  0  0  0  0
   35.6390   29.0680   40.3430 C   0  0  0  0  0  0  0  0  0  0  0  0
   35.3140   29.4790   39.3680 H   0  0  0  0  0  0  0  0  0  0  0  0
   34.6770   28.7600   40.8430 H   0  0  0  0  0  0  0  0  0  0  0  0
   36.2160   30.1460   41.1780 C   0  0  0  0  0  0  0  0  0  0  0  0
   36.8820   29.7940   41.9590 H   0  0  0  0  0  0  0  0  0  0  0  0
   35.3690   30.6800   41.6680 H   0  0  0  0  0  0  0  0  0  0  0  0
   38.1670   32.8030   39.7930 C   0  0  0  0  0  0  0  0  0  0  0  0
   37.5390   32.2710   38.6380 C   0  0  0  0  0  0  0  0  0  0  0  0
   36.7490   31.2330   39.0090 C   0  0  0  0  0  0  0  0  0  0  0  0
   36.8850   31.1300   40.3370 N   0  0  0  0  0  0  0  0  0  0  0  0
   37.7260   32.0610   40.8010 N   0  0  0  0  0  0  0  0  0  0  0  0
   37.6810   32.6470   37.6280 H   0  0  0  0  0  0  0  0  0  0  0  0
   36.1160   30.5820   38.4200 H   0  0  0  0  0  0  0  0  0  0  0  0
   41.2130   34.7610   39.3680 C   0  0  0  0  0  0  0  0  0  0  0  0
   40.8310   36.0340   39.7580 C   0  0  0  0  0  0  0  0  0  0  0  0
   39.5010   36.2230   40.1740 C   0  0  0  0  0  0  0  0  0  0  0  0
   38.6870   35.1460   40.1650 N   0  0  0  0  0  0  0  0  0  0  0  0
   39.0820   33.9190   39.7820 C   0  0  0  0  0  0  0  0  0  0  0  0
   40.3530   33.7290   39.3820 N   0  0  0  0  0  0  0  0  0  0  0  0
   42.2380   34.6840   39.0620 H   0  0  0  0  0  0  0  0  0  0  0  0
   41.4240   36.9160   39.7850 H   0  0  0  0  0  0  0  0  0  0  0  0
   39.0980   37.1660   40.4970 H   0  0  0  0  0  0  0  0  0  0  0  0
  1 10  1  0  0  0  0
  2 29  1  0  0  0  0
  2  1  2  0  0  0  0
  3  2  1  0  0  0  0
  4  3  2  0  0  0  0
  4  8  1  0  0  0  0
  5  6  1  0  0  0  0
  5  4  1  0  0  0  0
  6  7  2  0  0  0  0
  7 14  1  0  0  0  0
  7  8  1  0  0  0  0
  8  9  2  0  0  0  0
  9  1  1  0  0  0  0
  9 15  1  0  0  0  0
 11  3  1  0  0  0  0
 12  5  1  0  0  0  0
 13  6  1  0  0  0  0
 15 16  1  0  0  0  0
 16 17  1  0  0  0  0
 16 18  2  0  0  0  0
 19 20  1  0  0  0  0
 19 18  1  0  0  0  0
 20 26  1  0  0  0  0
 21 20  2  0  0  0  0
 22 21  1  0  0  0  0
 23 22  1  0  0  0  0
 24 22  2  0  0  0  0
 24 25  1  0  0  0  0
 25 15  1  0  0  0  0
 25 19  2  0  0  0  0
 26 27  1  0  0  0  0
 28 26  1  0  0  0  0
 29 31  1  0  0  0  0
 29 32  1  0  0  0  0
 30 29  1  0  0  0  0
 32 34  1  0  0  0  0
 32 33  1  0  0  0  0
 35 39  2  0  0  0  0
 36 37  2  0  0  0  0
 36 35  1  0  0  0  0
 37 38  1  0  0  0  0
 38 39  1  0  0  0  0
 38 32  1  0  0  0  0
 40 36  1  0  0  0  0
 41 37  1  0  0  0  0
 42 47  2  0  0  0  0
 42 43  1  0  0  0  0
 43 49  1  0  0  0  0
 43 44  2  0  0  0  0
 44 50  1  0  0  0  0
 45 44  1  0  0  0  0
 46 35  1  0  0  0  0
 46 45  2  0  0  0  0
 47 46  1  0  0  0  0
 48 42  1  0  0  0  0
M  END
>  <minimizedAffinity>
-6.87900448

$$$$

 OpenBabel03252506273D

 50 55  0  0  0  0  0  0  0  0999 V2000
   39.2750   31.7880   39.7880 C   0  0  0  0  0  0  0  0  0  0  0  0
   37.9520   32.1830   39.8020 C   0  0  0  0  0  0  0  0  0  0  0  0
   37.7210   33.5610   39.8440 C   0  0  0  0  0  0  0  0  0  0  0  0
   38.7530   34.4710   39.8700 C   0  0  0  0  0  0  0  0  0  0  0  0
   38.8350   35.8200   39.9110 N   0  0  0  0  0  0  0  0  0  0  0  0
   40.1120   36.2200   39.9210 C   0  0  0  0  0  0  0  0  0  0  0  0
   40.9320   35.1130   39.8860 C   0  0  0  0  0  0  0  0  0  0  0  0
   40.0590   34.0590   39.8550 C   0  0  0  0  0  0  0  0  0  0  0  0
   40.2920   32.6980   39.8150 C   0  0  0  0  0  0  0  0  0  0  0  0
   39.3860   30.7030   39.7550 H   0  0  0  0  0  0  0  0  0  0  0  0
   36.7410   34.0210   39.8600 H   0  0  0  0  0  0  0  0  0  0  0  0
   38.0250   36.4780   39.9320 H   0  0  0  0  0  0  0  0  0  0  0  0
   40.4680   37.2560   39.9510 H   0  0  0  0  0  0  0  0  0  0  0  0
   42.0110   35.1560   39.8850 H   0  0  0  0  0  0  0  0  0  0  0  0
   41.6270   32.2070   39.7970 N   0  0  0  0  0  0  0  0  0  0  0  0
   42.3430   32.0750   40.9200 C   0  0  0  0  0  0  0  0  0  0  0  0
   42.1570   32.2650   41.9750 H   0  0  0  0  0  0  0  0  0  0  0  0
   43.5670   31.5920   40.6260 N   0  0  0  0  0  0  0  0  0  0  0  0
   43.6330   31.4140   39.2950 C   0  0  0  0  0  0  0  0  0  0  0  0
   44.5930   30.9560   38.3880 C   0  0  0  0  0  0  0  0  0  0  0  0
   44.3120   30.9070   37.0690 N   0  0  0  0  0  0  0  0  0  0  0  0
   43.0980   31.2970   36.5940 C   0  0  0  0  0  0  0  0  0  0  0  0
   42.9810   31.2150   35.5270 H   0  0  0  0  0  0  0  0  0  0  0  0
   42.1380   31.7470   37.4530 N   0  0  0  0  0  0  0  0  0  0  0  0
   42.3960   31.8060   38.7690 C   0  0  0  0  0  0  0  0  0  0  0  0
   45.8070   30.5840   38.9990 N   0  0  0  0  0  0  0  0  0  0  0  0
   46.3320   31.5020   39.0860 H   0  0  0  0  0  0  0  0  0  0  0  0
   45.6540   29.5480   39.0990 H   0  0  0  0  0  0  0  0  0  0  0  0
   36.7290   31.3940   39.7800 C   0  0  0  0  0  0  0  0  0  0  0  0
   35.9360   31.8830   39.1830 H   0  0  0  0  0  0  0  0  0  0  0  0
   36.9660   30.4560   39.2020 H   0  0  0  0  0  0  0  0  0  0  0  0
   36.1810   30.9540   41.0820 C   0  0  0  0  0  0  0  0  0  0  0  0
   35.0980   30.9130   41.1180 H   0  0  0  0  0  0  0  0  0  0  0  0
   36.5200   31.6840   41.8540 H   0  0  0  0  0  0  0  0  0  0  0  0
   37.1380   27.5260   41.4330 C   0  0  0  0  0  0  0  0  0  0  0  0
   37.9040   28.1470   42.4520 C   0  0  0  0  0  0  0  0  0  0  0  0
   37.6440   29.4790   42.4440 C   0  0  0  0  0  0  0  0  0  0  0  0
   36.7550   29.6690   41.4610 N   0  0  0  0  0  0  0  0  0  0  0  0
   36.4550   28.5110   40.8620 N   0  0  0  0  0  0  0  0  0  0  0  0
   38.5840   27.6250   43.1200 H   0  0  0  0  0  0  0  0  0  0  0  0
   38.0300   30.2760   43.0650 H   0  0  0  0  0  0  0  0  0  0  0  0
   36.6970   24.3550   39.6900 C   0  0  0  0  0  0  0  0  0  0  0  0
   37.1920   23.4240   40.5890 C   0  0  0  0  0  0  0  0  0  0  0  0
   37.6860   23.8970   41.8180 C   0  0  0  0  0  0  0  0  0  0  0  0
   37.6440   25.2290   42.0360 N   0  0  0  0  0  0  0  0  0  0  0  0
   37.1580   26.1120   41.1460 C   0  0  0  0  0  0  0  0  0  0  0  0
   36.6820   25.6690   39.9680 N   0  0  0  0  0  0  0  0  0  0  0  0
   36.3350   23.9310   38.7730 H   0  0  0  0  0  0  0  0  0  0  0  0
   37.2510   22.3690   40.4740 H   0  0  0  0  0  0  0  0  0  0  0  0
   38.0930   23.2660   42.5870 H   0  0  0  0  0  0  0  0  0  0  0  0
  1  2  2  0  0  0  0
  1  9  1  0  0  0  0
  2  3  1  0  0  0  0
  3 11  1  0  0  0  0
  3  4  2  0  0  0  0
  4  5  1  0  0  0  0
  5  6  1  0  0  0  0
  5 12  1  0  0  0  0
  6 13  1  0  0  0  0
  7  6  2  0  0  0  0
  8  4  1  0  0  0  0
  8  7  1  0  0  0  0
  9  8  2  0  0  0  0
 10  1  1  0  0  0  0
 14  7  1  0  0  0  0
 15  9  1  0  0  0  0
 15 16  1  0  0  0  0
 16 17  1  0  0  0  0
 18 16  2  0  0  0  0
 19 18  1  0  0  0  0
 20 26  1  0  0  0  0
 20 19  2  0  0  0  0
 21 20  1  0  0  0  0
 22 21  2  0  0  0  0
 22 24  1  0  0  0  0
 23 22  1  0  0  0  0
 24 25  2  0  0  0  0
 25 19  1  0  0  0  0
 25 15  1  0  0  0  0
 26 27  1  0  0  0  0
 26 28  1  0  0  0  0
 29  2  1  0  0  0  0
 29 32  1  0  0  0  0
 30 29  1  0  0  0  0
 31 29  1  0  0  0  0
 32 33  1  0  0  0  0
 32 38  1  0  0  0  0
 32 34  1  0  0  0  0
 35 36  1  0  0  0  0
 36 40  1  0  0  0  0
 37 36  2  0  0  0  0
 37 41  1  0  0  0  0
 38 37  1  0  0  0  0
 39 35  2  0  0  0  0
 39 38  1  0  0  0  0
 42 47  2  0  0  0  0
 42 43  1  0  0  0  0
 43 44  2  0  0  0  0
 44 45  1  0  0  0  0
 44 50  1  0  0  0  0
 46 35  1  0  0  0  0
 46 45  2  0  0  0  0
 47 46  1  0  0  0  0
 48 42  1  0  0  0  0
 49 43  1  0  0  0  0
M  END
>  <minimizedAffinity>
-6.79523563

$$$$
