
 OpenBabel03242519183D

 47 51  0  0  1  0  0  0  0  0999 V2000
   36.9530   28.5440   41.7900 C   0  0  0  0  0  0  0  0  0  0  0  0
   37.0290   27.6560   42.8370 C   0  0  0  0  0  0  0  0  0  0  0  0
   38.1910   27.4670   43.5970 C   0  0  0  0  0  0  0  0  0  0  0  0
   39.2570   28.2260   43.2290 N   0  0  0  0  0  0  0  0  0  0  0  0
   39.1780   29.0910   42.2080 C   0  0  0  0  0  0  0  0  0  0  0  0
   38.0480   29.2400   41.5080 N   0  0  0  0  0  0  0  0  0  0  0  0
   36.1320   27.0770   43.0790 H   0  0  0  0  0  0  0  0  0  0  0  0
   38.2110   26.7590   44.4140 H   0  0  0  0  0  0  0  0  0  0  0  0
   40.3410   29.9550   41.8140 C   0  0  2  0  0  0  0  0  0  0  0  0
   40.8450   30.9580   42.8050 C   0  0  0  0  0  0  0  0  0  0  0  0
   40.0400   31.3920   41.5710 C   0  0  1  0  0  0  0  0  0  0  0  0
   40.9730   29.4540   41.0670 H   0  0  0  0  0  0  0  0  0  0  0  0
   40.3270   31.0260   43.7800 H   0  0  0  0  0  0  0  0  0  0  0  0
   41.9330   31.1590   42.8330 H   0  0  0  0  0  0  0  0  0  0  0  0
   39.0500   31.8300   41.7290 H   0  0  0  0  0  0  0  0  0  0  0  0
   40.8680   32.0300   40.5680 N   0  0  0  0  0  0  0  0  0  0  0  0
   41.8360   31.4540   39.8050 C   0  0  0  0  0  0  0  0  0  0  0  0
   42.1490   30.4180   39.8210 H   0  0  0  0  0  0  0  0  0  0  0  0
   42.3870   32.3900   38.9790 N   0  0  0  0  0  0  0  0  0  0  0  0
   41.7640   33.5690   39.2180 C   0  0  0  0  0  0  0  0  0  0  0  0
   41.8600   34.8670   38.7220 C   0  0  0  0  0  0  0  0  0  0  0  0
   41.0730   35.8570   39.1810 N   0  0  0  0  0  0  0  0  0  0  0  0
   40.1700   35.6250   40.1320 C   0  0  0  0  0  0  0  0  0  0  0  0
   39.4800   36.3200   40.5880 H   0  0  0  0  0  0  0  0  0  0  0  0
   40.0670   34.3770   40.6180 N   0  0  0  0  0  0  0  0  0  0  0  0
   40.8240   33.3370   40.2060 C   0  0  0  0  0  0  0  0  0  0  0  0
   42.8020   35.1460   37.7190 N   0  0  0  0  0  0  0  0  0  0  0  0
   43.3170   34.4810   37.1350 H   0  0  0  0  0  0  0  0  0  0  0  0
   43.0610   36.1470   37.4830 H   0  0  0  0  0  0  0  0  0  0  0  0
   35.7390   28.7310   41.0280 C   0  0  0  0  0  0  0  0  0  0  0  0
   35.5580   27.8930   40.3170 H   0  0  0  0  0  0  0  0  0  0  0  0
   34.8630   28.7100   41.7260 H   0  0  0  0  0  0  0  0  0  0  0  0
   35.7530   30.0730   40.3660 C   0  0  0  0  0  0  0  0  0  0  0  0
   34.7820   30.6000   40.4280 H   0  0  0  0  0  0  0  0  0  0  0  0
   36.4950   30.7430   40.8490 H   0  0  0  0  0  0  0  0  0  0  0  0
   37.4110   32.3320   39.3360 Cl  0  0  0  0  0  0  0  0  0  0  0  0
   36.9190   31.0000   38.3430 C   0  0  0  0  0  0  0  0  0  0  0  0
   36.1540   30.0120   38.9250 C   0  0  0  0  0  0  0  0  0  0  0  0
   35.7600   28.9450   38.1330 C   0  0  0  0  0  0  0  0  0  0  0  0
   36.1230   28.8790   36.8050 C   0  0  0  0  0  0  0  0  0  0  0  0
   36.8980   29.8820   36.2220 C   0  0  0  0  0  0  0  0  0  0  0  0
   37.2880   30.9460   37.0210 C   0  0  0  0  0  0  0  0  0  0  0  0
   35.1680   28.1500   38.5230 H   0  0  0  0  0  0  0  0  0  0  0  0
   35.7980   28.0270   36.2090 H   0  0  0  0  0  0  0  0  0  0  0  0
   37.1900   29.8420   35.1820 H   0  0  0  0  0  0  0  0  0  0  0  0
   38.0630   31.9960   36.5320 O   0  0  0  0  0  0  0  0  0  0  0  0
   38.5930   31.7890   35.6820 H   0  0  0  0  0  0  0  0  0  0  0  0
  1  2  1  0  0  0  0
  2  7  1  0  0  0  0
  2  3  2  0  0  0  0
  3  8  1  0  0  0  0
  4  3  1  0  0  0  0
  5  4  2  0  0  0  0
  6  1  2  0  0  0  0
  6  5  1  0  0  0  0
  9 12  1  6  0  0  0
  9  5  1  0  0  0  0
  9 10  1  0  0  0  0
 10 14  1  0  0  0  0
 10 13  1  0  0  0  0
 11 15  1  1  0  0  0
 11  9  1  0  0  0  0
 11 10  1  0  0  0  0
 16 11  1  0  0  0  0
 17 18  1  0  0  0  0
 17 16  1  0  0  0  0
 19 20  1  0  0  0  0
 19 17  2  0  0  0  0
 20 26  1  0  0  0  0
 21 22  1  0  0  0  0
 21 20  2  0  0  0  0
 22 23  2  0  0  0  0
 23 24  1  0  0  0  0
 23 25  1  0  0  0  0
 26 16  1  0  0  0  0
 26 25  2  0  0  0  0
 27 21  1  0  0  0  0
 28 27  1  0  0  0  0
 29 27  1  0  0  0  0
 30 32  1  0  0  0  0
 30  1  1  0  0  0  0
 31 30  1  0  0  0  0
 33 34  1  0  0  0  0
 33 35  1  0  0  0  0
 33 30  1  0  0  0  0
 37 38  1  0  0  0  0
 37 36  1  0  0  0  0
 38 33  1  0  0  0  0
 39 43  1  0  0  0  0
 39 38  2  0  0  0  0
 40 39  1  0  0  0  0
 41 40  2  0  0  0  0
 41 42  1  0  0  0  0
 42 37  2  0  0  0  0
 44 40  1  0  0  0  0
 45 41  1  0  0  0  0
 46 42  1  0  0  0  0
 47 46  1  0  0  0  0
M  END
>  <minimizedAffinity>
-7.30943871

$$$$

 OpenBabel03242519183D

 47 51  0  0  1  0  0  0  0  0999 V2000
   36.8670   29.3520   41.7680 C   0  0  0  0  0  0  0  0  0  0  0  0
   36.2000   28.8650   40.6690 C   0  0  0  0  0  0  0  0  0  0  0  0
   36.0170   29.6060   39.4940 C   0  0  0  0  0  0  0  0  0  0  0  0
   36.5470   30.8580   39.5070 N   0  0  0  0  0  0  0  0  0  0  0  0
   37.1970   31.3290   40.5810 C   0  0  0  0  0  0  0  0  0  0  0  0
   37.3480   30.5860   41.6830 N   0  0  0  0  0  0  0  0  0  0  0  0
   35.7980   27.8480   40.7270 H   0  0  0  0  0  0  0  0  0  0  0  0
   35.4860   29.1880   38.6500 H   0  0  0  0  0  0  0  0  0  0  0  0
   37.8120   32.6980   40.5930 C   0  0  2  0  0  0  0  0  0  0  0  0
   37.4890   33.6300   39.4660 C   0  0  0  0  0  0  0  0  0  0  0  0
   38.8650   32.9560   39.5740 C   0  0  1  0  0  0  0  0  0  0  0  0
   38.0340   33.0240   41.6200 H   0  0  0  0  0  0  0  0  0  0  0  0
   36.8210   33.2600   38.6670 H   0  0  0  0  0  0  0  0  0  0  0  0
   37.4020   34.7100   39.6950 H   0  0  0  0  0  0  0  0  0  0  0  0
   39.1440   32.2280   38.8070 H   0  0  0  0  0  0  0  0  0  0  0  0
   39.9020   33.8800   39.9840 N   0  0  0  0  0  0  0  0  0  0  0  0
   39.9550   35.2210   39.7530 C   0  0  0  0  0  0  0  0  0  0  0  0
   39.2270   35.8200   39.2220 H   0  0  0  0  0  0  0  0  0  0  0  0
   41.0930   35.7360   40.3010 N   0  0  0  0  0  0  0  0  0  0  0  0
   41.7680   34.7170   40.8850 C   0  0  0  0  0  0  0  0  0  0  0  0
   42.9620   34.5850   41.5910 C   0  0  0  0  0  0  0  0  0  0  0  0
   43.3760   33.3930   42.0590 N   0  0  0  0  0  0  0  0  0  0  0  0
   42.6520   32.2940   41.8610 C   0  0  0  0  0  0  0  0  0  0  0  0
   42.8630   31.2820   42.1790 H   0  0  0  0  0  0  0  0  0  0  0  0
   41.4980   32.4070   41.1820 N   0  0  0  0  0  0  0  0  0  0  0  0
   41.0230   33.5690   40.6830 C   0  0  0  0  0  0  0  0  0  0  0  0
   43.7500   35.7230   41.8180 N   0  0  0  0  0  0  0  0  0  0  0  0
   43.4830   36.7070   41.7100 H   0  0  0  0  0  0  0  0  0  0  0  0
   44.7550   35.6310   42.1420 H   0  0  0  0  0  0  0  0  0  0  0  0
   37.0540   28.5640   42.9650 C   0  0  0  0  0  0  0  0  0  0  0  0
   38.0720   28.6920   43.3950 H   0  0  0  0  0  0  0  0  0  0  0  0
   36.3570   28.9360   43.7600 H   0  0  0  0  0  0  0  0  0  0  0  0
   36.7030   27.1350   42.6950 C   0  0  0  0  0  0  0  0  0  0  0  0
   35.9280   26.7390   43.3790 H   0  0  0  0  0  0  0  0  0  0  0  0
   36.2940   27.0150   41.6700 H   0  0  0  0  0  0  0  0  0  0  0  0
   36.4600   24.5270   41.2610 Cl  0  0  0  0  0  0  0  0  0  0  0  0
   37.8840   24.9900   42.1340 C   0  0  0  0  0  0  0  0  0  0  0  0
   37.8850   26.2190   42.7580 C   0  0  0  0  0  0  0  0  0  0  0  0
   39.0230   26.5910   43.4560 C   0  0  0  0  0  0  0  0  0  0  0  0
   40.1170   25.7560   43.5210 C   0  0  0  0  0  0  0  0  0  0  0  0
   40.1100   24.5130   42.8860 C   0  0  0  0  0  0  0  0  0  0  0  0
   38.9680   24.1480   42.1900 C   0  0  0  0  0  0  0  0  0  0  0  0
   39.0860   27.5270   43.9600 H   0  0  0  0  0  0  0  0  0  0  0  0
   40.9970   26.0770   44.0770 H   0  0  0  0  0  0  0  0  0  0  0  0
   40.9620   23.8480   42.9290 H   0  0  0  0  0  0  0  0  0  0  0  0
   38.8640   22.9290   41.5240 O   0  0  0  0  0  0  0  0  0  0  0  0
   39.7540   22.4780   41.2950 H   0  0  0  0  0  0  0  0  0  0  0  0
  1 30  1  0  0  0  0
  2  7  1  0  0  0  0
  2  1  2  0  0  0  0
  3  4  2  0  0  0  0
  3  2  1  0  0  0  0
  4  5  1  0  0  0  0
  5  9  1  0  0  0  0
  5  6  2  0  0  0  0
  6  1  1  0  0  0  0
  8  3  1  0  0  0  0
  9 12  1  1  0  0  0
 10 11  1  0  0  0  0
 10 14  1  0  0  0  0
 10  9  1  0  0  0  0
 11 15  1  6  0  0  0
 11 16  1  0  0  0  0
 11  9  1  0  0  0  0
 13 10  1  0  0  0  0
 16 26  1  0  0  0  0
 17 16  1  0  0  0  0
 17 19  2  0  0  0  0
 18 17  1  0  0  0  0
 19 20  1  0  0  0  0
 20 21  1  0  0  0  0
 21 27  1  0  0  0  0
 21 22  2  0  0  0  0
 23 22  1  0  0  0  0
 23 24  1  0  0  0  0
 25 23  2  0  0  0  0
 26 20  2  0  0  0  0
 26 25  1  0  0  0  0
 27 29  1  0  0  0  0
 28 27  1  0  0  0  0
 30 31  1  0  0  0  0
 30 32  1  0  0  0  0
 33 38  1  0  0  0  0
 33 30  1  0  0  0  0
 33 34  1  0  0  0  0
 35 33  1  0  0  0  0
 36 37  1  0  0  0  0
 37 42  2  0  0  0  0
 37 38  1  0  0  0  0
 38 39  2  0  0  0  0
 39 40  1  0  0  0  0
 39 43  1  0  0  0  0
 40 44  1  0  0  0  0
 41 45  1  0  0  0  0
 41 40  2  0  0  0  0
 42 41  1  0  0  0  0
 46 42  1  0  0  0  0
 47 46  1  0  0  0  0
M  END
>  <minimizedAffinity>
-7.29617834

$$$$

 OpenBabel03242519183D

 47 51  0  0  1  0  0  0  0  0999 V2000
   37.2570   28.8410   42.3900 C   0  0  0  0  0  0  0  0  0  0  0  0
   36.2240   28.3640   41.6180 C   0  0  0  0  0  0  0  0  0  0  0  0
   35.6800   29.0770   40.5410 C   0  0  0  0  0  0  0  0  0  0  0  0
   36.2460   30.2900   40.3020 N   0  0  0  0  0  0  0  0  0  0  0  0
   37.2530   30.7510   41.0570 C   0  0  0  0  0  0  0  0  0  0  0  0
   37.7410   30.0360   42.0770 N   0  0  0  0  0  0  0  0  0  0  0  0
   35.8150   27.3790   41.8670 H   0  0  0  0  0  0  0  0  0  0  0  0
   34.8680   28.6680   39.9570 H   0  0  0  0  0  0  0  0  0  0  0  0
   37.9040   32.0750   40.7820 C   0  0  2  0  0  0  0  0  0  0  0  0
   37.6340   32.7370   39.4660 C   0  0  0  0  0  0  0  0  0  0  0  0
   38.9880   32.0770   39.7630 C   0  0  1  0  0  0  0  0  0  0  0  0
   38.1090   32.6190   41.7160 H   0  0  0  0  0  0  0  0  0  0  0  0
   36.9760   32.2110   38.7490 H   0  0  0  0  0  0  0  0  0  0  0  0
   37.5690   33.8420   39.4440 H   0  0  0  0  0  0  0  0  0  0  0  0
   39.2670   31.1900   39.1860 H   0  0  0  0  0  0  0  0  0  0  0  0
   40.0390   33.0490   39.9870 N   0  0  0  0  0  0  0  0  0  0  0  0
   40.1690   34.2760   39.4120 C   0  0  0  0  0  0  0  0  0  0  0  0
   39.5040   34.7290   38.6880 H   0  0  0  0  0  0  0  0  0  0  0  0
   41.2920   34.8870   39.8850 N   0  0  0  0  0  0  0  0  0  0  0  0
   41.8810   34.0440   40.7670 C   0  0  0  0  0  0  0  0  0  0  0  0
   43.0200   34.0740   41.5680 C   0  0  0  0  0  0  0  0  0  0  0  0
   43.3480   33.0420   42.3660 N   0  0  0  0  0  0  0  0  0  0  0  0
   42.5880   31.9500   42.4150 C   0  0  0  0  0  0  0  0  0  0  0  0
   42.7320   31.0560   43.0050 H   0  0  0  0  0  0  0  0  0  0  0  0
   41.4860   31.9090   41.6480 N   0  0  0  0  0  0  0  0  0  0  0  0
   41.0980   32.9060   40.8240 C   0  0  0  0  0  0  0  0  0  0  0  0
   43.8440   35.2100   41.5410 N   0  0  0  0  0  0  0  0  0  0  0  0
   43.6300   36.1350   41.1550 H   0  0  0  0  0  0  0  0  0  0  0  0
   44.8210   35.1800   41.9500 H   0  0  0  0  0  0  0  0  0  0  0  0
   37.8090   28.0810   43.4890 C   0  0  0  0  0  0  0  0  0  0  0  0
   38.4540   28.7060   44.1460 H   0  0  0  0  0  0  0  0  0  0  0  0
   36.9730   27.7370   44.1510 H   0  0  0  0  0  0  0  0  0  0  0  0
   38.5010   26.8610   42.9700 C   0  0  0  0  0  0  0  0  0  0  0  0
   38.1430   25.9240   43.4380 H   0  0  0  0  0  0  0  0  0  0  0  0
   38.3270   26.7420   41.8800 H   0  0  0  0  0  0  0  0  0  0  0  0
   39.9340   24.2480   43.1430 Cl  0  0  0  0  0  0  0  0  0  0  0  0
   40.7520   25.7730   43.2200 C   0  0  0  0  0  0  0  0  0  0  0  0
   39.9880   26.9180   43.1290 C   0  0  0  0  0  0  0  0  0  0  0  0
   40.6400   28.1390   43.1890 C   0  0  0  0  0  0  0  0  0  0  0  0
   42.0080   28.2030   43.3360 C   0  0  0  0  0  0  0  0  0  0  0  0
   42.7760   27.0410   43.4270 C   0  0  0  0  0  0  0  0  0  0  0  0
   42.1160   25.8230   43.3660 C   0  0  0  0  0  0  0  0  0  0  0  0
   40.1070   29.0580   43.1250 H   0  0  0  0  0  0  0  0  0  0  0  0
   42.4920   29.1790   43.3790 H   0  0  0  0  0  0  0  0  0  0  0  0
   43.8500   27.0770   43.5420 H   0  0  0  0  0  0  0  0  0  0  0  0
   42.7930   24.6080   43.4470 O   0  0  0  0  0  0  0  0  0  0  0  0
   43.7920   24.6480   43.2220 H   0  0  0  0  0  0  0  0  0  0  0  0
  1 30  1  0  0  0  0
  2  7  1  0  0  0  0
  2  1  2  0  0  0  0
  3  2  1  0  0  0  0
  4  3  2  0  0  0  0
  4  5  1  0  0  0  0
  5  6  2  0  0  0  0
  6  1  1  0  0  0  0
  8  3  1  0  0  0  0
  9  5  1  0  0  0  0
  9 12  1  1  0  0  0
 10 11  1  0  0  0  0
 10  9  1  0  0  0  0
 11 15  1  6  0  0  0
 11 16  1  0  0  0  0
 11  9  1  0  0  0  0
 13 10  1  0  0  0  0
 14 10  1  0  0  0  0
 16 26  1  0  0  0  0
 17 19  2  0  0  0  0
 17 16  1  0  0  0  0
 18 17  1  0  0  0  0
 19 20  1  0  0  0  0
 20 26  2  0  0  0  0
 20 21  1  0  0  0  0
 21 22  2  0  0  0  0
 22 23  1  0  0  0  0
 23 24  1  0  0  0  0
 25 23  2  0  0  0  0
 26 25  1  0  0  0  0
 27 21  1  0  0  0  0
 27 29  1  0  0  0  0
 28 27  1  0  0  0  0
 30 31  1  0  0  0  0
 30 32  1  0  0  0  0
 33 38  1  0  0  0  0
 33 34  1  0  0  0  0
 33 30  1  0  0  0  0
 35 33  1  0  0  0  0
 36 37  1  0  0  0  0
 37 42  1  0  0  0  0
 38 39  1  0  0  0  0
 38 37  2  0  0  0  0
 39 40  2  0  0  0  0
 40 44  1  0  0  0  0
 40 41  1  0  0  0  0
 41 45  1  0  0  0  0
 42 41  2  0  0  0  0
 42 46  1  0  0  0  0
 43 39  1  0  0  0  0
 47 46  1  0  0  0  0
M  END
>  <minimizedAffinity>
-7.2299304

$$$$

 OpenBabel03242519183D

 47 51  0  0  1  0  0  0  0  0999 V2000
   36.8680   30.9270   40.5690 C   0  0  0  0  0  0  0  0  0  0  0  0
   35.7190   30.5820   39.8970 C   0  0  0  0  0  0  0  0  0  0  0  0
   35.1420   29.3070   39.9710 C   0  0  0  0  0  0  0  0  0  0  0  0
   35.7980   28.4160   40.7610 N   0  0  0  0  0  0  0  0  0  0  0  0
   36.9180   28.7560   41.4150 C   0  0  0  0  0  0  0  0  0  0  0  0
   37.4350   29.9860   41.3150 N   0  0  0  0  0  0  0  0  0  0  0  0
   35.2430   31.3490   39.2780 H   0  0  0  0  0  0  0  0  0  0  0  0
   34.2370   29.0750   39.4260 H   0  0  0  0  0  0  0  0  0  0  0  0
   37.6310   27.7880   42.3130 C   0  0  2  0  0  0  0  0  0  0  0  0
   37.7660   28.1350   43.7630 C   0  0  0  0  0  0  0  0  0  0  0  0
   38.9670   28.2140   42.8110 C   0  0  1  0  0  0  0  0  0  0  0  0
   37.5570   26.7610   41.9280 H   0  0  0  0  0  0  0  0  0  0  0  0
   37.3430   29.0980   44.1050 H   0  0  0  0  0  0  0  0  0  0  0  0
   37.7190   27.3100   44.5000 H   0  0  0  0  0  0  0  0  0  0  0  0
   39.3960   29.1980   42.6020 H   0  0  0  0  0  0  0  0  0  0  0  0
   39.9130   27.1380   43.0240 N   0  0  0  0  0  0  0  0  0  0  0  0
   39.6500   25.8040   43.0860 C   0  0  0  0  0  0  0  0  0  0  0  0
   38.6850   25.3250   42.9840 H   0  0  0  0  0  0  0  0  0  0  0  0
   40.8090   25.1170   43.3000 N   0  0  0  0  0  0  0  0  0  0  0  0
   41.8160   26.0200   43.3750 C   0  0  0  0  0  0  0  0  0  0  0  0
   43.1930   25.9640   43.5740 C   0  0  0  0  0  0  0  0  0  0  0  0
   43.9480   27.0780   43.5980 N   0  0  0  0  0  0  0  0  0  0  0  0
   43.3970   28.2790   43.4320 C   0  0  0  0  0  0  0  0  0  0  0  0
   43.8790   29.2460   43.4280 H   0  0  0  0  0  0  0  0  0  0  0  0
   42.0690   28.3460   43.2380 N   0  0  0  0  0  0  0  0  0  0  0  0
   41.2520   27.2710   43.2040 C   0  0  0  0  0  0  0  0  0  0  0  0
   43.8070   24.7150   43.7530 N   0  0  0  0  0  0  0  0  0  0  0  0
   43.4170   23.7870   43.5620 H   0  0  0  0  0  0  0  0  0  0  0  0
   44.7960   24.6460   44.1290 H   0  0  0  0  0  0  0  0  0  0  0  0
   37.4390   32.2520   40.4870 C   0  0  0  0  0  0  0  0  0  0  0  0
   36.7890   32.9520   39.9150 H   0  0  0  0  0  0  0  0  0  0  0  0
   37.4970   32.6890   41.5170 H   0  0  0  0  0  0  0  0  0  0  0  0
   38.8350   32.1740   39.9540 C   0  0  0  0  0  0  0  0  0  0  0  0
   39.4890   31.5020   40.5410 H   0  0  0  0  0  0  0  0  0  0  0  0
   38.8400   31.7760   38.9180 H   0  0  0  0  0  0  0  0  0  0  0  0
   41.5870   32.2240   38.7990 Cl  0  0  0  0  0  0  0  0  0  0  0  0
   40.7760   33.6520   39.3520 C   0  0  0  0  0  0  0  0  0  0  0  0
   39.5050   33.5100   39.8670 C   0  0  0  0  0  0  0  0  0  0  0  0
   38.8530   34.6500   40.3100 C   0  0  0  0  0  0  0  0  0  0  0  0
   39.4600   35.8850   40.2360 C   0  0  0  0  0  0  0  0  0  0  0  0
   40.7470   36.0220   39.7120 C   0  0  0  0  0  0  0  0  0  0  0  0
   41.3920   34.8760   39.2720 C   0  0  0  0  0  0  0  0  0  0  0  0
   37.8710   34.6070   40.7180 H   0  0  0  0  0  0  0  0  0  0  0  0
   38.9220   36.7630   40.5910 H   0  0  0  0  0  0  0  0  0  0  0  0
   41.2350   36.9850   39.6480 H   0  0  0  0  0  0  0  0  0  0  0  0
   42.6770   34.9090   38.7340 O   0  0  0  0  0  0  0  0  0  0  0  0
   42.9790   35.8210   38.3790 H   0  0  0  0  0  0  0  0  0  0  0  0
  1  6  1  0  0  0  0
  2  3  1  0  0  0  0
  2  1  2  0  0  0  0
  3  4  2  0  0  0  0
  4  5  1  0  0  0  0
  5  9  1  0  0  0  0
  6  5  2  0  0  0  0
  7  2  1  0  0  0  0
  8  3  1  0  0  0  0
  9 12  1  6  0  0  0
  9 11  1  0  0  0  0
  9 10  1  0  0  0  0
 10 13  1  0  0  0  0
 10 14  1  0  0  0  0
 11 15  1  6  0  0  0
 11 16  1  0  0  0  0
 11 10  1  0  0  0  0
 16 17  1  0  0  0  0
 16 26  1  0  0  0  0
 17 19  2  0  0  0  0
 18 17  1  0  0  0  0
 19 20  1  0  0  0  0
 20 21  1  0  0  0  0
 21 22  2  0  0  0  0
 21 27  1  0  0  0  0
 23 22  1  0  0  0  0
 24 23  1  0  0  0  0
 25 23  2  0  0  0  0
 26 25  1  0  0  0  0
 26 20  2  0  0  0  0
 27 29  1  0  0  0  0
 28 27  1  0  0  0  0
 30  1  1  0  0  0  0
 30 32  1  0  0  0  0
 31 30  1  0  0  0  0
 33 30  1  0  0  0  0
 33 34  1  0  0  0  0
 35 33  1  0  0  0  0
 36 37  1  0  0  0  0
 37 38  1  0  0  0  0
 38 33  1  0  0  0  0
 38 39  2  0  0  0  0
 39 43  1  0  0  0  0
 40 39  1  0  0  0  0
 40 44  1  0  0  0  0
 41 40  2  0  0  0  0
 42 37  2  0  0  0  0
 42 41  1  0  0  0  0
 45 41  1  0  0  0  0
 46 42  1  0  0  0  0
 47 46  1  0  0  0  0
M  END
>  <minimizedAffinity>
-7.1687479

$$$$

 OpenBabel03242519183D

 47 51  0  0  1  0  0  0  0  0999 V2000
   37.1800   28.7070   41.6860 C   0  0  0  0  0  0  0  0  0  0  0  0
   37.3850   27.7690   42.6700 C   0  0  0  0  0  0  0  0  0  0  0  0
   38.6060   27.6180   43.3410 C   0  0  0  0  0  0  0  0  0  0  0  0
   39.5930   28.4690   42.9530 N   0  0  0  0  0  0  0  0  0  0  0  0
   39.3880   29.3830   41.9940 C   0  0  0  0  0  0  0  0  0  0  0  0
   38.2060   29.4920   41.3790 N   0  0  0  0  0  0  0  0  0  0  0  0
   36.5470   27.1160   42.9330 H   0  0  0  0  0  0  0  0  0  0  0  0
   38.7280   26.8670   44.1100 H   0  0  0  0  0  0  0  0  0  0  0  0
   40.4620   30.3470   41.5810 C   0  0  2  0  0  0  0  0  0  0  0  0
   41.1120   31.1800   42.6420 C   0  0  0  0  0  0  0  0  0  0  0  0
   40.1120   31.7920   41.6500 C   0  0  1  0  0  0  0  0  0  0  0  0
   40.9680   30.0090   40.6650 H   0  0  0  0  0  0  0  0  0  0  0  0
   40.7610   31.0560   43.6830 H   0  0  0  0  0  0  0  0  0  0  0  0
   42.1880   31.4140   42.5310 H   0  0  0  0  0  0  0  0  0  0  0  0
   39.1570   32.1570   42.0400 H   0  0  0  0  0  0  0  0  0  0  0  0
   40.7580   32.6270   40.6590 N   0  0  0  0  0  0  0  0  0  0  0  0
   41.1790   33.9130   40.8070 C   0  0  0  0  0  0  0  0  0  0  0  0
   41.1000   34.5260   41.6960 H   0  0  0  0  0  0  0  0  0  0  0  0
   41.7380   34.3500   39.6420 N   0  0  0  0  0  0  0  0  0  0  0  0
   41.6720   33.3360   38.7470 C   0  0  0  0  0  0  0  0  0  0  0  0
   42.0570   33.1480   37.4210 C   0  0  0  0  0  0  0  0  0  0  0  0
   41.8470   31.9810   36.7850 N   0  0  0  0  0  0  0  0  0  0  0  0
   41.2590   30.9610   37.4070 C   0  0  0  0  0  0  0  0  0  0  0  0
   41.0310   29.9780   37.0200 H   0  0  0  0  0  0  0  0  0  0  0  0
   40.8840   31.1290   38.6860 N   0  0  0  0  0  0  0  0  0  0  0  0
   41.0620   32.2710   39.3850 C   0  0  0  0  0  0  0  0  0  0  0  0
   42.6790   34.2020   36.7350 N   0  0  0  0  0  0  0  0  0  0  0  0
   43.0850   35.0580   37.1280 H   0  0  0  0  0  0  0  0  0  0  0  0
   42.7760   34.1790   35.6800 H   0  0  0  0  0  0  0  0  0  0  0  0
   35.9080   28.8530   41.0160 C   0  0  0  0  0  0  0  0  0  0  0  0
   35.6950   28.0000   40.3330 H   0  0  0  0  0  0  0  0  0  0  0  0
   35.0870   28.8210   41.7790 H   0  0  0  0  0  0  0  0  0  0  0  0
   35.8370   30.1840   40.3370 C   0  0  0  0  0  0  0  0  0  0  0  0
   34.8390   30.6560   40.4060 H   0  0  0  0  0  0  0  0  0  0  0  0
   36.5460   30.9010   40.8010 H   0  0  0  0  0  0  0  0  0  0  0  0
   37.4840   32.4450   39.2940 Cl  0  0  0  0  0  0  0  0  0  0  0  0
   36.9810   31.1150   38.3030 C   0  0  0  0  0  0  0  0  0  0  0  0
   36.2220   30.1260   38.8920 C   0  0  0  0  0  0  0  0  0  0  0  0
   35.8190   29.0610   38.1020 C   0  0  0  0  0  0  0  0  0  0  0  0
   36.1670   28.9970   36.7700 C   0  0  0  0  0  0  0  0  0  0  0  0
   36.9360   30.0020   36.1810 C   0  0  0  0  0  0  0  0  0  0  0  0
   37.3350   31.0640   36.9780 C   0  0  0  0  0  0  0  0  0  0  0  0
   35.2320   28.2660   38.4970 H   0  0  0  0  0  0  0  0  0  0  0  0
   35.8360   28.1470   36.1750 H   0  0  0  0  0  0  0  0  0  0  0  0
   37.2160   29.9640   35.1370 H   0  0  0  0  0  0  0  0  0  0  0  0
   38.1040   32.1150   36.4820 O   0  0  0  0  0  0  0  0  0  0  0  0
   38.6260   31.9090   35.6250 H   0  0  0  0  0  0  0  0  0  0  0  0
  1  2  1  0  0  0  0
  2  7  1  0  0  0  0
  2  3  2  0  0  0  0
  3  8  1  0  0  0  0
  4  3  1  0  0  0  0
  5  4  2  0  0  0  0
  6  1  2  0  0  0  0
  6  5  1  0  0  0  0
  9 12  1  6  0  0  0
  9 11  1  0  0  0  0
  9  5  1  0  0  0  0
  9 10  1  0  0  0  0
 10 13  1  0  0  0  0
 11 15  1  1  0  0  0
 11 10  1  0  0  0  0
 14 10  1  0  0  0  0
 16 17  1  0  0  0  0
 16 11  1  0  0  0  0
 17 18  1  0  0  0  0
 19 17  2  0  0  0  0
 20 26  1  0  0  0  0
 20 19  1  0  0  0  0
 21 20  2  0  0  0  0
 22 23  2  0  0  0  0
 22 21  1  0  0  0  0
 23 25  1  0  0  0  0
 24 23  1  0  0  0  0
 25 26  2  0  0  0  0
 26 16  1  0  0  0  0
 27 28  1  0  0  0  0
 27 21  1  0  0  0  0
 29 27  1  0  0  0  0
 30  1  1  0  0  0  0
 30 32  1  0  0  0  0
 31 30  1  0  0  0  0
 33 34  1  0  0  0  0
 33 35  1  0  0  0  0
 33 30  1  0  0  0  0
 37 38  1  0  0  0  0
 37 36  1  0  0  0  0
 38 33  1  0  0  0  0
 39 43  1  0  0  0  0
 39 38  2  0  0  0  0
 40 39  1  0  0  0  0
 41 40  2  0  0  0  0
 41 42  1  0  0  0  0
 42 37  2  0  0  0  0
 44 40  1  0  0  0  0
 45 41  1  0  0  0  0
 46 42  1  0  0  0  0
 47 46  1  0  0  0  0
M  END
>  <minimizedAffinity>
-7.13380623

$$$$

 OpenBabel03242519183D

 47 51  0  0  1  0  0  0  0  0999 V2000
   36.8920   29.3170   41.6690 C   0  0  0  0  0  0  0  0  0  0  0  0
   35.7890   28.7730   41.0530 C   0  0  0  0  0  0  0  0  0  0  0  0
   35.3330   29.1870   39.7940 C   0  0  0  0  0  0  0  0  0  0  0  0
   36.0590   30.1760   39.2090 N   0  0  0  0  0  0  0  0  0  0  0  0
   37.1340   30.7030   39.8120 C   0  0  0  0  0  0  0  0  0  0  0  0
   37.5340   30.2780   41.0150 N   0  0  0  0  0  0  0  0  0  0  0  0
   35.2510   27.9800   41.5820 H   0  0  0  0  0  0  0  0  0  0  0  0
   34.4610   28.7340   39.3430 H   0  0  0  0  0  0  0  0  0  0  0  0
   37.9590   31.7740   39.1590 C   0  0  2  0  0  0  0  0  0  0  0  0
   38.1810   31.6950   37.6810 C   0  0  0  0  0  0  0  0  0  0  0  0
   39.3040   31.3650   38.6740 C   0  0  1  0  0  0  0  0  0  0  0  0
   37.9080   32.7150   39.7270 H   0  0  0  0  0  0  0  0  0  0  0  0
   37.7370   30.8400   37.1370 H   0  0  0  0  0  0  0  0  0  0  0  0
   38.2300   32.6430   37.1120 H   0  0  0  0  0  0  0  0  0  0  0  0
   39.6670   30.3340   38.7190 H   0  0  0  0  0  0  0  0  0  0  0  0
   40.3170   32.4000   38.7280 N   0  0  0  0  0  0  0  0  0  0  0  0
   40.2350   33.6060   39.3530 C   0  0  0  0  0  0  0  0  0  0  0  0
   39.3950   33.9920   39.9160 H   0  0  0  0  0  0  0  0  0  0  0  0
   41.3970   34.2960   39.1720 N   0  0  0  0  0  0  0  0  0  0  0  0
   42.2240   33.5240   38.4260 C   0  0  0  0  0  0  0  0  0  0  0  0
   43.5130   33.6480   37.9120 C   0  0  0  0  0  0  0  0  0  0  0  0
   44.0780   32.6700   37.1830 N   0  0  0  0  0  0  0  0  0  0  0  0
   43.4180   31.5420   36.9260 C   0  0  0  0  0  0  0  0  0  0  0  0
   43.7480   30.6830   36.3600 H   0  0  0  0  0  0  0  0  0  0  0  0
   42.1740   31.4090   37.4170 N   0  0  0  0  0  0  0  0  0  0  0  0
   41.5460   32.3500   38.1550 C   0  0  0  0  0  0  0  0  0  0  0  0
   44.2370   34.8240   38.1630 N   0  0  0  0  0  0  0  0  0  0  0  0
   44.0340   35.5550   38.8530 H   0  0  0  0  0  0  0  0  0  0  0  0
   45.1120   35.0500   37.6100 H   0  0  0  0  0  0  0  0  0  0  0  0
   37.3510   28.8660   42.9630 C   0  0  0  0  0  0  0  0  0  0  0  0
   38.4390   29.0450   43.1060 H   0  0  0  0  0  0  0  0  0  0  0  0
   36.8510   29.4740   43.7600 H   0  0  0  0  0  0  0  0  0  0  0  0
   36.9550   27.4380   43.1750 C   0  0  0  0  0  0  0  0  0  0  0  0
   36.4310   27.2690   44.1350 H   0  0  0  0  0  0  0  0  0  0  0  0
   36.2550   27.1000   42.3820 H   0  0  0  0  0  0  0  0  0  0  0  0
   36.5530   24.9280   41.6100 Cl  0  0  0  0  0  0  0  0  0  0  0  0
   38.0410   25.3040   42.4150 C   0  0  0  0  0  0  0  0  0  0  0  0
   38.1140   26.4930   43.1090 C   0  0  0  0  0  0  0  0  0  0  0  0
   39.3030   26.7960   43.7520 C   0  0  0  0  0  0  0  0  0  0  0  0
   40.3760   25.9330   43.6980 C   0  0  0  0  0  0  0  0  0  0  0  0
   40.2950   24.7310   42.9930 C   0  0  0  0  0  0  0  0  0  0  0  0
   39.1020   24.4350   42.3530 C   0  0  0  0  0  0  0  0  0  0  0  0
   39.4230   27.6980   44.3050 H   0  0  0  0  0  0  0  0  0  0  0  0
   41.2980   26.2000   44.2140 H   0  0  0  0  0  0  0  0  0  0  0  0
   41.1300   24.0450   42.9430 H   0  0  0  0  0  0  0  0  0  0  0  0
   38.9230   23.2610   41.6240 O   0  0  0  0  0  0  0  0  0  0  0  0
   39.7850   22.8040   41.3120 H   0  0  0  0  0  0  0  0  0  0  0  0
  1 30  1  0  0  0  0
  2  7  1  0  0  0  0
  2  1  1  0  0  0  0
  3  2  2  0  0  0  0
  4  3  1  0  0  0  0
  4  5  2  0  0  0  0
  5  6  1  0  0  0  0
  6  1  2  0  0  0  0
  8  3  1  0  0  0  0
  9 12  1  1  0  0  0
  9  5  1  0  0  0  0
 10 11  1  0  0  0  0
 10  9  1  0  0  0  0
 11 15  1  1  0  0  0
 11 16  1  0  0  0  0
 11  9  1  0  0  0  0
 13 10  1  0  0  0  0
 14 10  1  0  0  0  0
 16 17  1  0  0  0  0
 17 18  1  0  0  0  0
 19 17  2  0  0  0  0
 20 19  1  0  0  0  0
 21 27  1  0  0  0  0
 21 20  2  0  0  0  0
 22 21  1  0  0  0  0
 23 22  2  0  0  0  0
 23 25  1  0  0  0  0
 24 23  1  0  0  0  0
 25 26  2  0  0  0  0
 26 20  1  0  0  0  0
 26 16  1  0  0  0  0
 27 28  1  0  0  0  0
 29 27  1  0  0  0  0
 30 31  1  0  0  0  0
 30 33  1  0  0  0  0
 30 32  1  0  0  0  0
 33 34  1  0  0  0  0
 35 33  1  0  0  0  0
 36 37  1  0  0  0  0
 37 38  1  0  0  0  0
 38 33  1  0  0  0  0
 38 39  2  0  0  0  0
 39 43  1  0  0  0  0
 40 39  1  0  0  0  0
 40 44  1  0  0  0  0
 41 40  2  0  0  0  0
 42 37  2  0  0  0  0
 42 41  1  0  0  0  0
 45 41  1  0  0  0  0
 46 42  1  0  0  0  0
 47 46  1  0  0  0  0
M  END
>  <minimizedAffinity>
-7.05702925

$$$$

 OpenBabel03242519183D

 47 51  0  0  1  0  0  0  0  0999 V2000
   36.5350   28.4060   41.0500 C   0  0  0  0  0  0  0  0  0  0  0  0
   36.1930   27.6160   39.9780 C   0  0  0  0  0  0  0  0  0  0  0  0
   36.1560   28.0900   38.6590 C   0  0  0  0  0  0  0  0  0  0  0  0
   36.4840   29.3990   38.5020 N   0  0  0  0  0  0  0  0  0  0  0  0
   36.8170   30.1660   39.5500 C   0  0  0  0  0  0  0  0  0  0  0  0
   36.8390   29.6730   40.7930 N   0  0  0  0  0  0  0  0  0  0  0  0
   35.9400   26.5700   40.1770 H   0  0  0  0  0  0  0  0  0  0  0  0
   35.8820   27.4360   37.8420 H   0  0  0  0  0  0  0  0  0  0  0  0
   37.2100   31.6050   39.3810 C   0  0  2  0  0  0  0  0  0  0  0  0
   37.6750   32.0590   38.0330 C   0  0  0  0  0  0  0  0  0  0  0  0
   38.6610   31.8740   39.1950 C   0  0  1  0  0  0  0  0  0  0  0  0
   36.6820   32.2470   40.1020 H   0  0  0  0  0  0  0  0  0  0  0  0
   37.7200   31.3080   37.2230 H   0  0  0  0  0  0  0  0  0  0  0  0
   37.4120   33.0860   37.7120 H   0  0  0  0  0  0  0  0  0  0  0  0
   39.4100   31.0800   39.1130 H   0  0  0  0  0  0  0  0  0  0  0  0
   39.1260   33.1360   39.7320 N   0  0  0  0  0  0  0  0  0  0  0  0
   38.3690   34.1960   40.1270 C   0  0  0  0  0  0  0  0  0  0  0  0
   37.2890   34.2700   40.1040 H   0  0  0  0  0  0  0  0  0  0  0  0
   39.1800   35.1970   40.5760 N   0  0  0  0  0  0  0  0  0  0  0  0
   40.4610   34.7710   40.4660 C   0  0  0  0  0  0  0  0  0  0  0  0
   41.7170   35.3030   40.7460 C   0  0  0  0  0  0  0  0  0  0  0  0
   42.8450   34.6050   40.5180 N   0  0  0  0  0  0  0  0  0  0  0  0
   42.7950   33.3740   40.0130 C   0  0  0  0  0  0  0  0  0  0  0  0
   43.6140   32.7080   39.7820 H   0  0  0  0  0  0  0  0  0  0  0  0
   41.5890   32.8490   39.7390 N   0  0  0  0  0  0  0  0  0  0  0  0
   40.4180   33.4920   39.9420 C   0  0  0  0  0  0  0  0  0  0  0  0
   41.8070   36.5980   41.2790 N   0  0  0  0  0  0  0  0  0  0  0  0
   41.0580   37.1630   41.6910 H   0  0  0  0  0  0  0  0  0  0  0  0
   42.7310   37.1170   41.2900 H   0  0  0  0  0  0  0  0  0  0  0  0
   36.5770   27.8920   42.4000 C   0  0  0  0  0  0  0  0  0  0  0  0
   35.5610   27.8050   42.8460 H   0  0  0  0  0  0  0  0  0  0  0  0
   36.9740   26.8450   42.3800 H   0  0  0  0  0  0  0  0  0  0  0  0
   37.5160   28.7120   43.2280 C   0  0  0  0  0  0  0  0  0  0  0  0
   37.5910   29.7630   42.8920 H   0  0  0  0  0  0  0  0  0  0  0  0
   37.1770   28.7530   44.2850 H   0  0  0  0  0  0  0  0  0  0  0  0
   39.7390   30.5180   42.3880 Cl  0  0  0  0  0  0  0  0  0  0  0  0
   40.0020   28.8880   42.9130 C   0  0  0  0  0  0  0  0  0  0  0  0
   38.9010   28.1440   43.2790 C   0  0  0  0  0  0  0  0  0  0  0  0
   39.1090   26.8410   43.7000 C   0  0  0  0  0  0  0  0  0  0  0  0
   40.3790   26.3080   43.7500 C   0  0  0  0  0  0  0  0  0  0  0  0
   41.4900   27.0670   43.3790 C   0  0  0  0  0  0  0  0  0  0  0  0
   41.2730   28.3700   42.9590 C   0  0  0  0  0  0  0  0  0  0  0  0
   38.2990   26.2150   43.9950 H   0  0  0  0  0  0  0  0  0  0  0  0
   40.5100   25.2800   44.0860 H   0  0  0  0  0  0  0  0  0  0  0  0
   42.4920   26.6610   43.4140 H   0  0  0  0  0  0  0  0  0  0  0  0
   42.3170   29.2070   42.5690 O   0  0  0  0  0  0  0  0  0  0  0  0
   43.2440   28.9400   42.9140 H   0  0  0  0  0  0  0  0  0  0  0  0
  1 30  1  0  0  0  0
  2  7  1  0  0  0  0
  2  1  2  0  0  0  0
  3  2  1  0  0  0  0
  4  3  2  0  0  0  0
  4  5  1  0  0  0  0
  5  6  2  0  0  0  0
  6  1  1  0  0  0  0
  8  3  1  0  0  0  0
  9  5  1  0  0  0  0
  9 12  1  1  0  0  0
 10 11  1  0  0  0  0
 10  9  1  0  0  0  0
 11 15  1  6  0  0  0
 11  9  1  0  0  0  0
 11 16  1  0  0  0  0
 13 10  1  0  0  0  0
 14 10  1  0  0  0  0
 16 26  1  0  0  0  0
 16 17  1  0  0  0  0
 17 19  2  0  0  0  0
 18 17  1  0  0  0  0
 20 19  1  0  0  0  0
 20 21  1  0  0  0  0
 21 27  1  0  0  0  0
 22 21  2  0  0  0  0
 23 22  1  0  0  0  0
 24 23  1  0  0  0  0
 25 26  1  0  0  0  0
 25 23  2  0  0  0  0
 26 20  2  0  0  0  0
 27 29  1  0  0  0  0
 27 28  1  0  0  0  0
 30 31  1  0  0  0  0
 30 33  1  0  0  0  0
 32 30  1  0  0  0  0
 33 38  1  0  0  0  0
 33 35  1  0  0  0  0
 34 33  1  0  0  0  0
 36 37  1  0  0  0  0
 37 42  2  0  0  0  0
 37 38  1  0  0  0  0
 38 39  2  0  0  0  0
 39 40  1  0  0  0  0
 39 43  1  0  0  0  0
 40 44  1  0  0  0  0
 41 45  1  0  0  0  0
 41 40  2  0  0  0  0
 42 41  1  0  0  0  0
 46 47  1  0  0  0  0
 46 42  1  0  0  0  0
M  END
>  <minimizedAffinity>
-6.99647665

$$$$

 OpenBabel03242519183D

 47 51  0  0  1  0  0  0  0  0999 V2000
   38.0670   27.6900   40.9210 C   0  0  0  0  0  0  0  0  0  0  0  0
   38.0680   27.0240   42.1240 C   0  0  0  0  0  0  0  0  0  0  0  0
   38.9150   27.3650   43.1880 C   0  0  0  0  0  0  0  0  0  0  0  0
   39.7510   28.4110   42.9530 N   0  0  0  0  0  0  0  0  0  0  0  0
   39.7470   29.0580   41.7790 C   0  0  0  0  0  0  0  0  0  0  0  0
   38.9210   28.6990   40.7900 N   0  0  0  0  0  0  0  0  0  0  0  0
   37.3690   26.1900   42.2440 H   0  0  0  0  0  0  0  0  0  0  0  0
   38.8850   26.8160   44.1190 H   0  0  0  0  0  0  0  0  0  0  0  0
   40.6440   30.2340   41.5230 C   0  0  2  0  0  0  0  0  0  0  0  0
   40.8450   31.2250   42.6260 C   0  0  0  0  0  0  0  0  0  0  0  0
   39.9770   31.5580   41.4040 C   0  0  1  0  0  0  0  0  0  0  0  0
   41.4000   29.9970   40.7600 H   0  0  0  0  0  0  0  0  0  0  0  0
   40.3100   31.0530   43.5790 H   0  0  0  0  0  0  0  0  0  0  0  0
   41.8400   31.7010   42.7220 H   0  0  0  0  0  0  0  0  0  0  0  0
   38.9030   31.7020   41.5590 H   0  0  0  0  0  0  0  0  0  0  0  0
   40.6230   32.4930   40.5050 N   0  0  0  0  0  0  0  0  0  0  0  0
   40.9180   33.8000   40.7430 C   0  0  0  0  0  0  0  0  0  0  0  0
   40.7180   34.3590   41.6470 H   0  0  0  0  0  0  0  0  0  0  0  0
   41.5260   34.3390   39.6470 N   0  0  0  0  0  0  0  0  0  0  0  0
   41.6180   33.3680   38.7070 C   0  0  0  0  0  0  0  0  0  0  0  0
   42.1190   33.2780   37.4100 C   0  0  0  0  0  0  0  0  0  0  0  0
   42.0600   32.1310   36.7090 N   0  0  0  0  0  0  0  0  0  0  0  0
   41.5170   31.0370   37.2370 C   0  0  0  0  0  0  0  0  0  0  0  0
   41.4050   30.0590   36.7910 H   0  0  0  0  0  0  0  0  0  0  0  0
   41.0300   31.1100   38.4870 N   0  0  0  0  0  0  0  0  0  0  0  0
   41.0550   32.2260   39.2470 C   0  0  0  0  0  0  0  0  0  0  0  0
   42.6990   34.4130   36.8230 N   0  0  0  0  0  0  0  0  0  0  0  0
   42.9980   35.2790   37.2830 H   0  0  0  0  0  0  0  0  0  0  0  0
   42.8790   34.4510   35.7790 H   0  0  0  0  0  0  0  0  0  0  0  0
   37.1760   27.3280   39.8430 C   0  0  0  0  0  0  0  0  0  0  0  0
   37.7250   27.1350   38.8940 H   0  0  0  0  0  0  0  0  0  0  0  0
   36.6790   26.3540   40.0910 H   0  0  0  0  0  0  0  0  0  0  0  0
   36.1000   28.3580   39.7030 C   0  0  0  0  0  0  0  0  0  0  0  0
   35.2310   28.0030   39.1160 H   0  0  0  0  0  0  0  0  0  0  0  0
   35.6990   28.6470   40.6960 H   0  0  0  0  0  0  0  0  0  0  0  0
   36.0500   30.7920   41.4300 Cl  0  0  0  0  0  0  0  0  0  0  0  0
   36.6050   30.8170   39.7890 C   0  0  0  0  0  0  0  0  0  0  0  0
   36.5840   29.6320   39.0850 C   0  0  0  0  0  0  0  0  0  0  0  0
   37.0290   29.6490   37.7720 C   0  0  0  0  0  0  0  0  0  0  0  0
   37.4770   30.8170   37.1930 C   0  0  0  0  0  0  0  0  0  0  0  0
   37.4960   32.0130   37.9120 C   0  0  0  0  0  0  0  0  0  0  0  0
   37.0500   31.9870   39.2240 C   0  0  0  0  0  0  0  0  0  0  0  0
   37.0370   28.7680   37.1760 H   0  0  0  0  0  0  0  0  0  0  0  0
   37.8200   30.7980   36.1590 H   0  0  0  0  0  0  0  0  0  0  0  0
   37.8450   32.9360   37.4700 H   0  0  0  0  0  0  0  0  0  0  0  0
   37.0310   33.1280   40.0240 O   0  0  0  0  0  0  0  0  0  0  0  0
   37.6510   33.8840   39.7210 H   0  0  0  0  0  0  0  0  0  0  0  0
  1  2  1  0  0  0  0
  2  7  1  0  0  0  0
  2  3  2  0  0  0  0
  3  8  1  0  0  0  0
  4  3  1  0  0  0  0
  5  4  2  0  0  0  0
  6  1  2  0  0  0  0
  6  5  1  0  0  0  0
  9 12  1  6  0  0  0
  9  5  1  0  0  0  0
  9 10  1  0  0  0  0
 10 14  1  0  0  0  0
 10 13  1  0  0  0  0
 11  9  1  0  0  0  0
 11 15  1  1  0  0  0
 11 10  1  0  0  0  0
 16 17  1  0  0  0  0
 16 11  1  0  0  0  0
 17 18  1  0  0  0  0
 19 17  2  0  0  0  0
 20 26  1  0  0  0  0
 20 19  1  0  0  0  0
 21 20  2  0  0  0  0
 22 23  2  0  0  0  0
 22 21  1  0  0  0  0
 23 25  1  0  0  0  0
 24 23  1  0  0  0  0
 25 26  2  0  0  0  0
 26 16  1  0  0  0  0
 27 28  1  0  0  0  0
 27 21  1  0  0  0  0
 29 27  1  0  0  0  0
 30 32  1  0  0  0  0
 30  1  1  0  0  0  0
 31 30  1  0  0  0  0
 33 30  1  0  0  0  0
 33 35  1  0  0  0  0
 34 33  1  0  0  0  0
 37 36  1  0  0  0  0
 38 33  1  0  0  0  0
 38 37  2  0  0  0  0
 39 38  1  0  0  0  0
 40 39  2  0  0  0  0
 40 41  1  0  0  0  0
 41 42  2  0  0  0  0
 42 37  1  0  0  0  0
 42 46  1  0  0  0  0
 43 39  1  0  0  0  0
 44 40  1  0  0  0  0
 45 41  1  0  0  0  0
 47 46  1  0  0  0  0
M  END
>  <minimizedAffinity>
-6.95054722

$$$$

 OpenBabel03242519183D

 47 51  0  0  1  0  0  0  0  0999 V2000
   39.8150   26.8660   41.7710 C   0  0  0  0  0  0  0  0  0  0  0  0
   40.5410   26.2710   42.7760 C   0  0  0  0  0  0  0  0  0  0  0  0
   41.4850   26.9600   43.5490 C   0  0  0  0  0  0  0  0  0  0  0  0
   41.6430   28.2740   43.2410 N   0  0  0  0  0  0  0  0  0  0  0  0
   40.9340   28.8510   42.2610 C   0  0  0  0  0  0  0  0  0  0  0  0
   40.0420   28.1550   41.5460 N   0  0  0  0  0  0  0  0  0  0  0  0
   40.3630   25.2090   42.9710 H   0  0  0  0  0  0  0  0  0  0  0  0
   42.0360   26.4550   44.3310 H   0  0  0  0  0  0  0  0  0  0  0  0
   41.0800   30.3080   41.9330 C   0  0  2  0  0  0  0  0  0  0  0  0
   40.0890   31.2680   42.5160 C   0  0  0  0  0  0  0  0  0  0  0  0
   40.0490   30.8870   41.0290 C   0  0  1  0  0  0  0  0  0  0  0  0
   42.1260   30.5610   41.7080 H   0  0  0  0  0  0  0  0  0  0  0  0
   39.2840   30.8550   43.1530 H   0  0  0  0  0  0  0  0  0  0  0  0
   40.4490   32.2750   42.8020 H   0  0  0  0  0  0  0  0  0  0  0  0
   39.1880   30.3190   40.6660 H   0  0  0  0  0  0  0  0  0  0  0  0
   40.5170   31.9570   40.1720 N   0  0  0  0  0  0  0  0  0  0  0  0
   40.2460   33.2860   40.2850 C   0  0  0  0  0  0  0  0  0  0  0  0
   39.6340   33.7650   41.0390 H   0  0  0  0  0  0  0  0  0  0  0  0
   40.8730   33.9680   39.2840 N   0  0  0  0  0  0  0  0  0  0  0  0
   41.5460   33.0670   38.5290 C   0  0  0  0  0  0  0  0  0  0  0  0
   42.3570   33.1200   37.3980 C   0  0  0  0  0  0  0  0  0  0  0  0
   42.8990   32.0100   36.8660 N   0  0  0  0  0  0  0  0  0  0  0  0
   42.6760   30.8150   37.4090 C   0  0  0  0  0  0  0  0  0  0  0  0
   43.0450   29.8510   37.0890 H   0  0  0  0  0  0  0  0  0  0  0  0
   41.8960   30.7500   38.5020 N   0  0  0  0  0  0  0  0  0  0  0  0
   41.3200   31.8220   39.0870 C   0  0  0  0  0  0  0  0  0  0  0  0
   42.6130   34.3640   36.7990 N   0  0  0  0  0  0  0  0  0  0  0  0
   42.4490   35.2970   37.1890 H   0  0  0  0  0  0  0  0  0  0  0  0
   43.0260   34.4210   35.8240 H   0  0  0  0  0  0  0  0  0  0  0  0
   38.8380   26.1390   40.9940 C   0  0  0  0  0  0  0  0  0  0  0  0
   38.9150   26.3650   39.9070 H   0  0  0  0  0  0  0  0  0  0  0  0
   39.0510   25.0410   41.0750 H   0  0  0  0  0  0  0  0  0  0  0  0
   37.4680   26.3720   41.5490 C   0  0  0  0  0  0  0  0  0  0  0  0
   36.8380   25.4620   41.5510 H   0  0  0  0  0  0  0  0  0  0  0  0
   37.5220   26.7060   42.6060 H   0  0  0  0  0  0  0  0  0  0  0  0
   37.1130   28.9550   43.0020 Cl  0  0  0  0  0  0  0  0  0  0  0  0
   36.4960   28.6840   41.4050 C   0  0  0  0  0  0  0  0  0  0  0  0
   36.7200   27.4510   40.8310 C   0  0  0  0  0  0  0  0  0  0  0  0
   36.2290   27.2320   39.5540 C   0  0  0  0  0  0  0  0  0  0  0  0
   35.5380   28.2170   38.8830 C   0  0  0  0  0  0  0  0  0  0  0  0
   35.3160   29.4640   39.4710 C   0  0  0  0  0  0  0  0  0  0  0  0
   35.8100   29.6750   40.7480 C   0  0  0  0  0  0  0  0  0  0  0  0
   36.3680   26.3010   39.0560 H   0  0  0  0  0  0  0  0  0  0  0  0
   35.1650   28.0150   37.8800 H   0  0  0  0  0  0  0  0  0  0  0  0
   34.7760   30.2460   38.9550 H   0  0  0  0  0  0  0  0  0  0  0  0
   35.6400   30.8850   41.4190 O   0  0  0  0  0  0  0  0  0  0  0  0
   35.4380   31.6910   40.8210 H   0  0  0  0  0  0  0  0  0  0  0  0
  1  2  1  0  0  0  0
  2  7  1  0  0  0  0
  2  3  2  0  0  0  0
  3  8  1  0  0  0  0
  4  3  1  0  0  0  0
  5  4  2  0  0  0  0
  6  1  2  0  0  0  0
  6  5  1  0  0  0  0
  9 12  1  6  0  0  0
  9  5  1  0  0  0  0
  9 10  1  0  0  0  0
 10 14  1  0  0  0  0
 10 13  1  0  0  0  0
 11 15  1  6  0  0  0
 11  9  1  0  0  0  0
 11 10  1  0  0  0  0
 16 17  1  0  0  0  0
 16 11  1  0  0  0  0
 17 18  1  0  0  0  0
 19 17  2  0  0  0  0
 20 26  1  0  0  0  0
 20 19  1  0  0  0  0
 21 20  2  0  0  0  0
 22 21  1  0  0  0  0
 22 23  2  0  0  0  0
 23 25  1  0  0  0  0
 24 23  1  0  0  0  0
 25 26  2  0  0  0  0
 26 16  1  0  0  0  0
 27 28  1  0  0  0  0
 27 21  1  0  0  0  0
 29 27  1  0  0  0  0
 30 32  1  0  0  0  0
 30 33  1  0  0  0  0
 30  1  1  0  0  0  0
 31 30  1  0  0  0  0
 33 34  1  0  0  0  0
 33 35  1  0  0  0  0
 37 36  1  0  0  0  0
 38 37  1  0  0  0  0
 38 33  1  0  0  0  0
 39 38  2  0  0  0  0
 40 41  2  0  0  0  0
 40 39  1  0  0  0  0
 41 42  1  0  0  0  0
 42 37  2  0  0  0  0
 42 46  1  0  0  0  0
 43 39  1  0  0  0  0
 44 40  1  0  0  0  0
 45 41  1  0  0  0  0
 47 46  1  0  0  0  0
M  END
>  <minimizedAffinity>
-6.93519306

$$$$
