
 OpenBabel03252503453D

 49 53  0  0  1  0  0  0  0  0999 V2000
   46.3900   35.1520   42.3900 C   0  0  0  0  0  0  0  0  0  0  0  0
   47.3220   34.8790   41.8560 H   0  0  0  0  0  0  0  0  0  0  0  0
   46.5000   36.2410   42.6090 H   0  0  0  0  0  0  0  0  0  0  0  0
   45.2490   34.8890   41.5020 C   0  0  0  0  0  0  0  0  0  0  0  0
   44.0500   35.5610   41.5340 C   0  0  0  0  0  0  0  0  0  0  0  0
   43.0100   35.2740   40.6850 C   0  0  0  0  0  0  0  0  0  0  0  0
   43.1700   34.2730   39.7610 C   0  0  0  0  0  0  0  0  0  0  0  0
   44.3770   33.5790   39.7100 C   0  0  0  0  0  0  0  0  0  0  0  0
   45.4270   33.8810   40.5800 C   0  0  0  0  0  0  0  0  0  0  0  0
   43.9920   36.3370   42.2850 H   0  0  0  0  0  0  0  0  0  0  0  0
   42.1050   35.8620   40.7900 H   0  0  0  0  0  0  0  0  0  0  0  0
   42.3190   34.0940   39.1240 H   0  0  0  0  0  0  0  0  0  0  0  0
   44.3400   32.8200   38.9260 H   0  0  0  0  0  0  0  0  0  0  0  0
   46.5170   33.0270   40.2760 N   0  0  0  0  0  0  0  0  0  0  0  0
   46.8760   31.8900   40.9000 C   0  0  0  0  0  0  0  0  0  0  0  0
   46.4080   31.4090   41.7480 H   0  0  0  0  0  0  0  0  0  0  0  0
   47.9570   31.3730   40.3240 N   0  0  0  0  0  0  0  0  0  0  0  0
   48.3260   32.1720   39.3030 C   0  0  0  0  0  0  0  0  0  0  0  0
   49.3200   32.1720   38.3740 C   0  0  0  0  0  0  0  0  0  0  0  0
   49.4440   33.1430   37.4360 N   0  0  0  0  0  0  0  0  0  0  0  0
   48.5450   34.1660   37.4150 C   0  0  0  0  0  0  0  0  0  0  0  0
   48.5810   34.9780   36.6970 H   0  0  0  0  0  0  0  0  0  0  0  0
   47.5610   34.1830   38.3220 N   0  0  0  0  0  0  0  0  0  0  0  0
   47.4130   33.2330   39.2630 C   0  0  0  0  0  0  0  0  0  0  0  0
   50.2300   31.0800   38.4430 N   0  0  0  0  0  0  0  0  0  0  0  0
   50.7750   30.4180   37.8560 H   0  0  0  0  0  0  0  0  0  0  0  0
   50.5430   30.7160   39.3610 H   0  0  0  0  0  0  0  0  0  0  0  0
   45.2840   34.6180   44.5410 C   0  0  0  0  0  0  0  0  0  0  0  0
   46.2780   34.3600   43.6030 C   0  0  0  0  0  0  0  0  0  0  0  0
   47.1550   33.3120   43.8800 C   0  0  0  0  0  0  0  0  0  0  0  0
   47.0380   32.5790   45.0130 N   0  0  0  0  0  0  0  0  0  0  0  0
   46.0580   32.8610   45.9000 C   0  0  0  0  0  0  0  0  0  0  0  0
   45.1780   33.8770   45.6730 N   0  0  0  0  0  0  0  0  0  0  0  0
   44.5880   35.4070   44.3800 H   0  0  0  0  0  0  0  0  0  0  0  0
   47.9640   33.0200   43.2680 H   0  0  0  0  0  0  0  0  0  0  0  0
   47.3780   31.7180   47.6700 C   0  0  2  0  0  0  0  0  0  0  0  0
   45.9640   32.0410   47.1080 C   0  0  1  0  0  0  0  0  0  0  0  0
   45.4350   32.6470   48.1960 O   0  0  0  0  0  0  0  0  0  0  0  0
   45.7330   31.8900   49.2920 C   0  0  0  0  0  0  0  0  0  0  0  0
   46.9150   31.0050   48.9480 C   0  0  2  0  0  0  0  0  0  0  0  0
   47.9220   31.0390   46.9930 H   0  0  0  0  0  0  0  0  0  0  0  0
   45.4470   31.0650   46.9280 H   0  0  0  0  0  0  0  0  0  0  0  0
   46.0030   32.5660   50.1290 H   0  0  0  0  0  0  0  0  0  0  0  0
   44.8310   31.2720   49.5450 H   0  0  0  0  0  0  0  0  0  0  0  0
   46.5430   29.9940   48.7230 H   0  0  0  0  0  0  0  0  0  0  0  0
   48.0020   32.8500   48.0450 O   0  0  0  0  0  0  0  0  0  0  0  0
   48.9920   32.6640   48.0630 H   0  0  0  0  0  0  0  0  0  0  0  0
   47.8760   30.9510   49.9120 O   0  0  0  0  0  0  0  0  0  0  0  0
   48.6970   31.4660   49.6960 H   0  0  0  0  0  0  0  0  0  0  0  0
  1  3  1  0  0  0  0
  1 29  1  0  0  0  0
  2  1  1  0  0  0  0
  4  5  1  0  0  0  0
  4  1  1  0  0  0  0
  5 10  1  0  0  0  0
  6 11  1  0  0  0  0
  6  5  2  0  0  0  0
  7  6  1  0  0  0  0
  8  7  2  0  0  0  0
  8  9  1  0  0  0  0
  9  4  2  0  0  0  0
 12  7  1  0  0  0  0
 13  8  1  0  0  0  0
 14  9  1  0  0  0  0
 14 15  1  0  0  0  0
 15 16  1  0  0  0  0
 17 15  2  0  0  0  0
 18 17  1  0  0  0  0
 19 25  1  0  0  0  0
 19 18  2  0  0  0  0
 20 19  1  0  0  0  0
 21 20  2  0  0  0  0
 21 23  1  0  0  0  0
 22 21  1  0  0  0  0
 23 24  2  0  0  0  0
 24 18  1  0  0  0  0
 24 14  1  0  0  0  0
 25 27  1  0  0  0  0
 26 25  1  0  0  0  0
 28 33  1  0  0  0  0
 29 30  1  0  0  0  0
 29 28  2  0  0  0  0
 30 31  2  0  0  0  0
 31 32  1  0  0  0  0
 32 37  1  0  0  0  0
 33 32  2  0  0  0  0
 34 28  1  0  0  0  0
 35 30  1  0  0  0  0
 36 41  1  6  0  0  0
 36 46  1  0  0  0  0
 36 40  1  0  0  0  0
 37 42  1  6  0  0  0
 37 36  1  0  0  0  0
 37 38  1  0  0  0  0
 38 39  1  0  0  0  0
 39 44  1  0  0  0  0
 39 43  1  0  0  0  0
 40 45  1  6  0  0  0
 40 39  1  0  0  0  0
 40 48  1  0  0  0  0
 46 47  1  0  0  0  0
 49 48  1  0  0  0  0
M  END
>  <minimizedAffinity>
-7.21397686

>  <minimizedRMSD>
0.565197229

$$$$
