
 OpenBabel03252503163D

 41 45  0  0  0  0  0  0  0  0999 V2000
   45.3220   34.1200   40.7470 C   0  0  0  0  0  0  0  0  0  0  0  0
   43.9540   34.2670   40.6260 C   0  0  0  0  0  0  0  0  0  0  0  0
   43.6080   33.5650   39.5350 N   0  0  0  0  0  0  0  0  0  0  0  0
   44.7330   33.0040   39.0020 C   0  0  0  0  0  0  0  0  0  0  0  0
   45.7920   33.3490   39.7550 N   0  0  0  0  0  0  0  0  0  0  0  0
   44.8880   32.1790   37.8580 N   0  0  0  0  0  0  0  0  0  0  0  0
   43.3290   34.8260   41.2770 H   0  0  0  0  0  0  0  0  0  0  0  0
   44.7090   31.1840   38.1520 H   0  0  0  0  0  0  0  0  0  0  0  0
   45.1390   32.6000   36.9290 H   0  0  0  0  0  0  0  0  0  0  0  0
   41.4450   35.3790   39.0240 H   0  0  0  0  0  0  0  0  0  0  0  0
   41.3850   34.3730   38.8150 N   0  0  0  0  0  0  0  0  0  0  0  0
   42.3000   33.4110   38.9950 C   0  0  0  0  0  0  0  0  0  0  0  0
   41.7720   32.2450   38.5730 N   0  0  0  0  0  0  0  0  0  0  0  0
   40.5330   32.4430   38.1250 C   0  0  0  0  0  0  0  0  0  0  0  0
   39.5250   31.6630   37.5870 C   0  0  0  0  0  0  0  0  0  0  0  0
   38.3290   32.1490   37.2100 N   0  0  0  0  0  0  0  0  0  0  0  0
   38.1100   33.4740   37.3700 C   0  0  0  0  0  0  0  0  0  0  0  0
   37.2410   34.0710   37.1400 H   0  0  0  0  0  0  0  0  0  0  0  0
   39.0800   34.2540   37.8920 N   0  0  0  0  0  0  0  0  0  0  0  0
   40.2790   33.7800   38.2740 C   0  0  0  0  0  0  0  0  0  0  0  0
   39.7840   30.2820   37.4320 N   0  0  0  0  0  0  0  0  0  0  0  0
   40.2120   29.8030   38.2360 H   0  0  0  0  0  0  0  0  0  0  0  0
   39.7470   29.4320   36.8420 H   0  0  0  0  0  0  0  0  0  0  0  0
   46.1800   34.7160   41.8100 C   0  0  0  0  0  0  0  0  0  0  0  0
   47.3910   35.0910   41.6310 O   0  0  0  0  0  0  0  0  0  0  0  0
   45.0560   36.1150   43.4820 C   0  0  0  0  0  0  0  0  0  0  0  0
   45.6770   34.9040   43.1220 C   0  0  0  0  0  0  0  0  0  0  0  0
   45.7430   33.9660   44.1320 C   0  0  0  0  0  0  0  0  0  0  0  0
   45.2520   34.1900   45.3600 N   0  0  0  0  0  0  0  0  0  0  0  0
   44.6630   35.3730   45.6580 C   0  0  0  0  0  0  0  0  0  0  0  0
   44.5680   36.3270   44.7190 N   0  0  0  0  0  0  0  0  0  0  0  0
   44.9550   36.9230   42.7520 H   0  0  0  0  0  0  0  0  0  0  0  0
   44.2840   35.5180   46.6400 H   0  0  0  0  0  0  0  0  0  0  0  0
   46.3530   32.7160   43.8630 C   0  0  0  0  0  0  0  0  0  0  0  0
   47.6310   32.2370   43.8990 C   0  0  0  0  0  0  0  0  0  0  0  0
   47.9270   30.9920   43.5900 C   0  0  0  0  0  0  0  0  0  0  0  0
   46.8990   30.1940   43.2290 C   0  0  0  0  0  0  0  0  0  0  0  0
   45.4350   31.2820   43.3390 S   0  0  0  0  0  0  0  0  0  0  0  0
   48.3770   32.9970   44.2120 H   0  0  0  0  0  0  0  0  0  0  0  0
   48.9220   30.5630   43.6020 H   0  0  0  0  0  0  0  0  0  0  0  0
   46.9270   29.0810   42.9220 H   0  0  0  0  0  0  0  0  0  0  0  0
  1 24  1  0  0  0  0
  2  1  2  0  0  0  0
  2  7  1  0  0  0  0
  3  2  1  0  0  0  0
  4  3  1  0  0  0  0
  4  5  2  0  0  0  0
  5  1  1  0  0  0  0
  6  8  1  0  0  0  0
  6  4  1  0  0  0  0
  9  6  1  0  0  0  0
 11 12  1  0  0  0  0
 11 10  1  0  0  0  0
 12  3  1  0  0  0  0
 13 12  2  0  0  0  0
 14 20  1  0  0  0  0
 14 13  1  0  0  0  0
 15 14  2  0  0  0  0
 16 17  2  0  0  0  0
 16 15  1  0  0  0  0
 17 19  1  0  0  0  0
 18 17  1  0  0  0  0
 19 20  2  0  0  0  0
 20 11  1  0  0  0  0
 21 15  1  0  0  0  0
 21 22  1  0  0  0  0
 23 21  1  0  0  0  0
 24 27  1  0  0  0  0
 25 24  2  0  0  0  0
 26 31  1  0  0  0  0
 27 26  2  0  0  0  0
 27 28  1  0  0  0  0
 28 29  2  0  0  0  0
 29 30  1  0  0  0  0
 30 33  1  0  0  0  0
 31 30  2  0  0  0  0
 32 26  1  0  0  0  0
 34 35  2  0  0  0  0
 34 28  1  0  0  0  0
 35 39  1  0  0  0  0
 36 40  1  0  0  0  0
 36 35  1  0  0  0  0
 37 38  1  0  0  0  0
 37 36  2  0  0  0  0
 38 34  1  0  0  0  0
 41 37  1  0  0  0  0
M  END
>  <minimizedAffinity>
-6.38091087

>  <minimizedRMSD>
0.676439524

$$$$
