
 OpenBabel03252503483D

 49 53  0  0  1  0  0  0  0  0999 V2000
   35.4900   29.6290   40.4070 C   0  0  0  0  0  0  0  0  0  0  0  0
   35.4250   30.6960   40.7000 H   0  0  0  0  0  0  0  0  0  0  0  0
   34.4930   29.2040   40.6740 H   0  0  0  0  0  0  0  0  0  0  0  0
   35.7420   29.5560   38.9610 C   0  0  0  0  0  0  0  0  0  0  0  0
   35.1230   28.6880   38.0920 C   0  0  0  0  0  0  0  0  0  0  0  0
   35.3980   28.6550   36.7480 C   0  0  0  0  0  0  0  0  0  0  0  0
   36.3310   29.5240   36.2430 C   0  0  0  0  0  0  0  0  0  0  0  0
   36.9710   30.4130   37.1050 C   0  0  0  0  0  0  0  0  0  0  0  0
   36.6810   30.4370   38.4710 C   0  0  0  0  0  0  0  0  0  0  0  0
   34.4000   28.0320   38.5570 H   0  0  0  0  0  0  0  0  0  0  0  0
   34.8550   27.9330   36.1480 H   0  0  0  0  0  0  0  0  0  0  0  0
   36.5030   29.4500   35.1830 H   0  0  0  0  0  0  0  0  0  0  0  0
   37.6780   31.0310   36.5490 H   0  0  0  0  0  0  0  0  0  0  0  0
   37.4690   31.4490   39.0750 N   0  0  0  0  0  0  0  0  0  0  0  0
   37.1270   32.7290   39.3190 C   0  0  0  0  0  0  0  0  0  0  0  0
   36.1950   33.2300   39.1060 H   0  0  0  0  0  0  0  0  0  0  0  0
   38.1400   33.3690   39.8970 N   0  0  0  0  0  0  0  0  0  0  0  0
   39.1680   32.5120   40.0420 C   0  0  0  0  0  0  0  0  0  0  0  0
   40.4310   32.5770   40.5460 C   0  0  0  0  0  0  0  0  0  0  0  0
   41.2690   31.5120   40.5570 N   0  0  0  0  0  0  0  0  0  0  0  0
   40.8440   30.3240   40.0430 C   0  0  0  0  0  0  0  0  0  0  0  0
   41.4570   29.4310   40.0170 H   0  0  0  0  0  0  0  0  0  0  0  0
   39.6060   30.2410   39.5430 N   0  0  0  0  0  0  0  0  0  0  0  0
   38.7510   31.2810   39.5190 C   0  0  0  0  0  0  0  0  0  0  0  0
   40.8220   33.8410   41.0690 N   0  0  0  0  0  0  0  0  0  0  0  0
   41.3510   34.2880   41.8420 H   0  0  0  0  0  0  0  0  0  0  0  0
   40.5390   34.7160   40.5920 H   0  0  0  0  0  0  0  0  0  0  0  0
   36.9870   27.7010   40.8290 C   0  0  0  0  0  0  0  0  0  0  0  0
   36.5700   28.9910   41.1400 C   0  0  0  0  0  0  0  0  0  0  0  0
   37.2340   29.6380   42.1810 C   0  0  0  0  0  0  0  0  0  0  0  0
   38.2410   29.0340   42.8560 N   0  0  0  0  0  0  0  0  0  0  0  0
   38.6170   27.7790   42.5220 C   0  0  0  0  0  0  0  0  0  0  0  0
   37.9960   27.1050   41.5130 N   0  0  0  0  0  0  0  0  0  0  0  0
   36.5130   27.1610   40.0430 H   0  0  0  0  0  0  0  0  0  0  0  0
   37.0100   30.6080   42.5350 H   0  0  0  0  0  0  0  0  0  0  0  0
   40.1630   25.8340   42.6050 C   0  0  2  0  0  0  0  0  0  0  0  0
   39.7140   27.1650   43.2720 C   0  0  1  0  0  0  0  0  0  0  0  0
   40.8930   27.8260   43.2450 O   0  0  0  0  0  0  0  0  0  0  0  0
   41.8680   26.9760   43.6790 C   0  0  0  0  0  0  0  0  0  0  0  0
   41.3600   25.5550   43.5250 C   0  0  2  0  0  0  0  0  0  0  0  0
   39.3800   25.0640   42.7030 H   0  0  0  0  0  0  0  0  0  0  0  0
   39.4340   26.9290   44.3300 H   0  0  0  0  0  0  0  0  0  0  0  0
   42.7720   27.1190   43.0500 H   0  0  0  0  0  0  0  0  0  0  0  0
   42.0820   27.2090   44.7550 H   0  0  0  0  0  0  0  0  0  0  0  0
   41.0250   25.1950   44.5100 H   0  0  0  0  0  0  0  0  0  0  0  0
   40.6500   26.0690   41.3720 O   0  0  0  0  0  0  0  0  0  0  0  0
   40.5980   25.2080   40.8510 H   0  0  0  0  0  0  0  0  0  0  0  0
   42.2630   24.6900   42.9870 O   0  0  0  0  0  0  0  0  0  0  0  0
   42.0770   24.4440   42.0430 H   0  0  0  0  0  0  0  0  0  0  0  0
  1  3  1  0  0  0  0
  1  2  1  0  0  0  0
  1 29  1  0  0  0  0
  4  1  1  0  0  0  0
  5 10  1  0  0  0  0
  5  4  2  0  0  0  0
  6  5  1  0  0  0  0
  7  6  2  0  0  0  0
  7  8  1  0  0  0  0
  8  9  2  0  0  0  0
  9  4  1  0  0  0  0
  9 14  1  0  0  0  0
 11  6  1  0  0  0  0
 12  7  1  0  0  0  0
 13  8  1  0  0  0  0
 14 15  1  0  0  0  0
 14 24  1  0  0  0  0
 15 17  2  0  0  0  0
 16 15  1  0  0  0  0
 17 18  1  0  0  0  0
 18 19  1  0  0  0  0
 19 20  2  0  0  0  0
 19 25  1  0  0  0  0
 21 20  1  0  0  0  0
 22 21  1  0  0  0  0
 23 21  2  0  0  0  0
 24 23  1  0  0  0  0
 24 18  2  0  0  0  0
 25 26  1  0  0  0  0
 27 25  1  0  0  0  0
 28 29  2  0  0  0  0
 28 33  1  0  0  0  0
 29 30  1  0  0  0  0
 30 35  1  0  0  0  0
 30 31  2  0  0  0  0
 32 31  1  0  0  0  0
 32 37  1  0  0  0  0
 33 32  2  0  0  0  0
 34 28  1  0  0  0  0
 36 41  1  1  0  0  0
 36 37  1  0  0  0  0
 36 40  1  0  0  0  0
 37 42  1  1  0  0  0
 38 37  1  0  0  0  0
 38 39  1  0  0  0  0
 39 44  1  0  0  0  0
 40 39  1  0  0  0  0
 40 45  1  1  0  0  0
 43 39  1  0  0  0  0
 46 36  1  0  0  0  0
 47 46  1  0  0  0  0
 48 40  1  0  0  0  0
 49 48  1  0  0  0  0
M  END
>  <minimizedAffinity>
-6.92414856

$$$$

 OpenBabel03252503483D

 49 53  0  0  1  0  0  0  0  0999 V2000
   36.9300   31.5380   39.8950 C   0  0  0  0  0  0  0  0  0  0  0  0
   36.0130   31.9120   40.3920 H   0  0  0  0  0  0  0  0  0  0  0  0
   37.3940   32.4470   39.4430 H   0  0  0  0  0  0  0  0  0  0  0  0
   37.8000   30.9330   40.9130 C   0  0  0  0  0  0  0  0  0  0  0  0
   37.3980   30.0090   41.8480 C   0  0  0  0  0  0  0  0  0  0  0  0
   38.2490   29.4770   42.7850 C   0  0  0  0  0  0  0  0  0  0  0  0
   39.5590   29.8810   42.7920 C   0  0  0  0  0  0  0  0  0  0  0  0
   39.9880   30.8170   41.8530 C   0  0  0  0  0  0  0  0  0  0  0  0
   39.1120   31.3510   40.9050 C   0  0  0  0  0  0  0  0  0  0  0  0
   36.3540   29.7350   41.7860 H   0  0  0  0  0  0  0  0  0  0  0  0
   37.8340   28.7530   43.4790 H   0  0  0  0  0  0  0  0  0  0  0  0
   40.1760   29.4290   43.5500 H   0  0  0  0  0  0  0  0  0  0  0  0
   41.0500   31.0300   41.9950 H   0  0  0  0  0  0  0  0  0  0  0  0
   39.8380   32.2520   40.0860 N   0  0  0  0  0  0  0  0  0  0  0  0
   39.9380   33.5890   40.2140 C   0  0  0  0  0  0  0  0  0  0  0  0
   39.4910   34.2310   40.9580 H   0  0  0  0  0  0  0  0  0  0  0  0
   40.7080   34.0830   39.2480 N   0  0  0  0  0  0  0  0  0  0  0  0
   41.1260   33.0690   38.4670 C   0  0  0  0  0  0  0  0  0  0  0  0
   41.9090   32.9470   37.3590 C   0  0  0  0  0  0  0  0  0  0  0  0
   42.1620   31.7530   36.7710 N   0  0  0  0  0  0  0  0  0  0  0  0
   41.6170   30.6220   37.2990 C   0  0  0  0  0  0  0  0  0  0  0  0
   41.7740   29.6330   36.8840 H   0  0  0  0  0  0  0  0  0  0  0  0
   40.8450   30.7210   38.3870 N   0  0  0  0  0  0  0  0  0  0  0  0
   40.5770   31.8930   38.9930 C   0  0  0  0  0  0  0  0  0  0  0  0
   42.4520   34.1610   36.8520 N   0  0  0  0  0  0  0  0  0  0  0  0
   43.3070   34.5710   36.4290 H   0  0  0  0  0  0  0  0  0  0  0  0
   41.8830   35.0270   36.8440 H   0  0  0  0  0  0  0  0  0  0  0  0
   37.3190   30.4000   37.7290 C   0  0  0  0  0  0  0  0  0  0  0  0
   36.5680   30.5530   38.8900 C   0  0  0  0  0  0  0  0  0  0  0  0
   35.4600   29.7210   39.0430 C   0  0  0  0  0  0  0  0  0  0  0  0
   35.1340   28.8040   38.1000 N   0  0  0  0  0  0  0  0  0  0  0  0
   35.8900   28.6870   36.9860 C   0  0  0  0  0  0  0  0  0  0  0  0
   36.9820   29.4790   36.7910 N   0  0  0  0  0  0  0  0  0  0  0  0
   38.1750   31.0110   37.5610 H   0  0  0  0  0  0  0  0  0  0  0  0
   34.7940   29.7410   39.8610 H   0  0  0  0  0  0  0  0  0  0  0  0
   35.6000   28.2570   34.5540 C   0  0  2  0  0  0  0  0  0  0  0  0
   35.5070   27.6800   35.9950 C   0  0  1  0  0  0  0  0  0  0  0  0
   36.3500   26.6310   35.8590 O   0  0  0  0  0  0  0  0  0  0  0  0
   36.0480   25.9890   34.6940 C   0  0  0  0  0  0  0  0  0  0  0  0
   35.2850   26.9530   33.8070 C   0  0  2  0  0  0  0  0  0  0  0  0
   34.8250   29.0240   34.3900 H   0  0  0  0  0  0  0  0  0  0  0  0
   34.4600   27.3100   36.1390 H   0  0  0  0  0  0  0  0  0  0  0  0
   36.9930   25.6910   34.1950 H   0  0  0  0  0  0  0  0  0  0  0  0
   35.4200   25.0920   34.9410 H   0  0  0  0  0  0  0  0  0  0  0  0
   34.2120   26.7130   33.8680 H   0  0  0  0  0  0  0  0  0  0  0  0
   36.8710   28.5890   34.2640 O   0  0  0  0  0  0  0  0  0  0  0  0
   36.8510   29.2580   33.5100 H   0  0  0  0  0  0  0  0  0  0  0  0
   35.6930   26.9650   32.5080 O   0  0  0  0  0  0  0  0  0  0  0  0
   36.2240   27.7660   32.2570 H   0  0  0  0  0  0  0  0  0  0  0  0
  1  2  1  0  0  0  0
  1  4  1  0  0  0  0
  3  1  1  0  0  0  0
  4  5  1  0  0  0  0
  5  6  2  0  0  0  0
  6  7  1  0  0  0  0
  6 11  1  0  0  0  0
  7 12  1  0  0  0  0
  8 13  1  0  0  0  0
  8  7  2  0  0  0  0
  9  4  2  0  0  0  0
  9  8  1  0  0  0  0
 10  5  1  0  0  0  0
 14 15  1  0  0  0  0
 14  9  1  0  0  0  0
 15 16  1  0  0  0  0
 17 15  2  0  0  0  0
 18 24  1  0  0  0  0
 18 17  1  0  0  0  0
 19 18  2  0  0  0  0
 20 21  2  0  0  0  0
 20 19  1  0  0  0  0
 21 23  1  0  0  0  0
 22 21  1  0  0  0  0
 23 24  2  0  0  0  0
 24 14  1  0  0  0  0
 25 19  1  0  0  0  0
 26 25  1  0  0  0  0
 27 25  1  0  0  0  0
 28 29  1  0  0  0  0
 29 30  2  0  0  0  0
 29  1  1  0  0  0  0
 30 35  1  0  0  0  0
 31 30  1  0  0  0  0
 32 31  2  0  0  0  0
 33 32  1  0  0  0  0
 33 28  2  0  0  0  0
 34 28  1  0  0  0  0
 36 41  1  6  0  0  0
 36 37  1  0  0  0  0
 37 42  1  1  0  0  0
 37 32  1  0  0  0  0
 38 37  1  0  0  0  0
 39 44  1  0  0  0  0
 39 38  1  0  0  0  0
 40 45  1  1  0  0  0
 40 36  1  0  0  0  0
 40 39  1  0  0  0  0
 43 39  1  0  0  0  0
 46 36  1  0  0  0  0
 47 46  1  0  0  0  0
 48 40  1  0  0  0  0
 49 48  1  0  0  0  0
M  END
>  <minimizedAffinity>
-6.73950195

$$$$

 OpenBabel03252503483D

 49 53  0  0  1  0  0  0  0  0999 V2000
   36.4530   29.7330   41.0300 C   0  0  0  0  0  0  0  0  0  0  0  0
   35.7030   29.7990   40.2170 H   0  0  0  0  0  0  0  0  0  0  0  0
   35.9730   30.2450   41.8970 H   0  0  0  0  0  0  0  0  0  0  0  0
   36.7110   28.3140   41.3130 C   0  0  0  0  0  0  0  0  0  0  0  0
   36.5490   27.7080   42.5370 C   0  0  0  0  0  0  0  0  0  0  0  0
   36.8100   26.3780   42.7520 C   0  0  0  0  0  0  0  0  0  0  0  0
   37.2520   25.6140   41.7030 C   0  0  0  0  0  0  0  0  0  0  0  0
   37.4230   26.2060   40.4530 C   0  0  0  0  0  0  0  0  0  0  0  0
   37.1540   27.5610   40.2470 C   0  0  0  0  0  0  0  0  0  0  0  0
   36.1990   28.3680   43.3190 H   0  0  0  0  0  0  0  0  0  0  0  0
   36.6500   25.9960   43.7550 H   0  0  0  0  0  0  0  0  0  0  0  0
   37.4390   24.5790   41.9340 H   0  0  0  0  0  0  0  0  0  0  0  0
   37.7780   25.4660   39.7330 H   0  0  0  0  0  0  0  0  0  0  0  0
   37.4020   27.8630   38.8840 N   0  0  0  0  0  0  0  0  0  0  0  0
   38.5880   27.8940   38.2470 C   0  0  0  0  0  0  0  0  0  0  0  0
   39.5730   27.6980   38.6440 H   0  0  0  0  0  0  0  0  0  0  0  0
   38.4100   28.2220   36.9700 N   0  0  0  0  0  0  0  0  0  0  0  0
   37.0960   28.4110   36.7500 C   0  0  0  0  0  0  0  0  0  0  0  0
   36.3220   28.7510   35.6820 C   0  0  0  0  0  0  0  0  0  0  0  0
   34.9750   28.8700   35.7650 N   0  0  0  0  0  0  0  0  0  0  0  0
   34.3580   28.6450   36.9580 C   0  0  0  0  0  0  0  0  0  0  0  0
   33.2860   28.7220   37.1000 H   0  0  0  0  0  0  0  0  0  0  0  0
   35.1010   28.3110   38.0190 N   0  0  0  0  0  0  0  0  0  0  0  0
   36.4400   28.1850   37.9670 C   0  0  0  0  0  0  0  0  0  0  0  0
   37.0200   28.9730   34.4620 N   0  0  0  0  0  0  0  0  0  0  0  0
   36.9620   28.8190   33.4370 H   0  0  0  0  0  0  0  0  0  0  0  0
   37.9340   29.4600   34.4620 H   0  0  0  0  0  0  0  0  0  0  0  0
   37.6880   31.2800   39.5410 C   0  0  0  0  0  0  0  0  0  0  0  0
   37.6770   30.3950   40.6140 C   0  0  0  0  0  0  0  0  0  0  0  0
   38.8890   30.1770   41.2680 C   0  0  0  0  0  0  0  0  0  0  0  0
   40.0240   30.8030   40.8730 N   0  0  0  0  0  0  0  0  0  0  0  0
   39.9920   31.6560   39.8250 C   0  0  0  0  0  0  0  0  0  0  0  0
   38.8310   31.9000   39.1530 N   0  0  0  0  0  0  0  0  0  0  0  0
   36.7900   31.4830   39.0060 H   0  0  0  0  0  0  0  0  0  0  0  0
   39.0310   29.5200   42.0820 H   0  0  0  0  0  0  0  0  0  0  0  0
   41.3670   32.3850   37.8850 C   0  0  2  0  0  0  0  0  0  0  0  0
   41.2380   32.3160   39.4340 C   0  0  1  0  0  0  0  0  0  0  0  0
   41.3220   33.6370   39.7130 O   0  0  0  0  0  0  0  0  0  0  0  0
   42.3580   34.1590   38.9950 C   0  0  0  0  0  0  0  0  0  0  0  0
   42.6510   33.2240   37.8390 C   0  0  2  0  0  0  0  0  0  0  0  0
   41.5150   31.3790   37.4610 H   0  0  0  0  0  0  0  0  0  0  0  0
   42.1460   31.7870   39.8190 H   0  0  0  0  0  0  0  0  0  0  0  0
   42.0560   35.1530   38.6050 H   0  0  0  0  0  0  0  0  0  0  0  0
   43.2480   34.2440   39.6750 H   0  0  0  0  0  0  0  0  0  0  0  0
   43.5310   32.6130   38.0950 H   0  0  0  0  0  0  0  0  0  0  0  0
   40.3770   33.1360   37.3670 O   0  0  0  0  0  0  0  0  0  0  0  0
   40.2730   32.8810   36.3970 H   0  0  0  0  0  0  0  0  0  0  0  0
   42.8430   33.8490   36.6440 O   0  0  0  0  0  0  0  0  0  0  0  0
   42.0810   33.7610   36.0130 H   0  0  0  0  0  0  0  0  0  0  0  0
  1  4  1  0  0  0  0
  1  3  1  0  0  0  0
  2  1  1  0  0  0  0
  4  5  1  0  0  0  0
  5  6  2  0  0  0  0
  5 10  1  0  0  0  0
  6 11  1  0  0  0  0
  7 12  1  0  0  0  0
  7  6  1  0  0  0  0
  8  7  2  0  0  0  0
  9  8  1  0  0  0  0
  9  4  2  0  0  0  0
 13  8  1  0  0  0  0
 14  9  1  0  0  0  0
 15 16  1  0  0  0  0
 15 14  1  0  0  0  0
 17 15  2  0  0  0  0
 18 17  1  0  0  0  0
 18 24  1  0  0  0  0
 19 20  1  0  0  0  0
 19 18  2  0  0  0  0
 20 21  2  0  0  0  0
 21 22  1  0  0  0  0
 21 23  1  0  0  0  0
 24 23  2  0  0  0  0
 24 14  1  0  0  0  0
 25 19  1  0  0  0  0
 26 25  1  0  0  0  0
 27 25  1  0  0  0  0
 28 29  1  0  0  0  0
 29  1  1  0  0  0  0
 29 30  2  0  0  0  0
 30 35  1  0  0  0  0
 31 30  1  0  0  0  0
 32 31  2  0  0  0  0
 33 28  2  0  0  0  0
 33 32  1  0  0  0  0
 34 28  1  0  0  0  0
 36 41  1  6  0  0  0
 36 37  1  0  0  0  0
 37 38  1  0  0  0  0
 37 42  1  1  0  0  0
 37 32  1  0  0  0  0
 39 44  1  0  0  0  0
 39 38  1  0  0  0  0
 40 36  1  0  0  0  0
 40 45  1  1  0  0  0
 40 39  1  0  0  0  0
 43 39  1  0  0  0  0
 46 36  1  0  0  0  0
 47 46  1  0  0  0  0
 48 40  1  0  0  0  0
 49 48  1  0  0  0  0
M  END
>  <minimizedAffinity>
-6.68873549

$$$$

 OpenBabel03252503483D

 49 53  0  0  1  0  0  0  0  0999 V2000
   36.8940   25.7380   42.4430 C   0  0  0  0  0  0  0  0  0  0  0  0
   35.8190   25.7270   42.7140 H   0  0  0  0  0  0  0  0  0  0  0  0
   37.4260   25.5140   43.3980 H   0  0  0  0  0  0  0  0  0  0  0  0
   37.1300   24.6970   41.4330 C   0  0  0  0  0  0  0  0  0  0  0  0
   36.1490   24.0510   40.7170 C   0  0  0  0  0  0  0  0  0  0  0  0
   36.4210   23.0800   39.7860 C   0  0  0  0  0  0  0  0  0  0  0  0
   37.7270   22.7340   39.5560 C   0  0  0  0  0  0  0  0  0  0  0  0
   38.7390   23.3750   40.2700 C   0  0  0  0  0  0  0  0  0  0  0  0
   38.4480   24.3620   41.2140 C   0  0  0  0  0  0  0  0  0  0  0  0
   35.1430   24.3730   40.9480 H   0  0  0  0  0  0  0  0  0  0  0  0
   35.5760   22.6320   39.2750 H   0  0  0  0  0  0  0  0  0  0  0  0
   37.8760   21.9660   38.8150 H   0  0  0  0  0  0  0  0  0  0  0  0
   39.7140   22.9850   39.9700 H   0  0  0  0  0  0  0  0  0  0  0  0
   39.6710   24.8350   41.7540 N   0  0  0  0  0  0  0  0  0  0  0  0
   40.2690   24.4600   42.9000 C   0  0  0  0  0  0  0  0  0  0  0  0
   39.9380   23.7330   43.6270 H   0  0  0  0  0  0  0  0  0  0  0  0
   41.4040   25.1350   43.0650 N   0  0  0  0  0  0  0  0  0  0  0  0
   41.5670   25.9670   42.0200 C   0  0  0  0  0  0  0  0  0  0  0  0
   42.5010   26.8810   41.6350 C   0  0  0  0  0  0  0  0  0  0  0  0
   42.3940   27.5960   40.4890 N   0  0  0  0  0  0  0  0  0  0  0  0
   41.3140   27.4040   39.6810 C   0  0  0  0  0  0  0  0  0  0  0  0
   41.1610   27.9380   38.7510 H   0  0  0  0  0  0  0  0  0  0  0  0
   40.3860   26.5100   40.0420 N   0  0  0  0  0  0  0  0  0  0  0  0
   40.4650   25.7850   41.1740 C   0  0  0  0  0  0  0  0  0  0  0  0
   43.6070   27.0410   42.5160 N   0  0  0  0  0  0  0  0  0  0  0  0
   44.6340   27.1890   42.5350 H   0  0  0  0  0  0  0  0  0  0  0  0
   43.4660   27.0230   43.5420 H   0  0  0  0  0  0  0  0  0  0  0  0
   36.7300   27.4930   40.7040 C   0  0  0  0  0  0  0  0  0  0  0  0
   37.2470   27.0440   41.9150 C   0  0  0  0  0  0  0  0  0  0  0  0
   38.1120   27.9020   42.5920 C   0  0  0  0  0  0  0  0  0  0  0  0
   38.4310   29.1190   42.0910 N   0  0  0  0  0  0  0  0  0  0  0  0
   37.9080   29.5190   40.9100 C   0  0  0  0  0  0  0  0  0  0  0  0
   37.0590   28.7140   40.2100 N   0  0  0  0  0  0  0  0  0  0  0  0
   36.0660   26.8780   40.1440 H   0  0  0  0  0  0  0  0  0  0  0  0
   38.5900   27.6830   43.5080 H   0  0  0  0  0  0  0  0  0  0  0  0
   37.0140   31.6260   39.9390 C   0  0  2  0  0  0  0  0  0  0  0  0
   38.2740   30.8430   40.4060 C   0  0  1  0  0  0  0  0  0  0  0  0
   38.7390   31.7190   41.3260 O   0  0  0  0  0  0  0  0  0  0  0  0
   38.7010   32.9690   40.7810 C   0  0  0  0  0  0  0  0  0  0  0  0
   37.7190   32.9520   39.6260 C   0  0  2  0  0  0  0  0  0  0  0  0
   36.5810   31.1650   39.0350 H   0  0  0  0  0  0  0  0  0  0  0  0
   38.9770   30.7950   39.5370 H   0  0  0  0  0  0  0  0  0  0  0  0
   38.3550   33.6850   41.5550 H   0  0  0  0  0  0  0  0  0  0  0  0
   39.7330   33.2270   40.4240 H   0  0  0  0  0  0  0  0  0  0  0  0
   38.2870   32.8850   38.6840 H   0  0  0  0  0  0  0  0  0  0  0  0
   36.1870   31.8450   40.9780 O   0  0  0  0  0  0  0  0  0  0  0  0
   35.2660   32.0200   40.6070 H   0  0  0  0  0  0  0  0  0  0  0  0
   36.8720   34.0180   39.5920 O   0  0  0  0  0  0  0  0  0  0  0  0
   35.9440   33.8070   39.8730 H   0  0  0  0  0  0  0  0  0  0  0  0
  1  2  1  0  0  0  0
  1  3  1  0  0  0  0
  4  1  1  0  0  0  0
  5 10  1  0  0  0  0
  5  4  2  0  0  0  0
  6  5  1  0  0  0  0
  7  6  2  0  0  0  0
  7  8  1  0  0  0  0
  8  9  2  0  0  0  0
  9  4  1  0  0  0  0
  9 14  1  0  0  0  0
 11  6  1  0  0  0  0
 12  7  1  0  0  0  0
 13  8  1  0  0  0  0
 14 15  1  0  0  0  0
 15 17  2  0  0  0  0
 15 16  1  0  0  0  0
 18 17  1  0  0  0  0
 19 18  1  0  0  0  0
 19 25  1  0  0  0  0
 20 19  2  0  0  0  0
 21 23  2  0  0  0  0
 21 20  1  0  0  0  0
 22 21  1  0  0  0  0
 23 24  1  0  0  0  0
 24 14  1  0  0  0  0
 24 18  2  0  0  0  0
 25 26  1  0  0  0  0
 25 27  1  0  0  0  0
 28 29  1  0  0  0  0
 29  1  1  0  0  0  0
 29 30  2  0  0  0  0
 30 35  1  0  0  0  0
 31 30  1  0  0  0  0
 32 31  2  0  0  0  0
 33 28  2  0  0  0  0
 33 32  1  0  0  0  0
 34 28  1  0  0  0  0
 36 41  1  6  0  0  0
 36 37  1  0  0  0  0
 36 46  1  0  0  0  0
 37 42  1  6  0  0  0
 37 32  1  0  0  0  0
 37 38  1  0  0  0  0
 39 38  1  0  0  0  0
 39 43  1  0  0  0  0
 40 45  1  6  0  0  0
 40 36  1  0  0  0  0
 40 39  1  0  0  0  0
 44 39  1  0  0  0  0
 47 46  1  0  0  0  0
 48 40  1  0  0  0  0
 48 49  1  0  0  0  0
M  END
>  <minimizedAffinity>
-6.66794443

$$$$

 OpenBabel03252503483D

 49 53  0  0  1  0  0  0  0  0999 V2000
   37.1230   26.5510   42.5200 C   0  0  0  0  0  0  0  0  0  0  0  0
   36.6790   27.5590   42.6430 H   0  0  0  0  0  0  0  0  0  0  0  0
   36.5710   25.9110   43.2490 H   0  0  0  0  0  0  0  0  0  0  0  0
   36.9060   26.1100   41.1350 C   0  0  0  0  0  0  0  0  0  0  0  0
   36.9510   24.8060   40.7030 C   0  0  0  0  0  0  0  0  0  0  0  0
   36.7470   24.4450   39.3950 C   0  0  0  0  0  0  0  0  0  0  0  0
   36.4850   25.4250   38.4730 C   0  0  0  0  0  0  0  0  0  0  0  0
   36.4340   26.7550   38.8880 C   0  0  0  0  0  0  0  0  0  0  0  0
   36.6430   27.1090   40.2230 C   0  0  0  0  0  0  0  0  0  0  0  0
   37.1630   24.0850   41.4810 H   0  0  0  0  0  0  0  0  0  0  0  0
   36.8040   23.3880   39.1560 H   0  0  0  0  0  0  0  0  0  0  0  0
   36.3340   25.0800   37.4640 H   0  0  0  0  0  0  0  0  0  0  0  0
   36.2170   27.4050   38.0380 H   0  0  0  0  0  0  0  0  0  0  0  0
   36.5100   28.5160   40.3370 N   0  0  0  0  0  0  0  0  0  0  0  0
   35.4210   29.2170   40.7030 C   0  0  0  0  0  0  0  0  0  0  0  0
   34.4440   28.8490   40.9800 H   0  0  0  0  0  0  0  0  0  0  0  0
   35.6900   30.5190   40.6860 N   0  0  0  0  0  0  0  0  0  0  0  0
   36.9690   30.6920   40.3050 C   0  0  0  0  0  0  0  0  0  0  0  0
   37.7950   31.7570   40.1060 C   0  0  0  0  0  0  0  0  0  0  0  0
   39.0820   31.6180   39.7080 N   0  0  0  0  0  0  0  0  0  0  0  0
   39.5830   30.3700   39.4930 C   0  0  0  0  0  0  0  0  0  0  0  0
   40.6010   30.1820   39.1740 H   0  0  0  0  0  0  0  0  0  0  0  0
   38.7870   29.3110   39.6830 N   0  0  0  0  0  0  0  0  0  0  0  0
   37.5050   29.4180   40.0790 C   0  0  0  0  0  0  0  0  0  0  0  0
   37.2190   33.0360   40.3460 N   0  0  0  0  0  0  0  0  0  0  0  0
   37.4230   33.9730   40.7430 H   0  0  0  0  0  0  0  0  0  0  0  0
   36.2420   33.2320   40.0650 H   0  0  0  0  0  0  0  0  0  0  0  0
   39.2070   27.8280   42.9230 C   0  0  0  0  0  0  0  0  0  0  0  0
   38.5450   26.6100   42.8140 C   0  0  0  0  0  0  0  0  0  0  0  0
   39.3050   25.4560   43.0000 C   0  0  0  0  0  0  0  0  0  0  0  0
   40.6290   25.5240   43.2760 N   0  0  0  0  0  0  0  0  0  0  0  0
   41.2360   26.7280   43.3740 C   0  0  0  0  0  0  0  0  0  0  0  0
   40.5350   27.8840   43.1980 N   0  0  0  0  0  0  0  0  0  0  0  0
   38.6740   28.7400   42.7890 H   0  0  0  0  0  0  0  0  0  0  0  0
   38.9380   24.4690   42.9280 H   0  0  0  0  0  0  0  0  0  0  0  0
   43.3240   25.3770   43.3890 C   0  0  2  0  0  0  0  0  0  0  0  0
   42.6670   26.7570   43.6790 C   0  0  1  0  0  0  0  0  0  0  0  0
   43.4300   27.5300   42.8730 O   0  0  0  0  0  0  0  0  0  0  0  0
   44.7360   27.1830   43.0610 C   0  0  0  0  0  0  0  0  0  0  0  0
   44.7740   25.7950   43.6690 C   0  0  2  0  0  0  0  0  0  0  0  0
   42.9680   24.6170   44.1030 H   0  0  0  0  0  0  0  0  0  0  0  0
   42.8740   27.0050   44.7510 H   0  0  0  0  0  0  0  0  0  0  0  0
   45.2480   27.1750   42.0770 H   0  0  0  0  0  0  0  0  0  0  0  0
   45.2010   27.9350   43.7530 H   0  0  0  0  0  0  0  0  0  0  0  0
   44.9550   25.8900   44.7510 H   0  0  0  0  0  0  0  0  0  0  0  0
   43.2360   25.0840   42.0780 O   0  0  0  0  0  0  0  0  0  0  0  0
   43.3340   24.0860   41.9780 H   0  0  0  0  0  0  0  0  0  0  0  0
   45.6920   24.9600   43.1080 O   0  0  0  0  0  0  0  0  0  0  0  0
   45.3010   24.2660   42.5150 H   0  0  0  0  0  0  0  0  0  0  0  0
  1  2  1  0  0  0  0
  1 29  1  0  0  0  0
  1  3  1  0  0  0  0
  4  1  1  0  0  0  0
  5  4  1  0  0  0  0
  5 10  1  0  0  0  0
  6  5  2  0  0  0  0
  7  8  2  0  0  0  0
  7  6  1  0  0  0  0
  8  9  1  0  0  0  0
  9 14  1  0  0  0  0
  9  4  2  0  0  0  0
 11  6  1  0  0  0  0
 12  7  1  0  0  0  0
 13  8  1  0  0  0  0
 14 15  1  0  0  0  0
 15 16  1  0  0  0  0
 17 15  2  0  0  0  0
 18 17  1  0  0  0  0
 19 18  1  0  0  0  0
 19 25  1  0  0  0  0
 20 19  2  0  0  0  0
 21 23  2  0  0  0  0
 21 20  1  0  0  0  0
 22 21  1  0  0  0  0
 23 24  1  0  0  0  0
 24 18  2  0  0  0  0
 24 14  1  0  0  0  0
 25 26  1  0  0  0  0
 27 25  1  0  0  0  0
 28 33  1  0  0  0  0
 29 28  2  0  0  0  0
 29 30  1  0  0  0  0
 30 31  2  0  0  0  0
 31 32  1  0  0  0  0
 32 37  1  0  0  0  0
 33 32  2  0  0  0  0
 34 28  1  0  0  0  0
 35 30  1  0  0  0  0
 36 40  1  0  0  0  0
 36 37  1  0  0  0  0
 36 41  1  1  0  0  0
 37 42  1  1  0  0  0
 38 39  1  0  0  0  0
 38 37  1  0  0  0  0
 39 40  1  0  0  0  0
 39 44  1  0  0  0  0
 40 45  1  1  0  0  0
 43 39  1  0  0  0  0
 46 36  1  0  0  0  0
 47 46  1  0  0  0  0
 48 40  1  0  0  0  0
 49 48  1  0  0  0  0
M  END
>  <minimizedAffinity>
-6.48939133

$$$$

 OpenBabel03252503483D

 49 53  0  0  1  0  0  0  0  0999 V2000
   36.9510   29.3520   42.3280 C   0  0  0  0  0  0  0  0  0  0  0  0
   36.1180   28.9750   42.9550 H   0  0  0  0  0  0  0  0  0  0  0  0
   37.0340   30.4330   42.5930 H   0  0  0  0  0  0  0  0  0  0  0  0
   38.1710   28.6110   42.6780 C   0  0  0  0  0  0  0  0  0  0  0  0
   38.2050   27.4230   43.3700 C   0  0  0  0  0  0  0  0  0  0  0  0
   39.3740   26.7720   43.6790 C   0  0  0  0  0  0  0  0  0  0  0  0
   40.5630   27.3270   43.2830 C   0  0  0  0  0  0  0  0  0  0  0  0
   40.5530   28.5310   42.5800 C   0  0  0  0  0  0  0  0  0  0  0  0
   39.3570   29.1830   42.2710 C   0  0  0  0  0  0  0  0  0  0  0  0
   37.2330   27.0430   43.6520 H   0  0  0  0  0  0  0  0  0  0  0  0
   39.2920   25.8400   44.2280 H   0  0  0  0  0  0  0  0  0  0  0  0
   41.4440   26.7700   43.5540 H   0  0  0  0  0  0  0  0  0  0  0  0
   41.5740   28.8330   42.3410 H   0  0  0  0  0  0  0  0  0  0  0  0
   39.6670   30.3590   41.5430 N   0  0  0  0  0  0  0  0  0  0  0  0
   39.6780   31.6290   41.9890 C   0  0  0  0  0  0  0  0  0  0  0  0
   39.4560   31.9990   42.9800 H   0  0  0  0  0  0  0  0  0  0  0  0
   40.0160   32.4560   41.0040 N   0  0  0  0  0  0  0  0  0  0  0  0
   40.2330   31.7340   39.8890 C   0  0  0  0  0  0  0  0  0  0  0  0
   40.5930   32.0050   38.6030 C   0  0  0  0  0  0  0  0  0  0  0  0
   40.7400   31.0370   37.6670 N   0  0  0  0  0  0  0  0  0  0  0  0
   40.5200   29.7370   38.0110 C   0  0  0  0  0  0  0  0  0  0  0  0
   40.6170   28.9110   37.3170 H   0  0  0  0  0  0  0  0  0  0  0  0
   40.1660   29.4510   39.2690 N   0  0  0  0  0  0  0  0  0  0  0  0
   40.0130   30.3910   40.2210 C   0  0  0  0  0  0  0  0  0  0  0  0
   40.8100   33.3780   38.3000 N   0  0  0  0  0  0  0  0  0  0  0  0
   41.4230   34.0180   37.7610 H   0  0  0  0  0  0  0  0  0  0  0  0
   40.1940   34.1070   38.7030 H   0  0  0  0  0  0  0  0  0  0  0  0
   36.4670   30.2390   40.0660 C   0  0  0  0  0  0  0  0  0  0  0  0
   36.6270   29.1560   40.9260 C   0  0  0  0  0  0  0  0  0  0  0  0
   36.4650   27.8840   40.3790 C   0  0  0  0  0  0  0  0  0  0  0  0
   36.1660   27.7140   39.0690 N   0  0  0  0  0  0  0  0  0  0  0  0
   36.0180   28.7920   38.2670 C   0  0  0  0  0  0  0  0  0  0  0  0
   36.1660   30.0560   38.7560 N   0  0  0  0  0  0  0  0  0  0  0  0
   36.5790   31.2320   40.4310 H   0  0  0  0  0  0  0  0  0  0  0  0
   36.5390   26.9780   40.9170 H   0  0  0  0  0  0  0  0  0  0  0  0
   36.5190   29.5230   35.9430 C   0  0  2  0  0  0  0  0  0  0  0  0
   35.7010   28.5650   36.8560 C   0  0  1  0  0  0  0  0  0  0  0  0
   36.1070   27.3820   36.3410 O   0  0  0  0  0  0  0  0  0  0  0  0
   36.0530   27.4690   34.9810 C   0  0  0  0  0  0  0  0  0  0  0  0
   36.0660   28.9360   34.5990 C   0  0  2  0  0  0  0  0  0  0  0  0
   36.1840   30.5650   36.0730 H   0  0  0  0  0  0  0  0  0  0  0  0
   34.6180   28.7290   36.6260 H   0  0  0  0  0  0  0  0  0  0  0  0
   36.9450   26.9640   34.5550 H   0  0  0  0  0  0  0  0  0  0  0  0
   35.1050   26.9750   34.6360 H   0  0  0  0  0  0  0  0  0  0  0  0
   35.0360   29.2460   34.3610 H   0  0  0  0  0  0  0  0  0  0  0  0
   37.8360   29.2750   36.0660 O   0  0  0  0  0  0  0  0  0  0  0  0
   38.3340   30.0990   35.7650 H   0  0  0  0  0  0  0  0  0  0  0  0
   36.9020   29.2420   33.5690 O   0  0  0  0  0  0  0  0  0  0  0  0
   37.7340   29.7080   33.8460 H   0  0  0  0  0  0  0  0  0  0  0  0
  1  3  1  0  0  0  0
  1  4  1  0  0  0  0
  1  2  1  0  0  0  0
  4  5  1  0  0  0  0
  5 10  1  0  0  0  0
  5  6  2  0  0  0  0
  6 11  1  0  0  0  0
  7 12  1  0  0  0  0
  7  6  1  0  0  0  0
  8  7  2  0  0  0  0
  9  8  1  0  0  0  0
  9  4  2  0  0  0  0
 13  8  1  0  0  0  0
 14 15  1  0  0  0  0
 14  9  1  0  0  0  0
 15 16  1  0  0  0  0
 17 15  2  0  0  0  0
 18 24  1  0  0  0  0
 18 17  1  0  0  0  0
 19 18  2  0  0  0  0
 20 21  2  0  0  0  0
 20 19  1  0  0  0  0
 21 23  1  0  0  0  0
 22 21  1  0  0  0  0
 23 24  2  0  0  0  0
 24 14  1  0  0  0  0
 25 19  1  0  0  0  0
 25 27  1  0  0  0  0
 26 25  1  0  0  0  0
 28 34  1  0  0  0  0
 28 29  1  0  0  0  0
 29  1  1  0  0  0  0
 30 35  1  0  0  0  0
 30 29  2  0  0  0  0
 31 30  1  0  0  0  0
 32 33  1  0  0  0  0
 32 31  2  0  0  0  0
 33 28  2  0  0  0  0
 36 46  1  0  0  0  0
 36 41  1  1  0  0  0
 36 37  1  0  0  0  0
 37 42  1  6  0  0  0
 37 32  1  0  0  0  0
 38 37  1  0  0  0  0
 39 38  1  0  0  0  0
 40 45  1  6  0  0  0
 40 39  1  0  0  0  0
 40 36  1  0  0  0  0
 43 39  1  0  0  0  0
 44 39  1  0  0  0  0
 47 46  1  0  0  0  0
 48 49  1  0  0  0  0
 48 40  1  0  0  0  0
M  END
>  <minimizedAffinity>
-6.37448883

$$$$

 OpenBabel03252503483D

 49 53  0  0  1  0  0  0  0  0999 V2000
   36.5310   30.9280   41.0270 C   0  0  0  0  0  0  0  0  0  0  0  0
   35.6810   31.0890   41.7210 H   0  0  0  0  0  0  0  0  0  0  0  0
   36.8870   31.9550   40.7770 H   0  0  0  0  0  0  0  0  0  0  0  0
   37.5630   30.1490   41.7260 C   0  0  0  0  0  0  0  0  0  0  0  0
   37.3190   29.1120   42.5950 C   0  0  0  0  0  0  0  0  0  0  0  0
   38.3200   28.4180   43.2290 C   0  0  0  0  0  0  0  0  0  0  0  0
   39.6220   28.7720   42.9890 C   0  0  0  0  0  0  0  0  0  0  0  0
   39.8930   29.8200   42.1110 C   0  0  0  0  0  0  0  0  0  0  0  0
   38.8660   30.5180   41.4720 C   0  0  0  0  0  0  0  0  0  0  0  0
   36.2710   28.8870   42.7390 H   0  0  0  0  0  0  0  0  0  0  0  0
   38.0220   27.6160   43.8960 H   0  0  0  0  0  0  0  0  0  0  0  0
   40.3610   28.1910   43.5160 H   0  0  0  0  0  0  0  0  0  0  0  0
   40.9720   29.9730   42.0320 H   0  0  0  0  0  0  0  0  0  0  0  0
   39.4500   31.5040   40.6380 N   0  0  0  0  0  0  0  0  0  0  0  0
   39.4950   32.8340   40.8370 C   0  0  0  0  0  0  0  0  0  0  0  0
   39.1010   33.4070   41.6630 H   0  0  0  0  0  0  0  0  0  0  0  0
   40.1270   33.4250   39.8260 N   0  0  0  0  0  0  0  0  0  0  0  0
   40.5070   32.4830   38.9430 C   0  0  0  0  0  0  0  0  0  0  0  0
   41.1670   32.4690   37.7520 C   0  0  0  0  0  0  0  0  0  0  0  0
   41.4130   31.3260   37.0670 N   0  0  0  0  0  0  0  0  0  0  0  0
   40.9880   30.1380   37.5780 C   0  0  0  0  0  0  0  0  0  0  0  0
   41.1480   29.1850   37.0880 H   0  0  0  0  0  0  0  0  0  0  0  0
   40.3380   30.1310   38.7480 N   0  0  0  0  0  0  0  0  0  0  0  0
   40.0790   31.2490   39.4510 C   0  0  0  0  0  0  0  0  0  0  0  0
   41.5880   33.7380   37.2650 N   0  0  0  0  0  0  0  0  0  0  0  0
   42.3680   34.2200   36.7790 H   0  0  0  0  0  0  0  0  0  0  0  0
   40.9790   34.5690   37.3730 H   0  0  0  0  0  0  0  0  0  0  0  0
   35.0480   29.2670   39.9420 C   0  0  0  0  0  0  0  0  0  0  0  0
   36.0660   30.2100   39.8530 C   0  0  0  0  0  0  0  0  0  0  0  0
   36.6150   30.4330   38.5910 C   0  0  0  0  0  0  0  0  0  0  0  0
   36.1710   29.7600   37.5020 N   0  0  0  0  0  0  0  0  0  0  0  0
   35.1790   28.8500   37.6310 C   0  0  0  0  0  0  0  0  0  0  0  0
   34.6130   28.5970   38.8450 N   0  0  0  0  0  0  0  0  0  0  0  0
   34.5940   29.0560   40.8820 H   0  0  0  0  0  0  0  0  0  0  0  0
   37.4020   31.1040   38.3810 H   0  0  0  0  0  0  0  0  0  0  0  0
   33.4860   27.2610   36.7400 C   0  0  2  0  0  0  0  0  0  0  0  0
   34.7250   28.1490   36.4290 C   0  0  1  0  0  0  0  0  0  0  0  0
   34.1930   28.9240   35.4570 O   0  0  0  0  0  0  0  0  0  0  0  0
   33.5200   28.1150   34.5880 C   0  0  0  0  0  0  0  0  0  0  0  0
   33.2080   26.8130   35.2990 C   0  0  2  0  0  0  0  0  0  0  0  0
   33.7660   26.4150   37.3890 H   0  0  0  0  0  0  0  0  0  0  0  0
   35.5120   27.4820   35.9960 H   0  0  0  0  0  0  0  0  0  0  0  0
   32.5750   28.6160   34.2940 H   0  0  0  0  0  0  0  0  0  0  0  0
   34.1780   27.9350   33.6970 H   0  0  0  0  0  0  0  0  0  0  0  0
   33.9350   26.0530   34.9750 H   0  0  0  0  0  0  0  0  0  0  0  0
   32.4490   28.0250   37.1320 O   0  0  0  0  0  0  0  0  0  0  0  0
   31.8120   27.4390   37.6470 H   0  0  0  0  0  0  0  0  0  0  0  0
   31.9370   26.3610   35.1120 O   0  0  0  0  0  0  0  0  0  0  0  0
   31.3440   26.4810   35.9000 H   0  0  0  0  0  0  0  0  0  0  0  0
  1  2  1  0  0  0  0
  1  4  1  0  0  0  0
  3  1  1  0  0  0  0
  4  5  1  0  0  0  0
  5 10  1  0  0  0  0
  5  6  2  0  0  0  0
  6 11  1  0  0  0  0
  7  6  1  0  0  0  0
  7 12  1  0  0  0  0
  8  7  2  0  0  0  0
  9  4  2  0  0  0  0
  9  8  1  0  0  0  0
 13  8  1  0  0  0  0
 14 15  1  0  0  0  0
 14  9  1  0  0  0  0
 15 16  1  0  0  0  0
 17 15  2  0  0  0  0
 18 24  1  0  0  0  0
 18 17  1  0  0  0  0
 19 18  2  0  0  0  0
 20 21  2  0  0  0  0
 20 19  1  0  0  0  0
 21 23  1  0  0  0  0
 22 21  1  0  0  0  0
 23 24  2  0  0  0  0
 24 14  1  0  0  0  0
 25 27  1  0  0  0  0
 25 19  1  0  0  0  0
 26 25  1  0  0  0  0
 28 34  1  0  0  0  0
 29 28  1  0  0  0  0
 29  1  1  0  0  0  0
 30 29  2  0  0  0  0
 31 32  2  0  0  0  0
 31 30  1  0  0  0  0
 32 33  1  0  0  0  0
 33 28  2  0  0  0  0
 35 30  1  0  0  0  0
 36 46  1  0  0  0  0
 36 41  1  1  0  0  0
 37 42  1  6  0  0  0
 37 36  1  0  0  0  0
 37 32  1  0  0  0  0
 38 37  1  0  0  0  0
 39 40  1  0  0  0  0
 39 38  1  0  0  0  0
 40 45  1  6  0  0  0
 40 36  1  0  0  0  0
 43 39  1  0  0  0  0
 44 39  1  0  0  0  0
 46 47  1  0  0  0  0
 48 40  1  0  0  0  0
 48 49  1  0  0  0  0
M  END
>  <minimizedAffinity>
-6.29746771

$$$$

 OpenBabel03252503483D

 49 53  0  0  1  0  0  0  0  0999 V2000
   36.8070   31.6620   40.5310 C   0  0  0  0  0  0  0  0  0  0  0  0
   36.3640   32.2720   41.3440 H   0  0  0  0  0  0  0  0  0  0  0  0
   36.0510   31.6950   39.7110 H   0  0  0  0  0  0  0  0  0  0  0  0
   38.0780   32.2780   40.1250 C   0  0  0  0  0  0  0  0  0  0  0  0
   38.7280   33.2760   40.8120 C   0  0  0  0  0  0  0  0  0  0  0  0
   39.9130   33.8250   40.3870 C   0  0  0  0  0  0  0  0  0  0  0  0
   40.4760   33.3620   39.2260 C   0  0  0  0  0  0  0  0  0  0  0  0
   39.8340   32.3500   38.5130 C   0  0  0  0  0  0  0  0  0  0  0  0
   38.6300   31.8000   38.9570 C   0  0  0  0  0  0  0  0  0  0  0  0
   38.2290   33.5940   41.7170 H   0  0  0  0  0  0  0  0  0  0  0  0
   40.3460   34.6070   41.0010 H   0  0  0  0  0  0  0  0  0  0  0  0
   41.4040   33.8310   38.9450 H   0  0  0  0  0  0  0  0  0  0  0  0
   40.4090   32.0980   37.6200 H   0  0  0  0  0  0  0  0  0  0  0  0
   38.2370   30.7910   38.0410 N   0  0  0  0  0  0  0  0  0  0  0  0
   37.3540   30.8910   37.0300 C   0  0  0  0  0  0  0  0  0  0  0  0
   36.7770   31.7490   36.7190 H   0  0  0  0  0  0  0  0  0  0  0  0
   37.2520   29.7250   36.3970 N   0  0  0  0  0  0  0  0  0  0  0  0
   38.0740   28.8380   36.9900 C   0  0  0  0  0  0  0  0  0  0  0  0
   38.3960   27.5280   36.8030 C   0  0  0  0  0  0  0  0  0  0  0  0
   39.2910   26.8770   37.5860 N   0  0  0  0  0  0  0  0  0  0  0  0
   39.8960   27.5480   38.6050 C   0  0  0  0  0  0  0  0  0  0  0  0
   40.6200   27.0940   39.2710 H   0  0  0  0  0  0  0  0  0  0  0  0
   39.5920   28.8350   38.8040 N   0  0  0  0  0  0  0  0  0  0  0  0
   38.7090   29.5080   38.0430 C   0  0  0  0  0  0  0  0  0  0  0  0
   37.7330   26.8780   35.7240 N   0  0  0  0  0  0  0  0  0  0  0  0
   37.8780   26.1930   34.9580 H   0  0  0  0  0  0  0  0  0  0  0  0
   36.7350   27.0740   35.5280 H   0  0  0  0  0  0  0  0  0  0  0  0
   36.2220   29.2560   40.6030 C   0  0  0  0  0  0  0  0  0  0  0  0
   37.0330   30.3090   41.0110 C   0  0  0  0  0  0  0  0  0  0  0  0
   38.0680   30.0070   41.8960 C   0  0  0  0  0  0  0  0  0  0  0  0
   38.2710   28.7410   42.3340 N   0  0  0  0  0  0  0  0  0  0  0  0
   37.4600   27.7450   41.9130 C   0  0  0  0  0  0  0  0  0  0  0  0
   36.4340   27.9920   41.0500 N   0  0  0  0  0  0  0  0  0  0  0  0
   35.4170   29.4310   39.9290 H   0  0  0  0  0  0  0  0  0  0  0  0
   38.7450   30.7080   42.3000 H   0  0  0  0  0  0  0  0  0  0  0  0
   37.2200   25.3270   41.3860 C   0  0  2  0  0  0  0  0  0  0  0  0
   37.7170   26.3910   42.4060 C   0  0  1  0  0  0  0  0  0  0  0  0
   39.0170   26.0240   42.4790 O   0  0  0  0  0  0  0  0  0  0  0  0
   39.0700   24.6670   42.6130 C   0  0  0  0  0  0  0  0  0  0  0  0
   37.7550   24.0920   42.1250 C   0  0  2  0  0  0  0  0  0  0  0  0
   36.1190   25.3270   41.3270 H   0  0  0  0  0  0  0  0  0  0  0  0
   37.2070   26.1820   43.3800 H   0  0  0  0  0  0  0  0  0  0  0  0
   39.9020   24.2800   41.9900 H   0  0  0  0  0  0  0  0  0  0  0  0
   39.2310   24.4290   43.6980 H   0  0  0  0  0  0  0  0  0  0  0  0
   37.1300   23.8540   42.9990 H   0  0  0  0  0  0  0  0  0  0  0  0
   37.9020   25.4310   40.2310 O   0  0  0  0  0  0  0  0  0  0  0  0
   37.3480   25.0020   39.5060 H   0  0  0  0  0  0  0  0  0  0  0  0
   37.8830   22.9990   41.3230 O   0  0  0  0  0  0  0  0  0  0  0  0
   37.7130   23.1780   40.3610 H   0  0  0  0  0  0  0  0  0  0  0  0
  1 29  1  0  0  0  0
  1  2  1  0  0  0  0
  3  1  1  0  0  0  0
  4  1  1  0  0  0  0
  4  5  1  0  0  0  0
  5 10  1  0  0  0  0
  6  5  2  0  0  0  0
  6 11  1  0  0  0  0
  7  6  1  0  0  0  0
  8  9  1  0  0  0  0
  8  7  2  0  0  0  0
  9  4  2  0  0  0  0
 12  7  1  0  0  0  0
 13  8  1  0  0  0  0
 14 24  1  0  0  0  0
 14  9  1  0  0  0  0
 15 14  1  0  0  0  0
 16 15  1  0  0  0  0
 17 18  1  0  0  0  0
 17 15  2  0  0  0  0
 18 24  1  0  0  0  0
 19 18  2  0  0  0  0
 19 20  1  0  0  0  0
 20 21  2  0  0  0  0
 21 23  1  0  0  0  0
 21 22  1  0  0  0  0
 24 23  2  0  0  0  0
 25 19  1  0  0  0  0
 26 25  1  0  0  0  0
 27 25  1  0  0  0  0
 28 29  2  0  0  0  0
 28 33  1  0  0  0  0
 29 30  1  0  0  0  0
 30 35  1  0  0  0  0
 30 31  2  0  0  0  0
 32 31  1  0  0  0  0
 32 37  1  0  0  0  0
 33 32  2  0  0  0  0
 34 28  1  0  0  0  0
 36 41  1  6  0  0  0
 36 40  1  0  0  0  0
 36 37  1  0  0  0  0
 37 38  1  0  0  0  0
 37 42  1  1  0  0  0
 38 39  1  0  0  0  0
 39 44  1  0  0  0  0
 40 39  1  0  0  0  0
 40 45  1  1  0  0  0
 43 39  1  0  0  0  0
 46 36  1  0  0  0  0
 47 46  1  0  0  0  0
 48 40  1  0  0  0  0
 49 48  1  0  0  0  0
M  END
>  <minimizedAffinity>
-6.25222254

$$$$

 OpenBabel03252503483D

 49 53  0  0  1  0  0  0  0  0999 V2000
   36.6590   30.3570   40.8800 C   0  0  0  0  0  0  0  0  0  0  0  0
   35.7650   30.5150   41.5150 H   0  0  0  0  0  0  0  0  0  0  0  0
   37.0390   31.3840   40.6690 H   0  0  0  0  0  0  0  0  0  0  0  0
   37.6350   29.5620   41.6380 C   0  0  0  0  0  0  0  0  0  0  0  0
   37.3500   28.8160   42.7580 C   0  0  0  0  0  0  0  0  0  0  0  0
   38.3000   28.0930   43.4360 C   0  0  0  0  0  0  0  0  0  0  0  0
   39.5930   28.1130   42.9810 C   0  0  0  0  0  0  0  0  0  0  0  0
   39.9060   28.8620   41.8470 C   0  0  0  0  0  0  0  0  0  0  0  0
   38.9290   29.5920   41.1660 C   0  0  0  0  0  0  0  0  0  0  0  0
   36.3120   28.8450   43.0610 H   0  0  0  0  0  0  0  0  0  0  0  0
   37.9730   27.5370   44.3080 H   0  0  0  0  0  0  0  0  0  0  0  0
   40.2920   27.5280   43.5540 H   0  0  0  0  0  0  0  0  0  0  0  0
   40.9700   28.7720   41.6200 H   0  0  0  0  0  0  0  0  0  0  0  0
   39.5420   30.2280   40.0570 N   0  0  0  0  0  0  0  0  0  0  0  0
   39.9540   29.6660   38.9060 C   0  0  0  0  0  0  0  0  0  0  0  0
   39.9000   28.6310   38.6030 H   0  0  0  0  0  0  0  0  0  0  0  0
   40.4840   30.5910   38.1100 N   0  0  0  0  0  0  0  0  0  0  0  0
   40.4250   31.7830   38.7330 C   0  0  0  0  0  0  0  0  0  0  0  0
   40.7950   33.0600   38.4390 C   0  0  0  0  0  0  0  0  0  0  0  0
   40.6020   34.0920   39.2940 N   0  0  0  0  0  0  0  0  0  0  0  0
   40.0170   33.8570   40.5020 C   0  0  0  0  0  0  0  0  0  0  0  0
   39.8310   34.6310   41.2360 H   0  0  0  0  0  0  0  0  0  0  0  0
   39.6460   32.6090   40.8100 N   0  0  0  0  0  0  0  0  0  0  0  0
   39.8240   31.5640   39.9800 C   0  0  0  0  0  0  0  0  0  0  0  0
   41.4010   33.2470   37.1650 N   0  0  0  0  0  0  0  0  0  0  0  0
   41.4450   33.9000   36.3590 H   0  0  0  0  0  0  0  0  0  0  0  0
   42.0630   32.5440   36.7910 H   0  0  0  0  0  0  0  0  0  0  0  0
   36.3610   30.2740   38.4220 C   0  0  0  0  0  0  0  0  0  0  0  0
   36.2720   29.6580   39.6670 C   0  0  0  0  0  0  0  0  0  0  0  0
   35.8000   28.3460   39.6930 C   0  0  0  0  0  0  0  0  0  0  0  0
   35.4450   27.7040   38.5540 N   0  0  0  0  0  0  0  0  0  0  0  0
   35.5460   28.3380   37.3640 C   0  0  0  0  0  0  0  0  0  0  0  0
   36.0010   29.6200   37.2890 N   0  0  0  0  0  0  0  0  0  0  0  0
   36.7140   31.2750   38.3450 H   0  0  0  0  0  0  0  0  0  0  0  0
   35.6650   27.7670   40.5650 H   0  0  0  0  0  0  0  0  0  0  0  0
   35.6930   28.3170   34.8820 C   0  0  2  0  0  0  0  0  0  0  0  0
   35.1580   27.6060   36.1580 C   0  0  1  0  0  0  0  0  0  0  0  0
   35.7380   26.3960   35.9860 O   0  0  0  0  0  0  0  0  0  0  0  0
   35.5510   26.0140   34.6900 C   0  0  0  0  0  0  0  0  0  0  0  0
   35.2480   27.2530   33.8700 C   0  0  2  0  0  0  0  0  0  0  0  0
   35.1770   29.2780   34.7250 H   0  0  0  0  0  0  0  0  0  0  0  0
   34.0480   27.5150   36.0460 H   0  0  0  0  0  0  0  0  0  0  0  0
   36.4830   25.5400   34.3200 H   0  0  0  0  0  0  0  0  0  0  0  0
   34.6900   25.2940   34.6580 H   0  0  0  0  0  0  0  0  0  0  0  0
   34.1610   27.3030   33.6980 H   0  0  0  0  0  0  0  0  0  0  0  0
   37.0390   28.3310   34.8840 O   0  0  0  0  0  0  0  0  0  0  0  0
   37.3410   29.0720   34.2710 H   0  0  0  0  0  0  0  0  0  0  0  0
   35.9170   27.3210   32.6870 O   0  0  0  0  0  0  0  0  0  0  0  0
   36.6640   27.9750   32.6800 H   0  0  0  0  0  0  0  0  0  0  0  0
  1  2  1  0  0  0  0
  1  4  1  0  0  0  0
  3  1  1  0  0  0  0
  4  5  1  0  0  0  0
  5 10  1  0  0  0  0
  5  6  2  0  0  0  0
  6 11  1  0  0  0  0
  7  6  1  0  0  0  0
  7 12  1  0  0  0  0
  8  7  2  0  0  0  0
  9  4  2  0  0  0  0
  9  8  1  0  0  0  0
 13  8  1  0  0  0  0
 14  9  1  0  0  0  0
 15 14  1  0  0  0  0
 16 15  1  0  0  0  0
 17 18  1  0  0  0  0
 17 15  2  0  0  0  0
 18 24  1  0  0  0  0
 19 18  2  0  0  0  0
 19 20  1  0  0  0  0
 20 21  2  0  0  0  0
 21 23  1  0  0  0  0
 21 22  1  0  0  0  0
 24 14  1  0  0  0  0
 24 23  2  0  0  0  0
 25 19  1  0  0  0  0
 26 25  1  0  0  0  0
 27 25  1  0  0  0  0
 28 29  1  0  0  0  0
 29 30  2  0  0  0  0
 29  1  1  0  0  0  0
 30 35  1  0  0  0  0
 31 30  1  0  0  0  0
 32 31  2  0  0  0  0
 33 32  1  0  0  0  0
 33 28  2  0  0  0  0
 34 28  1  0  0  0  0
 36 41  1  6  0  0  0
 36 46  1  0  0  0  0
 36 37  1  0  0  0  0
 37 42  1  6  0  0  0
 37 32  1  0  0  0  0
 38 37  1  0  0  0  0
 39 38  1  0  0  0  0
 40 45  1  6  0  0  0
 40 39  1  0  0  0  0
 40 36  1  0  0  0  0
 43 39  1  0  0  0  0
 44 39  1  0  0  0  0
 47 46  1  0  0  0  0
 48 40  1  0  0  0  0
 49 48  1  0  0  0  0
M  END
>  <minimizedAffinity>
-6.23399115

$$$$
