
 OpenBabel03242521453D

 43 46  0  0  1  0  0  0  0  0999 V2000
   37.4600   27.0600   42.7790 C   0  0  0  0  0  0  0  0  0  0  0  0
   38.8250   27.1790   43.0860 C   0  0  0  0  0  0  0  0  0  0  0  0
   39.6860   26.1180   42.7740 C   0  0  0  0  0  0  0  0  0  0  0  0
   39.1540   25.0450   42.1960 N   0  0  0  0  0  0  0  0  0  0  0  0
   37.8360   24.9450   41.9070 C   0  0  0  0  0  0  0  0  0  0  0  0
   36.9870   25.9520   42.1970 N   0  0  0  0  0  0  0  0  0  0  0  0
   39.1390   28.0940   43.5520 H   0  0  0  0  0  0  0  0  0  0  0  0
   37.4860   24.0520   41.4430 H   0  0  0  0  0  0  0  0  0  0  0  0
   41.9730   25.1400   42.8080 C   0  0  2  0  0  0  0  0  0  0  0  0
   41.0920   26.2990   43.1160 C   0  0  2  0  0  0  0  0  0  0  0  0
   41.3300   26.4540   44.5140 O   0  0  0  0  0  0  0  0  0  0  0  0
   42.7120   26.4930   44.5690 C   0  0  0  0  0  0  0  0  0  0  0  0
   43.2750   25.6880   43.4320 C   0  0  1  0  0  0  0  0  0  0  0  0
   41.7560   24.2460   43.4540 H   0  0  0  0  0  0  0  0  0  0  0  0
   41.5390   27.2200   42.6600 H   0  0  0  0  0  0  0  0  0  0  0  0
   43.0430   26.0220   45.5180 H   0  0  0  0  0  0  0  0  0  0  0  0
   43.0580   27.5280   44.4870 H   0  0  0  0  0  0  0  0  0  0  0  0
   43.8020   26.3060   42.6770 H   0  0  0  0  0  0  0  0  0  0  0  0
   42.0790   24.8360   41.4850 O   0  0  0  0  0  0  0  0  0  0  0  0
   42.1400   23.8750   41.2760 H   0  0  0  0  0  0  0  0  0  0  0  0
   44.0590   24.6140   43.8400 O   0  0  0  0  0  0  0  0  0  0  0  0
   43.9370   23.8980   43.1840 H   0  0  0  0  0  0  0  0  0  0  0  0
   36.5470   28.2060   43.1300 C   0  0  0  0  0  0  0  0  0  0  0  0
   35.5750   28.0600   42.6410 H   0  0  0  0  0  0  0  0  0  0  0  0
   36.4960   28.2980   44.2270 H   0  0  0  0  0  0  0  0  0  0  0  0
   36.9520   30.0750   41.4060 C   0  0  0  0  0  0  0  0  0  0  0  0
   36.0940   29.5510   40.6480 O   0  0  0  0  0  0  0  0  0  0  0  0
   37.1950   29.4120   42.6270 N   0  0  0  0  0  0  0  0  0  0  0  0
   37.9350   29.8440   43.2500 H   0  0  0  0  0  0  0  0  0  0  0  0
   36.1580   32.7120   40.5320 H   0  0  0  0  0  0  0  0  0  0  0  0
   37.1520   32.4780   40.6660 N   0  0  0  0  0  0  0  0  0  0  0  0
   37.6680   31.2990   41.0670 C   0  0  0  0  0  0  0  0  0  0  0  0
   39.0050   31.4530   41.1000 N   0  0  0  0  0  0  0  0  0  0  0  0
   39.3470   32.7020   40.7300 C   0  0  0  0  0  0  0  0  0  0  0  0
   40.5990   33.2760   40.6270 C   0  0  0  0  0  0  0  0  0  0  0  0
   40.5950   34.5720   40.2210 N   0  0  0  0  0  0  0  0  0  0  0  0
   39.4710   35.2510   39.9390 C   0  0  0  0  0  0  0  0  0  0  0  0
   39.5060   36.2930   39.6150 H   0  0  0  0  0  0  0  0  0  0  0  0
   38.2500   34.6630   40.0490 N   0  0  0  0  0  0  0  0  0  0  0  0
   38.1680   33.3620   40.4520 C   0  0  0  0  0  0  0  0  0  0  0  0
   41.8000   32.5610   40.9240 N   0  0  0  0  0  0  0  0  0  0  0  0
   41.7100   31.5100   40.9260 H   0  0  0  0  0  0  0  0  0  0  0  0
   42.6350   33.1690   41.1060 H   0  0  0  0  0  0  0  0  0  0  0  0
  1  2  1  0  0  0  0
  1 23  1  0  0  0  0
  2  7  1  0  0  0  0
  3  2  2  0  0  0  0
  3 10  1  0  0  0  0
  4  3  1  0  0  0  0
  5  4  2  0  0  0  0
  5  6  1  0  0  0  0
  6  1  2  0  0  0  0
  8  5  1  0  0  0  0
  9 10  1  0  0  0  0
  9 13  1  0  0  0  0
  9 14  1  1  0  0  0
 10 15  1  6  0  0  0
 10 11  1  0  0  0  0
 11 12  1  0  0  0  0
 12 16  1  0  0  0  0
 13 18  1  6  0  0  0
 13 21  1  0  0  0  0
 13 12  1  0  0  0  0
 17 12  1  0  0  0  0
 19  9  1  0  0  0  0
 20 19  1  0  0  0  0
 22 21  1  0  0  0  0
 23 25  1  0  0  0  0
 24 23  1  0  0  0  0
 26 28  1  0  0  0  0
 27 26  2  0  0  0  0
 28 23  1  0  0  0  0
 28 29  1  0  0  0  0
 30 31  1  0  0  0  0
 31 32  1  0  0  0  0
 32 33  2  0  0  0  0
 32 26  1  0  0  0  0
 34 33  1  0  0  0  0
 35 34  1  0  0  0  0
 35 41  1  0  0  0  0
 36 35  2  0  0  0  0
 37 39  2  0  0  0  0
 37 36  1  0  0  0  0
 38 37  1  0  0  0  0
 39 40  1  0  0  0  0
 40 31  1  0  0  0  0
 40 34  2  0  0  0  0
 41 42  1  0  0  0  0
 41 43  1  0  0  0  0
M  END
>  <minimizedAffinity>
-7.01011133

$$$$

 OpenBabel03242521453D

 43 46  0  0  1  0  0  0  0  0999 V2000
   38.5580   33.3700   39.9580 C   0  0  0  0  0  0  0  0  0  0  0  0
   39.7740   32.8250   39.5120 C   0  0  0  0  0  0  0  0  0  0  0  0
   40.8760   33.6740   39.3430 C   0  0  0  0  0  0  0  0  0  0  0  0
   40.7070   34.9640   39.6200 N   0  0  0  0  0  0  0  0  0  0  0  0
   39.5290   35.4740   40.0480 C   0  0  0  0  0  0  0  0  0  0  0  0
   38.4530   34.6780   40.2190 N   0  0  0  0  0  0  0  0  0  0  0  0
   39.7900   31.7690   39.3220 H   0  0  0  0  0  0  0  0  0  0  0  0
   39.4730   36.5190   40.2490 H   0  0  0  0  0  0  0  0  0  0  0  0
   42.2720   32.9940   37.4000 C   0  0  2  0  0  0  0  0  0  0  0  0
   42.1100   33.0520   38.8780 C   0  0  2  0  0  0  0  0  0  0  0  0
   42.2220   31.6700   39.2150 O   0  0  0  0  0  0  0  0  0  0  0  0
   43.3950   31.3120   38.5750 C   0  0  0  0  0  0  0  0  0  0  0  0
   43.5790   32.1730   37.3580 C   0  0  1  0  0  0  0  0  0  0  0  0
   41.5360   32.2980   36.9100 H   0  0  0  0  0  0  0  0  0  0  0  0
   43.0290   33.5160   39.3200 H   0  0  0  0  0  0  0  0  0  0  0  0
   43.3080   30.2570   38.2390 H   0  0  0  0  0  0  0  0  0  0  0  0
   44.2450   31.4520   39.2510 H   0  0  0  0  0  0  0  0  0  0  0  0
   44.4400   32.8670   37.4380 H   0  0  0  0  0  0  0  0  0  0  0  0
   42.3590   34.2050   36.7840 O   0  0  0  0  0  0  0  0  0  0  0  0
   41.9260   34.2630   35.9010 H   0  0  0  0  0  0  0  0  0  0  0  0
   43.6170   31.4570   36.1660 O   0  0  0  0  0  0  0  0  0  0  0  0
   43.2150   32.0210   35.4740 H   0  0  0  0  0  0  0  0  0  0  0  0
   37.3800   32.4460   40.1260 C   0  0  0  0  0  0  0  0  0  0  0  0
   36.6310   32.9240   40.7690 H   0  0  0  0  0  0  0  0  0  0  0  0
   37.0090   32.1580   39.1280 H   0  0  0  0  0  0  0  0  0  0  0  0
   37.1640   30.1210   41.2090 C   0  0  0  0  0  0  0  0  0  0  0  0
   35.9130   30.1860   41.0800 O   0  0  0  0  0  0  0  0  0  0  0  0
   37.8980   31.2360   40.7560 N   0  0  0  0  0  0  0  0  0  0  0  0
   38.9480   31.1860   40.8890 H   0  0  0  0  0  0  0  0  0  0  0  0
   39.4680   29.7740   42.9180 H   0  0  0  0  0  0  0  0  0  0  0  0
   38.9310   28.9610   42.5850 N   0  0  0  0  0  0  0  0  0  0  0  0
   37.8420   28.9680   41.7900 C   0  0  0  0  0  0  0  0  0  0  0  0
   37.4790   27.6840   41.6200 N   0  0  0  0  0  0  0  0  0  0  0  0
   38.3120   26.8630   42.2880 C   0  0  0  0  0  0  0  0  0  0  0  0
   38.3010   25.4840   42.3810 C   0  0  0  0  0  0  0  0  0  0  0  0
   39.2940   24.9620   43.1450 N   0  0  0  0  0  0  0  0  0  0  0  0
   40.2180   25.7130   43.7650 C   0  0  0  0  0  0  0  0  0  0  0  0
   41.0040   25.2570   44.3720 H   0  0  0  0  0  0  0  0  0  0  0  0
   40.2080   27.0680   43.6580 N   0  0  0  0  0  0  0  0  0  0  0  0
   39.2410   27.6730   42.9080 C   0  0  0  0  0  0  0  0  0  0  0  0
   37.3210   24.6770   41.7250 N   0  0  0  0  0  0  0  0  0  0  0  0
   36.8060   25.1480   40.9340 H   0  0  0  0  0  0  0  0  0  0  0  0
   37.2290   23.7060   42.1090 H   0  0  0  0  0  0  0  0  0  0  0  0
  1 23  1  0  0  0  0
  1  6  1  0  0  0  0
  2  1  2  0  0  0  0
  3  2  1  0  0  0  0
  3  4  2  0  0  0  0
  4  5  1  0  0  0  0
  5  6  2  0  0  0  0
  5  8  1  0  0  0  0
  7  2  1  0  0  0  0
  9 14  1  6  0  0  0
  9 10  1  0  0  0  0
 10 11  1  0  0  0  0
 10 15  1  1  0  0  0
 10  3  1  0  0  0  0
 12 11  1  0  0  0  0
 12 17  1  0  0  0  0
 13  9  1  0  0  0  0
 13 18  1  1  0  0  0
 13 12  1  0  0  0  0
 16 12  1  0  0  0  0
 19  9  1  0  0  0  0
 20 19  1  0  0  0  0
 21 13  1  0  0  0  0
 22 21  1  0  0  0  0
 23 28  1  0  0  0  0
 23 24  1  0  0  0  0
 25 23  1  0  0  0  0
 26 32  1  0  0  0  0
 27 26  2  0  0  0  0
 28 29  1  0  0  0  0
 28 26  1  0  0  0  0
 31 40  1  0  0  0  0
 31 30  1  0  0  0  0
 32 31  1  0  0  0  0
 33 32  2  0  0  0  0
 33 34  1  0  0  0  0
 34 35  2  0  0  0  0
 34 40  1  0  0  0  0
 35 36  1  0  0  0  0
 36 37  2  0  0  0  0
 37 38  1  0  0  0  0
 39 37  1  0  0  0  0
 40 39  2  0  0  0  0
 41 43  1  0  0  0  0
 41 35  1  0  0  0  0
 42 41  1  0  0  0  0
M  END
>  <minimizedAffinity>
-6.98230505

$$$$

 OpenBabel03242521453D

 43 46  0  0  1  0  0  0  0  0999 V2000
   37.0150   31.6290   39.3130 C   0  0  0  0  0  0  0  0  0  0  0  0
   37.1760   31.0270   40.5720 C   0  0  0  0  0  0  0  0  0  0  0  0
   36.9620   29.6480   40.6970 C   0  0  0  0  0  0  0  0  0  0  0  0
   36.6140   28.9780   39.6010 N   0  0  0  0  0  0  0  0  0  0  0  0
   36.4620   29.5730   38.3960 C   0  0  0  0  0  0  0  0  0  0  0  0
   36.6620   30.8990   38.2490 N   0  0  0  0  0  0  0  0  0  0  0  0
   37.4600   31.6690   41.3840 H   0  0  0  0  0  0  0  0  0  0  0  0
   36.1810   28.9680   37.5650 H   0  0  0  0  0  0  0  0  0  0  0  0
   38.4880   28.4940   42.2870 C   0  0  2  0  0  0  0  0  0  0  0  0
   37.1440   29.0790   42.0270 C   0  0  2  0  0  0  0  0  0  0  0  0
   36.3060   27.9570   42.2950 O   0  0  0  0  0  0  0  0  0  0  0  0
   36.7510   27.5560   43.5420 C   0  0  0  0  0  0  0  0  0  0  0  0
   38.2030   27.9140   43.6890 C   0  0  1  0  0  0  0  0  0  0  0  0
   38.6830   27.5690   41.6790 H   0  0  0  0  0  0  0  0  0  0  0  0
   36.9030   29.8020   42.8490 H   0  0  0  0  0  0  0  0  0  0  0  0
   36.6610   26.4510   43.6120 H   0  0  0  0  0  0  0  0  0  0  0  0
   36.1720   28.0590   44.3230 H   0  0  0  0  0  0  0  0  0  0  0  0
   38.3840   28.7020   44.4470 H   0  0  0  0  0  0  0  0  0  0  0  0
   39.5170   29.3850   42.2570 O   0  0  0  0  0  0  0  0  0  0  0  0
   40.3590   29.0450   41.8750 H   0  0  0  0  0  0  0  0  0  0  0  0
   39.0320   26.8160   43.8930 O   0  0  0  0  0  0  0  0  0  0  0  0
   39.8900   27.0160   43.4660 H   0  0  0  0  0  0  0  0  0  0  0  0
   37.2400   33.1140   39.1990 C   0  0  0  0  0  0  0  0  0  0  0  0
   36.8290   33.4720   38.2450 H   0  0  0  0  0  0  0  0  0  0  0  0
   36.8200   33.6090   40.0910 H   0  0  0  0  0  0  0  0  0  0  0  0
   39.4250   34.0590   40.1780 C   0  0  0  0  0  0  0  0  0  0  0  0
   38.7620   34.6460   41.0720 O   0  0  0  0  0  0  0  0  0  0  0  0
   38.6850   33.3120   39.2380 N   0  0  0  0  0  0  0  0  0  0  0  0
   39.2460   32.8400   38.4740 H   0  0  0  0  0  0  0  0  0  0  0  0
   41.5530   34.3850   42.1060 H   0  0  0  0  0  0  0  0  0  0  0  0
   41.7610   34.2870   41.1020 N   0  0  0  0  0  0  0  0  0  0  0  0
   40.8790   34.1280   40.0950 C   0  0  0  0  0  0  0  0  0  0  0  0
   41.5990   34.0430   38.9610 N   0  0  0  0  0  0  0  0  0  0  0  0
   42.9160   34.1440   39.2260 C   0  0  0  0  0  0  0  0  0  0  0  0
   43.9920   34.1080   38.3610 C   0  0  0  0  0  0  0  0  0  0  0  0
   45.2040   34.2390   38.9610 N   0  0  0  0  0  0  0  0  0  0  0  0
   45.3550   34.3920   40.2860 C   0  0  0  0  0  0  0  0  0  0  0  0
   46.3470   34.4950   40.7340 H   0  0  0  0  0  0  0  0  0  0  0  0
   44.2790   34.4250   41.1160 N   0  0  0  0  0  0  0  0  0  0  0  0
   43.0260   34.2990   40.5930 C   0  0  0  0  0  0  0  0  0  0  0  0
   43.8400   33.9450   36.9500 N   0  0  0  0  0  0  0  0  0  0  0  0
   42.8780   34.1600   36.5730 H   0  0  0  0  0  0  0  0  0  0  0  0
   44.7070   33.6290   36.4520 H   0  0  0  0  0  0  0  0  0  0  0  0
  1  2  1  0  0  0  0
  2  3  2  0  0  0  0
  2  7  1  0  0  0  0
  3 10  1  0  0  0  0
  4  3  1  0  0  0  0
  5  4  2  0  0  0  0
  6  5  1  0  0  0  0
  6  1  2  0  0  0  0
  8  5  1  0  0  0  0
  9 14  1  6  0  0  0
  9 13  1  0  0  0  0
 10  9  1  0  0  0  0
 10 11  1  0  0  0  0
 10 15  1  1  0  0  0
 11 12  1  0  0  0  0
 12 16  1  0  0  0  0
 12 13  1  0  0  0  0
 12 17  1  0  0  0  0
 13 21  1  0  0  0  0
 13 18  1  1  0  0  0
 19  9  1  0  0  0  0
 20 19  1  0  0  0  0
 22 21  1  0  0  0  0
 23 28  1  0  0  0  0
 23  1  1  0  0  0  0
 23 25  1  0  0  0  0
 24 23  1  0  0  0  0
 26 27  2  0  0  0  0
 28 26  1  0  0  0  0
 29 28  1  0  0  0  0
 31 30  1  0  0  0  0
 32 26  1  0  0  0  0
 32 31  1  0  0  0  0
 33 34  1  0  0  0  0
 33 32  2  0  0  0  0
 34 40  1  0  0  0  0
 35 36  1  0  0  0  0
 35 34  2  0  0  0  0
 36 37  2  0  0  0  0
 37 38  1  0  0  0  0
 37 39  1  0  0  0  0
 40 31  1  0  0  0  0
 40 39  2  0  0  0  0
 41 35  1  0  0  0  0
 42 41  1  0  0  0  0
 43 41  1  0  0  0  0
M  END
>  <minimizedAffinity>
-6.86359215

$$$$

 OpenBabel03242521453D

 43 46  0  0  1  0  0  0  0  0999 V2000
   36.8690   30.8330   40.5360 C   0  0  0  0  0  0  0  0  0  0  0  0
   38.0150   30.1780   41.0170 C   0  0  0  0  0  0  0  0  0  0  0  0
   37.9090   28.8420   41.4270 C   0  0  0  0  0  0  0  0  0  0  0  0
   36.7160   28.2620   41.3360 N   0  0  0  0  0  0  0  0  0  0  0  0
   35.6220   28.9080   40.8700 C   0  0  0  0  0  0  0  0  0  0  0  0
   35.6960   30.1940   40.4690 N   0  0  0  0  0  0  0  0  0  0  0  0
   38.9240   30.7480   41.0450 H   0  0  0  0  0  0  0  0  0  0  0  0
   34.7000   28.3750   40.8270 H   0  0  0  0  0  0  0  0  0  0  0  0
   38.9350   27.1910   42.9800 C   0  0  2  0  0  0  0  0  0  0  0  0
   39.1310   28.2150   41.9180 C   0  0  2  0  0  0  0  0  0  0  0  0
   40.0200   29.1170   42.5750 O   0  0  0  0  0  0  0  0  0  0  0  0
   41.0130   28.2660   43.0260 C   0  0  0  0  0  0  0  0  0  0  0  0
   40.4230   26.9080   43.2840 C   0  0  1  0  0  0  0  0  0  0  0  0
   38.5730   27.6330   43.9480 H   0  0  0  0  0  0  0  0  0  0  0  0
   39.7530   27.7670   41.0990 H   0  0  0  0  0  0  0  0  0  0  0  0
   41.4050   28.6580   43.9890 H   0  0  0  0  0  0  0  0  0  0  0  0
   41.8010   28.1820   42.2720 H   0  0  0  0  0  0  0  0  0  0  0  0
   40.7910   26.1310   42.5840 H   0  0  0  0  0  0  0  0  0  0  0  0
   38.2320   26.0910   42.5940 O   0  0  0  0  0  0  0  0  0  0  0  0
   37.6320   25.7110   43.2770 H   0  0  0  0  0  0  0  0  0  0  0  0
   40.5350   26.4910   44.6070 O   0  0  0  0  0  0  0  0  0  0  0  0
   39.7460   25.9490   44.8090 H   0  0  0  0  0  0  0  0  0  0  0  0
   36.9980   32.2720   40.1080 C   0  0  0  0  0  0  0  0  0  0  0  0
   36.4900   32.4120   39.1450 H   0  0  0  0  0  0  0  0  0  0  0  0
   36.6240   32.9200   40.9190 H   0  0  0  0  0  0  0  0  0  0  0  0
   39.1110   33.7360   40.2440 C   0  0  0  0  0  0  0  0  0  0  0  0
   38.4040   34.7090   40.6160 O   0  0  0  0  0  0  0  0  0  0  0  0
   38.4270   32.5320   39.9760 N   0  0  0  0  0  0  0  0  0  0  0  0
   39.0240   31.7240   39.6400 H   0  0  0  0  0  0  0  0  0  0  0  0
   41.3500   33.6470   42.0690 H   0  0  0  0  0  0  0  0  0  0  0  0
   41.4980   33.7630   41.0560 N   0  0  0  0  0  0  0  0  0  0  0  0
   40.5580   33.8200   40.0920 C   0  0  0  0  0  0  0  0  0  0  0  0
   41.2100   33.9760   38.9250 N   0  0  0  0  0  0  0  0  0  0  0  0
   42.5410   34.0170   39.1270 C   0  0  0  0  0  0  0  0  0  0  0  0
   43.5650   34.1630   38.2110 C   0  0  0  0  0  0  0  0  0  0  0  0
   44.8110   34.1640   38.7530 N   0  0  0  0  0  0  0  0  0  0  0  0
   45.0410   34.0350   40.0700 C   0  0  0  0  0  0  0  0  0  0  0  0
   46.0580   34.0410   40.4690 H   0  0  0  0  0  0  0  0  0  0  0  0
   44.0150   33.8930   40.9500 N   0  0  0  0  0  0  0  0  0  0  0  0
   42.7320   33.8810   40.4870 C   0  0  0  0  0  0  0  0  0  0  0  0
   43.3300   34.3010   36.8090 N   0  0  0  0  0  0  0  0  0  0  0  0
   42.3520   34.5920   36.5440 H   0  0  0  0  0  0  0  0  0  0  0  0
   44.1630   34.0970   36.2050 H   0  0  0  0  0  0  0  0  0  0  0  0
  1  2  1  0  0  0  0
  2  7  1  0  0  0  0
  2  3  2  0  0  0  0
  3 10  1  0  0  0  0
  4  3  1  0  0  0  0
  5  4  2  0  0  0  0
  6  1  2  0  0  0  0
  6  5  1  0  0  0  0
  8  5  1  0  0  0  0
  9 13  1  0  0  0  0
  9 14  1  1  0  0  0
 10 15  1  6  0  0  0
 10 11  1  0  0  0  0
 10  9  1  0  0  0  0
 11 12  1  0  0  0  0
 12 13  1  0  0  0  0
 12 16  1  0  0  0  0
 13 18  1  6  0  0  0
 13 21  1  0  0  0  0
 17 12  1  0  0  0  0
 19  9  1  0  0  0  0
 19 20  1  0  0  0  0
 21 22  1  0  0  0  0
 23  1  1  0  0  0  0
 23 25  1  0  0  0  0
 24 23  1  0  0  0  0
 26 27  2  0  0  0  0
 28 23  1  0  0  0  0
 28 26  1  0  0  0  0
 29 28  1  0  0  0  0
 31 30  1  0  0  0  0
 32 26  1  0  0  0  0
 32 31  1  0  0  0  0
 33 34  1  0  0  0  0
 33 32  2  0  0  0  0
 34 40  1  0  0  0  0
 35 36  1  0  0  0  0
 35 34  2  0  0  0  0
 36 37  2  0  0  0  0
 37 38  1  0  0  0  0
 37 39  1  0  0  0  0
 40 39  2  0  0  0  0
 40 31  1  0  0  0  0
 41 35  1  0  0  0  0
 42 41  1  0  0  0  0
 43 41  1  0  0  0  0
M  END
>  <minimizedAffinity>
-6.78931713

$$$$

 OpenBabel03242521453D

 43 46  0  0  1  0  0  0  0  0999 V2000
   38.1500   27.2890   43.2660 C   0  0  0  0  0  0  0  0  0  0  0  0
   37.3860   26.4960   42.3930 C   0  0  0  0  0  0  0  0  0  0  0  0
   37.8490   25.2150   42.0610 C   0  0  0  0  0  0  0  0  0  0  0  0
   38.9980   24.8170   42.5990 N   0  0  0  0  0  0  0  0  0  0  0  0
   39.7220   25.5930   43.4380 C   0  0  0  0  0  0  0  0  0  0  0  0
   39.2990   26.8300   43.7740 N   0  0  0  0  0  0  0  0  0  0  0  0
   36.4750   26.9230   42.0210 H   0  0  0  0  0  0  0  0  0  0  0  0
   40.6330   25.2030   43.8290 H   0  0  0  0  0  0  0  0  0  0  0  0
   37.7160   23.3450   40.4250 C   0  0  2  0  0  0  0  0  0  0  0  0
   37.0140   24.4390   41.1500 C   0  0  2  0  0  0  0  0  0  0  0  0
   36.4940   25.1950   40.0580 O   0  0  0  0  0  0  0  0  0  0  0  0
   35.8540   24.2220   39.3130 C   0  0  0  0  0  0  0  0  0  0  0  0
   36.5480   22.9050   39.5170 C   0  0  1  0  0  0  0  0  0  0  0  0
   38.4660   23.7290   39.6810 H   0  0  0  0  0  0  0  0  0  0  0  0
   36.1040   24.0140   41.6460 H   0  0  0  0  0  0  0  0  0  0  0  0
   35.9340   24.4880   38.2380 H   0  0  0  0  0  0  0  0  0  0  0  0
   34.8110   24.1360   39.6320 H   0  0  0  0  0  0  0  0  0  0  0  0
   35.9290   22.1640   40.0630 H   0  0  0  0  0  0  0  0  0  0  0  0
   38.2040   22.3520   41.2190 O   0  0  0  0  0  0  0  0  0  0  0  0
   39.0650   21.9680   40.9330 H   0  0  0  0  0  0  0  0  0  0  0  0
   37.0730   22.3610   38.3490 O   0  0  0  0  0  0  0  0  0  0  0  0
   37.8860   21.8760   38.5940 H   0  0  0  0  0  0  0  0  0  0  0  0
   37.6430   28.6670   43.6050 C   0  0  0  0  0  0  0  0  0  0  0  0
   36.5850   28.7450   43.3220 H   0  0  0  0  0  0  0  0  0  0  0  0
   37.8470   28.8690   44.6700 H   0  0  0  0  0  0  0  0  0  0  0  0
   38.0600   30.3340   41.6890 C   0  0  0  0  0  0  0  0  0  0  0  0
   36.8860   30.1430   41.2770 O   0  0  0  0  0  0  0  0  0  0  0  0
   38.4510   29.6000   42.8280 N   0  0  0  0  0  0  0  0  0  0  0  0
   39.4480   29.7480   43.1560 H   0  0  0  0  0  0  0  0  0  0  0  0
   39.9860   32.2670   42.6410 H   0  0  0  0  0  0  0  0  0  0  0  0
   39.8410   32.1190   41.6320 N   0  0  0  0  0  0  0  0  0  0  0  0
   38.9850   31.2590   41.0450 C   0  0  0  0  0  0  0  0  0  0  0  0
   39.1380   31.4070   39.7160 N   0  0  0  0  0  0  0  0  0  0  0  0
   40.0710   32.3410   39.4470 C   0  0  0  0  0  0  0  0  0  0  0  0
   40.5310   32.7980   38.2280 C   0  0  0  0  0  0  0  0  0  0  0  0
   41.4890   33.7570   38.3090 N   0  0  0  0  0  0  0  0  0  0  0  0
   41.9580   34.2320   39.4750 C   0  0  0  0  0  0  0  0  0  0  0  0
   42.7300   35.0050   39.5010 H   0  0  0  0  0  0  0  0  0  0  0  0
   41.4880   33.7650   40.6620 N   0  0  0  0  0  0  0  0  0  0  0  0
   40.5250   32.7990   40.6670 C   0  0  0  0  0  0  0  0  0  0  0  0
   40.0380   32.2990   36.9830 N   0  0  0  0  0  0  0  0  0  0  0  0
   39.1090   31.8030   37.0340 H   0  0  0  0  0  0  0  0  0  0  0  0
   40.6610   32.4870   36.1610 H   0  0  0  0  0  0  0  0  0  0  0  0
  1 23  1  0  0  0  0
  1  6  1  0  0  0  0
  2  1  2  0  0  0  0
  3  2  1  0  0  0  0
  3  4  2  0  0  0  0
  4  5  1  0  0  0  0
  5  6  2  0  0  0  0
  5  8  1  0  0  0  0
  7  2  1  0  0  0  0
  9 14  1  6  0  0  0
  9 10  1  0  0  0  0
  9 19  1  0  0  0  0
 10 15  1  1  0  0  0
 10  3  1  0  0  0  0
 11 10  1  0  0  0  0
 12 13  1  0  0  0  0
 12 17  1  0  0  0  0
 12 11  1  0  0  0  0
 13 18  1  1  0  0  0
 13  9  1  0  0  0  0
 16 12  1  0  0  0  0
 20 19  1  0  0  0  0
 21 22  1  0  0  0  0
 21 13  1  0  0  0  0
 23 25  1  0  0  0  0
 24 23  1  0  0  0  0
 26 28  1  0  0  0  0
 27 26  2  0  0  0  0
 28 29  1  0  0  0  0
 28 23  1  0  0  0  0
 31 30  1  0  0  0  0
 32 31  1  0  0  0  0
 32 26  1  0  0  0  0
 33 32  2  0  0  0  0
 34 33  1  0  0  0  0
 34 40  1  0  0  0  0
 35 36  1  0  0  0  0
 35 34  2  0  0  0  0
 36 37  2  0  0  0  0
 37 38  1  0  0  0  0
 37 39  1  0  0  0  0
 39 40  2  0  0  0  0
 40 31  1  0  0  0  0
 41 42  1  0  0  0  0
 41 35  1  0  0  0  0
 43 41  1  0  0  0  0
M  END
>  <minimizedAffinity>
-6.78527403

$$$$

 OpenBabel03242521453D

 43 46  0  0  1  0  0  0  0  0999 V2000
   37.4580   29.3900   41.7610 C   0  0  0  0  0  0  0  0  0  0  0  0
   37.4440   28.1910   41.0290 C   0  0  0  0  0  0  0  0  0  0  0  0
   37.6600   26.9820   41.7040 C   0  0  0  0  0  0  0  0  0  0  0  0
   37.8680   27.0390   43.0170 N   0  0  0  0  0  0  0  0  0  0  0  0
   37.8780   28.2020   43.7070 C   0  0  0  0  0  0  0  0  0  0  0  0
   37.6720   29.3790   43.0810 N   0  0  0  0  0  0  0  0  0  0  0  0
   37.2660   28.2690   39.9740 H   0  0  0  0  0  0  0  0  0  0  0  0
   38.0510   28.1660   44.7580 H   0  0  0  0  0  0  0  0  0  0  0  0
   37.4960   24.5000   41.6550 C   0  0  2  0  0  0  0  0  0  0  0  0
   37.6350   25.7710   40.8920 C   0  0  2  0  0  0  0  0  0  0  0  0
   38.8480   25.5270   40.1820 O   0  0  0  0  0  0  0  0  0  0  0  0
   38.6000   24.2960   39.6020 C   0  0  0  0  0  0  0  0  0  0  0  0
   37.6500   23.5210   40.4710 C   0  0  1  0  0  0  0  0  0  0  0  0
   38.4020   24.2670   42.2780 H   0  0  0  0  0  0  0  0  0  0  0  0
   36.8510   25.7960   40.0920 H   0  0  0  0  0  0  0  0  0  0  0  0
   39.5540   23.7300   39.5470 H   0  0  0  0  0  0  0  0  0  0  0  0
   38.1540   24.4350   38.6120 H   0  0  0  0  0  0  0  0  0  0  0  0
   36.6570   23.3640   40.0030 H   0  0  0  0  0  0  0  0  0  0  0  0
   36.3250   24.3650   42.3350 O   0  0  0  0  0  0  0  0  0  0  0  0
   36.3920   23.9110   43.2070 H   0  0  0  0  0  0  0  0  0  0  0  0
   38.1770   22.3250   40.9490 O   0  0  0  0  0  0  0  0  0  0  0  0
   37.7940   22.1720   41.8360 H   0  0  0  0  0  0  0  0  0  0  0  0
   37.2330   30.6810   41.0190 C   0  0  0  0  0  0  0  0  0  0  0  0
   36.6940   30.4750   40.0840 H   0  0  0  0  0  0  0  0  0  0  0  0
   36.7260   31.3950   41.6890 H   0  0  0  0  0  0  0  0  0  0  0  0
   38.8820   32.5430   40.3540 C   0  0  0  0  0  0  0  0  0  0  0  0
   37.9160   33.3380   40.2160 O   0  0  0  0  0  0  0  0  0  0  0  0
   38.5560   31.2250   40.7360 N   0  0  0  0  0  0  0  0  0  0  0  0
   39.3710   30.5530   40.8270 H   0  0  0  0  0  0  0  0  0  0  0  0
   41.2310   32.6790   42.0310 H   0  0  0  0  0  0  0  0  0  0  0  0
   41.2760   32.9480   41.0380 N   0  0  0  0  0  0  0  0  0  0  0  0
   40.2700   32.9360   40.1410 C   0  0  0  0  0  0  0  0  0  0  0  0
   40.7870   33.3640   38.9740 N   0  0  0  0  0  0  0  0  0  0  0  0
   42.0960   33.6470   39.1110 C   0  0  0  0  0  0  0  0  0  0  0  0
   42.9980   34.1100   38.1730 C   0  0  0  0  0  0  0  0  0  0  0  0
   44.2590   34.2940   38.6440 N   0  0  0  0  0  0  0  0  0  0  0  0
   44.6110   34.0500   39.9170 C   0  0  0  0  0  0  0  0  0  0  0  0
   45.6360   34.2100   40.2610 H   0  0  0  0  0  0  0  0  0  0  0  0
   43.7040   33.5950   40.8210 N   0  0  0  0  0  0  0  0  0  0  0  0
   42.4150   33.3830   40.4270 C   0  0  0  0  0  0  0  0  0  0  0  0
   42.6320   34.3720   36.8170 N   0  0  0  0  0  0  0  0  0  0  0  0
   41.5980   34.4910   36.6450 H   0  0  0  0  0  0  0  0  0  0  0  0
   43.4390   34.4170   36.1490 H   0  0  0  0  0  0  0  0  0  0  0  0
  1  6  1  0  0  0  0
  2  3  1  0  0  0  0
  2  1  2  0  0  0  0
  3  4  2  0  0  0  0
  4  5  1  0  0  0  0
  5  8  1  0  0  0  0
  6  5  2  0  0  0  0
  7  2  1  0  0  0  0
  9 14  1  1  0  0  0
  9 19  1  0  0  0  0
 10 15  1  6  0  0  0
 10  9  1  0  0  0  0
 10  3  1  0  0  0  0
 11 10  1  0  0  0  0
 12 11  1  0  0  0  0
 12 13  1  0  0  0  0
 13 18  1  6  0  0  0
 13 21  1  0  0  0  0
 13  9  1  0  0  0  0
 16 12  1  0  0  0  0
 17 12  1  0  0  0  0
 19 20  1  0  0  0  0
 21 22  1  0  0  0  0
 23 25  1  0  0  0  0
 23  1  1  0  0  0  0
 24 23  1  0  0  0  0
 26 28  1  0  0  0  0
 27 26  2  0  0  0  0
 28 29  1  0  0  0  0
 28 23  1  0  0  0  0
 31 30  1  0  0  0  0
 32 26  1  0  0  0  0
 32 31  1  0  0  0  0
 33 34  1  0  0  0  0
 33 32  2  0  0  0  0
 34 40  1  0  0  0  0
 35 36  1  0  0  0  0
 35 34  2  0  0  0  0
 36 37  2  0  0  0  0
 37 38  1  0  0  0  0
 37 39  1  0  0  0  0
 40 39  2  0  0  0  0
 40 31  1  0  0  0  0
 41 35  1  0  0  0  0
 42 41  1  0  0  0  0
 43 41  1  0  0  0  0
M  END
>  <minimizedAffinity>
-6.7376709

$$$$

 OpenBabel03242521453D

 43 46  0  0  1  0  0  0  0  0999 V2000
   36.9880   28.1930   37.9480 C   0  0  0  0  0  0  0  0  0  0  0  0
   37.3980   28.5070   39.2550 C   0  0  0  0  0  0  0  0  0  0  0  0
   37.3640   27.5060   40.2350 C   0  0  0  0  0  0  0  0  0  0  0  0
   36.9430   26.2990   39.8680 N   0  0  0  0  0  0  0  0  0  0  0  0
   36.5510   26.0130   38.6050 C   0  0  0  0  0  0  0  0  0  0  0  0
   36.5740   26.9580   37.6430 N   0  0  0  0  0  0  0  0  0  0  0  0
   37.7190   29.5160   39.4330 H   0  0  0  0  0  0  0  0  0  0  0  0
   36.2260   25.0210   38.3890 H   0  0  0  0  0  0  0  0  0  0  0  0
   36.8460   27.5670   42.6680 C   0  0  2  0  0  0  0  0  0  0  0  0
   37.8000   27.8920   41.5720 C   0  0  2  0  0  0  0  0  0  0  0  0
   37.9440   29.3000   41.7490 O   0  0  0  0  0  0  0  0  0  0  0  0
   38.2470   29.3930   43.0960 C   0  0  0  0  0  0  0  0  0  0  0  0
   37.6110   28.2440   43.8270 C   0  0  1  0  0  0  0  0  0  0  0  0
   35.9030   28.1760   42.6160 H   0  0  0  0  0  0  0  0  0  0  0  0
   38.8070   27.4800   41.8410 H   0  0  0  0  0  0  0  0  0  0  0  0
   37.8120   30.3340   43.4940 H   0  0  0  0  0  0  0  0  0  0  0  0
   39.3310   29.3560   43.2360 H   0  0  0  0  0  0  0  0  0  0  0  0
   38.3480   27.5250   44.2380 H   0  0  0  0  0  0  0  0  0  0  0  0
   36.6200   26.2380   42.8560 O   0  0  0  0  0  0  0  0  0  0  0  0
   35.6980   25.9980   43.1070 H   0  0  0  0  0  0  0  0  0  0  0  0
   36.6930   28.6360   44.7960 O   0  0  0  0  0  0  0  0  0  0  0  0
   35.9940   27.9520   44.8280 H   0  0  0  0  0  0  0  0  0  0  0  0
   37.0210   29.2830   36.9090 C   0  0  0  0  0  0  0  0  0  0  0  0
   37.0840   28.8310   35.9100 H   0  0  0  0  0  0  0  0  0  0  0  0
   36.1510   29.9440   37.0570 H   0  0  0  0  0  0  0  0  0  0  0  0
   38.2800   31.4430   37.5230 C   0  0  0  0  0  0  0  0  0  0  0  0
   37.1840   32.0610   37.5630 O   0  0  0  0  0  0  0  0  0  0  0  0
   38.2140   30.0750   37.1860 N   0  0  0  0  0  0  0  0  0  0  0  0
   39.1420   29.5660   37.1300 H   0  0  0  0  0  0  0  0  0  0  0  0
   40.4880   32.3610   35.9010 H   0  0  0  0  0  0  0  0  0  0  0  0
   40.5100   32.4590   36.9260 N   0  0  0  0  0  0  0  0  0  0  0  0
   39.5610   32.0800   37.8050 C   0  0  0  0  0  0  0  0  0  0  0  0
   40.0160   32.4030   39.0290 N   0  0  0  0  0  0  0  0  0  0  0  0
   41.2320   32.9770   38.9470 C   0  0  0  0  0  0  0  0  0  0  0  0
   42.0490   33.4540   39.9540 C   0  0  0  0  0  0  0  0  0  0  0  0
   43.2250   33.9810   39.5250 N   0  0  0  0  0  0  0  0  0  0  0  0
   43.5770   34.0380   38.2300 C   0  0  0  0  0  0  0  0  0  0  0  0
   44.5320   34.4690   37.9220 H   0  0  0  0  0  0  0  0  0  0  0  0
   42.7540   33.5610   37.2580 N   0  0  0  0  0  0  0  0  0  0  0  0
   41.5530   33.0170   37.6060 C   0  0  0  0  0  0  0  0  0  0  0  0
   41.6830   33.3970   41.3340 N   0  0  0  0  0  0  0  0  0  0  0  0
   40.9180   32.7100   41.5680 H   0  0  0  0  0  0  0  0  0  0  0  0
   42.2220   34.0480   41.9540 H   0  0  0  0  0  0  0  0  0  0  0  0
  1  2  1  0  0  0  0
  2  7  1  0  0  0  0
  2  3  2  0  0  0  0
  3 10  1  0  0  0  0
  4  3  1  0  0  0  0
  5  4  2  0  0  0  0
  6  1  2  0  0  0  0
  6  5  1  0  0  0  0
  8  5  1  0  0  0  0
  9 14  1  6  0  0  0
  9 19  1  0  0  0  0
  9 13  1  0  0  0  0
 10 11  1  0  0  0  0
 10 15  1  1  0  0  0
 10  9  1  0  0  0  0
 11 12  1  0  0  0  0
 12 17  1  0  0  0  0
 12 16  1  0  0  0  0
 12 13  1  0  0  0  0
 13 18  1  1  0  0  0
 13 21  1  0  0  0  0
 19 20  1  0  0  0  0
 21 22  1  0  0  0  0
 23 25  1  0  0  0  0
 23 28  1  0  0  0  0
 23  1  1  0  0  0  0
 24 23  1  0  0  0  0
 26 27  2  0  0  0  0
 26 32  1  0  0  0  0
 28 26  1  0  0  0  0
 29 28  1  0  0  0  0
 30 31  1  0  0  0  0
 31 40  1  0  0  0  0
 31 32  1  0  0  0  0
 32 33  2  0  0  0  0
 34 33  1  0  0  0  0
 34 35  1  0  0  0  0
 35 41  1  0  0  0  0
 36 35  2  0  0  0  0
 37 36  1  0  0  0  0
 38 37  1  0  0  0  0
 39 40  1  0  0  0  0
 39 37  2  0  0  0  0
 40 34  2  0  0  0  0
 41 42  1  0  0  0  0
 41 43  1  0  0  0  0
M  END
>  <minimizedAffinity>
-6.58102226

$$$$

 OpenBabel03242521453D

 43 46  0  0  1  0  0  0  0  0999 V2000
   39.7890   33.1460   40.6140 C   0  0  0  0  0  0  0  0  0  0  0  0
   41.0970   33.0390   40.1120 C   0  0  0  0  0  0  0  0  0  0  0  0
   41.6960   34.1660   39.5340 C   0  0  0  0  0  0  0  0  0  0  0  0
   40.9840   35.2880   39.4930 N   0  0  0  0  0  0  0  0  0  0  0  0
   39.7240   35.3750   39.9800 C   0  0  0  0  0  0  0  0  0  0  0  0
   39.1250   34.3050   40.5420 N   0  0  0  0  0  0  0  0  0  0  0  0
   41.5730   32.0810   40.2020 H   0  0  0  0  0  0  0  0  0  0  0  0
   39.2180   36.3110   39.9100 H   0  0  0  0  0  0  0  0  0  0  0  0
   43.1550   33.6260   37.5920 C   0  0  2  0  0  0  0  0  0  0  0  0
   43.0540   33.9940   39.0310 C   0  0  2  0  0  0  0  0  0  0  0  0
   43.7600   32.9120   39.6350 O   0  0  0  0  0  0  0  0  0  0  0  0
   44.9430   32.9020   38.9170 C   0  0  0  0  0  0  0  0  0  0  0  0
   44.6840   33.4180   37.5290 C   0  0  1  0  0  0  0  0  0  0  0  0
   42.7640   32.5940   37.3800 H   0  0  0  0  0  0  0  0  0  0  0  0
   43.7070   34.8850   39.2190 H   0  0  0  0  0  0  0  0  0  0  0  0
   45.2970   31.8530   38.8310 H   0  0  0  0  0  0  0  0  0  0  0  0
   45.6820   33.5410   39.4090 H   0  0  0  0  0  0  0  0  0  0  0  0
   45.1700   34.3940   37.3280 H   0  0  0  0  0  0  0  0  0  0  0  0
   42.6890   34.5670   36.7260 O   0  0  0  0  0  0  0  0  0  0  0  0
   42.2310   34.2170   35.9270 H   0  0  0  0  0  0  0  0  0  0  0  0
   44.9660   32.4970   36.5270 O   0  0  0  0  0  0  0  0  0  0  0  0
   44.3300   32.6530   35.8000 H   0  0  0  0  0  0  0  0  0  0  0  0
   39.1560   31.9230   41.2240 C   0  0  0  0  0  0  0  0  0  0  0  0
   39.9350   31.1770   41.4350 H   0  0  0  0  0  0  0  0  0  0  0  0
   38.5660   32.2270   42.1040 H   0  0  0  0  0  0  0  0  0  0  0  0
   38.4490   30.4210   39.2570 C   0  0  0  0  0  0  0  0  0  0  0  0
   39.6100   29.9370   39.2180 O   0  0  0  0  0  0  0  0  0  0  0  0
   38.2160   31.4120   40.2320 N   0  0  0  0  0  0  0  0  0  0  0  0
   37.2440   31.8330   40.2440 H   0  0  0  0  0  0  0  0  0  0  0  0
   35.6340   29.8500   39.5740 H   0  0  0  0  0  0  0  0  0  0  0  0
   36.0890   29.7650   38.6540 N   0  0  0  0  0  0  0  0  0  0  0  0
   37.3830   29.9970   38.3560 C   0  0  0  0  0  0  0  0  0  0  0  0
   37.5250   29.7610   37.0390 N   0  0  0  0  0  0  0  0  0  0  0  0
   36.3510   29.3850   36.4950 C   0  0  0  0  0  0  0  0  0  0  0  0
   36.0550   29.0520   35.1880 C   0  0  0  0  0  0  0  0  0  0  0  0
   34.7570   28.7160   34.9710 N   0  0  0  0  0  0  0  0  0  0  0  0
   33.8290   28.7030   35.9410 C   0  0  0  0  0  0  0  0  0  0  0  0
   32.7930   28.4260   35.7290 H   0  0  0  0  0  0  0  0  0  0  0  0
   34.1460   29.0350   37.2200 N   0  0  0  0  0  0  0  0  0  0  0  0
   35.4290   29.3870   37.5220 C   0  0  0  0  0  0  0  0  0  0  0  0
   37.0360   29.0630   34.1490 N   0  0  0  0  0  0  0  0  0  0  0  0
   38.0380   29.0350   34.4770 H   0  0  0  0  0  0  0  0  0  0  0  0
   36.6420   29.0960   33.1780 H   0  0  0  0  0  0  0  0  0  0  0  0
  1 23  1  0  0  0  0
  2  7  1  0  0  0  0
  2  1  2  0  0  0  0
  3  2  1  0  0  0  0
  4  3  2  0  0  0  0
  4  5  1  0  0  0  0
  5  6  2  0  0  0  0
  6  1  1  0  0  0  0
  8  5  1  0  0  0  0
  9 14  1  6  0  0  0
  9 10  1  0  0  0  0
 10 15  1  1  0  0  0
 10  3  1  0  0  0  0
 10 11  1  0  0  0  0
 12 17  1  0  0  0  0
 12 11  1  0  0  0  0
 13 18  1  6  0  0  0
 13  9  1  0  0  0  0
 13 12  1  0  0  0  0
 16 12  1  0  0  0  0
 19  9  1  0  0  0  0
 20 19  1  0  0  0  0
 21 13  1  0  0  0  0
 22 21  1  0  0  0  0
 23 24  1  0  0  0  0
 23 25  1  0  0  0  0
 26 28  1  0  0  0  0
 27 26  2  0  0  0  0
 28 29  1  0  0  0  0
 28 23  1  0  0  0  0
 31 30  1  0  0  0  0
 32 31  1  0  0  0  0
 32 26  1  0  0  0  0
 33 32  2  0  0  0  0
 34 33  1  0  0  0  0
 34 40  1  0  0  0  0
 35 34  2  0  0  0  0
 36 35  1  0  0  0  0
 36 37  2  0  0  0  0
 37 39  1  0  0  0  0
 38 37  1  0  0  0  0
 39 40  2  0  0  0  0
 40 31  1  0  0  0  0
 41 42  1  0  0  0  0
 41 35  1  0  0  0  0
 43 41  1  0  0  0  0
M  END
>  <minimizedAffinity>
-6.52028275

$$$$

 OpenBabel03242521453D

 43 46  0  0  1  0  0  0  0  0999 V2000
   37.7820   29.5080   42.2840 C   0  0  0  0  0  0  0  0  0  0  0  0
   38.8210   30.4090   41.9930 C   0  0  0  0  0  0  0  0  0  0  0  0
   38.5590   31.4950   41.1480 C   0  0  0  0  0  0  0  0  0  0  0  0
   37.3260   31.6140   40.6620 N   0  0  0  0  0  0  0  0  0  0  0  0
   36.3370   30.7380   40.9520 C   0  0  0  0  0  0  0  0  0  0  0  0
   36.5630   29.6840   41.7630 N   0  0  0  0  0  0  0  0  0  0  0  0
   39.7740   30.2110   42.4440 H   0  0  0  0  0  0  0  0  0  0  0  0
   35.3750   30.9010   40.5230 H   0  0  0  0  0  0  0  0  0  0  0  0
   39.2930   33.7850   40.5110 C   0  0  2  0  0  0  0  0  0  0  0  0
   39.6750   32.3950   40.8820 C   0  0  2  0  0  0  0  0  0  0  0  0
   40.4620   32.0220   39.7530 O   0  0  0  0  0  0  0  0  0  0  0  0
   41.3550   33.0750   39.6620 C   0  0  0  0  0  0  0  0  0  0  0  0
   40.7070   34.3210   40.1980 C   0  0  1  0  0  0  0  0  0  0  0  0
   38.7880   33.8430   39.5090 H   0  0  0  0  0  0  0  0  0  0  0  0
   40.4120   32.4400   41.7250 H   0  0  0  0  0  0  0  0  0  0  0  0
   41.5940   33.2470   38.5910 H   0  0  0  0  0  0  0  0  0  0  0  0
   42.2530   32.8530   40.2470 H   0  0  0  0  0  0  0  0  0  0  0  0
   41.1690   34.6850   41.1380 H   0  0  0  0  0  0  0  0  0  0  0  0
   38.6420   34.4800   41.4840 O   0  0  0  0  0  0  0  0  0  0  0  0
   37.9340   35.0880   41.1670 H   0  0  0  0  0  0  0  0  0  0  0  0
   40.5980   35.3430   39.2600 O   0  0  0  0  0  0  0  0  0  0  0  0
   39.7770   35.8360   39.4610 H   0  0  0  0  0  0  0  0  0  0  0  0
   38.0830   28.3410   43.1870 C   0  0  0  0  0  0  0  0  0  0  0  0
   39.1370   28.3780   43.4920 H   0  0  0  0  0  0  0  0  0  0  0  0
   37.3650   28.3440   44.0250 H   0  0  0  0  0  0  0  0  0  0  0  0
   38.4750   25.8930   42.4930 C   0  0  0  0  0  0  0  0  0  0  0  0
   39.4120   25.8140   43.3290 O   0  0  0  0  0  0  0  0  0  0  0  0
   37.8210   27.1400   42.4020 N   0  0  0  0  0  0  0  0  0  0  0  0
   37.0490   27.2080   41.6800 H   0  0  0  0  0  0  0  0  0  0  0  0
   39.3490   23.1550   42.1940 H   0  0  0  0  0  0  0  0  0  0  0  0
   38.5780   23.5280   41.6220 N   0  0  0  0  0  0  0  0  0  0  0  0
   38.0660   24.7750   41.6510 C   0  0  0  0  0  0  0  0  0  0  0  0
   37.0780   24.8080   40.7370 N   0  0  0  0  0  0  0  0  0  0  0  0
   36.9530   23.6130   40.1300 C   0  0  0  0  0  0  0  0  0  0  0  0
   36.0730   23.2170   39.1420 C   0  0  0  0  0  0  0  0  0  0  0  0
   36.2130   21.9250   38.7450 N   0  0  0  0  0  0  0  0  0  0  0  0
   37.1290   21.0920   39.2640 C   0  0  0  0  0  0  0  0  0  0  0  0
   37.2120   20.0590   38.9200 H   0  0  0  0  0  0  0  0  0  0  0  0
   37.9830   21.5060   40.2360 N   0  0  0  0  0  0  0  0  0  0  0  0
   37.9080   22.7900   40.6910 C   0  0  0  0  0  0  0  0  0  0  0  0
   35.0950   24.0970   38.5840 N   0  0  0  0  0  0  0  0  0  0  0  0
   35.2770   25.1250   38.7360 H   0  0  0  0  0  0  0  0  0  0  0  0
   34.3080   23.6150   38.0860 H   0  0  0  0  0  0  0  0  0  0  0  0
  1 23  1  0  0  0  0
  2  1  1  0  0  0  0
  2  7  1  0  0  0  0
  3  2  2  0  0  0  0
  4  5  2  0  0  0  0
  4  3  1  0  0  0  0
  5  6  1  0  0  0  0
  6  1  2  0  0  0  0
  8  5  1  0  0  0  0
  9 14  1  6  0  0  0
  9 10  1  0  0  0  0
  9 19  1  0  0  0  0
 10  3  1  0  0  0  0
 10 15  1  1  0  0  0
 11 10  1  0  0  0  0
 12 11  1  0  0  0  0
 12 13  1  0  0  0  0
 12 17  1  0  0  0  0
 13  9  1  0  0  0  0
 13 18  1  1  0  0  0
 16 12  1  0  0  0  0
 20 19  1  0  0  0  0
 21 22  1  0  0  0  0
 21 13  1  0  0  0  0
 23 24  1  0  0  0  0
 23 25  1  0  0  0  0
 26 27  2  0  0  0  0
 28 26  1  0  0  0  0
 28 23  1  0  0  0  0
 29 28  1  0  0  0  0
 31 32  1  0  0  0  0
 31 30  1  0  0  0  0
 32 26  1  0  0  0  0
 33 32  2  0  0  0  0
 34 40  1  0  0  0  0
 34 33  1  0  0  0  0
 35 34  2  0  0  0  0
 36 35  1  0  0  0  0
 36 37  2  0  0  0  0
 37 39  1  0  0  0  0
 38 37  1  0  0  0  0
 39 40  2  0  0  0  0
 40 31  1  0  0  0  0
 41 42  1  0  0  0  0
 41 35  1  0  0  0  0
 43 41  1  0  0  0  0
M  END
>  <minimizedAffinity>
-6.48088264

$$$$
