
 OpenBabel03252502563D

 42 45  0  0  0  0  0  0  0  0999 V2000
   45.7280   29.7780   44.7220 Br  0  0  0  0  0  0  0  0  0  0  0  0
   45.7030   30.4330   46.5460 C   0  0  0  0  0  0  0  0  0  0  0  0
   46.3200   31.6270   46.7430 C   0  0  0  0  0  0  0  0  0  0  0  0
   46.2860   32.0760   48.0710 C   0  0  0  0  0  0  0  0  0  0  0  0
   45.6850   31.3780   49.0890 C   0  0  0  0  0  0  0  0  0  0  0  0
   45.0840   30.1790   48.8030 C   0  0  0  0  0  0  0  0  0  0  0  0
   45.0850   29.6840   47.5150 C   0  0  0  0  0  0  0  0  0  0  0  0
   46.7440   33.0100   48.3420 H   0  0  0  0  0  0  0  0  0  0  0  0
   45.6830   31.7610   50.0990 H   0  0  0  0  0  0  0  0  0  0  0  0
   44.5970   29.5850   49.5610 H   0  0  0  0  0  0  0  0  0  0  0  0
   46.9940   32.4680   45.7500 C   0  0  0  0  0  0  0  0  0  0  0  0
   47.9710   32.7810   46.1360 H   0  0  0  0  0  0  0  0  0  0  0  0
   47.2230   31.7970   44.8760 H   0  0  0  0  0  0  0  0  0  0  0  0
   44.5410   35.2620   45.5280 C   0  0  0  0  0  0  0  0  0  0  0  0
   44.7250   35.7090   44.2210 C   0  0  0  0  0  0  0  0  0  0  0  0
   45.6820   35.0530   43.4360 C   0  0  0  0  0  0  0  0  0  0  0  0
   46.3720   34.0300   43.9740 N   0  0  0  0  0  0  0  0  0  0  0  0
   46.1810   33.6030   45.2560 C   0  0  0  0  0  0  0  0  0  0  0  0
   45.2540   34.2460   46.0010 N   0  0  0  0  0  0  0  0  0  0  0  0
   43.7970   35.7780   46.1260 H   0  0  0  0  0  0  0  0  0  0  0  0
   44.1710   36.5310   43.7860 H   0  0  0  0  0  0  0  0  0  0  0  0
   45.9000   35.3160   42.4240 H   0  0  0  0  0  0  0  0  0  0  0  0
   44.4720   28.4660   47.2380 O   0  0  0  0  0  0  0  0  0  0  0  0
   44.2370   25.8800   47.1900 O   0  0  0  0  0  0  0  0  0  0  0  0
   44.9180   27.0010   47.9520 P   0  0  2  0  0  0  0  0  0  0  0  0
   44.3980   27.0330   49.5500 O   0  0  0  0  0  0  0  0  0  0  0  0
   45.1150   27.3920   50.1150 H   0  0  0  0  0  0  0  0  0  0  0  0
   46.5900   26.7530   47.8590 O   0  0  0  0  0  0  0  0  0  0  0  0
   45.9880   24.0690   48.5660 H   0  0  0  0  0  0  0  0  0  0  0  0
   46.9280   24.4720   48.7660 N   0  0  0  0  0  0  0  0  0  0  0  0
   47.2790   25.7360   48.4570 C   0  0  0  0  0  0  0  0  0  0  0  0
   48.5550   25.9210   48.8520 N   0  0  0  0  0  0  0  0  0  0  0  0
   48.9610   24.7520   49.4000 C   0  0  0  0  0  0  0  0  0  0  0  0
   50.2140   24.4590   49.9520 C   0  0  0  0  0  0  0  0  0  0  0  0
   50.3810   23.2150   50.4410 N   0  0  0  0  0  0  0  0  0  0  0  0
   49.3700   22.3190   50.3850 C   0  0  0  0  0  0  0  0  0  0  0  0
   49.6350   21.3630   50.8090 H   0  0  0  0  0  0  0  0  0  0  0  0
   48.1530   22.6020   49.8500 N   0  0  0  0  0  0  0  0  0  0  0  0
   47.9460   23.8200   49.3560 C   0  0  0  0  0  0  0  0  0  0  0  0
   51.2340   25.4630   49.9740 N   0  0  0  0  0  0  0  0  0  0  0  0
   51.6390   25.9730   50.7980 H   0  0  0  0  0  0  0  0  0  0  0  0
   51.6820   25.7790   49.0790 H   0  0  0  0  0  0  0  0  0  0  0  0
  1  2  1  0  0  0  0
  2  3  2  0  0  0  0
  2  7  1  0  0  0  0
  3  4  1  0  0  0  0
  4  8  1  0  0  0  0
  4  5  2  0  0  0  0
  5  9  1  0  0  0  0
  6  5  1  0  0  0  0
  6 10  1  0  0  0  0
  7  6  2  0  0  0  0
 11 12  1  0  0  0  0
 11  3  1  0  0  0  0
 13 11  1  0  0  0  0
 14 19  1  0  0  0  0
 14 20  1  0  0  0  0
 15 14  2  0  0  0  0
 16 17  2  0  0  0  0
 16 15  1  0  0  0  0
 17 18  1  0  0  0  0
 18 11  1  0  0  0  0
 18 19  2  0  0  0  0
 21 15  1  0  0  0  0
 22 16  1  0  0  0  0
 23  7  1  0  0  0  0
 23 25  1  0  0  0  0
 25 24  2  6  0  0  0
 25 26  1  0  0  0  0
 26 27  1  0  0  0  0
 28 25  1  0  0  0  0
 28 31  1  0  0  0  0
 29 30  1  0  0  0  0
 30 39  1  0  0  0  0
 31 30  1  0  0  0  0
 31 32  2  0  0  0  0
 32 33  1  0  0  0  0
 33 34  1  0  0  0  0
 34 40  1  0  0  0  0
 34 35  2  0  0  0  0
 36 35  1  0  0  0  0
 36 37  1  0  0  0  0
 38 36  2  0  0  0  0
 39 33  2  0  0  0  0
 39 38  1  0  0  0  0
 40 41  1  0  0  0  0
 42 40  1  0  0  0  0
M  END
>  <minimizedAffinity>
-5.86879635

>  <minimizedRMSD>
0.417241335

$$$$
