REMARK  Name = 
REMARK  4 active torsions:
REMARK  status: ('A' for Active; 'I' for Inactive)
REMARK    1  A    between atoms: C_1  and  S_17
REMARK    2  A    between atoms: C_11  and  N_16
REMARK    3  A    between atoms: S_17  and  C_26
REMARK    4  A    between atoms: C_29  and  N_30
REMARK                            x       y       z     vdW  Elec       q    Type
REMARK                         _______ _______ _______ _____ _____    ______ ____
ROOT
ATOM      1  C   UNL     1      47.693  33.490  40.133  0.00  0.00    +0.000 A 
ATOM      2  C   UNL     1      49.044  33.221  40.385  0.00  0.00    +0.000 A 
ATOM      3  C   UNL     1      49.504  33.304  41.714  0.00  0.00    +0.000 A 
ATOM      4  N   UNL     1      48.595  33.643  42.672  0.00  0.00    +0.000 NA
ATOM      5  C   UNL     1      47.295  33.895  42.382  0.00  0.00    +0.000 A 
ATOM      6  N   UNL     1      46.851  33.817  41.118  0.00  0.00    +0.000 NA
ATOM      7  N   UNL     1      46.422  34.240  43.450  0.00  0.00    +0.000 N 
ATOM      8  C   UNL     1      45.507  35.240  43.438  0.00  0.00    +0.000 A 
ATOM      9  N   UNL     1      44.876  35.243  44.648  0.00  0.00    +0.000 NA
ATOM     10  C   UNL     1      45.409  34.260  45.365  0.00  0.00    +0.000 A 
ATOM     11  C   UNL     1      45.192  33.783  46.629  0.00  0.00    +0.000 A 
ATOM     12  N   UNL     1      45.874  32.757  47.136  0.00  0.00    +0.000 NA
ATOM     13  C   UNL     1      46.832  32.117  46.428  0.00  0.00    +0.000 A 
ATOM     14  N   UNL     1      47.050  32.578  45.190  0.00  0.00    +0.000 NA
ATOM     15  C   UNL     1      46.390  33.605  44.639  0.00  0.00    +0.000 A 
ATOM     16  H   UNL     1      49.773  32.953  39.634  0.00  0.00    +0.000 HD
ATOM     17  H   UNL     1      50.530  33.109  41.962  0.00  0.00    +0.000 HD
ATOM     18  H   UNL     1      45.288  35.934  42.627  0.00  0.00    +0.000 HD
ATOM     19  H   UNL     1      47.395  31.281  46.829  0.00  0.00    +0.000 HD
ENDROOT
BRANCH  11  20
ATOM     20  N   UNL     1      44.231  34.333  47.502  0.00  0.00    +0.000 N 
ATOM     21  H   UNL     1      44.600  35.161  48.050  0.00  0.00    +0.000 HD
ATOM     22  H   UNL     1      43.251  34.044  47.673  0.00  0.00    +0.000 HD
ENDBRANCH  11  20
BRANCH   1  23
ATOM     23  S   UNL     1      47.229  33.351  38.396  0.00  0.00    +0.000 S 
BRANCH  23  26
ATOM     24  H   UNL     1      44.516  33.134  39.904  0.00  0.00    +0.000 HD
ATOM     25  N   UNL     1      44.440  33.532  38.950  0.00  0.00    +0.000 N 
ATOM     26  C   UNL     1      45.506  33.703  38.147  0.00  0.00    +0.000 A 
ATOM     27  N   UNL     1      45.021  34.240  37.000  0.00  0.00    +0.000 NA
ATOM     28  C   UNL     1      43.706  34.389  37.105  0.00  0.00    +0.000 A 
ATOM     29  C   UNL     1      42.712  34.869  36.280  0.00  0.00    +0.000 A 
ATOM     30  N   UNL     1      41.453  34.875  36.718  0.00  0.00    +0.000 NA
ATOM     31  C   UNL     1      41.101  34.433  37.932  0.00  0.00    +0.000 A 
ATOM     32  H   UNL     1      40.041  34.485  38.186  0.00  0.00    +0.000 HD
ATOM     33  N   UNL     1      42.043  33.952  38.779  0.00  0.00    +0.000 NA
ATOM     34  C   UNL     1      43.315  33.941  38.349  0.00  0.00    +0.000 A 
BRANCH  29  35
ATOM     35  N   UNL     1      43.011  35.348  34.994  0.00  0.00    +0.000 N 
ATOM     36  H   UNL     1      43.982  35.578  34.679  0.00  0.00    +0.000 HD
ATOM     37  H   UNL     1      42.266  35.503  34.273  0.00  0.00    +0.000 HD
ENDBRANCH  29  35
ENDBRANCH  23  26
ENDBRANCH   1  23
TORSDOF 4
