
 OpenBabel03252504473D

 32 34  0  0  0  0  0  0  0  0999 V2000
   45.4400   31.8250   49.3890 O   0  0  0  0  0  0  0  0  0  0  0  0
   45.6890   31.7480   47.8860 P   0  0  1  0  0  0  0  0  0  0  0  0
   44.7110   30.4840   47.3190 O   0  0  0  0  0  0  0  0  0  0  0  0
   45.2360   29.6470   47.2080 H   0  0  0  0  0  0  0  0  0  0  0  0
   45.2580   33.2490   47.2460 O   0  0  0  0  0  0  0  0  0  0  0  0
   45.3780   35.1070   44.1560 C   0  0  0  0  0  0  0  0  0  0  0  0
   46.3830   34.4180   43.4550 C   0  0  0  0  0  0  0  0  0  0  0  0
   46.9810   33.3210   44.1030 C   0  0  0  0  0  0  0  0  0  0  0  0
   46.5520   33.0030   45.3510 N   0  0  0  0  0  0  0  0  0  0  0  0
   45.5830   33.7030   45.9710 C   0  0  0  0  0  0  0  0  0  0  0  0
   44.9930   34.7590   45.3730 N   0  0  0  0  0  0  0  0  0  0  0  0
   46.7000   34.6980   42.4610 H   0  0  0  0  0  0  0  0  0  0  0  0
   47.7580   32.7660   43.5950 H   0  0  0  0  0  0  0  0  0  0  0  0
   44.7480   36.2810   43.4520 C   0  0  0  0  0  0  0  0  0  0  0  0
   43.6860   36.4090   43.7560 H   0  0  0  0  0  0  0  0  0  0  0  0
   44.8560   36.1720   42.3470 H   0  0  0  0  0  0  0  0  0  0  0  0
   45.3280   37.1700   43.7790 H   0  0  0  0  0  0  0  0  0  0  0  0
   47.2820   31.3710   47.5190 O   0  0  0  0  0  0  0  0  0  0  0  0
   48.3910   32.1480   50.0380 H   0  0  0  0  0  0  0  0  0  0  0  0
   48.6710   31.2300   49.6760 N   0  0  0  0  0  0  0  0  0  0  0  0
   48.1390   30.8860   48.4940 C   0  0  0  0  0  0  0  0  0  0  0  0
   48.6010   29.6650   48.1660 N   0  0  0  0  0  0  0  0  0  0  0  0
   49.4360   29.1860   49.1080 C   0  0  0  0  0  0  0  0  0  0  0  0
   50.2010   28.0700   49.3690 C   0  0  0  0  0  0  0  0  0  0  0  0
   50.9460   27.9530   50.4920 N   0  0  0  0  0  0  0  0  0  0  0  0
   50.9090   28.9920   51.3580 C   0  0  0  0  0  0  0  0  0  0  0  0
   51.5140   28.8620   52.2370 H   0  0  0  0  0  0  0  0  0  0  0  0
   50.1760   30.1240   51.1620 N   0  0  0  0  0  0  0  0  0  0  0  0
   49.4510   30.1950   50.0350 C   0  0  0  0  0  0  0  0  0  0  0  0
   50.1590   27.0410   48.3830 N   0  0  0  0  0  0  0  0  0  0  0  0
   49.4920   26.3530   47.9800 H   0  0  0  0  0  0  0  0  0  0  0  0
   51.1180   26.9890   47.9440 H   0  0  0  0  0  0  0  0  0  0  0  0
  2  1  2  1  0  0  0
  3  2  1  0  0  0  0
  4  3  1  0  0  0  0
  5  2  1  0  0  0  0
  6 11  1  0  0  0  0
  7  8  1  0  0  0  0
  7  6  2  0  0  0  0
  8  9  2  0  0  0  0
  9 10  1  0  0  0  0
 10  5  1  0  0  0  0
 11 10  2  0  0  0  0
 12  7  1  0  0  0  0
 13  8  1  0  0  0  0
 14 15  1  0  0  0  0
 14 17  1  0  0  0  0
 14  6  1  0  0  0  0
 16 14  1  0  0  0  0
 18  2  1  0  0  0  0
 18 21  1  0  0  0  0
 20 29  1  0  0  0  0
 20 19  1  0  0  0  0
 21 20  1  0  0  0  0
 22 21  2  0  0  0  0
 22 23  1  0  0  0  0
 23 24  2  0  0  0  0
 23 29  1  0  0  0  0
 24 25  1  0  0  0  0
 25 26  2  0  0  0  0
 26 27  1  0  0  0  0
 28 26  1  0  0  0  0
 29 28  2  0  0  0  0
 30 24  1  0  0  0  0
 31 30  1  0  0  0  0
 32 30  1  0  0  0  0
M  END
>  <minimizedAffinity>
-5.77886057

>  <minimizedRMSD>
0.540569782

$$$$
