
 OpenBabel03252506283D

 52 57  0  0  0  0  0  0  0  0999 V2000
   45.3410   29.5140   47.5750 C   0  0  0  0  0  0  0  0  0  0  0  0
   45.0870   30.2610   48.7460 C   0  0  0  0  0  0  0  0  0  0  0  0
   45.5210   31.5260   48.5550 C   0  0  0  0  0  0  0  0  0  0  0  0
   46.0260   31.5630   47.3130 N   0  0  0  0  0  0  0  0  0  0  0  0
   45.9230   30.3720   46.7210 N   0  0  0  0  0  0  0  0  0  0  0  0
   44.6220   29.9500   49.6940 H   0  0  0  0  0  0  0  0  0  0  0  0
   45.4760   32.3650   49.2640 H   0  0  0  0  0  0  0  0  0  0  0  0
   45.5200   25.8780   47.8660 C   0  0  0  0  0  0  0  0  0  0  0  0
   44.4140   25.4510   47.1370 C   0  0  0  0  0  0  0  0  0  0  0  0
   43.6110   26.4260   46.5470 C   0  0  0  0  0  0  0  0  0  0  0  0
   43.9500   27.7120   46.7170 N   0  0  0  0  0  0  0  0  0  0  0  0
   45.0100   28.1200   47.4160 C   0  0  0  0  0  0  0  0  0  0  0  0
   45.7930   27.1840   47.9900 N   0  0  0  0  0  0  0  0  0  0  0  0
   46.1880   25.1650   48.3520 H   0  0  0  0  0  0  0  0  0  0  0  0
   44.1850   24.3990   47.0310 H   0  0  0  0  0  0  0  0  0  0  0  0
   42.4620   26.0740   45.7850 N   0  0  0  0  0  0  0  0  0  0  0  0
   41.4200   25.3710   46.2540 C   0  0  0  0  0  0  0  0  0  0  0  0
   41.3200   24.9800   47.2770 H   0  0  0  0  0  0  0  0  0  0  0  0
   40.4980   25.2090   45.2780 N   0  0  0  0  0  0  0  0  0  0  0  0
   40.9550   25.8120   44.1810 C   0  0  0  0  0  0  0  0  0  0  0  0
   40.4170   25.9500   42.9130 C   0  0  0  0  0  0  0  0  0  0  0  0
   41.1460   26.6360   41.9940 N   0  0  0  0  0  0  0  0  0  0  0  0
   42.3550   27.1670   42.3130 C   0  0  0  0  0  0  0  0  0  0  0  0
   42.8760   27.7080   41.5070 H   0  0  0  0  0  0  0  0  0  0  0  0
   42.8540   27.0190   43.5530 N   0  0  0  0  0  0  0  0  0  0  0  0
   42.2010   26.3630   44.5010 C   0  0  0  0  0  0  0  0  0  0  0  0
   39.1450   25.3730   42.6330 N   0  0  0  0  0  0  0  0  0  0  0  0
   39.4920   24.5210   42.1390 H   0  0  0  0  0  0  0  0  0  0  0  0
   38.1530   25.6390   42.8170 H   0  0  0  0  0  0  0  0  0  0  0  0
   46.6100   32.7350   46.6750 C   0  0  0  0  0  0  0  0  0  0  0  0
   47.5900   32.9910   47.1140 H   0  0  0  0  0  0  0  0  0  0  0  0
   45.9490   33.6040   46.7990 H   0  0  0  0  0  0  0  0  0  0  0  0
   46.7820   32.5010   45.2180 C   0  0  0  0  0  0  0  0  0  0  0  0
   47.8660   32.7080   44.9850 H   0  0  0  0  0  0  0  0  0  0  0  0
   46.6450   31.4130   45.0250 H   0  0  0  0  0  0  0  0  0  0  0  0
   45.9110   34.6710   44.1770 C   0  0  0  0  0  0  0  0  0  0  0  0
   45.9860   33.3020   44.3160 C   0  0  0  0  0  0  0  0  0  0  0  0
   45.1680   32.5630   43.4550 C   0  0  0  0  0  0  0  0  0  0  0  0
   44.3500   33.1730   42.5380 C   0  0  0  0  0  0  0  0  0  0  0  0
   43.4760   32.7270   41.6040 N   0  0  0  0  0  0  0  0  0  0  0  0
   42.9100   33.7390   40.9450 C   0  0  0  0  0  0  0  0  0  0  0  0
   43.4180   34.9320   41.4490 C   0  0  0  0  0  0  0  0  0  0  0  0
   44.2890   34.5290   42.4150 C   0  0  0  0  0  0  0  0  0  0  0  0
   45.0920   35.2710   43.2590 C   0  0  0  0  0  0  0  0  0  0  0  0
   46.5640   35.2160   44.8670 H   0  0  0  0  0  0  0  0  0  0  0  0
   45.1270   31.4780   43.4560 H   0  0  0  0  0  0  0  0  0  0  0  0
   43.2860   31.7010   41.4390 H   0  0  0  0  0  0  0  0  0  0  0  0
   42.1790   33.6150   40.1530 H   0  0  0  0  0  0  0  0  0  0  0  0
   43.1280   35.8910   41.0920 H   0  0  0  0  0  0  0  0  0  0  0  0
   45.0820   36.7330   43.1860 C   0  0  0  0  0  0  0  0  0  0  0  0
   45.0080   37.4500   44.2140 O   0  0  0  0  0  0  0  0  0  0  0  0
   45.1380   37.2470   42.2260 H   0  0  0  0  0  0  0  0  0  0  0  0
  1  2  1  0  0  0  0
  2  6  1  0  0  0  0
  3  2  2  0  0  0  0
  3  7  1  0  0  0  0
  4  3  1  0  0  0  0
  5  4  1  0  0  0  0
  5  1  2  0  0  0  0
  8 13  1  0  0  0  0
  8 14  1  0  0  0  0
  9  8  2  0  0  0  0
 10 11  2  0  0  0  0
 10  9  1  0  0  0  0
 11 12  1  0  0  0  0
 12  1  1  0  0  0  0
 12 13  2  0  0  0  0
 15  9  1  0  0  0  0
 16 17  1  0  0  0  0
 16 10  1  0  0  0  0
 17 18  1  0  0  0  0
 19 17  2  0  0  0  0
 20 26  1  0  0  0  0
 20 19  1  0  0  0  0
 21 20  2  0  0  0  0
 22 23  2  0  0  0  0
 22 21  1  0  0  0  0
 23 25  1  0  0  0  0
 24 23  1  0  0  0  0
 25 26  2  0  0  0  0
 26 16  1  0  0  0  0
 27 29  1  0  0  0  0
 27 21  1  0  0  0  0
 28 27  1  0  0  0  0
 30 32  1  0  0  0  0
 30 31  1  0  0  0  0
 30  4  1  0  0  0  0
 33 30  1  0  0  0  0
 34 33  1  0  0  0  0
 35 33  1  0  0  0  0
 36 37  1  0  0  0  0
 36 45  1  0  0  0  0
 37 33  1  0  0  0  0
 38 46  1  0  0  0  0
 38 37  2  0  0  0  0
 39 38  1  0  0  0  0
 40 39  1  0  0  0  0
 41 42  2  0  0  0  0
 41 40  1  0  0  0  0
 42 43  1  0  0  0  0
 43 39  2  0  0  0  0
 43 44  1  0  0  0  0
 44 36  2  0  0  0  0
 47 40  1  0  0  0  0
 48 41  1  0  0  0  0
 49 42  1  0  0  0  0
 50 44  1  0  0  0  0
 50 51  2  0  0  0  0
 52 50  1  0  0  0  0
M  END
>  <minimizedAffinity>
-5.73765612

>  <minimizedRMSD>
9.56517124

$$$$
