
 OpenBabel03242523303D

 27 29  0  0  0  0  0  0  0  0999 V2000
   44.4290   30.3170   47.2700 H   0  0  0  0  0  0  0  0  0  0  0  0
   45.3210   29.7730   47.2070 N   0  0  0  0  0  0  0  0  0  0  0  0
   46.4630   30.3230   46.7670 C   0  0  0  0  0  0  0  0  0  0  0  0
   47.4020   29.3580   46.8130 N   0  0  0  0  0  0  0  0  0  0  0  0
   46.8420   28.2420   47.2710 C   0  0  0  0  0  0  0  0  0  0  0  0
   47.3600   26.9880   47.5050 C   0  0  0  0  0  0  0  0  0  0  0  0
   46.5520   26.0130   47.9840 N   0  0  0  0  0  0  0  0  0  0  0  0
   45.2400   26.2970   48.2260 C   0  0  0  0  0  0  0  0  0  0  0  0
   44.7030   25.4370   48.6050 H   0  0  0  0  0  0  0  0  0  0  0  0
   44.7260   27.5150   48.0030 N   0  0  0  0  0  0  0  0  0  0  0  0
   45.5090   28.4860   47.5290 C   0  0  0  0  0  0  0  0  0  0  0  0
   48.7370   26.7720   47.2280 N   0  0  0  0  0  0  0  0  0  0  0  0
   49.4620   27.5140   47.4480 H   0  0  0  0  0  0  0  0  0  0  0  0
   49.3340   26.0230   46.8270 H   0  0  0  0  0  0  0  0  0  0  0  0
   46.8670   31.9550   46.1980 S   0  0  0  0  0  0  0  0  0  0  0  0
   45.6100   33.1730   46.6740 C   0  0  0  0  0  0  0  0  0  0  0  0
   44.6650   32.6910   46.9720 H   0  0  0  0  0  0  0  0  0  0  0  0
   45.9650   33.8160   47.5320 H   0  0  0  0  0  0  0  0  0  0  0  0
   44.5530   36.0050   44.5100 C   0  0  0  0  0  0  0  0  0  0  0  0
   45.2790   35.7750   43.3550 C   0  0  0  0  0  0  0  0  0  0  0  0
   46.1100   34.6640   43.3370 C   0  0  0  0  0  0  0  0  0  0  0  0
   46.1950   33.8450   44.4200 N   0  0  0  0  0  0  0  0  0  0  0  0
   45.4690   34.1040   45.5340 C   0  0  0  0  0  0  0  0  0  0  0  0
   44.6630   35.1770   45.5600 N   0  0  0  0  0  0  0  0  0  0  0  0
   43.9250   36.8840   44.4670 H   0  0  0  0  0  0  0  0  0  0  0  0
   45.3020   36.3410   42.4330 H   0  0  0  0  0  0  0  0  0  0  0  0
   46.7380   34.3590   42.4970 H   0  0  0  0  0  0  0  0  0  0  0  0
  2  1  1  0  0  0  0
  2 11  1  0  0  0  0
  3  4  2  0  0  0  0
  3  2  1  0  0  0  0
  4  5  1  0  0  0  0
  5  6  2  0  0  0  0
  5 11  1  0  0  0  0
  6  7  1  0  0  0  0
  7  8  2  0  0  0  0
  8  9  1  0  0  0  0
 10  8  1  0  0  0  0
 11 10  2  0  0  0  0
 12 13  1  0  0  0  0
 12  6  1  0  0  0  0
 14 12  1  0  0  0  0
 15 16  1  0  0  0  0
 15  3  1  0  0  0  0
 16 17  1  0  0  0  0
 16 18  1  0  0  0  0
 19 24  1  0  0  0  0
 20 19  2  0  0  0  0
 21 20  1  0  0  0  0
 21 22  2  0  0  0  0
 22 23  1  0  0  0  0
 23 24  2  0  0  0  0
 23 16  1  0  0  0  0
 25 19  1  0  0  0  0
 26 20  1  0  0  0  0
 27 21  1  0  0  0  0
M  END
>  <minimizedAffinity>
-4.26355314

>  <minimizedRMSD>
1.48465717

$$$$
