
 OpenBabel03242515563D

 42 46  0  0  0  0  0  0  0  0999 V2000
   45.9450   32.6610   46.7160 C   0  0  0  0  0  0  0  0  0  0  0  0
   45.5420   32.9370   48.0480 C   0  0  0  0  0  0  0  0  0  0  0  0
   45.7340   32.0700   49.0900 C   0  0  0  0  0  0  0  0  0  0  0  0
   46.3340   30.8760   48.8900 C   0  0  0  0  0  0  0  0  0  0  0  0
   46.7460   30.5550   47.6130 C   0  0  0  0  0  0  0  0  0  0  0  0
   47.3540   29.3400   47.4480 C   0  0  0  0  0  0  0  0  0  0  0  0
   47.7890   28.9590   46.1970 C   0  0  0  0  0  0  0  0  0  0  0  0
   47.5760   29.8560   45.1550 C   0  0  0  0  0  0  0  0  0  0  0  0
   46.9760   31.0290   45.3880 C   0  0  0  0  0  0  0  0  0  0  0  0
   46.5460   31.4320   46.5820 C   0  0  0  0  0  0  0  0  0  0  0  0
   45.0600   33.8800   48.2500 H   0  0  0  0  0  0  0  0  0  0  0  0
   45.3960   32.3570   50.0750 H   0  0  0  0  0  0  0  0  0  0  0  0
   46.4710   30.2210   49.7260 H   0  0  0  0  0  0  0  0  0  0  0  0
   47.4810   28.6850   48.3390 H   0  0  0  0  0  0  0  0  0  0  0  0
   48.2610   27.9560   46.2150 H   0  0  0  0  0  0  0  0  0  0  0  0
   47.9630   29.2940   44.3230 H   0  0  0  0  0  0  0  0  0  0  0  0
   44.4780   35.5360   45.1360 C   0  0  0  0  0  0  0  0  0  0  0  0
   45.2150   35.6340   43.9160 C   0  0  0  0  0  0  0  0  0  0  0  0
   46.2320   34.6830   43.6280 C   0  0  0  0  0  0  0  0  0  0  0  0
   46.4300   33.7300   44.5550 N   0  0  0  0  0  0  0  0  0  0  0  0
   45.7830   33.6210   45.6540 C   0  0  0  0  0  0  0  0  0  0  0  0
   44.8040   34.5380   45.9290 N   0  0  0  0  0  0  0  0  0  0  0  0
   43.7080   36.2670   45.3400 H   0  0  0  0  0  0  0  0  0  0  0  0
   46.7430   34.8170   42.7000 H   0  0  0  0  0  0  0  0  0  0  0  0
   44.8550   36.7180   43.0650 N   0  0  0  0  0  0  0  0  0  0  0  0
   44.8710   36.3810   42.0570 H   0  0  0  0  0  0  0  0  0  0  0  0
   44.6400   37.6340   43.5230 H   0  0  0  0  0  0  0  0  0  0  0  0
   46.9100   31.6730   44.1950 O   0  0  0  0  0  0  0  0  0  0  0  0
   46.9340   29.9400   41.7000 H   0  0  0  0  0  0  0  0  0  0  0  0
   47.6520   30.6350   41.9350 N   0  0  0  0  0  0  0  0  0  0  0  0
   47.5680   31.3280   43.0400 C   0  0  0  0  0  0  0  0  0  0  0  0
   48.7330   32.0390   42.9650 N   0  0  0  0  0  0  0  0  0  0  0  0
   49.4360   31.7640   41.8760 C   0  0  0  0  0  0  0  0  0  0  0  0
   50.6550   32.2030   41.3460 C   0  0  0  0  0  0  0  0  0  0  0  0
   51.0730   31.6750   40.1590 N   0  0  0  0  0  0  0  0  0  0  0  0
   50.3190   30.7430   39.5100 C   0  0  0  0  0  0  0  0  0  0  0  0
   50.7370   30.3750   38.5600 H   0  0  0  0  0  0  0  0  0  0  0  0
   49.1300   30.2990   40.0060 N   0  0  0  0  0  0  0  0  0  0  0  0
   48.7260   30.8240   41.1740 C   0  0  0  0  0  0  0  0  0  0  0  0
   51.4070   33.1800   42.0620 N   0  0  0  0  0  0  0  0  0  0  0  0
   50.9010   34.1130   42.0470 H   0  0  0  0  0  0  0  0  0  0  0  0
   52.3190   33.1420   42.5710 H   0  0  0  0  0  0  0  0  0  0  0  0
  1  2  1  0  0  0  0
  2 11  1  0  0  0  0
  2  3  2  0  0  0  0
  3 12  1  0  0  0  0
  4  3  1  0  0  0  0
  4 13  1  0  0  0  0
  5  4  2  0  0  0  0
  6  5  1  0  0  0  0
  6 14  1  0  0  0  0
  7 15  1  0  0  0  0
  7  6  2  0  0  0  0
  8  9  2  0  0  0  0
  8  7  1  0  0  0  0
  9 10  1  0  0  0  0
 10  1  2  0  0  0  0
 10  5  1  0  0  0  0
 16  8  1  0  0  0  0
 17 23  1  0  0  0  0
 17 22  1  0  0  0  0
 18 17  2  0  0  0  0
 19 18  1  0  0  0  0
 19 20  2  0  0  0  0
 20 21  1  0  0  0  0
 21 22  2  0  0  0  0
 21  1  1  0  0  0  0
 24 19  1  0  0  0  0
 25 27  1  0  0  0  0
 25 18  1  0  0  0  0
 26 25  1  0  0  0  0
 28  9  1  0  0  0  0
 29 30  1  0  0  0  0
 30 31  1  0  0  0  0
 31 28  1  0  0  0  0
 32 31  2  0  0  0  0
 33 32  1  0  0  0  0
 34 33  1  0  0  0  0
 34 40  1  0  0  0  0
 35 34  2  0  0  0  0
 36 38  2  0  0  0  0
 36 35  1  0  0  0  0
 37 36  1  0  0  0  0
 38 39  1  0  0  0  0
 39 33  2  0  0  0  0
 39 30  1  0  0  0  0
 40 42  1  0  0  0  0
 41 40  1  0  0  0  0
M  END
>  <minimizedAffinity>
-6.64703846

>  <minimizedRMSD>
0.587785959

$$$$
