
 OpenBabel03252500273D

 48 51  0  0  1  0  0  0  0  0999 V2000
   47.1230   33.1740   46.6030 O   0  0  0  0  0  0  0  0  0  0  0  0
   45.6670   32.8900   46.4900 P   0  0  1  0  0  0  0  0  0  0  0  0
   45.4180   31.7280   45.2840 O   0  0  0  0  0  0  0  0  0  0  0  0
   45.9310   32.0090   44.4980 H   0  0  0  0  0  0  0  0  0  0  0  0
   45.1730   32.2960   47.9480 O   0  0  0  0  0  0  0  0  0  0  0  0
   47.0720   30.8500   48.0160 C   0  0  2  0  0  0  0  0  0  0  0  0
   45.6010   31.0020   48.1060 C   0  0  2  0  0  0  0  0  0  0  0  0
   45.0370   30.0900   47.1350 C   0  0  0  0  0  0  0  0  0  0  0  0
   45.9750   29.0830   46.8670 O   0  0  0  0  0  0  0  0  0  0  0  0
   47.0110   29.3030   47.7070 C   0  0  0  0  0  0  0  0  0  0  0  0
   47.5680   31.1070   47.0640 H   0  0  0  0  0  0  0  0  0  0  0  0
   45.3980   30.7980   49.1970 H   0  0  0  0  0  0  0  0  0  0  0  0
   44.3280   29.4460   47.7710 H   0  0  0  0  0  0  0  0  0  0  0  0
   44.3340   30.3400   46.3710 H   0  0  0  0  0  0  0  0  0  0  0  0
   46.8240   28.8610   48.7290 H   0  0  0  0  0  0  0  0  0  0  0  0
   47.9880   28.9330   47.4060 H   0  0  0  0  0  0  0  0  0  0  0  0
   47.7790   31.0110   49.1460 O   0  0  0  0  0  0  0  0  0  0  0  0
   49.0220   31.3860   49.2290 C   0  0  0  0  0  0  0  0  0  0  0  0
   49.3780   32.3820   49.1340 H   0  0  0  0  0  0  0  0  0  0  0  0
   49.5240   30.8610   48.2430 H   0  0  0  0  0  0  0  0  0  0  0  0
   49.7210   30.5450   50.2830 C   0  0  0  0  0  0  0  0  0  0  0  0
   49.4230   30.8410   51.3060 H   0  0  0  0  0  0  0  0  0  0  0  0
   49.4700   29.4900   50.0510 H   0  0  0  0  0  0  0  0  0  0  0  0
   50.8180   30.7260   50.1340 H   0  0  0  0  0  0  0  0  0  0  0  0
   44.9300   34.3790   46.0960 O   0  0  0  0  0  0  0  0  0  0  0  0
   45.3390   36.5890   43.3000 C   0  0  0  0  0  0  0  0  0  0  0  0
   44.7840   35.8750   42.2110 C   0  0  0  0  0  0  0  0  0  0  0  0
   44.2670   34.5950   42.5040 C   0  0  0  0  0  0  0  0  0  0  0  0
   44.3270   34.1360   43.7710 N   0  0  0  0  0  0  0  0  0  0  0  0
   44.8630   34.8500   44.7730 C   0  0  0  0  0  0  0  0  0  0  0  0
   45.3650   36.0700   44.5340 N   0  0  0  0  0  0  0  0  0  0  0  0
   44.7420   36.2560   41.2050 H   0  0  0  0  0  0  0  0  0  0  0  0
   43.8280   33.9930   41.7300 H   0  0  0  0  0  0  0  0  0  0  0  0
   45.8500   37.8280   43.0580 O   0  0  0  0  0  0  0  0  0  0  0  0
   45.6100   40.5960   42.4210 H   0  0  0  0  0  0  0  0  0  0  0  0
   45.3990   40.2780   43.3900 N   0  0  0  0  0  0  0  0  0  0  0  0
   45.5070   38.9770   43.7110 C   0  0  0  0  0  0  0  0  0  0  0  0
   45.1740   38.8750   45.0190 N   0  0  0  0  0  0  0  0  0  0  0  0
   44.8720   40.1160   45.4610 C   0  0  0  0  0  0  0  0  0  0  0  0
   44.4690   40.6330   46.6890 C   0  0  0  0  0  0  0  0  0  0  0  0
   44.2240   41.9410   46.8800 N   0  0  0  0  0  0  0  0  0  0  0  0
   44.3740   42.7990   45.8360 C   0  0  0  0  0  0  0  0  0  0  0  0
   44.2070   43.8690   45.8670 H   0  0  0  0  0  0  0  0  0  0  0  0
   44.7680   42.3310   44.6180 N   0  0  0  0  0  0  0  0  0  0  0  0
   45.0090   41.0280   44.4360 C   0  0  0  0  0  0  0  0  0  0  0  0
   44.3050   39.7440   47.8000 N   0  0  0  0  0  0  0  0  0  0  0  0
   43.6720   38.9990   48.1600 H   0  0  0  0  0  0  0  0  0  0  0  0
   45.1120   39.9380   48.4530 H   0  0  0  0  0  0  0  0  0  0  0  0
  2  1  2  1  0  0  0
  2  5  1  0  0  0  0
  3  2  1  0  0  0  0
  4  3  1  0  0  0  0
  5  7  1  0  0  0  0
  6 11  1  6  0  0  0
  6  7  1  0  0  0  0
  6 17  1  0  0  0  0
  7 12  1  1  0  0  0
  8 13  1  0  0  0  0
  8  7  1  0  0  0  0
  9  8  1  0  0  0  0
  9 10  1  0  0  0  0
 10  6  1  0  0  0  0
 10 15  1  0  0  0  0
 14  8  1  0  0  0  0
 16 10  1  0  0  0  0
 17 18  1  0  0  0  0
 18 21  1  0  0  0  0
 19 18  1  0  0  0  0
 20 18  1  0  0  0  0
 21 22  1  0  0  0  0
 23 21  1  0  0  0  0
 24 21  1  0  0  0  0
 25  2  1  0  0  0  0
 26 31  1  0  0  0  0
 27 28  1  0  0  0  0
 27 26  2  0  0  0  0
 28 29  2  0  0  0  0
 29 30  1  0  0  0  0
 30 25  1  0  0  0  0
 31 30  2  0  0  0  0
 32 27  1  0  0  0  0
 33 28  1  0  0  0  0
 34 26  1  0  0  0  0
 34 37  1  0  0  0  0
 35 36  1  0  0  0  0
 36 37  1  0  0  0  0
 36 45  1  0  0  0  0
 37 38  2  0  0  0  0
 38 39  1  0  0  0  0
 39 40  1  0  0  0  0
 40 41  2  0  0  0  0
 40 46  1  0  0  0  0
 42 43  1  0  0  0  0
 42 41  1  0  0  0  0
 44 42  2  0  0  0  0
 45 44  1  0  0  0  0
 45 39  2  0  0  0  0
 46 47  1  0  0  0  0
 46 48  1  0  0  0  0
M  END
>  <minimizedAffinity>
-3.16727877

>  <minimizedRMSD>
0.897015691

$$$$
