
 OpenBabel03252503453D

 49 53  0  0  1  0  0  0  0  0999 V2000
   46.3890   35.1510   42.3870 C   0  0  0  0  0  0  0  0  0  0  0  0
   47.3220   34.8780   41.8530 H   0  0  0  0  0  0  0  0  0  0  0  0
   46.4990   36.2400   42.6050 H   0  0  0  0  0  0  0  0  0  0  0  0
   45.2490   34.8880   41.4980 C   0  0  0  0  0  0  0  0  0  0  0  0
   44.0490   35.5590   41.5300 C   0  0  0  0  0  0  0  0  0  0  0  0
   43.0090   35.2710   40.6810 C   0  0  0  0  0  0  0  0  0  0  0  0
   43.1690   34.2700   39.7580 C   0  0  0  0  0  0  0  0  0  0  0  0
   44.3770   33.5760   39.7070 C   0  0  0  0  0  0  0  0  0  0  0  0
   45.4270   33.8800   40.5760 C   0  0  0  0  0  0  0  0  0  0  0  0
   43.9910   36.3340   42.2820 H   0  0  0  0  0  0  0  0  0  0  0  0
   42.1040   35.8590   40.7870 H   0  0  0  0  0  0  0  0  0  0  0  0
   42.3190   34.0910   39.1210 H   0  0  0  0  0  0  0  0  0  0  0  0
   44.3410   32.8180   38.9220 H   0  0  0  0  0  0  0  0  0  0  0  0
   46.5180   33.0260   40.2720 N   0  0  0  0  0  0  0  0  0  0  0  0
   46.8770   31.8890   40.8960 C   0  0  0  0  0  0  0  0  0  0  0  0
   46.4090   31.4080   41.7430 H   0  0  0  0  0  0  0  0  0  0  0  0
   47.9580   31.3730   40.3200 N   0  0  0  0  0  0  0  0  0  0  0  0
   48.3270   32.1720   39.3000 C   0  0  0  0  0  0  0  0  0  0  0  0
   49.3210   32.1730   38.3700 C   0  0  0  0  0  0  0  0  0  0  0  0
   49.4450   33.1440   37.4330 N   0  0  0  0  0  0  0  0  0  0  0  0
   48.5450   34.1660   37.4120 C   0  0  0  0  0  0  0  0  0  0  0  0
   48.5800   34.9780   36.6940 H   0  0  0  0  0  0  0  0  0  0  0  0
   47.5620   34.1830   38.3190 N   0  0  0  0  0  0  0  0  0  0  0  0
   47.4130   33.2320   39.2600 C   0  0  0  0  0  0  0  0  0  0  0  0
   50.2310   31.0810   38.4390 N   0  0  0  0  0  0  0  0  0  0  0  0
   50.7760   30.4200   37.8520 H   0  0  0  0  0  0  0  0  0  0  0  0
   50.5450   30.7170   39.3570 H   0  0  0  0  0  0  0  0  0  0  0  0
   45.2850   34.6190   44.5390 C   0  0  0  0  0  0  0  0  0  0  0  0
   46.2770   34.3590   43.6000 C   0  0  0  0  0  0  0  0  0  0  0  0
   47.1520   33.3090   43.8760 C   0  0  0  0  0  0  0  0  0  0  0  0
   47.0360   32.5770   45.0090 N   0  0  0  0  0  0  0  0  0  0  0  0
   46.0570   32.8610   45.8970 C   0  0  0  0  0  0  0  0  0  0  0  0
   45.1790   33.8790   45.6720 N   0  0  0  0  0  0  0  0  0  0  0  0
   44.5910   35.4100   44.3790 H   0  0  0  0  0  0  0  0  0  0  0  0
   47.9600   33.0150   43.2630 H   0  0  0  0  0  0  0  0  0  0  0  0
   47.3770   31.7190   47.6690 C   0  0  2  0  0  0  0  0  0  0  0  0
   45.9630   32.0410   47.1060 C   0  0  1  0  0  0  0  0  0  0  0  0
   45.4340   32.6470   48.1930 O   0  0  0  0  0  0  0  0  0  0  0  0
   45.7320   31.8910   49.2890 C   0  0  0  0  0  0  0  0  0  0  0  0
   46.9150   31.0060   48.9470 C   0  0  2  0  0  0  0  0  0  0  0  0
   47.9210   31.0400   46.9910 H   0  0  0  0  0  0  0  0  0  0  0  0
   45.4470   31.0650   46.9260 H   0  0  0  0  0  0  0  0  0  0  0  0
   46.0020   32.5680   50.1260 H   0  0  0  0  0  0  0  0  0  0  0  0
   44.8310   31.2720   49.5430 H   0  0  0  0  0  0  0  0  0  0  0  0
   46.5420   29.9950   48.7220 H   0  0  0  0  0  0  0  0  0  0  0  0
   48.0010   32.8520   48.0430 O   0  0  0  0  0  0  0  0  0  0  0  0
   48.9910   32.6660   48.0610 H   0  0  0  0  0  0  0  0  0  0  0  0
   47.8750   30.9530   49.9110 O   0  0  0  0  0  0  0  0  0  0  0  0
   48.6960   31.4680   49.6950 H   0  0  0  0  0  0  0  0  0  0  0  0
  1  3  1  0  0  0  0
  1 29  1  0  0  0  0
  2  1  1  0  0  0  0
  4  5  1  0  0  0  0
  4  1  1  0  0  0  0
  5 10  1  0  0  0  0
  6 11  1  0  0  0  0
  6  5  2  0  0  0  0
  7  6  1  0  0  0  0
  8  7  2  0  0  0  0
  8  9  1  0  0  0  0
  9  4  2  0  0  0  0
 12  7  1  0  0  0  0
 13  8  1  0  0  0  0
 14  9  1  0  0  0  0
 14 15  1  0  0  0  0
 15 16  1  0  0  0  0
 17 15  2  0  0  0  0
 18 17  1  0  0  0  0
 19 25  1  0  0  0  0
 19 18  2  0  0  0  0
 20 19  1  0  0  0  0
 21 20  2  0  0  0  0
 21 23  1  0  0  0  0
 22 21  1  0  0  0  0
 23 24  2  0  0  0  0
 24 18  1  0  0  0  0
 24 14  1  0  0  0  0
 25 27  1  0  0  0  0
 26 25  1  0  0  0  0
 28 33  1  0  0  0  0
 29 30  1  0  0  0  0
 29 28  2  0  0  0  0
 30 31  2  0  0  0  0
 31 32  1  0  0  0  0
 32 37  1  0  0  0  0
 33 32  2  0  0  0  0
 34 28  1  0  0  0  0
 35 30  1  0  0  0  0
 36 41  1  6  0  0  0
 36 46  1  0  0  0  0
 36 40  1  0  0  0  0
 37 42  1  6  0  0  0
 37 36  1  0  0  0  0
 37 38  1  0  0  0  0
 38 39  1  0  0  0  0
 39 44  1  0  0  0  0
 39 43  1  0  0  0  0
 40 45  1  6  0  0  0
 40 39  1  0  0  0  0
 40 48  1  0  0  0  0
 46 47  1  0  0  0  0
 49 48  1  0  0  0  0
M  END
>  <minimizedAffinity>
-7.21647596

>  <minimizedRMSD>
0.529325604

$$$$
