
 OpenBabel03242520193D

 40 43  0  0  0  0  0  0  0  0999 V2000
   44.5960   35.1320   43.7020 C   0  0  0  0  0  0  0  0  0  0  0  0
   44.4250   34.9350   44.7610 H   0  0  0  0  0  0  0  0  0  0  0  0
   44.4190   36.2420   43.5820 H   0  0  0  0  0  0  0  0  0  0  0  0
   43.2850   35.0220   41.6460 C   0  0  0  0  0  0  0  0  0  0  0  0
   43.6220   36.1720   41.2490 O   0  0  0  0  0  0  0  0  0  0  0  0
   43.7270   34.3760   42.8270 N   0  0  0  0  0  0  0  0  0  0  0  0
   43.4540   33.4050   43.0770 H   0  0  0  0  0  0  0  0  0  0  0  0
   43.4030   33.8850   38.9910 H   0  0  0  0  0  0  0  0  0  0  0  0
   42.5250   33.7770   39.5400 N   0  0  0  0  0  0  0  0  0  0  0  0
   42.3350   34.2630   40.8010 C   0  0  0  0  0  0  0  0  0  0  0  0
   41.0630   33.9000   41.1330 N   0  0  0  0  0  0  0  0  0  0  0  0
   40.4790   33.2250   40.1450 C   0  0  0  0  0  0  0  0  0  0  0  0
   39.1990   32.6830   40.0850 C   0  0  0  0  0  0  0  0  0  0  0  0
   38.9030   32.0450   38.9200 N   0  0  0  0  0  0  0  0  0  0  0  0
   39.7970   31.9580   37.9220 C   0  0  0  0  0  0  0  0  0  0  0  0
   39.4980   31.4360   37.0190 H   0  0  0  0  0  0  0  0  0  0  0  0
   41.0300   32.4970   38.0180 N   0  0  0  0  0  0  0  0  0  0  0  0
   41.4100   33.1470   39.1320 C   0  0  0  0  0  0  0  0  0  0  0  0
   38.3170   32.8220   41.1910 N   0  0  0  0  0  0  0  0  0  0  0  0
   38.7620   32.2160   41.9180 H   0  0  0  0  0  0  0  0  0  0  0  0
   37.4260   33.3680   41.3410 H   0  0  0  0  0  0  0  0  0  0  0  0
   46.0630   34.8950   43.4160 C   0  0  0  0  0  0  0  0  0  0  0  0
   46.6840   35.7290   43.8010 H   0  0  0  0  0  0  0  0  0  0  0  0
   46.2580   34.8460   42.3200 H   0  0  0  0  0  0  0  0  0  0  0  0
   46.4960   32.0110   45.8250 C   0  0  0  0  0  0  0  0  0  0  0  0
   46.0580   33.2390   45.2780 C   0  0  0  0  0  0  0  0  0  0  0  0
   46.5090   33.6200   44.0260 C   0  0  0  0  0  0  0  0  0  0  0  0
   47.3740   32.7600   43.3860 N   0  0  0  0  0  0  0  0  0  0  0  0
   47.7670   31.5920   43.9560 C   0  0  0  0  0  0  0  0  0  0  0  0
   47.3330   31.2210   45.1580 N   0  0  0  0  0  0  0  0  0  0  0  0
   45.3820   33.8400   45.8560 H   0  0  0  0  0  0  0  0  0  0  0  0
   48.4520   30.9410   43.4150 H   0  0  0  0  0  0  0  0  0  0  0  0
   46.0130   31.6180   47.1710 C   0  0  0  0  0  0  0  0  0  0  0  0
   46.9450   32.1660   48.3100 C   0  0  0  0  0  0  0  0  0  0  0  0
   45.5300   32.5200   48.1510 C   0  0  0  0  0  0  0  0  0  0  0  0
   45.8500   30.5050   47.2890 H   0  0  0  0  0  0  0  0  0  0  0  0
   47.3030   31.4380   49.0490 H   0  0  0  0  0  0  0  0  0  0  0  0
   47.6670   32.9470   48.0250 H   0  0  0  0  0  0  0  0  0  0  0  0
   44.8300   32.1450   48.9420 H   0  0  0  0  0  0  0  0  0  0  0  0
   45.2530   33.5820   47.8890 H   0  0  0  0  0  0  0  0  0  0  0  0
  1  2  1  0  0  0  0
  3  1  1  0  0  0  0
  4  6  1  0  0  0  0
  5  4  2  0  0  0  0
  6  7  1  0  0  0  0
  6  1  1  0  0  0  0
  8  9  1  0  0  0  0
  9 10  1  0  0  0  0
 10 11  2  0  0  0  0
 10  4  1  0  0  0  0
 12 11  1  0  0  0  0
 13 12  1  0  0  0  0
 13 19  1  0  0  0  0
 14 13  2  0  0  0  0
 15 17  2  0  0  0  0
 15 14  1  0  0  0  0
 16 15  1  0  0  0  0
 17 18  1  0  0  0  0
 18  9  1  0  0  0  0
 18 12  2  0  0  0  0
 19 21  1  0  0  0  0
 19 20  1  0  0  0  0
 22  1  1  0  0  0  0
 22 23  1  0  0  0  0
 22 27  1  0  0  0  0
 24 22  1  0  0  0  0
 25 33  1  0  0  0  0
 26 25  1  0  0  0  0
 26 31  1  0  0  0  0
 27 26  2  0  0  0  0
 28 29  2  0  0  0  0
 28 27  1  0  0  0  0
 29 30  1  0  0  0  0
 30 25  2  0  0  0  0
 32 29  1  0  0  0  0
 33 36  1  0  0  0  0
 33 35  1  0  0  0  0
 33 34  1  0  0  0  0
 34 37  1  0  0  0  0
 35 34  1  0  0  0  0
 35 39  1  0  0  0  0
 38 34  1  0  0  0  0
 40 35  1  0  0  0  0
M  END
>  <minimizedAffinity>
-5.5813179

>  <minimizedRMSD>
5.57860518

$$$$
