
 OpenBabel03242512183D

 38 41  0  0  0  0  0  0  0  0999 V2000
   48.3690   33.0180   41.8980 C   0  0  0  0  0  0  0  0  0  0  0  0
   47.9470   34.3190   42.0140 C   0  0  0  0  0  0  0  0  0  0  0  0
   48.8710   35.3020   42.3280 C   0  0  0  0  0  0  0  0  0  0  0  0
   50.1990   34.9470   42.5160 C   0  0  0  0  0  0  0  0  0  0  0  0
   50.5880   33.6450   42.3930 C   0  0  0  0  0  0  0  0  0  0  0  0
   49.6660   32.6380   42.0770 C   0  0  0  0  0  0  0  0  0  0  0  0
   48.4370   36.3090   42.3970 H   0  0  0  0  0  0  0  0  0  0  0  0
   50.8490   35.7650   42.7550 H   0  0  0  0  0  0  0  0  0  0  0  0
   51.6410   33.4210   42.5520 H   0  0  0  0  0  0  0  0  0  0  0  0
   46.5050   34.5420   41.7840 C   0  0  0  0  0  0  0  0  0  0  0  0
   46.0250   33.7510   41.2300 H   0  0  0  0  0  0  0  0  0  0  0  0
   46.3880   35.4680   41.1460 H   0  0  0  0  0  0  0  0  0  0  0  0
   45.8300   34.8400   43.1120 C   0  0  0  0  0  0  0  0  0  0  0  0
   45.9350   33.8900   44.1140 C   0  0  0  0  0  0  0  0  0  0  0  0
   45.3190   34.1710   45.3260 C   0  0  0  0  0  0  0  0  0  0  0  0
   44.6610   35.3450   45.4550 N   0  0  0  0  0  0  0  0  0  0  0  0
   44.5780   36.2530   44.4580 C   0  0  0  0  0  0  0  0  0  0  0  0
   45.1620   36.0000   43.2880 N   0  0  0  0  0  0  0  0  0  0  0  0
   46.4700   32.9530   43.9830 H   0  0  0  0  0  0  0  0  0  0  0  0
   45.3740   33.4550   46.1430 H   0  0  0  0  0  0  0  0  0  0  0  0
   44.0260   37.1660   44.6610 H   0  0  0  0  0  0  0  0  0  0  0  0
   47.5360   31.9410   41.5890 O   0  0  0  0  0  0  0  0  0  0  0  0
   47.0530   31.4760   42.3370 H   0  0  0  0  0  0  0  0  0  0  0  0
   50.1870   31.3440   41.9760 O   0  0  0  0  0  0  0  0  0  0  0  0
   52.6260   30.0500   41.1960 H   0  0  0  0  0  0  0  0  0  0  0  0
   52.0480   30.4600   40.4320 N   0  0  0  0  0  0  0  0  0  0  0  0
   50.9100   31.0600   40.8290 C   0  0  0  0  0  0  0  0  0  0  0  0
   50.3190   31.5160   39.6850 N   0  0  0  0  0  0  0  0  0  0  0  0
   51.0700   31.2070   38.6130 C   0  0  0  0  0  0  0  0  0  0  0  0
   51.0470   31.3670   37.2450 C   0  0  0  0  0  0  0  0  0  0  0  0
   52.0190   30.9070   36.4330 N   0  0  0  0  0  0  0  0  0  0  0  0
   53.0680   30.2590   36.9640 C   0  0  0  0  0  0  0  0  0  0  0  0
   53.8910   29.8570   36.3720 H   0  0  0  0  0  0  0  0  0  0  0  0
   53.1290   30.0780   38.3120 N   0  0  0  0  0  0  0  0  0  0  0  0
   52.1510   30.5450   39.1060 C   0  0  0  0  0  0  0  0  0  0  0  0
   49.9100   32.0680   36.7000 N   0  0  0  0  0  0  0  0  0  0  0  0
   48.8840   31.8520   36.5730 H   0  0  0  0  0  0  0  0  0  0  0  0
   50.2320   33.0000   36.3700 H   0  0  0  0  0  0  0  0  0  0  0  0
  1  2  2  0  0  0  0
  1  6  1  0  0  0  0
  2  3  1  0  0  0  0
  3  7  1  0  0  0  0
  3  4  2  0  0  0  0
  4  8  1  0  0  0  0
  5  4  1  0  0  0  0
  5  9  1  0  0  0  0
  6  5  2  0  0  0  0
 10  2  1  0  0  0  0
 10 13  1  0  0  0  0
 11 10  1  0  0  0  0
 12 10  1  0  0  0  0
 13 18  2  0  0  0  0
 13 14  1  0  0  0  0
 14 15  2  0  0  0  0
 15 16  1  0  0  0  0
 15 20  1  0  0  0  0
 17 21  1  0  0  0  0
 17 16  2  0  0  0  0
 18 17  1  0  0  0  0
 19 14  1  0  0  0  0
 22  1  1  0  0  0  0
 22 23  1  0  0  0  0
 24  6  1  0  0  0  0
 26 27  1  0  0  0  0
 26 25  1  0  0  0  0
 27 24  1  0  0  0  0
 28 27  2  0  0  0  0
 29 35  1  0  0  0  0
 29 28  1  0  0  0  0
 30 29  2  0  0  0  0
 31 32  2  0  0  0  0
 31 30  1  0  0  0  0
 32 34  1  0  0  0  0
 33 32  1  0  0  0  0
 34 35  2  0  0  0  0
 35 26  1  0  0  0  0
 36 30  1  0  0  0  0
 37 36  1  0  0  0  0
 38 36  1  0  0  0  0
M  END
>  <minimizedAffinity>
-5.65609932

>  <minimizedRMSD>
1.56103718

$$$$
