
 OpenBabel03242520193D

 40 43  0  0  0  0  0  0  0  0999 V2000
   39.9260   35.7710   40.2860 C   0  0  0  0  0  0  0  0  0  0  0  0
   40.2710   35.8170   41.3200 H   0  0  0  0  0  0  0  0  0  0  0  0
   39.2410   36.6620   40.1690 H   0  0  0  0  0  0  0  0  0  0  0  0
   39.3110   33.4930   40.9120 C   0  0  0  0  0  0  0  0  0  0  0  0
   39.8770   33.5420   42.0400 O   0  0  0  0  0  0  0  0  0  0  0  0
   39.2320   34.5440   39.9640 N   0  0  0  0  0  0  0  0  0  0  0  0
   38.7060   34.4620   39.0710 H   0  0  0  0  0  0  0  0  0  0  0  0
   37.3390   31.7820   42.1530 H   0  0  0  0  0  0  0  0  0  0  0  0
   37.7280   31.5040   41.2280 N   0  0  0  0  0  0  0  0  0  0  0  0
   38.6610   32.2180   40.5330 C   0  0  0  0  0  0  0  0  0  0  0  0
   38.8790   31.5020   39.3930 N   0  0  0  0  0  0  0  0  0  0  0  0
   38.1320   30.4020   39.3620 C   0  0  0  0  0  0  0  0  0  0  0  0
   38.0570   29.4140   38.3840 C   0  0  0  0  0  0  0  0  0  0  0  0
   37.1840   28.4050   38.6570 N   0  0  0  0  0  0  0  0  0  0  0  0
   36.4620   28.3900   39.7880 C   0  0  0  0  0  0  0  0  0  0  0  0
   35.7840   27.5580   39.9440 H   0  0  0  0  0  0  0  0  0  0  0  0
   36.5610   29.3670   40.7130 N   0  0  0  0  0  0  0  0  0  0  0  0
   37.3980   30.4030   40.5290 C   0  0  0  0  0  0  0  0  0  0  0  0
   38.8600   29.5120   37.2150 N   0  0  0  0  0  0  0  0  0  0  0  0
   38.4390   30.3270   36.7150 H   0  0  0  0  0  0  0  0  0  0  0  0
   39.6840   28.9580   36.8560 H   0  0  0  0  0  0  0  0  0  0  0  0
   41.1170   36.0210   39.3870 C   0  0  0  0  0  0  0  0  0  0  0  0
   41.3860   37.0970   39.3700 H   0  0  0  0  0  0  0  0  0  0  0  0
   40.8920   35.7440   38.3320 H   0  0  0  0  0  0  0  0  0  0  0  0
   43.9550   34.6610   41.4860 C   0  0  0  0  0  0  0  0  0  0  0  0
   42.8510   35.4450   41.0820 C   0  0  0  0  0  0  0  0  0  0  0  0
   42.2830   35.2250   39.8390 C   0  0  0  0  0  0  0  0  0  0  0  0
   42.8460   34.2370   39.0630 N   0  0  0  0  0  0  0  0  0  0  0  0
   43.9090   33.5110   39.4950 C   0  0  0  0  0  0  0  0  0  0  0  0
   44.4560   33.7190   40.6910 N   0  0  0  0  0  0  0  0  0  0  0  0
   42.4840   36.1930   41.7600 H   0  0  0  0  0  0  0  0  0  0  0  0
   44.3230   32.7380   38.8500 H   0  0  0  0  0  0  0  0  0  0  0  0
   44.5610   34.9130   42.8160 C   0  0  0  0  0  0  0  0  0  0  0  0
   46.0690   35.3350   42.7020 C   0  0  0  0  0  0  0  0  0  0  0  0
   45.0110   36.1760   43.2720 C   0  0  0  0  0  0  0  0  0  0  0  0
   44.4400   34.0540   43.5410 H   0  0  0  0  0  0  0  0  0  0  0  0
   46.7870   34.7750   43.3130 H   0  0  0  0  0  0  0  0  0  0  0  0
   46.4260   35.6300   41.7020 H   0  0  0  0  0  0  0  0  0  0  0  0
   45.0690   36.3720   44.3730 H   0  0  0  0  0  0  0  0  0  0  0  0
   44.7210   37.1310   42.7450 H   0  0  0  0  0  0  0  0  0  0  0  0
  1  2  1  0  0  0  0
  3  1  1  0  0  0  0
  4  5  2  0  0  0  0
  6  1  1  0  0  0  0
  6  4  1  0  0  0  0
  7  6  1  0  0  0  0
  9  8  1  0  0  0  0
 10  4  1  0  0  0  0
 10  9  1  0  0  0  0
 11 10  2  0  0  0  0
 12 11  1  0  0  0  0
 12 18  1  0  0  0  0
 13 14  1  0  0  0  0
 13 12  2  0  0  0  0
 14 15  2  0  0  0  0
 15 16  1  0  0  0  0
 15 17  1  0  0  0  0
 18 17  2  0  0  0  0
 18  9  1  0  0  0  0
 19 13  1  0  0  0  0
 20 19  1  0  0  0  0
 21 19  1  0  0  0  0
 22 27  1  0  0  0  0
 22  1  1  0  0  0  0
 23 22  1  0  0  0  0
 24 22  1  0  0  0  0
 25 33  1  0  0  0  0
 26 25  1  0  0  0  0
 26 31  1  0  0  0  0
 27 26  2  0  0  0  0
 28 29  2  0  0  0  0
 28 27  1  0  0  0  0
 29 30  1  0  0  0  0
 30 25  2  0  0  0  0
 32 29  1  0  0  0  0
 33 35  1  0  0  0  0
 33 36  1  0  0  0  0
 34 33  1  0  0  0  0
 34 35  1  0  0  0  0
 34 37  1  0  0  0  0
 35 39  1  0  0  0  0
 38 34  1  0  0  0  0
 40 35  1  0  0  0  0
M  END
>  <minimizedAffinity>
-5.4032836

>  <minimizedRMSD>
0.860025883

$$$$
