
 OpenBabel03242514383D

 38 41  0  0  0  0  0  0  0  0999 V2000
   37.5010   29.8180   41.7050 C   0  0  0  0  0  0  0  0  0  0  0  0
   36.5940   30.7020   41.0510 C   0  0  0  0  0  0  0  0  0  0  0  0
   37.1770   31.8000   40.4900 C   0  0  0  0  0  0  0  0  0  0  0  0
   38.5000   32.0290   40.5490 C   0  0  0  0  0  0  0  0  0  0  0  0
   39.1030   30.4980   41.5390 S   0  0  0  0  0  0  0  0  0  0  0  0
   35.5390   30.4760   41.0310 H   0  0  0  0  0  0  0  0  0  0  0  0
   36.6140   32.5580   39.9610 H   0  0  0  0  0  0  0  0  0  0  0  0
   39.3780   33.0060   40.1020 N   0  0  0  0  0  0  0  0  0  0  0  0
   39.5640   34.2800   40.5190 C   0  0  0  0  0  0  0  0  0  0  0  0
   39.0060   34.7580   41.3290 H   0  0  0  0  0  0  0  0  0  0  0  0
   40.5490   34.8190   39.7520 N   0  0  0  0  0  0  0  0  0  0  0  0
   40.9730   33.8980   38.8680 C   0  0  0  0  0  0  0  0  0  0  0  0
   41.9560   34.0290   37.9090 C   0  0  0  0  0  0  0  0  0  0  0  0
   42.1910   32.9460   37.1460 N   0  0  0  0  0  0  0  0  0  0  0  0
   41.4870   31.8030   37.3320 C   0  0  0  0  0  0  0  0  0  0  0  0
   41.6880   30.9390   36.7100 H   0  0  0  0  0  0  0  0  0  0  0  0
   40.5370   31.7310   38.2860 N   0  0  0  0  0  0  0  0  0  0  0  0
   40.2510   32.7680   39.0800 C   0  0  0  0  0  0  0  0  0  0  0  0
   42.7320   35.1880   37.6550 N   0  0  0  0  0  0  0  0  0  0  0  0
   43.7410   35.1190   37.3960 H   0  0  0  0  0  0  0  0  0  0  0  0
   42.5470   36.2100   37.6570 H   0  0  0  0  0  0  0  0  0  0  0  0
   37.1570   28.5590   42.3950 C   0  0  0  0  0  0  0  0  0  0  0  0
   37.2790   28.8130   43.6600 O   0  0  0  0  0  0  0  0  0  0  0  0
   36.7760   27.2850   42.1630 O   0  0  0  0  0  0  0  0  0  0  0  0
   38.6770   26.7050   40.5300 O   0  0  0  0  0  0  0  0  0  0  0  0
   37.6850   26.0820   41.4600 P   0  0  2  0  0  0  0  0  0  0  0  0
   36.6740   25.1090   40.5440 O   0  0  0  0  0  0  0  0  0  0  0  0
   35.9870   24.7390   41.1810 H   0  0  0  0  0  0  0  0  0  0  0  0
   38.5030   25.1730   42.6680 O   0  0  0  0  0  0  0  0  0  0  0  0
   40.8550   24.8120   42.6570 C   0  0  0  0  0  0  0  0  0  0  0  0
   39.7670   25.5420   43.1100 C   0  0  0  0  0  0  0  0  0  0  0  0
   39.9890   26.6120   43.9910 C   0  0  0  0  0  0  0  0  0  0  0  0
   41.2810   26.8740   44.3520 N   0  0  0  0  0  0  0  0  0  0  0  0
   42.3150   26.1480   43.8950 C   0  0  0  0  0  0  0  0  0  0  0  0
   42.1050   25.1260   43.0540 N   0  0  0  0  0  0  0  0  0  0  0  0
   40.8070   23.9700   41.9800 H   0  0  0  0  0  0  0  0  0  0  0  0
   39.1340   27.1720   44.3370 H   0  0  0  0  0  0  0  0  0  0  0  0
   43.2790   26.4730   44.2660 H   0  0  0  0  0  0  0  0  0  0  0  0
  1 22  1  0  0  0  0
  2  1  2  0  0  0  0
  3  4  2  0  0  0  0
  3  2  1  0  0  0  0
  4  5  1  0  0  0  0
  5  1  1  0  0  0  0
  6  2  1  0  0  0  0
  7  3  1  0  0  0  0
  8  9  1  0  0  0  0
  8  4  1  0  0  0  0
  9 10  1  0  0  0  0
 11  9  2  0  0  0  0
 12 18  1  0  0  0  0
 12 11  1  0  0  0  0
 13 12  2  0  0  0  0
 14 15  2  0  0  0  0
 14 13  1  0  0  0  0
 15 17  1  0  0  0  0
 16 15  1  0  0  0  0
 17 18  2  0  0  0  0
 18  8  1  0  0  0  0
 19 21  1  0  0  0  0
 19 13  1  0  0  0  0
 20 19  1  0  0  0  0
 22 23  2  0  0  0  0
 24 22  1  0  0  0  0
 26 25  2  6  0  0  0
 26 24  1  0  0  0  0
 26 29  1  0  0  0  0
 27 28  1  0  0  0  0
 27 26  1  0  0  0  0
 29 31  1  0  0  0  0
 30 35  2  0  0  0  0
 30 31  1  0  0  0  0
 31 32  2  0  0  0  0
 32 37  1  0  0  0  0
 32 33  1  0  0  0  0
 34 38  1  0  0  0  0
 34 33  2  0  0  0  0
 35 34  1  0  0  0  0
 36 30  1  0  0  0  0
M  END
>  <minimizedAffinity>
-6.57617092

$$$$

 OpenBabel03242514383D

 38 41  0  0  0  0  0  0  0  0999 V2000
   37.0560   29.8990   40.4760 C   0  0  0  0  0  0  0  0  0  0  0  0
   36.3090   30.9850   39.9340 C   0  0  0  0  0  0  0  0  0  0  0  0
   37.0570   32.0720   39.5890 C   0  0  0  0  0  0  0  0  0  0  0  0
   38.3900   32.1140   39.7460 C   0  0  0  0  0  0  0  0  0  0  0  0
   38.7360   30.3820   40.4980 S   0  0  0  0  0  0  0  0  0  0  0  0
   35.2380   30.9040   39.8290 H   0  0  0  0  0  0  0  0  0  0  0  0
   36.6260   32.9700   39.1660 H   0  0  0  0  0  0  0  0  0  0  0  0
   39.4090   33.0260   39.5070 N   0  0  0  0  0  0  0  0  0  0  0  0
   39.6350   34.2520   40.0350 C   0  0  0  0  0  0  0  0  0  0  0  0
   39.0000   34.7340   40.7830 H   0  0  0  0  0  0  0  0  0  0  0  0
   40.7720   34.7350   39.4660 N   0  0  0  0  0  0  0  0  0  0  0  0
   41.2480   33.8290   38.5940 C   0  0  0  0  0  0  0  0  0  0  0  0
   42.3770   33.9190   37.8050 C   0  0  0  0  0  0  0  0  0  0  0  0
   42.6350   32.8630   37.0120 N   0  0  0  0  0  0  0  0  0  0  0  0
   41.8150   31.7850   37.0090 C   0  0  0  0  0  0  0  0  0  0  0  0
   42.0360   30.9420   36.3650 H   0  0  0  0  0  0  0  0  0  0  0  0
   40.7240   31.7500   37.8010 N   0  0  0  0  0  0  0  0  0  0  0  0
   40.4070   32.7640   38.6140 C   0  0  0  0  0  0  0  0  0  0  0  0
   43.2800   35.0110   37.7540 N   0  0  0  0  0  0  0  0  0  0  0  0
   44.3070   34.8610   37.6460 H   0  0  0  0  0  0  0  0  0  0  0  0
   43.1850   36.0440   37.8000 H   0  0  0  0  0  0  0  0  0  0  0  0
   36.5170   28.6020   40.9330 C   0  0  0  0  0  0  0  0  0  0  0  0
   36.3010   27.9180   39.8550 O   0  0  0  0  0  0  0  0  0  0  0  0
   36.1850   27.9180   42.0490 O   0  0  0  0  0  0  0  0  0  0  0  0
   36.1560   27.4400   44.5760 O   0  0  0  0  0  0  0  0  0  0  0  0
   37.0720   27.8070   43.4520 P   0  0  2  0  0  0  0  0  0  0  0  0
   37.7200   29.3130   43.7990 O   0  0  0  0  0  0  0  0  0  0  0  0
   38.2940   29.5610   43.0090 H   0  0  0  0  0  0  0  0  0  0  0  0
   38.3030   26.6190   43.2850 O   0  0  0  0  0  0  0  0  0  0  0  0
   39.1440   25.9010   41.1780 C   0  0  0  0  0  0  0  0  0  0  0  0
   38.2770   25.7030   42.2410 C   0  0  0  0  0  0  0  0  0  0  0  0
   37.4170   24.5940   42.2150 C   0  0  0  0  0  0  0  0  0  0  0  0
   37.4880   23.7660   41.1300 N   0  0  0  0  0  0  0  0  0  0  0  0
   38.3400   23.9860   40.1150 C   0  0  0  0  0  0  0  0  0  0  0  0
   39.1620   25.0430   40.1380 N   0  0  0  0  0  0  0  0  0  0  0  0
   39.8490   26.7160   41.0880 H   0  0  0  0  0  0  0  0  0  0  0  0
   36.7460   24.4510   43.0480 H   0  0  0  0  0  0  0  0  0  0  0  0
   38.2840   23.2460   39.3260 H   0  0  0  0  0  0  0  0  0  0  0  0
  1  5  1  0  0  0  0
  1 22  1  0  0  0  0
  2  1  2  0  0  0  0
  3  4  2  0  0  0  0
  3  2  1  0  0  0  0
  4  5  1  0  0  0  0
  6  2  1  0  0  0  0
  7  3  1  0  0  0  0
  8  4  1  0  0  0  0
  8  9  1  0  0  0  0
  9 10  1  0  0  0  0
 11  9  2  0  0  0  0
 12 18  1  0  0  0  0
 12 11  1  0  0  0  0
 13 12  2  0  0  0  0
 14 13  1  0  0  0  0
 15 14  2  0  0  0  0
 15 17  1  0  0  0  0
 16 15  1  0  0  0  0
 17 18  2  0  0  0  0
 18  8  1  0  0  0  0
 19 21  1  0  0  0  0
 19 13  1  0  0  0  0
 20 19  1  0  0  0  0
 22 24  1  0  0  0  0
 23 22  2  0  0  0  0
 24 26  1  0  0  0  0
 26 27  1  0  0  0  0
 26 25  2  1  0  0  0
 28 27  1  0  0  0  0
 29 26  1  0  0  0  0
 30 31  1  0  0  0  0
 31 29  1  0  0  0  0
 32 31  2  0  0  0  0
 32 37  1  0  0  0  0
 33 32  1  0  0  0  0
 34 35  1  0  0  0  0
 34 33  2  0  0  0  0
 35 30  2  0  0  0  0
 36 30  1  0  0  0  0
 38 34  1  0  0  0  0
M  END
>  <minimizedAffinity>
-6.42162132

$$$$

 OpenBabel03242514383D

 38 41  0  0  0  0  0  0  0  0999 V2000
   37.6810   31.6230   40.5770 C   0  0  0  0  0  0  0  0  0  0  0  0
   36.3780   31.1290   40.8760 C   0  0  0  0  0  0  0  0  0  0  0  0
   36.3260   29.7930   41.1470 C   0  0  0  0  0  0  0  0  0  0  0  0
   37.4160   29.0080   41.1340 C   0  0  0  0  0  0  0  0  0  0  0  0
   38.7870   30.2720   40.6740 S   0  0  0  0  0  0  0  0  0  0  0  0
   35.5330   31.7990   40.8720 H   0  0  0  0  0  0  0  0  0  0  0  0
   35.4050   29.2800   41.3910 H   0  0  0  0  0  0  0  0  0  0  0  0
   37.6990   27.6670   41.3560 N   0  0  0  0  0  0  0  0  0  0  0  0
   37.1640   26.5520   40.8060 C   0  0  0  0  0  0  0  0  0  0  0  0
   36.3730   26.5480   40.0520 H   0  0  0  0  0  0  0  0  0  0  0  0
   37.7930   25.4830   41.3650 N   0  0  0  0  0  0  0  0  0  0  0  0
   38.7050   25.9210   42.2510 C   0  0  0  0  0  0  0  0  0  0  0  0
   39.5580   25.1710   43.0340 C   0  0  0  0  0  0  0  0  0  0  0  0
   40.3830   25.8600   43.8440 N   0  0  0  0  0  0  0  0  0  0  0  0
   40.3550   27.2140   43.8680 C   0  0  0  0  0  0  0  0  0  0  0  0
   41.0260   27.7560   44.5250 H   0  0  0  0  0  0  0  0  0  0  0  0
   39.5010   27.8970   43.0790 N   0  0  0  0  0  0  0  0  0  0  0  0
   38.6540   27.2770   42.2500 C   0  0  0  0  0  0  0  0  0  0  0  0
   39.6440   23.7560   43.0650 N   0  0  0  0  0  0  0  0  0  0  0  0
   40.5610   23.2700   43.1730 H   0  0  0  0  0  0  0  0  0  0  0  0
   38.9590   22.9780   43.0020 H   0  0  0  0  0  0  0  0  0  0  0  0
   38.0380   33.0180   40.2470 C   0  0  0  0  0  0  0  0  0  0  0  0
   37.0920   33.4430   39.4710 O   0  0  0  0  0  0  0  0  0  0  0  0
   38.9790   33.9600   40.4720 O   0  0  0  0  0  0  0  0  0  0  0  0
   40.8190   35.4810   39.5130 O   0  0  0  0  0  0  0  0  0  0  0  0
   40.4900   34.0470   39.7810 P   0  0  2  0  0  0  0  0  0  0  0  0
   40.4530   33.2520   38.3060 O   0  0  0  0  0  0  0  0  0  0  0  0
   40.1830   32.3020   38.5050 H   0  0  0  0  0  0  0  0  0  0  0  0
   41.6640   33.3610   40.8320 O   0  0  0  0  0  0  0  0  0  0  0  0
   43.2500   34.6530   42.0480 C   0  0  0  0  0  0  0  0  0  0  0  0
   42.9420   33.8970   40.9270 C   0  0  0  0  0  0  0  0  0  0  0  0
   43.9270   33.7110   39.9450 C   0  0  0  0  0  0  0  0  0  0  0  0
   45.1450   34.2920   40.1560 N   0  0  0  0  0  0  0  0  0  0  0  0
   45.4130   35.0200   41.2530 C   0  0  0  0  0  0  0  0  0  0  0  0
   44.4740   35.1980   42.1920 N   0  0  0  0  0  0  0  0  0  0  0  0
   42.5750   34.8640   42.8660 H   0  0  0  0  0  0  0  0  0  0  0  0
   43.6750   33.1210   39.0770 H   0  0  0  0  0  0  0  0  0  0  0  0
   46.4200   35.4170   41.2830 H   0  0  0  0  0  0  0  0  0  0  0  0
  1  5  1  0  0  0  0
  1  2  2  0  0  0  0
  2  3  1  0  0  0  0
  3  7  1  0  0  0  0
  4  3  2  0  0  0  0
  4  8  1  0  0  0  0
  5  4  1  0  0  0  0
  6  2  1  0  0  0  0
  8 18  1  0  0  0  0
  9  8  1  0  0  0  0
  9 11  2  0  0  0  0
 10  9  1  0  0  0  0
 11 12  1  0  0  0  0
 12 13  1  0  0  0  0
 13 19  1  0  0  0  0
 13 14  2  0  0  0  0
 14 15  1  0  0  0  0
 15 16  1  0  0  0  0
 17 15  2  0  0  0  0
 18 12  2  0  0  0  0
 18 17  1  0  0  0  0
 19 20  1  0  0  0  0
 21 19  1  0  0  0  0
 22 24  1  0  0  0  0
 22  1  1  0  0  0  0
 23 22  2  0  0  0  0
 26 25  2  6  0  0  0
 26 24  1  0  0  0  0
 26 29  1  0  0  0  0
 27 28  1  0  0  0  0
 27 26  1  0  0  0  0
 29 31  1  0  0  0  0
 30 35  1  0  0  0  0
 30 36  1  0  0  0  0
 31 30  2  0  0  0  0
 32 33  2  0  0  0  0
 32 31  1  0  0  0  0
 33 34  1  0  0  0  0
 34 38  1  0  0  0  0
 34 35  2  0  0  0  0
 37 32  1  0  0  0  0
M  END
>  <minimizedAffinity>
-6.3358531

$$$$

 OpenBabel03242514383D

 38 41  0  0  0  0  0  0  0  0999 V2000
   38.7290   33.4460   40.3170 C   0  0  0  0  0  0  0  0  0  0  0  0
   37.4410   33.3040   39.7230 C   0  0  0  0  0  0  0  0  0  0  0  0
   36.9760   32.0220   39.6760 C   0  0  0  0  0  0  0  0  0  0  0  0
   37.6760   30.9790   40.1520 C   0  0  0  0  0  0  0  0  0  0  0  0
   39.2630   31.8500   40.7910 S   0  0  0  0  0  0  0  0  0  0  0  0
   36.9180   34.1720   39.3540 H   0  0  0  0  0  0  0  0  0  0  0  0
   36.0140   31.7630   39.2530 H   0  0  0  0  0  0  0  0  0  0  0  0
   37.5000   29.6060   40.2560 N   0  0  0  0  0  0  0  0  0  0  0  0
   37.3600   28.6620   39.2970 C   0  0  0  0  0  0  0  0  0  0  0  0
   37.3670   28.8610   38.2220 H   0  0  0  0  0  0  0  0  0  0  0  0
   37.2180   27.4640   39.9250 N   0  0  0  0  0  0  0  0  0  0  0  0
   37.2650   27.6550   41.2550 C   0  0  0  0  0  0  0  0  0  0  0  0
   37.1620   26.7090   42.2550 C   0  0  0  0  0  0  0  0  0  0  0  0
   37.2440   27.1660   43.5170 N   0  0  0  0  0  0  0  0  0  0  0  0
   37.4190   28.4870   43.7640 C   0  0  0  0  0  0  0  0  0  0  0  0
   37.4830   28.8400   44.7870 H   0  0  0  0  0  0  0  0  0  0  0  0
   37.5140   29.3680   42.7490 N   0  0  0  0  0  0  0  0  0  0  0  0
   37.4410   28.9840   41.4690 C   0  0  0  0  0  0  0  0  0  0  0  0
   36.9780   25.3150   42.0750 N   0  0  0  0  0  0  0  0  0  0  0  0
   37.4460   24.6210   42.6980 H   0  0  0  0  0  0  0  0  0  0  0  0
   36.4390   24.7250   41.4110 H   0  0  0  0  0  0  0  0  0  0  0  0
   39.4770   34.7050   40.5040 C   0  0  0  0  0  0  0  0  0  0  0  0
   38.7190   35.6340   40.0120 O   0  0  0  0  0  0  0  0  0  0  0  0
   40.6360   35.1960   40.9920 O   0  0  0  0  0  0  0  0  0  0  0  0
   42.3690   33.2990   41.1180 O   0  0  0  0  0  0  0  0  0  0  0  0
   42.1740   34.6910   40.6080 P   0  0  2  0  0  0  0  0  0  0  0  0
   43.2760   35.6780   41.3960 O   0  0  0  0  0  0  0  0  0  0  0  0
   43.0950   36.6150   41.0740 H   0  0  0  0  0  0  0  0  0  0  0  0
   42.4040   34.7310   38.9050 O   0  0  0  0  0  0  0  0  0  0  0  0
   41.3320   32.9250   37.7850 C   0  0  0  0  0  0  0  0  0  0  0  0
   42.5050   33.5580   38.1680 C   0  0  0  0  0  0  0  0  0  0  0  0
   43.7330   32.9880   37.7970 C   0  0  0  0  0  0  0  0  0  0  0  0
   43.6980   31.8310   37.0720 N   0  0  0  0  0  0  0  0  0  0  0  0
   42.5440   31.2420   36.7160 C   0  0  0  0  0  0  0  0  0  0  0  0
   41.3710   31.7840   37.0690 N   0  0  0  0  0  0  0  0  0  0  0  0
   40.3320   33.2690   38.0120 H   0  0  0  0  0  0  0  0  0  0  0  0
   44.6400   33.4900   38.1010 H   0  0  0  0  0  0  0  0  0  0  0  0
   42.6720   30.3320   36.1440 H   0  0  0  0  0  0  0  0  0  0  0  0
  1 22  1  0  0  0  0
  1  5  1  0  0  0  0
  2  1  2  0  0  0  0
  3  2  1  0  0  0  0
  3  4  2  0  0  0  0
  4  8  1  0  0  0  0
  4  5  1  0  0  0  0
  6  2  1  0  0  0  0
  7  3  1  0  0  0  0
  8 18  1  0  0  0  0
  9 11  2  0  0  0  0
  9  8  1  0  0  0  0
 10  9  1  0  0  0  0
 11 12  1  0  0  0  0
 12 18  2  0  0  0  0
 12 13  1  0  0  0  0
 13 14  2  0  0  0  0
 14 15  1  0  0  0  0
 15 16  1  0  0  0  0
 17 15  2  0  0  0  0
 18 17  1  0  0  0  0
 19 13  1  0  0  0  0
 19 20  1  0  0  0  0
 21 19  1  0  0  0  0
 22 24  1  0  0  0  0
 23 22  2  0  0  0  0
 26 24  1  0  0  0  0
 26 25  2  1  0  0  0
 26 27  1  0  0  0  0
 28 27  1  0  0  0  0
 29 26  1  0  0  0  0
 30 36  1  0  0  0  0
 30 31  1  0  0  0  0
 31 29  1  0  0  0  0
 32 37  1  0  0  0  0
 32 31  2  0  0  0  0
 33 32  1  0  0  0  0
 34 35  1  0  0  0  0
 34 33  2  0  0  0  0
 35 30  2  0  0  0  0
 38 34  1  0  0  0  0
M  END
>  <minimizedAffinity>
-6.23819113

$$$$

 OpenBabel03242514383D

 38 41  0  0  0  0  0  0  0  0999 V2000
   37.2770   29.2110   40.2800 C   0  0  0  0  0  0  0  0  0  0  0  0
   36.5800   30.1800   39.5000 C   0  0  0  0  0  0  0  0  0  0  0  0
   37.3840   31.0660   38.8450 C   0  0  0  0  0  0  0  0  0  0  0  0
   38.7250   31.0280   38.9290 C   0  0  0  0  0  0  0  0  0  0  0  0
   38.9870   29.5300   40.1010 S   0  0  0  0  0  0  0  0  0  0  0  0
   35.5020   30.1710   39.4650 H   0  0  0  0  0  0  0  0  0  0  0  0
   36.9960   31.8560   38.2160 H   0  0  0  0  0  0  0  0  0  0  0  0
   39.7910   31.7500   38.4110 N   0  0  0  0  0  0  0  0  0  0  0  0
   40.6400   31.4630   37.3970 C   0  0  0  0  0  0  0  0  0  0  0  0
   40.6030   30.5520   36.7940 H   0  0  0  0  0  0  0  0  0  0  0  0
   41.5090   32.5040   37.2880 N   0  0  0  0  0  0  0  0  0  0  0  0
   41.2110   33.4260   38.2200 C   0  0  0  0  0  0  0  0  0  0  0  0
   41.8410   34.6310   38.4560 C   0  0  0  0  0  0  0  0  0  0  0  0
   41.3420   35.3780   39.4570 N   0  0  0  0  0  0  0  0  0  0  0  0
   40.2780   34.9460   40.1760 C   0  0  0  0  0  0  0  0  0  0  0  0
   39.8860   35.5590   40.9800 H   0  0  0  0  0  0  0  0  0  0  0  0
   39.7000   33.7600   39.9020 N   0  0  0  0  0  0  0  0  0  0  0  0
   40.1440   32.9660   38.9220 C   0  0  0  0  0  0  0  0  0  0  0  0
   42.9560   35.1480   37.7490 N   0  0  0  0  0  0  0  0  0  0  0  0
   43.0410   36.1670   37.5380 H   0  0  0  0  0  0  0  0  0  0  0  0
   43.8150   34.7390   37.3320 H   0  0  0  0  0  0  0  0  0  0  0  0
   36.6730   28.1340   41.0890 C   0  0  0  0  0  0  0  0  0  0  0  0
   36.2710   27.2450   40.2370 O   0  0  0  0  0  0  0  0  0  0  0  0
   36.4080   27.7780   42.3640 O   0  0  0  0  0  0  0  0  0  0  0  0
   36.5290   27.9520   44.9280 O   0  0  0  0  0  0  0  0  0  0  0  0
   37.3710   28.0400   43.6950 P   0  0  2  0  0  0  0  0  0  0  0  0
   37.9880   29.5960   43.6140 O   0  0  0  0  0  0  0  0  0  0  0  0
   38.5100   29.6470   42.7540 H   0  0  0  0  0  0  0  0  0  0  0  0
   38.6290   26.8700   43.7570 O   0  0  0  0  0  0  0  0  0  0  0  0
   39.7140   26.1720   41.7580 C   0  0  0  0  0  0  0  0  0  0  0  0
   39.7230   26.9490   42.9060 C   0  0  0  0  0  0  0  0  0  0  0  0
   40.8310   27.7740   43.1550 C   0  0  0  0  0  0  0  0  0  0  0  0
   41.8460   27.7620   42.2390 N   0  0  0  0  0  0  0  0  0  0  0  0
   41.8060   26.9960   41.1350 C   0  0  0  0  0  0  0  0  0  0  0  0
   40.7500   26.2090   40.8960 N   0  0  0  0  0  0  0  0  0  0  0  0
   38.9190   25.5000   41.4620 H   0  0  0  0  0  0  0  0  0  0  0  0
   40.8280   28.3750   44.0520 H   0  0  0  0  0  0  0  0  0  0  0  0
   42.6800   27.0910   40.5030 H   0  0  0  0  0  0  0  0  0  0  0  0
  1 22  1  0  0  0  0
  2  1  2  0  0  0  0
  3  4  2  0  0  0  0
  3  2  1  0  0  0  0
  4  5  1  0  0  0  0
  5  1  1  0  0  0  0
  6  2  1  0  0  0  0
  7  3  1  0  0  0  0
  8 18  1  0  0  0  0
  8  4  1  0  0  0  0
  9  8  1  0  0  0  0
 10  9  1  0  0  0  0
 11  9  2  0  0  0  0
 11 12  1  0  0  0  0
 12 13  2  0  0  0  0
 12 18  1  0  0  0  0
 13 14  1  0  0  0  0
 14 15  2  0  0  0  0
 15 16  1  0  0  0  0
 17 15  1  0  0  0  0
 18 17  2  0  0  0  0
 19 13  1  0  0  0  0
 20 19  1  0  0  0  0
 21 19  1  0  0  0  0
 22 24  1  0  0  0  0
 23 22  2  0  0  0  0
 24 26  1  0  0  0  0
 26 29  1  0  0  0  0
 26 25  2  1  0  0  0
 27 26  1  0  0  0  0
 28 27  1  0  0  0  0
 30 31  1  0  0  0  0
 31 32  2  0  0  0  0
 31 29  1  0  0  0  0
 32 37  1  0  0  0  0
 33 32  1  0  0  0  0
 34 33  2  0  0  0  0
 35 34  1  0  0  0  0
 35 30  2  0  0  0  0
 36 30  1  0  0  0  0
 38 34  1  0  0  0  0
M  END
>  <minimizedAffinity>
-6.22194195

$$$$

 OpenBabel03242514383D

 38 41  0  0  0  0  0  0  0  0999 V2000
   38.9260   33.2790   40.3600 C   0  0  0  0  0  0  0  0  0  0  0  0
   37.5680   32.9930   40.0350 C   0  0  0  0  0  0  0  0  0  0  0  0
   37.1240   31.7770   40.4680 C   0  0  0  0  0  0  0  0  0  0  0  0
   37.9050   30.9210   41.1470 C   0  0  0  0  0  0  0  0  0  0  0  0
   39.5530   31.9020   41.2370 S   0  0  0  0  0  0  0  0  0  0  0  0
   36.9800   33.7130   39.4870 H   0  0  0  0  0  0  0  0  0  0  0  0
   36.1160   31.4250   40.2940 H   0  0  0  0  0  0  0  0  0  0  0  0
   37.7710   29.6580   41.7090 N   0  0  0  0  0  0  0  0  0  0  0  0
   37.9150   29.2440   42.9890 C   0  0  0  0  0  0  0  0  0  0  0  0
   38.1770   29.8950   43.8280 H   0  0  0  0  0  0  0  0  0  0  0  0
   37.6730   27.9060   43.0120 N   0  0  0  0  0  0  0  0  0  0  0  0
   37.3850   27.4880   41.7670 C   0  0  0  0  0  0  0  0  0  0  0  0
   37.0790   26.2090   41.3490 C   0  0  0  0  0  0  0  0  0  0  0  0
   36.8260   26.0570   40.0360 N   0  0  0  0  0  0  0  0  0  0  0  0
   36.8760   27.1180   39.1950 C   0  0  0  0  0  0  0  0  0  0  0  0
   36.6700   26.9800   38.1400 H   0  0  0  0  0  0  0  0  0  0  0  0
   37.1800   28.3470   39.6590 N   0  0  0  0  0  0  0  0  0  0  0  0
   37.4430   28.5710   40.9510 C   0  0  0  0  0  0  0  0  0  0  0  0
   37.0080   25.0530   42.1660 N   0  0  0  0  0  0  0  0  0  0  0  0
   36.2870   24.3160   42.0030 H   0  0  0  0  0  0  0  0  0  0  0  0
   37.5430   24.6970   42.9820 H   0  0  0  0  0  0  0  0  0  0  0  0
   39.6700   34.5090   40.0240 C   0  0  0  0  0  0  0  0  0  0  0  0
   38.8840   35.4870   40.3450 O   0  0  0  0  0  0  0  0  0  0  0  0
   40.8430   34.9400   39.5150 O   0  0  0  0  0  0  0  0  0  0  0  0
   42.7890   33.2610   39.4050 O   0  0  0  0  0  0  0  0  0  0  0  0
   41.8860   34.0830   38.5420 P   0  0  2  0  0  0  0  0  0  0  0  0
   42.8430   35.1650   37.6940 O   0  0  0  0  0  0  0  0  0  0  0  0
   42.2120   35.7390   37.1580 H   0  0  0  0  0  0  0  0  0  0  0  0
   41.0010   33.0630   37.4780 O   0  0  0  0  0  0  0  0  0  0  0  0
   42.5120   31.4450   36.6030 C   0  0  0  0  0  0  0  0  0  0  0  0
   41.3510   31.7300   37.3070 C   0  0  0  0  0  0  0  0  0  0  0  0
   40.5860   30.6650   37.8090 C   0  0  0  0  0  0  0  0  0  0  0  0
   41.0380   29.3980   37.5730 N   0  0  0  0  0  0  0  0  0  0  0  0
   42.1680   29.1550   36.8880 C   0  0  0  0  0  0  0  0  0  0  0  0
   42.9000   30.1690   36.4080 N   0  0  0  0  0  0  0  0  0  0  0  0
   43.1780   32.1790   36.1710 H   0  0  0  0  0  0  0  0  0  0  0  0
   39.6850   30.8990   38.3550 H   0  0  0  0  0  0  0  0  0  0  0  0
   42.4000   28.1020   36.7800 H   0  0  0  0  0  0  0  0  0  0  0  0
  1  5  1  0  0  0  0
  2  1  2  0  0  0  0
  2  3  1  0  0  0  0
  3  4  2  0  0  0  0
  4  5  1  0  0  0  0
  4  8  1  0  0  0  0
  6  2  1  0  0  0  0
  7  3  1  0  0  0  0
  8  9  1  0  0  0  0
  9 11  2  0  0  0  0
  9 10  1  0  0  0  0
 12 11  1  0  0  0  0
 13 12  1  0  0  0  0
 13 19  1  0  0  0  0
 14 13  2  0  0  0  0
 15 17  2  0  0  0  0
 15 14  1  0  0  0  0
 16 15  1  0  0  0  0
 17 18  1  0  0  0  0
 18  8  1  0  0  0  0
 18 12  2  0  0  0  0
 19 21  1  0  0  0  0
 20 19  1  0  0  0  0
 22 23  2  0  0  0  0
 22  1  1  0  0  0  0
 24 22  1  0  0  0  0
 26 25  2  1  0  0  0
 26 24  1  0  0  0  0
 27 26  1  0  0  0  0
 28 27  1  0  0  0  0
 29 26  1  0  0  0  0
 30 31  1  0  0  0  0
 31 29  1  0  0  0  0
 31 32  2  0  0  0  0
 32 37  1  0  0  0  0
 33 32  1  0  0  0  0
 34 33  2  0  0  0  0
 35 30  2  0  0  0  0
 35 34  1  0  0  0  0
 36 30  1  0  0  0  0
 38 34  1  0  0  0  0
M  END
>  <minimizedAffinity>
-6.21681786

$$$$

 OpenBabel03242514383D

 38 41  0  0  0  0  0  0  0  0999 V2000
   36.9490   30.2650   39.8000 C   0  0  0  0  0  0  0  0  0  0  0  0
   36.7890   30.8930   38.5310 C   0  0  0  0  0  0  0  0  0  0  0  0
   37.7330   31.8350   38.2420 C   0  0  0  0  0  0  0  0  0  0  0  0
   38.7320   32.1430   39.0850 C   0  0  0  0  0  0  0  0  0  0  0  0
   38.3630   30.9640   40.5550 S   0  0  0  0  0  0  0  0  0  0  0  0
   35.9690   30.6120   37.8890 H   0  0  0  0  0  0  0  0  0  0  0  0
   37.7380   32.3940   37.3150 H   0  0  0  0  0  0  0  0  0  0  0  0
   39.8120   33.0150   39.0970 N   0  0  0  0  0  0  0  0  0  0  0  0
   39.9890   34.1890   39.7480 C   0  0  0  0  0  0  0  0  0  0  0  0
   39.2510   34.6520   40.4070 H   0  0  0  0  0  0  0  0  0  0  0  0
   41.2270   34.6490   39.4240 N   0  0  0  0  0  0  0  0  0  0  0  0
   41.8150   33.7800   38.5830 C   0  0  0  0  0  0  0  0  0  0  0  0
   43.0690   33.8630   38.0140 C   0  0  0  0  0  0  0  0  0  0  0  0
   43.4220   32.8510   37.2010 N   0  0  0  0  0  0  0  0  0  0  0  0
   42.5730   31.8200   36.9720 C   0  0  0  0  0  0  0  0  0  0  0  0
   42.8720   31.0110   36.3150 H   0  0  0  0  0  0  0  0  0  0  0  0
   41.3590   31.7890   37.5560 N   0  0  0  0  0  0  0  0  0  0  0  0
   40.9420   32.7610   38.3760 C   0  0  0  0  0  0  0  0  0  0  0  0
   44.0100   34.9070   38.2030 N   0  0  0  0  0  0  0  0  0  0  0  0
   45.0330   34.7110   38.2660 H   0  0  0  0  0  0  0  0  0  0  0  0
   43.9500   35.9390   38.3100 H   0  0  0  0  0  0  0  0  0  0  0  0
   36.0850   29.2150   40.3760 C   0  0  0  0  0  0  0  0  0  0  0  0
   35.3350   28.8100   39.4010 O   0  0  0  0  0  0  0  0  0  0  0  0
   35.8230   28.5620   41.5290 O   0  0  0  0  0  0  0  0  0  0  0  0
   36.3640   26.8330   43.3550 O   0  0  0  0  0  0  0  0  0  0  0  0
   36.9320   28.0200   42.6440 P   0  0  2  0  0  0  0  0  0  0  0  0
   37.1790   29.2230   43.7840 O   0  0  0  0  0  0  0  0  0  0  0  0
   37.5150   30.0260   43.2780 H   0  0  0  0  0  0  0  0  0  0  0  0
   38.4000   27.5890   41.8600 O   0  0  0  0  0  0  0  0  0  0  0  0
   40.6390   28.3480   42.1350 C   0  0  0  0  0  0  0  0  0  0  0  0
   39.5980   27.5370   42.5610 C   0  0  0  0  0  0  0  0  0  0  0  0
   39.8010   26.7030   43.6720 C   0  0  0  0  0  0  0  0  0  0  0  0
   41.0260   26.7440   44.2750 N   0  0  0  0  0  0  0  0  0  0  0  0
   42.0150   27.5410   43.8380 C   0  0  0  0  0  0  0  0  0  0  0  0
   41.8240   28.3380   42.7780 N   0  0  0  0  0  0  0  0  0  0  0  0
   40.6000   29.0280   41.2950 H   0  0  0  0  0  0  0  0  0  0  0  0
   38.9830   26.0760   43.9940 H   0  0  0  0  0  0  0  0  0  0  0  0
   42.9280   27.4660   44.4160 H   0  0  0  0  0  0  0  0  0  0  0  0
  1 22  1  0  0  0  0
  1  5  1  0  0  0  0
  2  1  2  0  0  0  0
  3  2  1  0  0  0  0
  3  4  2  0  0  0  0
  4  8  1  0  0  0  0
  4  5  1  0  0  0  0
  6  2  1  0  0  0  0
  7  3  1  0  0  0  0
  8  9  1  0  0  0  0
  9 10  1  0  0  0  0
 11  9  2  0  0  0  0
 12 11  1  0  0  0  0
 13 19  1  0  0  0  0
 13 12  2  0  0  0  0
 14 13  1  0  0  0  0
 15 14  2  0  0  0  0
 15 17  1  0  0  0  0
 16 15  1  0  0  0  0
 17 18  2  0  0  0  0
 18 12  1  0  0  0  0
 18  8  1  0  0  0  0
 19 20  1  0  0  0  0
 19 21  1  0  0  0  0
 22 24  1  0  0  0  0
 23 22  2  0  0  0  0
 24 26  1  0  0  0  0
 26 25  2  1  0  0  0
 26 27  1  0  0  0  0
 28 27  1  0  0  0  0
 29 31  1  0  0  0  0
 29 26  1  0  0  0  0
 30 31  2  0  0  0  0
 30 35  1  0  0  0  0
 31 32  1  0  0  0  0
 32 37  1  0  0  0  0
 32 33  2  0  0  0  0
 34 33  1  0  0  0  0
 34 38  1  0  0  0  0
 35 34  2  0  0  0  0
 36 30  1  0  0  0  0
M  END
>  <minimizedAffinity>
-6.17955637

$$$$

 OpenBabel03242514383D

 38 41  0  0  0  0  0  0  0  0999 V2000
   37.4870   29.8640   41.7610 C   0  0  0  0  0  0  0  0  0  0  0  0
   36.5800   30.7140   41.0650 C   0  0  0  0  0  0  0  0  0  0  0  0
   37.1560   31.8100   40.4910 C   0  0  0  0  0  0  0  0  0  0  0  0
   38.4730   32.0650   40.5770 C   0  0  0  0  0  0  0  0  0  0  0  0
   39.0800   30.5700   41.6170 S   0  0  0  0  0  0  0  0  0  0  0  0
   35.5310   30.4680   41.0250 H   0  0  0  0  0  0  0  0  0  0  0  0
   36.5920   32.5440   39.9310 H   0  0  0  0  0  0  0  0  0  0  0  0
   39.3430   33.0480   40.1280 N   0  0  0  0  0  0  0  0  0  0  0  0
   39.5100   34.3290   40.5330 C   0  0  0  0  0  0  0  0  0  0  0  0
   38.9390   34.8080   41.3320 H   0  0  0  0  0  0  0  0  0  0  0  0
   40.4960   34.8710   39.7690 N   0  0  0  0  0  0  0  0  0  0  0  0
   40.9390   33.9460   38.8990 C   0  0  0  0  0  0  0  0  0  0  0  0
   41.9290   34.0790   37.9470 C   0  0  0  0  0  0  0  0  0  0  0  0
   42.1840   32.9910   37.1970 N   0  0  0  0  0  0  0  0  0  0  0  0
   41.4910   31.8420   37.3890 C   0  0  0  0  0  0  0  0  0  0  0  0
   41.7080   30.9740   36.7770 H   0  0  0  0  0  0  0  0  0  0  0  0
   40.5340   31.7680   38.3350 N   0  0  0  0  0  0  0  0  0  0  0  0
   40.2280   32.8100   39.1160 C   0  0  0  0  0  0  0  0  0  0  0  0
   42.6940   35.2440   37.6880 N   0  0  0  0  0  0  0  0  0  0  0  0
   43.7060   35.1860   37.4390 H   0  0  0  0  0  0  0  0  0  0  0  0
   42.4970   36.2640   37.6770 H   0  0  0  0  0  0  0  0  0  0  0  0
   37.1500   28.6150   42.4730 C   0  0  0  0  0  0  0  0  0  0  0  0
   37.5270   28.8020   43.6980 O   0  0  0  0  0  0  0  0  0  0  0  0
   36.6050   27.3940   42.2860 O   0  0  0  0  0  0  0  0  0  0  0  0
   36.6480   24.8260   42.4320 O   0  0  0  0  0  0  0  0  0  0  0  0
   37.4070   25.9930   41.8860 P   0  0  2  0  0  0  0  0  0  0  0  0
   38.9120   26.0060   42.6220 O   0  0  0  0  0  0  0  0  0  0  0  0
   39.3870   26.8250   42.2770 H   0  0  0  0  0  0  0  0  0  0  0  0
   37.5470   25.8550   40.1780 O   0  0  0  0  0  0  0  0  0  0  0  0
   38.8790   27.5530   39.1740 C   0  0  0  0  0  0  0  0  0  0  0  0
   37.6300   26.9840   39.3730 C   0  0  0  0  0  0  0  0  0  0  0  0
   36.5130   27.5710   38.7570 C   0  0  0  0  0  0  0  0  0  0  0  0
   36.7270   28.6800   37.9890 N   0  0  0  0  0  0  0  0  0  0  0  0
   37.9510   29.2080   37.8160 C   0  0  0  0  0  0  0  0  0  0  0  0
   39.0180   28.6490   38.4020 N   0  0  0  0  0  0  0  0  0  0  0  0
   39.8070   27.1900   39.5950 H   0  0  0  0  0  0  0  0  0  0  0  0
   35.5460   27.1190   38.9190 H   0  0  0  0  0  0  0  0  0  0  0  0
   37.9660   30.0850   37.1810 H   0  0  0  0  0  0  0  0  0  0  0  0
  1 22  1  0  0  0  0
  2  1  2  0  0  0  0
  3  4  2  0  0  0  0
  3  2  1  0  0  0  0
  4  5  1  0  0  0  0
  5  1  1  0  0  0  0
  6  2  1  0  0  0  0
  7  3  1  0  0  0  0
  8  9  1  0  0  0  0
  8  4  1  0  0  0  0
  9 10  1  0  0  0  0
 11  9  2  0  0  0  0
 12 18  1  0  0  0  0
 12 11  1  0  0  0  0
 13 12  2  0  0  0  0
 14 15  2  0  0  0  0
 14 13  1  0  0  0  0
 15 17  1  0  0  0  0
 16 15  1  0  0  0  0
 17 18  2  0  0  0  0
 18  8  1  0  0  0  0
 19 13  1  0  0  0  0
 20 19  1  0  0  0  0
 21 19  1  0  0  0  0
 22 23  2  0  0  0  0
 24 22  1  0  0  0  0
 26 24  1  0  0  0  0
 26 25  2  1  0  0  0
 26 27  1  0  0  0  0
 28 27  1  0  0  0  0
 29 26  1  0  0  0  0
 30 31  1  0  0  0  0
 30 36  1  0  0  0  0
 31 29  1  0  0  0  0
 32 37  1  0  0  0  0
 32 31  2  0  0  0  0
 33 32  1  0  0  0  0
 34 33  2  0  0  0  0
 34 35  1  0  0  0  0
 35 30  2  0  0  0  0
 38 34  1  0  0  0  0
M  END
>  <minimizedAffinity>
-6.11805916

$$$$

 OpenBabel03242514383D

 38 41  0  0  0  0  0  0  0  0999 V2000
   37.2870   30.9960   40.3410 C   0  0  0  0  0  0  0  0  0  0  0  0
   37.0050   32.0890   39.4720 C   0  0  0  0  0  0  0  0  0  0  0  0
   37.9490   33.0730   39.4730 C   0  0  0  0  0  0  0  0  0  0  0  0
   39.0550   33.0160   40.2320 C   0  0  0  0  0  0  0  0  0  0  0  0
   38.8130   31.3340   41.1270 S   0  0  0  0  0  0  0  0  0  0  0  0
   36.1010   32.0900   38.8820 H   0  0  0  0  0  0  0  0  0  0  0  0
   37.8690   33.9640   38.8620 H   0  0  0  0  0  0  0  0  0  0  0  0
   40.1680   33.8140   40.4600 N   0  0  0  0  0  0  0  0  0  0  0  0
   40.2640   35.1420   40.7050 C   0  0  0  0  0  0  0  0  0  0  0  0
   39.4140   35.8270   40.7630 H   0  0  0  0  0  0  0  0  0  0  0  0
   41.5840   35.4310   40.8590 N   0  0  0  0  0  0  0  0  0  0  0  0
   42.3030   34.3050   40.7120 C   0  0  0  0  0  0  0  0  0  0  0  0
   43.6720   34.1530   40.7910 C   0  0  0  0  0  0  0  0  0  0  0  0
   44.1450   32.9070   40.6040 N   0  0  0  0  0  0  0  0  0  0  0  0
   43.3000   31.8780   40.3540 C   0  0  0  0  0  0  0  0  0  0  0  0
   43.6950   30.8800   40.2060 H   0  0  0  0  0  0  0  0  0  0  0  0
   41.9690   32.0830   40.2890 N   0  0  0  0  0  0  0  0  0  0  0  0
   41.4300   33.2950   40.4640 C   0  0  0  0  0  0  0  0  0  0  0  0
   44.6170   35.1790   41.0460 N   0  0  0  0  0  0  0  0  0  0  0  0
   45.4630   35.0040   41.6320 H   0  0  0  0  0  0  0  0  0  0  0  0
   44.7070   36.1780   40.7770 H   0  0  0  0  0  0  0  0  0  0  0  0
   36.4510   29.7950   40.5450 C   0  0  0  0  0  0  0  0  0  0  0  0
   35.8820   29.5730   39.4030 O   0  0  0  0  0  0  0  0  0  0  0  0
   36.0940   28.8900   41.4800 O   0  0  0  0  0  0  0  0  0  0  0  0
   36.4040   26.9600   43.1530 O   0  0  0  0  0  0  0  0  0  0  0  0
   37.0870   28.1730   42.6070 P   0  0  2  0  0  0  0  0  0  0  0  0
   37.3160   29.2400   43.8780 O   0  0  0  0  0  0  0  0  0  0  0  0
   37.7320   30.0670   43.4800 H   0  0  0  0  0  0  0  0  0  0  0  0
   38.5830   27.7310   41.8840 O   0  0  0  0  0  0  0  0  0  0  0  0
   39.8090   26.2740   43.3110 C   0  0  0  0  0  0  0  0  0  0  0  0
   39.7110   27.4940   42.6590 C   0  0  0  0  0  0  0  0  0  0  0  0
   40.7470   28.4280   42.8110 C   0  0  0  0  0  0  0  0  0  0  0  0
   41.8030   28.0740   43.6020 N   0  0  0  0  0  0  0  0  0  0  0  0
   41.8690   26.8830   44.2220 C   0  0  0  0  0  0  0  0  0  0  0  0
   40.8820   25.9900   44.0770 N   0  0  0  0  0  0  0  0  0  0  0  0
   39.0760   25.4800   43.2690 H   0  0  0  0  0  0  0  0  0  0  0  0
   40.6590   29.3740   42.2990 H   0  0  0  0  0  0  0  0  0  0  0  0
   42.7650   26.7440   44.8130 H   0  0  0  0  0  0  0  0  0  0  0  0
  1 22  1  0  0  0  0
  1  5  1  0  0  0  0
  2  3  1  0  0  0  0
  2  1  2  0  0  0  0
  3  4  2  0  0  0  0
  4  8  1  0  0  0  0
  4  5  1  0  0  0  0
  6  2  1  0  0  0  0
  7  3  1  0  0  0  0
  8 18  1  0  0  0  0
  8  9  1  0  0  0  0
  9 10  1  0  0  0  0
  9 11  2  0  0  0  0
 12 13  1  0  0  0  0
 12 11  1  0  0  0  0
 13 19  1  0  0  0  0
 14 13  2  0  0  0  0
 15 14  1  0  0  0  0
 16 15  1  0  0  0  0
 17 15  2  0  0  0  0
 17 18  1  0  0  0  0
 18 12  2  0  0  0  0
 19 20  1  0  0  0  0
 21 19  1  0  0  0  0
 22 24  1  0  0  0  0
 23 22  2  0  0  0  0
 24 26  1  0  0  0  0
 26 25  2  1  0  0  0
 26 27  1  0  0  0  0
 28 27  1  0  0  0  0
 29 26  1  0  0  0  0
 29 31  1  0  0  0  0
 30 35  1  0  0  0  0
 31 32  1  0  0  0  0
 31 30  2  0  0  0  0
 32 33  2  0  0  0  0
 33 34  1  0  0  0  0
 34 38  1  0  0  0  0
 35 34  2  0  0  0  0
 36 30  1  0  0  0  0
 37 32  1  0  0  0  0
M  END
>  <minimizedAffinity>
-6.03258753

$$$$
