
 OpenBabel03252506303D

 52 57  0  0  0  0  0  0  0  0999 V2000
   37.7540   31.7230   40.6610 C   0  0  0  0  0  0  0  0  0  0  0  0
   36.9900   32.4920   39.7580 C   0  0  0  0  0  0  0  0  0  0  0  0
   37.5630   33.7100   39.6330 C   0  0  0  0  0  0  0  0  0  0  0  0
   38.6420   33.6970   40.4290 N   0  0  0  0  0  0  0  0  0  0  0  0
   38.7660   32.5190   41.0460 N   0  0  0  0  0  0  0  0  0  0  0  0
   36.0750   32.2300   39.2060 H   0  0  0  0  0  0  0  0  0  0  0  0
   37.2250   34.5490   39.0090 H   0  0  0  0  0  0  0  0  0  0  0  0
   35.8520   28.6530   41.2020 C   0  0  0  0  0  0  0  0  0  0  0  0
   36.8010   27.7880   41.7430 C   0  0  0  0  0  0  0  0  0  0  0  0
   38.0950   28.2750   41.9180 C   0  0  0  0  0  0  0  0  0  0  0  0
   38.3500   29.5410   41.5560 N   0  0  0  0  0  0  0  0  0  0  0  0
   37.4400   30.3670   41.0380 C   0  0  0  0  0  0  0  0  0  0  0  0
   36.1850   29.9060   40.8650 N   0  0  0  0  0  0  0  0  0  0  0  0
   34.8210   28.3330   41.0400 H   0  0  0  0  0  0  0  0  0  0  0  0
   36.5420   26.7750   42.0180 H   0  0  0  0  0  0  0  0  0  0  0  0
   39.1230   27.4570   42.4640 N   0  0  0  0  0  0  0  0  0  0  0  0
   39.2040   27.0890   43.7520 C   0  0  0  0  0  0  0  0  0  0  0  0
   38.4940   27.3690   44.5430 H   0  0  0  0  0  0  0  0  0  0  0  0
   40.2980   26.3150   43.9410 N   0  0  0  0  0  0  0  0  0  0  0  0
   40.9160   26.1890   42.7670 C   0  0  0  0  0  0  0  0  0  0  0  0
   42.0660   25.5120   42.4010 C   0  0  0  0  0  0  0  0  0  0  0  0
   42.4420   25.5790   41.0950 N   0  0  0  0  0  0  0  0  0  0  0  0
   41.7150   26.2840   40.1900 C   0  0  0  0  0  0  0  0  0  0  0  0
   42.0940   26.2840   39.1570 H   0  0  0  0  0  0  0  0  0  0  0  0
   40.6020   26.9330   40.5750 N   0  0  0  0  0  0  0  0  0  0  0  0
   40.1730   26.9120   41.8290 C   0  0  0  0  0  0  0  0  0  0  0  0
   42.7910   24.7880   43.3900 N   0  0  0  0  0  0  0  0  0  0  0  0
   43.5400   25.4970   43.5500 H   0  0  0  0  0  0  0  0  0  0  0  0
   42.6860   23.8610   43.8560 H   0  0  0  0  0  0  0  0  0  0  0  0
   39.5700   34.8050   40.6110 C   0  0  0  0  0  0  0  0  0  0  0  0
   39.8940   34.8950   41.6620 H   0  0  0  0  0  0  0  0  0  0  0  0
   39.0900   35.7520   40.3260 H   0  0  0  0  0  0  0  0  0  0  0  0
   40.7680   34.6260   39.7510 C   0  0  0  0  0  0  0  0  0  0  0  0
   40.6770   33.6050   39.2820 H   0  0  0  0  0  0  0  0  0  0  0  0
   40.6940   35.3440   38.9030 H   0  0  0  0  0  0  0  0  0  0  0  0
   43.2700   34.1520   40.0080 C   0  0  0  0  0  0  0  0  0  0  0  0
   42.0620   34.6940   40.3910 C   0  0  0  0  0  0  0  0  0  0  0  0
   42.0800   35.4250   41.5830 C   0  0  0  0  0  0  0  0  0  0  0  0
   43.2300   35.5850   42.3120 C   0  0  0  0  0  0  0  0  0  0  0  0
   43.5380   36.2210   43.4690 N   0  0  0  0  0  0  0  0  0  0  0  0
   44.8300   36.0820   43.7710 C   0  0  0  0  0  0  0  0  0  0  0  0
   45.4350   35.3160   42.7790 C   0  0  0  0  0  0  0  0  0  0  0  0
   44.4160   35.0410   41.9180 C   0  0  0  0  0  0  0  0  0  0  0  0
   44.4130   34.3170   40.7430 C   0  0  0  0  0  0  0  0  0  0  0  0
   43.2170   33.5870   39.0710 H   0  0  0  0  0  0  0  0  0  0  0  0
   41.2010   35.9060   42.0020 H   0  0  0  0  0  0  0  0  0  0  0  0
   42.8260   36.7540   44.0380 H   0  0  0  0  0  0  0  0  0  0  0  0
   45.2970   36.5080   44.6520 H   0  0  0  0  0  0  0  0  0  0  0  0
   46.4660   35.0590   42.7840 H   0  0  0  0  0  0  0  0  0  0  0  0
   45.6490   33.7030   40.2530 C   0  0  0  0  0  0  0  0  0  0  0  0
   45.8300   33.4500   39.0370 O   0  0  0  0  0  0  0  0  0  0  0  0
   46.4550   33.4440   40.9390 H   0  0  0  0  0  0  0  0  0  0  0  0
  1 12  1  0  0  0  0
  1  5  2  0  0  0  0
  2  1  1  0  0  0  0
  3  2  2  0  0  0  0
  3  4  1  0  0  0  0
  4 30  1  0  0  0  0
  4  5  1  0  0  0  0
  6  2  1  0  0  0  0
  7  3  1  0  0  0  0
  8  9  1  0  0  0  0
  9 10  2  0  0  0  0
  9 15  1  0  0  0  0
 10 16  1  0  0  0  0
 11 10  1  0  0  0  0
 12 11  2  0  0  0  0
 13 12  1  0  0  0  0
 13  8  2  0  0  0  0
 14  8  1  0  0  0  0
 16 17  1  0  0  0  0
 17 19  2  0  0  0  0
 17 18  1  0  0  0  0
 20 19  1  0  0  0  0
 21 20  1  0  0  0  0
 21 27  1  0  0  0  0
 22 21  2  0  0  0  0
 23 25  2  0  0  0  0
 23 22  1  0  0  0  0
 24 23  1  0  0  0  0
 25 26  1  0  0  0  0
 26 16  1  0  0  0  0
 26 20  2  0  0  0  0
 27 28  1  0  0  0  0
 27 29  1  0  0  0  0
 30 31  1  0  0  0  0
 32 30  1  0  0  0  0
 33 37  1  0  0  0  0
 33 30  1  0  0  0  0
 34 33  1  0  0  0  0
 35 33  1  0  0  0  0
 36 37  2  0  0  0  0
 36 44  1  0  0  0  0
 37 38  1  0  0  0  0
 38 46  1  0  0  0  0
 38 39  2  0  0  0  0
 39 40  1  0  0  0  0
 40 41  1  0  0  0  0
 40 47  1  0  0  0  0
 41 48  1  0  0  0  0
 42 49  1  0  0  0  0
 42 41  2  0  0  0  0
 43 39  1  0  0  0  0
 43 42  1  0  0  0  0
 44 43  2  0  0  0  0
 45 36  1  0  0  0  0
 50 44  1  0  0  0  0
 50 52  1  0  0  0  0
 51 50  2  0  0  0  0
M  END
>  <minimizedAffinity>
-7.66143417

$$$$

 OpenBabel03252506303D

 52 57  0  0  0  0  0  0  0  0999 V2000
   39.2420   32.3280   38.5240 C   0  0  0  0  0  0  0  0  0  0  0  0
   38.1150   32.8570   39.1880 C   0  0  0  0  0  0  0  0  0  0  0  0
   37.0530   32.0560   38.9460 C   0  0  0  0  0  0  0  0  0  0  0  0
   37.5050   31.0680   38.1600 N   0  0  0  0  0  0  0  0  0  0  0  0
   38.8060   31.2190   37.9030 N   0  0  0  0  0  0  0  0  0  0  0  0
   38.0230   33.7570   39.8150 H   0  0  0  0  0  0  0  0  0  0  0  0
   36.0240   32.1780   39.3120 H   0  0  0  0  0  0  0  0  0  0  0  0
   42.5700   33.3870   37.4560 C   0  0  0  0  0  0  0  0  0  0  0  0
   43.0660   34.0390   38.5810 C   0  0  0  0  0  0  0  0  0  0  0  0
   42.2450   34.1080   39.7060 C   0  0  0  0  0  0  0  0  0  0  0  0
   41.0300   33.5450   39.6370 N   0  0  0  0  0  0  0  0  0  0  0  0
   40.5560   32.9210   38.5580 C   0  0  0  0  0  0  0  0  0  0  0  0
   41.3430   32.8490   37.4650 N   0  0  0  0  0  0  0  0  0  0  0  0
   43.1620   33.2990   36.5440 H   0  0  0  0  0  0  0  0  0  0  0  0
   44.0560   34.4770   38.5840 H   0  0  0  0  0  0  0  0  0  0  0  0
   42.6770   34.7560   40.8960 N   0  0  0  0  0  0  0  0  0  0  0  0
   42.0890   35.8350   41.4360 C   0  0  0  0  0  0  0  0  0  0  0  0
   41.2070   36.3520   41.0320 H   0  0  0  0  0  0  0  0  0  0  0  0
   42.7450   36.2010   42.5610 N   0  0  0  0  0  0  0  0  0  0  0  0
   43.7550   35.3500   42.7400 C   0  0  0  0  0  0  0  0  0  0  0  0
   44.7260   35.2680   43.7220 C   0  0  0  0  0  0  0  0  0  0  0  0
   45.6370   34.2630   43.6190 N   0  0  0  0  0  0  0  0  0  0  0  0
   45.5900   33.3760   42.5910 C   0  0  0  0  0  0  0  0  0  0  0  0
   46.3660   32.5950   42.5880 H   0  0  0  0  0  0  0  0  0  0  0  0
   44.6350   33.4800   41.6510 N   0  0  0  0  0  0  0  0  0  0  0  0
   43.7140   34.4330   41.6850 C   0  0  0  0  0  0  0  0  0  0  0  0
   44.7290   36.2230   44.7780 N   0  0  0  0  0  0  0  0  0  0  0  0
   45.4910   36.8310   44.4030 H   0  0  0  0  0  0  0  0  0  0  0  0
   44.1920   36.3540   45.6630 H   0  0  0  0  0  0  0  0  0  0  0  0
   36.7020   29.9660   37.6460 C   0  0  0  0  0  0  0  0  0  0  0  0
   37.3280   29.0950   37.3830 H   0  0  0  0  0  0  0  0  0  0  0  0
   36.1640   30.2790   36.7410 H   0  0  0  0  0  0  0  0  0  0  0  0
   35.6930   29.5460   38.6520 C   0  0  0  0  0  0  0  0  0  0  0  0
   35.2930   30.4900   39.1200 H   0  0  0  0  0  0  0  0  0  0  0  0
   34.8290   29.1010   38.1090 H   0  0  0  0  0  0  0  0  0  0  0  0
   36.4550   27.3460   39.7150 C   0  0  0  0  0  0  0  0  0  0  0  0
   36.1410   28.6870   39.7250 C   0  0  0  0  0  0  0  0  0  0  0  0
   36.2740   29.3280   40.9610 C   0  0  0  0  0  0  0  0  0  0  0  0
   36.6890   28.6550   42.0820 C   0  0  0  0  0  0  0  0  0  0  0  0
   36.9020   29.0050   43.3730 N   0  0  0  0  0  0  0  0  0  0  0  0
   37.3130   27.9640   44.0980 C   0  0  0  0  0  0  0  0  0  0  0  0
   37.3860   26.8490   43.2670 C   0  0  0  0  0  0  0  0  0  0  0  0
   36.9950   27.3270   42.0530 C   0  0  0  0  0  0  0  0  0  0  0  0
   36.8690   26.6820   40.8390 C   0  0  0  0  0  0  0  0  0  0  0  0
   36.3400   26.8780   38.7320 H   0  0  0  0  0  0  0  0  0  0  0  0
   36.0600   30.3820   41.1140 H   0  0  0  0  0  0  0  0  0  0  0  0
   36.7540   29.9860   43.7340 H   0  0  0  0  0  0  0  0  0  0  0  0
   37.5450   28.0130   45.1560 H   0  0  0  0  0  0  0  0  0  0  0  0
   37.6890   25.8870   43.6010 H   0  0  0  0  0  0  0  0  0  0  0  0
   37.1800   25.2550   40.7280 C   0  0  0  0  0  0  0  0  0  0  0  0
   36.3450   24.4240   40.2950 O   0  0  0  0  0  0  0  0  0  0  0  0
   38.1570   24.8700   41.0230 H   0  0  0  0  0  0  0  0  0  0  0  0
  1 12  1  0  0  0  0
  1  2  1  0  0  0  0
  2  6  1  0  0  0  0
  3  2  2  0  0  0  0
  3  7  1  0  0  0  0
  4  3  1  0  0  0  0
  5  4  1  0  0  0  0
  5  1  2  0  0  0  0
  8 13  2  0  0  0  0
  8  9  1  0  0  0  0
  9 15  1  0  0  0  0
  9 10  2  0  0  0  0
 10 16  1  0  0  0  0
 11 10  1  0  0  0  0
 12 11  2  0  0  0  0
 13 12  1  0  0  0  0
 14  8  1  0  0  0  0
 16 17  1  0  0  0  0
 16 26  1  0  0  0  0
 17 19  2  0  0  0  0
 18 17  1  0  0  0  0
 19 20  1  0  0  0  0
 20 21  1  0  0  0  0
 21 27  1  0  0  0  0
 22 21  2  0  0  0  0
 23 22  1  0  0  0  0
 24 23  1  0  0  0  0
 25 26  1  0  0  0  0
 25 23  2  0  0  0  0
 26 20  2  0  0  0  0
 27 29  1  0  0  0  0
 28 27  1  0  0  0  0
 30  4  1  0  0  0  0
 30 33  1  0  0  0  0
 31 30  1  0  0  0  0
 32 30  1  0  0  0  0
 33 34  1  0  0  0  0
 33 37  1  0  0  0  0
 35 33  1  0  0  0  0
 36 37  2  0  0  0  0
 36 44  1  0  0  0  0
 37 38  1  0  0  0  0
 38 46  1  0  0  0  0
 38 39  2  0  0  0  0
 39 40  1  0  0  0  0
 40 47  1  0  0  0  0
 40 41  1  0  0  0  0
 41 48  1  0  0  0  0
 42 49  1  0  0  0  0
 42 41  2  0  0  0  0
 43 39  1  0  0  0  0
 43 42  1  0  0  0  0
 44 43  2  0  0  0  0
 45 36  1  0  0  0  0
 50 44  1  0  0  0  0
 50 52  1  0  0  0  0
 51 50  2  0  0  0  0
M  END
>  <minimizedAffinity>
-7.59643984

$$$$

 OpenBabel03252506303D

 52 57  0  0  0  0  0  0  0  0999 V2000
   37.6910   31.6900   40.6150 C   0  0  0  0  0  0  0  0  0  0  0  0
   37.0840   32.3900   39.5500 C   0  0  0  0  0  0  0  0  0  0  0  0
   37.5690   33.6520   39.5280 C   0  0  0  0  0  0  0  0  0  0  0  0
   38.4440   33.7310   40.5430 N   0  0  0  0  0  0  0  0  0  0  0  0
   38.5240   32.5700   41.1950 N   0  0  0  0  0  0  0  0  0  0  0  0
   36.3380   32.0500   38.8160 H   0  0  0  0  0  0  0  0  0  0  0  0
   37.3100   34.4580   38.8290 H   0  0  0  0  0  0  0  0  0  0  0  0
   35.8900   28.5340   40.9830 C   0  0  0  0  0  0  0  0  0  0  0  0
   36.8450   27.6940   41.5490 C   0  0  0  0  0  0  0  0  0  0  0  0
   38.1090   28.2260   41.8010 C   0  0  0  0  0  0  0  0  0  0  0  0
   38.3300   29.5100   41.4840 N   0  0  0  0  0  0  0  0  0  0  0  0
   37.4140   30.3140   40.9420 C   0  0  0  0  0  0  0  0  0  0  0  0
   36.1880   29.8080   40.6940 N   0  0  0  0  0  0  0  0  0  0  0  0
   34.8830   28.1790   40.7600 H   0  0  0  0  0  0  0  0  0  0  0  0
   36.6140   26.6640   41.7850 H   0  0  0  0  0  0  0  0  0  0  0  0
   39.1410   27.4340   42.3780 N   0  0  0  0  0  0  0  0  0  0  0  0
   39.2310   27.1270   43.6810 C   0  0  0  0  0  0  0  0  0  0  0  0
   38.5260   27.4440   44.4630 H   0  0  0  0  0  0  0  0  0  0  0  0
   40.3250   26.3630   43.8980 N   0  0  0  0  0  0  0  0  0  0  0  0
   40.9360   26.1810   42.7280 C   0  0  0  0  0  0  0  0  0  0  0  0
   42.0830   25.4880   42.3850 C   0  0  0  0  0  0  0  0  0  0  0  0
   42.4500   25.4930   41.0760 N   0  0  0  0  0  0  0  0  0  0  0  0
   41.7170   26.1560   40.1440 C   0  0  0  0  0  0  0  0  0  0  0  0
   42.0880   26.1060   39.1090 H   0  0  0  0  0  0  0  0  0  0  0  0
   40.6060   26.8210   40.5050 N   0  0  0  0  0  0  0  0  0  0  0  0
   40.1860   26.8600   41.7610 C   0  0  0  0  0  0  0  0  0  0  0  0
   42.8150   24.8110   43.4020 N   0  0  0  0  0  0  0  0  0  0  0  0
   43.5650   25.5270   43.5230 H   0  0  0  0  0  0  0  0  0  0  0  0
   42.7140   23.9070   43.9130 H   0  0  0  0  0  0  0  0  0  0  0  0
   39.2140   34.9150   40.9010 C   0  0  0  0  0  0  0  0  0  0  0  0
   39.8440   34.7360   41.7900 H   0  0  0  0  0  0  0  0  0  0  0  0
   38.5400   35.7520   41.1290 H   0  0  0  0  0  0  0  0  0  0  0  0
   40.0840   35.3290   39.7700 C   0  0  0  0  0  0  0  0  0  0  0  0
   39.5540   35.0190   38.8250 H   0  0  0  0  0  0  0  0  0  0  0  0
   40.1060   36.4410   39.7400 H   0  0  0  0  0  0  0  0  0  0  0  0
   42.2440   34.3550   40.7390 C   0  0  0  0  0  0  0  0  0  0  0  0
   41.4180   34.7730   39.7190 C   0  0  0  0  0  0  0  0  0  0  0  0
   41.9410   34.6430   38.4280 C   0  0  0  0  0  0  0  0  0  0  0  0
   43.1940   34.1330   38.2060 C   0  0  0  0  0  0  0  0  0  0  0  0
   43.9390   33.8970   37.0990 N   0  0  0  0  0  0  0  0  0  0  0  0
   45.1260   33.3770   37.4130 C   0  0  0  0  0  0  0  0  0  0  0  0
   45.2000   33.2500   38.7970 C   0  0  0  0  0  0  0  0  0  0  0  0
   43.9980   33.7240   39.2280 C   0  0  0  0  0  0  0  0  0  0  0  0
   43.4940   33.8460   40.5080 C   0  0  0  0  0  0  0  0  0  0  0  0
   41.8020   34.4710   41.7340 H   0  0  0  0  0  0  0  0  0  0  0  0
   41.3990   34.9330   37.5320 H   0  0  0  0  0  0  0  0  0  0  0  0
   43.5990   34.1080   36.1220 H   0  0  0  0  0  0  0  0  0  0  0  0
   45.8850   33.1090   36.6850 H   0  0  0  0  0  0  0  0  0  0  0  0
   46.0470   32.8580   39.3070 H   0  0  0  0  0  0  0  0  0  0  0  0
   44.2980   33.4280   41.6580 C   0  0  0  0  0  0  0  0  0  0  0  0
   44.1670   33.9570   42.7890 O   0  0  0  0  0  0  0  0  0  0  0  0
   45.0420   32.6370   41.5640 H   0  0  0  0  0  0  0  0  0  0  0  0
  1 12  1  0  0  0  0
  1  5  2  0  0  0  0
  2  1  1  0  0  0  0
  3  2  2  0  0  0  0
  3  4  1  0  0  0  0
  4 30  1  0  0  0  0
  4  5  1  0  0  0  0
  6  2  1  0  0  0  0
  7  3  1  0  0  0  0
  8  9  1  0  0  0  0
  9 15  1  0  0  0  0
  9 10  2  0  0  0  0
 10 16  1  0  0  0  0
 11 10  1  0  0  0  0
 12 11  2  0  0  0  0
 13 12  1  0  0  0  0
 13  8  2  0  0  0  0
 14  8  1  0  0  0  0
 16 17  1  0  0  0  0
 17 19  2  0  0  0  0
 17 18  1  0  0  0  0
 20 19  1  0  0  0  0
 21 20  1  0  0  0  0
 21 27  1  0  0  0  0
 22 21  2  0  0  0  0
 23 25  2  0  0  0  0
 23 22  1  0  0  0  0
 24 23  1  0  0  0  0
 25 26  1  0  0  0  0
 26 16  1  0  0  0  0
 26 20  2  0  0  0  0
 27 28  1  0  0  0  0
 27 29  1  0  0  0  0
 30 32  1  0  0  0  0
 30 31  1  0  0  0  0
 33 30  1  0  0  0  0
 34 33  1  0  0  0  0
 35 33  1  0  0  0  0
 36 45  1  0  0  0  0
 37 33  1  0  0  0  0
 37 36  2  0  0  0  0
 38 37  1  0  0  0  0
 39 38  2  0  0  0  0
 39 43  1  0  0  0  0
 40 41  1  0  0  0  0
 40 39  1  0  0  0  0
 41 42  2  0  0  0  0
 42 43  1  0  0  0  0
 42 49  1  0  0  0  0
 43 44  2  0  0  0  0
 44 36  1  0  0  0  0
 44 50  1  0  0  0  0
 46 38  1  0  0  0  0
 47 40  1  0  0  0  0
 48 41  1  0  0  0  0
 50 51  2  0  0  0  0
 52 50  1  0  0  0  0
M  END
>  <minimizedAffinity>
-7.47233582

$$$$

 OpenBabel03252506303D

 52 57  0  0  0  0  0  0  0  0999 V2000
   38.2990   28.7000   42.3360 C   0  0  0  0  0  0  0  0  0  0  0  0
   37.5470   28.3110   43.4660 C   0  0  0  0  0  0  0  0  0  0  0  0
   38.1600   27.2600   44.0540 C   0  0  0  0  0  0  0  0  0  0  0  0
   39.2510   27.0060   43.3170 N   0  0  0  0  0  0  0  0  0  0  0  0
   39.3440   27.8570   42.2930 N   0  0  0  0  0  0  0  0  0  0  0  0
   36.6150   28.7320   43.8710 H   0  0  0  0  0  0  0  0  0  0  0  0
   37.8410   26.7150   44.9530 H   0  0  0  0  0  0  0  0  0  0  0  0
   36.3180   31.2920   40.6950 C   0  0  0  0  0  0  0  0  0  0  0  0
   37.2290   31.8720   39.8150 C   0  0  0  0  0  0  0  0  0  0  0  0
   38.5260   31.3600   39.7950 C   0  0  0  0  0  0  0  0  0  0  0  0
   38.8190   30.3450   40.6210 N   0  0  0  0  0  0  0  0  0  0  0  0
   37.9450   29.7910   41.4630 C   0  0  0  0  0  0  0  0  0  0  0  0
   36.6880   30.2790   41.4900 N   0  0  0  0  0  0  0  0  0  0  0  0
   35.2880   31.6470   40.7590 H   0  0  0  0  0  0  0  0  0  0  0  0
   36.9410   32.6900   39.1690 H   0  0  0  0  0  0  0  0  0  0  0  0
   39.5170   31.8960   38.9260 N   0  0  0  0  0  0  0  0  0  0  0  0
   39.9190   31.3230   37.7810 C   0  0  0  0  0  0  0  0  0  0  0  0
   39.5400   30.3760   37.3710 H   0  0  0  0  0  0  0  0  0  0  0  0
   40.8710   32.0850   37.1960 N   0  0  0  0  0  0  0  0  0  0  0  0
   41.0750   33.1500   37.9710 C   0  0  0  0  0  0  0  0  0  0  0  0
   41.9280   34.2310   37.8440 C   0  0  0  0  0  0  0  0  0  0  0  0
   41.8990   35.1710   38.8260 N   0  0  0  0  0  0  0  0  0  0  0  0
   41.0630   35.0490   39.8900 C   0  0  0  0  0  0  0  0  0  0  0  0
   41.1060   35.8560   40.6370 H   0  0  0  0  0  0  0  0  0  0  0  0
   40.2450   33.9860   39.9870 N   0  0  0  0  0  0  0  0  0  0  0  0
   40.2170   33.0310   39.0690 C   0  0  0  0  0  0  0  0  0  0  0  0
   42.7850   34.3100   36.7080 N   0  0  0  0  0  0  0  0  0  0  0  0
   43.6560   33.9770   37.1770 H   0  0  0  0  0  0  0  0  0  0  0  0
   42.6700   34.5940   35.7100 H   0  0  0  0  0  0  0  0  0  0  0  0
   40.2200   25.9500   43.5810 C   0  0  0  0  0  0  0  0  0  0  0  0
   40.5160   25.9270   44.6440 H   0  0  0  0  0  0  0  0  0  0  0  0
   41.1270   26.1090   42.9820 H   0  0  0  0  0  0  0  0  0  0  0  0
   39.6570   24.6260   43.2090 C   0  0  0  0  0  0  0  0  0  0  0  0
   40.4990   23.8820   43.2990 H   0  0  0  0  0  0  0  0  0  0  0  0
   38.9230   24.3310   43.9920 H   0  0  0  0  0  0  0  0  0  0  0  0
   39.7010   24.6130   40.6500 C   0  0  0  0  0  0  0  0  0  0  0  0
   39.0990   24.4890   41.8830 C   0  0  0  0  0  0  0  0  0  0  0  0
   37.7340   24.1820   41.8590 C   0  0  0  0  0  0  0  0  0  0  0  0
   37.0530   24.0180   40.6800 C   0  0  0  0  0  0  0  0  0  0  0  0
   35.7690   23.7270   40.3600 N   0  0  0  0  0  0  0  0  0  0  0  0
   35.5960   23.6760   39.0390 C   0  0  0  0  0  0  0  0  0  0  0  0
   36.8160   23.9450   38.4240 C   0  0  0  0  0  0  0  0  0  0  0  0
   37.6660   24.1450   39.4690 C   0  0  0  0  0  0  0  0  0  0  0  0
   39.0130   24.4470   39.4780 C   0  0  0  0  0  0  0  0  0  0  0  0
   40.7680   24.8530   40.7080 H   0  0  0  0  0  0  0  0  0  0  0  0
   37.1350   24.0550   42.7560 H   0  0  0  0  0  0  0  0  0  0  0  0
   35.0190   23.5650   41.0860 H   0  0  0  0  0  0  0  0  0  0  0  0
   34.6490   23.4590   38.5570 H   0  0  0  0  0  0  0  0  0  0  0  0
   36.9500   23.9650   37.3700 H   0  0  0  0  0  0  0  0  0  0  0  0
   39.7410   24.5990   38.2170 C   0  0  0  0  0  0  0  0  0  0  0  0
   39.8590   25.7110   37.6460 O   0  0  0  0  0  0  0  0  0  0  0  0
   40.2070   23.7410   37.7320 H   0  0  0  0  0  0  0  0  0  0  0  0
  1  2  1  0  0  0  0
  2  6  1  0  0  0  0
  2  3  2  0  0  0  0
  3  7  1  0  0  0  0
  4 30  1  0  0  0  0
  4  3  1  0  0  0  0
  5  1  2  0  0  0  0
  5  4  1  0  0  0  0
  8 14  1  0  0  0  0
  8 13  1  0  0  0  0
  9  8  2  0  0  0  0
 10  9  1  0  0  0  0
 10 11  2  0  0  0  0
 11 12  1  0  0  0  0
 12 13  2  0  0  0  0
 12  1  1  0  0  0  0
 15  9  1  0  0  0  0
 16 26  1  0  0  0  0
 16 10  1  0  0  0  0
 17 16  1  0  0  0  0
 18 17  1  0  0  0  0
 19 17  2  0  0  0  0
 19 20  1  0  0  0  0
 20 26  1  0  0  0  0
 21 20  2  0  0  0  0
 21 22  1  0  0  0  0
 22 23  2  0  0  0  0
 23 25  1  0  0  0  0
 23 24  1  0  0  0  0
 26 25  2  0  0  0  0
 27 28  1  0  0  0  0
 27 21  1  0  0  0  0
 29 27  1  0  0  0  0
 30 31  1  0  0  0  0
 32 30  1  0  0  0  0
 33 34  1  0  0  0  0
 33 30  1  0  0  0  0
 33 35  1  0  0  0  0
 36 45  1  0  0  0  0
 36 37  1  0  0  0  0
 37 33  1  0  0  0  0
 38 37  2  0  0  0  0
 38 46  1  0  0  0  0
 39 38  1  0  0  0  0
 40 39  1  0  0  0  0
 40 47  1  0  0  0  0
 41 40  1  0  0  0  0
 42 41  2  0  0  0  0
 42 43  1  0  0  0  0
 43 44  1  0  0  0  0
 43 39  2  0  0  0  0
 44 36  2  0  0  0  0
 48 41  1  0  0  0  0
 49 42  1  0  0  0  0
 50 44  1  0  0  0  0
 51 50  2  0  0  0  0
 52 50  1  0  0  0  0
M  END
>  <minimizedAffinity>
-7.4371891

$$$$

 OpenBabel03252506303D

 52 57  0  0  0  0  0  0  0  0999 V2000
   38.7320   31.7920   39.2920 C   0  0  0  0  0  0  0  0  0  0  0  0
   37.6970   31.6800   38.3380 C   0  0  0  0  0  0  0  0  0  0  0  0
   36.6810   30.9730   38.8810 C   0  0  0  0  0  0  0  0  0  0  0  0
   37.0720   30.6580   40.1250 N   0  0  0  0  0  0  0  0  0  0  0  0
   38.2900   31.1400   40.3800 N   0  0  0  0  0  0  0  0  0  0  0  0
   37.6400   32.0680   37.3100 H   0  0  0  0  0  0  0  0  0  0  0  0
   35.7250   30.7040   38.4110 H   0  0  0  0  0  0  0  0  0  0  0  0
   41.7070   33.0470   37.5860 C   0  0  0  0  0  0  0  0  0  0  0  0
   42.3480   33.7860   38.5780 C   0  0  0  0  0  0  0  0  0  0  0  0
   41.7450   33.8440   39.8330 C   0  0  0  0  0  0  0  0  0  0  0  0
   40.5880   33.1900   40.0110 N   0  0  0  0  0  0  0  0  0  0  0  0
   39.9760   32.4820   39.0610 C   0  0  0  0  0  0  0  0  0  0  0  0
   40.5510   32.4190   37.8420 N   0  0  0  0  0  0  0  0  0  0  0  0
   42.1270   32.9620   36.5830 H   0  0  0  0  0  0  0  0  0  0  0  0
   43.2810   34.2960   38.3810 H   0  0  0  0  0  0  0  0  0  0  0  0
   42.3340   34.5780   40.9010 N   0  0  0  0  0  0  0  0  0  0  0  0
   41.9680   35.8130   41.2730 C   0  0  0  0  0  0  0  0  0  0  0  0
   41.1740   36.4140   40.8060 H   0  0  0  0  0  0  0  0  0  0  0  0
   42.7250   36.2220   42.3170 N   0  0  0  0  0  0  0  0  0  0  0  0
   43.5770   35.2410   42.6130 C   0  0  0  0  0  0  0  0  0  0  0  0
   44.5590   35.1350   43.5800 C   0  0  0  0  0  0  0  0  0  0  0  0
   45.2740   33.9790   43.6240 N   0  0  0  0  0  0  0  0  0  0  0  0
   45.0290   32.9690   42.7480 C   0  0  0  0  0  0  0  0  0  0  0  0
   45.6550   32.0700   42.8560 H   0  0  0  0  0  0  0  0  0  0  0  0
   44.0680   33.1000   41.8170 N   0  0  0  0  0  0  0  0  0  0  0  0
   43.3310   34.1960   41.7150 C   0  0  0  0  0  0  0  0  0  0  0  0
   44.7750   36.2240   44.4730 N   0  0  0  0  0  0  0  0  0  0  0  0
   45.6150   36.6200   43.9970 H   0  0  0  0  0  0  0  0  0  0  0  0
   44.3070   36.5810   45.3350 H   0  0  0  0  0  0  0  0  0  0  0  0
   36.2870   29.8940   41.0870 C   0  0  0  0  0  0  0  0  0  0  0  0
   35.9220   28.9470   40.6520 H   0  0  0  0  0  0  0  0  0  0  0  0
   35.4120   30.4750   41.4100 H   0  0  0  0  0  0  0  0  0  0  0  0
   37.0990   29.5870   42.2920 C   0  0  0  0  0  0  0  0  0  0  0  0
   37.9570   30.3180   42.2960 H   0  0  0  0  0  0  0  0  0  0  0  0
   36.4940   29.8440   43.1910 H   0  0  0  0  0  0  0  0  0  0  0  0
   38.7540   27.8130   43.1070 C   0  0  0  0  0  0  0  0  0  0  0  0
   37.6620   28.2600   42.3950 C   0  0  0  0  0  0  0  0  0  0  0  0
   36.9860   27.2860   41.6540 C   0  0  0  0  0  0  0  0  0  0  0  0
   37.3920   25.9760   41.6440 C   0  0  0  0  0  0  0  0  0  0  0  0
   36.9450   24.8500   41.0380 N   0  0  0  0  0  0  0  0  0  0  0  0
   37.7010   23.7960   41.3520 C   0  0  0  0  0  0  0  0  0  0  0  0
   38.7110   24.2180   42.2110 C   0  0  0  0  0  0  0  0  0  0  0  0
   38.4750   25.5520   42.3540 C   0  0  0  0  0  0  0  0  0  0  0  0
   39.1520   26.5030   43.0920 C   0  0  0  0  0  0  0  0  0  0  0  0
   39.2580   28.6020   43.6750 H   0  0  0  0  0  0  0  0  0  0  0  0
   36.1100   27.4980   41.0480 H   0  0  0  0  0  0  0  0  0  0  0  0
   36.1020   24.8350   40.4030 H   0  0  0  0  0  0  0  0  0  0  0  0
   37.5270   22.7920   40.9810 H   0  0  0  0  0  0  0  0  0  0  0  0
   39.4510   23.5680   42.6110 H   0  0  0  0  0  0  0  0  0  0  0  0
   40.3250   26.1240   43.8820 C   0  0  0  0  0  0  0  0  0  0  0  0
   41.0750   26.9800   44.4120 O   0  0  0  0  0  0  0  0  0  0  0  0
   40.5850   25.0760   44.0330 H   0  0  0  0  0  0  0  0  0  0  0  0
  1  5  2  0  0  0  0
  2  3  2  0  0  0  0
  2  1  1  0  0  0  0
  3  4  1  0  0  0  0
  4  5  1  0  0  0  0
  4 30  1  0  0  0  0
  6  2  1  0  0  0  0
  7  3  1  0  0  0  0
  8 13  2  0  0  0  0
  8  9  1  0  0  0  0
  9 10  2  0  0  0  0
 10 11  1  0  0  0  0
 10 16  1  0  0  0  0
 12  1  1  0  0  0  0
 12 11  2  0  0  0  0
 13 12  1  0  0  0  0
 14  8  1  0  0  0  0
 15  9  1  0  0  0  0
 16 17  1  0  0  0  0
 16 26  1  0  0  0  0
 17 19  2  0  0  0  0
 18 17  1  0  0  0  0
 19 20  1  0  0  0  0
 20 21  1  0  0  0  0
 21 22  2  0  0  0  0
 21 27  1  0  0  0  0
 23 24  1  0  0  0  0
 23 22  1  0  0  0  0
 25 23  2  0  0  0  0
 26 25  1  0  0  0  0
 26 20  2  0  0  0  0
 27 29  1  0  0  0  0
 28 27  1  0  0  0  0
 30 32  1  0  0  0  0
 30 33  1  0  0  0  0
 31 30  1  0  0  0  0
 33 34  1  0  0  0  0
 33 37  1  0  0  0  0
 33 35  1  0  0  0  0
 36 45  1  0  0  0  0
 37 36  2  0  0  0  0
 38 37  1  0  0  0  0
 39 38  2  0  0  0  0
 39 43  1  0  0  0  0
 40 41  1  0  0  0  0
 40 39  1  0  0  0  0
 41 42  2  0  0  0  0
 42 43  1  0  0  0  0
 42 49  1  0  0  0  0
 43 44  2  0  0  0  0
 44 36  1  0  0  0  0
 44 50  1  0  0  0  0
 46 38  1  0  0  0  0
 47 40  1  0  0  0  0
 48 41  1  0  0  0  0
 50 52  1  0  0  0  0
 50 51  2  0  0  0  0
M  END
>  <minimizedAffinity>
-7.36183739

$$$$

 OpenBabel03252506303D

 52 57  0  0  0  0  0  0  0  0999 V2000
   42.3520   32.2040   41.9640 C   0  0  0  0  0  0  0  0  0  0  0  0
   42.9540   33.4710   41.8120 C   0  0  0  0  0  0  0  0  0  0  0  0
   42.2910   34.1540   40.8520 C   0  0  0  0  0  0  0  0  0  0  0  0
   41.3140   33.3400   40.4250 N   0  0  0  0  0  0  0  0  0  0  0  0
   41.3400   32.1780   41.0800 N   0  0  0  0  0  0  0  0  0  0  0  0
   43.8150   33.9110   42.3380 H   0  0  0  0  0  0  0  0  0  0  0  0
   42.4990   35.1690   40.4860 H   0  0  0  0  0  0  0  0  0  0  0  0
   44.1300   30.6370   44.7420 C   0  0  0  0  0  0  0  0  0  0  0  0
   43.6670   29.3240   44.7100 C   0  0  0  0  0  0  0  0  0  0  0  0
   42.7410   28.9890   43.7240 C   0  0  0  0  0  0  0  0  0  0  0  0
   42.3510   29.9450   42.8690 N   0  0  0  0  0  0  0  0  0  0  0  0
   42.7960   31.2030   42.9020 C   0  0  0  0  0  0  0  0  0  0  0  0
   43.6920   31.5380   43.8520 N   0  0  0  0  0  0  0  0  0  0  0  0
   44.8560   30.9640   45.4890 H   0  0  0  0  0  0  0  0  0  0  0  0
   44.0150   28.5900   45.4240 H   0  0  0  0  0  0  0  0  0  0  0  0
   42.2180   27.6690   43.6210 N   0  0  0  0  0  0  0  0  0  0  0  0
   42.9490   26.5480   43.7190 C   0  0  0  0  0  0  0  0  0  0  0  0
   44.0340   26.5040   43.8890 H   0  0  0  0  0  0  0  0  0  0  0  0
   42.1510   25.4660   43.5750 N   0  0  0  0  0  0  0  0  0  0  0  0
   40.9050   25.8990   43.3870 C   0  0  0  0  0  0  0  0  0  0  0  0
   39.7140   25.2230   43.1890 C   0  0  0  0  0  0  0  0  0  0  0  0
   38.5900   25.9690   43.0230 N   0  0  0  0  0  0  0  0  0  0  0  0
   38.6380   27.3260   43.0520 C   0  0  0  0  0  0  0  0  0  0  0  0
   37.6800   27.8490   42.9090 H   0  0  0  0  0  0  0  0  0  0  0  0
   39.8090   27.9580   43.2460 N   0  0  0  0  0  0  0  0  0  0  0  0
   40.9450   27.2970   43.4150 C   0  0  0  0  0  0  0  0  0  0  0  0
   39.7200   23.7990   43.1670 N   0  0  0  0  0  0  0  0  0  0  0  0
   39.6880   23.6820   42.1310 H   0  0  0  0  0  0  0  0  0  0  0  0
   39.7460   23.0450   43.8890 H   0  0  0  0  0  0  0  0  0  0  0  0
   40.3420   33.6620   39.3880 C   0  0  0  0  0  0  0  0  0  0  0  0
   40.4170   32.9690   38.5320 H   0  0  0  0  0  0  0  0  0  0  0  0
   40.5110   34.6810   39.0120 H   0  0  0  0  0  0  0  0  0  0  0  0
   38.9620   33.6030   39.9350 C   0  0  0  0  0  0  0  0  0  0  0  0
   39.0620   33.5460   41.0560 H   0  0  0  0  0  0  0  0  0  0  0  0
   38.4700   34.5820   39.7360 H   0  0  0  0  0  0  0  0  0  0  0  0
   38.0120   31.8890   38.2880 C   0  0  0  0  0  0  0  0  0  0  0  0
   38.1280   32.4980   39.5180 C   0  0  0  0  0  0  0  0  0  0  0  0
   37.3170   31.9730   40.5300 C   0  0  0  0  0  0  0  0  0  0  0  0
   36.4670   30.9220   40.2990 C   0  0  0  0  0  0  0  0  0  0  0  0
   35.5900   30.2270   41.0630 N   0  0  0  0  0  0  0  0  0  0  0  0
   34.9850   29.2690   40.3600 C   0  0  0  0  0  0  0  0  0  0  0  0
   35.4670   29.3080   39.0550 C   0  0  0  0  0  0  0  0  0  0  0  0
   36.3650   30.3320   39.0740 C   0  0  0  0  0  0  0  0  0  0  0  0
   37.1610   30.8400   38.0670 C   0  0  0  0  0  0  0  0  0  0  0  0
   38.6610   32.3260   37.5220 H   0  0  0  0  0  0  0  0  0  0  0  0
   37.3060   32.3560   41.5460 H   0  0  0  0  0  0  0  0  0  0  0  0
   35.4260   30.4370   42.0840 H   0  0  0  0  0  0  0  0  0  0  0  0
   34.2450   28.5900   40.7690 H   0  0  0  0  0  0  0  0  0  0  0  0
   35.1440   28.6450   38.2890 H   0  0  0  0  0  0  0  0  0  0  0  0
   37.1090   30.2590   36.7240 C   0  0  0  0  0  0  0  0  0  0  0  0
   37.6640   29.1670   36.4500 O   0  0  0  0  0  0  0  0  0  0  0  0
   36.5810   30.7630   35.9150 H   0  0  0  0  0  0  0  0  0  0  0  0
  1 12  1  0  0  0  0
  2  1  1  0  0  0  0
  2  6  1  0  0  0  0
  3  2  2  0  0  0  0
  4  3  1  0  0  0  0
  4  5  1  0  0  0  0
  5  1  2  0  0  0  0
  7  3  1  0  0  0  0
  8 14  1  0  0  0  0
  9  8  1  0  0  0  0
  9 15  1  0  0  0  0
 10  9  2  0  0  0  0
 11 12  2  0  0  0  0
 11 10  1  0  0  0  0
 12 13  1  0  0  0  0
 13  8  2  0  0  0  0
 16 17  1  0  0  0  0
 16 10  1  0  0  0  0
 17 18  1  0  0  0  0
 19 17  2  0  0  0  0
 20 26  1  0  0  0  0
 20 19  1  0  0  0  0
 21 20  2  0  0  0  0
 22 23  2  0  0  0  0
 22 21  1  0  0  0  0
 23 25  1  0  0  0  0
 24 23  1  0  0  0  0
 25 26  2  0  0  0  0
 26 16  1  0  0  0  0
 27 21  1  0  0  0  0
 27 29  1  0  0  0  0
 28 27  1  0  0  0  0
 30 33  1  0  0  0  0
 30  4  1  0  0  0  0
 31 30  1  0  0  0  0
 32 30  1  0  0  0  0
 33 34  1  0  0  0  0
 35 33  1  0  0  0  0
 36 37  1  0  0  0  0
 37 33  1  0  0  0  0
 37 38  2  0  0  0  0
 38 46  1  0  0  0  0
 39 38  1  0  0  0  0
 39 40  1  0  0  0  0
 40 47  1  0  0  0  0
 41 48  1  0  0  0  0
 41 40  1  0  0  0  0
 42 43  1  0  0  0  0
 42 41  2  0  0  0  0
 43 39  2  0  0  0  0
 44 36  2  0  0  0  0
 44 43  1  0  0  0  0
 45 36  1  0  0  0  0
 49 42  1  0  0  0  0
 50 44  1  0  0  0  0
 51 50  2  0  0  0  0
 52 50  1  0  0  0  0
M  END
>  <minimizedAffinity>
-7.28890848

$$$$

 OpenBabel03252506303D

 52 57  0  0  0  0  0  0  0  0999 V2000
   38.3110   28.7190   42.3300 C   0  0  0  0  0  0  0  0  0  0  0  0
   37.5430   28.3270   43.4480 C   0  0  0  0  0  0  0  0  0  0  0  0
   38.1500   27.2770   44.0440 C   0  0  0  0  0  0  0  0  0  0  0  0
   39.2520   27.0250   43.3210 N   0  0  0  0  0  0  0  0  0  0  0  0
   39.3580   27.8770   42.3000 N   0  0  0  0  0  0  0  0  0  0  0  0
   36.6040   28.7460   43.8410 H   0  0  0  0  0  0  0  0  0  0  0  0
   37.8190   26.7300   44.9380 H   0  0  0  0  0  0  0  0  0  0  0  0
   36.3530   31.3210   40.6760 C   0  0  0  0  0  0  0  0  0  0  0  0
   37.2710   31.8920   39.7980 C   0  0  0  0  0  0  0  0  0  0  0  0
   38.5640   31.3710   39.7830 C   0  0  0  0  0  0  0  0  0  0  0  0
   38.8470   30.3560   40.6120 N   0  0  0  0  0  0  0  0  0  0  0  0
   37.9670   29.8100   41.4530 C   0  0  0  0  0  0  0  0  0  0  0  0
   36.7130   30.3070   41.4750 N   0  0  0  0  0  0  0  0  0  0  0  0
   35.3260   31.6830   40.7370 H   0  0  0  0  0  0  0  0  0  0  0  0
   36.9900   32.7110   39.1490 H   0  0  0  0  0  0  0  0  0  0  0  0
   39.5610   31.8970   38.9150 N   0  0  0  0  0  0  0  0  0  0  0  0
   39.9750   31.3100   37.7820 C   0  0  0  0  0  0  0  0  0  0  0  0
   39.6010   30.3570   37.3810 H   0  0  0  0  0  0  0  0  0  0  0  0
   40.9300   32.0670   37.1950 N   0  0  0  0  0  0  0  0  0  0  0  0
   41.1250   33.1420   37.9570 C   0  0  0  0  0  0  0  0  0  0  0  0
   41.9770   34.2240   37.8230 C   0  0  0  0  0  0  0  0  0  0  0  0
   41.9370   35.1770   38.7920 N   0  0  0  0  0  0  0  0  0  0  0  0
   41.0920   35.0660   39.8500 C   0  0  0  0  0  0  0  0  0  0  0  0
   41.1260   35.8840   40.5870 H   0  0  0  0  0  0  0  0  0  0  0  0
   40.2750   34.0030   39.9550 N   0  0  0  0  0  0  0  0  0  0  0  0
   40.2580   33.0360   39.0500 C   0  0  0  0  0  0  0  0  0  0  0  0
   42.8430   34.2900   36.6940 N   0  0  0  0  0  0  0  0  0  0  0  0
   43.7110   33.9650   37.1750 H   0  0  0  0  0  0  0  0  0  0  0  0
   42.7370   34.5600   35.6920 H   0  0  0  0  0  0  0  0  0  0  0  0
   40.2180   25.9700   43.5980 C   0  0  0  0  0  0  0  0  0  0  0  0
   40.5060   25.9520   44.6640 H   0  0  0  0  0  0  0  0  0  0  0  0
   41.1310   26.1270   43.0060 H   0  0  0  0  0  0  0  0  0  0  0  0
   39.6590   24.6450   43.2280 C   0  0  0  0  0  0  0  0  0  0  0  0
   40.5090   23.9070   43.2930 H   0  0  0  0  0  0  0  0  0  0  0  0
   38.9450   24.3370   44.0240 H   0  0  0  0  0  0  0  0  0  0  0  0
   37.7700   24.2620   41.5440 C   0  0  0  0  0  0  0  0  0  0  0  0
   39.0740   24.5130   41.9130 C   0  0  0  0  0  0  0  0  0  0  0  0
   39.9800   24.6670   40.8580 C   0  0  0  0  0  0  0  0  0  0  0  0
   39.5850   24.5720   39.5480 C   0  0  0  0  0  0  0  0  0  0  0  0
   40.2210   24.6720   38.3570 N   0  0  0  0  0  0  0  0  0  0  0  0
   39.3780   24.4970   37.3380 C   0  0  0  0  0  0  0  0  0  0  0  0
   38.1060   24.2660   37.8540 C   0  0  0  0  0  0  0  0  0  0  0  0
   38.2900   24.3220   39.2020 C   0  0  0  0  0  0  0  0  0  0  0  0
   37.3850   24.1690   40.2330 C   0  0  0  0  0  0  0  0  0  0  0  0
   37.0900   24.1480   42.3940 H   0  0  0  0  0  0  0  0  0  0  0  0
   41.0370   24.8680   41.0040 H   0  0  0  0  0  0  0  0  0  0  0  0
   41.2560   24.8660   38.2730 H   0  0  0  0  0  0  0  0  0  0  0  0
   39.6690   24.5360   36.2940 H   0  0  0  0  0  0  0  0  0  0  0  0
   37.2490   24.0960   37.2480 H   0  0  0  0  0  0  0  0  0  0  0  0
   35.9750   23.8990   39.9410 C   0  0  0  0  0  0  0  0  0  0  0  0
   35.5730   22.7610   39.5960 O   0  0  0  0  0  0  0  0  0  0  0  0
   35.2270   24.6890   40.0140 H   0  0  0  0  0  0  0  0  0  0  0  0
  1  2  1  0  0  0  0
  2  6  1  0  0  0  0
  2  3  2  0  0  0  0
  3  7  1  0  0  0  0
  4 30  1  0  0  0  0
  4  3  1  0  0  0  0
  5  1  2  0  0  0  0
  5  4  1  0  0  0  0
  8 14  1  0  0  0  0
  8 13  1  0  0  0  0
  9  8  2  0  0  0  0
 10  9  1  0  0  0  0
 10 11  2  0  0  0  0
 11 12  1  0  0  0  0
 12 13  2  0  0  0  0
 12  1  1  0  0  0  0
 15  9  1  0  0  0  0
 16 26  1  0  0  0  0
 16 10  1  0  0  0  0
 17 16  1  0  0  0  0
 18 17  1  0  0  0  0
 19 17  2  0  0  0  0
 19 20  1  0  0  0  0
 20 26  1  0  0  0  0
 21 20  2  0  0  0  0
 21 22  1  0  0  0  0
 22 23  2  0  0  0  0
 23 25  1  0  0  0  0
 23 24  1  0  0  0  0
 26 25  2  0  0  0  0
 27 28  1  0  0  0  0
 27 21  1  0  0  0  0
 29 27  1  0  0  0  0
 30 31  1  0  0  0  0
 32 30  1  0  0  0  0
 33 34  1  0  0  0  0
 33 30  1  0  0  0  0
 33 35  1  0  0  0  0
 36 37  1  0  0  0  0
 36 45  1  0  0  0  0
 37 33  1  0  0  0  0
 38 46  1  0  0  0  0
 38 37  2  0  0  0  0
 39 38  1  0  0  0  0
 40 39  1  0  0  0  0
 41 42  2  0  0  0  0
 41 40  1  0  0  0  0
 42 43  1  0  0  0  0
 43 39  2  0  0  0  0
 43 44  1  0  0  0  0
 44 36  2  0  0  0  0
 47 40  1  0  0  0  0
 48 41  1  0  0  0  0
 49 42  1  0  0  0  0
 50 52  1  0  0  0  0
 50 44  1  0  0  0  0
 51 50  2  0  0  0  0
M  END
>  <minimizedAffinity>
-7.28430796

$$$$

 OpenBabel03252506303D

 52 57  0  0  0  0  0  0  0  0999 V2000
   38.3420   29.0290   42.5310 C   0  0  0  0  0  0  0  0  0  0  0  0
   37.4950   28.3710   43.4490 C   0  0  0  0  0  0  0  0  0  0  0  0
   38.1970   27.3900   44.0590 C   0  0  0  0  0  0  0  0  0  0  0  0
   39.4320   27.4370   43.5370 N   0  0  0  0  0  0  0  0  0  0  0  0
   39.5290   28.4090   42.6280 N   0  0  0  0  0  0  0  0  0  0  0  0
   36.4380   28.5560   43.6920 H   0  0  0  0  0  0  0  0  0  0  0  0
   37.8410   26.6890   44.8270 H   0  0  0  0  0  0  0  0  0  0  0  0
   36.2000   31.3170   40.6540 C   0  0  0  0  0  0  0  0  0  0  0  0
   37.1090   32.2250   40.1160 C   0  0  0  0  0  0  0  0  0  0  0  0
   38.4590   32.0390   40.4060 C   0  0  0  0  0  0  0  0  0  0  0  0
   38.8030   31.0020   41.1830 N   0  0  0  0  0  0  0  0  0  0  0  0
   37.9320   30.1330   41.6980 C   0  0  0  0  0  0  0  0  0  0  0  0
   36.6230   30.3040   41.4230 N   0  0  0  0  0  0  0  0  0  0  0  0
   35.1290   31.4070   40.4650 H   0  0  0  0  0  0  0  0  0  0  0  0
   36.7780   33.0450   39.4940 H   0  0  0  0  0  0  0  0  0  0  0  0
   39.4520   32.9210   39.8950 N   0  0  0  0  0  0  0  0  0  0  0  0
   39.6610   34.1720   40.3340 C   0  0  0  0  0  0  0  0  0  0  0  0
   39.0980   34.6720   41.1350 H   0  0  0  0  0  0  0  0  0  0  0  0
   40.6740   34.7390   39.6400 N   0  0  0  0  0  0  0  0  0  0  0  0
   41.1140   33.8440   38.7550 C   0  0  0  0  0  0  0  0  0  0  0  0
   42.1210   33.9030   37.8090 C   0  0  0  0  0  0  0  0  0  0  0  0
   42.3270   32.7980   37.0430 N   0  0  0  0  0  0  0  0  0  0  0  0
   41.5700   31.6810   37.2050 C   0  0  0  0  0  0  0  0  0  0  0  0
   41.8060   30.8350   36.5420 H   0  0  0  0  0  0  0  0  0  0  0  0
   40.5980   31.6520   38.1330 N   0  0  0  0  0  0  0  0  0  0  0  0
   40.3400   32.6900   38.9160 C   0  0  0  0  0  0  0  0  0  0  0  0
   42.8850   35.0990   37.6810 N   0  0  0  0  0  0  0  0  0  0  0  0
   42.3940   35.4790   36.8420 H   0  0  0  0  0  0  0  0  0  0  0  0
   43.6800   35.5300   38.2000 H   0  0  0  0  0  0  0  0  0  0  0  0
   40.5350   26.5570   43.9020 C   0  0  0  0  0  0  0  0  0  0  0  0
   40.8260   26.6880   44.9590 H   0  0  0  0  0  0  0  0  0  0  0  0
   41.4150   26.7750   43.2810 H   0  0  0  0  0  0  0  0  0  0  0  0
   40.1610   25.1370   43.6770 C   0  0  0  0  0  0  0  0  0  0  0  0
   41.0840   24.5250   43.8880 H   0  0  0  0  0  0  0  0  0  0  0  0
   39.4310   24.8440   44.4650 H   0  0  0  0  0  0  0  0  0  0  0  0
   38.5180   24.1650   41.9730 C   0  0  0  0  0  0  0  0  0  0  0  0
   39.6920   24.7730   42.3600 C   0  0  0  0  0  0  0  0  0  0  0  0
   40.5760   25.0920   41.3230 C   0  0  0  0  0  0  0  0  0  0  0  0
   40.2810   24.8120   40.0130 C   0  0  0  0  0  0  0  0  0  0  0  0
   40.9240   25.0000   38.8360 N   0  0  0  0  0  0  0  0  0  0  0  0
   40.2040   24.5450   37.8090 C   0  0  0  0  0  0  0  0  0  0  0  0
   39.0130   24.0210   38.3040 C   0  0  0  0  0  0  0  0  0  0  0  0
   39.1130   24.2100   39.6490 C   0  0  0  0  0  0  0  0  0  0  0  0
   38.2310   23.8900   40.6630 C   0  0  0  0  0  0  0  0  0  0  0  0
   37.8520   23.9310   42.8100 H   0  0  0  0  0  0  0  0  0  0  0  0
   41.5360   25.5720   41.4830 H   0  0  0  0  0  0  0  0  0  0  0  0
   41.8760   25.4530   38.7670 H   0  0  0  0  0  0  0  0  0  0  0  0
   40.5240   24.5920   36.7740 H   0  0  0  0  0  0  0  0  0  0  0  0
   38.2590   23.5930   37.6890 H   0  0  0  0  0  0  0  0  0  0  0  0
   36.9560   23.2420   40.3510 C   0  0  0  0  0  0  0  0  0  0  0  0
   35.8840   23.8900   40.2670 O   0  0  0  0  0  0  0  0  0  0  0  0
   36.9000   22.1670   40.1830 H   0  0  0  0  0  0  0  0  0  0  0  0
  1  5  2  0  0  0  0
  1  2  1  0  0  0  0
  2  6  1  0  0  0  0
  2  3  2  0  0  0  0
  3  7  1  0  0  0  0
  4 30  1  0  0  0  0
  4  3  1  0  0  0  0
  5  4  1  0  0  0  0
  8 13  1  0  0  0  0
  9 10  1  0  0  0  0
  9  8  2  0  0  0  0
 10 11  2  0  0  0  0
 11 12  1  0  0  0  0
 12  1  1  0  0  0  0
 13 12  2  0  0  0  0
 14  8  1  0  0  0  0
 15  9  1  0  0  0  0
 16 17  1  0  0  0  0
 16 10  1  0  0  0  0
 17 18  1  0  0  0  0
 19 17  2  0  0  0  0
 20 26  1  0  0  0  0
 20 19  1  0  0  0  0
 21 20  2  0  0  0  0
 22 23  2  0  0  0  0
 22 21  1  0  0  0  0
 23 25  1  0  0  0  0
 24 23  1  0  0  0  0
 25 26  2  0  0  0  0
 26 16  1  0  0  0  0
 27 21  1  0  0  0  0
 27 29  1  0  0  0  0
 28 27  1  0  0  0  0
 30 31  1  0  0  0  0
 32 30  1  0  0  0  0
 33 34  1  0  0  0  0
 33 30  1  0  0  0  0
 33 35  1  0  0  0  0
 36 37  1  0  0  0  0
 36 45  1  0  0  0  0
 37 33  1  0  0  0  0
 38 46  1  0  0  0  0
 38 37  2  0  0  0  0
 39 38  1  0  0  0  0
 40 39  1  0  0  0  0
 41 42  2  0  0  0  0
 41 40  1  0  0  0  0
 42 43  1  0  0  0  0
 43 39  2  0  0  0  0
 43 44  1  0  0  0  0
 44 36  2  0  0  0  0
 47 40  1  0  0  0  0
 48 41  1  0  0  0  0
 49 42  1  0  0  0  0
 50 44  1  0  0  0  0
 51 50  2  0  0  0  0
 52 50  1  0  0  0  0
M  END
>  <minimizedAffinity>
-7.2725215

$$$$

 OpenBabel03252506303D

 52 57  0  0  0  0  0  0  0  0999 V2000
   40.7300   28.3490   42.8870 C   0  0  0  0  0  0  0  0  0  0  0  0
   40.5700   27.0460   43.4060 C   0  0  0  0  0  0  0  0  0  0  0  0
   39.2650   26.8540   43.7000 C   0  0  0  0  0  0  0  0  0  0  0  0
   38.6390   27.9950   43.3750 N   0  0  0  0  0  0  0  0  0  0  0  0
   39.5010   28.8910   42.8900 N   0  0  0  0  0  0  0  0  0  0  0  0
   41.3180   26.2580   43.5770 H   0  0  0  0  0  0  0  0  0  0  0  0
   38.7970   25.9520   44.1190 H   0  0  0  0  0  0  0  0  0  0  0  0
   44.3060   29.0860   42.7850 C   0  0  0  0  0  0  0  0  0  0  0  0
   44.4180   29.9370   41.6890 C   0  0  0  0  0  0  0  0  0  0  0  0
   43.2540   30.2530   40.9910 C   0  0  0  0  0  0  0  0  0  0  0  0
   42.0980   29.7190   41.4140 N   0  0  0  0  0  0  0  0  0  0  0  0
   41.9920   28.9030   42.4640 C   0  0  0  0  0  0  0  0  0  0  0  0
   43.1130   28.5920   43.1460 N   0  0  0  0  0  0  0  0  0  0  0  0
   45.1800   28.8000   43.3730 H   0  0  0  0  0  0  0  0  0  0  0  0
   45.3760   30.3410   41.3900 H   0  0  0  0  0  0  0  0  0  0  0  0
   43.2820   31.1160   39.8600 N   0  0  0  0  0  0  0  0  0  0  0  0
   43.9660   30.8750   38.7320 C   0  0  0  0  0  0  0  0  0  0  0  0
   44.5870   29.9890   38.5370 H   0  0  0  0  0  0  0  0  0  0  0  0
   43.7820   31.8900   37.8570 N   0  0  0  0  0  0  0  0  0  0  0  0
   42.9750   32.7820   38.4310 C   0  0  0  0  0  0  0  0  0  0  0  0
   42.4710   33.9900   37.9830 C   0  0  0  0  0  0  0  0  0  0  0  0
   41.6570   34.6800   38.8260 N   0  0  0  0  0  0  0  0  0  0  0  0
   41.3530   34.1980   40.0590 C   0  0  0  0  0  0  0  0  0  0  0  0
   40.6870   34.8230   40.6740 H   0  0  0  0  0  0  0  0  0  0  0  0
   41.8580   33.0210   40.4690 N   0  0  0  0  0  0  0  0  0  0  0  0
   42.6570   32.2930   39.7030 C   0  0  0  0  0  0  0  0  0  0  0  0
   42.8220   34.4490   36.6820 N   0  0  0  0  0  0  0  0  0  0  0  0
   43.5550   35.1310   36.9750 H   0  0  0  0  0  0  0  0  0  0  0  0
   42.5080   34.2360   35.7090 H   0  0  0  0  0  0  0  0  0  0  0  0
   37.2110   28.2440   43.5220 C   0  0  0  0  0  0  0  0  0  0  0  0
   37.0100   29.2860   43.8270 H   0  0  0  0  0  0  0  0  0  0  0  0
   36.7870   27.5820   44.2890 H   0  0  0  0  0  0  0  0  0  0  0  0
   36.5030   27.9720   42.2450 C   0  0  0  0  0  0  0  0  0  0  0  0
   36.7950   26.9300   41.9310 H   0  0  0  0  0  0  0  0  0  0  0  0
   35.4120   27.9160   42.4600 H   0  0  0  0  0  0  0  0  0  0  0  0
   37.1500   28.5560   39.8380 C   0  0  0  0  0  0  0  0  0  0  0  0
   36.7770   28.8520   41.1310 C   0  0  0  0  0  0  0  0  0  0  0  0
   36.6390   30.2130   41.4220 C   0  0  0  0  0  0  0  0  0  0  0  0
   36.8640   31.1790   40.4750 C   0  0  0  0  0  0  0  0  0  0  0  0
   36.8090   32.5330   40.4700 N   0  0  0  0  0  0  0  0  0  0  0  0
   37.1220   33.0280   39.2720 C   0  0  0  0  0  0  0  0  0  0  0  0
   37.4050   31.9670   38.4170 C   0  0  0  0  0  0  0  0  0  0  0  0
   37.2320   30.8670   39.2000 C   0  0  0  0  0  0  0  0  0  0  0  0
   37.3710   29.5270   38.8990 C   0  0  0  0  0  0  0  0  0  0  0  0
   37.2470   27.4820   39.6470 H   0  0  0  0  0  0  0  0  0  0  0  0
   36.3510   30.5890   42.4000 H   0  0  0  0  0  0  0  0  0  0  0  0
   36.5480   33.1000   41.3220 H   0  0  0  0  0  0  0  0  0  0  0  0
   37.1430   34.0870   39.0390 H   0  0  0  0  0  0  0  0  0  0  0  0
   37.6830   32.0930   37.3980 H   0  0  0  0  0  0  0  0  0  0  0  0
   37.7640   29.1130   37.5500 C   0  0  0  0  0  0  0  0  0  0  0  0
   36.9180   28.8900   36.6500 O   0  0  0  0  0  0  0  0  0  0  0  0
   38.8140   28.9830   37.2870 H   0  0  0  0  0  0  0  0  0  0  0  0
  1  5  2  0  0  0  0
  1  2  1  0  0  0  0
  2  6  1  0  0  0  0
  2  3  2  0  0  0  0
  3  7  1  0  0  0  0
  4 30  1  0  0  0  0
  4  3  1  0  0  0  0
  5  4  1  0  0  0  0
  8 13  1  0  0  0  0
  8 14  1  0  0  0  0
  9  8  2  0  0  0  0
 10 11  2  0  0  0  0
 10  9  1  0  0  0  0
 11 12  1  0  0  0  0
 12  1  1  0  0  0  0
 12 13  2  0  0  0  0
 15  9  1  0  0  0  0
 16 10  1  0  0  0  0
 17 16  1  0  0  0  0
 18 17  1  0  0  0  0
 19 20  1  0  0  0  0
 19 17  2  0  0  0  0
 20 26  1  0  0  0  0
 21 20  2  0  0  0  0
 21 22  1  0  0  0  0
 22 23  2  0  0  0  0
 23 25  1  0  0  0  0
 23 24  1  0  0  0  0
 26 16  1  0  0  0  0
 26 25  2  0  0  0  0
 27 28  1  0  0  0  0
 27 21  1  0  0  0  0
 29 27  1  0  0  0  0
 30 31  1  0  0  0  0
 30 32  1  0  0  0  0
 33 35  1  0  0  0  0
 33 30  1  0  0  0  0
 34 33  1  0  0  0  0
 36 37  1  0  0  0  0
 37 38  2  0  0  0  0
 37 33  1  0  0  0  0
 38 46  1  0  0  0  0
 39 38  1  0  0  0  0
 40 39  1  0  0  0  0
 40 47  1  0  0  0  0
 41 40  1  0  0  0  0
 42 43  1  0  0  0  0
 42 41  2  0  0  0  0
 43 39  2  0  0  0  0
 44 43  1  0  0  0  0
 44 36  2  0  0  0  0
 45 36  1  0  0  0  0
 48 41  1  0  0  0  0
 49 42  1  0  0  0  0
 50 44  1  0  0  0  0
 51 50  2  0  0  0  0
 52 50  1  0  0  0  0
M  END
>  <minimizedAffinity>
-7.23012733

$$$$
