
 OpenBabel03242523193D

 42 46  0  0  0  0  0  0  0  0999 V2000
   43.6740   31.8860   41.3140 Cl  0  0  0  0  0  0  0  0  0  0  0  0
   44.0920   33.4970   41.8910 C   0  0  0  0  0  0  0  0  0  0  0  0
   45.3220   33.5870   42.5790 C   0  0  0  0  0  0  0  0  0  0  0  0
   45.5590   34.8880   42.9960 C   0  0  0  0  0  0  0  0  0  0  0  0
   44.8150   35.9910   42.8310 C   0  0  0  0  0  0  0  0  0  0  0  0
   43.6410   35.8200   42.1540 C   0  0  0  0  0  0  0  0  0  0  0  0
   43.2740   34.6070   41.6890 C   0  0  0  0  0  0  0  0  0  0  0  0
   46.4710   35.1300   43.5830 H   0  0  0  0  0  0  0  0  0  0  0  0
   45.0350   36.9820   43.1670 H   0  0  0  0  0  0  0  0  0  0  0  0
   42.9180   36.5910   41.9280 H   0  0  0  0  0  0  0  0  0  0  0  0
   42.0610   34.2900   40.9610 N   0  0  0  0  0  0  0  0  0  0  0  0
   41.0750   33.4610   41.4010 C   0  0  0  0  0  0  0  0  0  0  0  0
   41.0310   32.9190   42.3330 H   0  0  0  0  0  0  0  0  0  0  0  0
   40.0960   33.4000   40.4620 N   0  0  0  0  0  0  0  0  0  0  0  0
   40.4660   34.1950   39.4240 C   0  0  0  0  0  0  0  0  0  0  0  0
   39.8000   34.4550   38.2420 C   0  0  0  0  0  0  0  0  0  0  0  0
   40.4220   35.3050   37.3740 N   0  0  0  0  0  0  0  0  0  0  0  0
   41.6270   35.8320   37.7130 C   0  0  0  0  0  0  0  0  0  0  0  0
   42.0610   36.4950   36.9810 H   0  0  0  0  0  0  0  0  0  0  0  0
   42.2780   35.5790   38.8690 N   0  0  0  0  0  0  0  0  0  0  0  0
   41.6890   34.7390   39.7540 C   0  0  0  0  0  0  0  0  0  0  0  0
   38.5220   33.8500   37.9640 N   0  0  0  0  0  0  0  0  0  0  0  0
   38.9230   33.0060   37.5400 H   0  0  0  0  0  0  0  0  0  0  0  0
   37.9720   34.6620   38.3740 H   0  0  0  0  0  0  0  0  0  0  0  0
   46.2870   32.4790   42.8440 C   0  0  0  0  0  0  0  0  0  0  0  0
   45.8520   32.1190   43.9100 O   0  0  0  0  0  0  0  0  0  0  0  0
   47.2280   32.4010   41.7180 C   0  0  0  0  0  0  0  0  0  0  0  0
   48.2680   33.2190   41.4950 C   0  0  0  0  0  0  0  0  0  0  0  0
   48.9350   32.9860   40.3050 C   0  0  0  0  0  0  0  0  0  0  0  0
   48.4850   31.9510   39.4660 N   0  0  0  0  0  0  0  0  0  0  0  0
   47.4520   31.1880   39.7630 C   0  0  0  0  0  0  0  0  0  0  0  0
   46.7610   31.3900   40.9380 N   0  0  0  0  0  0  0  0  0  0  0  0
   49.7860   33.5310   39.9450 H   0  0  0  0  0  0  0  0  0  0  0  0
   47.2240   30.4300   39.0230 H   0  0  0  0  0  0  0  0  0  0  0  0
   48.7920   34.1870   42.3900 C   0  0  0  0  0  0  0  0  0  0  0  0
   50.0380   34.7330   42.4130 C   0  0  0  0  0  0  0  0  0  0  0  0
   49.0130   35.6500   41.8020 C   0  0  0  0  0  0  0  0  0  0  0  0
   48.3340   34.1720   43.3980 H   0  0  0  0  0  0  0  0  0  0  0  0
   50.8070   34.3890   41.6700 H   0  0  0  0  0  0  0  0  0  0  0  0
   50.5860   35.2160   43.2600 H   0  0  0  0  0  0  0  0  0  0  0  0
   48.5530   36.4480   42.4120 H   0  0  0  0  0  0  0  0  0  0  0  0
   48.9180   35.6800   40.6980 H   0  0  0  0  0  0  0  0  0  0  0  0
  1  2  1  0  0  0  0
  2  3  1  0  0  0  0
  3 25  1  0  0  0  0
  3  4  2  0  0  0  0
  4  8  1  0  0  0  0
  5  4  1  0  0  0  0
  5  9  1  0  0  0  0
  6  5  2  0  0  0  0
  7  2  2  0  0  0  0
  7  6  1  0  0  0  0
 10  6  1  0  0  0  0
 11 12  1  0  0  0  0
 11  7  1  0  0  0  0
 12 13  1  0  0  0  0
 14 12  2  0  0  0  0
 15 21  1  0  0  0  0
 15 14  1  0  0  0  0
 16 15  2  0  0  0  0
 17 18  2  0  0  0  0
 17 16  1  0  0  0  0
 18 20  1  0  0  0  0
 19 18  1  0  0  0  0
 20 21  2  0  0  0  0
 21 11  1  0  0  0  0
 22 16  1  0  0  0  0
 22 24  1  0  0  0  0
 23 22  1  0  0  0  0
 25 26  2  0  0  0  0
 27 25  1  0  0  0  0
 28 27  1  0  0  0  0
 28 35  1  0  0  0  0
 29 28  2  0  0  0  0
 30 31  2  0  0  0  0
 30 29  1  0  0  0  0
 31 32  1  0  0  0  0
 32 27  2  0  0  0  0
 33 29  1  0  0  0  0
 34 31  1  0  0  0  0
 35 36  1  0  0  0  0
 35 38  1  0  0  0  0
 36 40  1  0  0  0  0
 37 35  1  0  0  0  0
 37 41  1  0  0  0  0
 37 36  1  0  0  0  0
 39 36  1  0  0  0  0
 42 37  1  0  0  0  0
M  END
>  <minimizedAffinity>
-6.14097023

>  <minimizedRMSD>
2.07671785

$$$$
