
 OpenBabel03252503453D

 49 53  0  0  1  0  0  0  0  0999 V2000
   45.6030   35.7430   42.9930 C   0  0  0  0  0  0  0  0  0  0  0  0
   46.6350   35.9340   42.6380 H   0  0  0  0  0  0  0  0  0  0  0  0
   45.2130   36.7490   43.2780 H   0  0  0  0  0  0  0  0  0  0  0  0
   44.8320   35.1540   41.8890 C   0  0  0  0  0  0  0  0  0  0  0  0
   43.4730   35.2800   41.7180 C   0  0  0  0  0  0  0  0  0  0  0  0
   42.7960   34.7050   40.6710 C   0  0  0  0  0  0  0  0  0  0  0  0
   43.5020   33.9710   39.7520 C   0  0  0  0  0  0  0  0  0  0  0  0
   44.8800   33.8310   39.9060 C   0  0  0  0  0  0  0  0  0  0  0  0
   45.5570   34.4210   40.9750 C   0  0  0  0  0  0  0  0  0  0  0  0
   42.9800   35.8700   42.4780 H   0  0  0  0  0  0  0  0  0  0  0  0
   41.7240   34.8640   40.6250 H   0  0  0  0  0  0  0  0  0  0  0  0
   42.9160   33.5450   38.9550 H   0  0  0  0  0  0  0  0  0  0  0  0
   45.2870   33.2220   39.0960 H   0  0  0  0  0  0  0  0  0  0  0  0
   46.9360   34.1190   40.8510 N   0  0  0  0  0  0  0  0  0  0  0  0
   47.9490   34.9670   40.5910 C   0  0  0  0  0  0  0  0  0  0  0  0
   47.9100   36.0340   40.4280 H   0  0  0  0  0  0  0  0  0  0  0  0
   49.1010   34.3040   40.5480 N   0  0  0  0  0  0  0  0  0  0  0  0
   48.8580   33.0000   40.7820 C   0  0  0  0  0  0  0  0  0  0  0  0
   49.6070   31.8650   40.8630 C   0  0  0  0  0  0  0  0  0  0  0  0
   49.0660   30.6500   41.1200 N   0  0  0  0  0  0  0  0  0  0  0  0
   47.7200   30.5460   41.3060 C   0  0  0  0  0  0  0  0  0  0  0  0
   47.2170   29.6080   41.5150 H   0  0  0  0  0  0  0  0  0  0  0  0
   46.9680   31.6490   41.2300 N   0  0  0  0  0  0  0  0  0  0  0  0
   47.4770   32.8690   40.9760 C   0  0  0  0  0  0  0  0  0  0  0  0
   51.0050   32.0340   40.6610 N   0  0  0  0  0  0  0  0  0  0  0  0
   51.9340   31.7130   40.9970 H   0  0  0  0  0  0  0  0  0  0  0  0
   51.3550   32.6920   39.9400 H   0  0  0  0  0  0  0  0  0  0  0  0
   44.8190   35.0220   45.2290 C   0  0  0  0  0  0  0  0  0  0  0  0
   45.6420   34.8320   44.1240 C   0  0  0  0  0  0  0  0  0  0  0  0
   46.4980   33.7310   44.1520 C   0  0  0  0  0  0  0  0  0  0  0  0
   46.5220   32.8870   45.2110 N   0  0  0  0  0  0  0  0  0  0  0  0
   45.7070   33.1070   46.2660 C   0  0  0  0  0  0  0  0  0  0  0  0
   44.8540   34.1700   46.2850 N   0  0  0  0  0  0  0  0  0  0  0  0
   44.1470   35.8470   45.2600 H   0  0  0  0  0  0  0  0  0  0  0  0
   47.1860   33.4780   43.3930 H   0  0  0  0  0  0  0  0  0  0  0  0
   47.2330   31.8020   47.7340 C   0  0  2  0  0  0  0  0  0  0  0  0
   45.7610   32.1670   47.3870 C   0  0  1  0  0  0  0  0  0  0  0  0
   45.3740   32.6550   48.5880 O   0  0  0  0  0  0  0  0  0  0  0  0
   45.8040   31.7930   49.5560 C   0  0  0  0  0  0  0  0  0  0  0  0
   46.9310   30.9590   48.9800 C   0  0  2  0  0  0  0  0  0  0  0  0
   47.6860   31.2000   46.9280 H   0  0  0  0  0  0  0  0  0  0  0  0
   45.2220   31.2090   47.1740 H   0  0  0  0  0  0  0  0  0  0  0  0
   46.1780   32.3840   50.4170 H   0  0  0  0  0  0  0  0  0  0  0  0
   44.9380   31.1440   49.8550 H   0  0  0  0  0  0  0  0  0  0  0  0
   46.5290   29.9720   48.7010 H   0  0  0  0  0  0  0  0  0  0  0  0
   47.9030   32.8960   48.1410 O   0  0  0  0  0  0  0  0  0  0  0  0
   48.8870   32.7180   48.0170 H   0  0  0  0  0  0  0  0  0  0  0  0
   48.0030   30.8160   49.8060 O   0  0  0  0  0  0  0  0  0  0  0  0
   48.7930   31.3570   49.5440 H   0  0  0  0  0  0  0  0  0  0  0  0
  1  3  1  0  0  0  0
  1 29  1  0  0  0  0
  2  1  1  0  0  0  0
  4  1  1  0  0  0  0
  5  4  1  0  0  0  0
  5 10  1  0  0  0  0
  6  5  2  0  0  0  0
  7  8  2  0  0  0  0
  7  6  1  0  0  0  0
  8  9  1  0  0  0  0
  9  4  2  0  0  0  0
 11  6  1  0  0  0  0
 12  7  1  0  0  0  0
 13  8  1  0  0  0  0
 14  9  1  0  0  0  0
 14 24  1  0  0  0  0
 15 14  1  0  0  0  0
 16 15  1  0  0  0  0
 17 15  2  0  0  0  0
 17 18  1  0  0  0  0
 18 19  2  0  0  0  0
 18 24  1  0  0  0  0
 19 20  1  0  0  0  0
 20 21  2  0  0  0  0
 21 22  1  0  0  0  0
 23 21  1  0  0  0  0
 24 23  2  0  0  0  0
 25 19  1  0  0  0  0
 25 26  1  0  0  0  0
 27 25  1  0  0  0  0
 28 34  1  0  0  0  0
 28 33  1  0  0  0  0
 29 30  1  0  0  0  0
 29 28  2  0  0  0  0
 30 31  2  0  0  0  0
 31 32  1  0  0  0  0
 32 33  2  0  0  0  0
 32 37  1  0  0  0  0
 35 30  1  0  0  0  0
 36 41  1  6  0  0  0
 36 46  1  0  0  0  0
 36 40  1  0  0  0  0
 37 42  1  6  0  0  0
 37 36  1  0  0  0  0
 37 38  1  0  0  0  0
 38 39  1  0  0  0  0
 39 44  1  0  0  0  0
 39 43  1  0  0  0  0
 40 45  1  6  0  0  0
 40 39  1  0  0  0  0
 40 48  1  0  0  0  0
 47 46  1  0  0  0  0
 49 48  1  0  0  0  0
M  END
>  <minimizedAffinity>
-7.1976161

>  <minimizedRMSD>
1.17956638

$$$$
