
 OpenBabel03242514363D

 38 41  0  0  0  0  0  0  0  0999 V2000
   47.6760   33.5660   38.1840 C   0  0  0  0  0  0  0  0  0  0  0  0
   48.6740   34.1120   37.3260 C   0  0  0  0  0  0  0  0  0  0  0  0
   48.7640   33.5100   36.1050 C   0  0  0  0  0  0  0  0  0  0  0  0
   47.9750   32.4860   35.7420 C   0  0  0  0  0  0  0  0  0  0  0  0
   46.8960   32.2650   37.3140 S   0  0  0  0  0  0  0  0  0  0  0  0
   49.2860   34.9340   37.6640 H   0  0  0  0  0  0  0  0  0  0  0  0
   49.4770   33.8180   35.3510 H   0  0  0  0  0  0  0  0  0  0  0  0
   47.8130   31.6820   34.6220 N   0  0  0  0  0  0  0  0  0  0  0  0
   47.1930   30.4880   34.4770 C   0  0  0  0  0  0  0  0  0  0  0  0
   46.6920   29.9450   35.2840 H   0  0  0  0  0  0  0  0  0  0  0  0
   47.3160   30.1220   33.1730 N   0  0  0  0  0  0  0  0  0  0  0  0
   48.0040   31.0700   32.5120 C   0  0  0  0  0  0  0  0  0  0  0  0
   48.3500   31.0930   31.1770 C   0  0  0  0  0  0  0  0  0  0  0  0
   49.0450   32.1680   30.7610 N   0  0  0  0  0  0  0  0  0  0  0  0
   49.3720   33.1570   31.6280 C   0  0  0  0  0  0  0  0  0  0  0  0
   49.9310   34.0170   31.2790 H   0  0  0  0  0  0  0  0  0  0  0  0
   49.0070   33.0820   32.9230 N   0  0  0  0  0  0  0  0  0  0  0  0
   48.3150   32.0430   33.4050 C   0  0  0  0  0  0  0  0  0  0  0  0
   48.0450   30.1000   30.2130 N   0  0  0  0  0  0  0  0  0  0  0  0
   47.7970   30.3540   29.2310 H   0  0  0  0  0  0  0  0  0  0  0  0
   47.9960   29.0620   30.2180 H   0  0  0  0  0  0  0  0  0  0  0  0
   47.3530   34.0130   39.5540 C   0  0  0  0  0  0  0  0  0  0  0  0
   46.2200   33.4560   39.8420 O   0  0  0  0  0  0  0  0  0  0  0  0
   47.8210   34.7760   40.5650 O   0  0  0  0  0  0  0  0  0  0  0  0
   49.4180   35.4550   42.4630 O   0  0  0  0  0  0  0  0  0  0  0  0
   48.7370   34.2700   41.8570 P   0  0  2  0  0  0  0  0  0  0  0  0
   49.9290   33.2330   41.2970 O   0  0  0  0  0  0  0  0  0  0  0  0
   49.4490   32.4680   40.8520 H   0  0  0  0  0  0  0  0  0  0  0  0
   47.7400   33.5020   43.0280 O   0  0  0  0  0  0  0  0  0  0  0  0
   46.1240   35.2470   42.9370 C   0  0  0  0  0  0  0  0  0  0  0  0
   46.6810   34.1780   43.6220 C   0  0  0  0  0  0  0  0  0  0  0  0
   46.1560   33.8310   44.8760 C   0  0  0  0  0  0  0  0  0  0  0  0
   45.1140   34.5750   45.3510 N   0  0  0  0  0  0  0  0  0  0  0  0
   44.5950   35.6060   44.6630 C   0  0  0  0  0  0  0  0  0  0  0  0
   45.0950   35.9390   43.4650 N   0  0  0  0  0  0  0  0  0  0  0  0
   46.4450   35.6060   41.9680 H   0  0  0  0  0  0  0  0  0  0  0  0
   46.5980   32.9970   45.4000 H   0  0  0  0  0  0  0  0  0  0  0  0
   43.7740   36.1020   45.1640 H   0  0  0  0  0  0  0  0  0  0  0  0
  1 22  1  0  0  0  0
  2  6  1  0  0  0  0
  2  1  2  0  0  0  0
  3  2  1  0  0  0  0
  4  3  2  0  0  0  0
  4  5  1  0  0  0  0
  5  1  1  0  0  0  0
  7  3  1  0  0  0  0
  8  4  1  0  0  0  0
  9  8  1  0  0  0  0
  9 10  1  0  0  0  0
 11  9  2  0  0  0  0
 12 11  1  0  0  0  0
 12 18  1  0  0  0  0
 13 12  2  0  0  0  0
 14 13  1  0  0  0  0
 14 15  2  0  0  0  0
 15 17  1  0  0  0  0
 16 15  1  0  0  0  0
 17 18  2  0  0  0  0
 18  8  1  0  0  0  0
 19 21  1  0  0  0  0
 19 13  1  0  0  0  0
 20 19  1  0  0  0  0
 22 23  2  0  0  0  0
 22 24  1  0  0  0  0
 24 26  1  0  0  0  0
 26 25  2  1  0  0  0
 26 29  1  0  0  0  0
 27 26  1  0  0  0  0
 28 27  1  0  0  0  0
 29 31  1  0  0  0  0
 30 35  2  0  0  0  0
 30 31  1  0  0  0  0
 31 32  2  0  0  0  0
 32 33  1  0  0  0  0
 32 37  1  0  0  0  0
 34 38  1  0  0  0  0
 34 33  2  0  0  0  0
 35 34  1  0  0  0  0
 36 30  1  0  0  0  0
M  END
>  <minimizedAffinity>
-6.30456018

>  <minimizedRMSD>
1.23026896

$$$$
