
 OpenBabel03242523313D

 27 29  0  0  0  0  0  0  0  0999 V2000
   39.4450   29.1550   41.8000 H   0  0  0  0  0  0  0  0  0  0  0  0
   38.8420   29.9180   41.4140 N   0  0  0  0  0  0  0  0  0  0  0  0
   37.5340   29.7420   41.1710 C   0  0  0  0  0  0  0  0  0  0  0  0
   37.0670   30.9080   40.6840 N   0  0  0  0  0  0  0  0  0  0  0  0
   38.0720   31.7780   40.6310 C   0  0  0  0  0  0  0  0  0  0  0  0
   38.1260   33.0890   40.2160 C   0  0  0  0  0  0  0  0  0  0  0  0
   39.3020   33.7570   40.2690 N   0  0  0  0  0  0  0  0  0  0  0  0
   40.4110   33.1130   40.7320 C   0  0  0  0  0  0  0  0  0  0  0  0
   41.2840   33.7520   40.7240 H   0  0  0  0  0  0  0  0  0  0  0  0
   40.3700   31.8350   41.1390 N   0  0  0  0  0  0  0  0  0  0  0  0
   39.2180   31.1650   41.0930 C   0  0  0  0  0  0  0  0  0  0  0  0
   36.9270   33.6900   39.7450 N   0  0  0  0  0  0  0  0  0  0  0  0
   35.9940   33.4910   40.2140 H   0  0  0  0  0  0  0  0  0  0  0  0
   36.6360   34.3430   38.9940 H   0  0  0  0  0  0  0  0  0  0  0  0
   36.4540   28.3480   41.3770 S   0  0  0  0  0  0  0  0  0  0  0  0
   36.5980   27.6120   43.0290 C   0  0  0  0  0  0  0  0  0  0  0  0
   36.5240   28.3710   43.8240 H   0  0  0  0  0  0  0  0  0  0  0  0
   35.7960   26.8370   43.2050 H   0  0  0  0  0  0  0  0  0  0  0  0
   39.1650   24.9680   42.5420 C   0  0  0  0  0  0  0  0  0  0  0  0
   40.2810   25.5340   43.1310 C   0  0  0  0  0  0  0  0  0  0  0  0
   40.1370   26.8000   43.6800 C   0  0  0  0  0  0  0  0  0  0  0  0
   38.9390   27.4430   43.6320 N   0  0  0  0  0  0  0  0  0  0  0  0
   37.8680   26.8560   43.0460 C   0  0  0  0  0  0  0  0  0  0  0  0
   37.9990   25.6320   42.5120 N   0  0  0  0  0  0  0  0  0  0  0  0
   39.3370   23.9820   42.1310 H   0  0  0  0  0  0  0  0  0  0  0  0
   41.2810   25.1340   43.2350 H   0  0  0  0  0  0  0  0  0  0  0  0
   40.9290   27.3670   44.1750 H   0  0  0  0  0  0  0  0  0  0  0  0
  2  1  1  0  0  0  0
  3 15  1  0  0  0  0
  3  2  1  0  0  0  0
  4  3  2  0  0  0  0
  5  4  1  0  0  0  0
  5 11  1  0  0  0  0
  6  7  1  0  0  0  0
  6  5  2  0  0  0  0
  7  8  2  0  0  0  0
  8 10  1  0  0  0  0
  9  8  1  0  0  0  0
 11 10  2  0  0  0  0
 11  2  1  0  0  0  0
 12 13  1  0  0  0  0
 12  6  1  0  0  0  0
 14 12  1  0  0  0  0
 15 16  1  0  0  0  0
 16 23  1  0  0  0  0
 16 18  1  0  0  0  0
 16 17  1  0  0  0  0
 19 20  1  0  0  0  0
 20 26  1  0  0  0  0
 20 21  2  0  0  0  0
 21 27  1  0  0  0  0
 22 21  1  0  0  0  0
 23 22  2  0  0  0  0
 24 19  2  0  0  0  0
 24 23  1  0  0  0  0
 25 19  1  0  0  0  0
M  END
>  <minimizedAffinity>
-4.90776014

$$$$

 OpenBabel03242523313D

 27 29  0  0  0  0  0  0  0  0999 V2000
   38.9790   30.2240   37.2880 H   0  0  0  0  0  0  0  0  0  0  0  0
   38.8110   30.8850   38.0810 N   0  0  0  0  0  0  0  0  0  0  0  0
   37.7640   30.7530   38.9110 C   0  0  0  0  0  0  0  0  0  0  0  0
   37.8470   31.7570   39.8050 N   0  0  0  0  0  0  0  0  0  0  0  0
   38.9230   32.4860   39.5250 C   0  0  0  0  0  0  0  0  0  0  0  0
   39.4510   33.6080   40.1250 C   0  0  0  0  0  0  0  0  0  0  0  0
   40.5800   34.1610   39.6270 N   0  0  0  0  0  0  0  0  0  0  0  0
   41.1720   33.5950   38.5370 C   0  0  0  0  0  0  0  0  0  0  0  0
   42.0640   34.1290   38.2360 H   0  0  0  0  0  0  0  0  0  0  0  0
   40.6670   32.5030   37.9440 N   0  0  0  0  0  0  0  0  0  0  0  0
   39.5550   31.9460   38.4240 C   0  0  0  0  0  0  0  0  0  0  0  0
   38.7740   34.1380   41.2570 N   0  0  0  0  0  0  0  0  0  0  0  0
   38.3440   33.4990   41.9880 H   0  0  0  0  0  0  0  0  0  0  0  0
   38.5370   35.0710   41.6460 H   0  0  0  0  0  0  0  0  0  0  0  0
   36.4360   29.5760   38.9890 S   0  0  0  0  0  0  0  0  0  0  0  0
   35.6360   29.5590   40.6170 C   0  0  0  0  0  0  0  0  0  0  0  0
   35.3550   30.5720   40.9460 H   0  0  0  0  0  0  0  0  0  0  0  0
   34.7060   28.9190   40.6110 H   0  0  0  0  0  0  0  0  0  0  0  0
   38.1440   28.8710   43.2730 C   0  0  0  0  0  0  0  0  0  0  0  0
   38.2660   27.4950   43.2080 C   0  0  0  0  0  0  0  0  0  0  0  0
   37.4950   26.8320   42.2640 C   0  0  0  0  0  0  0  0  0  0  0  0
   36.6580   27.5230   41.4450 N   0  0  0  0  0  0  0  0  0  0  0  0
   36.5650   28.8720   41.5380 C   0  0  0  0  0  0  0  0  0  0  0  0
   37.3070   29.5200   42.4490 N   0  0  0  0  0  0  0  0  0  0  0  0
   38.7670   29.3330   44.0270 H   0  0  0  0  0  0  0  0  0  0  0  0
   38.8880   26.8320   43.7950 H   0  0  0  0  0  0  0  0  0  0  0  0
   37.4890   25.7520   42.1000 H   0  0  0  0  0  0  0  0  0  0  0  0
  1  2  1  0  0  0  0
  2 11  1  0  0  0  0
  2  3  1  0  0  0  0
  3 15  1  0  0  0  0
  3  4  2  0  0  0  0
  5  4  1  0  0  0  0
  5  6  1  0  0  0  0
  6 12  1  0  0  0  0
  7  6  2  0  0  0  0
  8  7  1  0  0  0  0
  9  8  1  0  0  0  0
 10 11  1  0  0  0  0
 10  8  2  0  0  0  0
 11  5  2  0  0  0  0
 12 14  1  0  0  0  0
 12 13  1  0  0  0  0
 15 16  1  0  0  0  0
 16 17  1  0  0  0  0
 16 23  1  0  0  0  0
 18 16  1  0  0  0  0
 19 25  1  0  0  0  0
 20 19  1  0  0  0  0
 20 26  1  0  0  0  0
 21 20  2  0  0  0  0
 22 23  2  0  0  0  0
 22 21  1  0  0  0  0
 23 24  1  0  0  0  0
 24 19  2  0  0  0  0
 27 21  1  0  0  0  0
M  END
>  <minimizedAffinity>
-4.89271832

$$$$

 OpenBabel03242523313D

 27 29  0  0  0  0  0  0  0  0999 V2000
   37.3820   31.2820   41.4250 H   0  0  0  0  0  0  0  0  0  0  0  0
   37.8660   31.3740   40.5020 N   0  0  0  0  0  0  0  0  0  0  0  0
   37.5390   30.6140   39.4440 C   0  0  0  0  0  0  0  0  0  0  0  0
   38.3480   30.9870   38.4340 N   0  0  0  0  0  0  0  0  0  0  0  0
   39.1510   31.9540   38.8670 C   0  0  0  0  0  0  0  0  0  0  0  0
   40.1470   32.6670   38.2380 C   0  0  0  0  0  0  0  0  0  0  0  0
   40.8230   33.6160   38.9260 N   0  0  0  0  0  0  0  0  0  0  0  0
   40.5030   33.8440   40.2320 C   0  0  0  0  0  0  0  0  0  0  0  0
   41.1140   34.6230   40.6680 H   0  0  0  0  0  0  0  0  0  0  0  0
   39.5360   33.1550   40.8550 N   0  0  0  0  0  0  0  0  0  0  0  0
   38.8610   32.2170   40.1890 C   0  0  0  0  0  0  0  0  0  0  0  0
   40.4210   32.3700   36.8750 N   0  0  0  0  0  0  0  0  0  0  0  0
   39.6360   32.1550   36.1930 H   0  0  0  0  0  0  0  0  0  0  0  0
   41.2500   32.2850   36.2570 H   0  0  0  0  0  0  0  0  0  0  0  0
   36.3300   29.3350   39.2150 S   0  0  0  0  0  0  0  0  0  0  0  0
   35.4980   28.8970   40.7670 C   0  0  0  0  0  0  0  0  0  0  0  0
   34.9740   29.7600   41.2080 H   0  0  0  0  0  0  0  0  0  0  0  0
   34.7460   28.0690   40.6100 H   0  0  0  0  0  0  0  0  0  0  0  0
   37.8500   26.5230   42.3940 C   0  0  0  0  0  0  0  0  0  0  0  0
   38.4610   27.3240   43.3420 C   0  0  0  0  0  0  0  0  0  0  0  0
   38.0610   28.6500   43.4080 C   0  0  0  0  0  0  0  0  0  0  0  0
   37.1050   29.1280   42.5660 N   0  0  0  0  0  0  0  0  0  0  0  0
   36.5290   28.3130   41.6500 C   0  0  0  0  0  0  0  0  0  0  0  0
   36.9110   27.0280   41.5790 N   0  0  0  0  0  0  0  0  0  0  0  0
   38.2020   25.5010   42.3890 H   0  0  0  0  0  0  0  0  0  0  0  0
   39.2260   27.0710   44.0650 H   0  0  0  0  0  0  0  0  0  0  0  0
   38.4550   29.3950   44.1040 H   0  0  0  0  0  0  0  0  0  0  0  0
  2  1  1  0  0  0  0
  3  2  1  0  0  0  0
  4  5  1  0  0  0  0
  4  3  2  0  0  0  0
  5 11  1  0  0  0  0
  6  5  2  0  0  0  0
  6  7  1  0  0  0  0
  7  8  2  0  0  0  0
  8  9  1  0  0  0  0
  8 10  1  0  0  0  0
 11  2  1  0  0  0  0
 11 10  2  0  0  0  0
 12  6  1  0  0  0  0
 13 12  1  0  0  0  0
 14 12  1  0  0  0  0
 15  3  1  0  0  0  0
 15 16  1  0  0  0  0
 16 17  1  0  0  0  0
 16 23  1  0  0  0  0
 18 16  1  0  0  0  0
 19 20  1  0  0  0  0
 20 21  2  0  0  0  0
 20 26  1  0  0  0  0
 21 27  1  0  0  0  0
 22 21  1  0  0  0  0
 23 22  2  0  0  0  0
 24 23  1  0  0  0  0
 24 19  2  0  0  0  0
 25 19  1  0  0  0  0
M  END
>  <minimizedAffinity>
-4.84629059

$$$$

 OpenBabel03242523313D

 27 29  0  0  0  0  0  0  0  0999 V2000
   37.6730   27.6890   40.2790 H   0  0  0  0  0  0  0  0  0  0  0  0
   37.5530   28.7190   40.4150 N   0  0  0  0  0  0  0  0  0  0  0  0
   37.4370   29.2700   41.6330 C   0  0  0  0  0  0  0  0  0  0  0  0
   37.2980   30.5970   41.4480 N   0  0  0  0  0  0  0  0  0  0  0  0
   37.3280   30.8490   40.1430 C   0  0  0  0  0  0  0  0  0  0  0  0
   37.2280   32.0260   39.4350 C   0  0  0  0  0  0  0  0  0  0  0  0
   37.2920   31.9980   38.0840 N   0  0  0  0  0  0  0  0  0  0  0  0
   37.4520   30.8020   37.4510 C   0  0  0  0  0  0  0  0  0  0  0  0
   37.4870   30.9130   36.3760 H   0  0  0  0  0  0  0  0  0  0  0  0
   37.5510   29.6490   38.1300 N   0  0  0  0  0  0  0  0  0  0  0  0
   37.4900   29.6610   39.4620 C   0  0  0  0  0  0  0  0  0  0  0  0
   37.0610   33.2330   40.1680 N   0  0  0  0  0  0  0  0  0  0  0  0
   37.5800   33.3950   41.0800 H   0  0  0  0  0  0  0  0  0  0  0  0
   36.5250   34.1170   40.0850 H   0  0  0  0  0  0  0  0  0  0  0  0
   37.4410   28.5780   43.2680 S   0  0  0  0  0  0  0  0  0  0  0  0
   38.8190   27.4240   43.5160 C   0  0  0  0  0  0  0  0  0  0  0  0
   39.7810   27.8600   43.2010 H   0  0  0  0  0  0  0  0  0  0  0  0
   38.9080   27.1170   44.5990 H   0  0  0  0  0  0  0  0  0  0  0  0
   36.9300   24.7750   41.7190 C   0  0  0  0  0  0  0  0  0  0  0  0
   37.9150   23.8380   41.4630 C   0  0  0  0  0  0  0  0  0  0  0  0
   39.1980   24.1270   41.9070 C   0  0  0  0  0  0  0  0  0  0  0  0
   39.4580   25.2880   42.5640 N   0  0  0  0  0  0  0  0  0  0  0  0
   38.4670   26.1820   42.7960 C   0  0  0  0  0  0  0  0  0  0  0  0
   37.2230   25.9110   42.3700 N   0  0  0  0  0  0  0  0  0  0  0  0
   35.9530   24.4970   41.3500 H   0  0  0  0  0  0  0  0  0  0  0  0
   37.8420   22.8850   40.9560 H   0  0  0  0  0  0  0  0  0  0  0  0
   40.0700   23.4820   41.7770 H   0  0  0  0  0  0  0  0  0  0  0  0
  1  2  1  0  0  0  0
  2  3  1  0  0  0  0
  3 15  1  0  0  0  0
  4  3  2  0  0  0  0
  5  4  1  0  0  0  0
  6  5  2  0  0  0  0
  6 12  1  0  0  0  0
  7  6  1  0  0  0  0
  8  7  2  0  0  0  0
  8 10  1  0  0  0  0
  9  8  1  0  0  0  0
 10 11  2  0  0  0  0
 11  5  1  0  0  0  0
 11  2  1  0  0  0  0
 12 13  1  0  0  0  0
 14 12  1  0  0  0  0
 15 16  1  0  0  0  0
 16 18  1  0  0  0  0
 17 16  1  0  0  0  0
 19 24  1  0  0  0  0
 20 19  2  0  0  0  0
 20 21  1  0  0  0  0
 21 22  2  0  0  0  0
 22 23  1  0  0  0  0
 23 16  1  0  0  0  0
 24 23  2  0  0  0  0
 25 19  1  0  0  0  0
 26 20  1  0  0  0  0
 27 21  1  0  0  0  0
M  END
>  <minimizedAffinity>
-4.81783247

$$$$

 OpenBabel03242523313D

 27 29  0  0  0  0  0  0  0  0999 V2000
   41.3390   30.3020   42.2140 H   0  0  0  0  0  0  0  0  0  0  0  0
   40.4380   30.7170   41.8840 N   0  0  0  0  0  0  0  0  0  0  0  0
   39.2610   30.0920   42.0470 C   0  0  0  0  0  0  0  0  0  0  0  0
   38.3180   30.8920   41.5140 N   0  0  0  0  0  0  0  0  0  0  0  0
   38.9080   31.9830   41.0340 C   0  0  0  0  0  0  0  0  0  0  0  0
   38.4010   33.0940   40.3980 C   0  0  0  0  0  0  0  0  0  0  0  0
   39.2420   34.0790   40.0060 N   0  0  0  0  0  0  0  0  0  0  0  0
   40.5770   33.9480   40.2490 C   0  0  0  0  0  0  0  0  0  0  0  0
   41.1400   34.7980   39.8880 H   0  0  0  0  0  0  0  0  0  0  0  0
   41.0830   32.8700   40.8670 N   0  0  0  0  0  0  0  0  0  0  0  0
   40.2660   31.8910   41.2590 C   0  0  0  0  0  0  0  0  0  0  0  0
   36.9980   33.1550   40.1810 N   0  0  0  0  0  0  0  0  0  0  0  0
   36.3150   32.8090   40.9170 H   0  0  0  0  0  0  0  0  0  0  0  0
   36.3460   33.4710   39.4380 H   0  0  0  0  0  0  0  0  0  0  0  0
   38.8220   28.5380   42.7840 S   0  0  0  0  0  0  0  0  0  0  0  0
   37.0520   28.1770   42.6100 C   0  0  0  0  0  0  0  0  0  0  0  0
   36.5490   28.1120   43.5880 H   0  0  0  0  0  0  0  0  0  0  0  0
   36.5300   28.9690   41.9960 H   0  0  0  0  0  0  0  0  0  0  0  0
   36.6550   25.8090   39.7720 C   0  0  0  0  0  0  0  0  0  0  0  0
   36.7730   24.5820   40.3990 C   0  0  0  0  0  0  0  0  0  0  0  0
   36.9850   24.5860   41.7710 C   0  0  0  0  0  0  0  0  0  0  0  0
   37.0700   25.7590   42.4550 N   0  0  0  0  0  0  0  0  0  0  0  0
   36.9490   26.9420   41.8050 C   0  0  0  0  0  0  0  0  0  0  0  0
   36.7450   26.9460   40.4790 N   0  0  0  0  0  0  0  0  0  0  0  0
   36.4930   25.7440   38.7060 H   0  0  0  0  0  0  0  0  0  0  0  0
   36.7250   23.5870   39.9770 H   0  0  0  0  0  0  0  0  0  0  0  0
   37.0960   23.6960   42.3950 H   0  0  0  0  0  0  0  0  0  0  0  0
  2  3  1  0  0  0  0
  2  1  1  0  0  0  0
  3 15  1  0  0  0  0
  4  3  2  0  0  0  0
  5 11  1  0  0  0  0
  5  4  1  0  0  0  0
  6  5  2  0  0  0  0
  7  8  2  0  0  0  0
  7  6  1  0  0  0  0
  8 10  1  0  0  0  0
  9  8  1  0  0  0  0
 10 11  2  0  0  0  0
 11  2  1  0  0  0  0
 12  6  1  0  0  0  0
 12 13  1  0  0  0  0
 14 12  1  0  0  0  0
 16 15  1  0  0  0  0
 16 17  1  0  0  0  0
 18 16  1  0  0  0  0
 19 20  2  0  0  0  0
 19 24  1  0  0  0  0
 20 21  1  0  0  0  0
 21 27  1  0  0  0  0
 21 22  2  0  0  0  0
 23 22  1  0  0  0  0
 23 16  1  0  0  0  0
 24 23  2  0  0  0  0
 25 19  1  0  0  0  0
 26 20  1  0  0  0  0
M  END
>  <minimizedAffinity>
-4.79750347

$$$$

 OpenBabel03242523313D

 27 29  0  0  0  0  0  0  0  0999 V2000
   35.7170   29.2760   41.5750 H   0  0  0  0  0  0  0  0  0  0  0  0
   36.6570   29.7180   41.6970 N   0  0  0  0  0  0  0  0  0  0  0  0
   37.5750   29.2220   42.5420 C   0  0  0  0  0  0  0  0  0  0  0  0
   38.6550   30.0220   42.4550 N   0  0  0  0  0  0  0  0  0  0  0  0
   38.4000   30.9870   41.5760 C   0  0  0  0  0  0  0  0  0  0  0  0
   39.1610   32.0450   41.1310 C   0  0  0  0  0  0  0  0  0  0  0  0
   38.6470   32.8940   40.2120 N   0  0  0  0  0  0  0  0  0  0  0  0
   37.3830   32.6840   39.7470 C   0  0  0  0  0  0  0  0  0  0  0  0
   37.0890   33.4300   39.0200 H   0  0  0  0  0  0  0  0  0  0  0  0
   36.6320   31.6570   40.1730 N   0  0  0  0  0  0  0  0  0  0  0  0
   37.1250   30.8120   41.0790 C   0  0  0  0  0  0  0  0  0  0  0  0
   40.4690   32.1960   41.6650 N   0  0  0  0  0  0  0  0  0  0  0  0
   41.0860   31.3510   41.8490 H   0  0  0  0  0  0  0  0  0  0  0  0
   41.0920   32.9670   41.9710 H   0  0  0  0  0  0  0  0  0  0  0  0
   37.5690   27.8210   43.6320 S   0  0  0  0  0  0  0  0  0  0  0  0
   38.6880   26.5110   43.0640 C   0  0  0  0  0  0  0  0  0  0  0  0
   39.6920   26.9020   42.8340 H   0  0  0  0  0  0  0  0  0  0  0  0
   38.7960   25.6980   43.8410 H   0  0  0  0  0  0  0  0  0  0  0  0
   37.5850   25.6460   39.6220 C   0  0  0  0  0  0  0  0  0  0  0  0
   36.7490   24.5670   39.8470 C   0  0  0  0  0  0  0  0  0  0  0  0
   36.5780   24.1590   41.1620 C   0  0  0  0  0  0  0  0  0  0  0  0
   37.2150   24.8040   42.1760 N   0  0  0  0  0  0  0  0  0  0  0  0
   38.0280   25.8570   41.9160 C   0  0  0  0  0  0  0  0  0  0  0  0
   38.1980   26.2580   40.6460 N   0  0  0  0  0  0  0  0  0  0  0  0
   37.6800   25.9180   38.5800 H   0  0  0  0  0  0  0  0  0  0  0  0
   36.1880   23.9730   39.1380 H   0  0  0  0  0  0  0  0  0  0  0  0
   35.9500   23.3270   41.4880 H   0  0  0  0  0  0  0  0  0  0  0  0
  1  2  1  0  0  0  0
  2  3  1  0  0  0  0
  3 15  1  0  0  0  0
  4  3  2  0  0  0  0
  5  4  1  0  0  0  0
  6  5  1  0  0  0  0
  6 12  1  0  0  0  0
  7  6  2  0  0  0  0
  8 10  2  0  0  0  0
  8  7  1  0  0  0  0
  9  8  1  0  0  0  0
 10 11  1  0  0  0  0
 11  5  2  0  0  0  0
 11  2  1  0  0  0  0
 12 13  1  0  0  0  0
 12 14  1  0  0  0  0
 16 15  1  0  0  0  0
 16 18  1  0  0  0  0
 17 16  1  0  0  0  0
 19 20  2  0  0  0  0
 19 24  1  0  0  0  0
 20 21  1  0  0  0  0
 21 27  1  0  0  0  0
 21 22  2  0  0  0  0
 23 22  1  0  0  0  0
 23 16  1  0  0  0  0
 24 23  2  0  0  0  0
 25 19  1  0  0  0  0
 26 20  1  0  0  0  0
M  END
>  <minimizedAffinity>
-4.74421501

$$$$

 OpenBabel03242523313D

 27 29  0  0  0  0  0  0  0  0999 V2000
   36.3420   27.9380   40.7920 H   0  0  0  0  0  0  0  0  0  0  0  0
   36.9630   27.2710   41.3070 N   0  0  0  0  0  0  0  0  0  0  0  0
   37.7590   27.6680   42.3120 C   0  0  0  0  0  0  0  0  0  0  0  0
   38.4130   26.5730   42.7460 N   0  0  0  0  0  0  0  0  0  0  0  0
   38.0230   25.5300   42.0190 C   0  0  0  0  0  0  0  0  0  0  0  0
   38.3840   24.2020   42.0570 C   0  0  0  0  0  0  0  0  0  0  0  0
   37.8210   23.3340   41.1850 N   0  0  0  0  0  0  0  0  0  0  0  0
   36.9080   23.7960   40.2840 C   0  0  0  0  0  0  0  0  0  0  0  0
   36.5340   23.0070   39.6450 H   0  0  0  0  0  0  0  0  0  0  0  0
   36.5490   25.0870   40.2370 N   0  0  0  0  0  0  0  0  0  0  0  0
   37.0950   25.9550   41.0910 C   0  0  0  0  0  0  0  0  0  0  0  0
   39.3430   23.7990   43.0250 N   0  0  0  0  0  0  0  0  0  0  0  0
   39.3350   24.2050   44.0060 H   0  0  0  0  0  0  0  0  0  0  0  0
   40.1520   23.1510   43.0850 H   0  0  0  0  0  0  0  0  0  0  0  0
   38.0400   29.2510   43.0660 S   0  0  0  0  0  0  0  0  0  0  0  0
   39.2710   30.2280   42.1590 C   0  0  0  0  0  0  0  0  0  0  0  0
   39.9160   30.8070   42.8400 H   0  0  0  0  0  0  0  0  0  0  0  0
   39.9300   29.5690   41.5220 H   0  0  0  0  0  0  0  0  0  0  0  0
   36.8440   31.3740   39.5870 C   0  0  0  0  0  0  0  0  0  0  0  0
   37.1910   32.7040   39.4320 C   0  0  0  0  0  0  0  0  0  0  0  0
   38.2410   33.1810   40.2040 C   0  0  0  0  0  0  0  0  0  0  0  0
   38.8910   32.3610   41.0720 N   0  0  0  0  0  0  0  0  0  0  0  0
   38.5220   31.0630   41.1970 C   0  0  0  0  0  0  0  0  0  0  0  0
   37.5070   30.5940   40.4540 N   0  0  0  0  0  0  0  0  0  0  0  0
   36.0200   31.0590   38.9620 H   0  0  0  0  0  0  0  0  0  0  0  0
   36.7610   33.4560   38.7830 H   0  0  0  0  0  0  0  0  0  0  0  0
   38.6230   34.2050   40.1860 H   0  0  0  0  0  0  0  0  0  0  0  0
  1  2  1  0  0  0  0
  2  3  1  0  0  0  0
  3  4  2  0  0  0  0
  3 15  1  0  0  0  0
  5  6  1  0  0  0  0
  5  4  1  0  0  0  0
  6 12  1  0  0  0  0
  7  6  2  0  0  0  0
  8  7  1  0  0  0  0
  9  8  1  0  0  0  0
 10  8  2  0  0  0  0
 10 11  1  0  0  0  0
 11  2  1  0  0  0  0
 11  5  2  0  0  0  0
 12 14  1  0  0  0  0
 12 13  1  0  0  0  0
 16 17  1  0  0  0  0
 16 15  1  0  0  0  0
 18 16  1  0  0  0  0
 19 24  1  0  0  0  0
 20 19  2  0  0  0  0
 20 21  1  0  0  0  0
 21 22  2  0  0  0  0
 22 23  1  0  0  0  0
 23 16  1  0  0  0  0
 24 23  2  0  0  0  0
 25 19  1  0  0  0  0
 26 20  1  0  0  0  0
 27 21  1  0  0  0  0
M  END
>  <minimizedAffinity>
-4.70124149

$$$$

 OpenBabel03242523313D

 27 29  0  0  0  0  0  0  0  0999 V2000
   38.7250   29.1730   38.9280 H   0  0  0  0  0  0  0  0  0  0  0  0
   39.2040   30.0650   38.6660 N   0  0  0  0  0  0  0  0  0  0  0  0
   38.7490   31.2640   39.0610 C   0  0  0  0  0  0  0  0  0  0  0  0
   39.5900   32.1860   38.5540 N   0  0  0  0  0  0  0  0  0  0  0  0
   40.5390   31.5610   37.8640 C   0  0  0  0  0  0  0  0  0  0  0  0
   41.6220   32.0360   37.1590 C   0  0  0  0  0  0  0  0  0  0  0  0
   42.4460   31.1630   36.5360 N   0  0  0  0  0  0  0  0  0  0  0  0
   42.1840   29.8280   36.6180 C   0  0  0  0  0  0  0  0  0  0  0  0
   42.9130   29.2380   36.0790 H   0  0  0  0  0  0  0  0  0  0  0  0
   41.1320   29.3530   37.3010 N   0  0  0  0  0  0  0  0  0  0  0  0
   40.3110   30.2020   37.9210 C   0  0  0  0  0  0  0  0  0  0  0  0
   41.8270   33.4420   37.1200 N   0  0  0  0  0  0  0  0  0  0  0  0
   41.6530   34.0450   37.9770 H   0  0  0  0  0  0  0  0  0  0  0  0
   42.1310   34.1580   36.4320 H   0  0  0  0  0  0  0  0  0  0  0  0
   37.3540   31.7520   40.0460 S   0  0  0  0  0  0  0  0  0  0  0  0
   36.2040   30.3780   40.3270 C   0  0  0  0  0  0  0  0  0  0  0  0
   35.1790   30.7340   40.5170 H   0  0  0  0  0  0  0  0  0  0  0  0
   36.1770   29.6780   39.4410 H   0  0  0  0  0  0  0  0  0  0  0  0
   38.3030   29.2270   43.1700 C   0  0  0  0  0  0  0  0  0  0  0  0
   37.7410   27.9980   43.4680 C   0  0  0  0  0  0  0  0  0  0  0  0
   36.6630   27.5890   42.6960 C   0  0  0  0  0  0  0  0  0  0  0  0
   36.1910   28.3760   41.6930 N   0  0  0  0  0  0  0  0  0  0  0  0
   36.7680   29.5740   41.4310 C   0  0  0  0  0  0  0  0  0  0  0  0
   37.8110   29.9770   42.1730 N   0  0  0  0  0  0  0  0  0  0  0  0
   39.1380   29.4930   43.8040 H   0  0  0  0  0  0  0  0  0  0  0  0
   38.0170   27.2820   44.2310 H   0  0  0  0  0  0  0  0  0  0  0  0
   36.1220   26.6470   42.8170 H   0  0  0  0  0  0  0  0  0  0  0  0
  2  1  1  0  0  0  0
  2  3  1  0  0  0  0
  3 15  1  0  0  0  0
  4  3  2  0  0  0  0
  5 11  1  0  0  0  0
  5  4  1  0  0  0  0
  6  5  2  0  0  0  0
  7  8  2  0  0  0  0
  7  6  1  0  0  0  0
  8 10  1  0  0  0  0
  9  8  1  0  0  0  0
 10 11  2  0  0  0  0
 11  2  1  0  0  0  0
 12  6  1  0  0  0  0
 12 13  1  0  0  0  0
 14 12  1  0  0  0  0
 15 16  1  0  0  0  0
 16 17  1  0  0  0  0
 16 23  1  0  0  0  0
 18 16  1  0  0  0  0
 19 20  1  0  0  0  0
 19 25  1  0  0  0  0
 20 26  1  0  0  0  0
 21 27  1  0  0  0  0
 21 20  2  0  0  0  0
 22 21  1  0  0  0  0
 23 22  2  0  0  0  0
 23 24  1  0  0  0  0
 24 19  2  0  0  0  0
M  END
>  <minimizedAffinity>
-4.68090343

$$$$

 OpenBabel03242523313D

 27 29  0  0  0  0  0  0  0  0999 V2000
   38.4250   27.5020   37.9080 H   0  0  0  0  0  0  0  0  0  0  0  0
   37.8690   28.0050   38.6380 N   0  0  0  0  0  0  0  0  0  0  0  0
   37.2570   27.3580   39.6420 C   0  0  0  0  0  0  0  0  0  0  0  0
   36.6400   28.2940   40.3890 N   0  0  0  0  0  0  0  0  0  0  0  0
   36.8710   29.4880   39.8500 C   0  0  0  0  0  0  0  0  0  0  0  0
   36.4710   30.7520   40.2200 C   0  0  0  0  0  0  0  0  0  0  0  0
   36.8560   31.8160   39.4780 N   0  0  0  0  0  0  0  0  0  0  0  0
   37.6320   31.6110   38.3750 C   0  0  0  0  0  0  0  0  0  0  0  0
   37.8700   32.5380   37.8700 H   0  0  0  0  0  0  0  0  0  0  0  0
   38.0270   30.3840   38.0050 N   0  0  0  0  0  0  0  0  0  0  0  0
   37.6550   29.3260   38.7270 C   0  0  0  0  0  0  0  0  0  0  0  0
   35.6630   30.8830   41.3820 N   0  0  0  0  0  0  0  0  0  0  0  0
   35.8410   30.2870   42.2430 H   0  0  0  0  0  0  0  0  0  0  0  0
   34.8500   31.4470   41.6950 H   0  0  0  0  0  0  0  0  0  0  0  0
   37.1580   25.6400   40.0780 S   0  0  0  0  0  0  0  0  0  0  0  0
   36.9350   25.4000   41.8620 C   0  0  0  0  0  0  0  0  0  0  0  0
   36.1610   26.0700   42.2710 H   0  0  0  0  0  0  0  0  0  0  0  0
   36.6430   24.3360   42.1000 H   0  0  0  0  0  0  0  0  0  0  0  0
   40.4100   24.8180   43.0450 C   0  0  0  0  0  0  0  0  0  0  0  0
   40.7090   26.0160   43.6680 C   0  0  0  0  0  0  0  0  0  0  0  0
   39.7250   26.9940   43.6730 C   0  0  0  0  0  0  0  0  0  0  0  0
   38.5200   26.7670   43.0840 N   0  0  0  0  0  0  0  0  0  0  0  0
   38.2640   25.5800   42.4830 C   0  0  0  0  0  0  0  0  0  0  0  0
   39.2110   24.6290   42.4740 N   0  0  0  0  0  0  0  0  0  0  0  0
   41.2140   24.0960   43.0730 H   0  0  0  0  0  0  0  0  0  0  0  0
   41.6190   26.3220   44.1690 H   0  0  0  0  0  0  0  0  0  0  0  0
   39.8210   27.9840   44.1260 H   0  0  0  0  0  0  0  0  0  0  0  0
  1  2  1  0  0  0  0
  2 11  1  0  0  0  0
  2  3  1  0  0  0  0
  3 15  1  0  0  0  0
  3  4  2  0  0  0  0
  5  6  1  0  0  0  0
  5  4  1  0  0  0  0
  6 12  1  0  0  0  0
  7  6  2  0  0  0  0
  8  7  1  0  0  0  0
  9  8  1  0  0  0  0
 10  8  2  0  0  0  0
 10 11  1  0  0  0  0
 11  5  2  0  0  0  0
 12 14  1  0  0  0  0
 12 13  1  0  0  0  0
 15 16  1  0  0  0  0
 16 18  1  0  0  0  0
 16 17  1  0  0  0  0
 16 23  1  0  0  0  0
 19 25  1  0  0  0  0
 19 20  1  0  0  0  0
 20 21  2  0  0  0  0
 20 26  1  0  0  0  0
 21 27  1  0  0  0  0
 22 21  1  0  0  0  0
 23 22  2  0  0  0  0
 24 23  1  0  0  0  0
 24 19  2  0  0  0  0
M  END
>  <minimizedAffinity>
-4.67866945

$$$$
