
     RDKit          3D

 42 46  0  0  0  0  0  0  0  0999 V2000
   46.0218   32.7019   46.6993 C   0  0  0  0  0  0  0  0  0  0  0  0
   45.5366   32.9424   48.0095 C   0  0  0  0  0  0  0  0  0  0  0  0
   45.7606   32.0968   49.0646 C   0  0  0  0  0  0  0  0  0  0  0  0
   46.4747   30.9635   48.8982 C   0  0  0  0  0  0  0  0  0  0  0  0
   46.9702   30.6791   47.6418 C   0  0  0  0  0  0  0  0  0  0  0  0
   47.6928   29.5241   47.5095 C   0  0  0  0  0  0  0  0  0  0  0  0
   48.2160   29.1819   46.2810 C   0  0  0  0  0  0  0  0  0  0  0  0
   47.9677   30.0551   45.2263 C   0  0  0  0  0  0  0  0  0  0  0  0
   47.2535   31.1694   45.4265 C   0  0  0  0  0  0  0  0  0  0  0  0
   46.7367   31.5325   46.5982 C   0  0  0  0  0  0  0  0  0  0  0  0
   44.4552   35.5107   45.0971 C   0  0  0  0  0  0  0  0  0  0  0  0
   45.1750   35.6129   43.8672 C   0  0  0  0  0  0  0  0  0  0  0  0
   46.2148   34.6860   43.5799 C   0  0  0  0  0  0  0  0  0  0  0  0
   46.4508   33.7529   44.5169 N   0  0  0  0  0  0  0  0  0  0  0  0
   45.8203   33.6409   45.6264 C   0  0  0  0  0  0  0  0  0  0  0  0
   44.8193   34.5344   45.9004 N   0  0  0  0  0  0  0  0  0  0  0  0
   44.7743   36.6742   43.0053 N   0  0  0  0  0  0  0  0  0  0  0  0
   47.1826   31.8023   44.2280 O   0  0  0  0  0  0  0  0  0  0  0  0
   44.9615   33.8370   48.1858 H   0  0  0  0  0  0  0  0  0  0  0  0
   45.3550   32.3543   50.0319 H   0  0  0  0  0  0  0  0  0  0  0  0
   46.6336   30.3236   49.7421 H   0  0  0  0  0  0  0  0  0  0  0  0
   47.8398   28.8852   48.4093 H   0  0  0  0  0  0  0  0  0  0  0  0
   48.7759   28.2273   46.3246 H   0  0  0  0  0  0  0  0  0  0  0  0
   48.4410   29.5293   44.4154 H   0  0  0  0  0  0  0  0  0  0  0  0
   43.6682   36.2226   45.2998 H   0  0  0  0  0  0  0  0  0  0  0  0
   46.7113   34.8208   42.6435 H   0  0  0  0  0  0  0  0  0  0  0  0
   44.7876   36.3234   42.0017 H   0  0  0  0  0  0  0  0  0  0  0  0
   44.5389   37.5896   43.4533 H   0  0  0  0  0  0  0  0  0  0  0  0
   47.4406   30.2249   41.6444 H   0  0  0  0  0  0  0  0  0  0  0  0
   48.1256   30.9108   41.9801 N   0  0  0  0  0  0  0  0  0  0  0  0
   47.9386   31.5350   43.1133 C   0  0  0  0  0  0  0  0  0  0  0  0
   49.0947   32.2615   43.1782 N   0  0  0  0  0  0  0  0  0  0  0  0
   49.8900   32.0604   42.1377 C   0  0  0  0  0  0  0  0  0  0  0  0
   51.1418   32.5452   41.7382 C   0  0  0  0  0  0  0  0  0  0  0  0
   51.8173   33.4846   42.5714 N   0  0  0  0  0  0  0  0  0  0  0  0
   51.2984   34.4113   42.5697 H   0  0  0  0  0  0  0  0  0  0  0  0
   51.6638   32.0939   40.5606 N   0  0  0  0  0  0  0  0  0  0  0  0
   50.9818   31.1951   39.7962 C   0  0  0  0  0  0  0  0  0  0  0  0
   51.4820   30.8902   38.8652 H   0  0  0  0  0  0  0  0  0  0  0  0
   49.7630   30.7095   40.1643 N   0  0  0  0  0  0  0  0  0  0  0  0
   49.2553   31.1571   41.3230 C   0  0  0  0  0  0  0  0  0  0  0  0
   52.6840   33.4254   43.1508 H   0  0  0  0  0  0  0  0  0  0  0  0
  1  2  2  0
  2  3  1  0
  4  3  2  0
  5  4  1  0
  6  5  2  0
  7  6  1  0
  8  9  1  0
  8  7  2  0
  9 10  2  0
 10  1  1  0
 10  5  1  0
 11 16  2  0
 12 11  1  0
 13 12  2  0
 13 14  1  0
 14 15  2  0
 15 16  1  0
 15  1  1  0
 17 12  1  0
 18  9  1  0
  2 19  1  0
  3 20  1  0
  4 21  1  0
  6 22  1  0
  7 23  1  0
  8 24  1  0
 11 25  1  0
 13 26  1  0
 17 27  1  0
 17 28  1  0
 29 30  1  0
 30 31  1  0
 31 32  2  0
 32 33  1  0
 33 34  2  0
 34 35  1  0
 35 36  1  0
 34 37  1  0
 37 38  2  0
 38 39  1  0
 38 40  1  0
 40 41  2  0
 41 30  1  0
 41 33  1  0
 35 42  1  0
 18 31  1  0
M  ISO  8  19  14  20  14  21  14  22  14  23  14  24  14  25  14  26  14
M  ISO  3  29   9  36   5  39  16
M  END
>  <DihAtoms>  (1) 
8,17,30,29

>  <DihDeg>  (1) 
-13.160515527981662

$$$$
