
 OpenBabel03242523313D

 27 29  0  0  0  0  0  0  0  0999 V2000
   48.0580   34.0120   44.5740 H   0  0  0  0  0  0  0  0  0  0  0  0
   47.5040   34.0470   43.6880 N   0  0  0  0  0  0  0  0  0  0  0  0
   47.9660   33.5340   42.5360 C   0  0  0  0  0  0  0  0  0  0  0  0
   47.0140   33.7450   41.6070 N   0  0  0  0  0  0  0  0  0  0  0  0
   45.9920   34.3720   42.1810 C   0  0  0  0  0  0  0  0  0  0  0  0
   44.7870   34.8110   41.6770 C   0  0  0  0  0  0  0  0  0  0  0  0
   43.9100   35.4330   42.4980 N   0  0  0  0  0  0  0  0  0  0  0  0
   44.2410   35.6130   43.8100 C   0  0  0  0  0  0  0  0  0  0  0  0
   43.4570   36.1220   44.3570 H   0  0  0  0  0  0  0  0  0  0  0  0
   45.4100   35.1920   44.3110 N   0  0  0  0  0  0  0  0  0  0  0  0
   46.2850   34.5760   43.5140 C   0  0  0  0  0  0  0  0  0  0  0  0
   44.5190   34.5840   40.3000 N   0  0  0  0  0  0  0  0  0  0  0  0
   44.8060   33.6790   39.8280 H   0  0  0  0  0  0  0  0  0  0  0  0
   44.0740   35.0890   39.5090 H   0  0  0  0  0  0  0  0  0  0  0  0
   49.4820   32.7130   42.1120 S   0  0  0  0  0  0  0  0  0  0  0  0
   49.3470   31.7950   40.5520 C   0  0  0  0  0  0  0  0  0  0  0  0
   48.7860   30.8550   40.6780 H   0  0  0  0  0  0  0  0  0  0  0  0
   48.8320   32.4110   39.7570 H   0  0  0  0  0  0  0  0  0  0  0  0
   53.0170   31.2320   40.3840 C   0  0  0  0  0  0  0  0  0  0  0  0
   53.2530   31.2560   39.0210 C   0  0  0  0  0  0  0  0  0  0  0  0
   52.1610   31.4630   38.1910 C   0  0  0  0  0  0  0  0  0  0  0  0
   50.9160   31.6330   38.7130 N   0  0  0  0  0  0  0  0  0  0  0  0
   50.7250   31.6030   40.0540 C   0  0  0  0  0  0  0  0  0  0  0  0
   51.7760   31.4030   40.8640 N   0  0  0  0  0  0  0  0  0  0  0  0
   53.9040   31.0660   40.9800 H   0  0  0  0  0  0  0  0  0  0  0  0
   54.1830   31.1350   38.4820 H   0  0  0  0  0  0  0  0  0  0  0  0
   52.1970   31.5060   37.1000 H   0  0  0  0  0  0  0  0  0  0  0  0
  2  1  1  0  0  0  0
  3  2  1  0  0  0  0
  4  5  1  0  0  0  0
  4  3  2  0  0  0  0
  5 11  1  0  0  0  0
  6  5  2  0  0  0  0
  6  7  1  0  0  0  0
  7  8  2  0  0  0  0
  8 10  1  0  0  0  0
  8  9  1  0  0  0  0
 11  2  1  0  0  0  0
 11 10  2  0  0  0  0
 12  6  1  0  0  0  0
 13 12  1  0  0  0  0
 14 12  1  0  0  0  0
 15  3  1  0  0  0  0
 16 17  1  0  0  0  0
 16 15  1  0  0  0  0
 18 16  1  0  0  0  0
 19 24  1  0  0  0  0
 19 25  1  0  0  0  0
 20 19  2  0  0  0  0
 21 22  2  0  0  0  0
 21 20  1  0  0  0  0
 22 23  1  0  0  0  0
 23 16  1  0  0  0  0
 23 24  2  0  0  0  0
 26 20  1  0  0  0  0
 27 21  1  0  0  0  0
M  END
>  <minimizedAffinity>
-4.26877165

>  <minimizedRMSD>
8.72006035

$$$$
