
 OpenBabel03242521433D

 43 46  0  0  1  0  0  0  0  0999 V2000
   45.4870   34.6500   43.8890 C   0  0  0  0  0  0  0  0  0  0  0  0
   46.5630   33.9970   43.2660 C   0  0  0  0  0  0  0  0  0  0  0  0
   47.3130   33.0710   44.0030 C   0  0  0  0  0  0  0  0  0  0  0  0
   46.9580   32.8580   45.2670 N   0  0  0  0  0  0  0  0  0  0  0  0
   45.9180   33.4960   45.8530 C   0  0  0  0  0  0  0  0  0  0  0  0
   45.1810   34.3920   45.1650 N   0  0  0  0  0  0  0  0  0  0  0  0
   46.7560   34.2490   42.2400 H   0  0  0  0  0  0  0  0  0  0  0  0
   45.6950   33.2720   46.8710 H   0  0  0  0  0  0  0  0  0  0  0  0
   49.2390   33.3250   42.4490 C   0  0  2  0  0  0  0  0  0  0  0  0
   48.4180   32.4250   43.3040 C   0  0  2  0  0  0  0  0  0  0  0  0
   48.0050   31.4500   42.3480 O   0  0  0  0  0  0  0  0  0  0  0  0
   49.2070   31.0870   41.7670 C   0  0  0  0  0  0  0  0  0  0  0  0
   50.1560   32.2520   41.8230 C   0  0  1  0  0  0  0  0  0  0  0  0
   48.6750   33.7090   41.5560 H   0  0  0  0  0  0  0  0  0  0  0  0
   49.1010   31.8610   43.9900 H   0  0  0  0  0  0  0  0  0  0  0  0
   49.0270   30.8430   40.6990 H   0  0  0  0  0  0  0  0  0  0  0  0
   49.6400   30.2400   42.3090 H   0  0  0  0  0  0  0  0  0  0  0  0
   51.0200   32.0800   42.4970 H   0  0  0  0  0  0  0  0  0  0  0  0
   49.9100   34.3000   43.1220 O   0  0  0  0  0  0  0  0  0  0  0  0
   49.9770   35.1660   42.6570 H   0  0  0  0  0  0  0  0  0  0  0  0
   50.5710   32.6960   40.5720 O   0  0  0  0  0  0  0  0  0  0  0  0
   50.7010   33.6640   40.6350 H   0  0  0  0  0  0  0  0  0  0  0  0
   44.6970   35.6490   43.0840 C   0  0  0  0  0  0  0  0  0  0  0  0
   45.2240   35.8580   42.1440 H   0  0  0  0  0  0  0  0  0  0  0  0
   43.6690   35.2720   42.9570 H   0  0  0  0  0  0  0  0  0  0  0  0
   45.3810   38.0320   43.7780 C   0  0  0  0  0  0  0  0  0  0  0  0
   46.2590   38.0350   42.8760 O   0  0  0  0  0  0  0  0  0  0  0  0
   44.6140   36.8550   43.9010 N   0  0  0  0  0  0  0  0  0  0  0  0
   43.8930   36.8500   44.6780 H   0  0  0  0  0  0  0  0  0  0  0  0
   45.3280   38.3970   46.6450 H   0  0  0  0  0  0  0  0  0  0  0  0
   45.1550   39.1880   46.0090 N   0  0  0  0  0  0  0  0  0  0  0  0
   45.1470   39.1690   44.6610 C   0  0  0  0  0  0  0  0  0  0  0  0
   44.8780   40.4240   44.2570 N   0  0  0  0  0  0  0  0  0  0  0  0
   44.7150   41.2390   45.3180 C   0  0  0  0  0  0  0  0  0  0  0  0
   44.4300   42.5900   45.3530 C   0  0  0  0  0  0  0  0  0  0  0  0
   44.3300   43.1130   46.6030 N   0  0  0  0  0  0  0  0  0  0  0  0
   44.4930   42.3870   47.7200 C   0  0  0  0  0  0  0  0  0  0  0  0
   44.4060   42.8430   48.7090 H   0  0  0  0  0  0  0  0  0  0  0  0
   44.7740   41.0570   47.6590 N   0  0  0  0  0  0  0  0  0  0  0  0
   44.8910   40.4540   46.4400 C   0  0  0  0  0  0  0  0  0  0  0  0
   44.2540   43.3700   44.1700 N   0  0  0  0  0  0  0  0  0  0  0  0
   44.0490   42.8200   43.2940 H   0  0  0  0  0  0  0  0  0  0  0  0
   44.3490   44.4050   44.3130 H   0  0  0  0  0  0  0  0  0  0  0  0
  1  6  1  0  0  0  0
  2  1  2  0  0  0  0
  2  3  1  0  0  0  0
  3  4  2  0  0  0  0
  4  5  1  0  0  0  0
  5  8  1  0  0  0  0
  6  5  2  0  0  0  0
  7  2  1  0  0  0  0
  9 14  1  6  0  0  0
  9 19  1  0  0  0  0
  9 10  1  0  0  0  0
 10 15  1  1  0  0  0
 10  3  1  0  0  0  0
 11 10  1  0  0  0  0
 12 13  1  0  0  0  0
 12 17  1  0  0  0  0
 12 11  1  0  0  0  0
 13  9  1  0  0  0  0
 13 18  1  1  0  0  0
 16 12  1  0  0  0  0
 20 19  1  0  0  0  0
 21 22  1  0  0  0  0
 21 13  1  0  0  0  0
 23  1  1  0  0  0  0
 23 28  1  0  0  0  0
 24 23  1  0  0  0  0
 25 23  1  0  0  0  0
 26 28  1  0  0  0  0
 26 32  1  0  0  0  0
 27 26  2  0  0  0  0
 28 29  1  0  0  0  0
 31 40  1  0  0  0  0
 31 30  1  0  0  0  0
 32 31  1  0  0  0  0
 33 32  2  0  0  0  0
 33 34  1  0  0  0  0
 34 35  2  0  0  0  0
 34 40  1  0  0  0  0
 35 36  1  0  0  0  0
 36 37  2  0  0  0  0
 37 38  1  0  0  0  0
 39 37  1  0  0  0  0
 40 39  2  0  0  0  0
 41 43  1  0  0  0  0
 41 35  1  0  0  0  0
 42 41  1  0  0  0  0
M  END
>  <minimizedAffinity>
-2.90641427

>  <minimizedRMSD>
1.47093356

$$$$
