
     RDKit          3D

 41 45  0  0  0  0  0  0  0  0999 V2000
   45.2153   36.1782   43.4971 C   0  0  0  0  0  0  0  0  0  0  0  0
   45.8644   34.9750   43.1623 C   0  0  0  0  0  0  0  0  0  0  0  0
   45.8117   33.9986   44.1359 C   0  0  0  0  0  0  0  0  0  0  0  0
   45.1902   34.1820   45.3098 N   0  0  0  0  0  0  0  0  0  0  0  0
   44.5786   35.3604   45.5860 C   0  0  0  0  0  0  0  0  0  0  0  0
   44.5951   36.3486   44.6798 N   0  0  0  0  0  0  0  0  0  0  0  0
   46.4403   32.7540   43.8878 C   0  0  0  0  0  0  0  0  0  0  0  0
   47.7120   32.2729   44.0067 C   0  0  0  0  0  0  0  0  0  0  0  0
   48.0296   31.0331   43.6965 C   0  0  0  0  0  0  0  0  0  0  0  0
   47.0303   30.2431   43.2485 C   0  0  0  0  0  0  0  0  0  0  0  0
   45.5621   31.3310   43.2728 S   0  0  0  0  0  0  0  0  0  0  0  0
   46.5082   34.8310   41.9068 C   0  0  0  0  0  0  0  0  0  0  0  0
   47.7145   35.2531   41.8605 O   0  0  0  0  0  0  0  0  0  0  0  0
   45.7890   34.2241   40.7508 C   0  0  0  0  0  0  0  0  0  0  0  0
   44.4364   34.3220   40.4901 C   0  0  0  0  0  0  0  0  0  0  0  0
   44.2327   33.6292   39.3575 N   0  0  0  0  0  0  0  0  0  0  0  0
   45.4280   33.1214   38.9370 C   0  0  0  0  0  0  0  0  0  0  0  0
   46.3887   33.4912   39.8010 N   0  0  0  0  0  0  0  0  0  0  0  0
   45.7328   32.3250   37.8020 N   0  0  0  0  0  0  0  0  0  0  0  0
   45.2007   37.0140   42.7917 H   0  0  0  0  0  0  0  0  0  0  0  0
   44.0953   35.4722   46.5263 H   0  0  0  0  0  0  0  0  0  0  0  0
   48.4343   33.0257   44.3858 H   0  0  0  0  0  0  0  0  0  0  0  0
   49.0210   30.6027   43.7722 H   0  0  0  0  0  0  0  0  0  0  0  0
   47.0800   29.1355   42.9228 H   0  0  0  0  0  0  0  0  0  0  0  0
   43.7246   34.8444   41.0805 H   0  0  0  0  0  0  0  0  0  0  0  0
   45.5638   31.3187   38.0601 H   0  0  0  0  0  0  0  0  0  0  0  0
   46.0621   32.7738   36.9112 H   0  0  0  0  0  0  0  0  0  0  0  0
   41.8407   35.1937   39.1133 H   0  0  0  0  0  0  0  0  0  0  0  0
   41.9499   34.2751   38.6605 N   0  0  0  0  0  0  0  0  0  0  0  0
   42.9948   33.4362   38.6820 C   0  0  0  0  0  0  0  0  0  0  0  0
   42.6794   32.3538   37.9440 N   0  0  0  0  0  0  0  0  0  0  0  0
   41.4487   32.4843   37.4491 C   0  0  0  0  0  0  0  0  0  0  0  0
   40.6050   31.7340   36.6497 C   0  0  0  0  0  0  0  0  0  0  0  0
   41.0857   30.4872   36.1881 N   0  0  0  0  0  0  0  0  0  0  0  0
   41.5421   29.8849   36.8856 H   0  0  0  0  0  0  0  0  0  0  0  0
   39.3688   32.1284   36.2967 N   0  0  0  0  0  0  0  0  0  0  0  0
   38.9371   33.3264   36.7541 C   0  0  0  0  0  0  0  0  0  0  0  0
   37.9969   33.8349   36.5998 H   0  0  0  0  0  0  0  0  0  0  0  0
   39.7436   34.0751   37.5354 N   0  0  0  0  0  0  0  0  0  0  0  0
   40.9809   33.6915   37.8949 C   0  0  0  0  0  0  0  0  0  0  0  0
   41.2134   29.8191   35.4078 H   0  0  0  0  0  0  0  0  0  0  0  0
  1  6  2  0
  2  1  1  0
  2  3  2  0
  3  4  1  0
  4  5  2  0
  6  5  1  0
  7  8  2  0
  7  3  1  0
  9  8  1  0
 10 11  1  0
 10  9  2  0
 11  7  1  0
 12  2  1  0
 13 12  2  0
 14 12  1  0
 15 14  2  0
 16 15  1  0
 17 16  1  0
 17 18  2  0
 18 14  1  0
 19 17  1  0
  1 20  1  0
  5 21  1  0
  8 22  1  0
  9 23  1  0
 10 24  1  0
 15 25  1  0
 19 26  1  0
 19 27  1  0
 28 29  1  0
 29 30  1  0
 30 31  2  0
 31 32  1  0
 32 33  2  0
 33 34  1  0
 34 35  1  0
 33 36  1  0
 36 37  2  0
 37 38  1  0
 37 39  1  0
 39 40  2  0
 40 29  1  0
 40 32  1  0
 34 41  1  0
 16 30  1  0
M  ISO  8  20  14  21  14  22  14  23  14  24  14  25  14  28   9  35   5
M  ISO  1  38  16
M  END
>  <DihAtoms>  (1) 
14,15,29,28

>  <DihDeg>  (1) 
-179.99996802492922

$$$$
