
 OpenBabel03252503173D

 41 45  0  0  0  0  0  0  0  0999 V2000
   38.2870   31.9070   40.5240 C   0  0  0  0  0  0  0  0  0  0  0  0
   39.0590   30.8200   40.8860 C   0  0  0  0  0  0  0  0  0  0  0  0
   38.1910   29.8600   41.2410 N   0  0  0  0  0  0  0  0  0  0  0  0
   36.9230   30.3450   41.1020 C   0  0  0  0  0  0  0  0  0  0  0  0
   36.9860   31.6120   40.6580 N   0  0  0  0  0  0  0  0  0  0  0  0
   35.6730   29.7180   41.3490 N   0  0  0  0  0  0  0  0  0  0  0  0
   40.1200   30.7800   40.8740 H   0  0  0  0  0  0  0  0  0  0  0  0
   35.4050   29.1830   40.4830 H   0  0  0  0  0  0  0  0  0  0  0  0
   35.1920   29.8400   42.2750 H   0  0  0  0  0  0  0  0  0  0  0  0
   39.6770   28.8280   43.4680 H   0  0  0  0  0  0  0  0  0  0  0  0
   39.2240   28.2180   42.7740 N   0  0  0  0  0  0  0  0  0  0  0  0
   38.5040   28.5470   41.6930 C   0  0  0  0  0  0  0  0  0  0  0  0
   38.1140   27.4090   41.0860 N   0  0  0  0  0  0  0  0  0  0  0  0
   38.5710   26.3540   41.7600 C   0  0  0  0  0  0  0  0  0  0  0  0
   38.5030   24.9780   41.6350 C   0  0  0  0  0  0  0  0  0  0  0  0
   39.0830   24.1230   42.4970 N   0  0  0  0  0  0  0  0  0  0  0  0
   39.7690   24.6490   43.5380 C   0  0  0  0  0  0  0  0  0  0  0  0
   40.3040   24.1610   44.3390 H   0  0  0  0  0  0  0  0  0  0  0  0
   39.8480   25.9890   43.6800 N   0  0  0  0  0  0  0  0  0  0  0  0
   39.2730   26.8530   42.8250 C   0  0  0  0  0  0  0  0  0  0  0  0
   37.7810   24.4600   40.5360 N   0  0  0  0  0  0  0  0  0  0  0  0
   37.9670   24.8900   39.6210 H   0  0  0  0  0  0  0  0  0  0  0  0
   37.0830   23.7880   40.1700 H   0  0  0  0  0  0  0  0  0  0  0  0
   38.7930   33.2270   40.0520 C   0  0  0  0  0  0  0  0  0  0  0  0
   38.2420   34.3490   40.3270 O   0  0  0  0  0  0  0  0  0  0  0  0
   41.0050   34.1790   39.5850 C   0  0  0  0  0  0  0  0  0  0  0  0
   39.9550   33.3070   39.2420 C   0  0  0  0  0  0  0  0  0  0  0  0
   40.1630   32.5750   38.0910 C   0  0  0  0  0  0  0  0  0  0  0  0
   41.2800   32.6840   37.3570 N   0  0  0  0  0  0  0  0  0  0  0  0
   42.2640   33.5400   37.7290 C   0  0  0  0  0  0  0  0  0  0  0  0
   42.1210   34.2800   38.8380 N   0  0  0  0  0  0  0  0  0  0  0  0
   40.9350   34.8040   40.4790 H   0  0  0  0  0  0  0  0  0  0  0  0
   43.1360   33.6020   37.1240 H   0  0  0  0  0  0  0  0  0  0  0  0
   39.1580   31.6710   37.6670 C   0  0  0  0  0  0  0  0  0  0  0  0
   37.8930   31.7970   37.1710 C   0  0  0  0  0  0  0  0  0  0  0  0
   37.1550   30.7550   36.8470 C   0  0  0  0  0  0  0  0  0  0  0  0
   37.7100   29.5370   37.0270 C   0  0  0  0  0  0  0  0  0  0  0  0
   39.3710   29.9020   37.6940 S   0  0  0  0  0  0  0  0  0  0  0  0
   37.5610   32.8510   37.0740 H   0  0  0  0  0  0  0  0  0  0  0  0
   36.1470   30.8000   36.4510 H   0  0  0  0  0  0  0  0  0  0  0  0
   37.2500   28.4990   36.8120 H   0  0  0  0  0  0  0  0  0  0  0  0
  1  5  1  0  0  0  0
  1  2  2  0  0  0  0
  2  3  1  0  0  0  0
  3 12  1  0  0  0  0
  4  3  1  0  0  0  0
  4  6  1  0  0  0  0
  5  4  2  0  0  0  0
  6  9  1  0  0  0  0
  7  2  1  0  0  0  0
  8  6  1  0  0  0  0
 11 20  1  0  0  0  0
 11 10  1  0  0  0  0
 12 11  1  0  0  0  0
 13 12  2  0  0  0  0
 13 14  1  0  0  0  0
 14 20  1  0  0  0  0
 15 14  2  0  0  0  0
 15 16  1  0  0  0  0
 16 17  2  0  0  0  0
 17 19  1  0  0  0  0
 17 18  1  0  0  0  0
 20 19  2  0  0  0  0
 21 15  1  0  0  0  0
 22 21  1  0  0  0  0
 23 21  1  0  0  0  0
 24 25  2  0  0  0  0
 24  1  1  0  0  0  0
 26 32  1  0  0  0  0
 27 26  1  0  0  0  0
 27 24  1  0  0  0  0
 28 27  2  0  0  0  0
 29 30  2  0  0  0  0
 29 28  1  0  0  0  0
 30 31  1  0  0  0  0
 31 26  2  0  0  0  0
 33 30  1  0  0  0  0
 34 38  1  0  0  0  0
 34 28  1  0  0  0  0
 35 34  2  0  0  0  0
 36 37  2  0  0  0  0
 36 35  1  0  0  0  0
 37 38  1  0  0  0  0
 39 35  1  0  0  0  0
 40 36  1  0  0  0  0
 41 37  1  0  0  0  0
M  END
>  <minimizedAffinity>
-6.74042892

$$$$

 OpenBabel03252503173D

 41 45  0  0  0  0  0  0  0  0999 V2000
   37.2630   29.9360   38.5650 C   0  0  0  0  0  0  0  0  0  0  0  0
   38.6380   29.8470   38.6730 C   0  0  0  0  0  0  0  0  0  0  0  0
   39.1300   30.7360   37.7950 N   0  0  0  0  0  0  0  0  0  0  0  0
   38.0860   31.3520   37.1660 C   0  0  0  0  0  0  0  0  0  0  0  0
   36.9330   30.8550   37.6450 N   0  0  0  0  0  0  0  0  0  0  0  0
   38.0880   32.3580   36.1650 N   0  0  0  0  0  0  0  0  0  0  0  0
   39.1700   29.2010   39.3260 H   0  0  0  0  0  0  0  0  0  0  0  0
   38.1570   33.2910   36.6470 H   0  0  0  0  0  0  0  0  0  0  0  0
   38.0280   32.0970   35.1490 H   0  0  0  0  0  0  0  0  0  0  0  0
   41.3360   29.1540   36.8690 H   0  0  0  0  0  0  0  0  0  0  0  0
   41.4290   30.1530   37.0980 N   0  0  0  0  0  0  0  0  0  0  0  0
   40.5010   31.0150   37.5350 C   0  0  0  0  0  0  0  0  0  0  0  0
   41.0880   32.2170   37.6960 N   0  0  0  0  0  0  0  0  0  0  0  0
   42.3770   32.1420   37.3680 C   0  0  0  0  0  0  0  0  0  0  0  0
   43.4540   33.0090   37.3270 C   0  0  0  0  0  0  0  0  0  0  0  0
   44.6890   32.6450   36.9400 N   0  0  0  0  0  0  0  0  0  0  0  0
   44.8770   31.3560   36.5730 C   0  0  0  0  0  0  0  0  0  0  0  0
   45.7690   30.8510   36.2330 H   0  0  0  0  0  0  0  0  0  0  0  0
   43.8410   30.4920   36.6050 N   0  0  0  0  0  0  0  0  0  0  0  0
   42.6030   30.8450   36.9900 C   0  0  0  0  0  0  0  0  0  0  0  0
   43.2240   34.3480   37.7180 N   0  0  0  0  0  0  0  0  0  0  0  0
   42.6890   34.4880   38.5850 H   0  0  0  0  0  0  0  0  0  0  0  0
   43.3470   35.3600   37.5340 H   0  0  0  0  0  0  0  0  0  0  0  0
   36.2670   29.1440   39.3400 C   0  0  0  0  0  0  0  0  0  0  0  0
   35.4210   29.6520   40.1540 O   0  0  0  0  0  0  0  0  0  0  0  0
   35.6710   27.1470   38.0460 C   0  0  0  0  0  0  0  0  0  0  0  0
   36.2070   27.7330   39.2080 C   0  0  0  0  0  0  0  0  0  0  0  0
   36.6460   26.8350   40.1600 C   0  0  0  0  0  0  0  0  0  0  0  0
   36.5680   25.5070   39.9890 N   0  0  0  0  0  0  0  0  0  0  0  0
   36.0430   24.9910   38.8520 C   0  0  0  0  0  0  0  0  0  0  0  0
   35.5980   25.8120   37.8890 N   0  0  0  0  0  0  0  0  0  0  0  0
   35.2950   27.7750   37.2330 H   0  0  0  0  0  0  0  0  0  0  0  0
   35.9960   23.9340   38.7490 H   0  0  0  0  0  0  0  0  0  0  0  0
   37.1990   27.3330   41.3640 C   0  0  0  0  0  0  0  0  0  0  0  0
   36.6980   27.6930   42.5820 C   0  0  0  0  0  0  0  0  0  0  0  0
   37.4630   28.1380   43.5570 C   0  0  0  0  0  0  0  0  0  0  0  0
   38.7860   28.2270   43.2990 C   0  0  0  0  0  0  0  0  0  0  0  0
   38.9410   27.6430   41.5750 S   0  0  0  0  0  0  0  0  0  0  0  0
   35.5970   27.5710   42.6580 H   0  0  0  0  0  0  0  0  0  0  0  0
   37.1160   28.4360   44.5390 H   0  0  0  0  0  0  0  0  0  0  0  0
   39.6310   28.5870   43.9990 H   0  0  0  0  0  0  0  0  0  0  0  0
  1  2  2  0  0  0  0
  1 24  1  0  0  0  0
  2  7  1  0  0  0  0
  3  2  1  0  0  0  0
  4  5  2  0  0  0  0
  4  3  1  0  0  0  0
  5  1  1  0  0  0  0
  6  8  1  0  0  0  0
  6  4  1  0  0  0  0
  9  6  1  0  0  0  0
 10 11  1  0  0  0  0
 11 12  1  0  0  0  0
 12 13  2  0  0  0  0
 12  3  1  0  0  0  0
 14 13  1  0  0  0  0
 15 14  1  0  0  0  0
 15 21  1  0  0  0  0
 16 15  2  0  0  0  0
 17 19  2  0  0  0  0
 17 16  1  0  0  0  0
 18 17  1  0  0  0  0
 19 20  1  0  0  0  0
 20 11  1  0  0  0  0
 20 14  2  0  0  0  0
 21 22  1  0  0  0  0
 23 21  1  0  0  0  0
 24 25  2  0  0  0  0
 26 27  1  0  0  0  0
 27 24  1  0  0  0  0
 27 28  2  0  0  0  0
 28 34  1  0  0  0  0
 29 28  1  0  0  0  0
 30 29  2  0  0  0  0
 31 26  2  0  0  0  0
 31 30  1  0  0  0  0
 32 26  1  0  0  0  0
 33 30  1  0  0  0  0
 34 38  1  0  0  0  0
 34 35  2  0  0  0  0
 35 39  1  0  0  0  0
 35 36  1  0  0  0  0
 36 40  1  0  0  0  0
 37 36  2  0  0  0  0
 37 41  1  0  0  0  0
 38 37  1  0  0  0  0
M  END
>  <minimizedAffinity>
-6.67810154

$$$$

 OpenBabel03252503173D

 41 45  0  0  0  0  0  0  0  0999 V2000
   36.7190   30.2340   39.7130 C   0  0  0  0  0  0  0  0  0  0  0  0
   38.0230   30.2810   39.2580 C   0  0  0  0  0  0  0  0  0  0  0  0
   38.4130   31.5580   39.4050 N   0  0  0  0  0  0  0  0  0  0  0  0
   37.3790   32.2720   39.9350 C   0  0  0  0  0  0  0  0  0  0  0  0
   36.3320   31.4510   40.1250 N   0  0  0  0  0  0  0  0  0  0  0  0
   37.2980   33.6490   40.2740 N   0  0  0  0  0  0  0  0  0  0  0  0
   38.5780   29.4610   38.8760 H   0  0  0  0  0  0  0  0  0  0  0  0
   37.6820   33.7630   41.2470 H   0  0  0  0  0  0  0  0  0  0  0  0
   36.9050   34.3420   39.5900 H   0  0  0  0  0  0  0  0  0  0  0  0
   39.9130   31.7650   36.9680 H   0  0  0  0  0  0  0  0  0  0  0  0
   40.2620   32.1290   37.8650 N   0  0  0  0  0  0  0  0  0  0  0  0
   39.6840   32.1080   39.0740 C   0  0  0  0  0  0  0  0  0  0  0  0
   40.5170   32.7050   39.9480 N   0  0  0  0  0  0  0  0  0  0  0  0
   41.6210   33.1100   39.3210 C   0  0  0  0  0  0  0  0  0  0  0  0
   42.7920   33.7580   39.6700 C   0  0  0  0  0  0  0  0  0  0  0  0
   43.7720   34.0480   38.7940 N   0  0  0  0  0  0  0  0  0  0  0  0
   43.5900   33.6800   37.5050 C   0  0  0  0  0  0  0  0  0  0  0  0
   44.2320   33.8090   36.6460 H   0  0  0  0  0  0  0  0  0  0  0  0
   42.4550   33.0460   37.1420 N   0  0  0  0  0  0  0  0  0  0  0  0
   41.4700   32.7510   38.0080 C   0  0  0  0  0  0  0  0  0  0  0  0
   42.9510   34.1280   41.0250 N   0  0  0  0  0  0  0  0  0  0  0  0
   42.7200   33.4120   41.7260 H   0  0  0  0  0  0  0  0  0  0  0  0
   43.2150   34.8450   41.7240 H   0  0  0  0  0  0  0  0  0  0  0  0
   35.8450   29.0280   39.7540 C   0  0  0  0  0  0  0  0  0  0  0  0
   34.6480   29.0230   40.2070 O   0  0  0  0  0  0  0  0  0  0  0  0
   36.0440   27.3720   37.9560 C   0  0  0  0  0  0  0  0  0  0  0  0
   36.3160   27.7790   39.2750 C   0  0  0  0  0  0  0  0  0  0  0  0
   37.0510   26.8780   40.0180 C   0  0  0  0  0  0  0  0  0  0  0  0
   37.4750   25.7070   39.5210 N   0  0  0  0  0  0  0  0  0  0  0  0
   37.1870   25.3600   38.2430 C   0  0  0  0  0  0  0  0  0  0  0  0
   36.4750   26.1930   37.4690 N   0  0  0  0  0  0  0  0  0  0  0  0
   35.4670   28.0160   37.2860 H   0  0  0  0  0  0  0  0  0  0  0  0
   37.5390   24.4250   37.8800 H   0  0  0  0  0  0  0  0  0  0  0  0
   37.3720   27.2020   41.3600 C   0  0  0  0  0  0  0  0  0  0  0  0
   36.6700   27.2840   42.5270 C   0  0  0  0  0  0  0  0  0  0  0  0
   37.2350   27.6180   43.6690 C   0  0  0  0  0  0  0  0  0  0  0  0
   38.5600   27.8810   43.6370 C   0  0  0  0  0  0  0  0  0  0  0  0
   39.0180   27.6360   41.8850 S   0  0  0  0  0  0  0  0  0  0  0  0
   35.5920   27.0440   42.4120 H   0  0  0  0  0  0  0  0  0  0  0  0
   36.7250   27.6990   44.6210 H   0  0  0  0  0  0  0  0  0  0  0  0
   39.2530   28.1870   44.5090 H   0  0  0  0  0  0  0  0  0  0  0  0
  1 24  1  0  0  0  0
  1  5  1  0  0  0  0
  2  3  1  0  0  0  0
  2  1  2  0  0  0  0
  3  4  1  0  0  0  0
  4  5  2  0  0  0  0
  4  6  1  0  0  0  0
  6  8  1  0  0  0  0
  7  2  1  0  0  0  0
  9  6  1  0  0  0  0
 10 11  1  0  0  0  0
 11 20  1  0  0  0  0
 11 12  1  0  0  0  0
 12  3  1  0  0  0  0
 12 13  2  0  0  0  0
 14 15  1  0  0  0  0
 14 13  1  0  0  0  0
 15 21  1  0  0  0  0
 16 15  2  0  0  0  0
 17 16  1  0  0  0  0
 18 17  1  0  0  0  0
 19 17  2  0  0  0  0
 19 20  1  0  0  0  0
 20 14  2  0  0  0  0
 21 23  1  0  0  0  0
 21 22  1  0  0  0  0
 24 25  2  0  0  0  0
 26 27  1  0  0  0  0
 27 24  1  0  0  0  0
 27 28  2  0  0  0  0
 28 34  1  0  0  0  0
 29 28  1  0  0  0  0
 30 29  2  0  0  0  0
 31 26  2  0  0  0  0
 31 30  1  0  0  0  0
 32 26  1  0  0  0  0
 33 30  1  0  0  0  0
 34 38  1  0  0  0  0
 34 35  2  0  0  0  0
 35 36  1  0  0  0  0
 36 40  1  0  0  0  0
 37 36  2  0  0  0  0
 37 41  1  0  0  0  0
 38 37  1  0  0  0  0
 39 35  1  0  0  0  0
M  END
>  <minimizedAffinity>
-6.63786411

$$$$

 OpenBabel03252503173D

 41 45  0  0  0  0  0  0  0  0999 V2000
   38.4270   31.3300   40.1780 C   0  0  0  0  0  0  0  0  0  0  0  0
   39.3810   30.6210   39.4730 C   0  0  0  0  0  0  0  0  0  0  0  0
   40.2140   31.5420   38.9640 N   0  0  0  0  0  0  0  0  0  0  0  0
   39.7830   32.7800   39.3460 C   0  0  0  0  0  0  0  0  0  0  0  0
   38.6770   32.6450   40.0970 N   0  0  0  0  0  0  0  0  0  0  0  0
   40.3230   34.0620   39.0640 N   0  0  0  0  0  0  0  0  0  0  0  0
   39.4220   29.5650   39.3720 H   0  0  0  0  0  0  0  0  0  0  0  0
   41.0670   34.2620   39.7810 H   0  0  0  0  0  0  0  0  0  0  0  0
   39.9640   34.6240   38.2530 H   0  0  0  0  0  0  0  0  0  0  0  0
   40.6250   30.2940   36.4140 H   0  0  0  0  0  0  0  0  0  0  0  0
   41.3960   30.6960   36.9640 N   0  0  0  0  0  0  0  0  0  0  0  0
   41.3630   31.3050   38.1570 C   0  0  0  0  0  0  0  0  0  0  0  0
   42.6200   31.6650   38.4800 N   0  0  0  0  0  0  0  0  0  0  0  0
   43.4610   31.2980   37.5130 C   0  0  0  0  0  0  0  0  0  0  0  0
   44.8220   31.3880   37.2810 C   0  0  0  0  0  0  0  0  0  0  0  0
   45.4200   30.9120   36.1740 N   0  0  0  0  0  0  0  0  0  0  0  0
   44.6390   30.3130   35.2460 C   0  0  0  0  0  0  0  0  0  0  0  0
   44.9000   29.8660   34.2980 H   0  0  0  0  0  0  0  0  0  0  0  0
   43.3090   30.2140   35.4530 N   0  0  0  0  0  0  0  0  0  0  0  0
   42.7000   30.6860   36.5540 C   0  0  0  0  0  0  0  0  0  0  0  0
   45.6100   32.0190   38.2700 N   0  0  0  0  0  0  0  0  0  0  0  0
   45.4350   31.7390   39.2440 H   0  0  0  0  0  0  0  0  0  0  0  0
   46.3550   32.6960   38.5130 H   0  0  0  0  0  0  0  0  0  0  0  0
   37.2770   30.7500   40.9290 C   0  0  0  0  0  0  0  0  0  0  0  0
   36.1720   31.3610   41.1350 O   0  0  0  0  0  0  0  0  0  0  0  0
   38.0520   29.2080   42.6710 C   0  0  0  0  0  0  0  0  0  0  0  0
   37.3550   29.4420   41.4710 C   0  0  0  0  0  0  0  0  0  0  0  0
   36.7860   28.3200   40.9040 C   0  0  0  0  0  0  0  0  0  0  0  0
   36.8880   27.1010   41.4550 N   0  0  0  0  0  0  0  0  0  0  0  0
   37.5700   26.9270   42.6130 C   0  0  0  0  0  0  0  0  0  0  0  0
   38.1470   27.9790   43.2130 N   0  0  0  0  0  0  0  0  0  0  0  0
   38.5400   30.0330   43.1980 H   0  0  0  0  0  0  0  0  0  0  0  0
   37.6310   25.9480   43.0230 H   0  0  0  0  0  0  0  0  0  0  0  0
   36.0660   28.4590   39.6930 C   0  0  0  0  0  0  0  0  0  0  0  0
   34.7850   28.7950   39.3640 C   0  0  0  0  0  0  0  0  0  0  0  0
   34.3670   28.8500   38.1160 C   0  0  0  0  0  0  0  0  0  0  0  0
   35.2730   28.5530   37.1580 C   0  0  0  0  0  0  0  0  0  0  0  0
   36.7980   28.1790   38.0930 S   0  0  0  0  0  0  0  0  0  0  0  0
   34.1460   29.0140   40.2450 H   0  0  0  0  0  0  0  0  0  0  0  0
   33.3640   29.1100   37.8020 H   0  0  0  0  0  0  0  0  0  0  0  0
   35.1280   28.5380   36.0130 H   0  0  0  0  0  0  0  0  0  0  0  0
  1 24  1  0  0  0  0
  2  1  2  0  0  0  0
  3  4  1  0  0  0  0
  3  2  1  0  0  0  0
  4  5  2  0  0  0  0
  5  1  1  0  0  0  0
  6  4  1  0  0  0  0
  6  8  1  0  0  0  0
  7  2  1  0  0  0  0
  9  6  1  0  0  0  0
 10 11  1  0  0  0  0
 11 12  1  0  0  0  0
 12 13  2  0  0  0  0
 12  3  1  0  0  0  0
 14 13  1  0  0  0  0
 15 14  1  0  0  0  0
 15 21  1  0  0  0  0
 16 15  2  0  0  0  0
 17 19  2  0  0  0  0
 17 16  1  0  0  0  0
 18 17  1  0  0  0  0
 19 20  1  0  0  0  0
 20 11  1  0  0  0  0
 20 14  2  0  0  0  0
 21 23  1  0  0  0  0
 21 22  1  0  0  0  0
 24 25  2  0  0  0  0
 24 27  1  0  0  0  0
 26 32  1  0  0  0  0
 26 31  1  0  0  0  0
 27 26  2  0  0  0  0
 28 29  2  0  0  0  0
 28 27  1  0  0  0  0
 29 30  1  0  0  0  0
 30 33  1  0  0  0  0
 30 31  2  0  0  0  0
 34 28  1  0  0  0  0
 35 34  2  0  0  0  0
 35 39  1  0  0  0  0
 36 35  1  0  0  0  0
 37 38  1  0  0  0  0
 37 36  2  0  0  0  0
 38 34  1  0  0  0  0
 40 36  1  0  0  0  0
 41 37  1  0  0  0  0
M  END
>  <minimizedAffinity>
-6.55458212

$$$$

 OpenBabel03252503173D

 41 45  0  0  0  0  0  0  0  0999 V2000
   36.9040   30.3030   40.4350 C   0  0  0  0  0  0  0  0  0  0  0  0
   38.2770   30.2320   40.3030 C   0  0  0  0  0  0  0  0  0  0  0  0
   38.7030   31.5040   40.2460 N   0  0  0  0  0  0  0  0  0  0  0  0
   37.6220   32.3310   40.3400 C   0  0  0  0  0  0  0  0  0  0  0  0
   36.5100   31.5850   40.4560 N   0  0  0  0  0  0  0  0  0  0  0  0
   37.5530   33.7490   40.3290 N   0  0  0  0  0  0  0  0  0  0  0  0
   38.8520   29.3410   40.2600 H   0  0  0  0  0  0  0  0  0  0  0  0
   37.7100   34.0860   41.3130 H   0  0  0  0  0  0  0  0  0  0  0  0
   37.3710   34.2660   39.4320 H   0  0  0  0  0  0  0  0  0  0  0  0
   40.7300   31.1220   38.2520 H   0  0  0  0  0  0  0  0  0  0  0  0
   40.8870   31.6840   39.1000 N   0  0  0  0  0  0  0  0  0  0  0  0
   40.0480   31.9520   40.1100 C   0  0  0  0  0  0  0  0  0  0  0  0
   40.6950   32.7310   40.9980 N   0  0  0  0  0  0  0  0  0  0  0  0
   41.9370   32.9680   40.5750 C   0  0  0  0  0  0  0  0  0  0  0  0
   43.0350   33.6710   41.0350 C   0  0  0  0  0  0  0  0  0  0  0  0
   44.2050   33.7400   40.3750 N   0  0  0  0  0  0  0  0  0  0  0  0
   44.3010   33.0810   39.1970 C   0  0  0  0  0  0  0  0  0  0  0  0
   45.1290   32.9990   38.5090 H   0  0  0  0  0  0  0  0  0  0  0  0
   43.2410   32.3890   38.7290 N   0  0  0  0  0  0  0  0  0  0  0  0
   42.0680   32.3130   39.3800 C   0  0  0  0  0  0  0  0  0  0  0  0
   42.9030   34.3480   42.2690 N   0  0  0  0  0  0  0  0  0  0  0  0
   42.4730   33.8190   43.0390 H   0  0  0  0  0  0  0  0  0  0  0  0
   43.0450   35.2070   42.8300 H   0  0  0  0  0  0  0  0  0  0  0  0
   35.9690   29.1470   40.5400 C   0  0  0  0  0  0  0  0  0  0  0  0
   34.7190   29.2080   40.2770 O   0  0  0  0  0  0  0  0  0  0  0  0
   36.6550   27.6020   42.3160 C   0  0  0  0  0  0  0  0  0  0  0  0
   36.4400   27.8750   40.9530 C   0  0  0  0  0  0  0  0  0  0  0  0
   36.7220   26.8260   40.1010 C   0  0  0  0  0  0  0  0  0  0  0  0
   37.1650   25.6390   40.5390 N   0  0  0  0  0  0  0  0  0  0  0  0
   37.3580   25.4250   41.8640 C   0  0  0  0  0  0  0  0  0  0  0  0
   37.1020   26.4050   42.7430 N   0  0  0  0  0  0  0  0  0  0  0  0
   36.4620   28.3690   43.0710 H   0  0  0  0  0  0  0  0  0  0  0  0
   37.7100   24.4720   42.1770 H   0  0  0  0  0  0  0  0  0  0  0  0
   36.5360   27.0090   38.7090 C   0  0  0  0  0  0  0  0  0  0  0  0
   35.4960   26.8370   37.8420 C   0  0  0  0  0  0  0  0  0  0  0  0
   35.5990   27.0930   36.5550 C   0  0  0  0  0  0  0  0  0  0  0  0
   36.7980   27.5400   36.1180 C   0  0  0  0  0  0  0  0  0  0  0  0
   37.8250   27.5970   37.6280 S   0  0  0  0  0  0  0  0  0  0  0  0
   34.5710   26.4650   38.3320 H   0  0  0  0  0  0  0  0  0  0  0  0
   34.8070   26.9720   35.8260 H   0  0  0  0  0  0  0  0  0  0  0  0
   37.1100   27.8240   35.0430 H   0  0  0  0  0  0  0  0  0  0  0  0
  1  5  1  0  0  0  0
  1 24  1  0  0  0  0
  2  1  2  0  0  0  0
  3  2  1  0  0  0  0
  3  4  1  0  0  0  0
  4  5  2  0  0  0  0
  6  4  1  0  0  0  0
  6  8  1  0  0  0  0
  7  2  1  0  0  0  0
  9  6  1  0  0  0  0
 10 11  1  0  0  0  0
 11 20  1  0  0  0  0
 11 12  1  0  0  0  0
 12  3  1  0  0  0  0
 12 13  2  0  0  0  0
 14 13  1  0  0  0  0
 14 15  1  0  0  0  0
 15 21  1  0  0  0  0
 16 15  2  0  0  0  0
 17 16  1  0  0  0  0
 18 17  1  0  0  0  0
 19 17  2  0  0  0  0
 19 20  1  0  0  0  0
 20 14  2  0  0  0  0
 21 23  1  0  0  0  0
 21 22  1  0  0  0  0
 24 27  1  0  0  0  0
 25 24  2  0  0  0  0
 26 31  1  0  0  0  0
 26 32  1  0  0  0  0
 27 26  2  0  0  0  0
 28 29  2  0  0  0  0
 28 27  1  0  0  0  0
 29 30  1  0  0  0  0
 30 33  1  0  0  0  0
 30 31  2  0  0  0  0
 34 28  1  0  0  0  0
 35 39  1  0  0  0  0
 35 34  2  0  0  0  0
 36 35  1  0  0  0  0
 37 36  2  0  0  0  0
 37 38  1  0  0  0  0
 38 34  1  0  0  0  0
 40 36  1  0  0  0  0
 41 37  1  0  0  0  0
M  END
>  <minimizedAffinity>
-6.45817423

$$$$

 OpenBabel03252503173D

 41 45  0  0  0  0  0  0  0  0999 V2000
   37.9970   28.9140   38.8880 C   0  0  0  0  0  0  0  0  0  0  0  0
   38.7100   29.9560   39.4490 C   0  0  0  0  0  0  0  0  0  0  0  0
   39.8000   30.1070   38.6790 N   0  0  0  0  0  0  0  0  0  0  0  0
   39.7560   29.1830   37.6750 C   0  0  0  0  0  0  0  0  0  0  0  0
   38.6400   28.4460   37.8070 N   0  0  0  0  0  0  0  0  0  0  0  0
   40.6700   28.9420   36.6150 N   0  0  0  0  0  0  0  0  0  0  0  0
   38.4290   30.5080   40.3110 H   0  0  0  0  0  0  0  0  0  0  0  0
   40.4260   29.5940   35.8260 H   0  0  0  0  0  0  0  0  0  0  0  0
   41.4200   28.2130   36.7160 H   0  0  0  0  0  0  0  0  0  0  0  0
   41.6670   30.6430   40.7900 H   0  0  0  0  0  0  0  0  0  0  0  0
   41.6480   31.1870   39.9170 N   0  0  0  0  0  0  0  0  0  0  0  0
   40.8450   31.0570   38.8510 C   0  0  0  0  0  0  0  0  0  0  0  0
   41.1930   31.9940   37.9470 N   0  0  0  0  0  0  0  0  0  0  0  0
   42.2070   32.7220   38.4140 C   0  0  0  0  0  0  0  0  0  0  0  0
   42.9680   33.7860   37.9640 C   0  0  0  0  0  0  0  0  0  0  0  0
   43.9660   34.3410   38.6750 N   0  0  0  0  0  0  0  0  0  0  0  0
   44.2290   33.8230   39.8960 C   0  0  0  0  0  0  0  0  0  0  0  0
   44.9720   34.1050   40.6280 H   0  0  0  0  0  0  0  0  0  0  0  0
   43.5000   32.7850   40.3560 N   0  0  0  0  0  0  0  0  0  0  0  0
   42.5010   32.2220   39.6540 C   0  0  0  0  0  0  0  0  0  0  0  0
   42.6660   34.3050   36.6840 N   0  0  0  0  0  0  0  0  0  0  0  0
   41.6720   34.4680   36.4770 H   0  0  0  0  0  0  0  0  0  0  0  0
   42.9960   34.6340   35.7590 H   0  0  0  0  0  0  0  0  0  0  0  0
   36.7030   28.3660   39.3840 C   0  0  0  0  0  0  0  0  0  0  0  0
   35.7430   29.0840   39.8320 O   0  0  0  0  0  0  0  0  0  0  0  0
   35.8470   26.3490   38.2830 C   0  0  0  0  0  0  0  0  0  0  0  0
   36.4650   26.9680   39.3850 C   0  0  0  0  0  0  0  0  0  0  0  0
   36.7970   26.1140   40.4170 C   0  0  0  0  0  0  0  0  0  0  0  0
   36.5510   24.7970   40.3730 N   0  0  0  0  0  0  0  0  0  0  0  0
   35.9530   24.2470   39.2880 C   0  0  0  0  0  0  0  0  0  0  0  0
   35.6050   25.0250   38.2520 N   0  0  0  0  0  0  0  0  0  0  0  0
   35.5440   26.9400   37.4150 H   0  0  0  0  0  0  0  0  0  0  0  0
   35.7720   23.1990   39.2850 H   0  0  0  0  0  0  0  0  0  0  0  0
   37.4220   26.6490   41.5700 C   0  0  0  0  0  0  0  0  0  0  0  0
   36.9830   27.1790   42.7490 C   0  0  0  0  0  0  0  0  0  0  0  0
   37.8090   27.6140   43.6790 C   0  0  0  0  0  0  0  0  0  0  0  0
   39.1300   27.5140   43.4140 C   0  0  0  0  0  0  0  0  0  0  0  0
   39.1910   26.7580   41.7510 S   0  0  0  0  0  0  0  0  0  0  0  0
   35.8770   27.2020   42.8370 H   0  0  0  0  0  0  0  0  0  0  0  0
   37.5130   28.0420   44.6290 H   0  0  0  0  0  0  0  0  0  0  0  0
   40.0210   27.8290   44.0770 H   0  0  0  0  0  0  0  0  0  0  0  0
  1 24  1  0  0  0  0
  1  2  2  0  0  0  0
  2  7  1  0  0  0  0
  3 12  1  0  0  0  0
  3  2  1  0  0  0  0
  4  5  2  0  0  0  0
  4  3  1  0  0  0  0
  5  1  1  0  0  0  0
  6  9  1  0  0  0  0
  6  4  1  0  0  0  0
  8  6  1  0  0  0  0
 11 10  1  0  0  0  0
 12 11  1  0  0  0  0
 13 14  1  0  0  0  0
 13 12  2  0  0  0  0
 14 20  1  0  0  0  0
 15 14  2  0  0  0  0
 15 16  1  0  0  0  0
 16 17  2  0  0  0  0
 17 19  1  0  0  0  0
 17 18  1  0  0  0  0
 20 11  1  0  0  0  0
 20 19  2  0  0  0  0
 21 15  1  0  0  0  0
 22 21  1  0  0  0  0
 23 21  1  0  0  0  0
 24 27  1  0  0  0  0
 24 25  2  0  0  0  0
 26 27  1  0  0  0  0
 27 28  2  0  0  0  0
 28 34  1  0  0  0  0
 29 28  1  0  0  0  0
 30 29  2  0  0  0  0
 31 26  2  0  0  0  0
 31 30  1  0  0  0  0
 32 26  1  0  0  0  0
 33 30  1  0  0  0  0
 34 38  1  0  0  0  0
 34 35  2  0  0  0  0
 35 39  1  0  0  0  0
 35 36  1  0  0  0  0
 36 40  1  0  0  0  0
 37 36  2  0  0  0  0
 37 41  1  0  0  0  0
 38 37  1  0  0  0  0
M  END
>  <minimizedAffinity>
-6.38477182

$$$$

 OpenBabel03252503173D

 41 45  0  0  0  0  0  0  0  0999 V2000
   37.7290   29.9780   39.1450 C   0  0  0  0  0  0  0  0  0  0  0  0
   39.1070   29.8990   39.2120 C   0  0  0  0  0  0  0  0  0  0  0  0
   39.5650   30.6950   38.2330 N   0  0  0  0  0  0  0  0  0  0  0  0
   38.4980   31.2460   37.5830 C   0  0  0  0  0  0  0  0  0  0  0  0
   37.3640   30.8010   38.1500 N   0  0  0  0  0  0  0  0  0  0  0  0
   38.4630   32.1470   36.4870 N   0  0  0  0  0  0  0  0  0  0  0  0
   39.6630   29.3200   39.9070 H   0  0  0  0  0  0  0  0  0  0  0  0
   38.5460   33.1230   36.8700 H   0  0  0  0  0  0  0  0  0  0  0  0
   38.3670   31.7850   35.5050 H   0  0  0  0  0  0  0  0  0  0  0  0
   41.7410   29.0250   37.3920 H   0  0  0  0  0  0  0  0  0  0  0  0
   41.8400   30.0420   37.5160 N   0  0  0  0  0  0  0  0  0  0  0  0
   40.9260   30.9450   37.8980 C   0  0  0  0  0  0  0  0  0  0  0  0
   41.5150   32.1560   37.9170 N   0  0  0  0  0  0  0  0  0  0  0  0
   42.7920   32.0470   37.5520 C   0  0  0  0  0  0  0  0  0  0  0  0
   43.8650   32.9040   37.3870 C   0  0  0  0  0  0  0  0  0  0  0  0
   45.0860   32.5010   36.9940 N   0  0  0  0  0  0  0  0  0  0  0  0
   45.2640   31.1820   36.7520 C   0  0  0  0  0  0  0  0  0  0  0  0
   46.1450   30.6440   36.4320 H   0  0  0  0  0  0  0  0  0  0  0  0
   44.2320   30.3270   36.9060 N   0  0  0  0  0  0  0  0  0  0  0  0
   43.0070   30.7180   37.2980 C   0  0  0  0  0  0  0  0  0  0  0  0
   43.6460   34.2760   37.6500 N   0  0  0  0  0  0  0  0  0  0  0  0
   43.1410   34.5030   38.5170 H   0  0  0  0  0  0  0  0  0  0  0  0
   43.7600   35.2640   37.3610 H   0  0  0  0  0  0  0  0  0  0  0  0
   36.7630   29.2690   40.0310 C   0  0  0  0  0  0  0  0  0  0  0  0
   35.5080   29.1800   39.7990 O   0  0  0  0  0  0  0  0  0  0  0  0
   37.3260   29.3620   42.4160 C   0  0  0  0  0  0  0  0  0  0  0  0
   37.2060   28.6330   41.2180 C   0  0  0  0  0  0  0  0  0  0  0  0
   37.5480   27.3000   41.3160 C   0  0  0  0  0  0  0  0  0  0  0  0
   37.9630   26.7420   42.4630 N   0  0  0  0  0  0  0  0  0  0  0  0
   38.0630   27.4870   43.5910 C   0  0  0  0  0  0  0  0  0  0  0  0
   37.7450   28.7900   43.5610 N   0  0  0  0  0  0  0  0  0  0  0  0
   37.0800   30.4270   42.4420 H   0  0  0  0  0  0  0  0  0  0  0  0
   38.3940   27.0140   44.4830 H   0  0  0  0  0  0  0  0  0  0  0  0
   37.4590   26.4860   40.1600 C   0  0  0  0  0  0  0  0  0  0  0  0
   36.4570   25.8010   39.5350 C   0  0  0  0  0  0  0  0  0  0  0  0
   36.6580   25.1030   38.4360 C   0  0  0  0  0  0  0  0  0  0  0  0
   37.9160   25.0910   37.9450 C   0  0  0  0  0  0  0  0  0  0  0  0
   38.8580   26.1330   39.1140 S   0  0  0  0  0  0  0  0  0  0  0  0
   35.4760   25.8960   40.0440 H   0  0  0  0  0  0  0  0  0  0  0  0
   35.9000   24.5430   37.9030 H   0  0  0  0  0  0  0  0  0  0  0  0
   38.3140   24.5520   37.0040 H   0  0  0  0  0  0  0  0  0  0  0  0
  1  2  2  0  0  0  0
  1 24  1  0  0  0  0
  2  7  1  0  0  0  0
  3  2  1  0  0  0  0
  4  5  2  0  0  0  0
  4  3  1  0  0  0  0
  5  1  1  0  0  0  0
  6  8  1  0  0  0  0
  6  4  1  0  0  0  0
  9  6  1  0  0  0  0
 10 11  1  0  0  0  0
 11 12  1  0  0  0  0
 12 13  2  0  0  0  0
 12  3  1  0  0  0  0
 14 13  1  0  0  0  0
 15 14  1  0  0  0  0
 15 21  1  0  0  0  0
 16 15  2  0  0  0  0
 17 19  2  0  0  0  0
 17 16  1  0  0  0  0
 18 17  1  0  0  0  0
 19 20  1  0  0  0  0
 20 11  1  0  0  0  0
 20 14  2  0  0  0  0
 21 22  1  0  0  0  0
 23 21  1  0  0  0  0
 24 27  1  0  0  0  0
 25 24  2  0  0  0  0
 26 32  1  0  0  0  0
 26 31  1  0  0  0  0
 27 28  1  0  0  0  0
 27 26  2  0  0  0  0
 28 29  2  0  0  0  0
 29 30  1  0  0  0  0
 30 33  1  0  0  0  0
 31 30  2  0  0  0  0
 34 28  1  0  0  0  0
 35 39  1  0  0  0  0
 35 34  2  0  0  0  0
 36 35  1  0  0  0  0
 37 36  2  0  0  0  0
 37 38  1  0  0  0  0
 38 34  1  0  0  0  0
 40 36  1  0  0  0  0
 41 37  1  0  0  0  0
M  END
>  <minimizedAffinity>
-6.11598253

$$$$

 OpenBabel03252503173D

 41 45  0  0  0  0  0  0  0  0999 V2000
   37.3190   29.9780   38.6800 C   0  0  0  0  0  0  0  0  0  0  0  0
   38.6950   29.8830   38.7590 C   0  0  0  0  0  0  0  0  0  0  0  0
   39.1710   30.7580   37.8590 N   0  0  0  0  0  0  0  0  0  0  0  0
   38.1170   31.3710   37.2450 C   0  0  0  0  0  0  0  0  0  0  0  0
   36.9720   30.8860   37.7560 N   0  0  0  0  0  0  0  0  0  0  0  0
   38.1020   32.3650   36.2310 N   0  0  0  0  0  0  0  0  0  0  0  0
   39.2380   29.2420   39.4080 H   0  0  0  0  0  0  0  0  0  0  0  0
   38.1850   33.3030   36.6990 H   0  0  0  0  0  0  0  0  0  0  0  0
   38.0180   32.0910   35.2200 H   0  0  0  0  0  0  0  0  0  0  0  0
   41.3490   29.1530   36.9050 H   0  0  0  0  0  0  0  0  0  0  0  0
   41.4520   30.1540   37.1190 N   0  0  0  0  0  0  0  0  0  0  0  0
   40.5380   31.0270   37.5660 C   0  0  0  0  0  0  0  0  0  0  0  0
   41.1340   32.2280   37.6980 N   0  0  0  0  0  0  0  0  0  0  0  0
   42.4150   32.1420   37.3420 C   0  0  0  0  0  0  0  0  0  0  0  0
   43.4950   33.0030   37.2670 C   0  0  0  0  0  0  0  0  0  0  0  0
   44.7200   32.6270   36.8570 N   0  0  0  0  0  0  0  0  0  0  0  0
   44.8930   31.3330   36.5030 C   0  0  0  0  0  0  0  0  0  0  0  0
   45.7750   30.8190   36.1490 H   0  0  0  0  0  0  0  0  0  0  0  0
   43.8540   30.4750   36.5680 N   0  0  0  0  0  0  0  0  0  0  0  0
   42.6260   30.8390   36.9760 C   0  0  0  0  0  0  0  0  0  0  0  0
   43.2800   34.3480   37.6450 N   0  0  0  0  0  0  0  0  0  0  0  0
   42.7650   34.5020   38.5210 H   0  0  0  0  0  0  0  0  0  0  0  0
   43.4040   35.3570   37.4460 H   0  0  0  0  0  0  0  0  0  0  0  0
   36.3360   29.2010   39.4870 C   0  0  0  0  0  0  0  0  0  0  0  0
   35.4820   29.7270   40.2820 O   0  0  0  0  0  0  0  0  0  0  0  0
   36.9320   27.0010   40.3940 C   0  0  0  0  0  0  0  0  0  0  0  0
   36.2990   27.7850   39.4110 C   0  0  0  0  0  0  0  0  0  0  0  0
   35.6710   27.0670   38.4140 C   0  0  0  0  0  0  0  0  0  0  0  0
   35.6640   25.7260   38.3840 N   0  0  0  0  0  0  0  0  0  0  0  0
   36.2890   25.0150   39.3540 C   0  0  0  0  0  0  0  0  0  0  0  0
   36.9180   25.6550   40.3510 N   0  0  0  0  0  0  0  0  0  0  0  0
   37.4590   27.4760   41.2260 H   0  0  0  0  0  0  0  0  0  0  0  0
   36.2630   23.9540   39.3010 H   0  0  0  0  0  0  0  0  0  0  0  0
   35.0090   27.7720   37.3800 C   0  0  0  0  0  0  0  0  0  0  0  0
   33.7990   28.3930   37.2550 C   0  0  0  0  0  0  0  0  0  0  0  0
   33.4240   28.9930   36.1440 C   0  0  0  0  0  0  0  0  0  0  0  0
   34.2990   28.9670   35.1140 C   0  0  0  0  0  0  0  0  0  0  0  0
   35.7290   28.0390   35.7720 S   0  0  0  0  0  0  0  0  0  0  0  0
   33.1800   28.3390   38.1750 H   0  0  0  0  0  0  0  0  0  0  0  0
   32.4780   29.4970   35.9930 H   0  0  0  0  0  0  0  0  0  0  0  0
   34.1810   29.4230   34.0600 H   0  0  0  0  0  0  0  0  0  0  0  0
  1  2  2  0  0  0  0
  1 24  1  0  0  0  0
  2  7  1  0  0  0  0
  3  2  1  0  0  0  0
  4  5  2  0  0  0  0
  4  3  1  0  0  0  0
  5  1  1  0  0  0  0
  6  8  1  0  0  0  0
  6  4  1  0  0  0  0
  9  6  1  0  0  0  0
 10 11  1  0  0  0  0
 11 12  1  0  0  0  0
 12 13  2  0  0  0  0
 12  3  1  0  0  0  0
 14 13  1  0  0  0  0
 15 14  1  0  0  0  0
 15 21  1  0  0  0  0
 16 15  2  0  0  0  0
 17 19  2  0  0  0  0
 17 16  1  0  0  0  0
 18 17  1  0  0  0  0
 19 20  1  0  0  0  0
 20 11  1  0  0  0  0
 20 14  2  0  0  0  0
 21 22  1  0  0  0  0
 23 21  1  0  0  0  0
 24 25  2  0  0  0  0
 26 32  1  0  0  0  0
 27 24  1  0  0  0  0
 27 26  2  0  0  0  0
 28 27  1  0  0  0  0
 29 28  2  0  0  0  0
 29 30  1  0  0  0  0
 30 31  2  0  0  0  0
 31 26  1  0  0  0  0
 33 30  1  0  0  0  0
 34 28  1  0  0  0  0
 35 34  2  0  0  0  0
 35 39  1  0  0  0  0
 36 35  1  0  0  0  0
 37 38  1  0  0  0  0
 37 36  2  0  0  0  0
 38 34  1  0  0  0  0
 40 36  1  0  0  0  0
 41 37  1  0  0  0  0
M  END
>  <minimizedAffinity>
-5.99349165

$$$$

 OpenBabel03252503173D

 41 45  0  0  0  0  0  0  0  0999 V2000
   38.7670   31.9910   39.8610 C   0  0  0  0  0  0  0  0  0  0  0  0
   38.5100   30.9130   39.0370 C   0  0  0  0  0  0  0  0  0  0  0  0
   37.3390   30.4060   39.4560 N   0  0  0  0  0  0  0  0  0  0  0  0
   36.8920   31.1530   40.5080 C   0  0  0  0  0  0  0  0  0  0  0  0
   37.7780   32.1330   40.7560 N   0  0  0  0  0  0  0  0  0  0  0  0
   35.7130   31.0190   41.2870 N   0  0  0  0  0  0  0  0  0  0  0  0
   39.1280   30.5760   38.2420 H   0  0  0  0  0  0  0  0  0  0  0  0
   34.9390   31.5280   40.7870 H   0  0  0  0  0  0  0  0  0  0  0  0
   35.7300   30.4820   42.1890 H   0  0  0  0  0  0  0  0  0  0  0  0
   38.0080   27.6330   39.1460 H   0  0  0  0  0  0  0  0  0  0  0  0
   37.1050   28.0220   38.8420 N   0  0  0  0  0  0  0  0  0  0  0  0
   36.6510   29.2810   38.9190 C   0  0  0  0  0  0  0  0  0  0  0  0
   35.4110   29.3140   38.3950 N   0  0  0  0  0  0  0  0  0  0  0  0
   35.0590   28.0960   37.9820 C   0  0  0  0  0  0  0  0  0  0  0  0
   33.9530   27.5210   37.3840 C   0  0  0  0  0  0  0  0  0  0  0  0
   33.8710   26.2160   37.0680 N   0  0  0  0  0  0  0  0  0  0  0  0
   34.9370   25.4330   37.3550 C   0  0  0  0  0  0  0  0  0  0  0  0
   35.0900   24.3760   37.1930 H   0  0  0  0  0  0  0  0  0  0  0  0
   36.0270   25.9730   37.9390 N   0  0  0  0  0  0  0  0  0  0  0  0
   36.1200   27.2750   38.2590 C   0  0  0  0  0  0  0  0  0  0  0  0
   32.8570   28.3660   37.0970 N   0  0  0  0  0  0  0  0  0  0  0  0
   33.0760   29.2650   36.6470 H   0  0  0  0  0  0  0  0  0  0  0  0
   31.8350   28.5360   37.1220 H   0  0  0  0  0  0  0  0  0  0  0  0
   39.9580   32.8850   39.7940 C   0  0  0  0  0  0  0  0  0  0  0  0
   40.0500   34.0060   40.4040 O   0  0  0  0  0  0  0  0  0  0  0  0
   41.1770   32.8950   37.6660 C   0  0  0  0  0  0  0  0  0  0  0  0
   41.0900   32.5220   39.0200 C   0  0  0  0  0  0  0  0  0  0  0  0
   42.1670   31.8010   39.4920 C   0  0  0  0  0  0  0  0  0  0  0  0
   43.2160   31.4800   38.7210 N   0  0  0  0  0  0  0  0  0  0  0  0
   43.2540   31.8620   37.4210 C   0  0  0  0  0  0  0  0  0  0  0  0
   42.2360   32.5660   36.9020 N   0  0  0  0  0  0  0  0  0  0  0  0
   40.3730   33.4680   37.1960 H   0  0  0  0  0  0  0  0  0  0  0  0
   44.1000   31.5920   36.8370 H   0  0  0  0  0  0  0  0  0  0  0  0
   42.1660   31.3800   40.8450 C   0  0  0  0  0  0  0  0  0  0  0  0
   41.6860   30.2940   41.5180 C   0  0  0  0  0  0  0  0  0  0  0  0
   41.8290   30.1510   42.8200 C   0  0  0  0  0  0  0  0  0  0  0  0
   42.4800   31.1390   43.4730 C   0  0  0  0  0  0  0  0  0  0  0  0
   42.9100   32.3310   42.1550 S   0  0  0  0  0  0  0  0  0  0  0  0
   41.1730   29.5610   40.8630 H   0  0  0  0  0  0  0  0  0  0  0  0
   41.4680   29.3120   43.4010 H   0  0  0  0  0  0  0  0  0  0  0  0
   42.7180   31.2200   44.6000 H   0  0  0  0  0  0  0  0  0  0  0  0
  1  5  1  0  0  0  0
  2  3  1  0  0  0  0
  2  1  2  0  0  0  0
  3  4  1  0  0  0  0
  4  5  2  0  0  0  0
  4  6  1  0  0  0  0
  6  9  1  0  0  0  0
  7  2  1  0  0  0  0
  8  6  1  0  0  0  0
 11 12  1  0  0  0  0
 11 10  1  0  0  0  0
 12  3  1  0  0  0  0
 13 12  2  0  0  0  0
 14 20  1  0  0  0  0
 14 13  1  0  0  0  0
 15 14  2  0  0  0  0
 16 17  2  0  0  0  0
 16 15  1  0  0  0  0
 17 19  1  0  0  0  0
 18 17  1  0  0  0  0
 19 20  2  0  0  0  0
 20 11  1  0  0  0  0
 21 23  1  0  0  0  0
 21 15  1  0  0  0  0
 22 21  1  0  0  0  0
 24  1  1  0  0  0  0
 24 25  2  0  0  0  0
 26 27  1  0  0  0  0
 27 28  2  0  0  0  0
 27 24  1  0  0  0  0
 28 34  1  0  0  0  0
 29 28  1  0  0  0  0
 30 29  2  0  0  0  0
 31 30  1  0  0  0  0
 31 26  2  0  0  0  0
 32 26  1  0  0  0  0
 33 30  1  0  0  0  0
 34 35  2  0  0  0  0
 34 38  1  0  0  0  0
 35 36  1  0  0  0  0
 36 40  1  0  0  0  0
 36 37  2  0  0  0  0
 37 41  1  0  0  0  0
 38 37  1  0  0  0  0
 39 35  1  0  0  0  0
M  END
>  <minimizedAffinity>
-5.98454857

$$$$
