
 OpenBabel03252500273D

 48 51  0  0  1  0  0  0  0  0999 V2000
   47.1110   33.1890   46.6140 O   0  0  0  0  0  0  0  0  0  0  0  0
   45.6580   32.9010   46.4880 P   0  0  1  0  0  0  0  0  0  0  0  0
   45.4240   31.7400   45.2770 O   0  0  0  0  0  0  0  0  0  0  0  0
   45.9430   32.0240   44.4970 H   0  0  0  0  0  0  0  0  0  0  0  0
   45.1530   32.3010   47.9400 O   0  0  0  0  0  0  0  0  0  0  0  0
   47.0790   30.8920   48.0300 C   0  0  2  0  0  0  0  0  0  0  0  0
   45.6040   31.0170   48.1090 C   0  0  2  0  0  0  0  0  0  0  0  0
   45.0640   30.0880   47.1410 C   0  0  0  0  0  0  0  0  0  0  0  0
   46.0220   29.0970   46.8860 O   0  0  0  0  0  0  0  0  0  0  0  0
   47.0490   29.3420   47.7310 C   0  0  0  0  0  0  0  0  0  0  0  0
   47.5760   31.1520   47.0790 H   0  0  0  0  0  0  0  0  0  0  0  0
   45.3980   30.8160   49.2010 H   0  0  0  0  0  0  0  0  0  0  0  0
   44.3630   29.4350   47.7760 H   0  0  0  0  0  0  0  0  0  0  0  0
   44.3610   30.3190   46.3710 H   0  0  0  0  0  0  0  0  0  0  0  0
   46.8640   28.9040   48.7550 H   0  0  0  0  0  0  0  0  0  0  0  0
   48.0350   28.9890   47.4380 H   0  0  0  0  0  0  0  0  0  0  0  0
   47.7750   31.0730   49.1640 O   0  0  0  0  0  0  0  0  0  0  0  0
   49.0380   31.3740   49.2500 C   0  0  0  0  0  0  0  0  0  0  0  0
   49.4510   32.3500   49.1840 H   0  0  0  0  0  0  0  0  0  0  0  0
   49.5050   30.8520   48.2450 H   0  0  0  0  0  0  0  0  0  0  0  0
   49.6920   30.4610   50.2730 C   0  0  0  0  0  0  0  0  0  0  0  0
   49.4150   30.7420   51.3070 H   0  0  0  0  0  0  0  0  0  0  0  0
   49.3790   29.4300   50.0110 H   0  0  0  0  0  0  0  0  0  0  0  0
   50.7970   30.5830   50.1230 H   0  0  0  0  0  0  0  0  0  0  0  0
   44.9190   34.3870   46.0910 O   0  0  0  0  0  0  0  0  0  0  0  0
   45.3370   36.5970   43.2960 C   0  0  0  0  0  0  0  0  0  0  0  0
   44.7860   35.8830   42.2050 C   0  0  0  0  0  0  0  0  0  0  0  0
   44.2680   34.6030   42.4970 C   0  0  0  0  0  0  0  0  0  0  0  0
   44.3240   34.1440   43.7630 N   0  0  0  0  0  0  0  0  0  0  0  0
   44.8570   34.8580   44.7670 C   0  0  0  0  0  0  0  0  0  0  0  0
   45.3590   36.0780   44.5300 N   0  0  0  0  0  0  0  0  0  0  0  0
   44.7480   36.2630   41.1990 H   0  0  0  0  0  0  0  0  0  0  0  0
   43.8320   34.0010   41.7210 H   0  0  0  0  0  0  0  0  0  0  0  0
   45.8490   37.8360   43.0550 O   0  0  0  0  0  0  0  0  0  0  0  0
   45.6100   40.6040   42.4200 H   0  0  0  0  0  0  0  0  0  0  0  0
   45.3990   40.2860   43.3880 N   0  0  0  0  0  0  0  0  0  0  0  0
   45.5060   38.9840   43.7100 C   0  0  0  0  0  0  0  0  0  0  0  0
   45.1740   38.8820   45.0160 N   0  0  0  0  0  0  0  0  0  0  0  0
   44.8730   40.1220   45.4590 C   0  0  0  0  0  0  0  0  0  0  0  0
   44.4700   40.6390   46.6880 C   0  0  0  0  0  0  0  0  0  0  0  0
   44.2250   41.9470   46.8790 N   0  0  0  0  0  0  0  0  0  0  0  0
   44.3750   42.8050   45.8380 C   0  0  0  0  0  0  0  0  0  0  0  0
   44.2090   43.8760   45.8690 H   0  0  0  0  0  0  0  0  0  0  0  0
   44.7690   42.3380   44.6170 N   0  0  0  0  0  0  0  0  0  0  0  0
   45.0100   41.0350   44.4350 C   0  0  0  0  0  0  0  0  0  0  0  0
   44.3060   39.7500   47.7990 N   0  0  0  0  0  0  0  0  0  0  0  0
   43.6730   39.0040   48.1580 H   0  0  0  0  0  0  0  0  0  0  0  0
   45.1130   39.9430   48.4510 H   0  0  0  0  0  0  0  0  0  0  0  0
  2  1  2  1  0  0  0
  2  5  1  0  0  0  0
  3  2  1  0  0  0  0
  4  3  1  0  0  0  0
  5  7  1  0  0  0  0
  6 11  1  6  0  0  0
  6  7  1  0  0  0  0
  6 17  1  0  0  0  0
  7 12  1  1  0  0  0
  8 13  1  0  0  0  0
  8  7  1  0  0  0  0
  9  8  1  0  0  0  0
  9 10  1  0  0  0  0
 10  6  1  0  0  0  0
 10 15  1  0  0  0  0
 14  8  1  0  0  0  0
 16 10  1  0  0  0  0
 17 18  1  0  0  0  0
 18 21  1  0  0  0  0
 19 18  1  0  0  0  0
 20 18  1  0  0  0  0
 21 22  1  0  0  0  0
 23 21  1  0  0  0  0
 24 21  1  0  0  0  0
 25  2  1  0  0  0  0
 26 31  1  0  0  0  0
 27 28  1  0  0  0  0
 27 26  2  0  0  0  0
 28 29  2  0  0  0  0
 29 30  1  0  0  0  0
 30 25  1  0  0  0  0
 31 30  2  0  0  0  0
 32 27  1  0  0  0  0
 33 28  1  0  0  0  0
 34 26  1  0  0  0  0
 34 37  1  0  0  0  0
 35 36  1  0  0  0  0
 36 37  1  0  0  0  0
 36 45  1  0  0  0  0
 37 38  2  0  0  0  0
 38 39  1  0  0  0  0
 39 40  1  0  0  0  0
 40 41  2  0  0  0  0
 40 46  1  0  0  0  0
 42 43  1  0  0  0  0
 42 41  1  0  0  0  0
 44 42  2  0  0  0  0
 45 44  1  0  0  0  0
 45 39  2  0  0  0  0
 46 47  1  0  0  0  0
 46 48  1  0  0  0  0
M  END
>  <minimizedAffinity>
-3.17375398

>  <minimizedRMSD>
1.07188416

$$$$
