
     RDKit          3D

 27 29  0  0  0  0  0  0  0  0999 V2000
   44.3820   35.7607   44.3950 C   0  0  0  0  0  0  0  0  0  0  0  0
   44.6601   35.0523   43.2413 C   0  0  0  0  0  0  0  0  0  0  0  0
   45.2824   33.8263   43.3718 C   0  0  0  0  0  0  0  0  0  0  0  0
   45.5765   33.4040   44.6174 N   0  0  0  0  0  0  0  0  0  0  0  0
   45.2974   34.1089   45.7300 C   0  0  0  0  0  0  0  0  0  0  0  0
   44.6789   35.3360   45.6654 N   0  0  0  0  0  0  0  0  0  0  0  0
   44.2526   35.7010   41.9920 C   0  0  0  0  0  0  0  0  0  0  0  0
   42.9620   35.3938   41.5911 O   0  0  0  0  0  0  0  0  0  0  0  0
   43.8926   36.7411   44.4139 H   0  0  0  0  0  0  0  0  0  0  0  0
   45.4871   33.2980   42.4709 H   0  0  0  0  0  0  0  0  0  0  0  0
   45.6085   33.6098   46.6537 H   0  0  0  0  0  0  0  0  0  0  0  0
   44.9964   35.3732   41.2151 H   0  0  0  0  0  0  0  0  0  0  0  0
   44.3883   36.8008   42.0620 H   0  0  0  0  0  0  0  0  0  0  0  0
   44.0082   37.1618   39.6291 H   0  0  0  0  0  0  0  0  0  0  0  0
   43.0359   36.7831   39.5487 N   0  0  0  0  0  0  0  0  0  0  0  0
   42.4421   35.9432   40.4160 C   0  0  0  0  0  0  0  0  0  0  0  0
   41.2115   35.6858   39.9800 N   0  0  0  0  0  0  0  0  0  0  0  0
   40.9950   36.3572   38.8243 C   0  0  0  0  0  0  0  0  0  0  0  0
   39.9807   36.5106   37.9144 C   0  0  0  0  0  0  0  0  0  0  0  0
   38.7758   35.8135   38.1578 N   0  0  0  0  0  0  0  0  0  0  0  0
   38.1097   36.5951   38.4232 H   0  0  0  0  0  0  0  0  0  0  0  0
   40.1118   37.2890   36.8301 N   0  0  0  0  0  0  0  0  0  0  0  0
   41.2699   37.9646   36.5878 C   0  0  0  0  0  0  0  0  0  0  0  0
   41.2580   38.5616   35.6809 H   0  0  0  0  0  0  0  0  0  0  0  0
   42.2815   37.8322   37.4642 N   0  0  0  0  0  0  0  0  0  0  0  0
   42.1635   37.0543   38.5565 C   0  0  0  0  0  0  0  0  0  0  0  0
   38.3403   34.8677   38.1680 H   0  0  0  0  0  0  0  0  0  0  0  0
  1  6  2  0
  2  3  2  0
  2  1  1  0
  3  4  1  0
  4  5  2  0
  6  5  1  0
  7  2  1  0
  8  7  1  0
  1  9  1  0
  3 10  1  0
  5 11  1  0
  7 12  1  0
  7 13  1  0
 14 15  1  0
 15 16  1  0
 16 17  2  0
 17 18  1  0
 18 19  2  0
 19 20  1  0
 20 21  1  0
 19 22  1  0
 22 23  2  0
 23 24  1  0
 23 25  1  0
 25 26  2  0
 26 15  1  0
 26 18  1  0
 20 27  1  0
  8 16  1  0
M  ISO  8   9  14  10  14  11  14  12   8  13   8  14   9  21   5  24  16
M  END
>  <DihAtoms>  (1) 
6,7,15,14

>  <DihDeg>  (1) 
179.9988806969062

$$$$
