
 OpenBabel03252503453D

 49 53  0  0  1  0  0  0  0  0999 V2000
   45.5870   35.8090   43.0240 C   0  0  0  0  0  0  0  0  0  0  0  0
   46.6250   35.9650   42.6670 H   0  0  0  0  0  0  0  0  0  0  0  0
   45.2320   36.8280   43.3100 H   0  0  0  0  0  0  0  0  0  0  0  0
   44.7940   35.2470   41.9220 C   0  0  0  0  0  0  0  0  0  0  0  0
   43.5260   35.6500   41.5740 C   0  0  0  0  0  0  0  0  0  0  0  0
   42.8220   35.0880   40.5370 C   0  0  0  0  0  0  0  0  0  0  0  0
   43.4060   34.0800   39.8140 C   0  0  0  0  0  0  0  0  0  0  0  0
   44.6910   33.6560   40.1480 C   0  0  0  0  0  0  0  0  0  0  0  0
   45.3960   34.2360   41.2050 C   0  0  0  0  0  0  0  0  0  0  0  0
   43.1270   36.4470   42.1860 H   0  0  0  0  0  0  0  0  0  0  0  0
   41.8290   35.4770   40.3430 H   0  0  0  0  0  0  0  0  0  0  0  0
   42.8040   33.6800   39.0140 H   0  0  0  0  0  0  0  0  0  0  0  0
   45.0060   32.8530   39.4790 H   0  0  0  0  0  0  0  0  0  0  0  0
   46.6670   33.6130   41.2870 N   0  0  0  0  0  0  0  0  0  0  0  0
   46.9610   32.3100   41.1230 C   0  0  0  0  0  0  0  0  0  0  0  0
   46.2940   31.4910   40.8980 H   0  0  0  0  0  0  0  0  0  0  0  0
   48.2670   32.1140   41.2810 N   0  0  0  0  0  0  0  0  0  0  0  0
   48.8520   33.2950   41.5540 C   0  0  0  0  0  0  0  0  0  0  0  0
   50.1200   33.7230   41.8060 C   0  0  0  0  0  0  0  0  0  0  0  0
   50.4170   35.0210   42.0550 N   0  0  0  0  0  0  0  0  0  0  0  0
   49.4160   35.9450   42.0580 C   0  0  0  0  0  0  0  0  0  0  0  0
   49.5770   37.0000   42.2480 H   0  0  0  0  0  0  0  0  0  0  0  0
   48.1640   35.5440   41.8110 N   0  0  0  0  0  0  0  0  0  0  0  0
   47.8390   34.2620   41.5610 C   0  0  0  0  0  0  0  0  0  0  0  0
   51.1250   32.7150   41.7910 N   0  0  0  0  0  0  0  0  0  0  0  0
   52.1030   32.5280   41.5000 H   0  0  0  0  0  0  0  0  0  0  0  0
   50.9340   31.7780   42.1900 H   0  0  0  0  0  0  0  0  0  0  0  0
   44.7480   35.0880   45.2410 C   0  0  0  0  0  0  0  0  0  0  0  0
   45.5960   34.8970   44.1550 C   0  0  0  0  0  0  0  0  0  0  0  0
   46.4500   33.7950   44.2030 C   0  0  0  0  0  0  0  0  0  0  0  0
   46.4470   32.9500   45.2620 N   0  0  0  0  0  0  0  0  0  0  0  0
   45.6070   33.1710   46.2980 C   0  0  0  0  0  0  0  0  0  0  0  0
   44.7560   34.2360   46.2960 N   0  0  0  0  0  0  0  0  0  0  0  0
   44.0770   35.9150   45.2560 H   0  0  0  0  0  0  0  0  0  0  0  0
   47.1550   33.5410   43.4610 H   0  0  0  0  0  0  0  0  0  0  0  0
   47.0860   31.7650   47.7190 C   0  0  2  0  0  0  0  0  0  0  0  0
   45.6320   32.2310   47.4190 C   0  0  1  0  0  0  0  0  0  0  0  0
   45.3190   32.7450   48.6300 O   0  0  0  0  0  0  0  0  0  0  0  0
   45.7190   31.8570   49.5860 C   0  0  0  0  0  0  0  0  0  0  0  0
   46.7660   30.9460   48.9770 C   0  0  2  0  0  0  0  0  0  0  0  0
   47.4700   31.1330   46.9010 H   0  0  0  0  0  0  0  0  0  0  0  0
   45.0220   31.3130   47.2260 H   0  0  0  0  0  0  0  0  0  0  0  0
   46.1610   32.4200   50.4330 H   0  0  0  0  0  0  0  0  0  0  0  0
   44.8210   31.2690   49.9150 H   0  0  0  0  0  0  0  0  0  0  0  0
   46.2890   29.9890   48.7140 H   0  0  0  0  0  0  0  0  0  0  0  0
   47.8430   32.8100   48.1010 O   0  0  0  0  0  0  0  0  0  0  0  0
   48.8080   32.5650   47.9460 H   0  0  0  0  0  0  0  0  0  0  0  0
   47.8530   30.7300   49.7690 O   0  0  0  0  0  0  0  0  0  0  0  0
   48.6690   31.2150   49.4790 H   0  0  0  0  0  0  0  0  0  0  0  0
  1  3  1  0  0  0  0
  1 29  1  0  0  0  0
  2  1  1  0  0  0  0
  4  1  1  0  0  0  0
  5  4  1  0  0  0  0
  5 10  1  0  0  0  0
  6  5  2  0  0  0  0
  7  8  2  0  0  0  0
  7  6  1  0  0  0  0
  8  9  1  0  0  0  0
  9 14  1  0  0  0  0
  9  4  2  0  0  0  0
 11  6  1  0  0  0  0
 12  7  1  0  0  0  0
 13  8  1  0  0  0  0
 14 24  1  0  0  0  0
 15 17  2  0  0  0  0
 15 14  1  0  0  0  0
 16 15  1  0  0  0  0
 17 18  1  0  0  0  0
 18 24  2  0  0  0  0
 18 19  1  0  0  0  0
 19 20  2  0  0  0  0
 20 21  1  0  0  0  0
 21 22  1  0  0  0  0
 23 21  2  0  0  0  0
 24 23  1  0  0  0  0
 25 19  1  0  0  0  0
 25 27  1  0  0  0  0
 26 25  1  0  0  0  0
 28 34  1  0  0  0  0
 28 33  1  0  0  0  0
 29 30  1  0  0  0  0
 29 28  2  0  0  0  0
 30 31  2  0  0  0  0
 31 32  1  0  0  0  0
 32 37  1  0  0  0  0
 33 32  2  0  0  0  0
 35 30  1  0  0  0  0
 36 41  1  6  0  0  0
 36 46  1  0  0  0  0
 36 40  1  0  0  0  0
 37 42  1  6  0  0  0
 37 36  1  0  0  0  0
 37 38  1  0  0  0  0
 38 39  1  0  0  0  0
 39 44  1  0  0  0  0
 39 43  1  0  0  0  0
 40 45  1  6  0  0  0
 40 39  1  0  0  0  0
 40 48  1  0  0  0  0
 47 46  1  0  0  0  0
 49 48  1  0  0  0  0
M  END
>  <minimizedAffinity>
-7.37955046

>  <minimizedRMSD>
0.578646362

$$$$
