
 OpenBabel03242512543D

 34 36  0  0  0  0  0  0  0  0999 V2000
   42.7930   42.2370   45.6440 O   0  0  0  0  0  0  0  0  0  0  0  0
   44.2630   42.1510   45.9330 P   0  0  1  0  0  0  0  0  0  0  0  0
   44.5510   42.5320   47.5540 O   0  0  0  0  0  0  0  0  0  0  0  0
   45.5150   42.6810   47.7260 H   0  0  0  0  0  0  0  0  0  0  0  0
   44.7470   40.5580   45.6220 O   0  0  0  0  0  0  0  0  0  0  0  0
   45.2580   40.4190   44.3460 C   0  0  0  0  0  0  0  0  0  0  0  0
   46.3110   40.7760   44.3840 H   0  0  0  0  0  0  0  0  0  0  0  0
   44.7190   41.0980   43.6340 H   0  0  0  0  0  0  0  0  0  0  0  0
   44.9190   38.0000   44.6750 C   0  0  0  0  0  0  0  0  0  0  0  0
   45.2940   39.0120   43.9100 C   0  0  0  0  0  0  0  0  0  0  0  0
   45.0100   36.6610   44.1250 C   0  0  0  0  0  0  0  0  0  0  0  0
   45.1890   36.5080   42.7410 C   0  0  0  0  0  0  0  0  0  0  0  0
   45.2800   35.2170   42.1870 C   0  0  0  0  0  0  0  0  0  0  0  0
   45.1850   34.1650   43.0420 N   0  0  0  0  0  0  0  0  0  0  0  0
   45.0120   34.3290   44.3700 C   0  0  0  0  0  0  0  0  0  0  0  0
   44.9290   35.5610   44.8780 N   0  0  0  0  0  0  0  0  0  0  0  0
   45.2660   37.3220   42.0500 H   0  0  0  0  0  0  0  0  0  0  0  0
   45.4180   35.0650   41.1340 H   0  0  0  0  0  0  0  0  0  0  0  0
   44.9430   33.4420   45.0100 H   0  0  0  0  0  0  0  0  0  0  0  0
   45.0690   43.2780   44.9860 O   0  0  0  0  0  0  0  0  0  0  0  0
   45.0750   44.0850   47.5990 H   0  0  0  0  0  0  0  0  0  0  0  0
   45.4930   44.6370   46.8160 N   0  0  0  0  0  0  0  0  0  0  0  0
   45.6200   44.4680   45.4720 C   0  0  0  0  0  0  0  0  0  0  0  0
   46.2640   45.5270   44.9500 N   0  0  0  0  0  0  0  0  0  0  0  0
   46.5550   46.3860   45.9710 C   0  0  0  0  0  0  0  0  0  0  0  0
   47.2100   47.5990   45.8980 C   0  0  0  0  0  0  0  0  0  0  0  0
   47.3600   48.2400   47.0710 N   0  0  0  0  0  0  0  0  0  0  0  0
   46.9060   47.7360   48.2330 C   0  0  0  0  0  0  0  0  0  0  0  0
   47.0330   48.2610   49.1790 H   0  0  0  0  0  0  0  0  0  0  0  0
   46.2780   46.5470   48.2290 N   0  0  0  0  0  0  0  0  0  0  0  0
   46.0660   45.8130   47.1270 C   0  0  0  0  0  0  0  0  0  0  0  0
   47.6920   48.1370   44.6760 N   0  0  0  0  0  0  0  0  0  0  0  0
   47.2940   48.3270   43.7420 H   0  0  0  0  0  0  0  0  0  0  0  0
   48.6940   48.3840   44.8080 H   0  0  0  0  0  0  0  0  0  0  0  0
  2  1  2  6  0  0  0
  2  3  1  0  0  0  0
  3  4  1  0  0  0  0
  5  2  1  0  0  0  0
  6  7  1  0  0  0  0
  6  5  1  0  0  0  0
  8  6  1  0  0  0  0
 10  6  1  0  0  0  0
 10  9  2  0  0  0  0
 11  9  1  0  0  0  0
 11 16  1  0  0  0  0
 12 11  2  0  0  0  0
 13 12  1  0  0  0  0
 13 14  2  0  0  0  0
 14 15  1  0  0  0  0
 15 16  2  0  0  0  0
 15 19  1  0  0  0  0
 17 12  1  0  0  0  0
 18 13  1  0  0  0  0
 20 23  1  0  0  0  0
 20  2  1  0  0  0  0
 22 31  1  0  0  0  0
 22 21  1  0  0  0  0
 23 22  1  0  0  0  0
 24 23  2  0  0  0  0
 24 25  1  0  0  0  0
 25 31  1  0  0  0  0
 26 25  2  0  0  0  0
 26 27  1  0  0  0  0
 27 28  2  0  0  0  0
 28 29  1  0  0  0  0
 30 28  1  0  0  0  0
 31 30  2  0  0  0  0
 32 34  1  0  0  0  0
 32 26  1  0  0  0  0
 33 32  1  0  0  0  0
M  END
>  <minimizedAffinity>
-2.83686471

>  <minimizedRMSD>
0.857746899

$$$$
