
     RDKit          3D

 27 29  0  0  0  0  0  0  0  0999 V2000
   44.5333   36.0014   44.5214 C   0  0  0  0  0  0  0  0  0  0  0  0
   45.2129   35.8908   43.3213 C   0  0  0  0  0  0  0  0  0  0  0  0
   46.0982   34.8306   43.1869 C   0  0  0  0  0  0  0  0  0  0  0  0
   46.2775   33.9464   44.2038 N   0  0  0  0  0  0  0  0  0  0  0  0
   45.5937   34.0874   45.3650 C   0  0  0  0  0  0  0  0  0  0  0  0
   44.7358   35.1099   45.5028 N   0  0  0  0  0  0  0  0  0  0  0  0
   45.8381   33.0895   46.4277 C   0  0  0  0  0  0  0  0  0  0  0  0
   46.5335   31.6239   45.6161 S   0  0  0  0  0  0  0  0  0  0  0  0
   43.8587   36.8451   44.5678 H   0  0  0  0  0  0  0  0  0  0  0  0
   45.1618   36.5205   42.4423 H   0  0  0  0  0  0  0  0  0  0  0  0
   46.7000   34.6197   42.3004 H   0  0  0  0  0  0  0  0  0  0  0  0
   44.9415   32.8439   47.0193 H   0  0  0  0  0  0  0  0  0  0  0  0
   46.5920   33.5746   47.1152 H   0  0  0  0  0  0  0  0  0  0  0  0
   45.4013   28.8608   46.5445 H   0  0  0  0  0  0  0  0  0  0  0  0
   46.2671   29.1636   47.0475 N   0  0  0  0  0  0  0  0  0  0  0  0
   46.8842   30.3240   46.7731 C   0  0  0  0  0  0  0  0  0  0  0  0
   47.9509   30.4002   47.5917 N   0  0  0  0  0  0  0  0  0  0  0  0
   47.9834   29.3084   48.3497 C   0  0  0  0  0  0  0  0  0  0  0  0
   48.8576   28.9029   49.3341 C   0  0  0  0  0  0  0  0  0  0  0  0
   49.9481   29.7578   49.6503 N   0  0  0  0  0  0  0  0  0  0  0  0
   49.8273   30.8115   49.6787 H   0  0  0  0  0  0  0  0  0  0  0  0
   48.6532   27.7206   49.9597 N   0  0  0  0  0  0  0  0  0  0  0  0
   47.5832   26.9553   49.6002 C   0  0  0  0  0  0  0  0  0  0  0  0
   47.5312   26.0381   50.1723 H   0  0  0  0  0  0  0  0  0  0  0  0
   46.7261   27.3398   48.6438 N   0  0  0  0  0  0  0  0  0  0  0  0
   46.9143   28.5031   48.0177 C   0  0  0  0  0  0  0  0  0  0  0  0
   50.9531   29.6657   49.8932 H   0  0  0  0  0  0  0  0  0  0  0  0
  1  6  2  0
  2  1  1  0
  3  2  2  0
  3  4  1  0
  4  5  2  0
  5  6  1  0
  5  7  1  0
  8  7  1  0
  1  9  1  0
  2 10  1  0
  3 11  1  0
  7 12  1  0
  7 13  1  0
 14 15  1  0
 15 16  1  0
 16 17  2  0
 17 18  1  0
 18 19  2  0
 19 20  1  0
 20 21  1  0
 19 22  1  0
 22 23  2  0
 23 24  1  0
 23 25  1  0
 25 26  2  0
 26 15  1  0
 26 18  1  0
 20 27  1  0
  8 16  1  0
M  ISO  8   9  14  10  14  11  14  12   8  13   8  14   9  21   5  24  16
M  END
>  <DihAtoms>  (1) 
6,7,15,14

>  <DihDeg>  (1) 
0.0010597309693682912

$$$$
