
 OpenBabel03242521443D

 43 46  0  0  1  0  0  0  0  0999 V2000
   45.4860   34.6490   43.8890 C   0  0  0  0  0  0  0  0  0  0  0  0
   46.5640   33.9970   43.2670 C   0  0  0  0  0  0  0  0  0  0  0  0
   47.3130   33.0710   44.0040 C   0  0  0  0  0  0  0  0  0  0  0  0
   46.9570   32.8580   45.2680 N   0  0  0  0  0  0  0  0  0  0  0  0
   45.9170   33.4950   45.8530 C   0  0  0  0  0  0  0  0  0  0  0  0
   45.1800   34.3910   45.1660 N   0  0  0  0  0  0  0  0  0  0  0  0
   46.7570   34.2490   42.2420 H   0  0  0  0  0  0  0  0  0  0  0  0
   45.6940   33.2700   46.8710 H   0  0  0  0  0  0  0  0  0  0  0  0
   49.2390   33.3270   42.4510 C   0  0  2  0  0  0  0  0  0  0  0  0
   48.4190   32.4260   43.3050 C   0  0  2  0  0  0  0  0  0  0  0  0
   48.0070   31.4500   42.3500 O   0  0  0  0  0  0  0  0  0  0  0  0
   49.2100   31.0880   41.7700 C   0  0  0  0  0  0  0  0  0  0  0  0
   50.1570   32.2540   41.8250 C   0  0  1  0  0  0  0  0  0  0  0  0
   48.6750   33.7100   41.5570 H   0  0  0  0  0  0  0  0  0  0  0  0
   49.1030   31.8630   43.9920 H   0  0  0  0  0  0  0  0  0  0  0  0
   49.0300   30.8430   40.7020 H   0  0  0  0  0  0  0  0  0  0  0  0
   49.6440   30.2420   42.3120 H   0  0  0  0  0  0  0  0  0  0  0  0
   51.0210   32.0840   42.4990 H   0  0  0  0  0  0  0  0  0  0  0  0
   49.9090   34.3030   43.1230 O   0  0  0  0  0  0  0  0  0  0  0  0
   49.9750   35.1680   42.6570 H   0  0  0  0  0  0  0  0  0  0  0  0
   50.5720   32.6980   40.5740 O   0  0  0  0  0  0  0  0  0  0  0  0
   50.7010   33.6650   40.6360 H   0  0  0  0  0  0  0  0  0  0  0  0
   44.6970   35.6490   43.0850 C   0  0  0  0  0  0  0  0  0  0  0  0
   45.2240   35.8570   42.1450 H   0  0  0  0  0  0  0  0  0  0  0  0
   43.6690   35.2720   42.9580 H   0  0  0  0  0  0  0  0  0  0  0  0
   45.3810   38.0320   43.7780 C   0  0  0  0  0  0  0  0  0  0  0  0
   46.2580   38.0350   42.8750 O   0  0  0  0  0  0  0  0  0  0  0  0
   44.6140   36.8550   43.9020 N   0  0  0  0  0  0  0  0  0  0  0  0
   43.8930   36.8490   44.6790 H   0  0  0  0  0  0  0  0  0  0  0  0
   45.3280   38.3960   46.6450 H   0  0  0  0  0  0  0  0  0  0  0  0
   45.1550   39.1880   46.0090 N   0  0  0  0  0  0  0  0  0  0  0  0
   45.1470   39.1690   44.6610 C   0  0  0  0  0  0  0  0  0  0  0  0
   44.8780   40.4240   44.2570 N   0  0  0  0  0  0  0  0  0  0  0  0
   44.7150   41.2380   45.3180 C   0  0  0  0  0  0  0  0  0  0  0  0
   44.4300   42.5900   45.3540 C   0  0  0  0  0  0  0  0  0  0  0  0
   44.3300   43.1130   46.6030 N   0  0  0  0  0  0  0  0  0  0  0  0
   44.4940   42.3860   47.7200 C   0  0  0  0  0  0  0  0  0  0  0  0
   44.4060   42.8420   48.7090 H   0  0  0  0  0  0  0  0  0  0  0  0
   44.7740   41.0570   47.6580 N   0  0  0  0  0  0  0  0  0  0  0  0
   44.8910   40.4550   46.4400 C   0  0  0  0  0  0  0  0  0  0  0  0
   44.2540   43.3710   44.1700 N   0  0  0  0  0  0  0  0  0  0  0  0
   44.0500   42.8200   43.2940 H   0  0  0  0  0  0  0  0  0  0  0  0
   44.3500   44.4050   44.3130 H   0  0  0  0  0  0  0  0  0  0  0  0
  1  6  1  0  0  0  0
  2  1  2  0  0  0  0
  2  3  1  0  0  0  0
  3  4  2  0  0  0  0
  4  5  1  0  0  0  0
  5  8  1  0  0  0  0
  6  5  2  0  0  0  0
  7  2  1  0  0  0  0
  9 14  1  6  0  0  0
  9 19  1  0  0  0  0
  9 10  1  0  0  0  0
 10 15  1  1  0  0  0
 10  3  1  0  0  0  0
 11 10  1  0  0  0  0
 12 13  1  0  0  0  0
 12 17  1  0  0  0  0
 12 11  1  0  0  0  0
 13  9  1  0  0  0  0
 13 18  1  1  0  0  0
 16 12  1  0  0  0  0
 20 19  1  0  0  0  0
 21 22  1  0  0  0  0
 21 13  1  0  0  0  0
 23  1  1  0  0  0  0
 23 28  1  0  0  0  0
 24 23  1  0  0  0  0
 25 23  1  0  0  0  0
 26 28  1  0  0  0  0
 26 32  1  0  0  0  0
 27 26  2  0  0  0  0
 28 29  1  0  0  0  0
 31 40  1  0  0  0  0
 31 30  1  0  0  0  0
 32 31  1  0  0  0  0
 33 32  2  0  0  0  0
 33 34  1  0  0  0  0
 34 35  2  0  0  0  0
 34 40  1  0  0  0  0
 35 36  1  0  0  0  0
 36 37  2  0  0  0  0
 37 38  1  0  0  0  0
 39 37  1  0  0  0  0
 40 39  2  0  0  0  0
 41 43  1  0  0  0  0
 41 35  1  0  0  0  0
 42 41  1  0  0  0  0
M  END
>  <minimizedAffinity>
-2.90887141

>  <minimizedRMSD>
1.41349125

$$$$
