
     RDKit          3D

 39 43  0  0  0  0  0  0  0  0999 V2000
   46.0362   31.6937   45.1370 C   0  0  0  0  0  0  0  0  0  0  0  0
   45.7949   33.0073   45.5334 C   0  0  0  0  0  0  0  0  0  0  0  0
   45.5248   33.2799   46.8534 C   0  0  0  0  0  0  0  0  0  0  0  0
   45.4956   32.2512   47.7708 C   0  0  0  0  0  0  0  0  0  0  0  0
   45.2694   32.1966   49.0836 N   0  0  0  0  0  0  0  0  0  0  0  0
   45.3493   30.9470   49.5484 C   0  0  0  0  0  0  0  0  0  0  0  0
   45.6434   30.1236   48.4966 C   0  0  0  0  0  0  0  0  0  0  0  0
   45.7346   30.9405   47.3854 C   0  0  0  0  0  0  0  0  0  0  0  0
   46.0076   30.6631   46.0523 C   0  0  0  0  0  0  0  0  0  0  0  0
   46.9032   34.9177   42.6287 C   0  0  0  0  0  0  0  0  0  0  0  0
   45.9729   35.9615   42.5479 C   0  0  0  0  0  0  0  0  0  0  0  0
   44.9594   36.0033   43.5022 C   0  0  0  0  0  0  0  0  0  0  0  0
   44.9311   35.0370   44.4492 N   0  0  0  0  0  0  0  0  0  0  0  0
   45.8440   34.0477   44.4953 C   0  0  0  0  0  0  0  0  0  0  0  0
   46.8346   33.9788   43.5893 N   0  0  0  0  0  0  0  0  0  0  0  0
   47.9255   34.9330   41.6116 C   0  0  0  0  0  0  0  0  0  0  0  0
   48.8165   35.8402   41.4897 O   0  0  0  0  0  0  0  0  0  0  0  0
   46.2520   31.4563   44.0960 H   0  0  0  0  0  0  0  0  0  0  0  0
   45.3381   34.3040   47.1547 H   0  0  0  0  0  0  0  0  0  0  0  0
   45.0570   33.0397   49.6616 H   0  0  0  0  0  0  0  0  0  0  0  0
   45.2032   30.6490   50.5890 H   0  0  0  0  0  0  0  0  0  0  0  0
   45.7780   29.0708   48.5094 H   0  0  0  0  0  0  0  0  0  0  0  0
   46.1994   29.6585   45.7081 H   0  0  0  0  0  0  0  0  0  0  0  0
   46.0199   36.7253   41.7751 H   0  0  0  0  0  0  0  0  0  0  0  0
   44.2276   36.8063   43.4558 H   0  0  0  0  0  0  0  0  0  0  0  0
   46.3429   34.3072   39.2963 H   0  0  0  0  0  0  0  0  0  0  0  0
   47.1389   33.7202   39.5741 N   0  0  0  0  0  0  0  0  0  0  0  0
   47.9925   33.8450   40.6138 C   0  0  0  0  0  0  0  0  0  0  0  0
   48.8773   32.8323   40.5687 N   0  0  0  0  0  0  0  0  0  0  0  0
   48.6154   32.0487   39.5170 C   0  0  0  0  0  0  0  0  0  0  0  0
   49.1090   30.9048   38.9225 C   0  0  0  0  0  0  0  0  0  0  0  0
   50.2382   30.2950   39.5359 N   0  0  0  0  0  0  0  0  0  0  0  0
   51.1190   30.8657   39.3669 H   0  0  0  0  0  0  0  0  0  0  0  0
   48.6103   30.3338   37.8255 N   0  0  0  0  0  0  0  0  0  0  0  0
   47.5302   30.9097   37.2314 C   0  0  0  0  0  0  0  0  0  0  0  0
   47.0170   30.5690   36.3451 H   0  0  0  0  0  0  0  0  0  0  0  0
   47.0254   32.0261   37.7868 N   0  0  0  0  0  0  0  0  0  0  0  0
   47.5174   32.6097   38.8891 C   0  0  0  0  0  0  0  0  0  0  0  0
   50.6687   29.5298   40.0995 H   0  0  0  0  0  0  0  0  0  0  0  0
  1  2  2  0
  1  9  1  0
  2  3  1  0
  3  4  2  0
  4  5  1  0
  5  6  1  0
  7  6  2  0
  8  4  1  0
  8  7  1  0
  9  8  2  0
 10 15  1  0
 11 10  2  0
 11 12  1  0
 12 13  2  0
 13 14  1  0
 14  2  1  0
 15 14  2  0
 16 10  1  0
 17 16  2  0
  1 18  1  0
  3 19  1  0
  5 20  1  0
  6 21  1  0
  7 22  1  0
  9 23  1  0
 11 24  1  0
 12 25  1  0
 26 27  1  0
 27 28  1  0
 28 29  2  0
 29 30  1  0
 30 31  2  0
 31 32  1  0
 32 33  1  0
 31 34  1  0
 34 35  2  0
 35 36  1  0
 35 37  1  0
 37 38  2  0
 38 27  1  0
 38 30  1  0
 32 39  1  0
 16 28  1  0
M  ISO  8  18  14  19  14  20   9  21  14  22  14  23  14  24  14  25  14
M  ISO  3  26   9  33   5  36  16
M  END
>  <DihAtoms>  (1) 
9,15,27,26

>  <DihDeg>  (1) 
179.98915533584054

$$$$
