
 OpenBabel03252504013D

 39 43  0  0  0  0  0  0  0  0999 V2000
   38.0720   31.8480   40.7550 C   0  0  0  0  0  0  0  0  0  0  0  0
   36.7120   31.5640   40.5830 C   0  0  0  0  0  0  0  0  0  0  0  0
   36.2330   30.3550   41.0840 C   0  0  0  0  0  0  0  0  0  0  0  0
   37.1060   29.5300   41.7060 N   0  0  0  0  0  0  0  0  0  0  0  0
   38.4090   29.8380   41.8540 C   0  0  0  0  0  0  0  0  0  0  0  0
   38.9030   30.9960   41.3810 N   0  0  0  0  0  0  0  0  0  0  0  0
   36.0340   32.2460   40.0770 H   0  0  0  0  0  0  0  0  0  0  0  0
   35.1800   30.1170   40.9600 H   0  0  0  0  0  0  0  0  0  0  0  0
   38.8000   27.8060   43.1600 C   0  0  0  0  0  0  0  0  0  0  0  0
   39.3400   28.9260   42.5340 C   0  0  0  0  0  0  0  0  0  0  0  0
   40.6980   29.1360   42.5720 C   0  0  0  0  0  0  0  0  0  0  0  0
   41.5110   28.2360   43.2290 C   0  0  0  0  0  0  0  0  0  0  0  0
   42.8260   28.1670   43.4360 N   0  0  0  0  0  0  0  0  0  0  0  0
   43.1580   27.0850   44.1460 C   0  0  0  0  0  0  0  0  0  0  0  0
   42.0110   26.3980   44.4300 C   0  0  0  0  0  0  0  0  0  0  0  0
   40.9810   27.1190   43.8550 C   0  0  0  0  0  0  0  0  0  0  0  0
   39.6090   26.9040   43.8180 C   0  0  0  0  0  0  0  0  0  0  0  0
   37.7260   27.6200   43.1420 H   0  0  0  0  0  0  0  0  0  0  0  0
   41.1130   30.0100   42.0820 H   0  0  0  0  0  0  0  0  0  0  0  0
   43.4990   28.8800   43.0780 H   0  0  0  0  0  0  0  0  0  0  0  0
   44.1740   26.8110   44.4420 H   0  0  0  0  0  0  0  0  0  0  0  0
   41.9090   25.4930   44.9760 H   0  0  0  0  0  0  0  0  0  0  0  0
   39.1540   26.0490   44.2910 H   0  0  0  0  0  0  0  0  0  0  0  0
   38.5030   33.1130   40.2130 C   0  0  0  0  0  0  0  0  0  0  0  0
   37.7240   34.0830   39.9230 O   0  0  0  0  0  0  0  0  0  0  0  0
   40.8230   33.0980   41.9080 H   0  0  0  0  0  0  0  0  0  0  0  0
   40.8960   33.3030   40.9050 N   0  0  0  0  0  0  0  0  0  0  0  0
   39.9370   33.3570   39.9540 C   0  0  0  0  0  0  0  0  0  0  0  0
   40.5140   33.6650   38.7780 N   0  0  0  0  0  0  0  0  0  0  0  0
   41.8330   33.8110   38.9450 C   0  0  0  0  0  0  0  0  0  0  0  0
   42.9510   34.1090   38.1920 C   0  0  0  0  0  0  0  0  0  0  0  0
   44.1960   34.1860   38.6640 N   0  0  0  0  0  0  0  0  0  0  0  0
   44.4000   33.9560   39.9890 C   0  0  0  0  0  0  0  0  0  0  0  0
   45.3410   33.9800   40.5170 H   0  0  0  0  0  0  0  0  0  0  0  0
   43.3300   33.6620   40.7500 N   0  0  0  0  0  0  0  0  0  0  0  0
   42.0740   33.5830   40.2890 C   0  0  0  0  0  0  0  0  0  0  0  0
   42.7490   34.3510   36.8050 N   0  0  0  0  0  0  0  0  0  0  0  0
   42.5350   33.4480   36.2870 H   0  0  0  0  0  0  0  0  0  0  0  0
   42.7000   35.0000   35.9900 H   0  0  0  0  0  0  0  0  0  0  0  0
  1  6  1  0  0  0  0
  2  1  2  0  0  0  0
  2  3  1  0  0  0  0
  3  4  2  0  0  0  0
  4  5  1  0  0  0  0
  5 10  1  0  0  0  0
  6  5  2  0  0  0  0
  7  2  1  0  0  0  0
  8  3  1  0  0  0  0
  9 17  1  0  0  0  0
 10 11  1  0  0  0  0
 10  9  2  0  0  0  0
 11 12  2  0  0  0  0
 12 13  1  0  0  0  0
 12 16  1  0  0  0  0
 13 14  1  0  0  0  0
 14 15  2  0  0  0  0
 14 21  1  0  0  0  0
 15 22  1  0  0  0  0
 16 15  1  0  0  0  0
 17 16  2  0  0  0  0
 17 23  1  0  0  0  0
 18  9  1  0  0  0  0
 19 11  1  0  0  0  0
 20 13  1  0  0  0  0
 24  1  1  0  0  0  0
 25 24  2  0  0  0  0
 27 26  1  0  0  0  0
 28 24  1  0  0  0  0
 28 27  1  0  0  0  0
 29 30  1  0  0  0  0
 29 28  2  0  0  0  0
 30 36  1  0  0  0  0
 31 32  1  0  0  0  0
 31 30  2  0  0  0  0
 32 33  2  0  0  0  0
 33 34  1  0  0  0  0
 33 35  1  0  0  0  0
 36 35  2  0  0  0  0
 36 27  1  0  0  0  0
 37 31  1  0  0  0  0
 38 37  1  0  0  0  0
 39 37  1  0  0  0  0
M  END
>  <minimizedAffinity>
-7.5694747

$$$$

 OpenBabel03252504013D

 39 43  0  0  0  0  0  0  0  0999 V2000
   38.5480   32.5020   40.7470 C   0  0  0  0  0  0  0  0  0  0  0  0
   37.2530   32.4610   40.2140 C   0  0  0  0  0  0  0  0  0  0  0  0
   36.5660   31.2520   40.2720 C   0  0  0  0  0  0  0  0  0  0  0  0
   37.1840   30.1900   40.8380 N   0  0  0  0  0  0  0  0  0  0  0  0
   38.4310   30.2670   41.3400 C   0  0  0  0  0  0  0  0  0  0  0  0
   39.1230   31.4190   41.2990 N   0  0  0  0  0  0  0  0  0  0  0  0
   36.7810   33.3310   39.7650 H   0  0  0  0  0  0  0  0  0  0  0  0
   35.5590   31.2010   39.8650 H   0  0  0  0  0  0  0  0  0  0  0  0
   40.3360   29.2960   42.5320 C   0  0  0  0  0  0  0  0  0  0  0  0
   39.0860   29.1000   41.9500 C   0  0  0  0  0  0  0  0  0  0  0  0
   38.5180   27.8480   41.9660 C   0  0  0  0  0  0  0  0  0  0  0  0
   39.1920   26.8000   42.5580 C   0  0  0  0  0  0  0  0  0  0  0  0
   38.9130   25.5070   42.7280 N   0  0  0  0  0  0  0  0  0  0  0  0
   39.8930   24.8710   43.3750 C   0  0  0  0  0  0  0  0  0  0  0  0
   40.8770   25.7790   43.6500 C   0  0  0  0  0  0  0  0  0  0  0  0
   40.4370   26.9870   43.1390 C   0  0  0  0  0  0  0  0  0  0  0  0
   41.0120   28.2500   43.1240 C   0  0  0  0  0  0  0  0  0  0  0  0
   40.8040   30.2800   42.5300 H   0  0  0  0  0  0  0  0  0  0  0  0
   37.5450   27.7010   41.5120 H   0  0  0  0  0  0  0  0  0  0  0  0
   38.0290   25.0640   42.3910 H   0  0  0  0  0  0  0  0  0  0  0  0
   39.8950   23.8090   43.6320 H   0  0  0  0  0  0  0  0  0  0  0  0
   41.7970   25.6140   44.1530 H   0  0  0  0  0  0  0  0  0  0  0  0
   41.9790   28.4410   43.5630 H   0  0  0  0  0  0  0  0  0  0  0  0
   39.2050   33.7820   40.6540 C   0  0  0  0  0  0  0  0  0  0  0  0
   38.6500   34.9040   40.9110 O   0  0  0  0  0  0  0  0  0  0  0  0
   41.6800   33.6170   42.1040 H   0  0  0  0  0  0  0  0  0  0  0  0
   41.6650   33.7570   41.0880 N   0  0  0  0  0  0  0  0  0  0  0  0
   40.6200   33.8590   40.2370 C   0  0  0  0  0  0  0  0  0  0  0  0
   41.0960   34.0390   38.9910 N   0  0  0  0  0  0  0  0  0  0  0  0
   42.4330   34.0540   39.0140 C   0  0  0  0  0  0  0  0  0  0  0  0
   43.4880   34.1900   38.1340 C   0  0  0  0  0  0  0  0  0  0  0  0
   44.7770   34.1620   38.4720 N   0  0  0  0  0  0  0  0  0  0  0  0
   45.0980   33.9850   39.7820 C   0  0  0  0  0  0  0  0  0  0  0  0
   46.0890   33.9400   40.2090 H   0  0  0  0  0  0  0  0  0  0  0  0
   44.0920   33.8490   40.6650 N   0  0  0  0  0  0  0  0  0  0  0  0
   42.7930   33.8760   40.3380 C   0  0  0  0  0  0  0  0  0  0  0  0
   43.1630   34.3750   36.7610 N   0  0  0  0  0  0  0  0  0  0  0  0
   42.8070   33.4720   36.3290 H   0  0  0  0  0  0  0  0  0  0  0  0
   43.0920   34.9790   35.9140 H   0  0  0  0  0  0  0  0  0  0  0  0
  1  6  1  0  0  0  0
  2  3  1  0  0  0  0
  2  1  2  0  0  0  0
  3  4  2  0  0  0  0
  4  5  1  0  0  0  0
  5 10  1  0  0  0  0
  6  5  2  0  0  0  0
  7  2  1  0  0  0  0
  8  3  1  0  0  0  0
  9 17  1  0  0  0  0
 10 11  1  0  0  0  0
 10  9  2  0  0  0  0
 11 12  2  0  0  0  0
 12 13  1  0  0  0  0
 12 16  1  0  0  0  0
 13 14  1  0  0  0  0
 14 21  1  0  0  0  0
 14 15  2  0  0  0  0
 15 22  1  0  0  0  0
 16 15  1  0  0  0  0
 17 16  2  0  0  0  0
 17 23  1  0  0  0  0
 18  9  1  0  0  0  0
 19 11  1  0  0  0  0
 20 13  1  0  0  0  0
 24  1  1  0  0  0  0
 24 25  2  0  0  0  0
 27 26  1  0  0  0  0
 28 24  1  0  0  0  0
 28 27  1  0  0  0  0
 29 30  1  0  0  0  0
 29 28  2  0  0  0  0
 30 36  1  0  0  0  0
 31 32  1  0  0  0  0
 31 30  2  0  0  0  0
 32 33  2  0  0  0  0
 33 34  1  0  0  0  0
 33 35  1  0  0  0  0
 36 35  2  0  0  0  0
 36 27  1  0  0  0  0
 37 31  1  0  0  0  0
 38 37  1  0  0  0  0
 39 37  1  0  0  0  0
M  END
>  <minimizedAffinity>
-7.3517704

$$$$

 OpenBabel03252504013D

 39 43  0  0  0  0  0  0  0  0999 V2000
   37.5140   29.1020   41.8180 C   0  0  0  0  0  0  0  0  0  0  0  0
   38.0170   29.1380   43.1250 C   0  0  0  0  0  0  0  0  0  0  0  0
   38.3240   27.9250   43.7360 C   0  0  0  0  0  0  0  0  0  0  0  0
   38.1220   26.7850   43.0350 N   0  0  0  0  0  0  0  0  0  0  0  0
   37.6360   26.7900   41.7780 C   0  0  0  0  0  0  0  0  0  0  0  0
   37.3290   27.9440   41.1600 N   0  0  0  0  0  0  0  0  0  0  0  0
   38.1700   30.0700   43.6640 H   0  0  0  0  0  0  0  0  0  0  0  0
   38.7160   27.9320   44.7490 H   0  0  0  0  0  0  0  0  0  0  0  0
   36.5980   25.5920   39.9140 C   0  0  0  0  0  0  0  0  0  0  0  0
   37.4230   25.5400   41.0340 C   0  0  0  0  0  0  0  0  0  0  0  0
   37.9980   24.3450   41.3990 C   0  0  0  0  0  0  0  0  0  0  0  0
   37.7520   23.2120   40.6520 C   0  0  0  0  0  0  0  0  0  0  0  0
   38.1500   21.9430   40.7480 N   0  0  0  0  0  0  0  0  0  0  0  0
   37.6390   21.1900   39.7710 C   0  0  0  0  0  0  0  0  0  0  0  0
   36.8600   21.9910   38.9830 C   0  0  0  0  0  0  0  0  0  0  0  0
   36.9320   23.2570   39.5350 C   0  0  0  0  0  0  0  0  0  0  0  0
   36.3500   24.4620   39.1640 C   0  0  0  0  0  0  0  0  0  0  0  0
   36.1330   26.5290   39.6070 H   0  0  0  0  0  0  0  0  0  0  0  0
   38.6380   24.3100   42.2720 H   0  0  0  0  0  0  0  0  0  0  0  0
   38.7850   21.6000   41.5020 H   0  0  0  0  0  0  0  0  0  0  0  0
   37.8200   20.1210   39.6370 H   0  0  0  0  0  0  0  0  0  0  0  0
   36.3070   21.7180   38.1190 H   0  0  0  0  0  0  0  0  0  0  0  0
   35.7060   24.5420   38.3030 H   0  0  0  0  0  0  0  0  0  0  0  0
   37.2160   30.3910   41.2450 C   0  0  0  0  0  0  0  0  0  0  0  0
   36.0540   30.9200   41.2100 O   0  0  0  0  0  0  0  0  0  0  0  0
   39.2290   32.1090   42.3640 H   0  0  0  0  0  0  0  0  0  0  0  0
   39.1590   31.9580   41.3510 N   0  0  0  0  0  0  0  0  0  0  0  0
   38.2950   31.2000   40.6400 C   0  0  0  0  0  0  0  0  0  0  0  0
   38.5930   31.3180   39.3330 N   0  0  0  0  0  0  0  0  0  0  0  0
   39.6370   32.1390   39.1790 C   0  0  0  0  0  0  0  0  0  0  0  0
   40.4080   32.6630   38.1610 C   0  0  0  0  0  0  0  0  0  0  0  0
   41.4320   33.5000   38.3270 N   0  0  0  0  0  0  0  0  0  0  0  0
   41.7580   33.8790   39.5920 C   0  0  0  0  0  0  0  0  0  0  0  0
   42.5560   34.5450   39.8870 H   0  0  0  0  0  0  0  0  0  0  0  0
   41.0260   33.3850   40.6070 N   0  0  0  0  0  0  0  0  0  0  0  0
   39.9940   32.5450   40.4530 C   0  0  0  0  0  0  0  0  0  0  0  0
   40.0750   32.2730   36.8340 N   0  0  0  0  0  0  0  0  0  0  0  0
   40.3620   31.2660   36.6490 H   0  0  0  0  0  0  0  0  0  0  0  0
   39.6700   32.4820   35.8960 H   0  0  0  0  0  0  0  0  0  0  0  0
  1  2  1  0  0  0  0
  2  7  1  0  0  0  0
  2  3  2  0  0  0  0
  3  8  1  0  0  0  0
  4  3  1  0  0  0  0
  5  4  2  0  0  0  0
  6  5  1  0  0  0  0
  6  1  2  0  0  0  0
  9 10  1  0  0  0  0
 10 11  2  0  0  0  0
 10  5  1  0  0  0  0
 11 19  1  0  0  0  0
 12 13  1  0  0  0  0
 12 11  1  0  0  0  0
 13 20  1  0  0  0  0
 14 13  1  0  0  0  0
 15 16  1  0  0  0  0
 15 14  2  0  0  0  0
 16 12  2  0  0  0  0
 17 16  1  0  0  0  0
 17  9  2  0  0  0  0
 18  9  1  0  0  0  0
 21 14  1  0  0  0  0
 22 15  1  0  0  0  0
 23 17  1  0  0  0  0
 24  1  1  0  0  0  0
 25 24  2  0  0  0  0
 27 26  1  0  0  0  0
 28 24  1  0  0  0  0
 28 27  1  0  0  0  0
 29 28  2  0  0  0  0
 30 29  1  0  0  0  0
 30 36  1  0  0  0  0
 31 32  1  0  0  0  0
 31 30  2  0  0  0  0
 32 33  2  0  0  0  0
 33 34  1  0  0  0  0
 33 35  1  0  0  0  0
 36 35  2  0  0  0  0
 36 27  1  0  0  0  0
 37 31  1  0  0  0  0
 38 37  1  0  0  0  0
 39 37  1  0  0  0  0
M  END
>  <minimizedAffinity>
-7.13069344

$$$$

 OpenBabel03252504013D

 39 43  0  0  0  0  0  0  0  0999 V2000
   38.1860   29.3260   42.2870 C   0  0  0  0  0  0  0  0  0  0  0  0
   37.1600   28.6190   42.9250 C   0  0  0  0  0  0  0  0  0  0  0  0
   37.5160   27.5210   43.7050 C   0  0  0  0  0  0  0  0  0  0  0  0
   38.8280   27.2040   43.8030 N   0  0  0  0  0  0  0  0  0  0  0  0
   39.7870   27.9090   43.1740 C   0  0  0  0  0  0  0  0  0  0  0  0
   39.4770   28.9730   42.4130 N   0  0  0  0  0  0  0  0  0  0  0  0
   36.1130   28.8970   42.8280 H   0  0  0  0  0  0  0  0  0  0  0  0
   36.7340   26.9590   44.2080 H   0  0  0  0  0  0  0  0  0  0  0  0
   42.1360   28.5850   43.3030 C   0  0  0  0  0  0  0  0  0  0  0  0
   41.2080   27.5470   43.2930 C   0  0  0  0  0  0  0  0  0  0  0  0
   41.6410   26.2460   43.3940 C   0  0  0  0  0  0  0  0  0  0  0  0
   42.9910   25.9830   43.5030 C   0  0  0  0  0  0  0  0  0  0  0  0
   43.7020   24.8600   43.6120 N   0  0  0  0  0  0  0  0  0  0  0  0
   45.0120   25.1100   43.6900 C   0  0  0  0  0  0  0  0  0  0  0  0
   45.1870   26.4650   43.6300 C   0  0  0  0  0  0  0  0  0  0  0  0
   43.9220   27.0100   43.5130 C   0  0  0  0  0  0  0  0  0  0  0  0
   43.4860   28.3250   43.4120 C   0  0  0  0  0  0  0  0  0  0  0  0
   41.8140   29.6220   43.2250 H   0  0  0  0  0  0  0  0  0  0  0  0
   40.9140   25.4430   43.3850 H   0  0  0  0  0  0  0  0  0  0  0  0
   43.2700   23.9100   43.6330 H   0  0  0  0  0  0  0  0  0  0  0  0
   45.7950   24.3550   43.7860 H   0  0  0  0  0  0  0  0  0  0  0  0
   46.0990   27.0080   43.6650 H   0  0  0  0  0  0  0  0  0  0  0  0
   44.1750   29.1540   43.4150 H   0  0  0  0  0  0  0  0  0  0  0  0
   37.7490   30.4490   41.4950 C   0  0  0  0  0  0  0  0  0  0  0  0
   36.5290   30.7750   41.3050 O   0  0  0  0  0  0  0  0  0  0  0  0
   39.6750   32.3320   42.4980 H   0  0  0  0  0  0  0  0  0  0  0  0
   39.5770   32.1530   41.4920 N   0  0  0  0  0  0  0  0  0  0  0  0
   38.7440   31.3190   40.8320 C   0  0  0  0  0  0  0  0  0  0  0  0
   38.9830   31.4270   39.5120 N   0  0  0  0  0  0  0  0  0  0  0  0
   39.9580   32.3170   39.3000 C   0  0  0  0  0  0  0  0  0  0  0  0
   40.6510   32.8710   38.2420 C   0  0  0  0  0  0  0  0  0  0  0  0
   41.6180   33.7820   38.3500 N   0  0  0  0  0  0  0  0  0  0  0  0
   41.9640   34.2120   39.5940 C   0  0  0  0  0  0  0  0  0  0  0  0
   42.7210   34.9400   39.8430 H   0  0  0  0  0  0  0  0  0  0  0  0
   41.3080   33.6920   40.6460 N   0  0  0  0  0  0  0  0  0  0  0  0
   40.3330   32.7760   40.5510 C   0  0  0  0  0  0  0  0  0  0  0  0
   40.2970   32.4270   36.9370 N   0  0  0  0  0  0  0  0  0  0  0  0
   40.6480   31.4390   36.7620 H   0  0  0  0  0  0  0  0  0  0  0  0
   39.8430   32.5860   36.0120 H   0  0  0  0  0  0  0  0  0  0  0  0
  1  6  2  0  0  0  0
  1  2  1  0  0  0  0
  2  3  2  0  0  0  0
  3  4  1  0  0  0  0
  3  8  1  0  0  0  0
  5 10  1  0  0  0  0
  5  4  2  0  0  0  0
  6  5  1  0  0  0  0
  7  2  1  0  0  0  0
  9 17  1  0  0  0  0
 10  9  2  0  0  0  0
 10 11  1  0  0  0  0
 11 12  2  0  0  0  0
 12 16  1  0  0  0  0
 12 13  1  0  0  0  0
 13 20  1  0  0  0  0
 13 14  1  0  0  0  0
 14 21  1  0  0  0  0
 15 22  1  0  0  0  0
 15 14  2  0  0  0  0
 16 15  1  0  0  0  0
 17 23  1  0  0  0  0
 17 16  2  0  0  0  0
 18  9  1  0  0  0  0
 19 11  1  0  0  0  0
 24  1  1  0  0  0  0
 25 24  2  0  0  0  0
 27 26  1  0  0  0  0
 28 27  1  0  0  0  0
 28 24  1  0  0  0  0
 29 28  2  0  0  0  0
 30 29  1  0  0  0  0
 30 36  1  0  0  0  0
 31 32  1  0  0  0  0
 31 30  2  0  0  0  0
 32 33  2  0  0  0  0
 33 34  1  0  0  0  0
 33 35  1  0  0  0  0
 36 35  2  0  0  0  0
 36 27  1  0  0  0  0
 37 31  1  0  0  0  0
 38 37  1  0  0  0  0
 39 37  1  0  0  0  0
M  END
>  <minimizedAffinity>
-7.00844669

$$$$

 OpenBabel03252504013D

 39 43  0  0  0  0  0  0  0  0999 V2000
   38.4290   32.5350   39.3410 C   0  0  0  0  0  0  0  0  0  0  0  0
   37.7110   33.5920   39.9140 C   0  0  0  0  0  0  0  0  0  0  0  0
   38.4210   34.7300   40.2900 C   0  0  0  0  0  0  0  0  0  0  0  0
   39.7570   34.7490   40.0810 N   0  0  0  0  0  0  0  0  0  0  0  0
   40.4140   33.7120   39.5260 C   0  0  0  0  0  0  0  0  0  0  0  0
   39.7590   32.5990   39.1520 N   0  0  0  0  0  0  0  0  0  0  0  0
   36.6360   33.5490   40.0710 H   0  0  0  0  0  0  0  0  0  0  0  0
   37.8810   35.5610   40.7360 H   0  0  0  0  0  0  0  0  0  0  0  0
   42.6800   33.9280   40.4250 C   0  0  0  0  0  0  0  0  0  0  0  0
   41.8680   33.7540   39.3070 C   0  0  0  0  0  0  0  0  0  0  0  0
   42.4400   33.6280   38.0640 C   0  0  0  0  0  0  0  0  0  0  0  0
   43.8130   33.6770   37.9360 C   0  0  0  0  0  0  0  0  0  0  0  0
   44.6430   33.5890   36.8960 N   0  0  0  0  0  0  0  0  0  0  0  0
   45.9200   33.6950   37.2730 C   0  0  0  0  0  0  0  0  0  0  0  0
   45.9480   33.8620   38.6290 C   0  0  0  0  0  0  0  0  0  0  0  0
   44.6290   33.8510   39.0440 C   0  0  0  0  0  0  0  0  0  0  0  0
   44.0520   33.9770   40.3010 C   0  0  0  0  0  0  0  0  0  0  0  0
   42.2470   34.0300   41.4190 H   0  0  0  0  0  0  0  0  0  0  0  0
   41.8030   33.4930   37.1980 H   0  0  0  0  0  0  0  0  0  0  0  0
   44.3150   33.4540   35.9140 H   0  0  0  0  0  0  0  0  0  0  0  0
   46.7820   33.6540   36.6020 H   0  0  0  0  0  0  0  0  0  0  0  0
   46.7970   33.9790   39.2560 H   0  0  0  0  0  0  0  0  0  0  0  0
   44.6490   34.1140   41.1890 H   0  0  0  0  0  0  0  0  0  0  0  0
   37.6350   31.3880   38.9760 C   0  0  0  0  0  0  0  0  0  0  0  0
   36.9610   31.2840   37.8960 O   0  0  0  0  0  0  0  0  0  0  0  0
   37.7790   28.5540   38.5210 H   0  0  0  0  0  0  0  0  0  0  0  0
   37.6520   28.9380   39.4650 N   0  0  0  0  0  0  0  0  0  0  0  0
   37.5620   30.2210   39.8790 C   0  0  0  0  0  0  0  0  0  0  0  0
   37.3980   30.2310   41.2150 N   0  0  0  0  0  0  0  0  0  0  0  0
   37.3810   28.9770   41.6790 C   0  0  0  0  0  0  0  0  0  0  0  0
   37.2550   28.3140   42.8830 C   0  0  0  0  0  0  0  0  0  0  0  0
   37.2770   26.9900   43.0360 N   0  0  0  0  0  0  0  0  0  0  0  0
   37.4360   26.2140   41.9300 C   0  0  0  0  0  0  0  0  0  0  0  0
   37.4750   25.1360   41.8910 H   0  0  0  0  0  0  0  0  0  0  0  0
   37.5620   26.8300   40.7410 N   0  0  0  0  0  0  0  0  0  0  0  0
   37.5400   28.1600   40.5740 C   0  0  0  0  0  0  0  0  0  0  0  0
   37.0880   29.1160   44.0460 N   0  0  0  0  0  0  0  0  0  0  0  0
   37.9970   29.6000   44.3100 H   0  0  0  0  0  0  0  0  0  0  0  0
   36.4950   29.4940   44.8170 H   0  0  0  0  0  0  0  0  0  0  0  0
  1  2  1  0  0  0  0
  2  7  1  0  0  0  0
  2  3  2  0  0  0  0
  3  8  1  0  0  0  0
  4  3  1  0  0  0  0
  5  4  2  0  0  0  0
  6  1  2  0  0  0  0
  6  5  1  0  0  0  0
  9 18  1  0  0  0  0
 10  5  1  0  0  0  0
 10  9  2  0  0  0  0
 11 10  1  0  0  0  0
 12 11  2  0  0  0  0
 12 16  1  0  0  0  0
 13 14  1  0  0  0  0
 13 12  1  0  0  0  0
 14 15  2  0  0  0  0
 15 16  1  0  0  0  0
 15 22  1  0  0  0  0
 16 17  2  0  0  0  0
 17  9  1  0  0  0  0
 17 23  1  0  0  0  0
 19 11  1  0  0  0  0
 20 13  1  0  0  0  0
 21 14  1  0  0  0  0
 24  1  1  0  0  0  0
 24 28  1  0  0  0  0
 25 24  2  0  0  0  0
 26 27  1  0  0  0  0
 27 28  1  0  0  0  0
 27 36  1  0  0  0  0
 28 29  2  0  0  0  0
 29 30  1  0  0  0  0
 30 31  1  0  0  0  0
 31 32  2  0  0  0  0
 31 37  1  0  0  0  0
 33 32  1  0  0  0  0
 34 33  1  0  0  0  0
 35 33  2  0  0  0  0
 36 35  1  0  0  0  0
 36 30  2  0  0  0  0
 37 38  1  0  0  0  0
 37 39  1  0  0  0  0
M  END
>  <minimizedAffinity>
-6.9189024

$$$$

 OpenBabel03252504013D

 39 43  0  0  0  0  0  0  0  0999 V2000
   38.2220   26.8970   43.0280 C   0  0  0  0  0  0  0  0  0  0  0  0
   39.4680   26.6740   43.6270 C   0  0  0  0  0  0  0  0  0  0  0  0
   40.1280   25.4850   43.3270 C   0  0  0  0  0  0  0  0  0  0  0  0
   39.5320   24.6180   42.4770 N   0  0  0  0  0  0  0  0  0  0  0  0
   38.3320   24.8680   41.9190 C   0  0  0  0  0  0  0  0  0  0  0  0
   37.6680   26.0050   42.1880 N   0  0  0  0  0  0  0  0  0  0  0  0
   39.9230   27.3900   44.3080 H   0  0  0  0  0  0  0  0  0  0  0  0
   41.0970   25.2940   43.7820 H   0  0  0  0  0  0  0  0  0  0  0  0
   38.4780   22.8480   40.5440 C   0  0  0  0  0  0  0  0  0  0  0  0
   37.7010   23.9110   40.9970 C   0  0  0  0  0  0  0  0  0  0  0  0
   36.3970   24.0270   40.5760 C   0  0  0  0  0  0  0  0  0  0  0  0
   35.8730   23.0910   39.7100 C   0  0  0  0  0  0  0  0  0  0  0  0
   34.6790   22.9350   39.1370 N   0  0  0  0  0  0  0  0  0  0  0  0
   34.6430   21.8520   38.3560 C   0  0  0  0  0  0  0  0  0  0  0  0
   35.8710   21.2540   38.4070 C   0  0  0  0  0  0  0  0  0  0  0  0
   36.6400   22.0290   39.2550 C   0  0  0  0  0  0  0  0  0  0  0  0
   37.9570   21.9100   39.6790 C   0  0  0  0  0  0  0  0  0  0  0  0
   39.5130   22.7370   40.8660 H   0  0  0  0  0  0  0  0  0  0  0  0
   35.7980   24.8570   40.9320 H   0  0  0  0  0  0  0  0  0  0  0  0
   33.8810   23.5900   39.2930 H   0  0  0  0  0  0  0  0  0  0  0  0
   33.7760   21.5150   37.7830 H   0  0  0  0  0  0  0  0  0  0  0  0
   36.1900   20.3730   37.9070 H   0  0  0  0  0  0  0  0  0  0  0  0
   38.5900   21.1010   39.3490 H   0  0  0  0  0  0  0  0  0  0  0  0
   37.5910   28.1450   43.3800 C   0  0  0  0  0  0  0  0  0  0  0  0
   36.8870   28.3330   44.4300 O   0  0  0  0  0  0  0  0  0  0  0  0
   35.8240   29.4100   41.5010 H   0  0  0  0  0  0  0  0  0  0  0  0
   36.7700   29.7700   41.6690 N   0  0  0  0  0  0  0  0  0  0  0  0
   37.7380   29.3230   42.5000 C   0  0  0  0  0  0  0  0  0  0  0  0
   38.8140   30.1220   42.3770 N   0  0  0  0  0  0  0  0  0  0  0  0
   38.5640   31.0820   41.4810 C   0  0  0  0  0  0  0  0  0  0  0  0
   39.2020   32.1680   40.9140 C   0  0  0  0  0  0  0  0  0  0  0  0
   38.6690   32.9790   40.0000 N   0  0  0  0  0  0  0  0  0  0  0  0
   37.3980   32.7340   39.5810 C   0  0  0  0  0  0  0  0  0  0  0  0
   36.8330   33.2960   38.8530 H   0  0  0  0  0  0  0  0  0  0  0  0
   36.7490   31.6830   40.1150 N   0  0  0  0  0  0  0  0  0  0  0  0
   37.2740   30.8600   41.0330 C   0  0  0  0  0  0  0  0  0  0  0  0
   40.5310   32.4330   41.3450 N   0  0  0  0  0  0  0  0  0  0  0  0
   40.5400   32.8330   42.3290 H   0  0  0  0  0  0  0  0  0  0  0  0
   41.5610   32.4350   41.1790 H   0  0  0  0  0  0  0  0  0  0  0  0
  1 24  1  0  0  0  0
  1  2  1  0  0  0  0
  2  7  1  0  0  0  0
  3  2  2  0  0  0  0
  3  8  1  0  0  0  0
  4  3  1  0  0  0  0
  5  6  1  0  0  0  0
  5  4  2  0  0  0  0
  6  1  2  0  0  0  0
  9 18  1  0  0  0  0
  9 10  1  0  0  0  0
 10  5  1  0  0  0  0
 11 19  1  0  0  0  0
 11 10  2  0  0  0  0
 12 11  1  0  0  0  0
 13 20  1  0  0  0  0
 13 12  1  0  0  0  0
 14 15  2  0  0  0  0
 14 13  1  0  0  0  0
 15 16  1  0  0  0  0
 16 17  1  0  0  0  0
 16 12  2  0  0  0  0
 17  9  2  0  0  0  0
 21 14  1  0  0  0  0
 22 15  1  0  0  0  0
 23 17  1  0  0  0  0
 24 25  2  0  0  0  0
 26 27  1  0  0  0  0
 27 28  1  0  0  0  0
 28 24  1  0  0  0  0
 29 28  2  0  0  0  0
 30 29  1  0  0  0  0
 31 37  1  0  0  0  0
 31 30  2  0  0  0  0
 32 31  1  0  0  0  0
 33 32  2  0  0  0  0
 33 35  1  0  0  0  0
 34 33  1  0  0  0  0
 35 36  2  0  0  0  0
 36 30  1  0  0  0  0
 36 27  1  0  0  0  0
 37 38  1  0  0  0  0
 39 37  1  0  0  0  0
M  END
>  <minimizedAffinity>
-6.9118247

$$$$

 OpenBabel03252504013D

 39 43  0  0  0  0  0  0  0  0999 V2000
   37.4410   30.6260   39.0230 C   0  0  0  0  0  0  0  0  0  0  0  0
   36.7300   31.4400   39.9140 C   0  0  0  0  0  0  0  0  0  0  0  0
   36.1110   30.8270   41.0010 C   0  0  0  0  0  0  0  0  0  0  0  0
   36.2330   29.4860   41.1340 N   0  0  0  0  0  0  0  0  0  0  0  0
   36.9250   28.7350   40.2560 C   0  0  0  0  0  0  0  0  0  0  0  0
   37.5340   29.2960   39.1960 N   0  0  0  0  0  0  0  0  0  0  0  0
   36.6490   32.5160   39.7810 H   0  0  0  0  0  0  0  0  0  0  0  0
   35.5560   31.4420   41.7030 H   0  0  0  0  0  0  0  0  0  0  0  0
   37.1040   26.7810   41.7190 C   0  0  0  0  0  0  0  0  0  0  0  0
   37.0440   27.2790   40.4200 C   0  0  0  0  0  0  0  0  0  0  0  0
   37.0980   26.4090   39.3560 C   0  0  0  0  0  0  0  0  0  0  0  0
   37.2100   25.0540   39.5870 C   0  0  0  0  0  0  0  0  0  0  0  0
   37.2840   23.9890   38.7880 N   0  0  0  0  0  0  0  0  0  0  0  0
   37.3850   22.8540   39.4860 C   0  0  0  0  0  0  0  0  0  0  0  0
   37.3790   23.1730   40.8150 C   0  0  0  0  0  0  0  0  0  0  0  0
   37.2690   24.5510   40.8770 C   0  0  0  0  0  0  0  0  0  0  0  0
   37.2150   25.4270   41.9530 C   0  0  0  0  0  0  0  0  0  0  0  0
   37.0630   27.4530   42.5760 H   0  0  0  0  0  0  0  0  0  0  0  0
   37.0520   26.8020   38.3470 H   0  0  0  0  0  0  0  0  0  0  0  0
   37.2630   24.0540   37.7460 H   0  0  0  0  0  0  0  0  0  0  0  0
   37.4590   21.8530   39.0560 H   0  0  0  0  0  0  0  0  0  0  0  0
   37.4440   22.5150   41.6450 H   0  0  0  0  0  0  0  0  0  0  0  0
   37.2590   25.0790   42.9730 H   0  0  0  0  0  0  0  0  0  0  0  0
   38.0560   31.3220   37.9200 C   0  0  0  0  0  0  0  0  0  0  0  0
   37.5700   31.3890   36.7410 O   0  0  0  0  0  0  0  0  0  0  0  0
   40.0850   32.2180   36.0940 H   0  0  0  0  0  0  0  0  0  0  0  0
   40.1740   32.3670   37.1060 N   0  0  0  0  0  0  0  0  0  0  0  0
   39.3410   32.0260   38.1140 C   0  0  0  0  0  0  0  0  0  0  0  0
   39.8830   32.4320   39.2770 N   0  0  0  0  0  0  0  0  0  0  0  0
   41.0550   33.0330   39.0450 C   0  0  0  0  0  0  0  0  0  0  0  0
   42.0690   33.6440   39.7530 C   0  0  0  0  0  0  0  0  0  0  0  0
   43.1680   34.1750   39.2170 N   0  0  0  0  0  0  0  0  0  0  0  0
   43.3200   34.1190   37.8660 C   0  0  0  0  0  0  0  0  0  0  0  0
   44.1470   34.5010   37.2870 H   0  0  0  0  0  0  0  0  0  0  0  0
   42.3480   33.5290   37.1470 N   0  0  0  0  0  0  0  0  0  0  0  0
   41.2390   32.9910   37.6740 C   0  0  0  0  0  0  0  0  0  0  0  0
   41.9210   33.7080   41.1670 N   0  0  0  0  0  0  0  0  0  0  0  0
   41.1830   34.4220   41.4410 H   0  0  0  0  0  0  0  0  0  0  0  0
   42.1810   33.3940   42.1270 H   0  0  0  0  0  0  0  0  0  0  0  0
  1  6  2  0  0  0  0
  1  2  1  0  0  0  0
  2  3  2  0  0  0  0
  3  4  1  0  0  0  0
  3  8  1  0  0  0  0
  5 10  1  0  0  0  0
  5  4  2  0  0  0  0
  6  5  1  0  0  0  0
  7  2  1  0  0  0  0
  9 17  1  0  0  0  0
  9 18  1  0  0  0  0
 10  9  2  0  0  0  0
 11 12  2  0  0  0  0
 11 10  1  0  0  0  0
 12 16  1  0  0  0  0
 13 14  1  0  0  0  0
 13 12  1  0  0  0  0
 14 15  2  0  0  0  0
 15 16  1  0  0  0  0
 15 22  1  0  0  0  0
 16 17  2  0  0  0  0
 17 23  1  0  0  0  0
 19 11  1  0  0  0  0
 20 13  1  0  0  0  0
 21 14  1  0  0  0  0
 24 28  1  0  0  0  0
 24  1  1  0  0  0  0
 25 24  2  0  0  0  0
 26 27  1  0  0  0  0
 27 36  1  0  0  0  0
 27 28  1  0  0  0  0
 28 29  2  0  0  0  0
 30 29  1  0  0  0  0
 30 31  1  0  0  0  0
 31 37  1  0  0  0  0
 32 31  2  0  0  0  0
 33 32  1  0  0  0  0
 34 33  1  0  0  0  0
 35 36  1  0  0  0  0
 35 33  2  0  0  0  0
 36 30  2  0  0  0  0
 37 38  1  0  0  0  0
 37 39  1  0  0  0  0
M  END
>  <minimizedAffinity>
-6.88616514

$$$$

 OpenBabel03252504013D

 39 43  0  0  0  0  0  0  0  0999 V2000
   38.0510   31.6810   39.1500 C   0  0  0  0  0  0  0  0  0  0  0  0
   37.6990   31.7600   37.7970 C   0  0  0  0  0  0  0  0  0  0  0  0
   37.2130   30.6080   37.1840 C   0  0  0  0  0  0  0  0  0  0  0  0
   37.1100   29.4820   37.9280 N   0  0  0  0  0  0  0  0  0  0  0  0
   37.4580   29.4440   39.2280 C   0  0  0  0  0  0  0  0  0  0  0  0
   37.9310   30.5390   39.8500 N   0  0  0  0  0  0  0  0  0  0  0  0
   37.7930   32.6790   37.2240 H   0  0  0  0  0  0  0  0  0  0  0  0
   36.9340   30.6500   36.1350 H   0  0  0  0  0  0  0  0  0  0  0  0
   37.1220   28.3420   41.3880 C   0  0  0  0  0  0  0  0  0  0  0  0
   37.3380   28.2090   40.0190 C   0  0  0  0  0  0  0  0  0  0  0  0
   37.4300   26.9550   39.4640 C   0  0  0  0  0  0  0  0  0  0  0  0
   37.3060   25.8420   40.2680 C   0  0  0  0  0  0  0  0  0  0  0  0
   37.3490   24.5290   40.0340 N   0  0  0  0  0  0  0  0  0  0  0  0
   37.1750   23.8220   41.1540 C   0  0  0  0  0  0  0  0  0  0  0  0
   37.0080   24.7010   42.1880 C   0  0  0  0  0  0  0  0  0  0  0  0
   37.0910   25.9650   41.6320 C   0  0  0  0  0  0  0  0  0  0  0  0
   36.9980   27.2310   42.1950 C   0  0  0  0  0  0  0  0  0  0  0  0
   37.0460   29.3270   41.8470 H   0  0  0  0  0  0  0  0  0  0  0  0
   37.5980   26.8580   38.3970 H   0  0  0  0  0  0  0  0  0  0  0  0
   37.4990   24.1230   39.0850 H   0  0  0  0  0  0  0  0  0  0  0  0
   37.1680   22.7320   41.2180 H   0  0  0  0  0  0  0  0  0  0  0  0
   36.8470   24.4810   43.2140 H   0  0  0  0  0  0  0  0  0  0  0  0
   36.8310   27.3740   43.2510 H   0  0  0  0  0  0  0  0  0  0  0  0
   38.5470   32.9070   39.7240 C   0  0  0  0  0  0  0  0  0  0  0  0
   37.8200   33.7900   40.2930 O   0  0  0  0  0  0  0  0  0  0  0  0
   40.5880   33.0160   41.7430 H   0  0  0  0  0  0  0  0  0  0  0  0
   40.8000   33.2150   40.7590 N   0  0  0  0  0  0  0  0  0  0  0  0
   39.9910   33.2160   39.6760 C   0  0  0  0  0  0  0  0  0  0  0  0
   40.7220   33.5390   38.5930 N   0  0  0  0  0  0  0  0  0  0  0  0
   41.9940   33.7470   38.9510 C   0  0  0  0  0  0  0  0  0  0  0  0
   43.1960   34.0900   38.3670 C   0  0  0  0  0  0  0  0  0  0  0  0
   44.3530   34.2290   39.0160 N   0  0  0  0  0  0  0  0  0  0  0  0
   44.3680   34.0210   40.3600 C   0  0  0  0  0  0  0  0  0  0  0  0
   45.2190   34.0940   41.0200 H   0  0  0  0  0  0  0  0  0  0  0  0
   43.2110   33.6850   40.9590 N   0  0  0  0  0  0  0  0  0  0  0  0
   42.0430   33.5430   40.3190 C   0  0  0  0  0  0  0  0  0  0  0  0
   43.1920   34.3090   36.9610 N   0  0  0  0  0  0  0  0  0  0  0  0
   43.0970   33.3920   36.4320 H   0  0  0  0  0  0  0  0  0  0  0  0
   43.2350   34.9480   36.1370 H   0  0  0  0  0  0  0  0  0  0  0  0
  1 24  1  0  0  0  0
  1  6  1  0  0  0  0
  2  1  2  0  0  0  0
  3  2  1  0  0  0  0
  3  4  2  0  0  0  0
  4  5  1  0  0  0  0
  5  6  2  0  0  0  0
  5 10  1  0  0  0  0
  7  2  1  0  0  0  0
  8  3  1  0  0  0  0
  9 18  1  0  0  0  0
  9 17  1  0  0  0  0
 10  9  2  0  0  0  0
 11 10  1  0  0  0  0
 11 12  2  0  0  0  0
 12 16  1  0  0  0  0
 13 12  1  0  0  0  0
 13 14  1  0  0  0  0
 14 21  1  0  0  0  0
 14 15  2  0  0  0  0
 15 22  1  0  0  0  0
 16 15  1  0  0  0  0
 16 17  2  0  0  0  0
 17 23  1  0  0  0  0
 19 11  1  0  0  0  0
 20 13  1  0  0  0  0
 24 25  2  0  0  0  0
 27 26  1  0  0  0  0
 28 24  1  0  0  0  0
 28 27  1  0  0  0  0
 29 30  1  0  0  0  0
 29 28  2  0  0  0  0
 30 36  1  0  0  0  0
 31 30  2  0  0  0  0
 31 32  1  0  0  0  0
 32 33  2  0  0  0  0
 33 35  1  0  0  0  0
 33 34  1  0  0  0  0
 36 27  1  0  0  0  0
 36 35  2  0  0  0  0
 37 31  1  0  0  0  0
 38 37  1  0  0  0  0
 39 37  1  0  0  0  0
M  END
>  <minimizedAffinity>
-6.81823444

$$$$

 OpenBabel03252504013D

 39 43  0  0  0  0  0  0  0  0999 V2000
   38.1750   31.6190   40.6880 C   0  0  0  0  0  0  0  0  0  0  0  0
   36.8000   31.7890   40.4810 C   0  0  0  0  0  0  0  0  0  0  0  0
   35.9690   30.6960   40.7130 C   0  0  0  0  0  0  0  0  0  0  0  0
   36.5340   29.5370   41.1240 N   0  0  0  0  0  0  0  0  0  0  0  0
   37.8610   29.4120   41.3120 C   0  0  0  0  0  0  0  0  0  0  0  0
   38.6920   30.4470   41.0970 N   0  0  0  0  0  0  0  0  0  0  0  0
   36.3730   32.7330   40.1500 H   0  0  0  0  0  0  0  0  0  0  0  0
   34.8990   30.8090   40.5590 H   0  0  0  0  0  0  0  0  0  0  0  0
   37.5870   27.0910   42.0410 C   0  0  0  0  0  0  0  0  0  0  0  0
   38.4560   28.1420   41.7590 C   0  0  0  0  0  0  0  0  0  0  0  0
   39.8110   27.9610   41.9030 C   0  0  0  0  0  0  0  0  0  0  0  0
   40.2950   26.7420   42.3270 C   0  0  0  0  0  0  0  0  0  0  0  0
   41.5210   26.2700   42.5580 N   0  0  0  0  0  0  0  0  0  0  0  0
   41.4920   24.9980   42.9650 C   0  0  0  0  0  0  0  0  0  0  0  0
   40.1860   24.5980   43.0100 C   0  0  0  0  0  0  0  0  0  0  0  0
   39.4370   25.6900   42.6100 C   0  0  0  0  0  0  0  0  0  0  0  0
   38.0680   25.8710   42.4650 C   0  0  0  0  0  0  0  0  0  0  0  0
   36.5100   27.2140   41.9330 H   0  0  0  0  0  0  0  0  0  0  0  0
   40.4820   28.7830   41.6820 H   0  0  0  0  0  0  0  0  0  0  0  0
   42.3860   26.8400   42.4290 H   0  0  0  0  0  0  0  0  0  0  0  0
   42.3680   24.3950   43.2150 H   0  0  0  0  0  0  0  0  0  0  0  0
   39.8020   23.6490   43.2910 H   0  0  0  0  0  0  0  0  0  0  0  0
   37.3650   25.0810   42.6750 H   0  0  0  0  0  0  0  0  0  0  0  0
   38.9780   32.7880   40.4290 C   0  0  0  0  0  0  0  0  0  0  0  0
   38.6490   33.9810   40.7440 O   0  0  0  0  0  0  0  0  0  0  0  0
   41.1460   30.9240   40.7270 H   0  0  0  0  0  0  0  0  0  0  0  0
   41.1880   31.6880   40.0420 N   0  0  0  0  0  0  0  0  0  0  0  0
   40.2860   32.6520   39.7540 C   0  0  0  0  0  0  0  0  0  0  0  0
   40.7860   33.4320   38.7780 N   0  0  0  0  0  0  0  0  0  0  0  0
   41.9980   32.9920   38.4240 C   0  0  0  0  0  0  0  0  0  0  0  0
   43.0040   33.3160   37.5350 C   0  0  0  0  0  0  0  0  0  0  0  0
   44.1560   32.6570   37.4070 N   0  0  0  0  0  0  0  0  0  0  0  0
   44.3750   31.5780   38.2060 C   0  0  0  0  0  0  0  0  0  0  0  0
   45.2510   30.9460   38.2210 H   0  0  0  0  0  0  0  0  0  0  0  0
   43.4140   31.2360   39.0830 N   0  0  0  0  0  0  0  0  0  0  0  0
   42.2530   31.8910   39.2220 C   0  0  0  0  0  0  0  0  0  0  0  0
   42.7840   34.4420   36.6940 N   0  0  0  0  0  0  0  0  0  0  0  0
   42.0700   34.2210   35.9390 H   0  0  0  0  0  0  0  0  0  0  0  0
   42.9770   35.4310   36.4250 H   0  0  0  0  0  0  0  0  0  0  0  0
  1  6  1  0  0  0  0
  2  1  2  0  0  0  0
  2  3  1  0  0  0  0
  3  4  2  0  0  0  0
  4  5  1  0  0  0  0
  5 10  1  0  0  0  0
  6  5  2  0  0  0  0
  7  2  1  0  0  0  0
  8  3  1  0  0  0  0
  9 17  1  0  0  0  0
 10 11  1  0  0  0  0
 10  9  2  0  0  0  0
 11 12  2  0  0  0  0
 12 13  1  0  0  0  0
 12 16  1  0  0  0  0
 13 14  1  0  0  0  0
 14 15  2  0  0  0  0
 14 21  1  0  0  0  0
 15 22  1  0  0  0  0
 16 15  1  0  0  0  0
 17 16  2  0  0  0  0
 17 23  1  0  0  0  0
 18  9  1  0  0  0  0
 19 11  1  0  0  0  0
 20 13  1  0  0  0  0
 24  1  1  0  0  0  0
 24 25  2  0  0  0  0
 27 26  1  0  0  0  0
 28 27  1  0  0  0  0
 28 24  1  0  0  0  0
 29 28  2  0  0  0  0
 30 29  1  0  0  0  0
 30 36  1  0  0  0  0
 31 30  2  0  0  0  0
 32 31  1  0  0  0  0
 32 33  2  0  0  0  0
 33 34  1  0  0  0  0
 33 35  1  0  0  0  0
 35 36  2  0  0  0  0
 36 27  1  0  0  0  0
 37 31  1  0  0  0  0
 38 37  1  0  0  0  0
 39 37  1  0  0  0  0
M  END
>  <minimizedAffinity>
-6.66941786

$$$$
