
     RDKit          3D

 50 55  0  0  0  0  0  0  0  0999 V2000
   47.3296   30.2174   47.6540 C   0  0  0  0  0  0  0  0  0  0  0  0
   46.5533   32.6639   45.1647 C   0  0  0  0  0  0  0  0  0  0  0  0
   47.2753   31.7027   44.4121 C   0  0  0  0  0  0  0  0  0  0  0  0
   47.6458   30.6912   45.2355 C   0  0  0  0  0  0  0  0  0  0  0  0
   47.1715   31.0157   46.4464 N   0  0  0  0  0  0  0  0  0  0  0  0
   46.5237   32.1858   46.4033 N   0  0  0  0  0  0  0  0  0  0  0  0
   44.5709   35.7048   44.8285 C   0  0  0  0  0  0  0  0  0  0  0  0
   44.9436   36.1943   43.5875 C   0  0  0  0  0  0  0  0  0  0  0  0
   45.8953   35.4644   42.8519 C   0  0  0  0  0  0  0  0  0  0  0  0
   46.3799   34.3336   43.4102 N   0  0  0  0  0  0  0  0  0  0  0  0
   46.0013   33.8795   44.6178 C   0  0  0  0  0  0  0  0  0  0  0  0
   45.0911   34.5724   45.3278 N   0  0  0  0  0  0  0  0  0  0  0  0
   46.0088   29.9416   48.2609 C   0  0  0  0  0  0  0  0  0  0  0  0
   45.1188   27.5511   47.9047 C   0  0  0  0  0  0  0  0  0  0  0  0
   45.1938   28.9048   47.6457 C   0  0  0  0  0  0  0  0  0  0  0  0
   44.3609   29.3848   46.6312 C   0  0  0  0  0  0  0  0  0  0  0  0
   43.5153   28.5550   45.9313 C   0  0  0  0  0  0  0  0  0  0  0  0
   42.6227   28.7265   44.9301 N   0  0  0  0  0  0  0  0  0  0  0  0
   42.0448   27.5656   44.6006 C   0  0  0  0  0  0  0  0  0  0  0  0
   42.5556   26.5661   45.3997 C   0  0  0  0  0  0  0  0  0  0  0  0
   43.4553   27.2146   46.2030 C   0  0  0  0  0  0  0  0  0  0  0  0
   44.2768   26.7353   47.2052 C   0  0  0  0  0  0  0  0  0  0  0  0
   47.9195   29.3291   47.4500 H   0  0  0  0  0  0  0  0  0  0  0  0
   47.9040   30.8487   48.3711 H   0  0  0  0  0  0  0  0  0  0  0  0
   47.4867   31.7825   43.3486 H   0  0  0  0  0  0  0  0  0  0  0  0
   48.2035   29.7857   45.0351 H   0  0  0  0  0  0  0  0  0  0  0  0
   43.8435   36.3068   45.3365 H   0  0  0  0  0  0  0  0  0  0  0  0
   44.5992   37.0727   43.0989 H   0  0  0  0  0  0  0  0  0  0  0  0
   46.2561   35.7504   41.8813 H   0  0  0  0  0  0  0  0  0  0  0  0
   45.4455   30.8866   48.3845 H   0  0  0  0  0  0  0  0  0  0  0  0
   46.2094   29.6038   49.3181 H   0  0  0  0  0  0  0  0  0  0  0  0
   45.7922   27.2405   48.7056 H   0  0  0  0  0  0  0  0  0  0  0  0
   44.3078   30.4188   46.3149 H   0  0  0  0  0  0  0  0  0  0  0  0
   42.3998   29.6338   44.4632 H   0  0  0  0  0  0  0  0  0  0  0  0
   41.2864   27.4136   43.8245 H   0  0  0  0  0  0  0  0  0  0  0  0
   42.2585   25.5289   45.3408 H   0  0  0  0  0  0  0  0  0  0  0  0
   44.2611   25.3516   47.5353 N   0  0  0  0  0  0  0  0  0  0  0  0
   44.7668   24.8969   48.6868 C   0  0  0  0  0  0  0  0  0  0  0  0
   45.2478   25.3567   49.5485 H   0  0  0  0  0  0  0  0  0  0  0  0
   44.6264   23.5588   48.7504 N   0  0  0  0  0  0  0  0  0  0  0  0
   44.0205   23.1521   47.6199 C   0  0  0  0  0  0  0  0  0  0  0  0
   43.6030   21.9297   47.0874 C   0  0  0  0  0  0  0  0  0  0  0  0
   43.8731   20.8312   47.9267 N   0  0  0  0  0  0  0  0  0  0  0  0
   44.8798   20.5839   47.6943 H   0  0  0  0  0  0  0  0  0  0  0  0
   43.0047   21.8842   45.8778 N   0  0  0  0  0  0  0  0  0  0  0  0
   42.7962   23.0185   45.1552 C   0  0  0  0  0  0  0  0  0  0  0  0
   42.3118   22.8677   44.2056 H   0  0  0  0  0  0  0  0  0  0  0  0
   43.1924   24.2286   45.6475 N   0  0  0  0  0  0  0  0  0  0  0  0
   43.7890   24.2960   46.8478 C   0  0  0  0  0  0  0  0  0  0  0  0
   42.9480   20.7400   48.4184 H   0  0  0  0  0  0  0  0  0  0  0  0
  1 13  1  0
  2  6  2  0
  3  2  1  0
  3  4  2  0
  4  5  1  0
  5  1  1  0
  6  5  1  0
  7 12  2  0
  8  7  1  0
  9 10  1  0
  9  8  2  0
 10 11  2  0
 11  2  1  0
 11 12  1  0
 15 14  2  0
 15 13  1  0
 16 15  1  0
 17 21  1  0
 17 16  2  0
 18 17  1  0
 19 18  1  0
 19 20  2  0
 20 21  1  0
 21 22  2  0
 22 14  1  0
  1 23  1  0
  1 24  1  0
  3 25  1  0
  4 26  1  0
  7 27  1  0
  8 28  1  0
  9 29  1  0
 13 30  1  0
 13 31  1  0
 14 32  1  0
 16 33  1  0
 18 34  1  0
 19 35  1  0
 20 36  1  0
 37 38  1  0
 38 39  1  0
 38 40  2  0
 40 41  1  0
 41 42  2  0
 42 43  1  0
 43 44  1  0
 42 45  1  0
 45 46  2  0
 46 47  1  0
 46 48  1  0
 48 49  2  0
 49 37  1  0
 49 41  1  0
 43 50  1  0
 22 37  1  0
M  ISO  8  23   8  24   8  25  14  26  14  27  14  28  14  29  14  30   8
M  ISO  8  31   8  32  14  33  14  34   9  35  14  36  14  39  15  44   5
M  ISO  1  47  16
M  END
>  <DihAtoms>  (1) 
20,21,36,37

>  <DihDeg>  (1) 
46.98834074330756

$$$$
