
 OpenBabel03252500253D

 42 45  0  0  1  0  0  0  0  0999 V2000
   47.6020   29.9470   47.8910 C   0  0  2  0  0  0  0  0  0  0  0  0
   46.1370   29.8990   47.6880 C   0  0  2  0  0  0  0  0  0  0  0  0
   45.9900   29.1650   46.4070 C   0  0  0  0  0  0  0  0  0  0  0  0
   47.0640   28.2970   46.2960 O   0  0  0  0  0  0  0  0  0  0  0  0
   47.9620   28.5810   47.2730 C   0  0  0  0  0  0  0  0  0  0  0  0
   48.2750   30.5970   47.4210 H   0  0  0  0  0  0  0  0  0  0  0  0
   45.7270   29.3820   48.5960 H   0  0  0  0  0  0  0  0  0  0  0  0
   45.1170   28.4620   46.5840 H   0  0  0  0  0  0  0  0  0  0  0  0
   45.7020   29.7220   45.5380 H   0  0  0  0  0  0  0  0  0  0  0  0
   47.8150   27.8330   48.0980 H   0  0  0  0  0  0  0  0  0  0  0  0
   49.0010   28.5160   46.9560 H   0  0  0  0  0  0  0  0  0  0  0  0
   45.5260   31.1310   47.6590 O   0  0  0  0  0  0  0  0  0  0  0  0
   47.4610   32.8320   47.6350 O   0  0  0  0  0  0  0  0  0  0  0  0
   46.4260   32.1930   46.7480 P   0  0  1  0  0  0  0  0  0  0  0  0
   47.2180   31.3350   45.5210 O   0  0  0  0  0  0  0  0  0  0  0  0
   46.8000   31.4490   44.6490 H   0  0  0  0  0  0  0  0  0  0  0  0
   45.4680   33.4450   46.0800 O   0  0  0  0  0  0  0  0  0  0  0  0
   45.1770   35.6530   43.3000 C   0  0  0  0  0  0  0  0  0  0  0  0
   46.3190   35.3690   42.5020 C   0  0  0  0  0  0  0  0  0  0  0  0
   47.1850   34.3750   42.9860 C   0  0  0  0  0  0  0  0  0  0  0  0
   46.8860   33.7650   44.1510 N   0  0  0  0  0  0  0  0  0  0  0  0
   45.7840   34.0710   44.8750 C   0  0  0  0  0  0  0  0  0  0  0  0
   44.9470   35.0090   44.4410 N   0  0  0  0  0  0  0  0  0  0  0  0
   46.5500   35.8540   41.5830 H   0  0  0  0  0  0  0  0  0  0  0  0
   48.0720   34.0940   42.4500 H   0  0  0  0  0  0  0  0  0  0  0  0
   44.3210   36.6310   42.8320 O   0  0  0  0  0  0  0  0  0  0  0  0
   44.6760   37.5720   42.7100 H   0  0  0  0  0  0  0  0  0  0  0  0
   47.9530   30.0190   49.2310 O   0  0  0  0  0  0  0  0  0  0  0  0
   49.1720   32.3890   48.5670 H   0  0  0  0  0  0  0  0  0  0  0  0
   49.4980   31.7670   49.3420 N   0  0  0  0  0  0  0  0  0  0  0  0
   49.0410   30.5790   49.8190 C   0  0  0  0  0  0  0  0  0  0  0  0
   49.8430   30.2180   50.8410 N   0  0  0  0  0  0  0  0  0  0  0  0
   50.7960   31.1190   51.0440 C   0  0  0  0  0  0  0  0  0  0  0  0
   51.8290   31.1810   51.9580 C   0  0  0  0  0  0  0  0  0  0  0  0
   52.6560   32.2570   51.9120 N   0  0  0  0  0  0  0  0  0  0  0  0
   52.4500   33.2270   50.9830 C   0  0  0  0  0  0  0  0  0  0  0  0
   53.1300   34.0680   50.9800 H   0  0  0  0  0  0  0  0  0  0  0  0
   51.4360   33.1430   50.1030 N   0  0  0  0  0  0  0  0  0  0  0  0
   50.5760   32.0980   50.0950 C   0  0  0  0  0  0  0  0  0  0  0  0
   52.0000   30.1350   52.9120 N   0  0  0  0  0  0  0  0  0  0  0  0
   51.5480   29.8850   53.8400 H   0  0  0  0  0  0  0  0  0  0  0  0
   52.7500   29.4300   52.6530 H   0  0  0  0  0  0  0  0  0  0  0  0
  1  6  1  6  0  0  0
  1 28  1  0  0  0  0
  2  1  1  0  0  0  0
  2  7  1  1  0  0  0
  3  8  1  0  0  0  0
  3  2  1  0  0  0  0
  4  3  1  0  0  0  0
  4  5  1  0  0  0  0
  5  1  1  0  0  0  0
  5 10  1  0  0  0  0
  9  3  1  0  0  0  0
 11  5  1  0  0  0  0
 12  2  1  0  0  0  0
 14 13  2  1  0  0  0
 14 12  1  0  0  0  0
 15 14  1  0  0  0  0
 16 15  1  0  0  0  0
 17 14  1  0  0  0  0
 18 23  1  0  0  0  0
 19 20  1  0  0  0  0
 19 18  2  0  0  0  0
 20 21  2  0  0  0  0
 21 22  1  0  0  0  0
 22 17  1  0  0  0  0
 23 22  2  0  0  0  0
 24 19  1  0  0  0  0
 25 20  1  0  0  0  0
 26 18  1  0  0  0  0
 27 26  1  0  0  0  0
 28 31  1  0  0  0  0
 29 30  1  0  0  0  0
 30 31  1  0  0  0  0
 30 39  1  0  0  0  0
 31 32  2  0  0  0  0
 32 33  1  0  0  0  0
 33 34  1  0  0  0  0
 34 40  1  0  0  0  0
 35 34  2  0  0  0  0
 36 35  1  0  0  0  0
 37 36  1  0  0  0  0
 38 36  2  0  0  0  0
 39 38  1  0  0  0  0
 39 33  2  0  0  0  0
 40 41  1  0  0  0  0
 42 40  1  0  0  0  0
M  END
>  <minimizedAffinity>
-6.0316596

>  <minimizedRMSD>
0.892551303

$$$$
