
 OpenBabel03252506383D

 49 53  0  0  1  0  0  0  0  0999 V2000
   45.5600   30.5700   43.4660 O   0  0  0  0  0  0  0  0  0  0  0  0
   44.9640   30.0010   44.3950 C   0  0  0  0  0  0  0  0  0  0  0  0
   45.1080   29.7410   45.8500 C   0  0  1  0  0  0  0  0  0  0  0  0
   44.5830   28.3320   45.9660 C   0  0  0  0  0  0  0  0  0  0  0  0
   43.2510   28.5470   45.2480 C   0  0  0  0  0  0  0  0  0  0  0  0
   43.7150   29.3360   44.1150 N   0  0  0  0  0  0  0  0  0  0  0  0
   44.2290   30.3280   46.2340 H   0  0  0  0  0  0  0  0  0  0  0  0
   45.2580   27.6820   45.3840 H   0  0  0  0  0  0  0  0  0  0  0  0
   44.4520   27.9860   47.0030 H   0  0  0  0  0  0  0  0  0  0  0  0
   42.6240   29.1810   45.8760 H   0  0  0  0  0  0  0  0  0  0  0  0
   42.7950   27.5930   44.9400 H   0  0  0  0  0  0  0  0  0  0  0  0
   44.2550   28.0490   41.7440 H   0  0  0  0  0  0  0  0  0  0  0  0
   43.3960   28.6530   41.8400 N   0  0  0  0  0  0  0  0  0  0  0  0
   42.9340   29.3760   42.8990 C   0  0  0  0  0  0  0  0  0  0  0  0
   41.7930   29.9960   42.5630 N   0  0  0  0  0  0  0  0  0  0  0  0
   41.5280   29.6630   41.2670 C   0  0  0  0  0  0  0  0  0  0  0  0
   40.5400   29.9670   40.3770 C   0  0  0  0  0  0  0  0  0  0  0  0
   40.5640   29.4640   39.1400 N   0  0  0  0  0  0  0  0  0  0  0  0
   41.5450   28.6410   38.6960 C   0  0  0  0  0  0  0  0  0  0  0  0
   41.6030   28.2140   37.7040 H   0  0  0  0  0  0  0  0  0  0  0  0
   42.5390   28.3180   39.5440 N   0  0  0  0  0  0  0  0  0  0  0  0
   42.5340   28.8130   40.7960 C   0  0  0  0  0  0  0  0  0  0  0  0
   39.4950   30.8250   40.8080 N   0  0  0  0  0  0  0  0  0  0  0  0
   39.1030   30.7040   41.7710 H   0  0  0  0  0  0  0  0  0  0  0  0
   38.9670   31.6260   40.3660 H   0  0  0  0  0  0  0  0  0  0  0  0
   46.6740   30.0300   46.5620 S   0  0  0  0  0  0  0  0  0  0  0  0
   44.5190   35.5020   45.1490 C   0  0  0  0  0  0  0  0  0  0  0  0
   45.1790   35.4980   43.9010 C   0  0  0  0  0  0  0  0  0  0  0  0
   46.1050   34.5420   43.6420 C   0  0  0  0  0  0  0  0  0  0  0  0
   46.3380   33.6360   44.6210 N   0  0  0  0  0  0  0  0  0  0  0  0
   45.7160   33.6410   45.7920 C   0  0  0  0  0  0  0  0  0  0  0  0
   44.8010   34.5690   46.0720 N   0  0  0  0  0  0  0  0  0  0  0  0
   46.0510   32.6260   46.7540 N   0  0  0  0  0  0  0  0  0  0  0  0
   45.3160   32.3700   47.9380 C   0  0  0  0  0  0  0  0  0  0  0  0
   46.3970   32.0340   48.9510 C   0  0  0  0  0  0  0  0  0  0  0  0
   47.6760   31.9350   48.1790 C   0  0  0  0  0  0  0  0  0  0  0  0
   47.1770   31.7230   46.7510 C   0  0  1  0  0  0  0  0  0  0  0  0
   43.7860   36.2720   45.3320 H   0  0  0  0  0  0  0  0  0  0  0  0
   46.6100   34.5260   42.7090 H   0  0  0  0  0  0  0  0  0  0  0  0
   44.5320   31.6950   48.0450 H   0  0  0  0  0  0  0  0  0  0  0  0
   44.9230   33.3730   48.2950 H   0  0  0  0  0  0  0  0  0  0  0  0
   46.4800   32.7480   49.7760 H   0  0  0  0  0  0  0  0  0  0  0  0
   46.1800   31.0410   49.4390 H   0  0  0  0  0  0  0  0  0  0  0  0
   48.2510   31.0750   48.5370 H   0  0  0  0  0  0  0  0  0  0  0  0
   48.2210   32.9020   48.2800 H   0  0  0  0  0  0  0  0  0  0  0  0
   47.9950   32.0410   46.0760 H   0  0  0  0  0  0  0  0  0  0  0  0
   44.8160   36.5330   42.9700 N   0  0  0  0  0  0  0  0  0  0  0  0
   45.5570   36.7860   42.2540 H   0  0  0  0  0  0  0  0  0  0  0  0
   43.8900   36.9710   43.0300 H   0  0  0  0  0  0  0  0  0  0  0  0
  1  2  2  0  0  0  0
  2  3  1  0  0  0  0
  3  4  1  0  0  0  0
  3  7  1  1  0  0  0
  3 26  1  0  0  0  0
  4  9  1  0  0  0  0
  5 10  1  0  0  0  0
  5  4  1  0  0  0  0
  6  2  1  0  0  0  0
  6  5  1  0  0  0  0
  8  4  1  0  0  0  0
 11  5  1  0  0  0  0
 12 13  1  0  0  0  0
 13 14  1  0  0  0  0
 14  6  1  0  0  0  0
 15 14  2  0  0  0  0
 16 15  1  0  0  0  0
 17 23  1  0  0  0  0
 17 16  2  0  0  0  0
 18 17  1  0  0  0  0
 19 18  2  0  0  0  0
 19 21  1  0  0  0  0
 20 19  1  0  0  0  0
 21 22  2  0  0  0  0
 22 16  1  0  0  0  0
 22 13  1  0  0  0  0
 23 24  1  0  0  0  0
 25 23  1  0  0  0  0
 26 37  1  0  0  0  0
 27 38  1  0  0  0  0
 27 32  1  0  0  0  0
 28 27  2  0  0  0  0
 29 28  1  0  0  0  0
 29 30  2  0  0  0  0
 30 31  1  0  0  0  0
 31 32  2  0  0  0  0
 31 33  1  0  0  0  0
 33 34  1  0  0  0  0
 34 40  1  0  0  0  0
 34 41  1  0  0  0  0
 34 35  1  0  0  0  0
 35 43  1  0  0  0  0
 35 42  1  0  0  0  0
 36 45  1  0  0  0  0
 36 44  1  0  0  0  0
 36 35  1  0  0  0  0
 37 46  1  6  0  0  0
 37 33  1  0  0  0  0
 37 36  1  0  0  0  0
 39 29  1  0  0  0  0
 47 49  1  0  0  0  0
 47 28  1  0  0  0  0
 48 47  1  0  0  0  0
M  END
>  <minimizedAffinity>
-5.8408618

>  <minimizedRMSD>
0.133596733

$$$$
