
 OpenBabel03252500253D

 42 45  0  0  1  0  0  0  0  0999 V2000
   47.6000   29.9470   47.8910 C   0  0  2  0  0  0  0  0  0  0  0  0
   46.1350   29.9010   47.6890 C   0  0  2  0  0  0  0  0  0  0  0  0
   45.9850   29.1690   46.4080 C   0  0  0  0  0  0  0  0  0  0  0  0
   47.0580   28.3000   46.2950 O   0  0  0  0  0  0  0  0  0  0  0  0
   47.9570   28.5810   47.2720 C   0  0  0  0  0  0  0  0  0  0  0  0
   48.2740   30.5960   47.4210 H   0  0  0  0  0  0  0  0  0  0  0  0
   45.7250   29.3840   48.5980 H   0  0  0  0  0  0  0  0  0  0  0  0
   45.1120   28.4680   46.5860 H   0  0  0  0  0  0  0  0  0  0  0  0
   45.6970   29.7270   45.5390 H   0  0  0  0  0  0  0  0  0  0  0  0
   47.8100   27.8320   48.0950 H   0  0  0  0  0  0  0  0  0  0  0  0
   48.9950   28.5150   46.9530 H   0  0  0  0  0  0  0  0  0  0  0  0
   45.5260   31.1350   47.6620 O   0  0  0  0  0  0  0  0  0  0  0  0
   47.4620   32.8340   47.6370 O   0  0  0  0  0  0  0  0  0  0  0  0
   46.4270   32.1950   46.7500 P   0  0  1  0  0  0  0  0  0  0  0  0
   47.2170   31.3360   45.5240 O   0  0  0  0  0  0  0  0  0  0  0  0
   46.7990   31.4510   44.6520 H   0  0  0  0  0  0  0  0  0  0  0  0
   45.4680   33.4480   46.0830 O   0  0  0  0  0  0  0  0  0  0  0  0
   45.1760   35.6520   43.3000 C   0  0  0  0  0  0  0  0  0  0  0  0
   46.3180   35.3680   42.5020 C   0  0  0  0  0  0  0  0  0  0  0  0
   47.1840   34.3750   42.9860 C   0  0  0  0  0  0  0  0  0  0  0  0
   46.8860   33.7660   44.1520 N   0  0  0  0  0  0  0  0  0  0  0  0
   45.7840   34.0720   44.8770 C   0  0  0  0  0  0  0  0  0  0  0  0
   44.9460   35.0100   44.4420 N   0  0  0  0  0  0  0  0  0  0  0  0
   46.5470   35.8520   41.5820 H   0  0  0  0  0  0  0  0  0  0  0  0
   48.0710   34.0930   42.4500 H   0  0  0  0  0  0  0  0  0  0  0  0
   44.3190   36.6300   42.8320 O   0  0  0  0  0  0  0  0  0  0  0  0
   44.6740   37.5710   42.7080 H   0  0  0  0  0  0  0  0  0  0  0  0
   47.9530   30.0160   49.2300 O   0  0  0  0  0  0  0  0  0  0  0  0
   49.1710   32.3880   48.5660 H   0  0  0  0  0  0  0  0  0  0  0  0
   49.4960   31.7660   49.3420 N   0  0  0  0  0  0  0  0  0  0  0  0
   49.0400   30.5780   49.8180 C   0  0  0  0  0  0  0  0  0  0  0  0
   49.8430   30.2160   50.8410 N   0  0  0  0  0  0  0  0  0  0  0  0
   50.7950   31.1190   51.0430 C   0  0  0  0  0  0  0  0  0  0  0  0
   51.8270   31.1820   51.9580 C   0  0  0  0  0  0  0  0  0  0  0  0
   52.6550   32.2590   51.9120 N   0  0  0  0  0  0  0  0  0  0  0  0
   52.4470   33.2270   50.9820 C   0  0  0  0  0  0  0  0  0  0  0  0
   53.1280   34.0690   50.9780 H   0  0  0  0  0  0  0  0  0  0  0  0
   51.4340   33.1430   50.1020 N   0  0  0  0  0  0  0  0  0  0  0  0
   50.5740   32.0970   50.0950 C   0  0  0  0  0  0  0  0  0  0  0  0
   51.9990   30.1360   52.9120 N   0  0  0  0  0  0  0  0  0  0  0  0
   51.5480   29.8860   53.8410 H   0  0  0  0  0  0  0  0  0  0  0  0
   52.7490   29.4320   52.6540 H   0  0  0  0  0  0  0  0  0  0  0  0
  1  6  1  6  0  0  0
  1 28  1  0  0  0  0
  2  1  1  0  0  0  0
  2  7  1  1  0  0  0
  3  8  1  0  0  0  0
  3  2  1  0  0  0  0
  4  3  1  0  0  0  0
  4  5  1  0  0  0  0
  5  1  1  0  0  0  0
  5 10  1  0  0  0  0
  9  3  1  0  0  0  0
 11  5  1  0  0  0  0
 12  2  1  0  0  0  0
 14 13  2  1  0  0  0
 14 12  1  0  0  0  0
 15 14  1  0  0  0  0
 16 15  1  0  0  0  0
 17 14  1  0  0  0  0
 18 23  1  0  0  0  0
 19 20  1  0  0  0  0
 19 18  2  0  0  0  0
 20 21  2  0  0  0  0
 21 22  1  0  0  0  0
 22 17  1  0  0  0  0
 23 22  2  0  0  0  0
 24 19  1  0  0  0  0
 25 20  1  0  0  0  0
 26 18  1  0  0  0  0
 27 26  1  0  0  0  0
 28 31  1  0  0  0  0
 29 30  1  0  0  0  0
 30 31  1  0  0  0  0
 30 39  1  0  0  0  0
 31 32  2  0  0  0  0
 32 33  1  0  0  0  0
 33 34  1  0  0  0  0
 34 40  1  0  0  0  0
 35 34  2  0  0  0  0
 36 35  1  0  0  0  0
 37 36  1  0  0  0  0
 38 36  2  0  0  0  0
 39 38  1  0  0  0  0
 39 33  2  0  0  0  0
 40 41  1  0  0  0  0
 42 40  1  0  0  0  0
M  END
>  <minimizedAffinity>
-6.03602219

>  <minimizedRMSD>
0.917196453

$$$$
