
     RDKit          3D

 42 45  0  0  0  0  0  0  0  0999 V2000
   47.3199   32.6897   47.5100 O   0  0  0  0  0  0  0  0  0  0  0  0
   46.0072   32.3275   46.8687 P   0  0  2  0  0  0  0  0  0  0  0  0
   46.2974   31.2096   45.6308 O   0  0  0  0  0  0  0  0  0  0  0  0
   45.3252   33.7644   46.2317 O   0  0  0  0  0  0  0  0  0  0  0  0
   45.2239   35.8280   43.3310 C   0  0  0  0  0  0  0  0  0  0  0  0
   46.2747   35.3358   42.5103 C   0  0  0  0  0  0  0  0  0  0  0  0
   47.0107   34.2561   43.0219 C   0  0  0  0  0  0  0  0  0  0  0  0
   46.6832   33.7627   44.2337 N   0  0  0  0  0  0  0  0  0  0  0  0
   45.6708   34.2675   44.9790 C   0  0  0  0  0  0  0  0  0  0  0  0
   44.9570   35.2908   44.5179 N   0  0  0  0  0  0  0  0  0  0  0  0
   44.4948   36.8916   42.8350 O   0  0  0  0  0  0  0  0  0  0  0  0
   45.0303   31.6253   48.0175 O   0  0  0  0  0  0  0  0  0  0  0  0
   46.7886   29.9910   48.0546 C   0  0  2  0  0  0  0  0  0  0  0  0
   45.3434   30.2923   48.1512 C   0  0  2  0  0  0  0  0  0  0  0  0
   44.7445   29.4612   47.0781 C   0  0  0  0  0  0  0  0  0  0  0  0
   45.5449   28.3412   46.9207 O   0  0  0  0  0  0  0  0  0  0  0  0
   46.6851   28.5102   47.6377 C   0  0  0  0  0  0  0  0  0  0  0  0
   47.4465   30.1429   49.2662 O   0  0  0  0  0  0  0  0  0  0  0  0
   45.7765   31.3911   44.8284 H   0  0  0  0  0  0  0  0  0  0  0  0
   46.5285   35.7294   41.5545 H   0  0  0  0  0  0  0  0  0  0  0  0
   47.8228   33.8184   42.4724 H   0  0  0  0  0  0  0  0  0  0  0  0
   44.9748   37.7634   42.6404 H   0  0  0  0  0  0  0  0  0  0  0  0
   47.4612   30.3807   47.3542 H   0  0  0  0  0  0  0  0  0  0  0  0
   45.0509   30.0187   49.2000 H   0  0  0  0  0  0  0  0  0  0  0  0
   43.8039   29.0327   47.5452 H   0  0  0  0  0  0  0  0  0  0  0  0
   44.3937   29.9552   46.1935 H   0  0  0  0  0  0  0  0  0  0  0  0
   46.5712   27.9368   48.5973 H   0  0  0  0  0  0  0  0  0  0  0  0
   47.5808   28.1416   47.1433 H   0  0  0  0  0  0  0  0  0  0  0  0
   49.3157   31.0180   47.4524 H   0  0  0  0  0  0  0  0  0  0  0  0
   49.4769   30.9935   48.4853 N   0  0  0  0  0  0  0  0  0  0  0  0
   48.6968   30.6044   49.5271 C   0  0  0  0  0  0  0  0  0  0  0  0
   49.4109   30.7857   50.6576 N   0  0  0  0  0  0  0  0  0  0  0  0
   50.6161   31.2743   50.3892 C   0  0  0  0  0  0  0  0  0  0  0  0
   51.6752   31.6155   51.2051 C   0  0  0  0  0  0  0  0  0  0  0  0
   51.5681   31.4553   52.6185 N   0  0  0  0  0  0  0  0  0  0  0  0
   51.1281   32.0159   53.4058 H   0  0  0  0  0  0  0  0  0  0  0  0
   52.8008   32.0999   50.6187 N   0  0  0  0  0  0  0  0  0  0  0  0
   52.8518   32.2331   49.2672 C   0  0  0  0  0  0  0  0  0  0  0  0
   53.7663   32.6227   48.8387 H   0  0  0  0  0  0  0  0  0  0  0  0
   51.8056   31.8935   48.4933 N   0  0  0  0  0  0  0  0  0  0  0  0
   50.6555   31.4048   49.0163 C   0  0  0  0  0  0  0  0  0  0  0  0
   52.0297   30.5756   52.9917 H   0  0  0  0  0  0  0  0  0  0  0  0
  2  1  2  0
  2 12  1  1
  3  2  1  0
  4  2  1  0
  5 10  2  0
  6  7  2  0
  6  5  1  0
  7  8  1  0
  8  9  2  0
  9  4  1  0
 10  9  1  0
 11  5  1  0
 13 14  1  0
 13 18  1  0
 14 12  1  0
 15 14  1  0
 16 15  1  0
 16 17  1  0
 17 13  1  0
  3 19  1  0
  6 20  1  0
  7 21  1  0
 11 22  1  0
 13 23  1  6
 14 24  1  1
 15 25  1  0
 15 26  1  0
 17 27  1  0
 17 28  1  0
 29 30  1  0
 30 31  1  0
 31 32  2  0
 32 33  1  0
 33 34  2  0
 34 35  1  0
 35 36  1  0
 34 37  1  0
 37 38  2  0
 38 39  1  0
 38 40  1  0
 40 41  2  0
 41 30  1  0
 41 33  1  0
 35 42  1  0
 18 31  1  0
M  ISO  8  19   3  20  14  21  14  22   3  23  13  24  13  25  13  26  13
M  ISO  5  27  13  28  13  29   9  36   5  39  16
M  END
>  <DihAtoms>  (1) 
12,17,30,29

>  <DihDeg>  (1) 
179.96498801734955

$$$$
