REMARK  Name = 
REMARK  4 active torsions:
REMARK  status: ('A' for Active; 'I' for Inactive)
REMARK    1  A    between atoms: C_2  and  N_12
REMARK    2  A    between atoms: C_11  and  S_13
REMARK    3  A    between atoms: S_13  and  C_16
REMARK    4  A    between atoms: C_41  and  N_42
REMARK                            x       y       z     vdW  Elec       q    Type
REMARK                         _______ _______ _______ _____ _____    ______ ____
ROOT
ATOM      1  O   UNL     1      45.619  30.509  43.490  0.00  0.00    +0.000 OA
ATOM      2  C   UNL     1      44.984  29.985  44.420  0.00  0.00    +0.000 C 
ATOM      3  C   UNL     1      45.076  29.781  45.888  0.00  0.00    +0.000 C 
ATOM      4  C   UNL     1      44.526  28.385  46.041  0.00  0.00    +0.000 C 
ATOM      5  C   UNL     1      43.222  28.590  45.270  0.00  0.00    +0.000 C 
ATOM      6  N   UNL     1      43.736  29.327  44.123  0.00  0.00    +0.000 N 
ATOM      7  H   UNL     1      44.193  30.395  46.218  0.00  0.00    +0.000 HD
ATOM      8  H   UNL     1      45.211  27.704  45.508  0.00  0.00    +0.000 HD
ATOM      9  H   UNL     1      44.356  28.082  47.085  0.00  0.00    +0.000 HD
ATOM     10  H   UNL     1      42.584  29.256  45.851  0.00  0.00    +0.000 HD
ATOM     11  H   UNL     1      42.763  27.630  44.984  0.00  0.00    +0.000 HD
ATOM     12  H   UNL     1      44.754  29.543  41.576  0.00  0.00    +0.000 HD
ATOM     13  N   UNL     1      43.716  29.448  41.730  0.00  0.00    +0.000 N 
ATOM     14  C   UNL     1      42.996  29.329  42.881  0.00  0.00    +0.000 A 
ATOM     15  N   UNL     1      41.690  29.234  42.593  0.00  0.00    +0.000 NA
ATOM     16  C   UNL     1      41.577  29.294  41.234  0.00  0.00    +0.000 A 
ATOM     17  C   UNL     1      40.540  29.253  40.351  0.00  0.00    +0.000 A 
ATOM     18  N   UNL     1      40.765  29.339  39.037  0.00  0.00    +0.000 NA
ATOM     19  C   UNL     1      42.005  29.470  38.507  0.00  0.00    +0.000 A 
ATOM     20  H   UNL     1      42.231  29.543  37.452  0.00  0.00    +0.000 HD
ATOM     21  N   UNL     1      43.056  29.515  39.347  0.00  0.00    +0.000 NA
ATOM     22  C   UNL     1      42.853  29.430  40.675  0.00  0.00    +0.000 A 
ENDROOT
BRANCH  17  23
ATOM     23  N   UNL     1      39.226  29.116  40.870  0.00  0.00    +0.000 N 
ATOM     24  H   UNL     1      39.062  28.457  41.666  0.00  0.00    +0.000 HD
ATOM     25  H   UNL     1      38.291  29.548  40.639  0.00  0.00    +0.000 HD
ENDBRANCH  17  23
BRANCH   3  26
ATOM     26  S   UNL     1      46.621  30.077  46.641  0.00  0.00    +0.000 S 
BRANCH  26  37
ATOM     27  C   UNL     1      44.500  35.534  45.122  0.00  0.00    +0.000 A 
ATOM     28  C   UNL     1      45.166  35.505  43.878  0.00  0.00    +0.000 A 
ATOM     29  C   UNL     1      46.089  34.541  43.640  0.00  0.00    +0.000 A 
ATOM     30  N   UNL     1      46.312  33.650  44.636  0.00  0.00    +0.000 NA
ATOM     31  C   UNL     1      45.684  33.679  45.803  0.00  0.00    +0.000 A 
ATOM     32  N   UNL     1      44.773  34.616  46.063  0.00  0.00    +0.000 NA
ATOM     33  N   UNL     1      46.010  32.679  46.785  0.00  0.00    +0.000 N 
ATOM     34  C   UNL     1      45.267  32.447  47.969  0.00  0.00    +0.000 C 
ATOM     35  C   UNL     1      46.341  32.123  48.993  0.00  0.00    +0.000 C 
ATOM     36  C   UNL     1      47.624  32.005  48.230  0.00  0.00    +0.000 C 
ATOM     37  C   UNL     1      47.131  31.771  46.803  0.00  0.00    +0.000 C 
ATOM     38  H   UNL     1      43.770  36.310  45.288  0.00  0.00    +0.000 HD
ATOM     39  H   UNL     1      46.599  34.506  42.710  0.00  0.00    +0.000 HD
ATOM     40  H   UNL     1      44.480  31.777  48.083  0.00  0.00    +0.000 HD
ATOM     41  H   UNL     1      44.877  33.458  48.307  0.00  0.00    +0.000 HD
ATOM     42  H   UNL     1      46.424  32.851  49.806  0.00  0.00    +0.000 HD
ATOM     43  H   UNL     1      46.117  31.140  49.497  0.00  0.00    +0.000 HD
ATOM     44  H   UNL     1      48.193  31.148  48.606  0.00  0.00    +0.000 HD
ATOM     45  H   UNL     1      48.173  32.971  48.317  0.00  0.00    +0.000 HD
ATOM     46  H   UNL     1      47.954  32.073  46.127  0.00  0.00    +0.000 HD
BRANCH  28  47
ATOM     47  N   UNL     1      44.813  36.526  42.927  0.00  0.00    +0.000 N 
ATOM     48  H   UNL     1      45.559  36.763  42.211  0.00  0.00    +0.000 HD
ATOM     49  H   UNL     1      43.889  36.969  42.975  0.00  0.00    +0.000 HD
ENDBRANCH  28  47
ENDBRANCH  26  37
ENDBRANCH   3  26
TORSDOF 4
