
 OpenBabel03252506383D

 49 53  0  0  1  0  0  0  0  0999 V2000
   45.1100   30.8220   43.5650 O   0  0  0  0  0  0  0  0  0  0  0  0
   44.6820   30.1020   44.4830 C   0  0  0  0  0  0  0  0  0  0  0  0
   45.0620   29.6470   45.8440 C   0  0  1  0  0  0  0  0  0  0  0  0
   44.5900   28.2140   45.8330 C   0  0  0  0  0  0  0  0  0  0  0  0
   43.1570   28.4710   45.3690 C   0  0  0  0  0  0  0  0  0  0  0  0
   43.4180   29.4310   44.3050 N   0  0  0  0  0  0  0  0  0  0  0  0
   44.2430   30.1360   46.4400 H   0  0  0  0  0  0  0  0  0  0  0  0
   45.1770   27.6830   45.0650 H   0  0  0  0  0  0  0  0  0  0  0  0
   44.6340   27.7210   46.8160 H   0  0  0  0  0  0  0  0  0  0  0  0
   42.6250   28.9820   46.1720 H   0  0  0  0  0  0  0  0  0  0  0  0
   42.6770   27.5500   45.0000 H   0  0  0  0  0  0  0  0  0  0  0  0
   42.5120   31.8060   43.2520 H   0  0  0  0  0  0  0  0  0  0  0  0
   42.1520   30.8870   42.8840 N   0  0  0  0  0  0  0  0  0  0  0  0
   42.4520   29.6070   43.2440 C   0  0  0  0  0  0  0  0  0  0  0  0
   41.7460   28.7470   42.4950 N   0  0  0  0  0  0  0  0  0  0  0  0
   40.9840   29.4930   41.6450 C   0  0  0  0  0  0  0  0  0  0  0  0
   40.0810   29.2130   40.6630 C   0  0  0  0  0  0  0  0  0  0  0  0
   39.4860   30.1990   39.9870 N   0  0  0  0  0  0  0  0  0  0  0  0
   39.7340   31.5100   40.2240 C   0  0  0  0  0  0  0  0  0  0  0  0
   39.2750   32.3400   39.7020 H   0  0  0  0  0  0  0  0  0  0  0  0
   40.6200   31.8280   41.1850 N   0  0  0  0  0  0  0  0  0  0  0  0
   41.2310   30.8500   41.8780 C   0  0  0  0  0  0  0  0  0  0  0  0
   39.7960   27.8500   40.3880 N   0  0  0  0  0  0  0  0  0  0  0  0
   40.5830   27.1600   40.3740 H   0  0  0  0  0  0  0  0  0  0  0  0
   38.9170   27.3070   40.1740 H   0  0  0  0  0  0  0  0  0  0  0  0
   46.7150   29.9010   46.3390 S   0  0  0  0  0  0  0  0  0  0  0  0
   44.5530   35.4510   45.2890 C   0  0  0  0  0  0  0  0  0  0  0  0
   45.1830   35.5150   44.0280 C   0  0  0  0  0  0  0  0  0  0  0  0
   46.0990   34.5730   43.6930 C   0  0  0  0  0  0  0  0  0  0  0  0
   46.3500   33.6120   44.6140 N   0  0  0  0  0  0  0  0  0  0  0  0
   45.7550   33.5530   45.7970 C   0  0  0  0  0  0  0  0  0  0  0  0
   44.8520   34.4660   46.1510 N   0  0  0  0  0  0  0  0  0  0  0  0
   46.1080   32.4840   46.6930 N   0  0  0  0  0  0  0  0  0  0  0  0
   45.3990   32.1630   47.8770 C   0  0  0  0  0  0  0  0  0  0  0  0
   46.5010   31.7660   48.8430 C   0  0  0  0  0  0  0  0  0  0  0  0
   47.7620   31.7070   48.0380 C   0  0  0  0  0  0  0  0  0  0  0  0
   47.2290   31.5790   46.6120 C   0  0  1  0  0  0  0  0  0  0  0  0
   43.8280   36.2110   45.5320 H   0  0  0  0  0  0  0  0  0  0  0  0
   46.5830   34.6080   42.7490 H   0  0  0  0  0  0  0  0  0  0  0  0
   44.6150   31.4850   47.9630 H   0  0  0  0  0  0  0  0  0  0  0  0
   45.0190   33.1460   48.2990 H   0  0  0  0  0  0  0  0  0  0  0  0
   46.6070   32.4320   49.7050 H   0  0  0  0  0  0  0  0  0  0  0  0
   46.2910   30.7480   49.2790 H   0  0  0  0  0  0  0  0  0  0  0  0
   48.3410   30.8260   48.3330 H   0  0  0  0  0  0  0  0  0  0  0  0
   48.3140   32.6650   48.1810 H   0  0  0  0  0  0  0  0  0  0  0  0
   48.0330   31.9320   45.9370 H   0  0  0  0  0  0  0  0  0  0  0  0
   44.8040   36.6030   43.1650 N   0  0  0  0  0  0  0  0  0  0  0  0
   45.5290   36.8940   42.4480 H   0  0  0  0  0  0  0  0  0  0  0  0
   43.8820   37.0400   43.2720 H   0  0  0  0  0  0  0  0  0  0  0  0
  1  2  2  0  0  0  0
  2  3  1  0  0  0  0
  3 26  1  0  0  0  0
  3  7  1  1  0  0  0
  4  3  1  0  0  0  0
  4  9  1  0  0  0  0
  5  4  1  0  0  0  0
  5 10  1  0  0  0  0
  6  2  1  0  0  0  0
  6  5  1  0  0  0  0
  8  4  1  0  0  0  0
 11  5  1  0  0  0  0
 13 14  1  0  0  0  0
 13 12  1  0  0  0  0
 14  6  1  0  0  0  0
 15 14  2  0  0  0  0
 16 22  1  0  0  0  0
 16 15  1  0  0  0  0
 17 16  2  0  0  0  0
 18 19  2  0  0  0  0
 18 17  1  0  0  0  0
 19 21  1  0  0  0  0
 20 19  1  0  0  0  0
 21 22  2  0  0  0  0
 22 13  1  0  0  0  0
 23 17  1  0  0  0  0
 24 23  1  0  0  0  0
 25 23  1  0  0  0  0
 26 37  1  0  0  0  0
 27 38  1  0  0  0  0
 27 32  1  0  0  0  0
 28 27  2  0  0  0  0
 29 28  1  0  0  0  0
 29 30  2  0  0  0  0
 30 31  1  0  0  0  0
 31 32  2  0  0  0  0
 31 33  1  0  0  0  0
 33 34  1  0  0  0  0
 34 40  1  0  0  0  0
 34 41  1  0  0  0  0
 34 35  1  0  0  0  0
 35 43  1  0  0  0  0
 35 42  1  0  0  0  0
 36 45  1  0  0  0  0
 36 44  1  0  0  0  0
 36 35  1  0  0  0  0
 37 46  1  6  0  0  0
 37 33  1  0  0  0  0
 37 36  1  0  0  0  0
 39 29  1  0  0  0  0
 47 49  1  0  0  0  0
 47 28  1  0  0  0  0
 48 47  1  0  0  0  0
M  END
>  <minimizedAffinity>
-6.27325058

>  <minimizedRMSD>
0.828113019

$$$$
