REMARK  Name = 
REMARK  9 active torsions:
REMARK  status: ('A' for Active; 'I' for Inactive)
REMARK    1  A    between atoms: P_2  and  O_3
REMARK    2  A    between atoms: P_2  and  O_4
REMARK    3  A    between atoms: P_2  and  O_12
REMARK    4  A    between atoms: O_4  and  C_9
REMARK    5  A    between atoms: C_5  and  O_11
REMARK    6  A    between atoms: O_12  and  C_14
REMARK    7  A    between atoms: C_13  and  O_18
REMARK    8  A    between atoms: O_18  and  C_31
REMARK    9  A    between atoms: C_34  and  N_35
REMARK                            x       y       z     vdW  Elec       q    Type
REMARK                         _______ _______ _______ _____ _____    ______ ____
ROOT
ATOM      1  C   UNL     1      46.789  29.991  48.055  0.00  0.00    +0.000 C 
ATOM      2  C   UNL     1      45.343  30.292  48.151  0.00  0.00    +0.000 C 
ATOM      3  C   UNL     1      44.745  29.461  47.078  0.00  0.00    +0.000 C 
ATOM      4  O   UNL     1      45.545  28.341  46.921  0.00  0.00    +0.000 OA
ATOM      5  C   UNL     1      46.685  28.510  47.638  0.00  0.00    +0.000 C 
ATOM      6  H   UNL     1      47.461  30.381  47.354  0.00  0.00    +0.000 HD
ATOM      7  H   UNL     1      45.051  30.019  49.200  0.00  0.00    +0.000 HD
ATOM      8  H   UNL     1      43.804  29.033  47.545  0.00  0.00    +0.000 HD
ATOM      9  H   UNL     1      44.394  29.955  46.194  0.00  0.00    +0.000 HD
ATOM     10  H   UNL     1      46.571  27.937  48.597  0.00  0.00    +0.000 HD
ATOM     11  H   UNL     1      47.581  28.142  47.143  0.00  0.00    +0.000 HD
ENDROOT
BRANCH   2  12
ATOM     12  O   UNL     1      45.030  31.625  48.017  0.00  0.00    +0.000 OA
BRANCH  12  14
ATOM     13  O   UNL     1      47.320  32.690  47.510  0.00  0.00    +0.000 OA
ATOM     14  P   UNL     1      46.007  32.328  46.869  0.00  0.00    +0.000 P 
BRANCH  14  15
ATOM     15  O   UNL     1      46.297  31.210  45.631  0.00  0.00    +0.000 OA
ATOM     16  H   UNL     1      45.776  31.391  44.828  0.00  0.00    +0.000 HD
ENDBRANCH  14  15
BRANCH  14  17
ATOM     17  O   UNL     1      45.325  33.764  46.232  0.00  0.00    +0.000 OA
BRANCH  17  22
ATOM     18  C   UNL     1      45.224  35.828  43.331  0.00  0.00    +0.000 A 
ATOM     19  C   UNL     1      46.275  35.336  42.510  0.00  0.00    +0.000 A 
ATOM     20  C   UNL     1      47.011  34.256  43.022  0.00  0.00    +0.000 A 
ATOM     21  N   UNL     1      46.683  33.763  44.234  0.00  0.00    +0.000 NA
ATOM     22  C   UNL     1      45.671  34.267  44.979  0.00  0.00    +0.000 A 
ATOM     23  N   UNL     1      44.957  35.291  44.518  0.00  0.00    +0.000 NA
ATOM     24  H   UNL     1      46.529  35.729  41.554  0.00  0.00    +0.000 HD
ATOM     25  H   UNL     1      47.823  33.818  42.472  0.00  0.00    +0.000 HD
BRANCH  18  26
ATOM     26  O   UNL     1      44.495  36.892  42.835  0.00  0.00    +0.000 OA
ATOM     27  H   UNL     1      44.975  37.763  42.640  0.00  0.00    +0.000 HD
ENDBRANCH  18  26
ENDBRANCH  17  22
ENDBRANCH  14  17
ENDBRANCH  12  14
ENDBRANCH   2  12
BRANCH   1  28
ATOM     28  O   UNL     1      47.447  30.143  49.266  0.00  0.00    +0.000 OA
BRANCH  28  31
ATOM     29  H   UNL     1      49.507  30.482  47.481  0.00  0.00    +0.000 HD
ATOM     30  N   UNL     1      49.582  30.701  48.501  0.00  0.00    +0.000 N 
ATOM     31  C   UNL     1      48.697  30.604  49.527  0.00  0.00    +0.000 A 
ATOM     32  N   UNL     1      49.325  31.024  50.645  0.00  0.00    +0.000 NA
ATOM     33  C   UNL     1      50.576  31.387  50.383  0.00  0.00    +0.000 A 
ATOM     34  C   UNL     1      51.583  31.872  51.191  0.00  0.00    +0.000 A 
ATOM     35  N   UNL     1      52.780  32.157  50.615  0.00  0.00    +0.000 NA
ATOM     36  C   UNL     1      52.950  31.959  49.282  0.00  0.00    +0.000 A 
ATOM     37  H   UNL     1      53.918  32.198  48.861  0.00  0.00    +0.000 HD
ATOM     38  N   UNL     1      51.952  31.485  48.515  0.00  0.00    +0.000 NA
ATOM     39  C   UNL     1      50.736  31.181  49.028  0.00  0.00    +0.000 A 
BRANCH  34  40
ATOM     40  N   UNL     1      51.351  32.061  52.586  0.00  0.00    +0.000 N 
ATOM     41  H   UNL     1      50.883  32.811  53.174  0.00  0.00    +0.000 HD
ATOM     42  H   UNL     1      51.727  31.279  53.198  0.00  0.00    +0.000 HD
ENDBRANCH  34  40
ENDBRANCH  28  31
ENDBRANCH   1  28
TORSDOF 9
