
 OpenBabel03252506383D

 49 53  0  0  1  0  0  0  0  0999 V2000
   45.5950   30.5220   43.4500 O   0  0  0  0  0  0  0  0  0  0  0  0
   44.9830   29.9780   44.3830 C   0  0  0  0  0  0  0  0  0  0  0  0
   45.1080   29.7470   45.8450 C   0  0  1  0  0  0  0  0  0  0  0  0
   44.5690   28.3460   45.9840 C   0  0  0  0  0  0  0  0  0  0  0  0
   43.2480   28.5570   45.2450 C   0  0  0  0  0  0  0  0  0  0  0  0
   43.7330   29.3180   44.1010 N   0  0  0  0  0  0  0  0  0  0  0  0
   44.2280   30.3500   46.2050 H   0  0  0  0  0  0  0  0  0  0  0  0
   45.2460   27.6790   45.4240 H   0  0  0  0  0  0  0  0  0  0  0  0
   44.4230   28.0230   47.0260 H   0  0  0  0  0  0  0  0  0  0  0  0
   42.6190   29.2080   45.8510 H   0  0  0  0  0  0  0  0  0  0  0  0
   42.7880   27.5990   44.9510 H   0  0  0  0  0  0  0  0  0  0  0  0
   41.3470   28.0410   43.6060 H   0  0  0  0  0  0  0  0  0  0  0  0
   41.8040   28.6250   42.8590 N   0  0  0  0  0  0  0  0  0  0  0  0
   42.9670   29.3380   42.8750 C   0  0  0  0  0  0  0  0  0  0  0  0
   43.1530   29.9310   41.6870 N   0  0  0  0  0  0  0  0  0  0  0  0
   42.0900   29.5910   40.9030 C   0  0  0  0  0  0  0  0  0  0  0  0
   41.7090   29.8710   39.6230 C   0  0  0  0  0  0  0  0  0  0  0  0
   40.5750   29.3670   39.1290 N   0  0  0  0  0  0  0  0  0  0  0  0
   39.7470   28.5670   39.8450 C   0  0  0  0  0  0  0  0  0  0  0  0
   38.8220   28.1390   39.4850 H   0  0  0  0  0  0  0  0  0  0  0  0
   40.0890   28.2690   41.1120 N   0  0  0  0  0  0  0  0  0  0  0  0
   41.2280   28.7640   41.6310 C   0  0  0  0  0  0  0  0  0  0  0  0
   42.5510   30.7060   38.8430 N   0  0  0  0  0  0  0  0  0  0  0  0
   42.9880   31.5440   39.2920 H   0  0  0  0  0  0  0  0  0  0  0  0
   42.8770   30.6960   37.8400 H   0  0  0  0  0  0  0  0  0  0  0  0
   46.6670   30.0390   46.5710 S   0  0  0  0  0  0  0  0  0  0  0  0
   44.5140   35.5070   45.1380 C   0  0  0  0  0  0  0  0  0  0  0  0
   45.1760   35.4990   43.8920 C   0  0  0  0  0  0  0  0  0  0  0  0
   46.1020   34.5430   43.6360 C   0  0  0  0  0  0  0  0  0  0  0  0
   46.3330   33.6390   44.6190 N   0  0  0  0  0  0  0  0  0  0  0  0
   45.7090   33.6480   45.7880 C   0  0  0  0  0  0  0  0  0  0  0  0
   44.7950   34.5770   46.0650 N   0  0  0  0  0  0  0  0  0  0  0  0
   46.0440   32.6360   46.7540 N   0  0  0  0  0  0  0  0  0  0  0  0
   45.3060   32.3830   47.9380 C   0  0  0  0  0  0  0  0  0  0  0  0
   46.3860   32.0490   48.9530 C   0  0  0  0  0  0  0  0  0  0  0  0
   47.6660   31.9490   48.1840 C   0  0  0  0  0  0  0  0  0  0  0  0
   47.1690   31.7330   46.7550 C   0  0  1  0  0  0  0  0  0  0  0  0
   43.7810   36.2770   45.3180 H   0  0  0  0  0  0  0  0  0  0  0  0
   46.6090   34.5240   42.7040 H   0  0  0  0  0  0  0  0  0  0  0  0
   44.5230   31.7080   48.0450 H   0  0  0  0  0  0  0  0  0  0  0  0
   44.9130   33.3870   48.2920 H   0  0  0  0  0  0  0  0  0  0  0  0
   46.4680   32.7660   49.7760 H   0  0  0  0  0  0  0  0  0  0  0  0
   46.1680   31.0580   49.4430 H   0  0  0  0  0  0  0  0  0  0  0  0
   48.2410   31.0890   48.5450 H   0  0  0  0  0  0  0  0  0  0  0  0
   48.2110   32.9160   48.2830 H   0  0  0  0  0  0  0  0  0  0  0  0
   47.9880   32.0490   46.0810 H   0  0  0  0  0  0  0  0  0  0  0  0
   44.8140   36.5320   42.9570 N   0  0  0  0  0  0  0  0  0  0  0  0
   45.5560   36.7830   42.2420 H   0  0  0  0  0  0  0  0  0  0  0  0
   43.8880   36.9700   43.0150 H   0  0  0  0  0  0  0  0  0  0  0  0
  1  2  2  0  0  0  0
  2  3  1  0  0  0  0
  3  4  1  0  0  0  0
  3  7  1  1  0  0  0
  3 26  1  0  0  0  0
  4  9  1  0  0  0  0
  5 10  1  0  0  0  0
  5  4  1  0  0  0  0
  6  2  1  0  0  0  0
  6  5  1  0  0  0  0
  8  4  1  0  0  0  0
 11  5  1  0  0  0  0
 13 14  1  0  0  0  0
 13 12  1  0  0  0  0
 14  6  1  0  0  0  0
 15 14  2  0  0  0  0
 16 22  1  0  0  0  0
 16 15  1  0  0  0  0
 17 16  2  0  0  0  0
 18 17  1  0  0  0  0
 18 19  2  0  0  0  0
 19 21  1  0  0  0  0
 20 19  1  0  0  0  0
 21 22  2  0  0  0  0
 22 13  1  0  0  0  0
 23 24  1  0  0  0  0
 23 17  1  0  0  0  0
 25 23  1  0  0  0  0
 26 37  1  0  0  0  0
 27 38  1  0  0  0  0
 27 32  1  0  0  0  0
 28 27  2  0  0  0  0
 29 28  1  0  0  0  0
 29 30  2  0  0  0  0
 30 31  1  0  0  0  0
 31 32  2  0  0  0  0
 31 33  1  0  0  0  0
 33 37  1  0  0  0  0
 33 34  1  0  0  0  0
 34 40  1  0  0  0  0
 34 41  1  0  0  0  0
 34 35  1  0  0  0  0
 35 43  1  0  0  0  0
 35 42  1  0  0  0  0
 36 45  1  0  0  0  0
 36 44  1  0  0  0  0
 36 35  1  0  0  0  0
 37 46  1  6  0  0  0
 37 36  1  0  0  0  0
 39 29  1  0  0  0  0
 47 49  1  0  0  0  0
 47 28  1  0  0  0  0
 48 47  1  0  0  0  0
M  END
>  <minimizedAffinity>
-5.79370403

>  <minimizedRMSD>
0.0731536001

$$$$
