
 OpenBabel03252506383D

 49 53  0  0  1  0  0  0  0  0999 V2000
   45.2840   30.6030   43.5750 O   0  0  0  0  0  0  0  0  0  0  0  0
   44.8220   29.9780   44.5440 C   0  0  0  0  0  0  0  0  0  0  0  0
   45.1510   29.6660   45.9580 C   0  0  1  0  0  0  0  0  0  0  0  0
   44.6810   28.2370   46.0760 C   0  0  0  0  0  0  0  0  0  0  0  0
   43.2660   28.4390   45.5350 C   0  0  0  0  0  0  0  0  0  0  0  0
   43.5670   29.2870   44.3890 N   0  0  0  0  0  0  0  0  0  0  0  0
   44.3100   30.2100   46.4710 H   0  0  0  0  0  0  0  0  0  0  0  0
   45.2970   27.6330   45.3880 H   0  0  0  0  0  0  0  0  0  0  0  0
   44.6880   27.8470   47.1040 H   0  0  0  0  0  0  0  0  0  0  0  0
   42.7040   29.0270   46.2610 H   0  0  0  0  0  0  0  0  0  0  0  0
   42.8010   27.4840   45.2430 H   0  0  0  0  0  0  0  0  0  0  0  0
   43.1600   27.3810   42.4470 H   0  0  0  0  0  0  0  0  0  0  0  0
   42.6090   28.2810   42.4370 N   0  0  0  0  0  0  0  0  0  0  0  0
   42.6410   29.3500   43.2800 C   0  0  0  0  0  0  0  0  0  0  0  0
   41.7580   30.2740   42.8750 N   0  0  0  0  0  0  0  0  0  0  0  0
   41.1560   29.7840   41.7540 C   0  0  0  0  0  0  0  0  0  0  0  0
   40.1970   30.2380   40.8980 C   0  0  0  0  0  0  0  0  0  0  0  0
   39.8090   29.4960   39.8570 N   0  0  0  0  0  0  0  0  0  0  0  0
   40.3300   28.2750   39.5870 C   0  0  0  0  0  0  0  0  0  0  0  0
   40.0460   27.6410   38.7570 H   0  0  0  0  0  0  0  0  0  0  0  0
   41.2800   27.7910   40.4090 N   0  0  0  0  0  0  0  0  0  0  0  0
   41.6850   28.5210   41.4640 C   0  0  0  0  0  0  0  0  0  0  0  0
   39.6280   31.5140   41.1500 N   0  0  0  0  0  0  0  0  0  0  0  0
   39.4030   31.7840   42.1360 H   0  0  0  0  0  0  0  0  0  0  0  0
   39.3500   32.3330   40.5440 H   0  0  0  0  0  0  0  0  0  0  0  0
   46.7840   29.9750   46.4860 S   0  0  0  0  0  0  0  0  0  0  0  0
   44.5320   35.4340   45.1760 C   0  0  0  0  0  0  0  0  0  0  0  0
   45.2010   35.4710   43.9340 C   0  0  0  0  0  0  0  0  0  0  0  0
   46.1480   34.5400   43.6610 C   0  0  0  0  0  0  0  0  0  0  0  0
   46.3910   33.6160   44.6220 N   0  0  0  0  0  0  0  0  0  0  0  0
   45.7600   33.5840   45.7870 C   0  0  0  0  0  0  0  0  0  0  0  0
   44.8260   34.4870   46.0810 N   0  0  0  0  0  0  0  0  0  0  0  0
   46.1090   32.5540   46.7300 N   0  0  0  0  0  0  0  0  0  0  0  0
   45.3690   32.2570   47.9020 C   0  0  0  0  0  0  0  0  0  0  0  0
   46.4490   31.9200   48.9160 C   0  0  0  0  0  0  0  0  0  0  0  0
   47.7360   31.8640   48.1530 C   0  0  0  0  0  0  0  0  0  0  0  0
   47.2520   31.6740   46.7160 C   0  0  1  0  0  0  0  0  0  0  0  0
   43.7830   36.1850   45.3700 H   0  0  0  0  0  0  0  0  0  0  0  0
   46.6610   34.5540   42.7320 H   0  0  0  0  0  0  0  0  0  0  0  0
   44.5990   31.5640   47.9870 H   0  0  0  0  0  0  0  0  0  0  0  0
   44.9540   33.2440   48.2780 H   0  0  0  0  0  0  0  0  0  0  0  0
   46.5120   32.6170   49.7570 H   0  0  0  0  0  0  0  0  0  0  0  0
   46.2480   30.9130   49.3800 H   0  0  0  0  0  0  0  0  0  0  0  0
   48.3250   31.0070   48.4960 H   0  0  0  0  0  0  0  0  0  0  0  0
   48.2610   32.8390   48.2790 H   0  0  0  0  0  0  0  0  0  0  0  0
   48.0690   32.0220   46.0550 H   0  0  0  0  0  0  0  0  0  0  0  0
   44.8250   36.5190   43.0230 N   0  0  0  0  0  0  0  0  0  0  0  0
   45.5670   36.8020   42.3190 H   0  0  0  0  0  0  0  0  0  0  0  0
   43.8910   36.9370   43.0850 H   0  0  0  0  0  0  0  0  0  0  0  0
  1  2  2  0  0  0  0
  2  3  1  0  0  0  0
  3  4  1  0  0  0  0
  3  7  1  1  0  0  0
  3 26  1  0  0  0  0
  4  9  1  0  0  0  0
  5  4  1  0  0  0  0
  5 10  1  0  0  0  0
  6  2  1  0  0  0  0
  6  5  1  0  0  0  0
  8  4  1  0  0  0  0
 11  5  1  0  0  0  0
 13 12  1  0  0  0  0
 13 14  1  0  0  0  0
 14  6  1  0  0  0  0
 15 14  2  0  0  0  0
 16 15  1  0  0  0  0
 17 23  1  0  0  0  0
 17 16  2  0  0  0  0
 18 17  1  0  0  0  0
 19 18  2  0  0  0  0
 19 21  1  0  0  0  0
 20 19  1  0  0  0  0
 21 22  2  0  0  0  0
 22 16  1  0  0  0  0
 22 13  1  0  0  0  0
 23 24  1  0  0  0  0
 25 23  1  0  0  0  0
 26 37  1  0  0  0  0
 27 38  1  0  0  0  0
 27 32  1  0  0  0  0
 28 27  2  0  0  0  0
 29 28  1  0  0  0  0
 29 30  2  0  0  0  0
 30 31  1  0  0  0  0
 31 32  2  0  0  0  0
 31 33  1  0  0  0  0
 33 34  1  0  0  0  0
 34 40  1  0  0  0  0
 34 41  1  0  0  0  0
 34 35  1  0  0  0  0
 35 43  1  0  0  0  0
 35 42  1  0  0  0  0
 36 45  1  0  0  0  0
 36 44  1  0  0  0  0
 36 35  1  0  0  0  0
 37 46  1  6  0  0  0
 37 33  1  0  0  0  0
 37 36  1  0  0  0  0
 39 29  1  0  0  0  0
 47 49  1  0  0  0  0
 47 28  1  0  0  0  0
 48 47  1  0  0  0  0
M  END
>  <minimizedAffinity>
-6.01521778

>  <minimizedRMSD>
0.58720237

$$$$
