
 OpenBabel03252506383D

 49 53  0  0  1  0  0  0  0  0999 V2000
   45.1980   30.6050   43.5880 O   0  0  0  0  0  0  0  0  0  0  0  0
   44.7650   29.9740   44.5670 C   0  0  0  0  0  0  0  0  0  0  0  0
   45.1370   29.6510   45.9680 C   0  0  1  0  0  0  0  0  0  0  0  0
   44.6700   28.2220   46.0900 C   0  0  0  0  0  0  0  0  0  0  0  0
   43.2380   28.4290   45.5950 C   0  0  0  0  0  0  0  0  0  0  0  0
   43.5050   29.2840   44.4450 N   0  0  0  0  0  0  0  0  0  0  0  0
   44.3130   30.1920   46.5100 H   0  0  0  0  0  0  0  0  0  0  0  0
   45.2640   27.6220   45.3800 H   0  0  0  0  0  0  0  0  0  0  0  0
   44.7080   27.8240   47.1150 H   0  0  0  0  0  0  0  0  0  0  0  0
   42.7000   29.0120   46.3420 H   0  0  0  0  0  0  0  0  0  0  0  0
   42.7640   27.4760   45.3110 H   0  0  0  0  0  0  0  0  0  0  0  0
   41.4120   27.5650   43.9600 H   0  0  0  0  0  0  0  0  0  0  0  0
   41.5860   28.3880   43.3240 N   0  0  0  0  0  0  0  0  0  0  0  0
   42.5450   29.3560   43.3660 C   0  0  0  0  0  0  0  0  0  0  0  0
   42.3780   30.2060   42.3440 N   0  0  0  0  0  0  0  0  0  0  0  0
   41.2930   29.7710   41.6380 C   0  0  0  0  0  0  0  0  0  0  0  0
   40.6360   30.1980   40.5230 C   0  0  0  0  0  0  0  0  0  0  0  0
   39.5720   29.5330   40.0690 N   0  0  0  0  0  0  0  0  0  0  0  0
   39.0850   28.4180   40.6670 C   0  0  0  0  0  0  0  0  0  0  0  0
   38.2270   27.8500   40.3330 H   0  0  0  0  0  0  0  0  0  0  0  0
   39.7080   27.9650   41.7720 N   0  0  0  0  0  0  0  0  0  0  0  0
   40.7820   28.6200   42.2480 C   0  0  0  0  0  0  0  0  0  0  0  0
   41.1170   31.3620   39.8680 N   0  0  0  0  0  0  0  0  0  0  0  0
   41.4310   32.1760   40.4470 H   0  0  0  0  0  0  0  0  0  0  0  0
   41.2510   31.6410   38.8590 H   0  0  0  0  0  0  0  0  0  0  0  0
   46.7860   29.9560   46.4480 S   0  0  0  0  0  0  0  0  0  0  0  0
   44.5400   35.4280   45.1870 C   0  0  0  0  0  0  0  0  0  0  0  0
   45.2020   35.4710   43.9410 C   0  0  0  0  0  0  0  0  0  0  0  0
   46.1460   34.5400   43.6570 C   0  0  0  0  0  0  0  0  0  0  0  0
   46.3920   33.6090   44.6100 N   0  0  0  0  0  0  0  0  0  0  0  0
   45.7670   33.5710   45.7790 C   0  0  0  0  0  0  0  0  0  0  0  0
   44.8360   34.4740   46.0840 N   0  0  0  0  0  0  0  0  0  0  0  0
   46.1180   32.5340   46.7130 N   0  0  0  0  0  0  0  0  0  0  0  0
   45.3840   32.2310   47.8870 C   0  0  0  0  0  0  0  0  0  0  0  0
   46.4690   31.8840   48.8920 C   0  0  0  0  0  0  0  0  0  0  0  0
   47.7510   31.8300   48.1220 C   0  0  0  0  0  0  0  0  0  0  0  0
   47.2590   31.6510   46.6860 C   0  0  1  0  0  0  0  0  0  0  0  0
   43.7940   36.1790   45.3900 H   0  0  0  0  0  0  0  0  0  0  0  0
   46.6530   34.5590   42.7250 H   0  0  0  0  0  0  0  0  0  0  0  0
   44.6130   31.5390   47.9710 H   0  0  0  0  0  0  0  0  0  0  0  0
   44.9730   33.2170   48.2720 H   0  0  0  0  0  0  0  0  0  0  0  0
   46.5380   32.5760   49.7380 H   0  0  0  0  0  0  0  0  0  0  0  0
   46.2680   30.8750   49.3510 H   0  0  0  0  0  0  0  0  0  0  0  0
   48.3400   30.9700   48.4560 H   0  0  0  0  0  0  0  0  0  0  0  0
   48.2790   32.8030   48.2520 H   0  0  0  0  0  0  0  0  0  0  0  0
   48.0730   32.0020   46.0230 H   0  0  0  0  0  0  0  0  0  0  0  0
   44.8240   36.5270   43.0390 N   0  0  0  0  0  0  0  0  0  0  0  0
   45.5620   36.8130   42.3330 H   0  0  0  0  0  0  0  0  0  0  0  0
   43.8900   36.9470   43.1090 H   0  0  0  0  0  0  0  0  0  0  0  0
  1  2  2  0  0  0  0
  2  3  1  0  0  0  0
  3  4  1  0  0  0  0
  3 26  1  0  0  0  0
  3  7  1  1  0  0  0
  4  9  1  0  0  0  0
  5  4  1  0  0  0  0
  5 10  1  0  0  0  0
  6  2  1  0  0  0  0
  6  5  1  0  0  0  0
  8  4  1  0  0  0  0
 11  5  1  0  0  0  0
 13 14  1  0  0  0  0
 13 12  1  0  0  0  0
 14  6  1  0  0  0  0
 15 14  2  0  0  0  0
 16 22  1  0  0  0  0
 16 15  1  0  0  0  0
 17 16  2  0  0  0  0
 18 17  1  0  0  0  0
 18 19  2  0  0  0  0
 19 21  1  0  0  0  0
 20 19  1  0  0  0  0
 21 22  2  0  0  0  0
 22 13  1  0  0  0  0
 23 24  1  0  0  0  0
 23 17  1  0  0  0  0
 25 23  1  0  0  0  0
 26 37  1  0  0  0  0
 27 38  1  0  0  0  0
 27 32  1  0  0  0  0
 28 27  2  0  0  0  0
 29 28  1  0  0  0  0
 29 30  2  0  0  0  0
 30 31  1  0  0  0  0
 31 32  2  0  0  0  0
 31 33  1  0  0  0  0
 33 34  1  0  0  0  0
 34 40  1  0  0  0  0
 34 41  1  0  0  0  0
 34 35  1  0  0  0  0
 35 43  1  0  0  0  0
 35 42  1  0  0  0  0
 36 45  1  0  0  0  0
 36 44  1  0  0  0  0
 36 35  1  0  0  0  0
 37 46  1  6  0  0  0
 37 33  1  0  0  0  0
 37 36  1  0  0  0  0
 39 29  1  0  0  0  0
 47 49  1  0  0  0  0
 47 28  1  0  0  0  0
 48 47  1  0  0  0  0
M  END
>  <minimizedAffinity>
-6.02590227

>  <minimizedRMSD>
0.71283108

$$$$
