
 OpenBabel03242518243D

 50 55  0  0  1  0  0  0  0  0999 V2000
   46.7870   30.9000   43.1730 C   0  0  0  0  0  0  0  0  0  0  0  0
   45.9170   31.7730   43.7210 C   0  0  0  0  0  0  0  0  0  0  0  0
   45.9120   31.9230   45.1050 C   0  0  0  0  0  0  0  0  0  0  0  0
   46.7770   31.1920   45.8890 C   0  0  0  0  0  0  0  0  0  0  0  0
   47.6690   30.2910   45.2960 C   0  0  0  0  0  0  0  0  0  0  0  0
   47.6770   30.1410   43.9110 C   0  0  0  0  0  0  0  0  0  0  0  0
   48.4080   29.7040   46.3190 O   0  0  0  0  0  0  0  0  0  0  0  0
   47.7120   29.9520   47.5410 C   0  0  1  0  0  0  0  0  0  0  0  0
   46.9980   31.1280   47.2670 O   0  0  0  0  0  0  0  0  0  0  0  0
   46.8380   30.7410   42.1020 H   0  0  0  0  0  0  0  0  0  0  0  0
   45.2410   32.6070   45.6220 H   0  0  0  0  0  0  0  0  0  0  0  0
   48.3600   29.4510   43.4510 H   0  0  0  0  0  0  0  0  0  0  0  0
   48.3630   29.9850   48.4190 H   0  0  0  0  0  0  0  0  0  0  0  0
   46.7030   28.8890   47.6540 N   0  0  0  0  0  0  0  0  0  0  0  0
   45.3540   29.0030   47.8280 C   0  0  0  0  0  0  0  0  0  0  0  0
   44.8600   29.9800   47.9080 H   0  0  0  0  0  0  0  0  0  0  0  0
   44.8120   27.7720   47.8780 N   0  0  0  0  0  0  0  0  0  0  0  0
   45.7880   26.8540   47.7380 C   0  0  0  0  0  0  0  0  0  0  0  0
   45.6610   25.4800   47.7330 C   0  0  0  0  0  0  0  0  0  0  0  0
   46.8130   24.7940   47.5740 N   0  0  0  0  0  0  0  0  0  0  0  0
   47.9870   25.4540   47.4350 C   0  0  0  0  0  0  0  0  0  0  0  0
   48.8750   24.8410   47.3110 H   0  0  0  0  0  0  0  0  0  0  0  0
   48.0810   26.8130   47.4440 N   0  0  0  0  0  0  0  0  0  0  0  0
   46.9670   27.5550   47.5980 C   0  0  0  0  0  0  0  0  0  0  0  0
   44.3710   24.8650   47.8870 N   0  0  0  0  0  0  0  0  0  0  0  0
   44.0410   25.0180   48.8660 H   0  0  0  0  0  0  0  0  0  0  0  0
   43.9210   24.3630   47.0720 H   0  0  0  0  0  0  0  0  0  0  0  0
   44.2750   34.5540   41.9170 C   0  0  0  0  0  0  0  0  0  0  0  0
   43.1710   33.9370   41.3600 C   0  0  0  0  0  0  0  0  0  0  0  0
   43.0060   32.5730   41.6110 C   0  0  0  0  0  0  0  0  0  0  0  0
   43.9120   31.9140   42.3730 N   0  0  0  0  0  0  0  0  0  0  0  0
   44.9870   32.5560   42.9050 C   0  0  0  0  0  0  0  0  0  0  0  0
   45.1540   33.8600   42.6730 N   0  0  0  0  0  0  0  0  0  0  0  0
   44.5520   35.6010   41.8240 H   0  0  0  0  0  0  0  0  0  0  0  0
   42.1370   32.1020   41.1670 H   0  0  0  0  0  0  0  0  0  0  0  0
   42.3070   34.7360   40.5890 N   0  0  0  0  0  0  0  0  0  0  0  0
   42.3950   34.6450   39.1660 C   0  0  0  0  0  0  0  0  0  0  0  0
   41.5000   35.5760   38.4360 C   0  0  0  0  0  0  0  0  0  0  0  0
   40.1640   35.5830   38.9410 N   0  0  0  0  0  0  0  0  0  0  0  0
   39.9940   35.4710   40.3340 C   0  0  0  0  0  0  0  0  0  0  0  0
   41.3190   35.6600   41.0700 C   0  0  0  0  0  0  0  0  0  0  0  0
   42.0790   33.5960   38.8900 H   0  0  0  0  0  0  0  0  0  0  0  0
   43.4400   34.7510   38.8640 H   0  0  0  0  0  0  0  0  0  0  0  0
   41.9020   36.5930   38.4600 H   0  0  0  0  0  0  0  0  0  0  0  0
   41.4300   35.2210   37.3690 H   0  0  0  0  0  0  0  0  0  0  0  0
   39.6880   36.4720   38.6140 H   0  0  0  0  0  0  0  0  0  0  0  0
   39.3120   36.2350   40.7810 H   0  0  0  0  0  0  0  0  0  0  0  0
   39.6050   34.4770   40.6640 H   0  0  0  0  0  0  0  0  0  0  0  0
   41.1470   35.4590   42.1470 H   0  0  0  0  0  0  0  0  0  0  0  0
   41.6910   36.6940   41.0030 H   0  0  0  0  0  0  0  0  0  0  0  0
  1  2  2  0  0  0  0
  1  6  1  0  0  0  0
  2  3  1  0  0  0  0
  3 11  1  0  0  0  0
  3  4  2  0  0  0  0
  4  9  1  0  0  0  0
  5  4  1  0  0  0  0
  5  7  1  0  0  0  0
  6  5  2  0  0  0  0
  7  8  1  0  0  0  0
  8 14  1  0  0  0  0
  8 13  1  1  0  0  0
  9  8  1  0  0  0  0
 10  1  1  0  0  0  0
 12  6  1  0  0  0  0
 14 15  1  0  0  0  0
 15 17  2  0  0  0  0
 15 16  1  0  0  0  0
 18 17  1  0  0  0  0
 19 18  1  0  0  0  0
 19 25  1  0  0  0  0
 20 19  2  0  0  0  0
 21 23  2  0  0  0  0
 21 20  1  0  0  0  0
 22 21  1  0  0  0  0
 23 24  1  0  0  0  0
 24 14  1  0  0  0  0
 24 18  2  0  0  0  0
 25 26  1  0  0  0  0
 27 25  1  0  0  0  0
 28 33  1  0  0  0  0
 29 30  1  0  0  0  0
 29 28  2  0  0  0  0
 30 31  2  0  0  0  0
 31 32  1  0  0  0  0
 32  2  1  0  0  0  0
 33 32  2  0  0  0  0
 34 28  1  0  0  0  0
 35 30  1  0  0  0  0
 36 41  1  0  0  0  0
 36 29  1  0  0  0  0
 37 36  1  0  0  0  0
 38 44  1  0  0  0  0
 38 39  1  0  0  0  0
 38 37  1  0  0  0  0
 39 40  1  0  0  0  0
 40 48  1  0  0  0  0
 40 47  1  0  0  0  0
 40 41  1  0  0  0  0
 41 49  1  0  0  0  0
 42 37  1  0  0  0  0
 43 37  1  0  0  0  0
 45 38  1  0  0  0  0
 46 39  1  0  0  0  0
 50 41  1  0  0  0  0
M  END
>  <minimizedAffinity>
-5.41071463

>  <minimizedRMSD>
2.64005041

$$$$
