
 OpenBabel03242518243D

 50 55  0  0  1  0  0  0  0  0999 V2000
   45.3100   29.4750   41.5990 C   0  0  0  0  0  0  0  0  0  0  0  0
   45.1290   30.7950   41.8070 C   0  0  0  0  0  0  0  0  0  0  0  0
   46.0410   31.4710   42.6120 C   0  0  0  0  0  0  0  0  0  0  0  0
   47.1020   30.8000   43.1800 C   0  0  0  0  0  0  0  0  0  0  0  0
   47.2680   29.4290   42.9500 C   0  0  0  0  0  0  0  0  0  0  0  0
   46.3560   28.7510   42.1440 C   0  0  0  0  0  0  0  0  0  0  0  0
   48.4070   29.0270   43.6410 O   0  0  0  0  0  0  0  0  0  0  0  0
   48.7100   30.0490   44.5910 C   0  0  1  0  0  0  0  0  0  0  0  0
   48.1520   31.1980   44.0100 O   0  0  0  0  0  0  0  0  0  0  0  0
   44.6340   28.8950   40.9830 H   0  0  0  0  0  0  0  0  0  0  0  0
   45.9640   32.5350   42.8260 H   0  0  0  0  0  0  0  0  0  0  0  0
   46.4790   27.6990   41.9640 H   0  0  0  0  0  0  0  0  0  0  0  0
   49.7720   30.1130   44.8450 H   0  0  0  0  0  0  0  0  0  0  0  0
   47.8850   29.7590   45.7730 N   0  0  0  0  0  0  0  0  0  0  0  0
   47.5370   28.5480   46.2990 C   0  0  0  0  0  0  0  0  0  0  0  0
   47.8700   27.6040   45.8490 H   0  0  0  0  0  0  0  0  0  0  0  0
   46.7700   28.7450   47.3860 N   0  0  0  0  0  0  0  0  0  0  0  0
   46.6100   30.0680   47.5800 C   0  0  0  0  0  0  0  0  0  0  0  0
   45.8960   30.6960   48.5800 C   0  0  0  0  0  0  0  0  0  0  0  0
   45.9040   32.0460   48.5350 N   0  0  0  0  0  0  0  0  0  0  0  0
   46.5800   32.6930   47.5560 C   0  0  0  0  0  0  0  0  0  0  0  0
   46.5440   33.7780   47.5810 H   0  0  0  0  0  0  0  0  0  0  0  0
   47.2760   32.0450   46.5810 N   0  0  0  0  0  0  0  0  0  0  0  0
   47.3080   30.6980   46.5710 C   0  0  0  0  0  0  0  0  0  0  0  0
   45.2090   29.9260   49.5790 N   0  0  0  0  0  0  0  0  0  0  0  0
   44.3990   29.4410   49.1320 H   0  0  0  0  0  0  0  0  0  0  0  0
   45.5540   29.9250   50.5790 H   0  0  0  0  0  0  0  0  0  0  0  0
   42.8890   33.5020   40.6520 C   0  0  0  0  0  0  0  0  0  0  0  0
   41.8430   32.8010   40.0830 C   0  0  0  0  0  0  0  0  0  0  0  0
   41.9220   31.4060   40.1020 C   0  0  0  0  0  0  0  0  0  0  0  0
   42.9960   30.8010   40.6640 N   0  0  0  0  0  0  0  0  0  0  0  0
   44.0060   31.5250   41.2160 C   0  0  0  0  0  0  0  0  0  0  0  0
   43.9410   32.8590   41.2030 N   0  0  0  0  0  0  0  0  0  0  0  0
   42.9860   34.5830   40.7220 H   0  0  0  0  0  0  0  0  0  0  0  0
   41.0950   30.8690   39.6510 H   0  0  0  0  0  0  0  0  0  0  0  0
   40.7870   33.5510   39.5330 N   0  0  0  0  0  0  0  0  0  0  0  0
   40.7490   33.7230   38.1150 C   0  0  0  0  0  0  0  0  0  0  0  0
   39.6450   34.5890   37.6330 C   0  0  0  0  0  0  0  0  0  0  0  0
   38.3820   34.2680   38.2170 N   0  0  0  0  0  0  0  0  0  0  0  0
   38.3710   33.8900   39.5740 C   0  0  0  0  0  0  0  0  0  0  0  0
   39.7120   34.1850   40.2420 C   0  0  0  0  0  0  0  0  0  0  0  0
   40.5850   32.6980   37.6710 H   0  0  0  0  0  0  0  0  0  0  0  0
   41.7280   34.0670   37.7700 H   0  0  0  0  0  0  0  0  0  0  0  0
   39.8740   35.6430   37.8180 H   0  0  0  0  0  0  0  0  0  0  0  0
   39.5310   34.4160   36.5250 H   0  0  0  0  0  0  0  0  0  0  0  0
   37.7360   35.0990   38.0940 H   0  0  0  0  0  0  0  0  0  0  0  0
   37.6190   34.4300   40.1990 H   0  0  0  0  0  0  0  0  0  0  0  0
   38.1850   32.8000   39.7380 H   0  0  0  0  0  0  0  0  0  0  0  0
   39.6820   33.7750   41.2720 H   0  0  0  0  0  0  0  0  0  0  0  0
   39.9000   35.2660   40.3440 H   0  0  0  0  0  0  0  0  0  0  0  0
  1  2  2  0  0  0  0
  1  6  1  0  0  0  0
  2  3  1  0  0  0  0
  3 11  1  0  0  0  0
  3  4  2  0  0  0  0
  4  9  1  0  0  0  0
  5  4  1  0  0  0  0
  5  7  1  0  0  0  0
  6  5  2  0  0  0  0
  7  8  1  0  0  0  0
  8 13  1  1  0  0  0
  8 14  1  0  0  0  0
  9  8  1  0  0  0  0
 10  1  1  0  0  0  0
 12  6  1  0  0  0  0
 14 15  1  0  0  0  0
 14 24  1  0  0  0  0
 15 17  2  0  0  0  0
 16 15  1  0  0  0  0
 17 18  1  0  0  0  0
 18 19  1  0  0  0  0
 19 25  1  0  0  0  0
 20 19  2  0  0  0  0
 21 22  1  0  0  0  0
 21 20  1  0  0  0  0
 23 21  2  0  0  0  0
 24 23  1  0  0  0  0
 24 18  2  0  0  0  0
 25 27  1  0  0  0  0
 26 25  1  0  0  0  0
 28 34  1  0  0  0  0
 28 33  1  0  0  0  0
 29 30  1  0  0  0  0
 29 28  2  0  0  0  0
 30 31  2  0  0  0  0
 31 32  1  0  0  0  0
 32  2  1  0  0  0  0
 33 32  2  0  0  0  0
 35 30  1  0  0  0  0
 36 29  1  0  0  0  0
 36 41  1  0  0  0  0
 37 36  1  0  0  0  0
 38 44  1  0  0  0  0
 38 37  1  0  0  0  0
 38 39  1  0  0  0  0
 39 40  1  0  0  0  0
 40 48  1  0  0  0  0
 40 47  1  0  0  0  0
 40 41  1  0  0  0  0
 41 50  1  0  0  0  0
 41 49  1  0  0  0  0
 42 37  1  0  0  0  0
 43 37  1  0  0  0  0
 45 38  1  0  0  0  0
 46 39  1  0  0  0  0
M  END
>  <minimizedAffinity>
-4.76952887

>  <minimizedRMSD>
3.32030773

$$$$
