
 OpenBabel03252501373D

 40 43  0  0  0  0  0  0  0  0999 V2000
   42.7610   33.1200   38.3310 Cl  0  0  0  0  0  0  0  0  0  0  0  0
   41.7180   33.4900   39.6850 C   0  0  0  0  0  0  0  0  0  0  0  0
   42.0110   34.5000   40.5930 C   0  0  0  0  0  0  0  0  0  0  0  0
   41.1510   34.7400   41.6330 C   0  0  0  0  0  0  0  0  0  0  0  0
   39.9870   34.0290   41.8460 C   0  0  0  0  0  0  0  0  0  0  0  0
   39.6720   33.0150   40.9550 C   0  0  0  0  0  0  0  0  0  0  0  0
   38.2170   32.0540   41.1370 Cl  0  0  0  0  0  0  0  0  0  0  0  0
   40.5410   32.7860   39.9180 C   0  0  0  0  0  0  0  0  0  0  0  0
   41.4310   35.5460   42.3140 H   0  0  0  0  0  0  0  0  0  0  0  0
   39.3150   34.2220   42.6650 H   0  0  0  0  0  0  0  0  0  0  0  0
   40.2650   31.7430   38.9590 N   0  0  0  0  0  0  0  0  0  0  0  0
   40.7320   30.4790   38.8020 C   0  0  0  0  0  0  0  0  0  0  0  0
   41.4640   30.0830   39.4890 H   0  0  0  0  0  0  0  0  0  0  0  0
   40.1260   29.9420   37.7280 N   0  0  0  0  0  0  0  0  0  0  0  0
   39.2820   30.8510   37.2010 C   0  0  0  0  0  0  0  0  0  0  0  0
   38.4190   30.8610   36.1240 C   0  0  0  0  0  0  0  0  0  0  0  0
   37.6710   31.9550   35.8280 N   0  0  0  0  0  0  0  0  0  0  0  0
   37.7600   33.0490   36.5830 C   0  0  0  0  0  0  0  0  0  0  0  0
   37.2530   33.9980   36.5040 H   0  0  0  0  0  0  0  0  0  0  0  0
   38.5850   33.0680   37.6280 N   0  0  0  0  0  0  0  0  0  0  0  0
   39.3660   32.0060   37.9850 C   0  0  0  0  0  0  0  0  0  0  0  0
   38.3020   29.7060   35.2980 N   0  0  0  0  0  0  0  0  0  0  0  0
   37.2810   29.4260   35.2100 H   0  0  0  0  0  0  0  0  0  0  0  0
   39.1650   29.2790   34.8940 H   0  0  0  0  0  0  0  0  0  0  0  0
   43.1800   35.2080   40.3710 O   0  0  0  0  0  0  0  0  0  0  0  0
   44.3470   34.7920   41.0260 C   0  0  0  0  0  0  0  0  0  0  0  0
   45.0800   33.7960   40.6920 O   0  0  0  0  0  0  0  0  0  0  0  0
   44.8450   35.4750   42.1810 N   0  0  0  0  0  0  0  0  0  0  0  0
   44.3500   36.2900   42.5600 H   0  0  0  0  0  0  0  0  0  0  0  0
   46.0580   34.8180   42.6200 C   0  0  0  0  0  0  0  0  0  0  0  0
   46.0740   33.7650   43.5180 C   0  0  0  0  0  0  0  0  0  0  0  0
   47.3290   33.2530   43.8300 C   0  0  0  0  0  0  0  0  0  0  0  0
   48.4020   33.8050   43.2530 N   0  0  0  0  0  0  0  0  0  0  0  0
   48.3410   34.8300   42.3850 C   0  0  0  0  0  0  0  0  0  0  0  0
   47.1330   35.3580   42.0540 N   0  0  0  0  0  0  0  0  0  0  0  0
   47.3340   32.4320   44.5290 H   0  0  0  0  0  0  0  0  0  0  0  0
   49.2630   35.2120   41.9680 H   0  0  0  0  0  0  0  0  0  0  0  0
   44.8380   33.3080   44.0300 N   0  0  0  0  0  0  0  0  0  0  0  0
   44.0000   33.3320   43.4190 H   0  0  0  0  0  0  0  0  0  0  0  0
   44.6760   32.9300   45.0080 H   0  0  0  0  0  0  0  0  0  0  0  0
  1  2  1  0  0  0  0
  2  8  2  0  0  0  0
  2  3  1  0  0  0  0
  3  4  2  0  0  0  0
  4  5  1  0  0  0  0
  4  9  1  0  0  0  0
  5 10  1  0  0  0  0
  6  7  1  0  0  0  0
  6  5  2  0  0  0  0
  8  6  1  0  0  0  0
 11  8  1  0  0  0  0
 12 11  1  0  0  0  0
 12 13  1  0  0  0  0
 14 12  2  0  0  0  0
 15 14  1  0  0  0  0
 15 21  1  0  0  0  0
 16 15  2  0  0  0  0
 17 16  1  0  0  0  0
 17 18  2  0  0  0  0
 18 20  1  0  0  0  0
 19 18  1  0  0  0  0
 20 21  2  0  0  0  0
 21 11  1  0  0  0  0
 22 16  1  0  0  0  0
 23 22  1  0  0  0  0
 24 22  1  0  0  0  0
 25  3  1  0  0  0  0
 25 26  1  0  0  0  0
 26 28  1  0  0  0  0
 27 26  2  0  0  0  0
 28 29  1  0  0  0  0
 28 30  1  0  0  0  0
 30 31  1  0  0  0  0
 31 32  2  0  0  0  0
 31 38  1  0  0  0  0
 32 36  1  0  0  0  0
 33 32  1  0  0  0  0
 34 33  2  0  0  0  0
 35 34  1  0  0  0  0
 35 30  2  0  0  0  0
 37 34  1  0  0  0  0
 38 40  1  0  0  0  0
 39 38  1  0  0  0  0
M  END
>  <minimizedAffinity>
-5.44712353

>  <minimizedRMSD>
1.80419958

$$$$
