
     RDKit          3D

 24 26  0  0  0  0  0  0  0  0999 V2000
   45.0019   35.4855   44.1862 C   0  0  0  0  0  0  0  0  0  0  0  0
   45.9796   34.9259   43.3481 C   0  0  0  0  0  0  0  0  0  0  0  0
   46.7091   33.8357   43.8413 C   0  0  0  0  0  0  0  0  0  0  0  0
   46.4392   33.3793   45.0886 N   0  0  0  0  0  0  0  0  0  0  0  0
   45.4973   33.9412   45.8583 C   0  0  0  0  0  0  0  0  0  0  0  0
   44.7862   34.9846   45.4094 N   0  0  0  0  0  0  0  0  0  0  0  0
   44.2847   36.5509   43.7120 O   0  0  0  0  0  0  0  0  0  0  0  0
   46.1543   35.3275   42.3641 H   0  0  0  0  0  0  0  0  0  0  0  0
   45.2890   33.5728   46.8476 H   0  0  0  0  0  0  0  0  0  0  0  0
   43.6325   36.3351   42.9416 H   0  0  0  0  0  0  0  0  0  0  0  0
   47.6880   33.3028   42.9564 N   0  0  0  0  0  0  0  0  0  0  0  0
   49.0454   33.2990   42.9931 C   0  0  0  0  0  0  0  0  0  0  0  0
   49.5973   33.7571   43.7980 H   0  0  0  0  0  0  0  0  0  0  0  0
   49.4846   32.6509   41.8929 N   0  0  0  0  0  0  0  0  0  0  0  0
   48.4444   32.2393   41.1523 C   0  0  0  0  0  0  0  0  0  0  0  0
   48.2786   31.5617   39.9822 C   0  0  0  0  0  0  0  0  0  0  0  0
   49.4190   31.1162   39.2528 N   0  0  0  0  0  0  0  0  0  0  0  0
   50.0148   30.2813   39.2746 H   0  0  0  0  0  0  0  0  0  0  0  0
   47.0514   31.2846   39.4670 N   0  0  0  0  0  0  0  0  0  0  0  0
   45.9631   31.6848   40.1203 C   0  0  0  0  0  0  0  0  0  0  0  0
   44.9173   31.5691   39.8882 H   0  0  0  0  0  0  0  0  0  0  0  0
   46.0973   32.3481   41.2649 N   0  0  0  0  0  0  0  0  0  0  0  0
   47.3034   32.6502   41.8225 C   0  0  0  0  0  0  0  0  0  0  0  0
   49.5595   31.9127   38.5931 H   0  0  0  0  0  0  0  0  0  0  0  0
  1  6  2  0
  2  3  2  0
  2  1  1  0
  3  4  1  0
  4  5  2  0
  6  5  1  0
  7  1  1  0
  2  8  1  0
  5  9  1  0
  7 10  1  0
 11 12  1  0
 12 13  1  0
 12 14  2  0
 14 15  1  0
 15 16  2  0
 16 17  1  0
 17 18  1  0
 16 19  1  0
 19 20  2  0
 20 21  1  0
 20 22  1  0
 22 23  2  0
 23 11  1  0
 23 15  1  0
 17 24  1  0
  3 11  1  0
M  ISO  6   8  14   9  14  10   3  13  15  18   5  21  16
M  END
>  <DihAtoms>  (1) 
1,2,10,11

>  <DihDeg>  (1) 
126.29452987182759

$$$$
