
 OpenBabel03242523323D

 42 46  0  0  0  0  0  0  0  0999 V2000
   44.4200   36.1730   44.5060 C   0  0  0  0  0  0  0  0  0  0  0  0
   45.2180   36.0670   43.3490 C   0  0  0  0  0  0  0  0  0  0  0  0
   46.1290   35.0110   43.2370 C   0  0  0  0  0  0  0  0  0  0  0  0
   46.2290   34.0960   44.2610 N   0  0  0  0  0  0  0  0  0  0  0  0
   45.4370   34.2440   45.3550 C   0  0  0  0  0  0  0  0  0  0  0  0
   44.5560   35.2630   45.4680 N   0  0  0  0  0  0  0  0  0  0  0  0
   43.7130   36.9860   44.6020 H   0  0  0  0  0  0  0  0  0  0  0  0
   45.1480   36.7750   42.5440 H   0  0  0  0  0  0  0  0  0  0  0  0
   46.9680   34.8380   42.1010 N   0  0  0  0  0  0  0  0  0  0  0  0
   48.2600   35.2630   42.0200 C   0  0  0  0  0  0  0  0  0  0  0  0
   48.8120   35.7900   42.8130 H   0  0  0  0  0  0  0  0  0  0  0  0
   48.7380   34.9230   40.7910 N   0  0  0  0  0  0  0  0  0  0  0  0
   47.7480   34.2870   40.1100 C   0  0  0  0  0  0  0  0  0  0  0  0
   47.6850   33.7330   38.8310 C   0  0  0  0  0  0  0  0  0  0  0  0
   46.5590   33.1630   38.4210 N   0  0  0  0  0  0  0  0  0  0  0  0
   45.4720   33.1090   39.2230 C   0  0  0  0  0  0  0  0  0  0  0  0
   44.5280   32.6410   38.9060 H   0  0  0  0  0  0  0  0  0  0  0  0
   45.5350   33.6480   40.4660 N   0  0  0  0  0  0  0  0  0  0  0  0
   46.6470   34.2400   40.9380 C   0  0  0  0  0  0  0  0  0  0  0  0
   48.8510   33.8080   38.0130 N   0  0  0  0  0  0  0  0  0  0  0  0
   49.0630   32.8290   37.6580 H   0  0  0  0  0  0  0  0  0  0  0  0
   49.4960   34.5740   37.7100 H   0  0  0  0  0  0  0  0  0  0  0  0
   45.6030   33.2140   46.4140 C   0  0  0  0  0  0  0  0  0  0  0  0
   45.9250   33.7560   47.2990 H   0  0  0  0  0  0  0  0  0  0  0  0
   44.6000   32.7620   46.5950 H   0  0  0  0  0  0  0  0  0  0  0  0
   46.7390   31.9720   45.7850 S   0  0  0  0  0  0  0  0  0  0  0  0
   47.6830   31.2410   47.1080 C   0  0  0  0  0  0  0  0  0  0  0  0
   47.9090   32.0060   48.2310 C   0  0  0  0  0  0  0  0  0  0  0  0
   48.6320   31.4470   49.2430 C   0  0  0  0  0  0  0  0  0  0  0  0
   49.1410   30.1430   49.1700 C   0  0  0  0  0  0  0  0  0  0  0  0
   49.8510   29.6510   50.2100 N   0  0  0  0  0  0  0  0  0  0  0  0
   50.3510   28.3980   50.1640 C   0  0  0  0  0  0  0  0  0  0  0  0
   50.1280   27.6300   49.0430 C   0  0  0  0  0  0  0  0  0  0  0  0
   49.4060   28.1420   47.9940 C   0  0  0  0  0  0  0  0  0  0  0  0
   48.8780   29.4350   48.0160 C   0  0  0  0  0  0  0  0  0  0  0  0
   48.1540   29.9610   46.9770 C   0  0  0  0  0  0  0  0  0  0  0  0
   47.5710   33.0180   48.4070 H   0  0  0  0  0  0  0  0  0  0  0  0
   48.8500   31.9950   50.1640 H   0  0  0  0  0  0  0  0  0  0  0  0
   50.9250   27.9640   50.9750 H   0  0  0  0  0  0  0  0  0  0  0  0
   50.4880   26.6100   48.9090 H   0  0  0  0  0  0  0  0  0  0  0  0
   49.2180   27.5570   47.1030 H   0  0  0  0  0  0  0  0  0  0  0  0
   47.9710   29.3700   46.0910 H   0  0  0  0  0  0  0  0  0  0  0  0
  1  7  1  0  0  0  0
  1  6  1  0  0  0  0
  2  1  2  0  0  0  0
  3  2  1  0  0  0  0
  3  4  2  0  0  0  0
  4  5  1  0  0  0  0
  5  6  2  0  0  0  0
  5 23  1  0  0  0  0
  8  2  1  0  0  0  0
  9  3  1  0  0  0  0
 10  9  1  0  0  0  0
 10 11  1  0  0  0  0
 12 10  2  0  0  0  0
 13 12  1  0  0  0  0
 13 19  1  0  0  0  0
 14 13  2  0  0  0  0
 15 14  1  0  0  0  0
 15 16  2  0  0  0  0
 16 18  1  0  0  0  0
 17 16  1  0  0  0  0
 18 19  2  0  0  0  0
 19  9  1  0  0  0  0
 20 14  1  0  0  0  0
 21 20  1  0  0  0  0
 22 20  1  0  0  0  0
 23 25  1  0  0  0  0
 23 24  1  0  0  0  0
 26 23  1  0  0  0  0
 26 27  1  0  0  0  0
 27 28  1  0  0  0  0
 28 37  1  0  0  0  0
 28 29  2  0  0  0  0
 29 38  1  0  0  0  0
 30 29  1  0  0  0  0
 30 31  1  0  0  0  0
 32 31  2  0  0  0  0
 32 39  1  0  0  0  0
 33 32  1  0  0  0  0
 34 35  1  0  0  0  0
 34 33  2  0  0  0  0
 35 30  2  0  0  0  0
 36 27  2  0  0  0  0
 36 35  1  0  0  0  0
 40 33  1  0  0  0  0
 41 34  1  0  0  0  0
 42 36  1  0  0  0  0
M  END
>  <minimizedAffinity>
-6.820961

>  <minimizedRMSD>
0.468300343

$$$$
