
 OpenBabel03242512203D

 46 50  0  0  0  0  0  0  0  0999 V2000
   48.3910   33.1210   41.3840 C   0  0  0  0  0  0  0  0  0  0  0  0
   47.9860   34.3270   41.8940 C   0  0  0  0  0  0  0  0  0  0  0  0
   48.8990   35.1280   42.5150 C   0  0  0  0  0  0  0  0  0  0  0  0
   50.2260   34.7160   42.6230 C   0  0  0  0  0  0  0  0  0  0  0  0
   50.5990   33.5000   42.1000 C   0  0  0  0  0  0  0  0  0  0  0  0
   49.6660   32.6710   41.4610 C   0  0  0  0  0  0  0  0  0  0  0  0
   48.5800   36.0820   42.9180 H   0  0  0  0  0  0  0  0  0  0  0  0
   50.9510   35.3550   43.1180 H   0  0  0  0  0  0  0  0  0  0  0  0
   51.6390   33.2010   42.1980 H   0  0  0  0  0  0  0  0  0  0  0  0
   46.5740   34.6850   41.7390 C   0  0  0  0  0  0  0  0  0  0  0  0
   46.4580   35.6360   41.1850 H   0  0  0  0  0  0  0  0  0  0  0  0
   45.9850   33.9360   41.2290 H   0  0  0  0  0  0  0  0  0  0  0  0
   45.9120   34.8470   43.0940 C   0  0  0  0  0  0  0  0  0  0  0  0
   46.0760   33.8190   44.0200 C   0  0  0  0  0  0  0  0  0  0  0  0
   45.4650   33.9950   45.2450 C   0  0  0  0  0  0  0  0  0  0  0  0
   44.7610   35.1190   45.4730 N   0  0  0  0  0  0  0  0  0  0  0  0
   44.6210   36.1000   44.5450 C   0  0  0  0  0  0  0  0  0  0  0  0
   45.2020   35.9480   43.3650 N   0  0  0  0  0  0  0  0  0  0  0  0
   46.6490   32.9260   43.8080 H   0  0  0  0  0  0  0  0  0  0  0  0
   45.5640   33.2180   46.0040 H   0  0  0  0  0  0  0  0  0  0  0  0
   44.0430   36.9820   44.7830 H   0  0  0  0  0  0  0  0  0  0  0  0
   47.5280   32.2300   40.7300 O   0  0  0  0  0  0  0  0  0  0  0  0
   47.0720   32.6250   39.9090 H   0  0  0  0  0  0  0  0  0  0  0  0
   50.1580   31.4590   40.9690 O   0  0  0  0  0  0  0  0  0  0  0  0
   50.4390   31.4580   39.6110 C   0  0  0  0  0  0  0  0  0  0  0  0
   51.7240   31.2180   39.1900 C   0  0  0  0  0  0  0  0  0  0  0  0
   52.0910   31.2000   37.8450 C   0  0  0  0  0  0  0  0  0  0  0  0
   51.1460   31.4250   36.9210 N   0  0  0  0  0  0  0  0  0  0  0  0
   49.8860   31.6600   37.3250 C   0  0  0  0  0  0  0  0  0  0  0  0
   49.5390   31.6770   38.6260 N   0  0  0  0  0  0  0  0  0  0  0  0
   52.5360   31.0290   39.8810 H   0  0  0  0  0  0  0  0  0  0  0  0
   53.0980   31.0120   37.5240 H   0  0  0  0  0  0  0  0  0  0  0  0
   48.8980   31.8970   36.3290 N   0  0  0  0  0  0  0  0  0  0  0  0
   49.1740   32.0000   35.0160 C   0  0  0  0  0  0  0  0  0  0  0  0
   50.1530   31.9180   34.5640 H   0  0  0  0  0  0  0  0  0  0  0  0
   48.0210   32.2260   34.3230 N   0  0  0  0  0  0  0  0  0  0  0  0
   47.0240   32.2620   35.2330 C   0  0  0  0  0  0  0  0  0  0  0  0
   45.6560   32.4460   35.2260 C   0  0  0  0  0  0  0  0  0  0  0  0
   44.9190   32.4230   36.3550 N   0  0  0  0  0  0  0  0  0  0  0  0
   45.4890   32.2200   37.5560 C   0  0  0  0  0  0  0  0  0  0  0  0
   45.0080   32.1820   38.5200 H   0  0  0  0  0  0  0  0  0  0  0  0
   46.8030   32.0420   37.5890 N   0  0  0  0  0  0  0  0  0  0  0  0
   47.5650   32.0580   36.4840 C   0  0  0  0  0  0  0  0  0  0  0  0
   45.0140   32.6640   33.9710 N   0  0  0  0  0  0  0  0  0  0  0  0
   45.2170   33.6300   33.6060 H   0  0  0  0  0  0  0  0  0  0  0  0
   44.4030   32.2590   33.2270 H   0  0  0  0  0  0  0  0  0  0  0  0
  1  6  2  0  0  0  0
  1  2  1  0  0  0  0
  2  3  2  0  0  0  0
  3  4  1  0  0  0  0
  3  7  1  0  0  0  0
  4  8  1  0  0  0  0
  5  9  1  0  0  0  0
  5  4  2  0  0  0  0
  6  5  1  0  0  0  0
 10  2  1  0  0  0  0
 10 13  1  0  0  0  0
 11 10  1  0  0  0  0
 12 10  1  0  0  0  0
 13 18  2  0  0  0  0
 13 14  1  0  0  0  0
 14 15  2  0  0  0  0
 15 16  1  0  0  0  0
 15 20  1  0  0  0  0
 17 21  1  0  0  0  0
 17 16  2  0  0  0  0
 18 17  1  0  0  0  0
 19 14  1  0  0  0  0
 22  1  1  0  0  0  0
 23 22  1  0  0  0  0
 24  6  1  0  0  0  0
 25 24  1  0  0  0  0
 26 25  1  0  0  0  0
 26 31  1  0  0  0  0
 27 26  2  0  0  0  0
 28 29  2  0  0  0  0
 28 27  1  0  0  0  0
 29 30  1  0  0  0  0
 30 25  2  0  0  0  0
 32 27  1  0  0  0  0
 33 43  1  0  0  0  0
 33 29  1  0  0  0  0
 34 33  1  0  0  0  0
 35 34  1  0  0  0  0
 36 34  2  0  0  0  0
 36 37  1  0  0  0  0
 37 43  1  0  0  0  0
 38 37  2  0  0  0  0
 38 39  1  0  0  0  0
 39 40  2  0  0  0  0
 40 42  1  0  0  0  0
 40 41  1  0  0  0  0
 43 42  2  0  0  0  0
 44 38  1  0  0  0  0
 45 44  1  0  0  0  0
 46 44  1  0  0  0  0
M  END
>  <minimizedAffinity>
-7.63451052

>  <minimizedRMSD>
1.63435435

$$$$
