
 OpenBabel03252509063D

 53 56  0  0  1  0  0  0  0  0999 V2000
   37.3210   28.2500   38.5130 N   0  0  0  0  0  0  0  0  0  0  0  0
   36.7180   27.1860   37.7960 C   0  0  0  0  0  0  0  0  0  0  0  0
   35.2190   27.1090   37.9460 C   0  0  0  0  0  0  0  0  0  0  0  0
   34.5370   28.4590   38.0700 C   0  0  0  0  0  0  0  0  0  0  0  0
   35.5370   29.5920   37.9060 C   0  0  0  0  0  0  0  0  0  0  0  0
   36.5970   29.2900   39.0420 C   0  0  2  0  0  0  0  0  0  0  0  0
   36.9540   27.3710   36.7070 H   0  0  0  0  0  0  0  0  0  0  0  0
   37.1110   26.1830   38.0100 H   0  0  0  0  0  0  0  0  0  0  0  0
   34.8190   26.6460   37.0030 H   0  0  0  0  0  0  0  0  0  0  0  0
   34.9290   26.4060   38.7510 H   0  0  0  0  0  0  0  0  0  0  0  0
   34.1490   28.5180   39.1110 H   0  0  0  0  0  0  0  0  0  0  0  0
   33.6760   28.5620   37.3840 H   0  0  0  0  0  0  0  0  0  0  0  0
   36.0400   29.5180   36.9410 H   0  0  0  0  0  0  0  0  0  0  0  0
   35.0420   30.5370   38.1310 H   0  0  0  0  0  0  0  0  0  0  0  0
   36.0190   29.1050   39.9700 H   0  0  0  0  0  0  0  0  0  0  0  0
   38.5940   27.9190   39.1050 C   0  0  0  0  0  0  0  0  0  0  0  0
   38.8760   28.7930   39.7540 H   0  0  0  0  0  0  0  0  0  0  0  0
   39.3400   27.8820   38.2830 H   0  0  0  0  0  0  0  0  0  0  0  0
   38.4350   26.6540   39.8660 C   0  0  0  0  0  0  0  0  0  0  0  0
   37.5780   26.0780   39.4880 H   0  0  0  0  0  0  0  0  0  0  0  0
   39.3610   26.0130   39.8080 H   0  0  0  0  0  0  0  0  0  0  0  0
   36.8300   27.3120   43.1920 C   0  0  0  0  0  0  0  0  0  0  0  0
   37.0110   27.0300   41.8240 C   0  0  0  0  0  0  0  0  0  0  0  0
   38.2700   26.9500   41.3080 C   0  0  0  0  0  0  0  0  0  0  0  0
   39.2880   27.1470   42.1420 N   0  0  0  0  0  0  0  0  0  0  0  0
   39.1360   27.4150   43.4460 C   0  0  0  0  0  0  0  0  0  0  0  0
   37.9080   27.5020   43.9880 N   0  0  0  0  0  0  0  0  0  0  0  0
   35.8290   27.3730   43.5920 H   0  0  0  0  0  0  0  0  0  0  0  0
   36.0960   26.8900   41.2490 H   0  0  0  0  0  0  0  0  0  0  0  0
   40.0860   27.5410   43.9430 H   0  0  0  0  0  0  0  0  0  0  0  0
   37.2890   30.4870   39.0680 O   0  0  0  0  0  0  0  0  0  0  0  0
   38.1330   30.3500   41.5870 O   0  0  0  0  0  0  0  0  0  0  0  0
   37.3220   31.1840   40.6000 P   0  0  2  0  0  0  0  0  0  0  0  0
   35.7180   31.0910   41.1860 O   0  0  0  0  0  0  0  0  0  0  0  0
   35.2040   31.8770   40.8650 H   0  0  0  0  0  0  0  0  0  0  0  0
   37.7780   32.7810   40.5860 O   0  0  0  0  0  0  0  0  0  0  0  0
   39.0200   32.9130   41.1860 C   0  0  0  0  0  0  0  0  0  0  0  0
   39.3900   31.9980   41.6540 H   0  0  0  0  0  0  0  0  0  0  0  0
   38.9430   33.6950   41.9770 H   0  0  0  0  0  0  0  0  0  0  0  0
   39.9340   33.4370   40.1810 N   0  0  0  0  0  0  0  0  0  0  0  0
   40.2880   34.7480   40.2120 C   0  0  0  0  0  0  0  0  0  0  0  0
   39.9740   35.5230   40.9230 H   0  0  0  0  0  0  0  0  0  0  0  0
   41.1400   35.0120   39.1900 N   0  0  0  0  0  0  0  0  0  0  0  0
   41.3230   33.8490   38.5050 C   0  0  0  0  0  0  0  0  0  0  0  0
   42.0410   33.4280   37.3970 C   0  0  0  0  0  0  0  0  0  0  0  0
   41.9600   32.1420   37.0130 N   0  0  0  0  0  0  0  0  0  0  0  0
   41.2150   31.2410   37.6520 C   0  0  0  0  0  0  0  0  0  0  0  0
   41.2560   30.2590   37.2240 H   0  0  0  0  0  0  0  0  0  0  0  0
   40.5030   31.5980   38.7280 N   0  0  0  0  0  0  0  0  0  0  0  0
   40.5580   32.8700   39.1420 C   0  0  0  0  0  0  0  0  0  0  0  0
   42.8250   34.4060   36.7360 N   0  0  0  0  0  0  0  0  0  0  0  0
   43.7830   34.8060   36.9240 H   0  0  0  0  0  0  0  0  0  0  0  0
   42.7640   35.0330   35.9120 H   0  0  0  0  0  0  0  0  0  0  0  0
  1  6  1  0  0  0  0
  1 16  1  0  0  0  0
  2  3  1  0  0  0  0
  2  8  1  0  0  0  0
  2  1  1  0  0  0  0
  3  4  1  0  0  0  0
  3 10  1  0  0  0  0
  4 11  1  0  0  0  0
  5  4  1  0  0  0  0
  5 14  1  0  0  0  0
  5  6  1  0  0  0  0
  6 31  1  0  0  0  0
  6 15  1  1  0  0  0
  7  2  1  0  0  0  0
  9  3  1  0  0  0  0
 12  4  1  0  0  0  0
 13  5  1  0  0  0  0
 16 17  1  0  0  0  0
 16 19  1  0  0  0  0
 18 16  1  0  0  0  0
 19 24  1  0  0  0  0
 20 19  1  0  0  0  0
 21 19  1  0  0  0  0
 22 28  1  0  0  0  0
 22 27  1  0  0  0  0
 23 22  2  0  0  0  0
 24 23  1  0  0  0  0
 24 25  2  0  0  0  0
 25 26  1  0  0  0  0
 26 30  1  0  0  0  0
 26 27  2  0  0  0  0
 29 23  1  0  0  0  0
 31 33  1  0  0  0  0
 33 34  1  0  0  0  0
 33 32  2  1  0  0  0
 35 34  1  0  0  0  0
 36 33  1  0  0  0  0
 36 37  1  0  0  0  0
 37 38  1  0  0  0  0
 37 39  1  0  0  0  0
 40 41  1  0  0  0  0
 40 37  1  0  0  0  0
 41 42  1  0  0  0  0
 43 41  2  0  0  0  0
 44 50  1  0  0  0  0
 44 43  1  0  0  0  0
 45 44  2  0  0  0  0
 46 45  1  0  0  0  0
 46 47  2  0  0  0  0
 47 49  1  0  0  0  0
 48 47  1  0  0  0  0
 49 50  2  0  0  0  0
 50 40  1  0  0  0  0
 51 52  1  0  0  0  0
 51 45  1  0  0  0  0
 53 51  1  0  0  0  0
M  END
>  <minimizedAffinity>
-6.66128349

$$$$

 OpenBabel03252509063D

 53 56  0  0  1  0  0  0  0  0999 V2000
   37.6080   25.2080   41.0700 N   0  0  0  0  0  0  0  0  0  0  0  0
   37.3670   24.0870   40.2370 C   0  0  0  0  0  0  0  0  0  0  0  0
   36.2500   24.2830   39.2420 C   0  0  0  0  0  0  0  0  0  0  0  0
   36.1350   25.7000   38.7080 C   0  0  0  0  0  0  0  0  0  0  0  0
   37.2610   26.5740   39.2350 C   0  0  0  0  0  0  0  0  0  0  0  0
   37.0920   26.4530   40.8050 C   0  0  2  0  0  0  0  0  0  0  0  0
   38.3230   23.9150   39.6620 H   0  0  0  0  0  0  0  0  0  0  0  0
   37.1670   23.1400   40.7560 H   0  0  0  0  0  0  0  0  0  0  0  0
   36.4840   23.6360   38.3540 H   0  0  0  0  0  0  0  0  0  0  0  0
   35.2890   23.8930   39.6320 H   0  0  0  0  0  0  0  0  0  0  0  0
   35.1860   26.1110   39.1180 H   0  0  0  0  0  0  0  0  0  0  0  0
   36.0660   25.7300   37.6050 H   0  0  0  0  0  0  0  0  0  0  0  0
   38.2300   26.1520   38.9620 H   0  0  0  0  0  0  0  0  0  0  0  0
   37.0760   27.6070   38.9410 H   0  0  0  0  0  0  0  0  0  0  0  0
   36.0190   26.6310   41.0190 H   0  0  0  0  0  0  0  0  0  0  0  0
   37.9420   24.8730   42.4330 C   0  0  0  0  0  0  0  0  0  0  0  0
   37.0880   24.2540   42.8230 H   0  0  0  0  0  0  0  0  0  0  0  0
   37.9380   25.8190   43.0150 H   0  0  0  0  0  0  0  0  0  0  0  0
   39.2360   24.1450   42.4270 C   0  0  0  0  0  0  0  0  0  0  0  0
   39.1650   23.2200   43.0160 H   0  0  0  0  0  0  0  0  0  0  0  0
   39.5650   23.8880   41.3790 H   0  0  0  0  0  0  0  0  0  0  0  0
   40.9680   26.9290   44.2500 C   0  0  0  0  0  0  0  0  0  0  0  0
   39.9660   26.0830   43.7370 C   0  0  0  0  0  0  0  0  0  0  0  0
   40.3080   25.0200   42.9550 C   0  0  0  0  0  0  0  0  0  0  0  0
   41.6030   24.8320   42.7090 N   0  0  0  0  0  0  0  0  0  0  0  0
   42.5700   25.6260   43.1880 C   0  0  0  0  0  0  0  0  0  0  0  0
   42.2680   26.6830   43.9630 N   0  0  0  0  0  0  0  0  0  0  0  0
   40.6870   27.7680   44.8700 H   0  0  0  0  0  0  0  0  0  0  0  0
   38.9450   26.3460   44.0120 H   0  0  0  0  0  0  0  0  0  0  0  0
   43.5490   25.3000   42.8720 H   0  0  0  0  0  0  0  0  0  0  0  0
   37.9050   27.4880   41.2280 O   0  0  0  0  0  0  0  0  0  0  0  0
   37.9840   29.5620   42.8920 O   0  0  0  0  0  0  0  0  0  0  0  0
   37.0570   28.6790   42.0620 P   0  0  2  0  0  0  0  0  0  0  0  0
   36.1120   27.8500   43.2220 O   0  0  0  0  0  0  0  0  0  0  0  0
   35.2570   27.5640   42.8070 H   0  0  0  0  0  0  0  0  0  0  0  0
   36.0350   29.5590   41.0930 O   0  0  0  0  0  0  0  0  0  0  0  0
   36.3670   30.9020   41.1680 C   0  0  0  0  0  0  0  0  0  0  0  0
   36.8340   31.1950   42.1110 H   0  0  0  0  0  0  0  0  0  0  0  0
   35.4330   31.4990   41.0480 H   0  0  0  0  0  0  0  0  0  0  0  0
   37.1980   31.2080   40.0120 N   0  0  0  0  0  0  0  0  0  0  0  0
   36.7180   30.9850   38.7610 C   0  0  0  0  0  0  0  0  0  0  0  0
   35.7390   30.5840   38.4670 H   0  0  0  0  0  0  0  0  0  0  0  0
   37.6550   31.3400   37.8460 N   0  0  0  0  0  0  0  0  0  0  0  0
   38.7400   31.7930   38.5340 C   0  0  0  0  0  0  0  0  0  0  0  0
   39.9970   32.2910   38.2270 C   0  0  0  0  0  0  0  0  0  0  0  0
   40.8230   32.6460   39.2280 N   0  0  0  0  0  0  0  0  0  0  0  0
   40.4880   32.5430   40.5130 C   0  0  0  0  0  0  0  0  0  0  0  0
   41.2530   32.8670   41.1900 H   0  0  0  0  0  0  0  0  0  0  0  0
   39.2860   32.0680   40.8600 N   0  0  0  0  0  0  0  0  0  0  0  0
   38.4350   31.7030   39.8930 C   0  0  0  0  0  0  0  0  0  0  0  0
   40.3260   32.3900   36.8530 N   0  0  0  0  0  0  0  0  0  0  0  0
   40.1100   33.1090   36.1120 H   0  0  0  0  0  0  0  0  0  0  0  0
   40.8450   31.8550   36.1310 H   0  0  0  0  0  0  0  0  0  0  0  0
  1 16  1  0  0  0  0
  2  8  1  0  0  0  0
  2  1  1  0  0  0  0
  3 10  1  0  0  0  0
  3  2  1  0  0  0  0
  4 11  1  0  0  0  0
  4  5  1  0  0  0  0
  4  3  1  0  0  0  0
  5  6  1  0  0  0  0
  6 15  1  1  0  0  0
  6  1  1  0  0  0  0
  6 31  1  0  0  0  0
  7  2  1  0  0  0  0
  9  3  1  0  0  0  0
 12  4  1  0  0  0  0
 13  5  1  0  0  0  0
 14  5  1  0  0  0  0
 16 17  1  0  0  0  0
 16 18  1  0  0  0  0
 19 16  1  0  0  0  0
 19 24  1  0  0  0  0
 19 20  1  0  0  0  0
 21 19  1  0  0  0  0
 22 28  1  0  0  0  0
 23 29  1  0  0  0  0
 23 22  2  0  0  0  0
 24 23  1  0  0  0  0
 25 24  2  0  0  0  0
 25 26  1  0  0  0  0
 26 27  2  0  0  0  0
 27 22  1  0  0  0  0
 30 26  1  0  0  0  0
 31 33  1  0  0  0  0
 33 32  2  1  0  0  0
 33 34  1  0  0  0  0
 35 34  1  0  0  0  0
 36 37  1  0  0  0  0
 36 33  1  0  0  0  0
 37 38  1  0  0  0  0
 39 37  1  0  0  0  0
 40 37  1  0  0  0  0
 41 40  1  0  0  0  0
 42 41  1  0  0  0  0
 43 44  1  0  0  0  0
 43 41  2  0  0  0  0
 44 50  1  0  0  0  0
 45 44  2  0  0  0  0
 45 46  1  0  0  0  0
 46 47  2  0  0  0  0
 47 49  1  0  0  0  0
 47 48  1  0  0  0  0
 50 40  1  0  0  0  0
 50 49  2  0  0  0  0
 51 45  1  0  0  0  0
 52 51  1  0  0  0  0
 53 51  1  0  0  0  0
M  END
>  <minimizedAffinity>
-6.16282797

$$$$

 OpenBabel03252509063D

 53 56  0  0  1  0  0  0  0  0999 V2000
   38.4700   28.0350   42.9190 N   0  0  0  0  0  0  0  0  0  0  0  0
   39.4390   27.1500   43.4550 C   0  0  0  0  0  0  0  0  0  0  0  0
   40.7920   27.2380   42.7940 C   0  0  0  0  0  0  0  0  0  0  0  0
   41.1700   28.6350   42.3360 C   0  0  0  0  0  0  0  0  0  0  0  0
   40.1190   29.6490   42.7560 C   0  0  0  0  0  0  0  0  0  0  0  0
   38.7990   29.0800   42.0910 C   0  0  2  0  0  0  0  0  0  0  0  0
   39.5580   27.4400   44.5400 H   0  0  0  0  0  0  0  0  0  0  0  0
   39.1600   26.0880   43.4690 H   0  0  0  0  0  0  0  0  0  0  0  0
   41.5540   26.9490   43.5670 H   0  0  0  0  0  0  0  0  0  0  0  0
   40.9000   26.4800   41.9930 H   0  0  0  0  0  0  0  0  0  0  0  0
   41.1710   28.6090   41.2240 H   0  0  0  0  0  0  0  0  0  0  0  0
   42.1850   28.9260   42.6650 H   0  0  0  0  0  0  0  0  0  0  0  0
   39.9900   29.6360   43.8390 H   0  0  0  0  0  0  0  0  0  0  0  0
   40.3540   30.6120   42.3010 H   0  0  0  0  0  0  0  0  0  0  0  0
   39.0530   28.8520   41.0370 H   0  0  0  0  0  0  0  0  0  0  0  0
   37.1410   27.4800   42.8380 C   0  0  0  0  0  0  0  0  0  0  0  0
   36.5620   28.1480   42.1420 H   0  0  0  0  0  0  0  0  0  0  0  0
   36.6760   27.5910   43.8410 H   0  0  0  0  0  0  0  0  0  0  0  0
   37.2520   26.0830   42.3490 C   0  0  0  0  0  0  0  0  0  0  0  0
   38.2750   25.7040   42.4840 H   0  0  0  0  0  0  0  0  0  0  0  0
   36.5330   25.3960   42.8820 H   0  0  0  0  0  0  0  0  0  0  0  0
   36.4250   24.7090   38.9580 C   0  0  0  0  0  0  0  0  0  0  0  0
   36.8010   24.7980   40.3120 C   0  0  0  0  0  0  0  0  0  0  0  0
   36.8530   26.0140   40.9240 C   0  0  0  0  0  0  0  0  0  0  0  0
   36.5380   27.0820   40.1940 N   0  0  0  0  0  0  0  0  0  0  0  0
   36.1780   27.0170   38.9050 C   0  0  0  0  0  0  0  0  0  0  0  0
   36.1170   25.8320   38.2700 N   0  0  0  0  0  0  0  0  0  0  0  0
   36.3860   23.7400   38.4820 H   0  0  0  0  0  0  0  0  0  0  0  0
   37.0340   23.8500   40.7970 H   0  0  0  0  0  0  0  0  0  0  0  0
   35.9650   27.9940   38.4980 H   0  0  0  0  0  0  0  0  0  0  0  0
   37.9600   30.1710   42.2210 O   0  0  0  0  0  0  0  0  0  0  0  0
   35.9230   30.4730   40.5370 O   0  0  0  0  0  0  0  0  0  0  0  0
   37.4100   30.7460   40.7370 P   0  0  2  0  0  0  0  0  0  0  0  0
   38.1800   29.7820   39.5520 O   0  0  0  0  0  0  0  0  0  0  0  0
   39.0710   30.1650   39.3440 H   0  0  0  0  0  0  0  0  0  0  0  0
   37.8120   32.3330   40.4560 O   0  0  0  0  0  0  0  0  0  0  0  0
   38.9930   32.6350   41.1160 C   0  0  0  0  0  0  0  0  0  0  0  0
   39.4410   31.7880   41.6400 H   0  0  0  0  0  0  0  0  0  0  0  0
   38.7790   33.4300   41.8670 H   0  0  0  0  0  0  0  0  0  0  0  0
   39.8950   33.2300   40.1390 N   0  0  0  0  0  0  0  0  0  0  0  0
   40.2000   34.5510   40.2220 C   0  0  0  0  0  0  0  0  0  0  0  0
   39.8510   35.2860   40.9580 H   0  0  0  0  0  0  0  0  0  0  0  0
   41.0500   34.8840   39.2190 N   0  0  0  0  0  0  0  0  0  0  0  0
   41.2820   33.7540   38.4940 C   0  0  0  0  0  0  0  0  0  0  0  0
   42.0250   33.4030   37.3780 C   0  0  0  0  0  0  0  0  0  0  0  0
   41.9950   32.1290   36.9460 N   0  0  0  0  0  0  0  0  0  0  0  0
   41.2790   31.1780   37.5440 C   0  0  0  0  0  0  0  0  0  0  0  0
   41.3600   30.2150   37.0800 H   0  0  0  0  0  0  0  0  0  0  0  0
   40.5450   31.4680   38.6250 N   0  0  0  0  0  0  0  0  0  0  0  0
   40.5490   32.7250   39.0860 C   0  0  0  0  0  0  0  0  0  0  0  0
   42.7770   34.4330   36.7620 N   0  0  0  0  0  0  0  0  0  0  0  0
   43.7180   34.8610   36.9730 H   0  0  0  0  0  0  0  0  0  0  0  0
   42.7000   35.0870   35.9600 H   0  0  0  0  0  0  0  0  0  0  0  0
  1  2  1  0  0  0  0
  2  8  1  0  0  0  0
  2  7  1  0  0  0  0
  3  2  1  0  0  0  0
  3  9  1  0  0  0  0
  4 12  1  0  0  0  0
  4  5  1  0  0  0  0
  4  3  1  0  0  0  0
  5 13  1  0  0  0  0
  6 15  1  6  0  0  0
  6 31  1  0  0  0  0
  6  5  1  0  0  0  0
  6  1  1  0  0  0  0
 10  3  1  0  0  0  0
 11  4  1  0  0  0  0
 14  5  1  0  0  0  0
 16  1  1  0  0  0  0
 16 18  1  0  0  0  0
 17 16  1  0  0  0  0
 19 20  1  0  0  0  0
 19 16  1  0  0  0  0
 19 21  1  0  0  0  0
 22 23  1  0  0  0  0
 23 29  1  0  0  0  0
 23 24  2  0  0  0  0
 24 19  1  0  0  0  0
 25 24  1  0  0  0  0
 26 25  2  0  0  0  0
 27 26  1  0  0  0  0
 27 22  2  0  0  0  0
 28 22  1  0  0  0  0
 30 26  1  0  0  0  0
 33 32  2  6  0  0  0
 33 31  1  0  0  0  0
 34 33  1  0  0  0  0
 35 34  1  0  0  0  0
 36 33  1  0  0  0  0
 36 37  1  0  0  0  0
 37 38  1  0  0  0  0
 37 39  1  0  0  0  0
 40 41  1  0  0  0  0
 40 37  1  0  0  0  0
 41 42  1  0  0  0  0
 43 41  2  0  0  0  0
 44 50  1  0  0  0  0
 44 43  1  0  0  0  0
 45 44  2  0  0  0  0
 46 45  1  0  0  0  0
 46 47  2  0  0  0  0
 47 49  1  0  0  0  0
 48 47  1  0  0  0  0
 49 50  2  0  0  0  0
 50 40  1  0  0  0  0
 51 52  1  0  0  0  0
 51 45  1  0  0  0  0
 53 51  1  0  0  0  0
M  END
>  <minimizedAffinity>
-6.13669968

$$$$

 OpenBabel03252509063D

 53 56  0  0  1  0  0  0  0  0999 V2000
   36.7530   30.4260   39.7000 N   0  0  0  0  0  0  0  0  0  0  0  0
   36.8150   30.8260   38.3420 C   0  0  0  0  0  0  0  0  0  0  0  0
   37.3380   29.7640   37.4070 C   0  0  0  0  0  0  0  0  0  0  0  0
   36.9470   28.3490   37.7930 C   0  0  0  0  0  0  0  0  0  0  0  0
   36.0170   28.3490   38.9950 C   0  0  0  0  0  0  0  0  0  0  0  0
   36.8640   29.1150   40.0920 C   0  0  2  0  0  0  0  0  0  0  0  0
   35.7550   31.0690   38.0400 H   0  0  0  0  0  0  0  0  0  0  0  0
   37.3900   31.7390   38.1390 H   0  0  0  0  0  0  0  0  0  0  0  0
   36.8680   29.9510   36.4030 H   0  0  0  0  0  0  0  0  0  0  0  0
   38.4260   29.8760   37.2360 H   0  0  0  0  0  0  0  0  0  0  0  0
   37.8850   27.8410   38.1090 H   0  0  0  0  0  0  0  0  0  0  0  0
   36.5280   27.7800   36.9430 H   0  0  0  0  0  0  0  0  0  0  0  0
   35.1220   28.9360   38.7830 H   0  0  0  0  0  0  0  0  0  0  0  0
   35.8630   27.3210   39.3250 H   0  0  0  0  0  0  0  0  0  0  0  0
   37.8710   28.6520   40.0900 H   0  0  0  0  0  0  0  0  0  0  0  0
   37.1070   31.4620   40.6400 C   0  0  0  0  0  0  0  0  0  0  0  0
   36.5210   31.2520   41.5760 H   0  0  0  0  0  0  0  0  0  0  0  0
   36.7210   32.4210   40.2340 H   0  0  0  0  0  0  0  0  0  0  0  0
   38.5760   31.4150   40.8480 C   0  0  0  0  0  0  0  0  0  0  0  0
   38.8140   31.0460   41.8560 H   0  0  0  0  0  0  0  0  0  0  0  0
   39.0850   30.7550   40.0880 H   0  0  0  0  0  0  0  0  0  0  0  0
   38.8520   35.1050   40.2360 C   0  0  0  0  0  0  0  0  0  0  0  0
   38.3210   33.8170   40.4430 C   0  0  0  0  0  0  0  0  0  0  0  0
   39.1590   32.7590   40.6330 C   0  0  0  0  0  0  0  0  0  0  0  0
   40.4670   33.0020   40.6110 N   0  0  0  0  0  0  0  0  0  0  0  0
   40.9910   34.2200   40.4160 C   0  0  0  0  0  0  0  0  0  0  0  0
   40.1930   35.2860   40.2250 N   0  0  0  0  0  0  0  0  0  0  0  0
   38.1800   35.9380   40.0870 H   0  0  0  0  0  0  0  0  0  0  0  0
   37.2330   33.7530   40.4380 H   0  0  0  0  0  0  0  0  0  0  0  0
   42.0700   34.1990   40.4350 H   0  0  0  0  0  0  0  0  0  0  0  0
   36.1350   28.8150   41.2290 O   0  0  0  0  0  0  0  0  0  0  0  0
   36.4580   26.8390   42.9800 O   0  0  0  0  0  0  0  0  0  0  0  0
   37.0780   28.1230   42.4390 P   0  0  2  0  0  0  0  0  0  0  0  0
   37.0140   29.2110   43.7570 O   0  0  0  0  0  0  0  0  0  0  0  0
   37.7130   29.9080   43.6440 H   0  0  0  0  0  0  0  0  0  0  0  0
   38.6690   27.9290   42.0040 O   0  0  0  0  0  0  0  0  0  0  0  0
   39.4870   28.2790   43.0660 C   0  0  0  0  0  0  0  0  0  0  0  0
   38.9520   28.4530   44.0030 H   0  0  0  0  0  0  0  0  0  0  0  0
   40.0230   29.2190   42.7980 H   0  0  0  0  0  0  0  0  0  0  0  0
   40.5070   27.2470   43.1870 N   0  0  0  0  0  0  0  0  0  0  0  0
   40.1750   25.9460   42.9840 C   0  0  0  0  0  0  0  0  0  0  0  0
   39.1950   25.5240   42.7270 H   0  0  0  0  0  0  0  0  0  0  0  0
   41.2740   25.1670   43.1470 N   0  0  0  0  0  0  0  0  0  0  0  0
   42.3120   25.9920   43.4570 C   0  0  0  0  0  0  0  0  0  0  0  0
   43.6630   25.8580   43.7400 C   0  0  0  0  0  0  0  0  0  0  0  0
   44.3880   26.9580   44.0100 N   0  0  0  0  0  0  0  0  0  0  0  0
   43.8680   28.1840   44.0180 C   0  0  0  0  0  0  0  0  0  0  0  0
   44.5740   28.9560   44.2500 H   0  0  0  0  0  0  0  0  0  0  0  0
   42.5690   28.3660   43.7510 N   0  0  0  0  0  0  0  0  0  0  0  0
   41.8130   27.2960   43.4770 C   0  0  0  0  0  0  0  0  0  0  0  0
   44.1900   24.5440   43.7240 N   0  0  0  0  0  0  0  0  0  0  0  0
   44.5220   23.9110   42.9470 H   0  0  0  0  0  0  0  0  0  0  0  0
   44.4240   23.7850   44.3920 H   0  0  0  0  0  0  0  0  0  0  0  0
  1  6  1  0  0  0  0
  1 16  1  0  0  0  0
  2  1  1  0  0  0  0
  3  4  1  0  0  0  0
  3  2  1  0  0  0  0
  4 11  1  0  0  0  0
  4  5  1  0  0  0  0
  5 14  1  0  0  0  0
  5  6  1  0  0  0  0
  6 15  1  1  0  0  0
  6 31  1  0  0  0  0
  7  2  1  0  0  0  0
  8  2  1  0  0  0  0
  9  3  1  0  0  0  0
 10  3  1  0  0  0  0
 12  4  1  0  0  0  0
 13  5  1  0  0  0  0
 16 19  1  0  0  0  0
 16 17  1  0  0  0  0
 18 16  1  0  0  0  0
 19 20  1  0  0  0  0
 21 19  1  0  0  0  0
 22 23  1  0  0  0  0
 23 24  2  0  0  0  0
 24 19  1  0  0  0  0
 25 24  1  0  0  0  0
 26 30  1  0  0  0  0
 26 25  2  0  0  0  0
 27 22  2  0  0  0  0
 27 26  1  0  0  0  0
 28 22  1  0  0  0  0
 29 23  1  0  0  0  0
 31 33  1  0  0  0  0
 33 32  2  1  0  0  0
 33 34  1  0  0  0  0
 35 34  1  0  0  0  0
 36 33  1  0  0  0  0
 36 37  1  0  0  0  0
 37 40  1  0  0  0  0
 37 38  1  0  0  0  0
 39 37  1  0  0  0  0
 40 50  1  0  0  0  0
 41 43  2  0  0  0  0
 41 40  1  0  0  0  0
 42 41  1  0  0  0  0
 43 44  1  0  0  0  0
 44 50  2  0  0  0  0
 44 45  1  0  0  0  0
 45 46  2  0  0  0  0
 46 47  1  0  0  0  0
 47 48  1  0  0  0  0
 49 47  2  0  0  0  0
 50 49  1  0  0  0  0
 51 45  1  0  0  0  0
 51 53  1  0  0  0  0
 52 51  1  0  0  0  0
M  END
>  <minimizedAffinity>
-6.10913372

$$$$

 OpenBabel03252509063D

 53 56  0  0  1  0  0  0  0  0999 V2000
   37.0080   26.3600   39.8540 N   0  0  0  0  0  0  0  0  0  0  0  0
   37.3580   24.9880   39.9280 C   0  0  0  0  0  0  0  0  0  0  0  0
   38.3260   24.6550   41.0370 C   0  0  0  0  0  0  0  0  0  0  0  0
   38.1440   25.4890   42.2920 C   0  0  0  0  0  0  0  0  0  0  0  0
   36.9400   26.4070   42.1660 C   0  0  0  0  0  0  0  0  0  0  0  0
   37.2750   27.2480   40.8670 C   0  0  2  0  0  0  0  0  0  0  0  0
   36.3960   24.4320   40.1220 H   0  0  0  0  0  0  0  0  0  0  0  0
   37.7660   24.5490   39.0080 H   0  0  0  0  0  0  0  0  0  0  0  0
   38.1220   23.5920   41.3400 H   0  0  0  0  0  0  0  0  0  0  0  0
   39.3710   24.6500   40.6720 H   0  0  0  0  0  0  0  0  0  0  0  0
   39.0430   26.1400   42.3660 H   0  0  0  0  0  0  0  0  0  0  0  0
   38.1020   24.8700   43.2070 H   0  0  0  0  0  0  0  0  0  0  0  0
   36.0370   25.8260   41.9740 H   0  0  0  0  0  0  0  0  0  0  0  0
   36.9160   27.0810   43.0230 H   0  0  0  0  0  0  0  0  0  0  0  0
   38.3170   27.6070   40.9860 H   0  0  0  0  0  0  0  0  0  0  0  0
   36.8680   26.8640   38.5100 C   0  0  0  0  0  0  0  0  0  0  0  0
   37.7700   26.5050   37.9430 H   0  0  0  0  0  0  0  0  0  0  0  0
   36.9490   27.9710   38.5640 H   0  0  0  0  0  0  0  0  0  0  0  0
   35.5880   26.3550   37.9560 C   0  0  0  0  0  0  0  0  0  0  0  0
   35.7380   25.3850   37.4610 H   0  0  0  0  0  0  0  0  0  0  0  0
   34.8030   26.2400   38.7570 H   0  0  0  0  0  0  0  0  0  0  0  0
   33.2740   28.8810   36.4280 C   0  0  0  0  0  0  0  0  0  0  0  0
   33.8330   27.9390   37.3140 C   0  0  0  0  0  0  0  0  0  0  0  0
   35.0200   27.3430   37.0100 C   0  0  0  0  0  0  0  0  0  0  0  0
   35.6040   27.6880   35.8640 N   0  0  0  0  0  0  0  0  0  0  0  0
   35.0870   28.5810   35.0100 C   0  0  0  0  0  0  0  0  0  0  0  0
   33.9180   29.1890   35.2790 N   0  0  0  0  0  0  0  0  0  0  0  0
   32.3330   29.3490   36.6790 H   0  0  0  0  0  0  0  0  0  0  0  0
   33.2560   27.7450   38.2170 H   0  0  0  0  0  0  0  0  0  0  0  0
   35.7160   28.7170   34.1430 H   0  0  0  0  0  0  0  0  0  0  0  0
   36.3400   28.2610   40.9730 O   0  0  0  0  0  0  0  0  0  0  0  0
   37.7090   29.7610   42.6910 O   0  0  0  0  0  0  0  0  0  0  0  0
   37.0370   29.7530   41.3220 P   0  0  2  0  0  0  0  0  0  0  0  0
   35.7340   30.8480   41.4840 O   0  0  0  0  0  0  0  0  0  0  0  0
   35.4850   31.2000   40.5890 H   0  0  0  0  0  0  0  0  0  0  0  0
   38.0360   30.3100   40.1170 O   0  0  0  0  0  0  0  0  0  0  0  0
   38.3140   31.6510   40.3290 C   0  0  0  0  0  0  0  0  0  0  0  0
   38.5960   31.8910   41.3570 H   0  0  0  0  0  0  0  0  0  0  0  0
   37.4020   32.2400   40.0770 H   0  0  0  0  0  0  0  0  0  0  0  0
   39.3320   32.0410   39.3630 N   0  0  0  0  0  0  0  0  0  0  0  0
   39.6030   31.2300   38.3070 C   0  0  0  0  0  0  0  0  0  0  0  0
   39.1450   30.2650   38.0530 H   0  0  0  0  0  0  0  0  0  0  0  0
   40.5760   31.7880   37.5450 N   0  0  0  0  0  0  0  0  0  0  0  0
   40.9210   32.9680   38.1310 C   0  0  0  0  0  0  0  0  0  0  0  0
   41.8150   33.9980   37.8820 C   0  0  0  0  0  0  0  0  0  0  0  0
   41.8650   35.0410   38.7300 N   0  0  0  0  0  0  0  0  0  0  0  0
   41.0880   35.1350   39.8080 C   0  0  0  0  0  0  0  0  0  0  0  0
   41.2470   36.0260   40.3830 H   0  0  0  0  0  0  0  0  0  0  0  0
   40.2090   34.1660   40.0910 N   0  0  0  0  0  0  0  0  0  0  0  0
   40.1300   33.1110   39.2710 C   0  0  0  0  0  0  0  0  0  0  0  0
   42.6280   33.8730   36.7290 N   0  0  0  0  0  0  0  0  0  0  0  0
   42.4620   34.0750   35.7070 H   0  0  0  0  0  0  0  0  0  0  0  0
   43.5870   33.5690   36.4760 H   0  0  0  0  0  0  0  0  0  0  0  0
  1  2  1  0  0  0  0
  1  6  1  0  0  0  0
  2  7  1  0  0  0  0
  2  3  1  0  0  0  0
  3  9  1  0  0  0  0
  3  4  1  0  0  0  0
  4 11  1  0  0  0  0
  4 12  1  0  0  0  0
  5  4  1  0  0  0  0
  5 14  1  0  0  0  0
  6 31  1  0  0  0  0
  6 15  1  6  0  0  0
  6  5  1  0  0  0  0
  8  2  1  0  0  0  0
 10  3  1  0  0  0  0
 13  5  1  0  0  0  0
 16 18  1  0  0  0  0
 16  1  1  0  0  0  0
 17 16  1  0  0  0  0
 19 16  1  0  0  0  0
 19 21  1  0  0  0  0
 20 19  1  0  0  0  0
 22 28  1  0  0  0  0
 22 23  1  0  0  0  0
 23 29  1  0  0  0  0
 24 23  2  0  0  0  0
 24 19  1  0  0  0  0
 25 24  1  0  0  0  0
 26 27  1  0  0  0  0
 26 25  2  0  0  0  0
 27 22  2  0  0  0  0
 30 26  1  0  0  0  0
 31 33  1  0  0  0  0
 33 34  1  0  0  0  0
 33 32  2  1  0  0  0
 35 34  1  0  0  0  0
 36 37  1  0  0  0  0
 36 33  1  0  0  0  0
 37 38  1  0  0  0  0
 39 37  1  0  0  0  0
 40 37  1  0  0  0  0
 41 40  1  0  0  0  0
 42 41  1  0  0  0  0
 43 44  1  0  0  0  0
 43 41  2  0  0  0  0
 44 50  1  0  0  0  0
 45 44  2  0  0  0  0
 45 46  1  0  0  0  0
 46 47  2  0  0  0  0
 47 49  1  0  0  0  0
 47 48  1  0  0  0  0
 50 40  1  0  0  0  0
 50 49  2  0  0  0  0
 51 45  1  0  0  0  0
 52 51  1  0  0  0  0
 53 51  1  0  0  0  0
M  END
>  <minimizedAffinity>
-6.08281183

$$$$

 OpenBabel03252509063D

 53 56  0  0  1  0  0  0  0  0999 V2000
   37.2660   27.5530   40.6340 N   0  0  0  0  0  0  0  0  0  0  0  0
   36.9200   26.2460   40.2080 C   0  0  0  0  0  0  0  0  0  0  0  0
   36.1440   26.2010   38.9150 C   0  0  0  0  0  0  0  0  0  0  0  0
   36.5360   27.2750   37.9170 C   0  0  0  0  0  0  0  0  0  0  0  0
   37.7120   28.0910   38.4290 C   0  0  0  0  0  0  0  0  0  0  0  0
   37.1770   28.6480   39.8110 C   0  0  2  0  0  0  0  0  0  0  0  0
   37.8960   25.7010   40.0510 H   0  0  0  0  0  0  0  0  0  0  0  0
   36.3630   25.6390   40.9340 H   0  0  0  0  0  0  0  0  0  0  0  0
   36.3840   25.2200   38.4230 H   0  0  0  0  0  0  0  0  0  0  0  0
   35.0520   26.1660   39.1000 H   0  0  0  0  0  0  0  0  0  0  0  0
   35.6680   27.9670   37.8470 H   0  0  0  0  0  0  0  0  0  0  0  0
   36.7210   26.8660   36.9070 H   0  0  0  0  0  0  0  0  0  0  0  0
   38.5660   27.4420   38.6290 H   0  0  0  0  0  0  0  0  0  0  0  0
   37.8820   28.9310   37.7540 H   0  0  0  0  0  0  0  0  0  0  0  0
   36.1720   29.0710   39.6100 H   0  0  0  0  0  0  0  0  0  0  0  0
   37.1890   27.7510   42.0610 C   0  0  0  0  0  0  0  0  0  0  0  0
   36.0970   27.8540   42.3070 H   0  0  0  0  0  0  0  0  0  0  0  0
   37.6580   28.7340   42.2830 H   0  0  0  0  0  0  0  0  0  0  0  0
   37.8300   26.5870   42.7250 C   0  0  0  0  0  0  0  0  0  0  0  0
   37.2490   26.2740   43.6040 H   0  0  0  0  0  0  0  0  0  0  0  0
   37.9320   25.7100   42.0220 H   0  0  0  0  0  0  0  0  0  0  0  0
   41.0550   28.4710   43.0690 C   0  0  0  0  0  0  0  0  0  0  0  0
   39.7360   28.1260   42.7150 C   0  0  0  0  0  0  0  0  0  0  0  0
   39.2190   26.9280   43.1090 C   0  0  0  0  0  0  0  0  0  0  0  0
   40.0050   26.1260   43.8230 N   0  0  0  0  0  0  0  0  0  0  0  0
   41.2620   26.4370   44.1690 C   0  0  0  0  0  0  0  0  0  0  0  0
   41.8030   27.6100   43.7970 N   0  0  0  0  0  0  0  0  0  0  0  0
   41.4560   29.4230   42.7530 H   0  0  0  0  0  0  0  0  0  0  0  0
   39.1980   28.8700   42.1290 H   0  0  0  0  0  0  0  0  0  0  0  0
   41.7250   25.6510   44.7460 H   0  0  0  0  0  0  0  0  0  0  0  0
   38.1260   29.6170   40.0780 O   0  0  0  0  0  0  0  0  0  0  0  0
   36.1060   31.0770   41.0070 O   0  0  0  0  0  0  0  0  0  0  0  0
   37.4510   31.1440   40.2910 P   0  0  2  0  0  0  0  0  0  0  0  0
   37.0670   31.7060   38.7220 O   0  0  0  0  0  0  0  0  0  0  0  0
   37.8660   32.1400   38.3230 H   0  0  0  0  0  0  0  0  0  0  0  0
   38.4930   32.2320   40.9900 O   0  0  0  0  0  0  0  0  0  0  0  0
   38.3030   33.4840   40.4280 C   0  0  0  0  0  0  0  0  0  0  0  0
   37.8430   34.2110   41.1010 H   0  0  0  0  0  0  0  0  0  0  0  0
   37.6380   33.3700   39.5400 H   0  0  0  0  0  0  0  0  0  0  0  0
   39.5910   33.9310   39.9170 N   0  0  0  0  0  0  0  0  0  0  0  0
   40.1890   35.0220   40.4610 C   0  0  0  0  0  0  0  0  0  0  0  0
   39.8300   35.6600   41.2790 H   0  0  0  0  0  0  0  0  0  0  0  0
   41.3710   35.2520   39.8350 N   0  0  0  0  0  0  0  0  0  0  0  0
   41.5160   34.2900   38.8820 C   0  0  0  0  0  0  0  0  0  0  0  0
   42.4570   33.9510   37.9210 C   0  0  0  0  0  0  0  0  0  0  0  0
   42.2330   32.8840   37.1340 N   0  0  0  0  0  0  0  0  0  0  0  0
   41.1410   32.1270   37.2330 C   0  0  0  0  0  0  0  0  0  0  0  0
   41.1100   31.3140   36.5350 H   0  0  0  0  0  0  0  0  0  0  0  0
   40.2040   32.4140   38.1440 N   0  0  0  0  0  0  0  0  0  0  0  0
   40.3900   33.4680   38.9480 C   0  0  0  0  0  0  0  0  0  0  0  0
   43.6080   34.7720   37.8380 N   0  0  0  0  0  0  0  0  0  0  0  0
   44.5100   34.8020   38.3850 H   0  0  0  0  0  0  0  0  0  0  0  0
   43.9650   35.5660   37.2750 H   0  0  0  0  0  0  0  0  0  0  0  0
  1 16  1  0  0  0  0
  2  1  1  0  0  0  0
  2  8  1  0  0  0  0
  3 10  1  0  0  0  0
  3  2  1  0  0  0  0
  4  5  1  0  0  0  0
  4  3  1  0  0  0  0
  5 13  1  0  0  0  0
  5  6  1  0  0  0  0
  6 15  1  6  0  0  0
  6 31  1  0  0  0  0
  6  1  1  0  0  0  0
  7  2  1  0  0  0  0
  9  3  1  0  0  0  0
 11  4  1  0  0  0  0
 12  4  1  0  0  0  0
 14  5  1  0  0  0  0
 16 18  1  0  0  0  0
 16 17  1  0  0  0  0
 16 19  1  0  0  0  0
 19 24  1  0  0  0  0
 19 20  1  0  0  0  0
 21 19  1  0  0  0  0
 22 27  1  0  0  0  0
 23 22  2  0  0  0  0
 23 24  1  0  0  0  0
 24 25  2  0  0  0  0
 25 26  1  0  0  0  0
 26 30  1  0  0  0  0
 27 26  2  0  0  0  0
 28 22  1  0  0  0  0
 29 23  1  0  0  0  0
 31 33  1  0  0  0  0
 33 36  1  0  0  0  0
 33 32  2  1  0  0  0
 34 33  1  0  0  0  0
 35 34  1  0  0  0  0
 37 36  1  0  0  0  0
 37 38  1  0  0  0  0
 39 37  1  0  0  0  0
 40 37  1  0  0  0  0
 40 41  1  0  0  0  0
 41 42  1  0  0  0  0
 43 41  2  0  0  0  0
 44 50  1  0  0  0  0
 44 43  1  0  0  0  0
 45 44  2  0  0  0  0
 46 47  2  0  0  0  0
 46 45  1  0  0  0  0
 47 49  1  0  0  0  0
 48 47  1  0  0  0  0
 49 50  2  0  0  0  0
 50 40  1  0  0  0  0
 51 45  1  0  0  0  0
 51 52  1  0  0  0  0
 53 51  1  0  0  0  0
M  END
>  <minimizedAffinity>
-5.98335981

$$$$

 OpenBabel03252509063D

 53 56  0  0  1  0  0  0  0  0999 V2000
   37.6020   27.5770   42.3250 N   0  0  0  0  0  0  0  0  0  0  0  0
   37.1220   26.2470   42.4180 C   0  0  0  0  0  0  0  0  0  0  0  0
   38.2030   25.1950   42.3890 C   0  0  0  0  0  0  0  0  0  0  0  0
   39.4950   25.6130   43.0650 C   0  0  0  0  0  0  0  0  0  0  0  0
   39.3530   26.9800   43.7140 C   0  0  0  0  0  0  0  0  0  0  0  0
   38.9250   27.9010   42.4990 C   0  0  2  0  0  0  0  0  0  0  0  0
   36.5900   26.1770   43.4100 H   0  0  0  0  0  0  0  0  0  0  0  0
   36.3750   25.9560   41.6670 H   0  0  0  0  0  0  0  0  0  0  0  0
   37.8190   24.3150   42.9730 H   0  0  0  0  0  0  0  0  0  0  0  0
   38.3610   24.8070   41.3630 H   0  0  0  0  0  0  0  0  0  0  0  0
   40.2520   25.7150   42.2560 H   0  0  0  0  0  0  0  0  0  0  0  0
   39.8650   24.8520   43.7760 H   0  0  0  0  0  0  0  0  0  0  0  0
   38.5400   26.9730   44.4410 H   0  0  0  0  0  0  0  0  0  0  0  0
   40.3300   27.3060   44.0730 H   0  0  0  0  0  0  0  0  0  0  0  0
   39.6310   27.6780   41.6730 H   0  0  0  0  0  0  0  0  0  0  0  0
   36.7740   28.4530   41.5330 C   0  0  0  0  0  0  0  0  0  0  0  0
   37.4260   29.3180   41.2330 H   0  0  0  0  0  0  0  0  0  0  0  0
   35.9910   28.8650   42.2060 H   0  0  0  0  0  0  0  0  0  0  0  0
   36.2600   27.6800   40.3740 C   0  0  0  0  0  0  0  0  0  0  0  0
   36.6090   26.6390   40.4150 H   0  0  0  0  0  0  0  0  0  0  0  0
   35.1320   27.6860   40.3340 H   0  0  0  0  0  0  0  0  0  0  0  0
   38.0220   28.2850   37.1180 C   0  0  0  0  0  0  0  0  0  0  0  0
   37.6010   27.6910   38.3240 C   0  0  0  0  0  0  0  0  0  0  0  0
   36.6850   28.3240   39.1100 C   0  0  0  0  0  0  0  0  0  0  0  0
   36.2240   29.4990   38.6880 N   0  0  0  0  0  0  0  0  0  0  0  0
   36.6110   30.0800   37.5440 C   0  0  0  0  0  0  0  0  0  0  0  0
   37.5140   29.4830   36.7450 N   0  0  0  0  0  0  0  0  0  0  0  0
   38.7480   27.7750   36.5010 H   0  0  0  0  0  0  0  0  0  0  0  0
   38.0550   26.7280   38.5550 H   0  0  0  0  0  0  0  0  0  0  0  0
   36.1180   31.0270   37.3890 H   0  0  0  0  0  0  0  0  0  0  0  0
   39.1180   29.1540   43.0500 O   0  0  0  0  0  0  0  0  0  0  0  0
   41.6630   29.9240   42.9500 O   0  0  0  0  0  0  0  0  0  0  0  0
   40.3110   30.0360   42.2530 P   0  0  2  0  0  0  0  0  0  0  0  0
   39.8750   31.6800   42.4390 O   0  0  0  0  0  0  0  0  0  0  0  0
   39.2380   31.9350   41.7210 H   0  0  0  0  0  0  0  0  0  0  0  0
   40.3990   29.7040   40.6280 O   0  0  0  0  0  0  0  0  0  0  0  0
   39.5240   30.5270   39.9390 C   0  0  0  0  0  0  0  0  0  0  0  0
   38.8790   31.1310   40.5810 H   0  0  0  0  0  0  0  0  0  0  0  0
   38.8700   29.8850   39.3030 H   0  0  0  0  0  0  0  0  0  0  0  0
   40.3180   31.3340   39.0230 N   0  0  0  0  0  0  0  0  0  0  0  0
   40.7130   30.8100   37.8330 C   0  0  0  0  0  0  0  0  0  0  0  0
   40.5140   29.8090   37.4300 H   0  0  0  0  0  0  0  0  0  0  0  0
   41.4350   31.7320   37.1490 N   0  0  0  0  0  0  0  0  0  0  0  0
   41.4940   32.8530   37.9210 C   0  0  0  0  0  0  0  0  0  0  0  0
   42.0540   34.1180   37.8270 C   0  0  0  0  0  0  0  0  0  0  0  0
   41.8870   34.9840   38.8420 N   0  0  0  0  0  0  0  0  0  0  0  0
   41.2030   34.6850   39.9450 C   0  0  0  0  0  0  0  0  0  0  0  0
   41.1600   35.4810   40.6610 H   0  0  0  0  0  0  0  0  0  0  0  0
   40.6440   33.4760   40.0820 N   0  0  0  0  0  0  0  0  0  0  0  0
   40.7870   32.5850   39.0940 C   0  0  0  0  0  0  0  0  0  0  0  0
   42.7760   34.4100   36.6440 N   0  0  0  0  0  0  0  0  0  0  0  0
   42.4800   34.7170   35.6790 H   0  0  0  0  0  0  0  0  0  0  0  0
   43.7580   34.4310   36.3110 H   0  0  0  0  0  0  0  0  0  0  0  0
  1  2  1  0  0  0  0
  1  6  1  0  0  0  0
  2  7  1  0  0  0  0
  3  2  1  0  0  0  0
  3  9  1  0  0  0  0
  3  4  1  0  0  0  0
  4  5  1  0  0  0  0
  4 12  1  0  0  0  0
  5 14  1  0  0  0  0
  5 13  1  0  0  0  0
  6 15  1  6  0  0  0
  6 31  1  0  0  0  0
  6  5  1  0  0  0  0
  8  2  1  0  0  0  0
 10  3  1  0  0  0  0
 11  4  1  0  0  0  0
 16 18  1  0  0  0  0
 16  1  1  0  0  0  0
 17 16  1  0  0  0  0
 19 20  1  0  0  0  0
 19 16  1  0  0  0  0
 21 19  1  0  0  0  0
 22 23  1  0  0  0  0
 23 29  1  0  0  0  0
 23 24  2  0  0  0  0
 24 19  1  0  0  0  0
 25 24  1  0  0  0  0
 26 25  2  0  0  0  0
 27 22  2  0  0  0  0
 27 26  1  0  0  0  0
 28 22  1  0  0  0  0
 30 26  1  0  0  0  0
 33 34  1  0  0  0  0
 33 32  2  1  0  0  0
 33 31  1  0  0  0  0
 35 34  1  0  0  0  0
 36 33  1  0  0  0  0
 37 38  1  0  0  0  0
 37 36  1  0  0  0  0
 39 37  1  0  0  0  0
 40 50  1  0  0  0  0
 40 37  1  0  0  0  0
 41 40  1  0  0  0  0
 42 41  1  0  0  0  0
 43 41  2  0  0  0  0
 43 44  1  0  0  0  0
 44 50  1  0  0  0  0
 45 44  2  0  0  0  0
 45 46  1  0  0  0  0
 46 47  2  0  0  0  0
 47 49  1  0  0  0  0
 47 48  1  0  0  0  0
 50 49  2  0  0  0  0
 51 45  1  0  0  0  0
 52 51  1  0  0  0  0
 53 51  1  0  0  0  0
M  END
>  <minimizedAffinity>
-5.96352768

$$$$

 OpenBabel03252509063D

 53 56  0  0  1  0  0  0  0  0999 V2000
   36.6030   26.2600   40.1960 N   0  0  0  0  0  0  0  0  0  0  0  0
   36.4320   25.0730   39.4410 C   0  0  0  0  0  0  0  0  0  0  0  0
   37.4020   23.9710   39.7890 C   0  0  0  0  0  0  0  0  0  0  0  0
   37.7830   23.9200   41.2570 C   0  0  0  0  0  0  0  0  0  0  0  0
   37.0000   24.9470   42.0590 C   0  0  0  0  0  0  0  0  0  0  0  0
   37.3660   26.3080   41.3370 C   0  0  2  0  0  0  0  0  0  0  0  0
   35.3890   24.7070   39.6670 H   0  0  0  0  0  0  0  0  0  0  0  0
   36.4660   25.1920   38.3490 H   0  0  0  0  0  0  0  0  0  0  0  0
   36.8850   22.9980   39.5710 H   0  0  0  0  0  0  0  0  0  0  0  0
   38.2830   23.9810   39.1180 H   0  0  0  0  0  0  0  0  0  0  0  0
   38.8550   24.2150   41.3120 H   0  0  0  0  0  0  0  0  0  0  0  0
   37.6930   22.9040   41.6820 H   0  0  0  0  0  0  0  0  0  0  0  0
   35.9280   24.7790   41.9490 H   0  0  0  0  0  0  0  0  0  0  0  0
   37.3900   24.9750   43.0770 H   0  0  0  0  0  0  0  0  0  0  0  0
   38.4690   26.3180   41.2280 H   0  0  0  0  0  0  0  0  0  0  0  0
   36.4040   27.4750   39.4450 C   0  0  0  0  0  0  0  0  0  0  0  0
   36.5430   28.3210   40.1710 H   0  0  0  0  0  0  0  0  0  0  0  0
   35.3390   27.4980   39.1320 H   0  0  0  0  0  0  0  0  0  0  0  0
   37.3860   27.4960   38.3300 C   0  0  0  0  0  0  0  0  0  0  0  0
   38.2190   26.8090   38.5340 H   0  0  0  0  0  0  0  0  0  0  0  0
   36.9090   27.2110   37.3490 H   0  0  0  0  0  0  0  0  0  0  0  0
   37.4320   31.2100   37.8090 C   0  0  0  0  0  0  0  0  0  0  0  0
   36.9810   29.8900   38.0070 C   0  0  0  0  0  0  0  0  0  0  0  0
   37.8830   28.8750   38.1230 C   0  0  0  0  0  0  0  0  0  0  0  0
   39.1740   29.1900   38.0410 N   0  0  0  0  0  0  0  0  0  0  0  0
   39.6210   30.4390   37.8530 C   0  0  0  0  0  0  0  0  0  0  0  0
   38.7590   31.4640   37.7340 N   0  0  0  0  0  0  0  0  0  0  0  0
   36.7090   32.0080   37.7190 H   0  0  0  0  0  0  0  0  0  0  0  0
   35.9000   29.7670   38.0560 H   0  0  0  0  0  0  0  0  0  0  0  0
   40.7000   30.4770   37.8160 H   0  0  0  0  0  0  0  0  0  0  0  0
   36.9070   27.2210   42.2690 O   0  0  0  0  0  0  0  0  0  0  0  0
   39.1560   27.5530   43.6510 O   0  0  0  0  0  0  0  0  0  0  0  0
   38.1130   28.2690   42.7980 P   0  0  2  0  0  0  0  0  0  0  0  0
   37.3480   29.3470   43.8830 O   0  0  0  0  0  0  0  0  0  0  0  0
   36.9500   30.1000   43.3730 H   0  0  0  0  0  0  0  0  0  0  0  0
   38.7940   29.1610   41.5730 O   0  0  0  0  0  0  0  0  0  0  0  0
   38.3010   30.4550   41.6140 C   0  0  0  0  0  0  0  0  0  0  0  0
   37.8060   30.7150   42.5520 H   0  0  0  0  0  0  0  0  0  0  0  0
   37.5590   30.5720   40.7910 H   0  0  0  0  0  0  0  0  0  0  0  0
   39.4050   31.3500   41.2970 N   0  0  0  0  0  0  0  0  0  0  0  0
   40.6840   30.8990   41.3870 C   0  0  0  0  0  0  0  0  0  0  0  0
   41.0360   29.9010   41.6800 H   0  0  0  0  0  0  0  0  0  0  0  0
   41.5410   31.8940   41.0480 N   0  0  0  0  0  0  0  0  0  0  0  0
   40.7890   32.9880   40.7400 C   0  0  0  0  0  0  0  0  0  0  0  0
   41.0190   34.2920   40.3310 C   0  0  0  0  0  0  0  0  0  0  0  0
   39.9700   35.1070   40.1210 N   0  0  0  0  0  0  0  0  0  0  0  0
   38.7070   34.7190   40.2880 C   0  0  0  0  0  0  0  0  0  0  0  0
   37.9850   35.4840   40.0810 H   0  0  0  0  0  0  0  0  0  0  0  0
   38.4330   33.4700   40.6820 N   0  0  0  0  0  0  0  0  0  0  0  0
   39.4500   32.6270   40.9020 C   0  0  0  0  0  0  0  0  0  0  0  0
   42.3710   34.6770   40.1610 N   0  0  0  0  0  0  0  0  0  0  0  0
   43.0620   34.5480   39.3730 H   0  0  0  0  0  0  0  0  0  0  0  0
   43.1160   35.1760   40.6830 H   0  0  0  0  0  0  0  0  0  0  0  0
  1  6  1  0  0  0  0
  2  7  1  0  0  0  0
  2  3  1  0  0  0  0
  2  1  1  0  0  0  0
  3  4  1  0  0  0  0
  4 11  1  0  0  0  0
  4 12  1  0  0  0  0
  4  5  1  0  0  0  0
  5 14  1  0  0  0  0
  6 15  1  6  0  0  0
  6  5  1  0  0  0  0
  6 31  1  0  0  0  0
  8  2  1  0  0  0  0
  9  3  1  0  0  0  0
 10  3  1  0  0  0  0
 13  5  1  0  0  0  0
 16 17  1  0  0  0  0
 16  1  1  0  0  0  0
 18 16  1  0  0  0  0
 19 20  1  0  0  0  0
 19 16  1  0  0  0  0
 21 19  1  0  0  0  0
 22 23  1  0  0  0  0
 23 29  1  0  0  0  0
 23 24  2  0  0  0  0
 24 19  1  0  0  0  0
 25 24  1  0  0  0  0
 26 25  2  0  0  0  0
 27 22  2  0  0  0  0
 27 26  1  0  0  0  0
 28 22  1  0  0  0  0
 30 26  1  0  0  0  0
 31 33  1  0  0  0  0
 33 32  2  1  0  0  0
 33 34  1  0  0  0  0
 35 34  1  0  0  0  0
 36 37  1  0  0  0  0
 36 33  1  0  0  0  0
 37 38  1  0  0  0  0
 39 37  1  0  0  0  0
 40 41  1  0  0  0  0
 40 37  1  0  0  0  0
 41 42  1  0  0  0  0
 43 41  2  0  0  0  0
 44 50  1  0  0  0  0
 44 43  1  0  0  0  0
 45 44  2  0  0  0  0
 46 47  2  0  0  0  0
 46 45  1  0  0  0  0
 47 49  1  0  0  0  0
 48 47  1  0  0  0  0
 49 50  2  0  0  0  0
 50 40  1  0  0  0  0
 51 45  1  0  0  0  0
 51 53  1  0  0  0  0
 52 51  1  0  0  0  0
M  END
>  <minimizedAffinity>
-5.89836073

$$$$

 OpenBabel03252509063D

 53 56  0  0  1  0  0  0  0  0999 V2000
   36.5620   27.9350   38.9310 N   0  0  0  0  0  0  0  0  0  0  0  0
   35.9360   27.3040   37.8260 C   0  0  0  0  0  0  0  0  0  0  0  0
   35.1080   28.2310   36.9710 C   0  0  0  0  0  0  0  0  0  0  0  0
   35.6660   29.6380   36.8600 C   0  0  0  0  0  0  0  0  0  0  0  0
   37.0060   29.7500   37.5670 C   0  0  0  0  0  0  0  0  0  0  0  0
   36.6610   29.3000   39.0450 C   0  0  2  0  0  0  0  0  0  0  0  0
   36.7720   26.8910   37.1900 H   0  0  0  0  0  0  0  0  0  0  0  0
   35.3010   26.4410   38.0670 H   0  0  0  0  0  0  0  0  0  0  0  0
   35.1190   27.8110   35.9280 H   0  0  0  0  0  0  0  0  0  0  0  0
   34.0420   28.2140   37.2720 H   0  0  0  0  0  0  0  0  0  0  0  0
   34.9550   30.2980   37.4050 H   0  0  0  0  0  0  0  0  0  0  0  0
   35.7160   29.9910   35.8130 H   0  0  0  0  0  0  0  0  0  0  0  0
   37.7170   29.0360   37.1490 H   0  0  0  0  0  0  0  0  0  0  0  0
   37.3130   30.7970   37.5820 H   0  0  0  0  0  0  0  0  0  0  0  0
   35.7550   29.8670   39.3420 H   0  0  0  0  0  0  0  0  0  0  0  0
   36.5930   27.1360   40.1310 C   0  0  0  0  0  0  0  0  0  0  0  0
   35.7410   26.4080   40.0470 H   0  0  0  0  0  0  0  0  0  0  0  0
   36.3520   27.8080   40.9820 H   0  0  0  0  0  0  0  0  0  0  0  0
   37.9200   26.4740   40.2120 C   0  0  0  0  0  0  0  0  0  0  0  0
   38.5960   26.8640   39.4370 H   0  0  0  0  0  0  0  0  0  0  0  0
   38.3990   26.6200   41.2220 H   0  0  0  0  0  0  0  0  0  0  0  0
   36.3290   23.0890   39.9290 C   0  0  0  0  0  0  0  0  0  0  0  0
   36.5050   24.4810   40.0560 C   0  0  0  0  0  0  0  0  0  0  0  0
   37.7610   25.0080   40.0770 C   0  0  0  0  0  0  0  0  0  0  0  0
   38.7830   24.1610   39.9750 N   0  0  0  0  0  0  0  0  0  0  0  0
   38.6360   22.8350   39.8540 C   0  0  0  0  0  0  0  0  0  0  0  0
   37.4100   22.2810   39.8300 N   0  0  0  0  0  0  0  0  0  0  0  0
   35.3290   22.6810   39.9130 H   0  0  0  0  0  0  0  0  0  0  0  0
   35.5870   25.0640   40.1310 H   0  0  0  0  0  0  0  0  0  0  0  0
   39.5880   22.3300   39.7860 H   0  0  0  0  0  0  0  0  0  0  0  0
   37.8000   29.7160   39.7100 O   0  0  0  0  0  0  0  0  0  0  0  0
   38.0570   30.4210   42.2620 O   0  0  0  0  0  0  0  0  0  0  0  0
   37.4700   30.8410   40.9180 P   0  0  2  0  0  0  0  0  0  0  0  0
   35.7780   30.7820   41.1590 O   0  0  0  0  0  0  0  0  0  0  0  0
   35.3310   31.3840   40.5090 H   0  0  0  0  0  0  0  0  0  0  0  0
   37.8800   32.3950   40.5000 O   0  0  0  0  0  0  0  0  0  0  0  0
   39.0510   32.7560   41.1480 C   0  0  0  0  0  0  0  0  0  0  0  0
   39.5090   31.9490   41.7250 H   0  0  0  0  0  0  0  0  0  0  0  0
   38.8180   33.5900   41.8490 H   0  0  0  0  0  0  0  0  0  0  0  0
   39.9510   33.3060   40.1430 N   0  0  0  0  0  0  0  0  0  0  0  0
   40.2450   34.6320   40.1580 C   0  0  0  0  0  0  0  0  0  0  0  0
   39.8890   35.4020   40.8550 H   0  0  0  0  0  0  0  0  0  0  0  0
   41.0950   34.9190   39.1400 N   0  0  0  0  0  0  0  0  0  0  0  0
   41.3370   33.7560   38.4750 C   0  0  0  0  0  0  0  0  0  0  0  0
   42.0850   33.3520   37.3800 C   0  0  0  0  0  0  0  0  0  0  0  0
   42.0660   32.0580   37.0140 N   0  0  0  0  0  0  0  0  0  0  0  0
   41.3560   31.1340   37.6600 C   0  0  0  0  0  0  0  0  0  0  0  0
   41.4450   30.1490   37.2470 H   0  0  0  0  0  0  0  0  0  0  0  0
   40.6180   31.4740   38.7230 N   0  0  0  0  0  0  0  0  0  0  0  0
   40.6100   32.7530   39.1190 C   0  0  0  0  0  0  0  0  0  0  0  0
   42.8300   34.3550   36.7130 N   0  0  0  0  0  0  0  0  0  0  0  0
   43.7680   34.8010   36.9030 H   0  0  0  0  0  0  0  0  0  0  0  0
   42.7500   34.9660   35.8780 H   0  0  0  0  0  0  0  0  0  0  0  0
  1  6  1  0  0  0  0
  1 16  1  0  0  0  0
  2  8  1  0  0  0  0
  2  1  1  0  0  0  0
  3 10  1  0  0  0  0
  3  2  1  0  0  0  0
  4  3  1  0  0  0  0
  4 11  1  0  0  0  0
  4  5  1  0  0  0  0
  5 14  1  0  0  0  0
  5  6  1  0  0  0  0
  6 15  1  1  0  0  0
  6 31  1  0  0  0  0
  7  2  1  0  0  0  0
  9  3  1  0  0  0  0
 12  4  1  0  0  0  0
 13  5  1  0  0  0  0
 16 19  1  0  0  0  0
 16 18  1  0  0  0  0
 17 16  1  0  0  0  0
 19 21  1  0  0  0  0
 20 19  1  0  0  0  0
 22 23  1  0  0  0  0
 23 24  2  0  0  0  0
 23 29  1  0  0  0  0
 24 19  1  0  0  0  0
 25 24  1  0  0  0  0
 26 25  2  0  0  0  0
 27 26  1  0  0  0  0
 27 22  2  0  0  0  0
 28 22  1  0  0  0  0
 30 26  1  0  0  0  0
 31 33  1  0  0  0  0
 33 34  1  0  0  0  0
 33 32  2  1  0  0  0
 35 34  1  0  0  0  0
 36 33  1  0  0  0  0
 36 37  1  0  0  0  0
 37 38  1  0  0  0  0
 37 39  1  0  0  0  0
 40 41  1  0  0  0  0
 40 37  1  0  0  0  0
 41 42  1  0  0  0  0
 43 41  2  0  0  0  0
 44 50  1  0  0  0  0
 44 43  1  0  0  0  0
 45 44  2  0  0  0  0
 46 45  1  0  0  0  0
 46 47  2  0  0  0  0
 47 49  1  0  0  0  0
 48 47  1  0  0  0  0
 49 50  2  0  0  0  0
 50 40  1  0  0  0  0
 51 52  1  0  0  0  0
 51 45  1  0  0  0  0
 53 51  1  0  0  0  0
M  END
>  <minimizedAffinity>
-5.87022114

$$$$
