
 OpenBabel03252502173D

 29 31  0  0  0  0  0  0  0  0999 V2000
   37.0180   27.3260   42.4780 C   0  0  0  0  0  0  0  0  0  0  0  0
   37.4120   27.9950   41.3210 C   0  0  0  0  0  0  0  0  0  0  0  0
   38.7300   28.4660   41.2410 C   0  0  0  0  0  0  0  0  0  0  0  0
   39.5390   28.2400   42.2970 N   0  0  0  0  0  0  0  0  0  0  0  0
   39.1400   27.5930   43.4060 C   0  0  0  0  0  0  0  0  0  0  0  0
   37.8680   27.1330   43.4930 N   0  0  0  0  0  0  0  0  0  0  0  0
   36.0190   26.9220   42.6400 H   0  0  0  0  0  0  0  0  0  0  0  0
   39.7880   27.4110   44.2530 H   0  0  0  0  0  0  0  0  0  0  0  0
   39.1060   29.1390   40.0650 N   0  0  0  0  0  0  0  0  0  0  0  0
   39.4670   28.5540   38.8860 C   0  0  0  0  0  0  0  0  0  0  0  0
   39.5270   27.5010   38.6470 H   0  0  0  0  0  0  0  0  0  0  0  0
   39.7510   29.5690   38.0230 N   0  0  0  0  0  0  0  0  0  0  0  0
   39.5730   30.7510   38.6420 C   0  0  0  0  0  0  0  0  0  0  0  0
   39.6980   32.0620   38.2990 C   0  0  0  0  0  0  0  0  0  0  0  0
   39.4490   33.0630   39.1390 N   0  0  0  0  0  0  0  0  0  0  0  0
   39.0480   32.7610   40.4090 C   0  0  0  0  0  0  0  0  0  0  0  0
   38.8690   33.6430   41.0190 H   0  0  0  0  0  0  0  0  0  0  0  0
   38.9130   31.4900   40.7860 N   0  0  0  0  0  0  0  0  0  0  0  0
   39.1620   30.4860   39.9480 C   0  0  0  0  0  0  0  0  0  0  0  0
   40.1150   32.3540   36.9770 N   0  0  0  0  0  0  0  0  0  0  0  0
   40.8490   32.8140   36.3930 H   0  0  0  0  0  0  0  0  0  0  0  0
   39.4360   31.9670   36.2760 H   0  0  0  0  0  0  0  0  0  0  0  0
   36.4550   28.1440   40.3250 O   0  0  0  0  0  0  0  0  0  0  0  0
   35.9500   30.2950   38.8780 O   0  0  0  0  0  0  0  0  0  0  0  0
   35.5710   29.6040   40.1550 P   0  0  0  0  0  0  0  0  0  0  0  0
   33.9050   29.2760   40.0780 O   0  0  0  0  0  0  0  0  0  0  0  0
   33.3750   29.7690   40.7280 H   0  0  0  0  0  0  0  0  0  0  0  0
   35.8760   30.6400   41.4480 O   0  0  0  0  0  0  0  0  0  0  0  0
   36.6210   31.2500   41.2800 H   0  0  0  0  0  0  0  0  0  0  0  0
  1  7  1  0  0  0  0
  1  6  1  0  0  0  0
  2  1  2  0  0  0  0
  3  2  1  0  0  0  0
  3  4  2  0  0  0  0
  4  5  1  0  0  0  0
  5  6  2  0  0  0  0
  5  8  1  0  0  0  0
  9  3  1  0  0  0  0
 10  9  1  0  0  0  0
 11 10  1  0  0  0  0
 12 13  1  0  0  0  0
 12 10  2  0  0  0  0
 13 19  1  0  0  0  0
 14 13  2  0  0  0  0
 14 15  1  0  0  0  0
 15 16  2  0  0  0  0
 16 18  1  0  0  0  0
 16 17  1  0  0  0  0
 19  9  1  0  0  0  0
 19 18  2  0  0  0  0
 20 14  1  0  0  0  0
 21 20  1  0  0  0  0
 22 20  1  0  0  0  0
 23  2  1  0  0  0  0
 24 25  2  0  0  0  0
 25 23  1  0  0  0  0
 25 28  1  0  0  0  0
 26 25  1  0  0  0  0
 26 27  1  0  0  0  0
 29 28  1  0  0  0  0
M  END
>  <minimizedAffinity>
-5.66568136

$$$$

 OpenBabel03252502173D

 29 31  0  0  0  0  0  0  0  0999 V2000
   39.0500   29.6380   42.4220 C   0  0  0  0  0  0  0  0  0  0  0  0
   39.3780   30.4390   41.3290 C   0  0  0  0  0  0  0  0  0  0  0  0
   40.4100   30.0170   40.4800 C   0  0  0  0  0  0  0  0  0  0  0  0
   41.0240   28.8520   40.7760 N   0  0  0  0  0  0  0  0  0  0  0  0
   40.6940   28.0930   41.8360 C   0  0  0  0  0  0  0  0  0  0  0  0
   39.6980   28.4920   42.6630 N   0  0  0  0  0  0  0  0  0  0  0  0
   38.2660   29.8760   43.1400 H   0  0  0  0  0  0  0  0  0  0  0  0
   41.1870   27.1600   42.0730 H   0  0  0  0  0  0  0  0  0  0  0  0
   40.7240   30.8400   39.3850 N   0  0  0  0  0  0  0  0  0  0  0  0
   40.2170   30.7260   38.1230 C   0  0  0  0  0  0  0  0  0  0  0  0
   39.5030   30.0070   37.7470 H   0  0  0  0  0  0  0  0  0  0  0  0
   40.7890   31.7200   37.3870 N   0  0  0  0  0  0  0  0  0  0  0  0
   41.6270   32.4320   38.1620 C   0  0  0  0  0  0  0  0  0  0  0  0
   42.4480   33.5030   37.9880 C   0  0  0  0  0  0  0  0  0  0  0  0
   43.1920   34.0190   38.9620 N   0  0  0  0  0  0  0  0  0  0  0  0
   43.1290   33.4460   40.2000 C   0  0  0  0  0  0  0  0  0  0  0  0
   43.7710   33.9370   40.9280 H   0  0  0  0  0  0  0  0  0  0  0  0
   42.3390   32.3950   40.4150 N   0  0  0  0  0  0  0  0  0  0  0  0
   41.5930   31.8760   39.4410 C   0  0  0  0  0  0  0  0  0  0  0  0
   42.4990   34.0820   36.6960 N   0  0  0  0  0  0  0  0  0  0  0  0
   43.1150   34.3130   35.8850 H   0  0  0  0  0  0  0  0  0  0  0  0
   41.5530   34.4310   36.4050 H   0  0  0  0  0  0  0  0  0  0  0  0
   38.6460   31.6090   41.1670 O   0  0  0  0  0  0  0  0  0  0  0  0
   37.0840   30.6410   39.2690 O   0  0  0  0  0  0  0  0  0  0  0  0
   37.0970   31.5920   40.4290 P   0  0  0  0  0  0  0  0  0  0  0  0
   35.9250   31.0550   41.5360 O   0  0  0  0  0  0  0  0  0  0  0  0
   35.1730   31.6630   41.6410 H   0  0  0  0  0  0  0  0  0  0  0  0
   36.6820   33.1290   39.8800 O   0  0  0  0  0  0  0  0  0  0  0  0
   36.9530   33.2890   38.9540 H   0  0  0  0  0  0  0  0  0  0  0  0
  1  6  1  0  0  0  0
  1  7  1  0  0  0  0
  2  1  2  0  0  0  0
  3  4  2  0  0  0  0
  3  2  1  0  0  0  0
  4  5  1  0  0  0  0
  5  8  1  0  0  0  0
  5  6  2  0  0  0  0
  9 19  1  0  0  0  0
  9  3  1  0  0  0  0
 10  9  1  0  0  0  0
 11 10  1  0  0  0  0
 12 10  2  0  0  0  0
 12 13  1  0  0  0  0
 13 19  1  0  0  0  0
 14 13  2  0  0  0  0
 14 15  1  0  0  0  0
 15 16  2  0  0  0  0
 16 18  1  0  0  0  0
 16 17  1  0  0  0  0
 19 18  2  0  0  0  0
 20 14  1  0  0  0  0
 21 20  1  0  0  0  0
 22 20  1  0  0  0  0
 23  2  1  0  0  0  0
 24 25  2  0  0  0  0
 25 23  1  0  0  0  0
 25 26  1  0  0  0  0
 26 27  1  0  0  0  0
 28 25  1  0  0  0  0
 29 28  1  0  0  0  0
M  END
>  <minimizedAffinity>
-5.50899982

$$$$

 OpenBabel03252502173D

 29 31  0  0  0  0  0  0  0  0999 V2000
   37.5450   29.9770   38.2970 C   0  0  0  0  0  0  0  0  0  0  0  0
   38.0760   29.1630   39.2940 C   0  0  0  0  0  0  0  0  0  0  0  0
   38.5950   27.9130   38.9280 C   0  0  0  0  0  0  0  0  0  0  0  0
   38.5470   27.5760   37.6230 N   0  0  0  0  0  0  0  0  0  0  0  0
   38.0290   28.3750   36.6730 C   0  0  0  0  0  0  0  0  0  0  0  0
   37.5250   29.5850   37.0170 N   0  0  0  0  0  0  0  0  0  0  0  0
   37.1170   30.9630   38.4760 H   0  0  0  0  0  0  0  0  0  0  0  0
   37.9900   28.1050   35.6260 H   0  0  0  0  0  0  0  0  0  0  0  0
   39.1260   27.1080   39.9510 N   0  0  0  0  0  0  0  0  0  0  0  0
   40.3680   27.2260   40.5030 C   0  0  0  0  0  0  0  0  0  0  0  0
   41.1470   27.9370   40.2640 H   0  0  0  0  0  0  0  0  0  0  0  0
   40.4640   26.2510   41.4500 N   0  0  0  0  0  0  0  0  0  0  0  0
   39.3180   25.5450   41.4890 C   0  0  0  0  0  0  0  0  0  0  0  0
   38.8440   24.4900   42.2060 C   0  0  0  0  0  0  0  0  0  0  0  0
   37.6300   23.9760   42.0320 N   0  0  0  0  0  0  0  0  0  0  0  0
   36.8180   24.5340   41.0870 C   0  0  0  0  0  0  0  0  0  0  0  0
   35.8480   24.0460   41.0200 H   0  0  0  0  0  0  0  0  0  0  0  0
   37.2420   25.5690   40.3620 N   0  0  0  0  0  0  0  0  0  0  0  0
   38.4570   26.0850   40.5340 C   0  0  0  0  0  0  0  0  0  0  0  0
   39.7030   23.9260   43.1820 N   0  0  0  0  0  0  0  0  0  0  0  0
   40.2020   23.0600   43.4850 H   0  0  0  0  0  0  0  0  0  0  0  0
   39.9620   24.6370   43.9090 H   0  0  0  0  0  0  0  0  0  0  0  0
   38.0490   29.6610   40.5910 O   0  0  0  0  0  0  0  0  0  0  0  0
   35.7590   28.4500   41.1100 O   0  0  0  0  0  0  0  0  0  0  0  0
   36.6160   29.6070   41.5330 P   0  0  0  0  0  0  0  0  0  0  0  0
   36.9990   29.3800   43.1730 O   0  0  0  0  0  0  0  0  0  0  0  0
   36.6110   30.0480   43.7650 H   0  0  0  0  0  0  0  0  0  0  0  0
   35.7340   31.0320   41.3590 O   0  0  0  0  0  0  0  0  0  0  0  0
   35.0790   30.9880   40.6350 H   0  0  0  0  0  0  0  0  0  0  0  0
  1  7  1  0  0  0  0
  1  2  1  0  0  0  0
  2 23  1  0  0  0  0
  3  2  2  0  0  0  0
  3  9  1  0  0  0  0
  4  3  1  0  0  0  0
  5  6  1  0  0  0  0
  5  4  2  0  0  0  0
  6  1  2  0  0  0  0
  8  5  1  0  0  0  0
  9 10  1  0  0  0  0
  9 19  1  0  0  0  0
 10 12  2  0  0  0  0
 11 10  1  0  0  0  0
 12 13  1  0  0  0  0
 13 14  1  0  0  0  0
 14 20  1  0  0  0  0
 15 14  2  0  0  0  0
 16 15  1  0  0  0  0
 17 16  1  0  0  0  0
 18 19  1  0  0  0  0
 18 16  2  0  0  0  0
 19 13  2  0  0  0  0
 20 21  1  0  0  0  0
 20 22  1  0  0  0  0
 23 25  1  0  0  0  0
 24 25  2  0  0  0  0
 25 26  1  0  0  0  0
 26 27  1  0  0  0  0
 28 25  1  0  0  0  0
 29 28  1  0  0  0  0
M  END
>  <minimizedAffinity>
-5.34397888

$$$$

 OpenBabel03252502173D

 29 31  0  0  0  0  0  0  0  0999 V2000
   36.8910   29.7250   35.7860 C   0  0  0  0  0  0  0  0  0  0  0  0
   37.0270   29.7210   37.1720 C   0  0  0  0  0  0  0  0  0  0  0  0
   35.9130   29.3760   37.9500 C   0  0  0  0  0  0  0  0  0  0  0  0
   34.7700   29.0680   37.3010 N   0  0  0  0  0  0  0  0  0  0  0  0
   34.6580   29.0780   35.9600 C   0  0  0  0  0  0  0  0  0  0  0  0
   35.7290   29.4100   35.2000 N   0  0  0  0  0  0  0  0  0  0  0  0
   37.6940   29.9780   35.0940 H   0  0  0  0  0  0  0  0  0  0  0  0
   33.7430   28.8320   35.4400 H   0  0  0  0  0  0  0  0  0  0  0  0
   36.0720   29.3790   39.3470 N   0  0  0  0  0  0  0  0  0  0  0  0
   35.9210   30.4570   40.1700 C   0  0  0  0  0  0  0  0  0  0  0  0
   35.6590   31.4730   39.9080 H   0  0  0  0  0  0  0  0  0  0  0  0
   36.1670   30.0140   41.4340 N   0  0  0  0  0  0  0  0  0  0  0  0
   36.4620   28.7010   41.4040 C   0  0  0  0  0  0  0  0  0  0  0  0
   36.7840   27.7490   42.3220 C   0  0  0  0  0  0  0  0  0  0  0  0
   37.0360   26.4830   42.0030 N   0  0  0  0  0  0  0  0  0  0  0  0
   36.9690   26.1180   40.6890 C   0  0  0  0  0  0  0  0  0  0  0  0
   37.1900   25.0650   40.5300 H   0  0  0  0  0  0  0  0  0  0  0  0
   36.6570   27.0180   39.7570 N   0  0  0  0  0  0  0  0  0  0  0  0
   36.4040   28.2860   40.0730 C   0  0  0  0  0  0  0  0  0  0  0  0
   36.8480   28.1490   43.6800 N   0  0  0  0  0  0  0  0  0  0  0  0
   37.4630   28.2280   44.5200 H   0  0  0  0  0  0  0  0  0  0  0  0
   35.9230   28.5200   44.0050 H   0  0  0  0  0  0  0  0  0  0  0  0
   38.2740   30.0630   37.6820 O   0  0  0  0  0  0  0  0  0  0  0  0
   39.5680   31.8650   39.1160 O   0  0  0  0  0  0  0  0  0  0  0  0
   38.7310   31.7040   37.8810 P   0  0  0  0  0  0  0  0  0  0  0  0
   39.6720   32.2160   36.5620 O   0  0  0  0  0  0  0  0  0  0  0  0
   39.3380   33.0180   36.1250 H   0  0  0  0  0  0  0  0  0  0  0  0
   37.3710   32.6910   38.0110 O   0  0  0  0  0  0  0  0  0  0  0  0
   37.0800   32.8180   38.9350 H   0  0  0  0  0  0  0  0  0  0  0  0
  1  2  1  0  0  0  0
  2 23  1  0  0  0  0
  2  3  2  0  0  0  0
  3  9  1  0  0  0  0
  4  3  1  0  0  0  0
  5  4  2  0  0  0  0
  6  1  2  0  0  0  0
  6  5  1  0  0  0  0
  7  1  1  0  0  0  0
  8  5  1  0  0  0  0
  9 19  1  0  0  0  0
  9 10  1  0  0  0  0
 10 12  2  0  0  0  0
 11 10  1  0  0  0  0
 13 12  1  0  0  0  0
 13 14  1  0  0  0  0
 14 20  1  0  0  0  0
 15 14  2  0  0  0  0
 16 15  1  0  0  0  0
 17 16  1  0  0  0  0
 18 19  1  0  0  0  0
 18 16  2  0  0  0  0
 19 13  2  0  0  0  0
 20 22  1  0  0  0  0
 20 21  1  0  0  0  0
 23 25  1  0  0  0  0
 25 28  1  0  0  0  0
 25 24  2  0  0  0  0
 26 25  1  0  0  0  0
 27 26  1  0  0  0  0
 28 29  1  0  0  0  0
M  END
>  <minimizedAffinity>
-5.29525852

$$$$

 OpenBabel03252502173D

 29 31  0  0  0  0  0  0  0  0999 V2000
   38.9180   23.5010   40.2270 C   0  0  0  0  0  0  0  0  0  0  0  0
   38.5820   24.7730   40.6850 C   0  0  0  0  0  0  0  0  0  0  0  0
   37.2310   25.1480   40.6770 C   0  0  0  0  0  0  0  0  0  0  0  0
   36.3360   24.2470   40.2230 N   0  0  0  0  0  0  0  0  0  0  0  0
   36.6800   23.0230   39.7840 C   0  0  0  0  0  0  0  0  0  0  0  0
   37.9820   22.6500   39.7880 N   0  0  0  0  0  0  0  0  0  0  0  0
   39.9360   23.1130   40.1920 H   0  0  0  0  0  0  0  0  0  0  0  0
   35.9620   22.3000   39.4190 H   0  0  0  0  0  0  0  0  0  0  0  0
   36.9150   26.4360   41.1430 N   0  0  0  0  0  0  0  0  0  0  0  0
   36.8880   26.8340   42.4480 C   0  0  0  0  0  0  0  0  0  0  0  0
   37.0990   26.2510   43.3340 H   0  0  0  0  0  0  0  0  0  0  0  0
   36.5350   28.1490   42.4440 N   0  0  0  0  0  0  0  0  0  0  0  0
   36.3460   28.5620   41.1760 C   0  0  0  0  0  0  0  0  0  0  0  0
   35.9960   29.7290   40.5700 C   0  0  0  0  0  0  0  0  0  0  0  0
   35.8790   29.8600   39.2510 N   0  0  0  0  0  0  0  0  0  0  0  0
   36.1230   28.7700   38.4660 C   0  0  0  0  0  0  0  0  0  0  0  0
   36.0030   28.9760   37.4050 H   0  0  0  0  0  0  0  0  0  0  0  0
   36.4690   27.6080   39.0190 N   0  0  0  0  0  0  0  0  0  0  0  0
   36.5860   27.4730   40.3380 C   0  0  0  0  0  0  0  0  0  0  0  0
   35.7470   30.8470   41.4030 N   0  0  0  0  0  0  0  0  0  0  0  0
   35.0360   31.5540   41.6980 H   0  0  0  0  0  0  0  0  0  0  0  0
   36.5990   31.0930   41.9640 H   0  0  0  0  0  0  0  0  0  0  0  0
   39.6270   25.5800   41.1200 O   0  0  0  0  0  0  0  0  0  0  0  0
   41.8800   25.1890   42.4420 O   0  0  0  0  0  0  0  0  0  0  0  0
   40.3950   25.3010   42.6280 P   0  0  0  0  0  0  0  0  0  0  0  0
   40.1150   26.6070   43.6790 O   0  0  0  0  0  0  0  0  0  0  0  0
   39.7380   26.3480   44.5380 H   0  0  0  0  0  0  0  0  0  0  0  0
   39.8240   23.8830   43.3360 O   0  0  0  0  0  0  0  0  0  0  0  0
   40.3520   23.0970   43.0940 H   0  0  0  0  0  0  0  0  0  0  0  0
  1  2  1  0  0  0  0
  2 23  1  0  0  0  0
  3  2  2  0  0  0  0
  3  9  1  0  0  0  0
  4  3  1  0  0  0  0
  5  6  1  0  0  0  0
  5  4  2  0  0  0  0
  6  1  2  0  0  0  0
  7  1  1  0  0  0  0
  8  5  1  0  0  0  0
  9 10  1  0  0  0  0
 10 11  1  0  0  0  0
 12 10  2  0  0  0  0
 13 12  1  0  0  0  0
 14 13  1  0  0  0  0
 14 20  1  0  0  0  0
 15 14  2  0  0  0  0
 16 18  2  0  0  0  0
 16 15  1  0  0  0  0
 17 16  1  0  0  0  0
 18 19  1  0  0  0  0
 19  9  1  0  0  0  0
 19 13  2  0  0  0  0
 20 21  1  0  0  0  0
 20 22  1  0  0  0  0
 23 25  1  0  0  0  0
 24 25  2  0  0  0  0
 25 28  1  0  0  0  0
 25 26  1  0  0  0  0
 26 27  1  0  0  0  0
 29 28  1  0  0  0  0
M  END
>  <minimizedAffinity>
-5.28032446

$$$$

 OpenBabel03252502173D

 29 31  0  0  0  0  0  0  0  0999 V2000
   37.1050   30.0340   41.3570 C   0  0  0  0  0  0  0  0  0  0  0  0
   37.8050   30.9320   40.5550 C   0  0  0  0  0  0  0  0  0  0  0  0
   39.0920   31.3190   40.9550 C   0  0  0  0  0  0  0  0  0  0  0  0
   39.5730   30.7940   42.1010 N   0  0  0  0  0  0  0  0  0  0  0  0
   38.8810   29.9280   42.8640 C   0  0  0  0  0  0  0  0  0  0  0  0
   37.6370   29.5470   42.4840 N   0  0  0  0  0  0  0  0  0  0  0  0
   36.1020   29.6710   41.1350 H   0  0  0  0  0  0  0  0  0  0  0  0
   39.2660   29.5070   43.7820 H   0  0  0  0  0  0  0  0  0  0  0  0
   39.7800   32.2270   40.1320 N   0  0  0  0  0  0  0  0  0  0  0  0
   39.8050   33.5830   40.2770 C   0  0  0  0  0  0  0  0  0  0  0  0
   39.3170   34.1890   41.0270 H   0  0  0  0  0  0  0  0  0  0  0  0
   40.5870   34.0650   39.2700 N   0  0  0  0  0  0  0  0  0  0  0  0
   41.0360   33.0420   38.5190 C   0  0  0  0  0  0  0  0  0  0  0  0
   41.8260   32.9110   37.4180 C   0  0  0  0  0  0  0  0  0  0  0  0
   42.1170   31.7370   36.8640 N   0  0  0  0  0  0  0  0  0  0  0  0
   41.5970   30.6070   37.4270 C   0  0  0  0  0  0  0  0  0  0  0  0
   41.8910   29.6990   36.9050 H   0  0  0  0  0  0  0  0  0  0  0  0
   40.8180   30.6900   38.5050 N   0  0  0  0  0  0  0  0  0  0  0  0
   40.5260   31.8630   39.0620 C   0  0  0  0  0  0  0  0  0  0  0  0
   42.3550   34.0960   36.8500 N   0  0  0  0  0  0  0  0  0  0  0  0
   42.3930   34.6910   35.9930 H   0  0  0  0  0  0  0  0  0  0  0  0
   42.9580   34.6060   37.5410 H   0  0  0  0  0  0  0  0  0  0  0  0
   37.1650   31.3780   39.4050 O   0  0  0  0  0  0  0  0  0  0  0  0
   37.5320   31.2770   36.7910 O   0  0  0  0  0  0  0  0  0  0  0  0
   37.1510   30.4340   37.9730 P   0  0  0  0  0  0  0  0  0  0  0  0
   38.2890   29.1770   38.0870 O   0  0  0  0  0  0  0  0  0  0  0  0
   37.9190   28.2930   37.9210 H   0  0  0  0  0  0  0  0  0  0  0  0
   35.6220   29.7790   37.7060 O   0  0  0  0  0  0  0  0  0  0  0  0
   35.0540   30.3500   37.1530 H   0  0  0  0  0  0  0  0  0  0  0  0
  1  6  1  0  0  0  0
  2  3  1  0  0  0  0
  2  1  2  0  0  0  0
  3  4  2  0  0  0  0
  4  5  1  0  0  0  0
  5  8  1  0  0  0  0
  6  5  2  0  0  0  0
  7  1  1  0  0  0  0
  9 10  1  0  0  0  0
  9  3  1  0  0  0  0
 10 11  1  0  0  0  0
 12 10  2  0  0  0  0
 13 19  1  0  0  0  0
 13 12  1  0  0  0  0
 14 13  2  0  0  0  0
 15 14  1  0  0  0  0
 15 16  2  0  0  0  0
 16 18  1  0  0  0  0
 17 16  1  0  0  0  0
 18 19  2  0  0  0  0
 19  9  1  0  0  0  0
 20 14  1  0  0  0  0
 20 22  1  0  0  0  0
 21 20  1  0  0  0  0
 23  2  1  0  0  0  0
 24 25  2  0  0  0  0
 25 26  1  0  0  0  0
 25 23  1  0  0  0  0
 27 26  1  0  0  0  0
 28 25  1  0  0  0  0
 29 28  1  0  0  0  0
M  END
>  <minimizedAffinity>
-5.25768852

$$$$

 OpenBabel03252502173D

 29 31  0  0  0  0  0  0  0  0999 V2000
   38.4580   25.9350   40.3870 C   0  0  0  0  0  0  0  0  0  0  0  0
   37.9300   27.2140   40.2290 C   0  0  0  0  0  0  0  0  0  0  0  0
   38.5330   28.0730   39.3000 C   0  0  0  0  0  0  0  0  0  0  0  0
   39.5940   27.6030   38.6130 N   0  0  0  0  0  0  0  0  0  0  0  0
   40.0910   26.3640   38.7800 C   0  0  0  0  0  0  0  0  0  0  0  0
   39.5150   25.5260   39.6750 N   0  0  0  0  0  0  0  0  0  0  0  0
   38.0640   25.1920   41.0810 H   0  0  0  0  0  0  0  0  0  0  0  0
   40.9420   25.9870   38.2290 H   0  0  0  0  0  0  0  0  0  0  0  0
   37.9840   29.3600   39.1570 N   0  0  0  0  0  0  0  0  0  0  0  0
   36.9770   29.7130   38.3080 C   0  0  0  0  0  0  0  0  0  0  0  0
   36.4320   29.0890   37.6120 H   0  0  0  0  0  0  0  0  0  0  0  0
   36.7630   31.0450   38.4950 N   0  0  0  0  0  0  0  0  0  0  0  0
   37.6110   31.5110   39.4310 C   0  0  0  0  0  0  0  0  0  0  0  0
   37.8570   32.7160   40.0150 C   0  0  0  0  0  0  0  0  0  0  0  0
   38.7880   32.8990   40.9470 N   0  0  0  0  0  0  0  0  0  0  0  0
   39.5340   31.8250   41.3390 C   0  0  0  0  0  0  0  0  0  0  0  0
   40.2660   32.0740   42.1040 H   0  0  0  0  0  0  0  0  0  0  0  0
   39.3270   30.6270   40.7940 N   0  0  0  0  0  0  0  0  0  0  0  0
   38.3950   30.4410   39.8600 C   0  0  0  0  0  0  0  0  0  0  0  0
   37.0710   33.8170   39.5930 N   0  0  0  0  0  0  0  0  0  0  0  0
   37.0910   34.7660   39.1580 H   0  0  0  0  0  0  0  0  0  0  0  0
   36.0530   33.6430   39.7790 H   0  0  0  0  0  0  0  0  0  0  0  0
   36.8320   27.5420   41.0160 O   0  0  0  0  0  0  0  0  0  0  0  0
   38.4430   27.9910   43.0620 O   0  0  0  0  0  0  0  0  0  0  0  0
   37.0310   28.1900   42.5910 P   0  0  0  0  0  0  0  0  0  0  0  0
   36.7340   29.8640   42.5790 O   0  0  0  0  0  0  0  0  0  0  0  0
   36.0690   30.1520   43.2280 H   0  0  0  0  0  0  0  0  0  0  0  0
   35.9830   27.4460   43.6800 O   0  0  0  0  0  0  0  0  0  0  0  0
   36.3780   26.6660   44.1160 H   0  0  0  0  0  0  0  0  0  0  0  0
  1  7  1  0  0  0  0
  2  1  1  0  0  0  0
  2 23  1  0  0  0  0
  3  2  2  0  0  0  0
  4  5  2  0  0  0  0
  4  3  1  0  0  0  0
  5  6  1  0  0  0  0
  6  1  2  0  0  0  0
  8  5  1  0  0  0  0
  9  3  1  0  0  0  0
  9 19  1  0  0  0  0
 10 12  2  0  0  0  0
 10  9  1  0  0  0  0
 11 10  1  0  0  0  0
 12 13  1  0  0  0  0
 13 19  2  0  0  0  0
 13 14  1  0  0  0  0
 14 15  2  0  0  0  0
 15 16  1  0  0  0  0
 16 17  1  0  0  0  0
 18 16  2  0  0  0  0
 19 18  1  0  0  0  0
 20 22  1  0  0  0  0
 20 14  1  0  0  0  0
 21 20  1  0  0  0  0
 23 25  1  0  0  0  0
 25 24  2  0  0  0  0
 25 28  1  0  0  0  0
 26 25  1  0  0  0  0
 26 27  1  0  0  0  0
 28 29  1  0  0  0  0
M  END
>  <minimizedAffinity>
-5.19313335

$$$$

 OpenBabel03252502173D

 29 31  0  0  0  0  0  0  0  0999 V2000
   38.7230   30.0100   42.4990 C   0  0  0  0  0  0  0  0  0  0  0  0
   38.7260   29.9530   41.1070 C   0  0  0  0  0  0  0  0  0  0  0  0
   38.5270   28.7100   40.4910 C   0  0  0  0  0  0  0  0  0  0  0  0
   38.3410   27.6400   41.2910 N   0  0  0  0  0  0  0  0  0  0  0  0
   38.3410   27.7140   42.6340 C   0  0  0  0  0  0  0  0  0  0  0  0
   38.5330   28.9110   43.2390 N   0  0  0  0  0  0  0  0  0  0  0  0
   38.8690   30.9240   43.0730 H   0  0  0  0  0  0  0  0  0  0  0  0
   38.1930   26.8560   43.2760 H   0  0  0  0  0  0  0  0  0  0  0  0
   38.5350   28.6750   39.0850 N   0  0  0  0  0  0  0  0  0  0  0  0
   39.6240   28.4480   38.2950 C   0  0  0  0  0  0  0  0  0  0  0  0
   40.6460   28.2590   38.5940 H   0  0  0  0  0  0  0  0  0  0  0  0
   39.1830   28.5020   37.0070 N   0  0  0  0  0  0  0  0  0  0  0  0
   37.8610   28.7560   36.9920 C   0  0  0  0  0  0  0  0  0  0  0  0
   36.9070   28.9170   36.0350 C   0  0  0  0  0  0  0  0  0  0  0  0
   35.6310   29.1690   36.3110 N   0  0  0  0  0  0  0  0  0  0  0  0
   35.2580   29.2710   37.6210 C   0  0  0  0  0  0  0  0  0  0  0  0
   34.1970   29.4770   37.7450 H   0  0  0  0  0  0  0  0  0  0  0  0
   36.1600   29.1210   38.5900 N   0  0  0  0  0  0  0  0  0  0  0  0
   37.4380   28.8680   38.3160 C   0  0  0  0  0  0  0  0  0  0  0  0
   37.3150   28.8070   34.6830 N   0  0  0  0  0  0  0  0  0  0  0  0
   37.3810   29.3020   33.7650 H   0  0  0  0  0  0  0  0  0  0  0  0
   37.7180   27.8570   34.4890 H   0  0  0  0  0  0  0  0  0  0  0  0
   38.9310   31.1490   40.4300 O   0  0  0  0  0  0  0  0  0  0  0  0
   37.4580   32.3980   38.6280 O   0  0  0  0  0  0  0  0  0  0  0  0
   37.6310   32.2210   40.1080 P   0  0  0  0  0  0  0  0  0  0  0  0
   36.1780   31.5800   40.7140 O   0  0  0  0  0  0  0  0  0  0  0  0
   35.6990   32.1830   41.3090 H   0  0  0  0  0  0  0  0  0  0  0  0
   37.9110   33.7270   40.8100 O   0  0  0  0  0  0  0  0  0  0  0  0
   38.3710   34.3470   40.2100 H   0  0  0  0  0  0  0  0  0  0  0  0
  1  7  1  0  0  0  0
  1  6  1  0  0  0  0
  2  1  2  0  0  0  0
  3  2  1  0  0  0  0
  3  4  2  0  0  0  0
  4  5  1  0  0  0  0
  5  6  2  0  0  0  0
  5  8  1  0  0  0  0
  9  3  1  0  0  0  0
 10 11  1  0  0  0  0
 10  9  1  0  0  0  0
 12 10  2  0  0  0  0
 13 12  1  0  0  0  0
 13 19  1  0  0  0  0
 14 15  1  0  0  0  0
 14 13  2  0  0  0  0
 15 16  2  0  0  0  0
 16 17  1  0  0  0  0
 16 18  1  0  0  0  0
 19 18  2  0  0  0  0
 19  9  1  0  0  0  0
 20 14  1  0  0  0  0
 21 20  1  0  0  0  0
 22 20  1  0  0  0  0
 23  2  1  0  0  0  0
 24 25  2  0  0  0  0
 25 23  1  0  0  0  0
 25 26  1  0  0  0  0
 25 28  1  0  0  0  0
 26 27  1  0  0  0  0
 29 28  1  0  0  0  0
M  END
>  <minimizedAffinity>
-5.1743741

$$$$

 OpenBabel03252502173D

 29 31  0  0  0  0  0  0  0  0999 V2000
   36.9710   26.3450   40.6770 C   0  0  0  0  0  0  0  0  0  0  0  0
   37.3670   27.6340   41.0300 C   0  0  0  0  0  0  0  0  0  0  0  0
   38.7280   27.9580   40.9460 C   0  0  0  0  0  0  0  0  0  0  0  0
   39.5740   26.9950   40.5250 N   0  0  0  0  0  0  0  0  0  0  0  0
   39.1730   25.7560   40.1890 C   0  0  0  0  0  0  0  0  0  0  0  0
   37.8600   25.4330   40.2670 N   0  0  0  0  0  0  0  0  0  0  0  0
   35.9400   25.9930   40.7070 H   0  0  0  0  0  0  0  0  0  0  0  0
   39.8510   24.9840   39.8520 H   0  0  0  0  0  0  0  0  0  0  0  0
   39.1050   29.2630   41.3070 N   0  0  0  0  0  0  0  0  0  0  0  0
   39.2170   29.7440   42.5790 C   0  0  0  0  0  0  0  0  0  0  0  0
   39.0430   29.2260   43.5120 H   0  0  0  0  0  0  0  0  0  0  0  0
   39.6050   31.0450   42.4680 N   0  0  0  0  0  0  0  0  0  0  0  0
   39.7310   31.3690   41.1670 C   0  0  0  0  0  0  0  0  0  0  0  0
   40.0770   32.4830   40.4660 C   0  0  0  0  0  0  0  0  0  0  0  0
   40.1200   32.5260   39.1380 N   0  0  0  0  0  0  0  0  0  0  0  0
   39.8020   31.3950   38.4410 C   0  0  0  0  0  0  0  0  0  0  0  0
   39.8670   31.5280   37.3640 H   0  0  0  0  0  0  0  0  0  0  0  0
   39.4580   30.2820   39.0880 N   0  0  0  0  0  0  0  0  0  0  0  0
   39.4140   30.2360   40.4180 C   0  0  0  0  0  0  0  0  0  0  0  0
   40.4030   33.6450   41.2090 N   0  0  0  0  0  0  0  0  0  0  0  0
   40.1510   34.6420   41.3920 H   0  0  0  0  0  0  0  0  0  0  0  0
   41.2250   33.4700   41.8370 H   0  0  0  0  0  0  0  0  0  0  0  0
   36.3680   28.5070   41.4430 O   0  0  0  0  0  0  0  0  0  0  0  0
   36.2430   29.4540   38.9790 O   0  0  0  0  0  0  0  0  0  0  0  0
   35.6430   29.6090   40.3460 P   0  0  0  0  0  0  0  0  0  0  0  0
   33.9790   29.2910   40.2070 O   0  0  0  0  0  0  0  0  0  0  0  0
   33.4140   30.0640   40.3760 H   0  0  0  0  0  0  0  0  0  0  0  0
   35.8650   31.1970   40.8630 O   0  0  0  0  0  0  0  0  0  0  0  0
   36.6760   31.6060   40.5010 H   0  0  0  0  0  0  0  0  0  0  0  0
  1  7  1  0  0  0  0
  1  2  1  0  0  0  0
  2 23  1  0  0  0  0
  3  2  2  0  0  0  0
  3  9  1  0  0  0  0
  4  3  1  0  0  0  0
  5  6  1  0  0  0  0
  5  4  2  0  0  0  0
  6  1  2  0  0  0  0
  8  5  1  0  0  0  0
  9 10  1  0  0  0  0
 10 11  1  0  0  0  0
 12 10  2  0  0  0  0
 13 12  1  0  0  0  0
 14 13  1  0  0  0  0
 14 20  1  0  0  0  0
 15 14  2  0  0  0  0
 16 18  2  0  0  0  0
 16 15  1  0  0  0  0
 17 16  1  0  0  0  0
 18 19  1  0  0  0  0
 19 13  2  0  0  0  0
 19  9  1  0  0  0  0
 20 21  1  0  0  0  0
 20 22  1  0  0  0  0
 24 25  2  0  0  0  0
 25 28  1  0  0  0  0
 25 23  1  0  0  0  0
 26 25  1  0  0  0  0
 26 27  1  0  0  0  0
 29 28  1  0  0  0  0
M  END
>  <minimizedAffinity>
-5.08633995

$$$$
