
 OpenBabel03252509033D

 53 56  0  0  1  0  0  0  0  0999 V2000
   46.7440   34.3560   43.4710 N   0  0  0  0  0  0  0  0  0  0  0  0
   46.4800   34.9510   42.2120 C   0  0  0  0  0  0  0  0  0  0  0  0
   45.0230   34.9580   41.8230 C   0  0  0  0  0  0  0  0  0  0  0  0
   44.0690   35.1320   42.9910 C   0  0  0  0  0  0  0  0  0  0  0  0
   44.8290   35.3670   44.2860 C   0  0  0  0  0  0  0  0  0  0  0  0
   45.7550   34.0860   44.3850 C   0  0  2  0  0  0  0  0  0  0  0  0
   46.8270   36.0230   42.2960 H   0  0  0  0  0  0  0  0  0  0  0  0
   47.0350   34.5340   41.3610 H   0  0  0  0  0  0  0  0  0  0  0  0
   44.8650   35.8510   41.1600 H   0  0  0  0  0  0  0  0  0  0  0  0
   44.7700   34.0860   41.1890 H   0  0  0  0  0  0  0  0  0  0  0  0
   43.5320   34.1640   43.1010 H   0  0  0  0  0  0  0  0  0  0  0  0
   43.3120   35.9170   42.8040 H   0  0  0  0  0  0  0  0  0  0  0  0
   45.4700   36.2460   44.1960 H   0  0  0  0  0  0  0  0  0  0  0  0
   44.1250   35.3560   45.1180 H   0  0  0  0  0  0  0  0  0  0  0  0
   45.0990   33.2110   44.2030 H   0  0  0  0  0  0  0  0  0  0  0  0
   47.9590   33.5790   43.5170 C   0  0  0  0  0  0  0  0  0  0  0  0
   48.1770   33.3990   44.6050 H   0  0  0  0  0  0  0  0  0  0  0  0
   48.7770   34.2250   43.1330 H   0  0  0  0  0  0  0  0  0  0  0  0
   47.7370   32.3270   42.7510 C   0  0  0  0  0  0  0  0  0  0  0  0
   47.6140   31.4720   43.4310 H   0  0  0  0  0  0  0  0  0  0  0  0
   46.8280   32.4000   42.0860 H   0  0  0  0  0  0  0  0  0  0  0  0
   51.2260   32.1420   41.3850 C   0  0  0  0  0  0  0  0  0  0  0  0
   50.1350   32.3520   42.2520 C   0  0  0  0  0  0  0  0  0  0  0  0
   48.8670   32.0980   41.8220 C   0  0  0  0  0  0  0  0  0  0  0  0
   48.7200   31.6540   40.5750 N   0  0  0  0  0  0  0  0  0  0  0  0
   49.7450   31.4480   39.7370 C   0  0  0  0  0  0  0  0  0  0  0  0
   51.0090   31.6890   40.1290 N   0  0  0  0  0  0  0  0  0  0  0  0
   52.2270   32.3450   41.7360 H   0  0  0  0  0  0  0  0  0  0  0  0
   50.3910   32.7170   43.2460 H   0  0  0  0  0  0  0  0  0  0  0  0
   49.4100   31.0880   38.7760 H   0  0  0  0  0  0  0  0  0  0  0  0
   46.1770   34.1800   45.6980 O   0  0  0  0  0  0  0  0  0  0  0  0
   45.6550   31.5730   45.5960 O   0  0  0  0  0  0  0  0  0  0  0  0
   46.0660   32.7150   46.5200 P   0  0  2  0  0  0  0  0  0  0  0  0
   44.7470   32.8840   47.5950 O   0  0  0  0  0  0  0  0  0  0  0  0
   45.0600   33.3070   48.4370 H   0  0  0  0  0  0  0  0  0  0  0  0
   47.4200   32.3580   47.4140 O   0  0  0  0  0  0  0  0  0  0  0  0
   47.7350   31.0170   47.2620 C   0  0  0  0  0  0  0  0  0  0  0  0
   48.1740   30.7680   46.2940 H   0  0  0  0  0  0  0  0  0  0  0  0
   46.7980   30.4240   47.3770 H   0  0  0  0  0  0  0  0  0  0  0  0
   48.5930   30.6440   48.3790 N   0  0  0  0  0  0  0  0  0  0  0  0
   49.0010   31.5950   49.2590 C   0  0  0  0  0  0  0  0  0  0  0  0
   48.7710   32.6670   49.2600 H   0  0  0  0  0  0  0  0  0  0  0  0
   49.7850   31.0250   50.2090 N   0  0  0  0  0  0  0  0  0  0  0  0
   49.8700   29.6970   49.9200 C   0  0  0  0  0  0  0  0  0  0  0  0
   50.4880   28.5800   50.4620 C   0  0  0  0  0  0  0  0  0  0  0  0
   50.3280   27.3870   49.8620 N   0  0  0  0  0  0  0  0  0  0  0  0
   49.5960   27.2220   48.7610 C   0  0  0  0  0  0  0  0  0  0  0  0
   49.5660   26.2130   48.4050 H   0  0  0  0  0  0  0  0  0  0  0  0
   48.9800   28.2700   48.2000 N   0  0  0  0  0  0  0  0  0  0  0  0
   49.1150   29.4750   48.7680 C   0  0  0  0  0  0  0  0  0  0  0  0
   51.2600   28.7840   51.6330 N   0  0  0  0  0  0  0  0  0  0  0  0
   51.0090   28.8590   52.6550 H   0  0  0  0  0  0  0  0  0  0  0  0
   52.2520   28.9210   51.9020 H   0  0  0  0  0  0  0  0  0  0  0  0
  1 16  1  0  0  0  0
  1  6  1  0  0  0  0
  2  7  1  0  0  0  0
  2  1  1  0  0  0  0
  3  2  1  0  0  0  0
  3  4  1  0  0  0  0
  4 11  1  0  0  0  0
  4  5  1  0  0  0  0
  5  6  1  0  0  0  0
  5 14  1  0  0  0  0
  6 15  1  6  0  0  0
  6 31  1  0  0  0  0
  8  2  1  0  0  0  0
  9  3  1  0  0  0  0
 10  3  1  0  0  0  0
 12  4  1  0  0  0  0
 13  5  1  0  0  0  0
 16 17  1  0  0  0  0
 18 16  1  0  0  0  0
 19 20  1  0  0  0  0
 19 16  1  0  0  0  0
 21 19  1  0  0  0  0
 22 28  1  0  0  0  0
 22 23  1  0  0  0  0
 23 29  1  0  0  0  0
 24 23  2  0  0  0  0
 24 19  1  0  0  0  0
 25 24  1  0  0  0  0
 26 27  1  0  0  0  0
 26 25  2  0  0  0  0
 27 22  2  0  0  0  0
 30 26  1  0  0  0  0
 31 33  1  0  0  0  0
 33 32  2  6  0  0  0
 33 36  1  0  0  0  0
 33 34  1  0  0  0  0
 34 35  1  0  0  0  0
 37 39  1  0  0  0  0
 37 36  1  0  0  0  0
 37 40  1  0  0  0  0
 38 37  1  0  0  0  0
 40 50  1  0  0  0  0
 40 41  1  0  0  0  0
 41 42  1  0  0  0  0
 41 43  2  0  0  0  0
 44 43  1  0  0  0  0
 44 45  1  0  0  0  0
 45 51  1  0  0  0  0
 46 45  2  0  0  0  0
 47 46  1  0  0  0  0
 48 47  1  0  0  0  0
 49 47  2  0  0  0  0
 49 50  1  0  0  0  0
 50 44  2  0  0  0  0
 51 53  1  0  0  0  0
 51 52  1  0  0  0  0
M  END
>  <minimizedAffinity>
-5.52470398

>  <minimizedRMSD>
3.00235367

$$$$
