REMARK  Name = 
REMARK  10 active torsions:
REMARK  status: ('A' for Active; 'I' for Inactive)
REMARK    1  A    between atoms: N_1  and  C_7
REMARK    2  A    between atoms: C_6  and  O_15
REMARK    3  A    between atoms: C_7  and  C_8
REMARK    4  A    between atoms: C_8  and  C_11
REMARK    5  A    between atoms: O_15  and  P_17
REMARK    6  A    between atoms: P_17  and  O_18
REMARK    7  A    between atoms: P_17  and  O_19
REMARK    8  A    between atoms: O_19  and  C_20
REMARK    9  A    between atoms: C_20  and  N_40
REMARK   10  A    between atoms: C_45  and  N_46
REMARK                            x       y       z     vdW  Elec       q    Type
REMARK                         _______ _______ _______ _____ _____    ______ ____
ROOT
ATOM      1  N   UNL     1      47.146  34.153  43.069  0.00  0.00    +0.000 NA
ATOM      2  C   UNL     1      46.656  35.365  42.521  0.00  0.00    +0.000 C 
ATOM      3  C   UNL     1      45.177  35.583  42.722  0.00  0.00    +0.000 C 
ATOM      4  C   UNL     1      44.642  35.041  44.035  0.00  0.00    +0.000 C 
ATOM      5  C   UNL     1      45.767  34.490  44.896  0.00  0.00    +0.000 C 
ATOM      6  C   UNL     1      46.422  33.396  43.957  0.00  0.00    +0.000 C 
ATOM      7  H   UNL     1      47.209  36.193  43.053  0.00  0.00    +0.000 HD
ATOM      8  H   UNL     1      46.858  35.522  41.453  0.00  0.00    +0.000 HD
ATOM      9  H   UNL     1      45.011  36.694  42.756  0.00  0.00    +0.000 HD
ATOM     10  H   UNL     1      44.595  35.236  41.846  0.00  0.00    +0.000 HD
ATOM     11  H   UNL     1      43.984  34.183  43.773  0.00  0.00    +0.000 HD
ATOM     12  H   UNL     1      44.027  35.782  44.578  0.00  0.00    +0.000 HD
ATOM     13  H   UNL     1      46.511  35.264  45.090  0.00  0.00    +0.000 HD
ATOM     14  H   UNL     1      45.337  33.993  45.766  0.00  0.00    +0.000 HD
ATOM     15  H   UNL     1      45.588  32.782  43.562  0.00  0.00    +0.000 HD
ENDROOT
BRANCH   1  16
ATOM     16  C   UNL     1      48.154  33.504  42.267  0.00  0.00    +0.000 C 
ATOM     17  H   UNL     1      48.794  32.916  42.980  0.00  0.00    +0.000 HD
ATOM     18  H   UNL     1      48.802  34.301  41.844  0.00  0.00    +0.000 HD
BRANCH  16  19
ATOM     19  C   UNL     1      47.468  32.654  41.261  0.00  0.00    +0.000 C 
ATOM     20  H   UNL     1      47.586  31.589  41.507  0.00  0.00    +0.000 HD
ATOM     21  H   UNL     1      46.368  32.894  41.192  0.00  0.00    +0.000 HD
BRANCH  19  24
ATOM     22  C   UNL     1      49.337  32.275  38.031  0.00  0.00    +0.000 A 
ATOM     23  C   UNL     1      48.816  32.023  39.315  0.00  0.00    +0.000 A 
ATOM     24  C   UNL     1      48.003  32.941  39.910  0.00  0.00    +0.000 A 
ATOM     25  N   UNL     1      47.737  34.055  39.232  0.00  0.00    +0.000 NA
ATOM     26  C   UNL     1      48.223  34.312  38.010  0.00  0.00    +0.000 A 
ATOM     27  N   UNL     1      49.028  33.428  37.394  0.00  0.00    +0.000 NA
ATOM     28  H   UNL     1      49.980  31.541  37.567  0.00  0.00    +0.000 HD
ATOM     29  H   UNL     1      49.110  31.074  39.762  0.00  0.00    +0.000 HD
ATOM     30  H   UNL     1      47.887  35.268  37.638  0.00  0.00    +0.000 HD
ENDBRANCH  19  24
ENDBRANCH  16  19
ENDBRANCH   1  16
BRANCH   6  31
ATOM     31  O   UNL     1      47.207  32.716  44.870  0.00  0.00    +0.000 OA
BRANCH  31  33
ATOM     32  O   UNL     1      46.039  30.539  43.883  0.00  0.00    +0.000 OA
ATOM     33  P   UNL     1      46.679  31.139  45.131  0.00  0.00    +0.000 P 
BRANCH  33  34
ATOM     34  O   UNL     1      45.391  31.260  46.250  0.00  0.00    +0.000 OA
ATOM     35  H   UNL     1      45.756  31.266  47.173  0.00  0.00    +0.000 HD
ENDBRANCH  33  34
BRANCH  33  36
ATOM     36  O   UNL     1      47.845  30.155  45.787  0.00  0.00    +0.000 OA
BRANCH  36  37
ATOM     37  C   UNL     1      47.765  28.896  45.214  0.00  0.00    +0.000 C 
ATOM     38  H   UNL     1      47.816  28.898  44.123  0.00  0.00    +0.000 HD
ATOM     39  H   UNL     1      46.793  28.439  45.511  0.00  0.00    +0.000 HD
BRANCH  37  40
ATOM     40  N   UNL     1      48.804  28.076  45.822  0.00  0.00    +0.000 N 
ATOM     41  C   UNL     1      49.373  27.071  45.106  0.00  0.00    +0.000 A 
ATOM     42  H   UNL     1      49.158  26.762  44.075  0.00  0.00    +0.000 HD
ATOM     43  N   UNL     1      50.307  26.447  45.866  0.00  0.00    +0.000 NA
ATOM     44  C   UNL     1      50.325  27.068  47.077  0.00  0.00    +0.000 A 
ATOM     45  C   UNL     1      51.017  26.939  48.272  0.00  0.00    +0.000 A 
ATOM     46  N   UNL     1      50.740  27.779  49.284  0.00  0.00    +0.000 NA
ATOM     47  C   UNL     1      49.822  28.741  49.195  0.00  0.00    +0.000 A 
ATOM     48  H   UNL     1      49.718  29.327  50.087  0.00  0.00    +0.000 HD
ATOM     49  N   UNL     1      49.127  28.906  48.063  0.00  0.00    +0.000 NA
ATOM     50  C   UNL     1      49.375  28.089  47.032  0.00  0.00    +0.000 A 
BRANCH  45  51
ATOM     51  N   UNL     1      51.987  25.908  48.338  0.00  0.00    +0.000 N 
ATOM     52  H   UNL     1      52.989  25.842  48.012  0.00  0.00    +0.000 HD
ATOM     53  H   UNL     1      52.074  24.937  48.690  0.00  0.00    +0.000 HD
ENDBRANCH  45  51
ENDBRANCH  37  40
ENDBRANCH  36  37
ENDBRANCH  33  36
ENDBRANCH  31  33
ENDBRANCH   6  31
TORSDOF 10
