
 OpenBabel03242517273D

 45 48  0  0  1  0  0  0  0  0999 V2000
   44.9830   34.5920   44.9280 C   0  0  0  0  0  0  0  0  0  0  0  0
   45.9140   34.5850   43.8480 C   0  0  0  0  0  0  0  0  0  0  0  0
   47.0420   33.7660   43.9720 C   0  0  0  0  0  0  0  0  0  0  0  0
   47.1930   33.0310   45.0950 N   0  0  0  0  0  0  0  0  0  0  0  0
   46.3000   33.0510   46.1090 C   0  0  0  0  0  0  0  0  0  0  0  0
   45.2220   33.8320   45.9940 N   0  0  0  0  0  0  0  0  0  0  0  0
   46.5260   32.2670   47.2330 N   0  0  0  0  0  0  0  0  0  0  0  0
   47.7240   32.4390   48.0100 C   0  0  0  0  0  0  0  0  0  0  0  0
   48.0130   31.2990   48.9310 C   0  0  0  0  0  0  0  0  0  0  0  0
   46.8870   30.6110   49.4640 N   0  0  0  0  0  0  0  0  0  0  0  0
   45.6370   31.1920   49.1150 C   0  0  0  0  0  0  0  0  0  0  0  0
   45.5250   31.2580   47.6200 C   0  0  2  0  0  0  0  0  0  0  0  0
   44.1300   35.2410   44.7820 H   0  0  0  0  0  0  0  0  0  0  0  0
   45.8460   35.1430   42.9390 H   0  0  0  0  0  0  0  0  0  0  0  0
   47.8080   33.6880   43.2080 H   0  0  0  0  0  0  0  0  0  0  0  0
   48.6260   32.6310   47.3950 H   0  0  0  0  0  0  0  0  0  0  0  0
   47.5760   33.3370   48.6470 H   0  0  0  0  0  0  0  0  0  0  0  0
   48.6740   30.5790   48.3790 H   0  0  0  0  0  0  0  0  0  0  0  0
   48.6400   31.6960   49.7730 H   0  0  0  0  0  0  0  0  0  0  0  0
   46.9280   30.5680   50.5160 H   0  0  0  0  0  0  0  0  0  0  0  0
   44.8250   30.5680   49.5760 H   0  0  0  0  0  0  0  0  0  0  0  0
   45.4830   32.2090   49.5240 H   0  0  0  0  0  0  0  0  0  0  0  0
   44.5300   31.6300   47.2810 H   0  0  0  0  0  0  0  0  0  0  0  0
   45.7760   29.9410   46.9570 C   0  0  0  0  0  0  0  0  0  0  0  0
   45.4750   29.9580   45.8970 H   0  0  0  0  0  0  0  0  0  0  0  0
   46.8340   29.6050   47.0460 H   0  0  0  0  0  0  0  0  0  0  0  0
   44.8500   28.9380   47.6100 C   0  0  0  0  0  0  0  0  0  0  0  0
   45.1820   27.6740   47.7530 C   0  0  0  0  0  0  0  0  0  0  0  0
   44.3080   26.6370   48.3910 C   0  0  0  0  0  0  0  0  0  0  0  0
   44.8050   26.3100   49.3260 H   0  0  0  0  0  0  0  0  0  0  0  0
   43.3860   27.1910   48.7270 H   0  0  0  0  0  0  0  0  0  0  0  0
   43.9960   25.5540   47.5050 N   0  0  0  0  0  0  0  0  0  0  0  0
   44.8260   24.5510   47.1620 C   0  0  0  0  0  0  0  0  0  0  0  0
   45.8590   24.3930   47.4910 H   0  0  0  0  0  0  0  0  0  0  0  0
   44.1990   23.6980   46.3020 N   0  0  0  0  0  0  0  0  0  0  0  0
   42.9660   24.1610   46.1000 C   0  0  0  0  0  0  0  0  0  0  0  0
   41.8970   23.7290   45.3450 C   0  0  0  0  0  0  0  0  0  0  0  0
   40.7280   24.4300   45.3360 N   0  0  0  0  0  0  0  0  0  0  0  0
   40.6100   25.5530   46.0660 C   0  0  0  0  0  0  0  0  0  0  0  0
   39.6700   26.1110   46.0540 H   0  0  0  0  0  0  0  0  0  0  0  0
   41.6630   25.9720   46.8040 N   0  0  0  0  0  0  0  0  0  0  0  0
   42.8440   25.3260   46.8570 C   0  0  0  0  0  0  0  0  0  0  0  0
   41.9630   22.5530   44.5560 N   0  0  0  0  0  0  0  0  0  0  0  0
   41.1910   21.8370   44.4330 H   0  0  0  0  0  0  0  0  0  0  0  0
   42.6910   22.1160   43.9520 H   0  0  0  0  0  0  0  0  0  0  0  0
  1  6  1  0  0  0  0
  2  3  1  0  0  0  0
  2  1  2  0  0  0  0
  3  4  2  0  0  0  0
  4  5  1  0  0  0  0
  5  7  1  0  0  0  0
  6  5  2  0  0  0  0
  7 12  1  0  0  0  0
  7  8  1  0  0  0  0
  8 17  1  0  0  0  0
  8  9  1  0  0  0  0
  9 10  1  0  0  0  0
  9 19  1  0  0  0  0
 10 20  1  0  0  0  0
 11 10  1  0  0  0  0
 11 22  1  0  0  0  0
 11 21  1  0  0  0  0
 12 23  1  6  0  0  0
 12 11  1  0  0  0  0
 13  1  1  0  0  0  0
 14  2  1  0  0  0  0
 15  3  1  0  0  0  0
 16  8  1  0  0  0  0
 18  9  1  0  0  0  0
 24 26  1  0  0  0  0
 24 27  1  0  0  0  0
 24 12  1  0  0  0  0
 25 24  1  0  0  0  0
 27 28  2  0  0  0  0
 28 29  1  0  0  0  0
 29 31  1  0  0  0  0
 29 30  1  0  0  0  0
 32 29  1  0  0  0  0
 33 34  1  0  0  0  0
 33 32  1  0  0  0  0
 35 33  2  0  0  0  0
 36 35  1  0  0  0  0
 36 42  1  0  0  0  0
 37 36  2  0  0  0  0
 38 37  1  0  0  0  0
 38 39  2  0  0  0  0
 39 41  1  0  0  0  0
 40 39  1  0  0  0  0
 41 42  2  0  0  0  0
 42 32  1  0  0  0  0
 43 37  1  0  0  0  0
 44 43  1  0  0  0  0
 45 43  1  0  0  0  0
M  END
>  <minimizedAffinity>
-5.85973215

>  <minimizedRMSD>
0.530643106

$$$$
