
 OpenBabel03252507093D

 29 31  0  0  0  0  0  0  0  0999 V2000
   37.3390   28.5080   43.6790 C   0  0  0  0  0  0  0  0  0  0  0  0
   37.0410   27.1430   43.4470 C   0  0  0  0  0  0  0  0  0  0  0  0
   37.2600   26.6350   42.1630 C   0  0  0  0  0  0  0  0  0  0  0  0
   37.7480   27.4830   41.2060 N   0  0  0  0  0  0  0  0  0  0  0  0
   38.0170   28.7680   41.4660 C   0  0  0  0  0  0  0  0  0  0  0  0
   37.8200   29.2870   42.6870 N   0  0  0  0  0  0  0  0  0  0  0  0
   37.1860   28.9450   44.6580 H   0  0  0  0  0  0  0  0  0  0  0  0
   36.6520   26.5450   44.2810 H   0  0  0  0  0  0  0  0  0  0  0  0
   38.5100   29.4150   40.2980 N   0  0  0  0  0  0  0  0  0  0  0  0
   38.7840   28.7320   39.1520 C   0  0  0  0  0  0  0  0  0  0  0  0
   38.6700   27.6530   38.9740 H   0  0  0  0  0  0  0  0  0  0  0  0
   39.2430   29.5720   38.1800 N   0  0  0  0  0  0  0  0  0  0  0  0
   39.2480   30.7810   38.7460 C   0  0  0  0  0  0  0  0  0  0  0  0
   39.5860   32.0490   38.3420 C   0  0  0  0  0  0  0  0  0  0  0  0
   39.5010   33.1410   39.1190 N   0  0  0  0  0  0  0  0  0  0  0  0
   39.0530   32.9880   40.3920 C   0  0  0  0  0  0  0  0  0  0  0  0
   38.9830   33.8680   41.0240 H   0  0  0  0  0  0  0  0  0  0  0  0
   38.7100   31.7670   40.8330 N   0  0  0  0  0  0  0  0  0  0  0  0
   38.8000   30.7020   40.0510 C   0  0  0  0  0  0  0  0  0  0  0  0
   40.0600   32.2900   37.0380 N   0  0  0  0  0  0  0  0  0  0  0  0
   39.9220   32.6120   36.0720 H   0  0  0  0  0  0  0  0  0  0  0  0
   41.0620   32.0000   37.0160 H   0  0  0  0  0  0  0  0  0  0  0  0
   36.9630   25.2990   41.9520 O   0  0  0  0  0  0  0  0  0  0  0  0
   37.6440   22.9570   40.9240 O   0  0  0  0  0  0  0  0  0  0  0  0
   38.2320   24.2290   41.5100 P   0  0  0  0  0  0  0  0  0  0  0  0
   39.2270   25.0210   40.4110 O   0  0  0  0  0  0  0  0  0  0  0  0
   40.1790   24.7720   40.6320 H   0  0  0  0  0  0  0  0  0  0  0  0
   39.0620   23.8140   42.9220 O   0  0  0  0  0  0  0  0  0  0  0  0
   39.8250   23.1940   42.7190 H   0  0  0  0  0  0  0  0  0  0  0  0
  1  7  1  0  0  0  0
  2  1  1  0  0  0  0
  2  8  1  0  0  0  0
  3  2  2  0  0  0  0
  4  5  2  0  0  0  0
  4  3  1  0  0  0  0
  5  6  1  0  0  0  0
  6  1  2  0  0  0  0
  9  5  1  0  0  0  0
 10  9  1  0  0  0  0
 11 10  1  0  0  0  0
 12 13  1  0  0  0  0
 12 10  2  0  0  0  0
 13 19  1  0  0  0  0
 14 13  2  0  0  0  0
 14 15  1  0  0  0  0
 15 16  2  0  0  0  0
 16 18  1  0  0  0  0
 16 17  1  0  0  0  0
 19  9  1  0  0  0  0
 19 18  2  0  0  0  0
 20 14  1  0  0  0  0
 21 20  1  0  0  0  0
 22 20  1  0  0  0  0
 23  3  1  0  0  0  0
 24 25  2  0  0  0  0
 25 23  1  0  0  0  0
 25 28  1  0  0  0  0
 26 27  1  0  0  0  0
 26 25  1  0  0  0  0
 29 28  1  0  0  0  0
M  END
>  <minimizedAffinity>
-5.81637764

$$$$

 OpenBabel03252507093D

 29 31  0  0  0  0  0  0  0  0999 V2000
   36.0040   28.8650   37.5940 C   0  0  0  0  0  0  0  0  0  0  0  0
   36.5350   30.1760   37.6410 C   0  0  0  0  0  0  0  0  0  0  0  0
   37.5450   30.4400   38.5720 C   0  0  0  0  0  0  0  0  0  0  0  0
   37.9610   29.4190   39.3830 N   0  0  0  0  0  0  0  0  0  0  0  0
   37.4310   28.1920   39.3080 C   0  0  0  0  0  0  0  0  0  0  0  0
   36.4630   27.9050   38.4260 N   0  0  0  0  0  0  0  0  0  0  0  0
   35.2220   28.6140   36.8900 H   0  0  0  0  0  0  0  0  0  0  0  0
   36.1350   30.9270   36.9480 H   0  0  0  0  0  0  0  0  0  0  0  0
   38.0450   27.3300   40.2610 N   0  0  0  0  0  0  0  0  0  0  0  0
   39.1130   27.7230   41.0100 C   0  0  0  0  0  0  0  0  0  0  0  0
   39.6210   28.6970   40.9900 H   0  0  0  0  0  0  0  0  0  0  0  0
   39.5170   26.7230   41.8450 N   0  0  0  0  0  0  0  0  0  0  0  0
   38.6830   25.7110   41.5970 C   0  0  0  0  0  0  0  0  0  0  0  0
   38.5280   24.4320   42.0730 C   0  0  0  0  0  0  0  0  0  0  0  0
   37.5820   23.5750   41.6530 N   0  0  0  0  0  0  0  0  0  0  0  0
   36.7190   23.9950   40.6920 C   0  0  0  0  0  0  0  0  0  0  0  0
   35.9530   23.3070   40.3490 H   0  0  0  0  0  0  0  0  0  0  0  0
   36.8320   25.2380   40.1950 N   0  0  0  0  0  0  0  0  0  0  0  0
   37.7700   26.0680   40.6230 C   0  0  0  0  0  0  0  0  0  0  0  0
   39.3830   23.9220   43.0700 N   0  0  0  0  0  0  0  0  0  0  0  0
   39.5840   23.6730   44.0450 H   0  0  0  0  0  0  0  0  0  0  0  0
   40.2750   23.6550   42.6010 H   0  0  0  0  0  0  0  0  0  0  0  0
   38.0540   31.7270   38.6050 O   0  0  0  0  0  0  0  0  0  0  0  0
   38.7380   33.1160   40.7530 O   0  0  0  0  0  0  0  0  0  0  0  0
   37.5520   32.7830   39.8640 P   0  0  0  0  0  0  0  0  0  0  0  0
   36.8920   34.1600   39.1630 O   0  0  0  0  0  0  0  0  0  0  0  0
   36.0900   34.4250   39.7140 H   0  0  0  0  0  0  0  0  0  0  0  0
   36.4180   31.9520   40.8030 O   0  0  0  0  0  0  0  0  0  0  0  0
   36.0820   32.5300   41.5510 H   0  0  0  0  0  0  0  0  0  0  0  0
  1  2  2  0  0  0  0
  1  6  1  0  0  0  0
  2  3  1  0  0  0  0
  3 23  1  0  0  0  0
  3  4  2  0  0  0  0
  5  4  1  0  0  0  0
  5  9  1  0  0  0  0
  6  5  2  0  0  0  0
  7  1  1  0  0  0  0
  8  2  1  0  0  0  0
  9 19  1  0  0  0  0
  9 10  1  0  0  0  0
 10 12  2  0  0  0  0
 11 10  1  0  0  0  0
 13 12  1  0  0  0  0
 13 14  1  0  0  0  0
 14 20  1  0  0  0  0
 15 14  2  0  0  0  0
 16 15  1  0  0  0  0
 17 16  1  0  0  0  0
 18 19  1  0  0  0  0
 18 16  2  0  0  0  0
 19 13  2  0  0  0  0
 20 21  1  0  0  0  0
 22 20  1  0  0  0  0
 23 25  1  0  0  0  0
 25 24  2  0  0  0  0
 25 28  1  0  0  0  0
 26 27  1  0  0  0  0
 26 25  1  0  0  0  0
 28 29  1  0  0  0  0
M  END
>  <minimizedAffinity>
-5.66243982

$$$$

 OpenBabel03252507093D

 29 31  0  0  0  0  0  0  0  0999 V2000
   39.8370   27.5650   43.1930 C   0  0  0  0  0  0  0  0  0  0  0  0
   39.0000   26.4250   43.1310 C   0  0  0  0  0  0  0  0  0  0  0  0
   37.8230   26.5170   42.3830 C   0  0  0  0  0  0  0  0  0  0  0  0
   37.5460   27.7010   41.7540 N   0  0  0  0  0  0  0  0  0  0  0  0
   38.3640   28.7570   41.8380 C   0  0  0  0  0  0  0  0  0  0  0  0
   39.5020   28.7010   42.5460 N   0  0  0  0  0  0  0  0  0  0  0  0
   40.7580   27.5400   43.7600 H   0  0  0  0  0  0  0  0  0  0  0  0
   39.3090   25.5210   43.6710 H   0  0  0  0  0  0  0  0  0  0  0  0
   37.8370   29.8500   41.0930 N   0  0  0  0  0  0  0  0  0  0  0  0
   36.7290   29.7260   40.3100 C   0  0  0  0  0  0  0  0  0  0  0  0
   36.1210   28.8240   40.1520 H   0  0  0  0  0  0  0  0  0  0  0  0
   36.4260   30.9080   39.7020 N   0  0  0  0  0  0  0  0  0  0  0  0
   37.3640   31.7600   40.1220 C   0  0  0  0  0  0  0  0  0  0  0  0
   37.6500   33.0850   39.9030 C   0  0  0  0  0  0  0  0  0  0  0  0
   38.6840   33.7400   40.4580 N   0  0  0  0  0  0  0  0  0  0  0  0
   39.5060   33.0500   41.2910 C   0  0  0  0  0  0  0  0  0  0  0  0
   40.3430   33.5750   41.7420 H   0  0  0  0  0  0  0  0  0  0  0  0
   39.2670   31.7510   41.5350 N   0  0  0  0  0  0  0  0  0  0  0  0
   38.2420   31.1240   40.9780 C   0  0  0  0  0  0  0  0  0  0  0  0
   36.8460   33.8680   39.0530 N   0  0  0  0  0  0  0  0  0  0  0  0
   36.1110   34.5690   38.8980 H   0  0  0  0  0  0  0  0  0  0  0  0
   37.1160   33.6340   38.0730 H   0  0  0  0  0  0  0  0  0  0  0  0
   37.0150   25.3930   42.3330 O   0  0  0  0  0  0  0  0  0  0  0  0
   35.8000   23.8020   40.6000 O   0  0  0  0  0  0  0  0  0  0  0  0
   37.1710   24.3200   41.0000 P   0  0  0  0  0  0  0  0  0  0  0  0
   37.9160   25.1500   39.7430 O   0  0  0  0  0  0  0  0  0  0  0  0
   38.5580   24.5110   39.2990 H   0  0  0  0  0  0  0  0  0  0  0  0
   38.0930   23.0010   41.5160 O   0  0  0  0  0  0  0  0  0  0  0  0
   38.2250   22.3440   40.7680 H   0  0  0  0  0  0  0  0  0  0  0  0
  1  7  1  0  0  0  0
  2  1  1  0  0  0  0
  2  8  1  0  0  0  0
  3  2  2  0  0  0  0
  4  5  2  0  0  0  0
  4  3  1  0  0  0  0
  5  6  1  0  0  0  0
  6  1  2  0  0  0  0
  9  5  1  0  0  0  0
 10  9  1  0  0  0  0
 11 10  1  0  0  0  0
 12 13  1  0  0  0  0
 12 10  2  0  0  0  0
 13 19  1  0  0  0  0
 14 13  2  0  0  0  0
 14 15  1  0  0  0  0
 15 16  2  0  0  0  0
 16 18  1  0  0  0  0
 16 17  1  0  0  0  0
 19  9  1  0  0  0  0
 19 18  2  0  0  0  0
 20 14  1  0  0  0  0
 21 20  1  0  0  0  0
 22 20  1  0  0  0  0
 23  3  1  0  0  0  0
 24 25  2  0  0  0  0
 25 28  1  0  0  0  0
 25 23  1  0  0  0  0
 26 25  1  0  0  0  0
 27 26  1  0  0  0  0
 29 28  1  0  0  0  0
M  END
>  <minimizedAffinity>
-5.65796089

$$$$

 OpenBabel03252507093D

 29 31  0  0  0  0  0  0  0  0999 V2000
   39.6900   28.3840   42.8990 C   0  0  0  0  0  0  0  0  0  0  0  0
   39.4910   29.7230   42.4810 C   0  0  0  0  0  0  0  0  0  0  0  0
   38.6400   29.9500   41.3960 C   0  0  0  0  0  0  0  0  0  0  0  0
   38.0490   28.8700   40.7990 N   0  0  0  0  0  0  0  0  0  0  0  0
   38.2630   27.6180   41.2250 C   0  0  0  0  0  0  0  0  0  0  0  0
   39.0720   27.3660   42.2640 N   0  0  0  0  0  0  0  0  0  0  0  0
   40.3390   28.1600   43.7350 H   0  0  0  0  0  0  0  0  0  0  0  0
   40.0120   30.5210   43.0250 H   0  0  0  0  0  0  0  0  0  0  0  0
   37.5270   26.6950   40.4300 N   0  0  0  0  0  0  0  0  0  0  0  0
   36.6380   27.1020   39.4810 C   0  0  0  0  0  0  0  0  0  0  0  0
   36.3770   28.1350   39.2100 H   0  0  0  0  0  0  0  0  0  0  0  0
   36.0640   26.0320   38.8590 N   0  0  0  0  0  0  0  0  0  0  0  0
   36.6130   24.9630   39.4380 C   0  0  0  0  0  0  0  0  0  0  0  0
   36.4900   23.6030   39.2970 C   0  0  0  0  0  0  0  0  0  0  0  0
   37.1720   22.6990   40.0210 N   0  0  0  0  0  0  0  0  0  0  0  0
   38.0430   23.1560   40.9580 C   0  0  0  0  0  0  0  0  0  0  0  0
   38.5970   22.4300   41.5450 H   0  0  0  0  0  0  0  0  0  0  0  0
   38.1970   24.4790   41.1330 N   0  0  0  0  0  0  0  0  0  0  0  0
   37.5160   25.3530   40.4090 C   0  0  0  0  0  0  0  0  0  0  0  0
   35.6070   23.0510   38.3480 N   0  0  0  0  0  0  0  0  0  0  0  0
   35.4190   22.6090   37.4400 H   0  0  0  0  0  0  0  0  0  0  0  0
   34.6470   23.1100   38.7500 H   0  0  0  0  0  0  0  0  0  0  0  0
   38.4580   31.2640   40.9990 O   0  0  0  0  0  0  0  0  0  0  0  0
   36.8740   31.1990   38.8790 O   0  0  0  0  0  0  0  0  0  0  0  0
   36.9530   31.7180   40.3050 P   0  0  0  0  0  0  0  0  0  0  0  0
   35.7230   31.0950   41.2650 O   0  0  0  0  0  0  0  0  0  0  0  0
   34.9960   31.7920   41.3130 H   0  0  0  0  0  0  0  0  0  0  0  0
   36.9100   33.4060   40.2450 O   0  0  0  0  0  0  0  0  0  0  0  0
   36.0430   33.7270   39.8550 H   0  0  0  0  0  0  0  0  0  0  0  0
  1  7  1  0  0  0  0
  2  1  1  0  0  0  0
  2  8  1  0  0  0  0
  3  2  2  0  0  0  0
  4  5  2  0  0  0  0
  4  3  1  0  0  0  0
  5  6  1  0  0  0  0
  6  1  2  0  0  0  0
  9  5  1  0  0  0  0
 10  9  1  0  0  0  0
 11 10  1  0  0  0  0
 12 13  1  0  0  0  0
 12 10  2  0  0  0  0
 13 19  1  0  0  0  0
 14 13  2  0  0  0  0
 14 15  1  0  0  0  0
 15 16  2  0  0  0  0
 16 18  1  0  0  0  0
 16 17  1  0  0  0  0
 19  9  1  0  0  0  0
 19 18  2  0  0  0  0
 20 22  1  0  0  0  0
 20 14  1  0  0  0  0
 21 20  1  0  0  0  0
 23  3  1  0  0  0  0
 24 25  2  0  0  0  0
 25 23  1  0  0  0  0
 25 26  1  0  0  0  0
 26 27  1  0  0  0  0
 28 25  1  0  0  0  0
 29 28  1  0  0  0  0
M  END
>  <minimizedAffinity>
-5.57852364

$$$$

 OpenBabel03252507093D

 29 31  0  0  0  0  0  0  0  0999 V2000
   41.6290   27.8490   37.1460 C   0  0  0  0  0  0  0  0  0  0  0  0
   42.1170   29.0590   36.5940 C   0  0  0  0  0  0  0  0  0  0  0  0
   41.7650   30.2550   37.2260 C   0  0  0  0  0  0  0  0  0  0  0  0
   40.9710   30.1900   38.3390 N   0  0  0  0  0  0  0  0  0  0  0  0
   40.5300   29.0250   38.8300 C   0  0  0  0  0  0  0  0  0  0  0  0
   40.8510   27.8600   38.2480 N   0  0  0  0  0  0  0  0  0  0  0  0
   41.8760   26.8990   36.6910 H   0  0  0  0  0  0  0  0  0  0  0  0
   42.7470   29.0060   35.6970 H   0  0  0  0  0  0  0  0  0  0  0  0
   39.7300   29.2480   39.9850 N   0  0  0  0  0  0  0  0  0  0  0  0
   39.5920   30.4830   40.5450 C   0  0  0  0  0  0  0  0  0  0  0  0
   40.0480   31.4240   40.2060 H   0  0  0  0  0  0  0  0  0  0  0  0
   38.7780   30.4350   41.6380 N   0  0  0  0  0  0  0  0  0  0  0  0
   38.4180   29.1540   41.7430 C   0  0  0  0  0  0  0  0  0  0  0  0
   37.6290   28.4270   42.5990 C   0  0  0  0  0  0  0  0  0  0  0  0
   37.4130   27.1050   42.4950 N   0  0  0  0  0  0  0  0  0  0  0  0
   38.0150   26.4370   41.4770 C   0  0  0  0  0  0  0  0  0  0  0  0
   37.8440   25.3680   41.3880 H   0  0  0  0  0  0  0  0  0  0  0  0
   38.7970   27.1060   40.6130 N   0  0  0  0  0  0  0  0  0  0  0  0
   38.9970   28.4090   40.7330 C   0  0  0  0  0  0  0  0  0  0  0  0
   36.9720   29.0470   43.6800 N   0  0  0  0  0  0  0  0  0  0  0  0
   36.1310   29.4420   44.1190 H   0  0  0  0  0  0  0  0  0  0  0  0
   37.6810   29.1880   44.4310 H   0  0  0  0  0  0  0  0  0  0  0  0
   42.2490   31.4290   36.6730 O   0  0  0  0  0  0  0  0  0  0  0  0
   42.7160   32.8510   38.8560 O   0  0  0  0  0  0  0  0  0  0  0  0
   42.0010   32.9040   37.5170 P   0  0  0  0  0  0  0  0  0  0  0  0
   42.5690   34.1610   36.5560 O   0  0  0  0  0  0  0  0  0  0  0  0
   41.9240   34.9290   36.6530 H   0  0  0  0  0  0  0  0  0  0  0  0
   40.3440   33.0440   37.8200 O   0  0  0  0  0  0  0  0  0  0  0  0
   40.1410   33.8990   38.3040 H   0  0  0  0  0  0  0  0  0  0  0  0
  1  6  1  0  0  0  0
  2  1  2  0  0  0  0
  2  3  1  0  0  0  0
  3  4  2  0  0  0  0
  4  5  1  0  0  0  0
  5  9  1  0  0  0  0
  6  5  2  0  0  0  0
  7  1  1  0  0  0  0
  8  2  1  0  0  0  0
  9 10  1  0  0  0  0
  9 19  1  0  0  0  0
 10 12  2  0  0  0  0
 11 10  1  0  0  0  0
 12 13  1  0  0  0  0
 13 14  1  0  0  0  0
 14 20  1  0  0  0  0
 15 14  2  0  0  0  0
 16 15  1  0  0  0  0
 17 16  1  0  0  0  0
 18 19  1  0  0  0  0
 18 16  2  0  0  0  0
 19 13  2  0  0  0  0
 20 21  1  0  0  0  0
 20 22  1  0  0  0  0
 23  3  1  0  0  0  0
 23 25  1  0  0  0  0
 25 28  1  0  0  0  0
 25 24  2  0  0  0  0
 26 27  1  0  0  0  0
 26 25  1  0  0  0  0
 28 29  1  0  0  0  0
M  END
>  <minimizedAffinity>
-5.46853971

$$$$

 OpenBabel03252507093D

 29 31  0  0  0  0  0  0  0  0999 V2000
   39.3920   28.4760   37.4250 C   0  0  0  0  0  0  0  0  0  0  0  0
   38.1780   28.9460   37.9820 C   0  0  0  0  0  0  0  0  0  0  0  0
   38.1300   30.2730   38.4210 C   0  0  0  0  0  0  0  0  0  0  0  0
   39.2550   31.0400   38.2880 N   0  0  0  0  0  0  0  0  0  0  0  0
   40.3850   30.5570   37.7550 C   0  0  0  0  0  0  0  0  0  0  0  0
   40.4640   29.2900   37.3240 N   0  0  0  0  0  0  0  0  0  0  0  0
   39.4760   27.4570   37.0710 H   0  0  0  0  0  0  0  0  0  0  0  0
   37.3300   28.2520   38.0460 H   0  0  0  0  0  0  0  0  0  0  0  0
   41.3920   31.5640   37.7380 N   0  0  0  0  0  0  0  0  0  0  0  0
   41.1330   32.8540   38.0930 C   0  0  0  0  0  0  0  0  0  0  0  0
   40.1740   33.2760   38.4220 H   0  0  0  0  0  0  0  0  0  0  0  0
   42.2560   33.6220   37.9930 N   0  0  0  0  0  0  0  0  0  0  0  0
   43.2080   32.7860   37.5720 C   0  0  0  0  0  0  0  0  0  0  0  0
   44.5430   32.8950   37.2710 C   0  0  0  0  0  0  0  0  0  0  0  0
   45.3130   31.8760   36.8530 N   0  0  0  0  0  0  0  0  0  0  0  0
   44.7380   30.6530   36.7160 C   0  0  0  0  0  0  0  0  0  0  0  0
   45.3550   29.8270   36.3780 H   0  0  0  0  0  0  0  0  0  0  0  0
   43.4340   30.4970   36.9980 N   0  0  0  0  0  0  0  0  0  0  0  0
   42.6920   31.5140   37.4090 C   0  0  0  0  0  0  0  0  0  0  0  0
   45.2120   34.1290   37.3870 N   0  0  0  0  0  0  0  0  0  0  0  0
   45.8350   34.7740   37.8870 H   0  0  0  0  0  0  0  0  0  0  0  0
   44.9620   34.6950   36.5480 H   0  0  0  0  0  0  0  0  0  0  0  0
   36.9360   30.7170   38.9640 O   0  0  0  0  0  0  0  0  0  0  0  0
   38.1160   30.8460   41.3300 O   0  0  0  0  0  0  0  0  0  0  0  0
   36.9480   31.4070   40.5370 P   0  0  0  0  0  0  0  0  0  0  0  0
   37.0460   33.0770   40.3770 O   0  0  0  0  0  0  0  0  0  0  0  0
   36.4460   33.4820   41.0790 H   0  0  0  0  0  0  0  0  0  0  0  0
   35.5220   30.9320   41.3110 O   0  0  0  0  0  0  0  0  0  0  0  0
   35.4730   31.3180   42.2360 H   0  0  0  0  0  0  0  0  0  0  0  0
  1  2  1  0  0  0  0
  2  8  1  0  0  0  0
  2  3  2  0  0  0  0
  3 23  1  0  0  0  0
  4  3  1  0  0  0  0
  5  4  2  0  0  0  0
  6  1  2  0  0  0  0
  6  5  1  0  0  0  0
  7  1  1  0  0  0  0
  9  5  1  0  0  0  0
  9 10  1  0  0  0  0
 10 11  1  0  0  0  0
 12 10  2  0  0  0  0
 13 12  1  0  0  0  0
 14 20  1  0  0  0  0
 14 13  2  0  0  0  0
 15 14  1  0  0  0  0
 16 15  2  0  0  0  0
 16 18  1  0  0  0  0
 17 16  1  0  0  0  0
 18 19  2  0  0  0  0
 19 13  1  0  0  0  0
 19  9  1  0  0  0  0
 20 21  1  0  0  0  0
 22 20  1  0  0  0  0
 23 25  1  0  0  0  0
 25 28  1  0  0  0  0
 25 24  2  0  0  0  0
 26 25  1  0  0  0  0
 26 27  1  0  0  0  0
 28 29  1  0  0  0  0
M  END
>  <minimizedAffinity>
-5.4496007

$$$$

 OpenBabel03252507093D

 29 31  0  0  0  0  0  0  0  0999 V2000
   39.4660   25.7530   42.2460 C   0  0  0  0  0  0  0  0  0  0  0  0
   38.4890   24.7470   42.0510 C   0  0  0  0  0  0  0  0  0  0  0  0
   37.2560   25.1270   41.5130 C   0  0  0  0  0  0  0  0  0  0  0  0
   37.0620   26.4460   41.2060 N   0  0  0  0  0  0  0  0  0  0  0  0
   38.0120   27.3690   41.4060 C   0  0  0  0  0  0  0  0  0  0  0  0
   39.2060   27.0370   41.9190 N   0  0  0  0  0  0  0  0  0  0  0  0
   40.4350   25.5060   42.6580 H   0  0  0  0  0  0  0  0  0  0  0  0
   38.7400   23.7150   42.3290 H   0  0  0  0  0  0  0  0  0  0  0  0
   37.5470   28.6520   41.0020 N   0  0  0  0  0  0  0  0  0  0  0  0
   36.3500   28.8240   40.3740 C   0  0  0  0  0  0  0  0  0  0  0  0
   35.6190   28.0490   40.1070 H   0  0  0  0  0  0  0  0  0  0  0  0
   36.1330   30.1410   40.0910 N   0  0  0  0  0  0  0  0  0  0  0  0
   37.2130   30.7740   40.5530 C   0  0  0  0  0  0  0  0  0  0  0  0
   37.6380   32.0790   40.5960 C   0  0  0  0  0  0  0  0  0  0  0  0
   38.8020   32.4810   41.1320 N   0  0  0  0  0  0  0  0  0  0  0  0
   39.6200   31.5380   41.6680 C   0  0  0  0  0  0  0  0  0  0  0  0
   40.5620   31.8570   42.1020 H   0  0  0  0  0  0  0  0  0  0  0  0
   39.2470   30.2470   41.6500 N   0  0  0  0  0  0  0  0  0  0  0  0
   38.0950   29.8720   41.1170 C   0  0  0  0  0  0  0  0  0  0  0  0
   36.8480   33.1150   40.0600 N   0  0  0  0  0  0  0  0  0  0  0  0
   36.1960   33.9000   40.1680 H   0  0  0  0  0  0  0  0  0  0  0  0
   36.9730   33.0930   39.0250 H   0  0  0  0  0  0  0  0  0  0  0  0
   36.3120   24.1310   41.3290 O   0  0  0  0  0  0  0  0  0  0  0  0
   36.9490   22.6890   39.2020 O   0  0  0  0  0  0  0  0  0  0  0  0
   35.9060   23.6600   39.7270 P   0  0  0  0  0  0  0  0  0  0  0  0
   34.3720   22.9750   39.7530 O   0  0  0  0  0  0  0  0  0  0  0  0
   33.8890   23.2870   38.9250 H   0  0  0  0  0  0  0  0  0  0  0  0
   35.9590   25.0470   38.7620 O   0  0  0  0  0  0  0  0  0  0  0  0
   35.7180   24.8300   37.8120 H   0  0  0  0  0  0  0  0  0  0  0  0
  1  7  1  0  0  0  0
  2  1  1  0  0  0  0
  2  8  1  0  0  0  0
  3  2  2  0  0  0  0
  4  5  2  0  0  0  0
  4  3  1  0  0  0  0
  5  6  1  0  0  0  0
  6  1  2  0  0  0  0
  9 19  1  0  0  0  0
  9  5  1  0  0  0  0
 10  9  1  0  0  0  0
 11 10  1  0  0  0  0
 12 10  2  0  0  0  0
 12 13  1  0  0  0  0
 13 14  2  0  0  0  0
 13 19  1  0  0  0  0
 14 15  1  0  0  0  0
 15 16  2  0  0  0  0
 16 17  1  0  0  0  0
 18 16  1  0  0  0  0
 19 18  2  0  0  0  0
 20 21  1  0  0  0  0
 20 14  1  0  0  0  0
 22 20  1  0  0  0  0
 23  3  1  0  0  0  0
 24 25  2  0  0  0  0
 25 26  1  0  0  0  0
 25 23  1  0  0  0  0
 27 26  1  0  0  0  0
 28 25  1  0  0  0  0
 29 28  1  0  0  0  0
M  END
>  <minimizedAffinity>
-5.07824421

$$$$

 OpenBabel03252507093D

 29 31  0  0  0  0  0  0  0  0999 V2000
   39.0790   30.2220   42.4030 C   0  0  0  0  0  0  0  0  0  0  0  0
   39.2820   31.2820   41.4880 C   0  0  0  0  0  0  0  0  0  0  0  0
   38.8650   31.0950   40.1670 C   0  0  0  0  0  0  0  0  0  0  0  0
   38.2860   29.9010   39.8330 N   0  0  0  0  0  0  0  0  0  0  0  0
   38.1120   28.9220   40.7290 C   0  0  0  0  0  0  0  0  0  0  0  0
   38.4990   29.0690   42.0050 N   0  0  0  0  0  0  0  0  0  0  0  0
   39.3850   30.3210   43.4370 H   0  0  0  0  0  0  0  0  0  0  0  0
   39.7560   32.2030   41.8530 H   0  0  0  0  0  0  0  0  0  0  0  0
   37.4900   27.7970   40.1170 N   0  0  0  0  0  0  0  0  0  0  0  0
   37.0310   27.8320   38.8350 C   0  0  0  0  0  0  0  0  0  0  0  0
   37.0720   28.6770   38.1340 H   0  0  0  0  0  0  0  0  0  0  0  0
   36.4780   26.6360   38.4820 N   0  0  0  0  0  0  0  0  0  0  0  0
   36.6050   25.8660   39.5650 C   0  0  0  0  0  0  0  0  0  0  0  0
   36.2690   24.5760   39.8920 C   0  0  0  0  0  0  0  0  0  0  0  0
   36.5080   24.0090   41.0860 N   0  0  0  0  0  0  0  0  0  0  0  0
   37.1220   24.7580   42.0390 C   0  0  0  0  0  0  0  0  0  0  0  0
   37.3170   24.3040   43.0060 H   0  0  0  0  0  0  0  0  0  0  0  0
   37.4690   26.0260   41.7650 N   0  0  0  0  0  0  0  0  0  0  0  0
   37.2250   26.5660   40.5820 C   0  0  0  0  0  0  0  0  0  0  0  0
   35.6300   23.7360   38.9590 N   0  0  0  0  0  0  0  0  0  0  0  0
   35.6460   22.9740   38.2710 H   0  0  0  0  0  0  0  0  0  0  0  0
   34.6230   24.0080   38.9400 H   0  0  0  0  0  0  0  0  0  0  0  0
   39.0720   32.1420   39.2840 O   0  0  0  0  0  0  0  0  0  0  0  0
   41.3290   32.8580   38.1020 O   0  0  0  0  0  0  0  0  0  0  0  0
   40.1490   31.9120   37.9650 P   0  0  0  0  0  0  0  0  0  0  0  0
   40.6360   30.3040   37.9590 O   0  0  0  0  0  0  0  0  0  0  0  0
   40.6720   30.0040   36.9970 H   0  0  0  0  0  0  0  0  0  0  0  0
   39.3170   32.3230   36.5520 O   0  0  0  0  0  0  0  0  0  0  0  0
   39.9000   32.1960   35.7450 H   0  0  0  0  0  0  0  0  0  0  0  0
  1  7  1  0  0  0  0
  2  8  1  0  0  0  0
  2  1  2  0  0  0  0
  3  2  1  0  0  0  0
  4  3  2  0  0  0  0
  4  5  1  0  0  0  0
  5  6  2  0  0  0  0
  6  1  1  0  0  0  0
  9 19  1  0  0  0  0
  9  5  1  0  0  0  0
 10  9  1  0  0  0  0
 11 10  1  0  0  0  0
 12 10  2  0  0  0  0
 12 13  1  0  0  0  0
 13 14  2  0  0  0  0
 13 19  1  0  0  0  0
 14 15  1  0  0  0  0
 15 16  2  0  0  0  0
 16 17  1  0  0  0  0
 18 16  1  0  0  0  0
 19 18  2  0  0  0  0
 20 14  1  0  0  0  0
 21 20  1  0  0  0  0
 22 20  1  0  0  0  0
 23  3  1  0  0  0  0
 25 24  2  0  0  0  0
 25 23  1  0  0  0  0
 26 25  1  0  0  0  0
 27 26  1  0  0  0  0
 28 25  1  0  0  0  0
 29 28  1  0  0  0  0
M  END
>  <minimizedAffinity>
-4.92341566

$$$$

 OpenBabel03252507093D

 29 31  0  0  0  0  0  0  0  0999 V2000
   42.9850   29.8830   41.5930 C   0  0  0  0  0  0  0  0  0  0  0  0
   43.5340   30.8410   40.7060 C   0  0  0  0  0  0  0  0  0  0  0  0
   42.6560   31.5410   39.8740 C   0  0  0  0  0  0  0  0  0  0  0  0
   41.3190   31.2630   39.9620 N   0  0  0  0  0  0  0  0  0  0  0  0
   40.8390   30.3480   40.8140 C   0  0  0  0  0  0  0  0  0  0  0  0
   41.6540   29.6610   41.6270 N   0  0  0  0  0  0  0  0  0  0  0  0
   43.6250   29.3180   42.2570 H   0  0  0  0  0  0  0  0  0  0  0  0
   44.6210   30.9920   40.7100 H   0  0  0  0  0  0  0  0  0  0  0  0
   39.4230   30.2610   40.6980 N   0  0  0  0  0  0  0  0  0  0  0  0
   38.7060   31.1170   39.9170 C   0  0  0  0  0  0  0  0  0  0  0  0
   39.0910   31.9440   39.3040 H   0  0  0  0  0  0  0  0  0  0  0  0
   37.3740   30.8290   39.9740 N   0  0  0  0  0  0  0  0  0  0  0  0
   37.2830   29.7850   40.8000 C   0  0  0  0  0  0  0  0  0  0  0  0
   36.2600   29.0100   41.2890 C   0  0  0  0  0  0  0  0  0  0  0  0
   36.4250   27.9810   42.1360 N   0  0  0  0  0  0  0  0  0  0  0  0
   37.6860   27.6830   42.5430 C   0  0  0  0  0  0  0  0  0  0  0  0
   37.8250   26.8520   43.2280 H   0  0  0  0  0  0  0  0  0  0  0  0
   38.7200   28.4130   42.0920 N   0  0  0  0  0  0  0  0  0  0  0  0
   38.5360   29.4230   41.2570 C   0  0  0  0  0  0  0  0  0  0  0  0
   34.9240   29.2570   40.9160 N   0  0  0  0  0  0  0  0  0  0  0  0
   34.0880   29.0410   40.3610 H   0  0  0  0  0  0  0  0  0  0  0  0
   34.5940   30.0720   41.4760 H   0  0  0  0  0  0  0  0  0  0  0  0
   43.2100   32.4740   39.0120 O   0  0  0  0  0  0  0  0  0  0  0  0
   42.7320   31.5990   36.5600 O   0  0  0  0  0  0  0  0  0  0  0  0
   42.4460   32.7580   37.5000 P   0  0  0  0  0  0  0  0  0  0  0  0
   40.7990   32.9500   37.7700 O   0  0  0  0  0  0  0  0  0  0  0  0
   40.4780   33.6870   37.1610 H   0  0  0  0  0  0  0  0  0  0  0  0
   43.1400   34.1480   36.8340 O   0  0  0  0  0  0  0  0  0  0  0  0
   42.7210   34.3670   35.9480 H   0  0  0  0  0  0  0  0  0  0  0  0
  1  6  1  0  0  0  0
  1  7  1  0  0  0  0
  2  8  1  0  0  0  0
  2  1  2  0  0  0  0
  3  4  2  0  0  0  0
  3  2  1  0  0  0  0
  4  5  1  0  0  0  0
  5  6  2  0  0  0  0
  9  5  1  0  0  0  0
  9 19  1  0  0  0  0
 10 12  2  0  0  0  0
 10  9  1  0  0  0  0
 11 10  1  0  0  0  0
 12 13  1  0  0  0  0
 13 19  2  0  0  0  0
 13 14  1  0  0  0  0
 14 15  2  0  0  0  0
 15 16  1  0  0  0  0
 16 17  1  0  0  0  0
 18 16  2  0  0  0  0
 19 18  1  0  0  0  0
 20 14  1  0  0  0  0
 20 22  1  0  0  0  0
 21 20  1  0  0  0  0
 23  3  1  0  0  0  0
 24 25  2  0  0  0  0
 25 26  1  0  0  0  0
 25 23  1  0  0  0  0
 27 26  1  0  0  0  0
 28 25  1  0  0  0  0
 29 28  1  0  0  0  0
M  END
>  <minimizedAffinity>
-4.88305283

$$$$
