
 OpenBabel03252509023D

 53 56  0  0  1  0  0  0  0  0999 V2000
   46.7690   34.3230   43.6380 N   0  0  0  0  0  0  0  0  0  0  0  0
   46.4110   35.2320   42.6100 C   0  0  0  0  0  0  0  0  0  0  0  0
   44.9240   35.3920   42.4140 C   0  0  0  0  0  0  0  0  0  0  0  0
   44.1150   35.2960   43.6940 C   0  0  0  0  0  0  0  0  0  0  0  0
   45.0240   35.1620   44.9050 C   0  0  0  0  0  0  0  0  0  0  0  0
   45.8680   33.8650   44.5670 C   0  0  2  0  0  0  0  0  0  0  0  0
   46.8350   36.2320   42.9170 H   0  0  0  0  0  0  0  0  0  0  0  0
   46.8420   35.0260   41.6200 H   0  0  0  0  0  0  0  0  0  0  0  0
   44.7550   36.4300   42.0190 H   0  0  0  0  0  0  0  0  0  0  0  0
   44.5470   34.7210   41.6170 H   0  0  0  0  0  0  0  0  0  0  0  0
   43.5290   34.3520   43.6230 H   0  0  0  0  0  0  0  0  0  0  0  0
   43.3960   36.1290   43.8030 H   0  0  0  0  0  0  0  0  0  0  0  0
   45.7080   36.0100   44.9610 H   0  0  0  0  0  0  0  0  0  0  0  0
   44.4140   34.9640   45.7870 H   0  0  0  0  0  0  0  0  0  0  0  0
   45.1400   33.0910   44.2520 H   0  0  0  0  0  0  0  0  0  0  0  0
   47.9270   33.5170   43.3400 C   0  0  0  0  0  0  0  0  0  0  0  0
   48.3940   33.2590   44.3300 H   0  0  0  0  0  0  0  0  0  0  0  0
   48.6530   34.1670   42.8070 H   0  0  0  0  0  0  0  0  0  0  0  0
   47.4770   32.3240   42.5790 C   0  0  0  0  0  0  0  0  0  0  0  0
   47.6620   31.4050   43.1520 H   0  0  0  0  0  0  0  0  0  0  0  0
   46.3800   32.3820   42.3230 H   0  0  0  0  0  0  0  0  0  0  0  0
   50.0970   31.6810   39.9730 C   0  0  0  0  0  0  0  0  0  0  0  0
   49.4210   31.7400   41.2070 C   0  0  0  0  0  0  0  0  0  0  0  0
   48.1680   32.2720   41.2700 C   0  0  0  0  0  0  0  0  0  0  0  0
   47.6350   32.7210   40.1350 N   0  0  0  0  0  0  0  0  0  0  0  0
   48.2630   32.6730   38.9530 C   0  0  0  0  0  0  0  0  0  0  0  0
   49.5000   32.1540   38.8550 N   0  0  0  0  0  0  0  0  0  0  0  0
   51.0900   31.2560   39.9330 H   0  0  0  0  0  0  0  0  0  0  0  0
   49.9670   31.3400   42.0600 H   0  0  0  0  0  0  0  0  0  0  0  0
   47.6580   33.0870   38.1610 H   0  0  0  0  0  0  0  0  0  0  0  0
   46.4340   33.6030   45.8010 O   0  0  0  0  0  0  0  0  0  0  0  0
   45.5210   31.1700   45.2330 O   0  0  0  0  0  0  0  0  0  0  0  0
   46.1380   32.0320   46.3290 P   0  0  2  0  0  0  0  0  0  0  0  0
   44.9060   32.1630   47.5090 O   0  0  0  0  0  0  0  0  0  0  0  0
   45.3150   32.3590   48.3920 H   0  0  0  0  0  0  0  0  0  0  0  0
   47.4600   31.3170   47.0370 O   0  0  0  0  0  0  0  0  0  0  0  0
   47.9940   30.3750   46.1730 C   0  0  0  0  0  0  0  0  0  0  0  0
   48.8370   30.7390   45.5810 H   0  0  0  0  0  0  0  0  0  0  0  0
   47.1930   30.0530   45.4680 H   0  0  0  0  0  0  0  0  0  0  0  0
   48.3340   29.2020   46.9670 N   0  0  0  0  0  0  0  0  0  0  0  0
   47.5730   28.0800   46.8690 C   0  0  0  0  0  0  0  0  0  0  0  0
   46.6860   27.9100   46.2450 H   0  0  0  0  0  0  0  0  0  0  0  0
   48.0700   27.1220   47.6910 N   0  0  0  0  0  0  0  0  0  0  0  0
   49.1590   27.6510   48.3150 C   0  0  0  0  0  0  0  0  0  0  0  0
   50.0980   27.2290   49.2450 C   0  0  0  0  0  0  0  0  0  0  0  0
   51.0660   28.0780   49.6300 N   0  0  0  0  0  0  0  0  0  0  0  0
   51.1720   29.3190   49.1570 C   0  0  0  0  0  0  0  0  0  0  0  0
   51.9960   29.8710   49.5600 H   0  0  0  0  0  0  0  0  0  0  0  0
   50.2900   29.7720   48.2560 N   0  0  0  0  0  0  0  0  0  0  0  0
   49.3100   28.9570   47.8480 C   0  0  0  0  0  0  0  0  0  0  0  0
   49.9620   25.9050   49.7310 N   0  0  0  0  0  0  0  0  0  0  0  0
   50.2520   24.9650   49.3490 H   0  0  0  0  0  0  0  0  0  0  0  0
   49.5700   25.4090   50.5540 H   0  0  0  0  0  0  0  0  0  0  0  0
  1  6  1  0  0  0  0
  2  7  1  0  0  0  0
  2  1  1  0  0  0  0
  3  2  1  0  0  0  0
  3  4  1  0  0  0  0
  4 12  1  0  0  0  0
  4  5  1  0  0  0  0
  5 13  1  0  0  0  0
  5 14  1  0  0  0  0
  6 15  1  6  0  0  0
  6  5  1  0  0  0  0
  6 31  1  0  0  0  0
  8  2  1  0  0  0  0
  9  3  1  0  0  0  0
 10  3  1  0  0  0  0
 11  4  1  0  0  0  0
 16  1  1  0  0  0  0
 16 17  1  0  0  0  0
 18 16  1  0  0  0  0
 19 20  1  0  0  0  0
 19 16  1  0  0  0  0
 21 19  1  0  0  0  0
 22 23  1  0  0  0  0
 23 24  2  0  0  0  0
 23 29  1  0  0  0  0
 24 19  1  0  0  0  0
 25 24  1  0  0  0  0
 26 25  2  0  0  0  0
 27 26  1  0  0  0  0
 27 22  2  0  0  0  0
 28 22  1  0  0  0  0
 30 26  1  0  0  0  0
 31 33  1  0  0  0  0
 33 32  2  6  0  0  0
 33 36  1  0  0  0  0
 33 34  1  0  0  0  0
 34 35  1  0  0  0  0
 37 40  1  0  0  0  0
 37 36  1  0  0  0  0
 38 37  1  0  0  0  0
 39 37  1  0  0  0  0
 40 50  1  0  0  0  0
 41 40  1  0  0  0  0
 41 43  2  0  0  0  0
 42 41  1  0  0  0  0
 43 44  1  0  0  0  0
 44 45  1  0  0  0  0
 45 46  2  0  0  0  0
 45 51  1  0  0  0  0
 47 48  1  0  0  0  0
 47 46  1  0  0  0  0
 49 47  2  0  0  0  0
 50 49  1  0  0  0  0
 50 44  2  0  0  0  0
 51 53  1  0  0  0  0
 52 51  1  0  0  0  0
M  END
>  <minimizedAffinity>
-4.64005184

>  <minimizedRMSD>
2.1524291

$$$$
