
 OpenBabel03252502373D

 29 31  0  0  1  0  0  0  0  0999 V2000
   36.7720   27.4770   42.2180 C   0  0  1  0  0  0  0  0  0  0  0  0
   35.8320   26.8460   42.2250 H   0  0  0  0  0  0  0  0  0  0  0  0
   36.5650   28.7300   41.5700 N   0  0  0  0  0  0  0  0  0  0  0  0
   35.4510   29.0720   40.8580 C   0  0  0  0  0  0  0  0  0  0  0  0
   34.5650   28.4770   40.6650 H   0  0  0  0  0  0  0  0  0  0  0  0
   35.6180   30.3440   40.3900 N   0  0  0  0  0  0  0  0  0  0  0  0
   36.8110   30.7730   40.8090 C   0  0  0  0  0  0  0  0  0  0  0  0
   37.5540   31.9290   40.6850 C   0  0  0  0  0  0  0  0  0  0  0  0
   38.7850   32.1000   41.2370 N   0  0  0  0  0  0  0  0  0  0  0  0
   39.3390   31.0950   41.9540 C   0  0  0  0  0  0  0  0  0  0  0  0
   40.3000   31.2120   42.3910 H   0  0  0  0  0  0  0  0  0  0  0  0
   38.6280   29.9770   42.0770 N   0  0  0  0  0  0  0  0  0  0  0  0
   37.4260   29.7850   41.5500 C   0  0  0  0  0  0  0  0  0  0  0  0
   37.0340   33.0190   39.9490 N   0  0  0  0  0  0  0  0  0  0  0  0
   36.4960   33.9090   39.8760 H   0  0  0  0  0  0  0  0  0  0  0  0
   37.3830   32.7930   38.9770 H   0  0  0  0  0  0  0  0  0  0  0  0
   38.9590   26.3640   42.5210 C   0  0  0  0  0  0  0  0  0  0  0  0
   37.8570   26.6470   41.6740 C   0  0  0  0  0  0  0  0  0  0  0  0
   37.8550   26.1270   40.3500 C   0  0  0  0  0  0  0  0  0  0  0  0
   38.9280   25.3830   39.9780 N   0  0  0  0  0  0  0  0  0  0  0  0
   39.9390   25.1500   40.8180 C   0  0  0  0  0  0  0  0  0  0  0  0
   39.9700   25.6250   42.0720 N   0  0  0  0  0  0  0  0  0  0  0  0
   38.9820   26.7480   43.5300 H   0  0  0  0  0  0  0  0  0  0  0  0
   37.0030   26.3550   39.7240 H   0  0  0  0  0  0  0  0  0  0  0  0
   40.7700   24.5480   40.4640 H   0  0  0  0  0  0  0  0  0  0  0  0
   37.0660   27.7100   43.6780 C   0  0  0  0  0  0  0  0  0  0  0  0
   37.2880   26.7590   44.2200 H   0  0  0  0  0  0  0  0  0  0  0  0
   36.1540   28.1840   44.1270 H   0  0  0  0  0  0  0  0  0  0  0  0
   37.9590   28.3290   43.7840 H   0  0  0  0  0  0  0  0  0  0  0  0
  1  2  1  6  0  0  0
  1 26  1  0  0  0  0
  3  1  1  0  0  0  0
  4  3  1  0  0  0  0
  5  4  1  0  0  0  0
  6  7  1  0  0  0  0
  6  4  2  0  0  0  0
  7 13  1  0  0  0  0
  8  7  2  0  0  0  0
  8  9  1  0  0  0  0
  9 10  2  0  0  0  0
 10 12  1  0  0  0  0
 10 11  1  0  0  0  0
 13  3  1  0  0  0  0
 13 12  2  0  0  0  0
 14  8  1  0  0  0  0
 15 14  1  0  0  0  0
 16 14  1  0  0  0  0
 17 23  1  0  0  0  0
 18  1  1  0  0  0  0
 18 17  2  0  0  0  0
 19 18  1  0  0  0  0
 20 19  2  0  0  0  0
 20 21  1  0  0  0  0
 21 22  2  0  0  0  0
 22 17  1  0  0  0  0
 24 19  1  0  0  0  0
 25 21  1  0  0  0  0
 26 29  1  0  0  0  0
 26 28  1  0  0  0  0
 26 27  1  0  0  0  0
M  END
>  <minimizedAffinity>
-5.06737185

$$$$

 OpenBabel03252502373D

 29 31  0  0  1  0  0  0  0  0999 V2000
   38.6830   27.1280   42.9410 C   0  0  1  0  0  0  0  0  0  0  0  0
   37.9090   26.8540   43.7200 H   0  0  0  0  0  0  0  0  0  0  0  0
   38.5040   28.4590   42.4610 N   0  0  0  0  0  0  0  0  0  0  0  0
   39.4000   29.4770   42.6170 C   0  0  0  0  0  0  0  0  0  0  0  0
   40.3640   29.4580   43.1130 H   0  0  0  0  0  0  0  0  0  0  0  0
   38.8820   30.5950   42.0270 N   0  0  0  0  0  0  0  0  0  0  0  0
   37.6920   30.2650   41.5180 C   0  0  0  0  0  0  0  0  0  0  0  0
   36.6930   30.9130   40.8210 C   0  0  0  0  0  0  0  0  0  0  0  0
   35.5440   30.3120   40.4130 N   0  0  0  0  0  0  0  0  0  0  0  0
   35.3400   29.0030   40.6930 C   0  0  0  0  0  0  0  0  0  0  0  0
   34.4480   28.5190   40.3810 H   0  0  0  0  0  0  0  0  0  0  0  0
   36.2990   28.3730   41.3650 N   0  0  0  0  0  0  0  0  0  0  0  0
   37.4290   28.9360   41.7740 C   0  0  0  0  0  0  0  0  0  0  0  0
   36.8410   32.2820   40.4960 N   0  0  0  0  0  0  0  0  0  0  0  0
   37.1450   33.0490   39.8590 H   0  0  0  0  0  0  0  0  0  0  0  0
   36.4230   32.7410   41.3500 H   0  0  0  0  0  0  0  0  0  0  0  0
   37.7880   24.9800   42.1060 C   0  0  0  0  0  0  0  0  0  0  0  0
   38.6730   26.0720   41.9180 C   0  0  0  0  0  0  0  0  0  0  0  0
   39.5070   26.0920   40.7650 C   0  0  0  0  0  0  0  0  0  0  0  0
   39.3990   25.0460   39.9080 N   0  0  0  0  0  0  0  0  0  0  0  0
   38.5480   24.0430   40.1360 C   0  0  0  0  0  0  0  0  0  0  0  0
   37.7490   23.9950   41.2120 N   0  0  0  0  0  0  0  0  0  0  0  0
   37.1460   24.9440   42.9730 H   0  0  0  0  0  0  0  0  0  0  0  0
   40.1730   26.9370   40.6430 H   0  0  0  0  0  0  0  0  0  0  0  0
   38.5060   23.2330   39.4140 H   0  0  0  0  0  0  0  0  0  0  0  0
   39.9940   27.0330   43.6800 C   0  0  0  0  0  0  0  0  0  0  0  0
   40.2050   25.9950   44.0310 H   0  0  0  0  0  0  0  0  0  0  0  0
   39.9220   27.7140   44.5690 H   0  0  0  0  0  0  0  0  0  0  0  0
   40.8170   27.2960   43.0120 H   0  0  0  0  0  0  0  0  0  0  0  0
  1 26  1  0  0  0  0
  1  2  1  1  0  0  0
  3  4  1  0  0  0  0
  3  1  1  0  0  0  0
  4  5  1  0  0  0  0
  6  4  2  0  0  0  0
  7 13  1  0  0  0  0
  7  6  1  0  0  0  0
  8  7  2  0  0  0  0
  9 10  2  0  0  0  0
  9  8  1  0  0  0  0
 10 12  1  0  0  0  0
 11 10  1  0  0  0  0
 12 13  2  0  0  0  0
 13  3  1  0  0  0  0
 14  8  1  0  0  0  0
 14 16  1  0  0  0  0
 15 14  1  0  0  0  0
 17 23  1  0  0  0  0
 18 17  1  0  0  0  0
 18  1  1  0  0  0  0
 19 18  2  0  0  0  0
 20 21  2  0  0  0  0
 20 19  1  0  0  0  0
 21 22  1  0  0  0  0
 22 17  2  0  0  0  0
 24 19  1  0  0  0  0
 25 21  1  0  0  0  0
 26 27  1  0  0  0  0
 26 28  1  0  0  0  0
 29 26  1  0  0  0  0
M  END
>  <minimizedAffinity>
-4.97442293

$$$$

 OpenBabel03252502373D

 29 31  0  0  1  0  0  0  0  0999 V2000
   36.7730   27.8560   42.2650 C   0  0  1  0  0  0  0  0  0  0  0  0
   35.8010   28.3210   41.9170 H   0  0  0  0  0  0  0  0  0  0  0  0
   37.8420   28.7990   42.2650 N   0  0  0  0  0  0  0  0  0  0  0  0
   39.0460   28.6220   42.8860 C   0  0  0  0  0  0  0  0  0  0  0  0
   39.3870   27.7710   43.4650 H   0  0  0  0  0  0  0  0  0  0  0  0
   39.8080   29.7340   42.6650 N   0  0  0  0  0  0  0  0  0  0  0  0
   39.0830   30.5750   41.9220 C   0  0  0  0  0  0  0  0  0  0  0  0
   39.2650   31.8280   41.3730 C   0  0  0  0  0  0  0  0  0  0  0  0
   38.3250   32.4730   40.6330 N   0  0  0  0  0  0  0  0  0  0  0  0
   37.1320   31.8760   40.4050 C   0  0  0  0  0  0  0  0  0  0  0  0
   36.3870   32.3660   39.8290 H   0  0  0  0  0  0  0  0  0  0  0  0
   36.9500   30.6680   40.9310 N   0  0  0  0  0  0  0  0  0  0  0  0
   37.8500   30.0170   41.6560 C   0  0  0  0  0  0  0  0  0  0  0  0
   40.4890   32.5080   41.5740 N   0  0  0  0  0  0  0  0  0  0  0  0
   41.4630   32.7540   41.2940 H   0  0  0  0  0  0  0  0  0  0  0  0
   40.2900   33.0260   42.4730 H   0  0  0  0  0  0  0  0  0  0  0  0
   37.1760   25.4190   42.1600 C   0  0  0  0  0  0  0  0  0  0  0  0
   36.9920   26.6420   41.4650 C   0  0  0  0  0  0  0  0  0  0  0  0
   37.0340   26.6390   40.0430 C   0  0  0  0  0  0  0  0  0  0  0  0
   37.2530   25.4450   39.4350 N   0  0  0  0  0  0  0  0  0  0  0  0
   37.4210   24.3240   40.1410 C   0  0  0  0  0  0  0  0  0  0  0  0
   37.3860   24.2940   41.4810 N   0  0  0  0  0  0  0  0  0  0  0  0
   37.1470   25.3970   43.2390 H   0  0  0  0  0  0  0  0  0  0  0  0
   36.8890   27.5840   39.5360 H   0  0  0  0  0  0  0  0  0  0  0  0
   37.5940   23.3990   39.5990 H   0  0  0  0  0  0  0  0  0  0  0  0
   36.4850   27.4230   43.6800 C   0  0  0  0  0  0  0  0  0  0  0  0
   35.6880   26.6420   43.7270 H   0  0  0  0  0  0  0  0  0  0  0  0
   36.1430   28.3320   44.2400 H   0  0  0  0  0  0  0  0  0  0  0  0
   37.3760   26.9680   44.1180 H   0  0  0  0  0  0  0  0  0  0  0  0
  1  2  1  6  0  0  0
  1 26  1  0  0  0  0
  3  1  1  0  0  0  0
  3  4  1  0  0  0  0
  4  5  1  0  0  0  0
  6  4  2  0  0  0  0
  7  6  1  0  0  0  0
  8 14  1  0  0  0  0
  8  7  2  0  0  0  0
  9  8  1  0  0  0  0
 10  9  2  0  0  0  0
 10 12  1  0  0  0  0
 11 10  1  0  0  0  0
 12 13  2  0  0  0  0
 13  7  1  0  0  0  0
 13  3  1  0  0  0  0
 14 16  1  0  0  0  0
 15 14  1  0  0  0  0
 17 23  1  0  0  0  0
 18 17  2  0  0  0  0
 18  1  1  0  0  0  0
 19 18  1  0  0  0  0
 20 19  2  0  0  0  0
 20 21  1  0  0  0  0
 21 22  2  0  0  0  0
 22 17  1  0  0  0  0
 24 19  1  0  0  0  0
 25 21  1  0  0  0  0
 26 27  1  0  0  0  0
 26 29  1  0  0  0  0
 26 28  1  0  0  0  0
M  END
>  <minimizedAffinity>
-4.96026325

$$$$

 OpenBabel03252502373D

 29 31  0  0  1  0  0  0  0  0999 V2000
   36.5540   28.2540   40.1140 C   0  0  1  0  0  0  0  0  0  0  0  0
   36.1020   27.3050   39.6940 H   0  0  0  0  0  0  0  0  0  0  0  0
   37.2240   29.0130   39.1100 N   0  0  0  0  0  0  0  0  0  0  0  0
   37.3390   28.6520   37.7990 C   0  0  0  0  0  0  0  0  0  0  0  0
   36.9610   27.7610   37.3080 H   0  0  0  0  0  0  0  0  0  0  0  0
   38.0430   29.6250   37.1480 N   0  0  0  0  0  0  0  0  0  0  0  0
   38.3520   30.5650   38.0460 C   0  0  0  0  0  0  0  0  0  0  0  0
   39.0280   31.7670   38.0360 C   0  0  0  0  0  0  0  0  0  0  0  0
   39.1980   32.5480   39.1360 N   0  0  0  0  0  0  0  0  0  0  0  0
   38.6850   32.1480   40.3240 C   0  0  0  0  0  0  0  0  0  0  0  0
   38.8090   32.7460   41.1920 H   0  0  0  0  0  0  0  0  0  0  0  0
   38.0320   30.9890   40.3400 N   0  0  0  0  0  0  0  0  0  0  0  0
   37.8520   30.2090   39.2820 C   0  0  0  0  0  0  0  0  0  0  0  0
   39.5890   32.2440   36.8290 N   0  0  0  0  0  0  0  0  0  0  0  0
   39.5410   32.7950   35.9450 H   0  0  0  0  0  0  0  0  0  0  0  0
   40.5490   31.8040   36.8620 H   0  0  0  0  0  0  0  0  0  0  0  0
   36.9240   28.2970   42.5590 C   0  0  0  0  0  0  0  0  0  0  0  0
   37.3680   27.8760   41.2790 C   0  0  0  0  0  0  0  0  0  0  0  0
   38.5720   27.1230   41.1820 C   0  0  0  0  0  0  0  0  0  0  0  0
   39.2260   26.8540   42.3400 N   0  0  0  0  0  0  0  0  0  0  0  0
   38.7610   27.2770   43.5180 C   0  0  0  0  0  0  0  0  0  0  0  0
   37.6300   27.9870   43.6430 N   0  0  0  0  0  0  0  0  0  0  0  0
   36.0140   28.8690   42.6570 H   0  0  0  0  0  0  0  0  0  0  0  0
   38.8890   26.8120   40.1950 H   0  0  0  0  0  0  0  0  0  0  0  0
   39.3290   27.0310   44.4100 H   0  0  0  0  0  0  0  0  0  0  0  0
   35.3670   29.0310   40.6230 C   0  0  0  0  0  0  0  0  0  0  0  0
   34.8390   28.4990   41.4500 H   0  0  0  0  0  0  0  0  0  0  0  0
   34.6620   29.1580   39.7590 H   0  0  0  0  0  0  0  0  0  0  0  0
   35.6970   29.9830   41.0420 H   0  0  0  0  0  0  0  0  0  0  0  0
  1  2  1  6  0  0  0
  1 26  1  0  0  0  0
  1 18  1  0  0  0  0
  3 13  1  0  0  0  0
  3  1  1  0  0  0  0
  4  3  1  0  0  0  0
  5  4  1  0  0  0  0
  6  4  2  0  0  0  0
  6  7  1  0  0  0  0
  7 13  1  0  0  0  0
  8  7  2  0  0  0  0
  8  9  1  0  0  0  0
  9 10  2  0  0  0  0
 10 12  1  0  0  0  0
 10 11  1  0  0  0  0
 13 12  2  0  0  0  0
 14 16  1  0  0  0  0
 14  8  1  0  0  0  0
 15 14  1  0  0  0  0
 17 23  1  0  0  0  0
 17 22  1  0  0  0  0
 18 17  2  0  0  0  0
 19 18  1  0  0  0  0
 19 20  2  0  0  0  0
 20 21  1  0  0  0  0
 21 22  2  0  0  0  0
 21 25  1  0  0  0  0
 24 19  1  0  0  0  0
 26 29  1  0  0  0  0
 26 27  1  0  0  0  0
 28 26  1  0  0  0  0
M  END
>  <minimizedAffinity>
-4.87210989

$$$$

 OpenBabel03252502373D

 29 31  0  0  1  0  0  0  0  0999 V2000
   35.4740   29.2150   40.0340 C   0  0  1  0  0  0  0  0  0  0  0  0
   34.8220   29.5390   40.9010 H   0  0  0  0  0  0  0  0  0  0  0  0
   36.2250   28.0430   40.3440 N   0  0  0  0  0  0  0  0  0  0  0  0
   36.3640   26.9600   39.5250 C   0  0  0  0  0  0  0  0  0  0  0  0
   35.9470   26.8040   38.5360 H   0  0  0  0  0  0  0  0  0  0  0  0
   37.1500   26.0420   40.1610 N   0  0  0  0  0  0  0  0  0  0  0  0
   37.4860   26.5550   41.3480 C   0  0  0  0  0  0  0  0  0  0  0  0
   38.2370   26.1490   42.4320 C   0  0  0  0  0  0  0  0  0  0  0  0
   38.4170   26.9010   43.5510 N   0  0  0  0  0  0  0  0  0  0  0  0
   37.8380   28.1210   43.6350 C   0  0  0  0  0  0  0  0  0  0  0  0
   37.9690   28.7200   44.5010 H   0  0  0  0  0  0  0  0  0  0  0  0
   37.1120   28.5190   42.5920 N   0  0  0  0  0  0  0  0  0  0  0  0
   36.9210   27.8060   41.4900 C   0  0  0  0  0  0  0  0  0  0  0  0
   38.8690   24.8840   42.4100 N   0  0  0  0  0  0  0  0  0  0  0  0
   39.6810   24.2630   42.2050 H   0  0  0  0  0  0  0  0  0  0  0  0
   38.1100   24.2700   42.8160 H   0  0  0  0  0  0  0  0  0  0  0  0
   36.5710   31.3590   40.5910 C   0  0  0  0  0  0  0  0  0  0  0  0
   36.2590   30.3840   39.6100 C   0  0  0  0  0  0  0  0  0  0  0  0
   36.7070   30.5830   38.2750 C   0  0  0  0  0  0  0  0  0  0  0  0
   37.4160   31.7130   38.0240 N   0  0  0  0  0  0  0  0  0  0  0  0
   37.6800   32.5980   38.9880 C   0  0  0  0  0  0  0  0  0  0  0  0
   37.2720   32.4390   40.2550 N   0  0  0  0  0  0  0  0  0  0  0  0
   36.2420   31.2290   41.6110 H   0  0  0  0  0  0  0  0  0  0  0  0
   36.4570   29.8240   37.5450 H   0  0  0  0  0  0  0  0  0  0  0  0
   38.2510   33.4840   38.7270 H   0  0  0  0  0  0  0  0  0  0  0  0
   34.4910   28.9050   38.9340 C   0  0  0  0  0  0  0  0  0  0  0  0
   33.9130   29.8070   38.6190 H   0  0  0  0  0  0  0  0  0  0  0  0
   33.7790   28.1350   39.3350 H   0  0  0  0  0  0  0  0  0  0  0  0
   35.0230   28.5640   38.0450 H   0  0  0  0  0  0  0  0  0  0  0  0
  1  3  1  0  0  0  0
  1  2  1  1  0  0  0
  3 13  1  0  0  0  0
  4  6  2  0  0  0  0
  4  3  1  0  0  0  0
  5  4  1  0  0  0  0
  6  7  1  0  0  0  0
  7 13  2  0  0  0  0
  7  8  1  0  0  0  0
  8  9  2  0  0  0  0
  9 10  1  0  0  0  0
 10 11  1  0  0  0  0
 12 10  2  0  0  0  0
 13 12  1  0  0  0  0
 14  8  1  0  0  0  0
 14 16  1  0  0  0  0
 15 14  1  0  0  0  0
 17 23  1  0  0  0  0
 18  1  1  0  0  0  0
 18 17  2  0  0  0  0
 19 18  1  0  0  0  0
 20 19  2  0  0  0  0
 20 21  1  0  0  0  0
 21 22  2  0  0  0  0
 22 17  1  0  0  0  0
 24 19  1  0  0  0  0
 25 21  1  0  0  0  0
 26 28  1  0  0  0  0
 26  1  1  0  0  0  0
 27 26  1  0  0  0  0
 29 26  1  0  0  0  0
M  END
>  <minimizedAffinity>
-4.83790016

$$$$

 OpenBabel03252502373D

 29 31  0  0  1  0  0  0  0  0999 V2000
   36.5120   28.8300   39.9800 C   0  0  1  0  0  0  0  0  0  0  0  0
   36.4530   27.8910   39.3510 H   0  0  0  0  0  0  0  0  0  0  0  0
   37.1810   29.8870   39.2950 N   0  0  0  0  0  0  0  0  0  0  0  0
   36.6630   31.1310   39.0750 C   0  0  0  0  0  0  0  0  0  0  0  0
   35.6940   31.5200   39.3670 H   0  0  0  0  0  0  0  0  0  0  0  0
   37.5920   31.8640   38.3910 N   0  0  0  0  0  0  0  0  0  0  0  0
   38.6580   31.0820   38.1980 C   0  0  0  0  0  0  0  0  0  0  0  0
   39.8930   31.2120   37.5980 C   0  0  0  0  0  0  0  0  0  0  0  0
   40.8170   30.2170   37.5460 N   0  0  0  0  0  0  0  0  0  0  0  0
   40.5380   29.0170   38.1080 C   0  0  0  0  0  0  0  0  0  0  0  0
   41.2490   28.2300   38.0760 H   0  0  0  0  0  0  0  0  0  0  0  0
   39.3480   28.8850   38.6890 N   0  0  0  0  0  0  0  0  0  0  0  0
   38.4290   29.8400   38.7530 C   0  0  0  0  0  0  0  0  0  0  0  0
   40.2490   32.4390   36.9910 N   0  0  0  0  0  0  0  0  0  0  0  0
   40.6780   33.3890   37.0160 H   0  0  0  0  0  0  0  0  0  0  0  0
   39.8830   32.2960   36.0100 H   0  0  0  0  0  0  0  0  0  0  0  0
   37.3430   27.0790   41.5150 C   0  0  0  0  0  0  0  0  0  0  0  0
   37.0790   28.4530   41.2830 C   0  0  0  0  0  0  0  0  0  0  0  0
   37.3650   29.3920   42.3140 C   0  0  0  0  0  0  0  0  0  0  0  0
   37.8790   28.9020   43.4700 N   0  0  0  0  0  0  0  0  0  0  0  0
   38.1060   27.5960   43.6330 C   0  0  0  0  0  0  0  0  0  0  0  0
   37.8480   26.6870   42.6820 N   0  0  0  0  0  0  0  0  0  0  0  0
   37.1340   26.3490   40.7480 H   0  0  0  0  0  0  0  0  0  0  0  0
   37.1570   30.4350   42.1120 H   0  0  0  0  0  0  0  0  0  0  0  0
   38.5180   27.2620   44.5810 H   0  0  0  0  0  0  0  0  0  0  0  0
   35.0710   29.2110   40.2050 C   0  0  0  0  0  0  0  0  0  0  0  0
   34.5160   28.4350   40.7860 H   0  0  0  0  0  0  0  0  0  0  0  0
   34.5970   29.3200   39.1940 H   0  0  0  0  0  0  0  0  0  0  0  0
   35.0160   30.1250   40.7980 H   0  0  0  0  0  0  0  0  0  0  0  0
  1  2  1  6  0  0  0
  1 26  1  0  0  0  0
  1 18  1  0  0  0  0
  3  1  1  0  0  0  0
  4  3  1  0  0  0  0
  4  5  1  0  0  0  0
  6  4  2  0  0  0  0
  7  6  1  0  0  0  0
  7 13  1  0  0  0  0
  8  7  2  0  0  0  0
  9  8  1  0  0  0  0
  9 10  2  0  0  0  0
 10 12  1  0  0  0  0
 11 10  1  0  0  0  0
 12 13  2  0  0  0  0
 13  3  1  0  0  0  0
 14 15  1  0  0  0  0
 14  8  1  0  0  0  0
 16 14  1  0  0  0  0
 17 22  1  0  0  0  0
 18 17  2  0  0  0  0
 18 19  1  0  0  0  0
 19 20  2  0  0  0  0
 20 21  1  0  0  0  0
 21 25  1  0  0  0  0
 22 21  2  0  0  0  0
 23 17  1  0  0  0  0
 24 19  1  0  0  0  0
 26 27  1  0  0  0  0
 26 29  1  0  0  0  0
 28 26  1  0  0  0  0
M  END
>  <minimizedAffinity>
-4.81172705

$$$$

 OpenBabel03252502373D

 29 31  0  0  1  0  0  0  0  0999 V2000
   37.7770   30.6810   38.8170 C   0  0  1  0  0  0  0  0  0  0  0  0
   37.0760   30.9360   37.9660 H   0  0  0  0  0  0  0  0  0  0  0  0
   37.1170   29.9450   39.8450 N   0  0  0  0  0  0  0  0  0  0  0  0
   35.7910   29.6190   39.8490 C   0  0  0  0  0  0  0  0  0  0  0  0
   35.0370   29.8520   39.1060 H   0  0  0  0  0  0  0  0  0  0  0  0
   35.5290   28.9160   40.9910 N   0  0  0  0  0  0  0  0  0  0  0  0
   36.6740   28.8140   41.6720 C   0  0  0  0  0  0  0  0  0  0  0  0
   37.0780   28.2460   42.8620 C   0  0  0  0  0  0  0  0  0  0  0  0
   38.3540   28.2950   43.3290 N   0  0  0  0  0  0  0  0  0  0  0  0
   39.3040   28.9310   42.6060 C   0  0  0  0  0  0  0  0  0  0  0  0
   40.3050   28.9790   42.9570 H   0  0  0  0  0  0  0  0  0  0  0  0
   38.9220   29.4820   41.4570 N   0  0  0  0  0  0  0  0  0  0  0  0
   37.6850   29.4480   40.9790 C   0  0  0  0  0  0  0  0  0  0  0  0
   36.1350   27.5660   43.6670 N   0  0  0  0  0  0  0  0  0  0  0  0
   35.6280   26.7040   43.9640 H   0  0  0  0  0  0  0  0  0  0  0  0
   35.7720   28.3560   44.2680 H   0  0  0  0  0  0  0  0  0  0  0  0
   39.8120   32.0780   38.9650 C   0  0  0  0  0  0  0  0  0  0  0  0
   38.4290   31.9290   39.2420 C   0  0  0  0  0  0  0  0  0  0  0  0
   37.7440   32.9780   39.9170 C   0  0  0  0  0  0  0  0  0  0  0  0
   38.4740   34.0700   40.2590 N   0  0  0  0  0  0  0  0  0  0  0  0
   39.7760   34.1560   39.9730 C   0  0  0  0  0  0  0  0  0  0  0  0
   40.4480   33.1860   39.3370 N   0  0  0  0  0  0  0  0  0  0  0  0
   40.3510   31.2950   38.4540 H   0  0  0  0  0  0  0  0  0  0  0  0
   36.6900   32.8410   40.1160 H   0  0  0  0  0  0  0  0  0  0  0  0
   40.3070   35.0550   40.2720 H   0  0  0  0  0  0  0  0  0  0  0  0
   38.8310   29.8140   38.1760 C   0  0  0  0  0  0  0  0  0  0  0  0
   39.4130   30.3640   37.3980 H   0  0  0  0  0  0  0  0  0  0  0  0
   38.2990   28.9510   37.6950 H   0  0  0  0  0  0  0  0  0  0  0  0
   39.5580   29.4970   38.9250 H   0  0  0  0  0  0  0  0  0  0  0  0
  1  2  1  6  0  0  0
  1 18  1  0  0  0  0
  1  3  1  0  0  0  0
  3  4  1  0  0  0  0
  3 13  1  0  0  0  0
  4  6  2  0  0  0  0
  5  4  1  0  0  0  0
  6  7  1  0  0  0  0
  7  8  1  0  0  0  0
  8  9  2  0  0  0  0
  8 14  1  0  0  0  0
 10 11  1  0  0  0  0
 10  9  1  0  0  0  0
 12 10  2  0  0  0  0
 13 12  1  0  0  0  0
 13  7  2  0  0  0  0
 14 15  1  0  0  0  0
 14 16  1  0  0  0  0
 17 18  2  0  0  0  0
 17 22  1  0  0  0  0
 18 19  1  0  0  0  0
 19 24  1  0  0  0  0
 19 20  2  0  0  0  0
 21 20  1  0  0  0  0
 21 25  1  0  0  0  0
 22 21  2  0  0  0  0
 23 17  1  0  0  0  0
 26  1  1  0  0  0  0
 26 29  1  0  0  0  0
 27 26  1  0  0  0  0
 28 26  1  0  0  0  0
M  END
>  <minimizedAffinity>
-4.77934074

$$$$

 OpenBabel03252502373D

 29 31  0  0  1  0  0  0  0  0999 V2000
   39.3500   32.8630   40.5580 C   0  0  1  0  0  0  0  0  0  0  0  0
   39.9980   33.1160   41.4510 H   0  0  0  0  0  0  0  0  0  0  0  0
   38.3750   31.8720   40.8740 N   0  0  0  0  0  0  0  0  0  0  0  0
   37.0550   31.9320   40.5300 C   0  0  0  0  0  0  0  0  0  0  0  0
   36.5350   32.7100   39.9810 H   0  0  0  0  0  0  0  0  0  0  0  0
   36.4390   30.8090   41.0040 N   0  0  0  0  0  0  0  0  0  0  0  0
   37.3660   30.0740   41.6250 C   0  0  0  0  0  0  0  0  0  0  0  0
   37.3980   28.8690   42.2950 C   0  0  0  0  0  0  0  0  0  0  0  0
   38.5220   28.3410   42.8480 N   0  0  0  0  0  0  0  0  0  0  0  0
   39.6920   29.0140   42.7530 C   0  0  0  0  0  0  0  0  0  0  0  0
   40.5780   28.6150   43.1800 H   0  0  0  0  0  0  0  0  0  0  0  0
   39.6680   30.1780   42.1080 N   0  0  0  0  0  0  0  0  0  0  0  0
   38.5870   30.7140   41.5590 C   0  0  0  0  0  0  0  0  0  0  0  0
   36.2100   28.1140   42.4310 N   0  0  0  0  0  0  0  0  0  0  0  0
   35.5380   27.3850   42.1060 H   0  0  0  0  0  0  0  0  0  0  0  0
   35.8210   28.5060   43.3330 H   0  0  0  0  0  0  0  0  0  0  0  0
   41.6450   32.6170   39.6700 C   0  0  0  0  0  0  0  0  0  0  0  0
   40.2480   32.5420   39.4380 C   0  0  0  0  0  0  0  0  0  0  0  0
   39.7840   32.1700   38.1450 C   0  0  0  0  0  0  0  0  0  0  0  0
   40.7260   31.9100   37.2030 N   0  0  0  0  0  0  0  0  0  0  0  0
   42.0300   31.9980   37.4790 C   0  0  0  0  0  0  0  0  0  0  0  0
   42.4980   32.3440   38.6860 N   0  0  0  0  0  0  0  0  0  0  0  0
   42.0200   32.8970   40.6440 H   0  0  0  0  0  0  0  0  0  0  0  0
   38.7140   32.1180   37.9930 H   0  0  0  0  0  0  0  0  0  0  0  0
   42.7370   31.7790   36.6840 H   0  0  0  0  0  0  0  0  0  0  0  0
   38.6590   34.1610   40.2280 C   0  0  0  0  0  0  0  0  0  0  0  0
   39.3800   34.9560   39.9210 H   0  0  0  0  0  0  0  0  0  0  0  0
   38.1190   34.4920   41.1540 H   0  0  0  0  0  0  0  0  0  0  0  0
   37.9900   34.0200   39.3770 H   0  0  0  0  0  0  0  0  0  0  0  0
  1  3  1  0  0  0  0
  1  2  1  1  0  0  0
  3 13  1  0  0  0  0
  4  3  1  0  0  0  0
  4  6  2  0  0  0  0
  5  4  1  0  0  0  0
  6  7  1  0  0  0  0
  7  8  1  0  0  0  0
  8 14  1  0  0  0  0
  8  9  2  0  0  0  0
 10  9  1  0  0  0  0
 10 11  1  0  0  0  0
 12 10  2  0  0  0  0
 13  7  2  0  0  0  0
 13 12  1  0  0  0  0
 14 16  1  0  0  0  0
 15 14  1  0  0  0  0
 17 23  1  0  0  0  0
 18 17  1  0  0  0  0
 18  1  1  0  0  0  0
 19 18  2  0  0  0  0
 20 21  2  0  0  0  0
 20 19  1  0  0  0  0
 21 22  1  0  0  0  0
 22 17  2  0  0  0  0
 24 19  1  0  0  0  0
 25 21  1  0  0  0  0
 26  1  1  0  0  0  0
 26 28  1  0  0  0  0
 27 26  1  0  0  0  0
 29 26  1  0  0  0  0
M  END
>  <minimizedAffinity>
-4.72077036

$$$$

 OpenBabel03252502373D

 29 31  0  0  1  0  0  0  0  0999 V2000
   38.2550   25.3710   41.3460 C   0  0  1  0  0  0  0  0  0  0  0  0
   38.0950   25.0410   40.2750 H   0  0  0  0  0  0  0  0  0  0  0  0
   37.5780   26.5930   41.6310 N   0  0  0  0  0  0  0  0  0  0  0  0
   36.9630   26.8930   42.8130 C   0  0  0  0  0  0  0  0  0  0  0  0
   36.8830   26.2820   43.7050 H   0  0  0  0  0  0  0  0  0  0  0  0
   36.4280   28.1460   42.7100 N   0  0  0  0  0  0  0  0  0  0  0  0
   36.7120   28.6040   41.4870 C   0  0  0  0  0  0  0  0  0  0  0  0
   36.4680   29.7600   40.7760 C   0  0  0  0  0  0  0  0  0  0  0  0
   36.8900   29.9660   39.5000 N   0  0  0  0  0  0  0  0  0  0  0  0
   37.5910   28.9980   38.8650 C   0  0  0  0  0  0  0  0  0  0  0  0
   37.9270   29.1430   37.8680 H   0  0  0  0  0  0  0  0  0  0  0  0
   37.8290   27.8800   39.5450 N   0  0  0  0  0  0  0  0  0  0  0  0
   37.4300   27.6540   40.7900 C   0  0  0  0  0  0  0  0  0  0  0  0
   35.7400   30.8120   41.3790 N   0  0  0  0  0  0  0  0  0  0  0  0
   35.6840   31.6930   41.9340 H   0  0  0  0  0  0  0  0  0  0  0  0
   34.7500   30.5480   41.1230 H   0  0  0  0  0  0  0  0  0  0  0  0
   40.1430   25.1870   42.9320 C   0  0  0  0  0  0  0  0  0  0  0  0
   39.7040   25.3700   41.5960 C   0  0  0  0  0  0  0  0  0  0  0  0
   40.6750   25.5500   40.5710 C   0  0  0  0  0  0  0  0  0  0  0  0
   41.9790   25.5350   40.9480 N   0  0  0  0  0  0  0  0  0  0  0  0
   42.3340   25.3590   42.2230 C   0  0  0  0  0  0  0  0  0  0  0  0
   41.4440   25.1870   43.2110 N   0  0  0  0  0  0  0  0  0  0  0  0
   39.4240   25.0490   43.7260 H   0  0  0  0  0  0  0  0  0  0  0  0
   40.3160   25.6860   39.5600 H   0  0  0  0  0  0  0  0  0  0  0  0
   43.3930   25.3580   42.4640 H   0  0  0  0  0  0  0  0  0  0  0  0
   37.6520   24.2590   42.1660 C   0  0  0  0  0  0  0  0  0  0  0  0
   38.1840   23.2890   42.0170 H   0  0  0  0  0  0  0  0  0  0  0  0
   36.5850   24.1470   41.8360 H   0  0  0  0  0  0  0  0  0  0  0  0
   37.7420   24.4900   43.2290 H   0  0  0  0  0  0  0  0  0  0  0  0
  1  2  1  6  0  0  0
  1 18  1  0  0  0  0
  1  3  1  0  0  0  0
  1 26  1  0  0  0  0
  3  4  1  0  0  0  0
  4  5  1  0  0  0  0
  6  4  2  0  0  0  0
  7  6  1  0  0  0  0
  8 14  1  0  0  0  0
  8  7  2  0  0  0  0
  9  8  1  0  0  0  0
 10  9  2  0  0  0  0
 10 12  1  0  0  0  0
 11 10  1  0  0  0  0
 12 13  2  0  0  0  0
 13  7  1  0  0  0  0
 13  3  1  0  0  0  0
 14 15  1  0  0  0  0
 16 14  1  0  0  0  0
 17 22  1  0  0  0  0
 17 23  1  0  0  0  0
 18 17  2  0  0  0  0
 19 20  2  0  0  0  0
 19 18  1  0  0  0  0
 20 21  1  0  0  0  0
 21 25  1  0  0  0  0
 21 22  2  0  0  0  0
 24 19  1  0  0  0  0
 26 29  1  0  0  0  0
 27 26  1  0  0  0  0
 28 26  1  0  0  0  0
M  END
>  <minimizedAffinity>
-4.70947266

$$$$
