
 OpenBabel03252509033D

 53 56  0  0  1  0  0  0  0  0999 V2000
   47.2190   34.1220   43.1750 N   0  0  0  0  0  0  0  0  0  0  0  0
   46.7260   35.2940   42.5500 C   0  0  0  0  0  0  0  0  0  0  0  0
   45.2320   35.4710   42.6560 C   0  0  0  0  0  0  0  0  0  0  0  0
   44.6370   34.9650   43.9570 C   0  0  0  0  0  0  0  0  0  0  0  0
   45.7260   34.4850   44.9040 C   0  0  0  0  0  0  0  0  0  0  0  0
   46.4680   33.3770   44.0510 C   0  0  2  0  0  0  0  0  0  0  0  0
   47.2210   36.1610   43.0780 H   0  0  0  0  0  0  0  0  0  0  0  0
   46.9860   35.4150   41.4900 H   0  0  0  0  0  0  0  0  0  0  0  0
   45.0300   36.5770   42.6340 H   0  0  0  0  0  0  0  0  0  0  0  0
   44.7130   35.0710   41.7630 H   0  0  0  0  0  0  0  0  0  0  0  0
   44.0220   34.0760   43.6940 H   0  0  0  0  0  0  0  0  0  0  0  0
   43.9690   35.7060   44.4330 H   0  0  0  0  0  0  0  0  0  0  0  0
   46.4330   35.2910   45.1080 H   0  0  0  0  0  0  0  0  0  0  0  0
   45.2600   34.0090   45.7680 H   0  0  0  0  0  0  0  0  0  0  0  0
   45.6780   32.7210   43.6340 H   0  0  0  0  0  0  0  0  0  0  0  0
   48.2920   33.4750   42.4600 C   0  0  0  0  0  0  0  0  0  0  0  0
   48.9390   32.9850   43.2380 H   0  0  0  0  0  0  0  0  0  0  0  0
   48.9070   34.2750   41.9950 H   0  0  0  0  0  0  0  0  0  0  0  0
   47.6940   32.5080   41.5050 C   0  0  0  0  0  0  0  0  0  0  0  0
   47.9630   31.4770   41.7760 H   0  0  0  0  0  0  0  0  0  0  0  0
   46.5710   32.5970   41.4690 H   0  0  0  0  0  0  0  0  0  0  0  0
   49.4310   32.2330   38.1910 C   0  0  0  0  0  0  0  0  0  0  0  0
   48.9920   31.9570   39.5010 C   0  0  0  0  0  0  0  0  0  0  0  0
   48.1420   32.8190   40.1270 C   0  0  0  0  0  0  0  0  0  0  0  0
   47.7610   33.9030   39.4550 N   0  0  0  0  0  0  0  0  0  0  0  0
   48.1680   34.1810   38.2090 C   0  0  0  0  0  0  0  0  0  0  0  0
   49.0070   33.3530   37.5610 N   0  0  0  0  0  0  0  0  0  0  0  0
   50.1040   31.5440   37.7020 H   0  0  0  0  0  0  0  0  0  0  0  0
   49.3770   31.0380   39.9400 H   0  0  0  0  0  0  0  0  0  0  0  0
   47.7440   35.1060   37.8460 H   0  0  0  0  0  0  0  0  0  0  0  0
   47.2180   32.7600   45.0350 O   0  0  0  0  0  0  0  0  0  0  0  0
   46.3860   30.4420   44.0290 O   0  0  0  0  0  0  0  0  0  0  0  0
   46.7320   31.1740   45.3210 P   0  0  2  0  0  0  0  0  0  0  0  0
   45.2420   31.2890   46.1540 O   0  0  0  0  0  0  0  0  0  0  0  0
   45.4150   31.3870   47.1270 H   0  0  0  0  0  0  0  0  0  0  0  0
   47.7940   30.3230   46.2730 O   0  0  0  0  0  0  0  0  0  0  0  0
   48.1320   29.1360   45.6420 C   0  0  0  0  0  0  0  0  0  0  0  0
   48.1190   29.1910   44.5510 H   0  0  0  0  0  0  0  0  0  0  0  0
   47.4020   28.3540   45.9550 H   0  0  0  0  0  0  0  0  0  0  0  0
   49.4260   28.7200   46.1670 N   0  0  0  0  0  0  0  0  0  0  0  0
   50.5640   29.0970   45.5270 C   0  0  0  0  0  0  0  0  0  0  0  0
   50.6670   29.7050   44.6200 H   0  0  0  0  0  0  0  0  0  0  0  0
   51.6390   28.6000   46.1870 N   0  0  0  0  0  0  0  0  0  0  0  0
   51.1700   27.9000   47.2570 C   0  0  0  0  0  0  0  0  0  0  0  0
   51.7100   27.1660   48.3030 C   0  0  0  0  0  0  0  0  0  0  0  0
   50.8830   26.6000   49.2000 N   0  0  0  0  0  0  0  0  0  0  0  0
   49.5570   26.7090   49.1320 C   0  0  0  0  0  0  0  0  0  0  0  0
   49.0380   26.2020   49.9210 H   0  0  0  0  0  0  0  0  0  0  0  0
   48.9890   27.4060   48.1420 N   0  0  0  0  0  0  0  0  0  0  0  0
   49.7780   27.9860   47.2280 C   0  0  0  0  0  0  0  0  0  0  0  0
   53.1220   27.0670   48.3490 N   0  0  0  0  0  0  0  0  0  0  0  0
   53.8770   27.7100   48.7110 H   0  0  0  0  0  0  0  0  0  0  0  0
   53.8690   26.4020   48.0790 H   0  0  0  0  0  0  0  0  0  0  0  0
  1  6  1  0  0  0  0
  2  3  1  0  0  0  0
  2  7  1  0  0  0  0
  2  1  1  0  0  0  0
  3  4  1  0  0  0  0
  4 12  1  0  0  0  0
  4  5  1  0  0  0  0
  5 13  1  0  0  0  0
  5 14  1  0  0  0  0
  6 15  1  6  0  0  0
  6  5  1  0  0  0  0
  6 31  1  0  0  0  0
  8  2  1  0  0  0  0
  9  3  1  0  0  0  0
 10  3  1  0  0  0  0
 11  4  1  0  0  0  0
 16  1  1  0  0  0  0
 16 17  1  0  0  0  0
 18 16  1  0  0  0  0
 19 20  1  0  0  0  0
 19 16  1  0  0  0  0
 21 19  1  0  0  0  0
 22 23  1  0  0  0  0
 23 29  1  0  0  0  0
 23 24  2  0  0  0  0
 24 19  1  0  0  0  0
 25 24  1  0  0  0  0
 26 25  2  0  0  0  0
 27 22  2  0  0  0  0
 27 26  1  0  0  0  0
 28 22  1  0  0  0  0
 30 26  1  0  0  0  0
 31 33  1  0  0  0  0
 33 32  2  6  0  0  0
 33 34  1  0  0  0  0
 33 36  1  0  0  0  0
 34 35  1  0  0  0  0
 37 39  1  0  0  0  0
 37 40  1  0  0  0  0
 37 36  1  0  0  0  0
 38 37  1  0  0  0  0
 40 50  1  0  0  0  0
 41 40  1  0  0  0  0
 41 43  2  0  0  0  0
 42 41  1  0  0  0  0
 43 44  1  0  0  0  0
 44 45  1  0  0  0  0
 45 51  1  0  0  0  0
 45 46  2  0  0  0  0
 47 46  1  0  0  0  0
 47 48  1  0  0  0  0
 49 47  2  0  0  0  0
 50 44  2  0  0  0  0
 50 49  1  0  0  0  0
 51 52  1  0  0  0  0
 53 51  1  0  0  0  0
M  END
>  <minimizedAffinity>
-4.04789352

>  <minimizedRMSD>
0.882655323

$$$$
