
 OpenBabel03252509033D

 53 56  0  0  1  0  0  0  0  0999 V2000
   47.0320   34.3370   43.2540 N   0  0  0  0  0  0  0  0  0  0  0  0
   46.6920   34.8880   41.9930 C   0  0  0  0  0  0  0  0  0  0  0  0
   45.2730   34.6180   41.5600 C   0  0  0  0  0  0  0  0  0  0  0  0
   44.2710   34.5880   42.7000 C   0  0  0  0  0  0  0  0  0  0  0  0
   44.9350   34.9490   44.0180 C   0  0  0  0  0  0  0  0  0  0  0  0
   46.0880   33.8700   44.1360 C   0  0  2  0  0  0  0  0  0  0  0  0
   46.8230   36.0040   42.0950 H   0  0  0  0  0  0  0  0  0  0  0  0
   47.3410   34.5970   41.1550 H   0  0  0  0  0  0  0  0  0  0  0  0
   44.9640   35.4720   40.8980 H   0  0  0  0  0  0  0  0  0  0  0  0
   45.2120   33.7210   40.9120 H   0  0  0  0  0  0  0  0  0  0  0  0
   43.9280   33.5330   42.7860 H   0  0  0  0  0  0  0  0  0  0  0  0
   43.3820   35.2140   42.4960 H   0  0  0  0  0  0  0  0  0  0  0  0
   45.3960   35.9360   43.9550 H   0  0  0  0  0  0  0  0  0  0  0  0
   44.2230   34.7900   44.8290 H   0  0  0  0  0  0  0  0  0  0  0  0
   45.6200   32.8870   43.9270 H   0  0  0  0  0  0  0  0  0  0  0  0
   48.3720   33.8100   43.3310 C   0  0  0  0  0  0  0  0  0  0  0  0
   48.7200   33.9840   44.3850 H   0  0  0  0  0  0  0  0  0  0  0  0
   49.0120   34.4420   42.6780 H   0  0  0  0  0  0  0  0  0  0  0  0
   48.3250   32.3730   42.9610 C   0  0  0  0  0  0  0  0  0  0  0  0
   48.5640   31.7410   43.8280 H   0  0  0  0  0  0  0  0  0  0  0  0
   47.3130   32.0770   42.5610 H   0  0  0  0  0  0  0  0  0  0  0  0
   51.5170   31.9120   41.0450 C   0  0  0  0  0  0  0  0  0  0  0  0
   50.6050   32.1590   42.0900 C   0  0  0  0  0  0  0  0  0  0  0  0
   49.2650   32.1080   41.8470 C   0  0  0  0  0  0  0  0  0  0  0  0
   48.8770   31.8210   40.6070 N   0  0  0  0  0  0  0  0  0  0  0  0
   49.7290   31.5830   39.6010 C   0  0  0  0  0  0  0  0  0  0  0  0
   51.0580   31.6250   39.8050 N   0  0  0  0  0  0  0  0  0  0  0  0
   52.5770   31.9540   41.2470 H   0  0  0  0  0  0  0  0  0  0  0  0
   51.0510   32.3830   43.0580 H   0  0  0  0  0  0  0  0  0  0  0  0
   49.2110   31.3700   38.6780 H   0  0  0  0  0  0  0  0  0  0  0  0
   46.4470   34.0260   45.4620 O   0  0  0  0  0  0  0  0  0  0  0  0
   45.8700   31.4290   45.4750 O   0  0  0  0  0  0  0  0  0  0  0  0
   46.2470   32.6150   46.3580 P   0  0  2  0  0  0  0  0  0  0  0  0
   44.8640   32.8740   47.3300 O   0  0  0  0  0  0  0  0  0  0  0  0
   45.1310   33.3390   48.1650 H   0  0  0  0  0  0  0  0  0  0  0  0
   47.5300   32.2840   47.3590 O   0  0  0  0  0  0  0  0  0  0  0  0
   47.8500   30.9380   47.2720 C   0  0  0  0  0  0  0  0  0  0  0  0
   48.3130   30.6500   46.3260 H   0  0  0  0  0  0  0  0  0  0  0  0
   46.9130   30.3480   47.3890 H   0  0  0  0  0  0  0  0  0  0  0  0
   48.6820   30.6160   48.4230 N   0  0  0  0  0  0  0  0  0  0  0  0
   49.0540   31.6020   49.2820 C   0  0  0  0  0  0  0  0  0  0  0  0
   48.8090   32.6700   49.2410 H   0  0  0  0  0  0  0  0  0  0  0  0
   49.8190   31.0750   50.2710 N   0  0  0  0  0  0  0  0  0  0  0  0
   49.9290   29.7390   50.0300 C   0  0  0  0  0  0  0  0  0  0  0  0
   50.5470   28.6500   50.6260 C   0  0  0  0  0  0  0  0  0  0  0  0
   50.4180   27.4360   50.0640 N   0  0  0  0  0  0  0  0  0  0  0  0
   49.7200   27.2240   48.9500 C   0  0  0  0  0  0  0  0  0  0  0  0
   49.7130   26.2020   48.6270 H   0  0  0  0  0  0  0  0  0  0  0  0
   49.1050   28.2430   48.3360 N   0  0  0  0  0  0  0  0  0  0  0  0
   49.2090   29.4680   48.8660 C   0  0  0  0  0  0  0  0  0  0  0  0
   51.2820   28.9040   51.8100 N   0  0  0  0  0  0  0  0  0  0  0  0
   51.0020   29.0120   52.8220 H   0  0  0  0  0  0  0  0  0  0  0  0
   52.2650   29.0640   52.1020 H   0  0  0  0  0  0  0  0  0  0  0  0
  1 16  1  0  0  0  0
  1  6  1  0  0  0  0
  2  7  1  0  0  0  0
  2  1  1  0  0  0  0
  3  2  1  0  0  0  0
  3  4  1  0  0  0  0
  4 11  1  0  0  0  0
  4  5  1  0  0  0  0
  5  6  1  0  0  0  0
  5 14  1  0  0  0  0
  6 15  1  6  0  0  0
  6 31  1  0  0  0  0
  8  2  1  0  0  0  0
  9  3  1  0  0  0  0
 10  3  1  0  0  0  0
 12  4  1  0  0  0  0
 13  5  1  0  0  0  0
 16 17  1  0  0  0  0
 18 16  1  0  0  0  0
 19 16  1  0  0  0  0
 19 20  1  0  0  0  0
 21 19  1  0  0  0  0
 22 28  1  0  0  0  0
 22 23  1  0  0  0  0
 23 29  1  0  0  0  0
 24 23  2  0  0  0  0
 24 19  1  0  0  0  0
 25 24  1  0  0  0  0
 26 27  1  0  0  0  0
 26 25  2  0  0  0  0
 27 22  2  0  0  0  0
 30 26  1  0  0  0  0
 31 33  1  0  0  0  0
 33 32  2  6  0  0  0
 33 34  1  0  0  0  0
 33 36  1  0  0  0  0
 34 35  1  0  0  0  0
 37 36  1  0  0  0  0
 37 39  1  0  0  0  0
 37 40  1  0  0  0  0
 38 37  1  0  0  0  0
 40 50  1  0  0  0  0
 40 41  1  0  0  0  0
 41 43  2  0  0  0  0
 42 41  1  0  0  0  0
 44 43  1  0  0  0  0
 44 45  1  0  0  0  0
 45 51  1  0  0  0  0
 46 45  2  0  0  0  0
 47 46  1  0  0  0  0
 48 47  1  0  0  0  0
 49 50  1  0  0  0  0
 49 47  2  0  0  0  0
 50 44  2  0  0  0  0
 51 53  1  0  0  0  0
 51 52  1  0  0  0  0
M  END
>  <minimizedAffinity>
-5.41339779

>  <minimizedRMSD>
3.37844825

$$$$
