
 OpenBabel03252509033D

 53 56  0  0  1  0  0  0  0  0999 V2000
   46.7070   34.3860   43.3720 N   0  0  0  0  0  0  0  0  0  0  0  0
   46.4670   34.8820   42.0660 C   0  0  0  0  0  0  0  0  0  0  0  0
   45.0260   34.8030   41.6270 C   0  0  0  0  0  0  0  0  0  0  0  0
   44.0240   35.0190   42.7460 C   0  0  0  0  0  0  0  0  0  0  0  0
   44.7270   35.3730   44.0470 C   0  0  0  0  0  0  0  0  0  0  0  0
   45.6950   34.1400   44.2670 C   0  0  2  0  0  0  0  0  0  0  0  0
   46.7700   35.9690   42.0860 H   0  0  0  0  0  0  0  0  0  0  0  0
   47.0680   34.4300   41.2650 H   0  0  0  0  0  0  0  0  0  0  0  0
   44.8590   35.6420   40.8970 H   0  0  0  0  0  0  0  0  0  0  0  0
   44.8300   33.8800   41.0480 H   0  0  0  0  0  0  0  0  0  0  0  0
   43.5200   34.0400   42.9060 H   0  0  0  0  0  0  0  0  0  0  0  0
   43.2460   35.7580   42.4790 H   0  0  0  0  0  0  0  0  0  0  0  0
   45.3360   36.2680   43.9180 H   0  0  0  0  0  0  0  0  0  0  0  0
   43.9930   35.3910   44.8530 H   0  0  0  0  0  0  0  0  0  0  0  0
   45.0810   33.2290   44.1250 H   0  0  0  0  0  0  0  0  0  0  0  0
   47.9480   33.6640   43.5140 C   0  0  0  0  0  0  0  0  0  0  0  0
   48.1410   33.5830   44.6180 H   0  0  0  0  0  0  0  0  0  0  0  0
   48.7520   34.3070   43.0980 H   0  0  0  0  0  0  0  0  0  0  0  0
   47.7940   32.3440   42.8500 C   0  0  0  0  0  0  0  0  0  0  0  0
   47.7600   31.5360   43.5940 H   0  0  0  0  0  0  0  0  0  0  0  0
   46.8590   32.3010   42.2190 H   0  0  0  0  0  0  0  0  0  0  0  0
   51.2570   32.1260   41.4260 C   0  0  0  0  0  0  0  0  0  0  0  0
   50.1850   32.3240   42.3180 C   0  0  0  0  0  0  0  0  0  0  0  0
   48.9050   32.1290   41.8940 C   0  0  0  0  0  0  0  0  0  0  0  0
   48.7280   31.7520   40.6300 N   0  0  0  0  0  0  0  0  0  0  0  0
   49.7350   31.5580   39.7680 C   0  0  0  0  0  0  0  0  0  0  0  0
   51.0110   31.7420   40.1530 N   0  0  0  0  0  0  0  0  0  0  0  0
   52.2690   32.2830   41.7720 H   0  0  0  0  0  0  0  0  0  0  0  0
   50.4640   32.6330   43.3250 H   0  0  0  0  0  0  0  0  0  0  0  0
   49.3780   31.2560   38.7950 H   0  0  0  0  0  0  0  0  0  0  0  0
   46.0650   34.3410   45.5850 O   0  0  0  0  0  0  0  0  0  0  0  0
   45.7200   31.7030   45.6290 O   0  0  0  0  0  0  0  0  0  0  0  0
   46.0220   32.9240   46.4930 P   0  0  2  0  0  0  0  0  0  0  0  0
   44.6580   33.0680   47.5140 O   0  0  0  0  0  0  0  0  0  0  0  0
   44.9130   33.5600   48.3370 H   0  0  0  0  0  0  0  0  0  0  0  0
   47.3650   32.7140   47.4480 O   0  0  0  0  0  0  0  0  0  0  0  0
   47.0670   31.8390   48.4800 C   0  0  0  0  0  0  0  0  0  0  0  0
   46.0760   31.3870   48.4100 H   0  0  0  0  0  0  0  0  0  0  0  0
   47.1210   32.4010   49.4400 H   0  0  0  0  0  0  0  0  0  0  0  0
   48.1330   30.8470   48.5280 N   0  0  0  0  0  0  0  0  0  0  0  0
   47.9460   29.6310   47.9520 C   0  0  0  0  0  0  0  0  0  0  0  0
   47.0610   29.2550   47.4230 H   0  0  0  0  0  0  0  0  0  0  0  0
   49.0610   28.8750   48.1180 N   0  0  0  0  0  0  0  0  0  0  0  0
   49.9610   29.6300   48.8080 C   0  0  0  0  0  0  0  0  0  0  0  0
   51.2510   29.4740   49.2930 C   0  0  0  0  0  0  0  0  0  0  0  0
   51.8290   30.4930   49.9540 N   0  0  0  0  0  0  0  0  0  0  0  0
   51.2180   31.6560   50.1680 C   0  0  0  0  0  0  0  0  0  0  0  0
   51.8100   32.3670   50.7100 H   0  0  0  0  0  0  0  0  0  0  0  0
   49.9720   31.8550   49.7200 N   0  0  0  0  0  0  0  0  0  0  0  0
   49.3630   30.8640   49.0570 C   0  0  0  0  0  0  0  0  0  0  0  0
   51.8780   28.2260   49.0500 N   0  0  0  0  0  0  0  0  0  0  0  0
   52.3870   27.8280   48.2160 H   0  0  0  0  0  0  0  0  0  0  0  0
   52.0560   27.3310   49.5420 H   0  0  0  0  0  0  0  0  0  0  0  0
  1 16  1  0  0  0  0
  1  6  1  0  0  0  0
  2  7  1  0  0  0  0
  2  1  1  0  0  0  0
  3  2  1  0  0  0  0
  3  4  1  0  0  0  0
  4 11  1  0  0  0  0
  4  5  1  0  0  0  0
  5  6  1  0  0  0  0
  5 14  1  0  0  0  0
  6 15  1  6  0  0  0
  6 31  1  0  0  0  0
  8  2  1  0  0  0  0
  9  3  1  0  0  0  0
 10  3  1  0  0  0  0
 12  4  1  0  0  0  0
 13  5  1  0  0  0  0
 16 17  1  0  0  0  0
 18 16  1  0  0  0  0
 19 16  1  0  0  0  0
 19 20  1  0  0  0  0
 21 19  1  0  0  0  0
 22 28  1  0  0  0  0
 22 23  1  0  0  0  0
 23 29  1  0  0  0  0
 24 23  2  0  0  0  0
 24 19  1  0  0  0  0
 25 24  1  0  0  0  0
 26 27  1  0  0  0  0
 26 25  2  0  0  0  0
 27 22  2  0  0  0  0
 30 26  1  0  0  0  0
 31 33  1  0  0  0  0
 33 32  2  6  0  0  0
 33 36  1  0  0  0  0
 33 34  1  0  0  0  0
 34 35  1  0  0  0  0
 36 37  1  0  0  0  0
 37 40  1  0  0  0  0
 37 39  1  0  0  0  0
 38 37  1  0  0  0  0
 40 50  1  0  0  0  0
 41 43  2  0  0  0  0
 41 40  1  0  0  0  0
 42 41  1  0  0  0  0
 43 44  1  0  0  0  0
 44 50  2  0  0  0  0
 44 45  1  0  0  0  0
 45 46  2  0  0  0  0
 46 47  1  0  0  0  0
 47 48  1  0  0  0  0
 49 47  2  0  0  0  0
 50 49  1  0  0  0  0
 51 45  1  0  0  0  0
 51 53  1  0  0  0  0
 52 51  1  0  0  0  0
M  END
>  <minimizedAffinity>
-5.37555981

>  <minimizedRMSD>
2.92263627

$$$$
