
 OpenBabel03252509033D

 53 56  0  0  1  0  0  0  0  0999 V2000
   46.7840   34.3480   43.4800 N   0  0  0  0  0  0  0  0  0  0  0  0
   46.5120   34.9710   42.2360 C   0  0  0  0  0  0  0  0  0  0  0  0
   45.0530   34.9830   41.8530 C   0  0  0  0  0  0  0  0  0  0  0  0
   44.1040   35.1280   43.0290 C   0  0  0  0  0  0  0  0  0  0  0  0
   44.8700   35.3360   44.3250 C   0  0  0  0  0  0  0  0  0  0  0  0
   45.7990   34.0550   44.3910 C   0  0  2  0  0  0  0  0  0  0  0  0
   46.8570   36.0410   42.3420 H   0  0  0  0  0  0  0  0  0  0  0  0
   47.0640   34.5750   41.3730 H   0  0  0  0  0  0  0  0  0  0  0  0
   44.8900   35.8910   41.2110 H   0  0  0  0  0  0  0  0  0  0  0  0
   44.8000   34.1250   41.2010 H   0  0  0  0  0  0  0  0  0  0  0  0
   43.5700   34.1570   43.1200 H   0  0  0  0  0  0  0  0  0  0  0  0
   43.3450   35.9150   42.8640 H   0  0  0  0  0  0  0  0  0  0  0  0
   45.5080   36.2180   44.2530 H   0  0  0  0  0  0  0  0  0  0  0  0
   44.1700   35.3040   45.1600 H   0  0  0  0  0  0  0  0  0  0  0  0
   45.1450   33.1830   44.1920 H   0  0  0  0  0  0  0  0  0  0  0  0
   48.0010   33.5740   43.5020 C   0  0  0  0  0  0  0  0  0  0  0  0
   48.2390   33.3930   44.5860 H   0  0  0  0  0  0  0  0  0  0  0  0
   48.8110   34.2220   43.1040 H   0  0  0  0  0  0  0  0  0  0  0  0
   47.7670   32.3220   42.7390 C   0  0  0  0  0  0  0  0  0  0  0  0
   47.6400   31.4690   43.4210 H   0  0  0  0  0  0  0  0  0  0  0  0
   46.8570   32.4000   42.0770 H   0  0  0  0  0  0  0  0  0  0  0  0
   51.2490   32.1220   41.3590 C   0  0  0  0  0  0  0  0  0  0  0  0
   50.1630   32.3410   42.2280 C   0  0  0  0  0  0  0  0  0  0  0  0
   48.8930   32.0830   41.8070 C   0  0  0  0  0  0  0  0  0  0  0  0
   48.7400   31.6260   40.5660 N   0  0  0  0  0  0  0  0  0  0  0  0
   49.7600   31.4100   39.7250 C   0  0  0  0  0  0  0  0  0  0  0  0
   51.0260   31.6550   40.1090 N   0  0  0  0  0  0  0  0  0  0  0  0
   52.2520   32.3290   41.7020 H   0  0  0  0  0  0  0  0  0  0  0  0
   50.4230   32.7170   43.2170 H   0  0  0  0  0  0  0  0  0  0  0  0
   49.4210   31.0400   38.7700 H   0  0  0  0  0  0  0  0  0  0  0  0
   46.2270   34.1200   45.7050 O   0  0  0  0  0  0  0  0  0  0  0  0
   45.5530   31.5490   45.5940 O   0  0  0  0  0  0  0  0  0  0  0  0
   46.0450   32.6580   46.5190 P   0  0  2  0  0  0  0  0  0  0  0  0
   44.7550   32.8960   47.6170 O   0  0  0  0  0  0  0  0  0  0  0  0
   45.1060   33.2930   48.4560 H   0  0  0  0  0  0  0  0  0  0  0  0
   47.3900   32.2170   47.3870 O   0  0  0  0  0  0  0  0  0  0  0  0
   47.6760   30.8820   47.1520 C   0  0  0  0  0  0  0  0  0  0  0  0
   48.0270   30.6720   46.1390 H   0  0  0  0  0  0  0  0  0  0  0  0
   46.7470   30.2910   47.3220 H   0  0  0  0  0  0  0  0  0  0  0  0
   48.6230   30.4540   48.1720 N   0  0  0  0  0  0  0  0  0  0  0  0
   48.4640   30.8740   49.4550 C   0  0  0  0  0  0  0  0  0  0  0  0
   47.6830   31.5250   49.8680 H   0  0  0  0  0  0  0  0  0  0  0  0
   49.4540   30.3570   50.2270 N   0  0  0  0  0  0  0  0  0  0  0  0
   50.2450   29.6020   49.4150 C   0  0  0  0  0  0  0  0  0  0  0  0
   51.3870   28.8260   49.5530 C   0  0  0  0  0  0  0  0  0  0  0  0
   51.8930   28.2090   48.4700 N   0  0  0  0  0  0  0  0  0  0  0  0
   51.3460   28.3070   47.2600 C   0  0  0  0  0  0  0  0  0  0  0  0
   51.8660   27.7580   46.5000 H   0  0  0  0  0  0  0  0  0  0  0  0
   50.2430   29.0440   47.0760 N   0  0  0  0  0  0  0  0  0  0  0  0
   49.7100   29.6750   48.1300 C   0  0  0  0  0  0  0  0  0  0  0  0
   51.9470   28.7400   50.8510 N   0  0  0  0  0  0  0  0  0  0  0  0
   51.7180   28.1480   51.6950 H   0  0  0  0  0  0  0  0  0  0  0  0
   52.7070   29.1740   51.4060 H   0  0  0  0  0  0  0  0  0  0  0  0
  1 16  1  0  0  0  0
  1  6  1  0  0  0  0
  2  7  1  0  0  0  0
  2  1  1  0  0  0  0
  3  2  1  0  0  0  0
  3  4  1  0  0  0  0
  4 11  1  0  0  0  0
  4  5  1  0  0  0  0
  5  6  1  0  0  0  0
  5 14  1  0  0  0  0
  6 15  1  6  0  0  0
  6 31  1  0  0  0  0
  8  2  1  0  0  0  0
  9  3  1  0  0  0  0
 10  3  1  0  0  0  0
 12  4  1  0  0  0  0
 13  5  1  0  0  0  0
 16 17  1  0  0  0  0
 18 16  1  0  0  0  0
 19 20  1  0  0  0  0
 19 16  1  0  0  0  0
 21 19  1  0  0  0  0
 22 28  1  0  0  0  0
 22 23  1  0  0  0  0
 23 29  1  0  0  0  0
 24 23  2  0  0  0  0
 24 19  1  0  0  0  0
 25 24  1  0  0  0  0
 26 27  1  0  0  0  0
 26 25  2  0  0  0  0
 27 22  2  0  0  0  0
 30 26  1  0  0  0  0
 31 33  1  0  0  0  0
 33 32  2  6  0  0  0
 33 36  1  0  0  0  0
 33 34  1  0  0  0  0
 34 35  1  0  0  0  0
 37 39  1  0  0  0  0
 37 36  1  0  0  0  0
 37 40  1  0  0  0  0
 38 37  1  0  0  0  0
 40 41  1  0  0  0  0
 41 42  1  0  0  0  0
 41 43  2  0  0  0  0
 44 45  1  0  0  0  0
 44 43  1  0  0  0  0
 45 51  1  0  0  0  0
 46 45  2  0  0  0  0
 47 46  1  0  0  0  0
 48 47  1  0  0  0  0
 49 47  2  0  0  0  0
 49 50  1  0  0  0  0
 50 40  1  0  0  0  0
 50 44  2  0  0  0  0
 51 53  1  0  0  0  0
 51 52  1  0  0  0  0
M  END
>  <minimizedAffinity>
-5.17649508

>  <minimizedRMSD>
2.97409034

$$$$
