
 OpenBabel03252503143D

 39 43  0  0  0  0  0  0  0  0999 V2000
   36.5920   30.3830   39.8990 C   0  0  0  0  0  0  0  0  0  0  0  0
   36.4790   31.1930   41.0030 C   0  0  0  0  0  0  0  0  0  0  0  0
   37.4490   32.1180   40.8770 N   0  0  0  0  0  0  0  0  0  0  0  0
   38.1330   31.8770   39.7280 C   0  0  0  0  0  0  0  0  0  0  0  0
   37.6050   30.7990   39.1160 N   0  0  0  0  0  0  0  0  0  0  0  0
   35.7390   31.0470   41.7620 H   0  0  0  0  0  0  0  0  0  0  0  0
   37.5630   32.8590   41.6120 H   0  0  0  0  0  0  0  0  0  0  0  0
   39.2110   32.7460   39.4010 N   0  0  0  0  0  0  0  0  0  0  0  0
   39.3220   33.9910   39.9520 C   0  0  0  0  0  0  0  0  0  0  0  0
   38.6840   34.5210   40.6760 H   0  0  0  0  0  0  0  0  0  0  0  0
   40.4370   34.6120   39.4710 N   0  0  0  0  0  0  0  0  0  0  0  0
   41.0450   33.7610   38.6070 C   0  0  0  0  0  0  0  0  0  0  0  0
   42.1850   33.7740   37.8000 C   0  0  0  0  0  0  0  0  0  0  0  0
   42.4480   32.6950   37.0650 N   0  0  0  0  0  0  0  0  0  0  0  0
   41.6930   31.5810   37.0380 C   0  0  0  0  0  0  0  0  0  0  0  0
   42.0550   30.8050   36.3870 H   0  0  0  0  0  0  0  0  0  0  0  0
   40.6000   31.5540   37.8050 N   0  0  0  0  0  0  0  0  0  0  0  0
   40.2710   32.6240   38.5820 C   0  0  0  0  0  0  0  0  0  0  0  0
   42.9890   34.9470   37.8210 N   0  0  0  0  0  0  0  0  0  0  0  0
   42.6690   35.4180   36.9340 H   0  0  0  0  0  0  0  0  0  0  0  0
   43.7140   35.3950   38.4150 H   0  0  0  0  0  0  0  0  0  0  0  0
   35.7330   29.1940   39.5740 C   0  0  0  0  0  0  0  0  0  0  0  0
   34.4730   29.1900   39.6990 O   0  0  0  0  0  0  0  0  0  0  0  0
   36.1670   27.6170   37.7610 C   0  0  0  0  0  0  0  0  0  0  0  0
   36.3190   28.0020   39.1030 C   0  0  0  0  0  0  0  0  0  0  0  0
   37.0780   27.1200   39.8820 C   0  0  0  0  0  0  0  0  0  0  0  0
   37.6150   25.9980   39.3810 N   0  0  0  0  0  0  0  0  0  0  0  0
   37.4300   25.6780   38.0670 C   0  0  0  0  0  0  0  0  0  0  0  0
   36.7120   26.4850   37.2720 N   0  0  0  0  0  0  0  0  0  0  0  0
   35.5810   28.2760   37.1100 H   0  0  0  0  0  0  0  0  0  0  0  0
   37.8530   24.7840   37.6510 H   0  0  0  0  0  0  0  0  0  0  0  0
   37.2760   27.4280   41.2360 C   0  0  0  0  0  0  0  0  0  0  0  0
   36.5160   27.3070   42.3660 C   0  0  0  0  0  0  0  0  0  0  0  0
   36.9480   27.6850   43.5620 C   0  0  0  0  0  0  0  0  0  0  0  0
   38.2030   28.2090   43.6290 C   0  0  0  0  0  0  0  0  0  0  0  0
   38.7700   28.1450   41.8670 S   0  0  0  0  0  0  0  0  0  0  0  0
   35.5100   26.8660   42.1990 H   0  0  0  0  0  0  0  0  0  0  0  0
   36.3970   27.6160   44.4910 H   0  0  0  0  0  0  0  0  0  0  0  0
   38.7880   28.5930   44.4880 H   0  0  0  0  0  0  0  0  0  0  0  0
  1  2  2  0  0  0  0
  2  6  1  0  0  0  0
  3  2  1  0  0  0  0
  3  7  1  0  0  0  0
  4  3  1  0  0  0  0
  5  4  2  0  0  0  0
  5  1  1  0  0  0  0
  8  4  1  0  0  0  0
  8  9  1  0  0  0  0
  9 10  1  0  0  0  0
 11  9  2  0  0  0  0
 12 11  1  0  0  0  0
 13 19  1  0  0  0  0
 13 12  2  0  0  0  0
 14 13  1  0  0  0  0
 15 14  2  0  0  0  0
 15 17  1  0  0  0  0
 16 15  1  0  0  0  0
 17 18  2  0  0  0  0
 18 12  1  0  0  0  0
 18  8  1  0  0  0  0
 19 21  1  0  0  0  0
 20 19  1  0  0  0  0
 22 23  2  0  0  0  0
 22  1  1  0  0  0  0
 24 25  1  0  0  0  0
 25 22  1  0  0  0  0
 25 26  2  0  0  0  0
 26 32  1  0  0  0  0
 27 26  1  0  0  0  0
 28 27  2  0  0  0  0
 29 24  2  0  0  0  0
 29 28  1  0  0  0  0
 30 24  1  0  0  0  0
 31 28  1  0  0  0  0
 32 36  1  0  0  0  0
 32 33  2  0  0  0  0
 33 34  1  0  0  0  0
 34 35  2  0  0  0  0
 34 38  1  0  0  0  0
 35 39  1  0  0  0  0
 36 35  1  0  0  0  0
 37 33  1  0  0  0  0
M  END
>  <minimizedAffinity>
-6.79262161

$$$$

 OpenBabel03252503143D

 39 43  0  0  0  0  0  0  0  0999 V2000
   38.8370   28.8820   41.4730 C   0  0  0  0  0  0  0  0  0  0  0  0
   37.7750   29.0130   40.6110 C   0  0  0  0  0  0  0  0  0  0  0  0
   38.1790   29.8800   39.6630 N   0  0  0  0  0  0  0  0  0  0  0  0
   39.4520   30.2660   39.9410 C   0  0  0  0  0  0  0  0  0  0  0  0
   39.8670   29.6490   41.0650 N   0  0  0  0  0  0  0  0  0  0  0  0
   36.8490   28.4940   40.7420 H   0  0  0  0  0  0  0  0  0  0  0  0
   37.5270   30.1420   38.8830 H   0  0  0  0  0  0  0  0  0  0  0  0
   40.0750   31.1890   39.0560 N   0  0  0  0  0  0  0  0  0  0  0  0
   39.6220   31.3800   37.7820 C   0  0  0  0  0  0  0  0  0  0  0  0
   38.7830   30.9210   37.2360 H   0  0  0  0  0  0  0  0  0  0  0  0
   40.3930   32.3120   37.1510 N   0  0  0  0  0  0  0  0  0  0  0  0
   41.3460   32.7220   38.0250 C   0  0  0  0  0  0  0  0  0  0  0  0
   42.4130   33.6220   38.0170 C   0  0  0  0  0  0  0  0  0  0  0  0
   43.1450   33.7400   39.1240 N   0  0  0  0  0  0  0  0  0  0  0  0
   42.9350   33.0510   40.2610 C   0  0  0  0  0  0  0  0  0  0  0  0
   43.6240   33.2730   41.0570 H   0  0  0  0  0  0  0  0  0  0  0  0
   41.9180   32.1870   40.2830 N   0  0  0  0  0  0  0  0  0  0  0  0
   41.1290   32.0160   39.1860 C   0  0  0  0  0  0  0  0  0  0  0  0
   42.6430   34.3540   36.8200 N   0  0  0  0  0  0  0  0  0  0  0  0
   43.4400   33.8030   36.4050 H   0  0  0  0  0  0  0  0  0  0  0  0
   42.2700   35.1850   36.3200 H   0  0  0  0  0  0  0  0  0  0  0  0
   38.8870   28.0220   42.7030 C   0  0  0  0  0  0  0  0  0  0  0  0
   38.0040   28.0520   43.6100 O   0  0  0  0  0  0  0  0  0  0  0  0
   41.1230   27.5360   43.5540 C   0  0  0  0  0  0  0  0  0  0  0  0
   39.9540   27.1210   42.8970 C   0  0  0  0  0  0  0  0  0  0  0  0
   39.9610   25.7840   42.4790 C   0  0  0  0  0  0  0  0  0  0  0  0
   41.0040   24.9710   42.6920 N   0  0  0  0  0  0  0  0  0  0  0  0
   42.1150   25.4340   43.3360 C   0  0  0  0  0  0  0  0  0  0  0  0
   42.1650   26.7060   43.7600 N   0  0  0  0  0  0  0  0  0  0  0  0
   41.1670   28.5760   43.9000 H   0  0  0  0  0  0  0  0  0  0  0  0
   42.9580   24.7950   43.5150 H   0  0  0  0  0  0  0  0  0  0  0  0
   38.8310   25.2890   41.8120 C   0  0  0  0  0  0  0  0  0  0  0  0
   37.6580   24.7130   42.2140 C   0  0  0  0  0  0  0  0  0  0  0  0
   36.7250   24.3190   41.3580 C   0  0  0  0  0  0  0  0  0  0  0  0
   36.9780   24.5130   40.0340 C   0  0  0  0  0  0  0  0  0  0  0  0
   38.6530   25.3030   40.0480 S   0  0  0  0  0  0  0  0  0  0  0  0
   37.5530   24.6030   43.3150 H   0  0  0  0  0  0  0  0  0  0  0  0
   35.7790   23.8580   41.6120 H   0  0  0  0  0  0  0  0  0  0  0  0
   36.3760   24.2790   39.1340 H   0  0  0  0  0  0  0  0  0  0  0  0
  1 22  1  0  0  0  0
  2  6  1  0  0  0  0
  2  1  2  0  0  0  0
  3  4  1  0  0  0  0
  3  2  1  0  0  0  0
  4  5  2  0  0  0  0
  5  1  1  0  0  0  0
  7  3  1  0  0  0  0
  8 18  1  0  0  0  0
  8  4  1  0  0  0  0
  9  8  1  0  0  0  0
 10  9  1  0  0  0  0
 11  9  2  0  0  0  0
 11 12  1  0  0  0  0
 12 18  1  0  0  0  0
 13 12  2  0  0  0  0
 13 14  1  0  0  0  0
 14 15  2  0  0  0  0
 15 17  1  0  0  0  0
 15 16  1  0  0  0  0
 18 17  2  0  0  0  0
 19 13  1  0  0  0  0
 20 19  1  0  0  0  0
 21 19  1  0  0  0  0
 22 25  1  0  0  0  0
 22 23  2  0  0  0  0
 24 29  1  0  0  0  0
 24 30  1  0  0  0  0
 25 24  2  0  0  0  0
 26 27  2  0  0  0  0
 26 25  1  0  0  0  0
 27 28  1  0  0  0  0
 28 31  1  0  0  0  0
 28 29  2  0  0  0  0
 32 33  2  0  0  0  0
 32 26  1  0  0  0  0
 33 37  1  0  0  0  0
 34 38  1  0  0  0  0
 34 33  1  0  0  0  0
 35 36  1  0  0  0  0
 35 34  2  0  0  0  0
 36 32  1  0  0  0  0
 39 35  1  0  0  0  0
M  END
>  <minimizedAffinity>
-6.50523853

$$$$

 OpenBabel03252503143D

 39 43  0  0  0  0  0  0  0  0999 V2000
   38.7730   28.3240   38.1240 C   0  0  0  0  0  0  0  0  0  0  0  0
   39.4060   27.9640   36.9590 C   0  0  0  0  0  0  0  0  0  0  0  0
   40.2860   28.9500   36.7020 N   0  0  0  0  0  0  0  0  0  0  0  0
   40.1910   29.8840   37.6840 C   0  0  0  0  0  0  0  0  0  0  0  0
   39.2520   29.5010   38.5720 N   0  0  0  0  0  0  0  0  0  0  0  0
   39.1820   27.0630   36.4270 H   0  0  0  0  0  0  0  0  0  0  0  0
   40.8960   28.8970   35.8490 H   0  0  0  0  0  0  0  0  0  0  0  0
   41.0420   31.0210   37.6050 N   0  0  0  0  0  0  0  0  0  0  0  0
   42.1780   31.0170   36.8460 C   0  0  0  0  0  0  0  0  0  0  0  0
   42.6220   30.2330   36.2120 H   0  0  0  0  0  0  0  0  0  0  0  0
   42.8060   32.2230   36.9460 N   0  0  0  0  0  0  0  0  0  0  0  0
   42.0700   33.0070   37.7730 C   0  0  0  0  0  0  0  0  0  0  0  0
   42.1480   34.3060   38.2790 C   0  0  0  0  0  0  0  0  0  0  0  0
   41.1850   34.7200   39.1010 N   0  0  0  0  0  0  0  0  0  0  0  0
   40.1310   33.9760   39.4850 C   0  0  0  0  0  0  0  0  0  0  0  0
   39.4480   34.4720   40.1530 H   0  0  0  0  0  0  0  0  0  0  0  0
   40.0420   32.7320   39.0080 N   0  0  0  0  0  0  0  0  0  0  0  0
   40.9940   32.2440   38.1640 C   0  0  0  0  0  0  0  0  0  0  0  0
   43.2590   35.0990   37.8790 N   0  0  0  0  0  0  0  0  0  0  0  0
   43.8790   35.0060   38.7260 H   0  0  0  0  0  0  0  0  0  0  0  0
   43.5690   35.6690   37.0680 H   0  0  0  0  0  0  0  0  0  0  0  0
   37.6980   27.5500   38.8310 C   0  0  0  0  0  0  0  0  0  0  0  0
   37.8870   26.4110   39.3520 O   0  0  0  0  0  0  0  0  0  0  0  0
   35.5460   28.1170   37.8260 C   0  0  0  0  0  0  0  0  0  0  0  0
   36.3960   28.0810   38.9430 C   0  0  0  0  0  0  0  0  0  0  0  0
   35.8410   28.6010   40.1180 C   0  0  0  0  0  0  0  0  0  0  0  0
   34.5950   29.0920   40.1680 N   0  0  0  0  0  0  0  0  0  0  0  0
   33.8160   29.1010   39.0470 C   0  0  0  0  0  0  0  0  0  0  0  0
   34.2950   28.6160   37.8920 N   0  0  0  0  0  0  0  0  0  0  0  0
   35.9350   27.7210   36.8810 H   0  0  0  0  0  0  0  0  0  0  0  0
   32.8170   29.4910   39.0700 H   0  0  0  0  0  0  0  0  0  0  0  0
   36.6250   28.6050   41.2810 C   0  0  0  0  0  0  0  0  0  0  0  0
   36.8050   27.7320   42.3180 C   0  0  0  0  0  0  0  0  0  0  0  0
   37.6290   27.9800   43.3270 C   0  0  0  0  0  0  0  0  0  0  0  0
   38.3080   29.1600   43.2960 C   0  0  0  0  0  0  0  0  0  0  0  0
   37.7100   29.9360   41.7230 S   0  0  0  0  0  0  0  0  0  0  0  0
   36.2040   26.8000   42.2440 H   0  0  0  0  0  0  0  0  0  0  0  0
   37.8140   27.3330   44.1740 H   0  0  0  0  0  0  0  0  0  0  0  0
   39.0410   29.6000   44.0010 H   0  0  0  0  0  0  0  0  0  0  0  0
  1  5  1  0  0  0  0
  1 22  1  0  0  0  0
  2  1  2  0  0  0  0
  3  2  1  0  0  0  0
  3  4  1  0  0  0  0
  4  5  2  0  0  0  0
  6  2  1  0  0  0  0
  7  3  1  0  0  0  0
  8  4  1  0  0  0  0
  8 18  1  0  0  0  0
  9 11  2  0  0  0  0
  9  8  1  0  0  0  0
 10  9  1  0  0  0  0
 11 12  1  0  0  0  0
 12 18  2  0  0  0  0
 12 13  1  0  0  0  0
 13 14  2  0  0  0  0
 14 15  1  0  0  0  0
 15 16  1  0  0  0  0
 17 15  2  0  0  0  0
 18 17  1  0  0  0  0
 19 13  1  0  0  0  0
 19 20  1  0  0  0  0
 21 19  1  0  0  0  0
 22 25  1  0  0  0  0
 22 23  2  0  0  0  0
 24 29  2  0  0  0  0
 24 25  1  0  0  0  0
 25 26  2  0  0  0  0
 26 27  1  0  0  0  0
 26 32  1  0  0  0  0
 28 31  1  0  0  0  0
 28 27  2  0  0  0  0
 29 28  1  0  0  0  0
 30 24  1  0  0  0  0
 32 36  1  0  0  0  0
 32 33  2  0  0  0  0
 33 34  1  0  0  0  0
 34 38  1  0  0  0  0
 35 34  2  0  0  0  0
 35 39  1  0  0  0  0
 36 35  1  0  0  0  0
 37 33  1  0  0  0  0
M  END
>  <minimizedAffinity>
-6.43374252

$$$$

 OpenBabel03252503143D

 39 43  0  0  0  0  0  0  0  0999 V2000
   37.7610   29.1830   39.0670 C   0  0  0  0  0  0  0  0  0  0  0  0
   38.0580   28.7330   37.8030 C   0  0  0  0  0  0  0  0  0  0  0  0
   39.0170   29.5580   37.3380 N   0  0  0  0  0  0  0  0  0  0  0  0
   39.2940   30.4830   38.2940 C   0  0  0  0  0  0  0  0  0  0  0  0
   38.5170   30.2550   39.3710 N   0  0  0  0  0  0  0  0  0  0  0  0
   37.5770   27.8900   37.3550 H   0  0  0  0  0  0  0  0  0  0  0  0
   39.4100   29.4100   36.3760 H   0  0  0  0  0  0  0  0  0  0  0  0
   40.2880   31.4590   38.0050 N   0  0  0  0  0  0  0  0  0  0  0  0
   41.2160   31.2690   37.0210 C   0  0  0  0  0  0  0  0  0  0  0  0
   41.3740   30.4280   36.3270 H   0  0  0  0  0  0  0  0  0  0  0  0
   42.0460   32.3500   36.9520 N   0  0  0  0  0  0  0  0  0  0  0  0
   41.6490   33.2380   37.8970 C   0  0  0  0  0  0  0  0  0  0  0  0
   42.0520   34.4990   38.3410 C   0  0  0  0  0  0  0  0  0  0  0  0
   41.3730   35.0620   39.3390 N   0  0  0  0  0  0  0  0  0  0  0  0
   40.3160   34.5050   39.9590 C   0  0  0  0  0  0  0  0  0  0  0  0
   39.8860   35.1020   40.7440 H   0  0  0  0  0  0  0  0  0  0  0  0
   39.9180   33.3000   39.5440 N   0  0  0  0  0  0  0  0  0  0  0  0
   40.5690   32.6660   38.5290 C   0  0  0  0  0  0  0  0  0  0  0  0
   43.1680   35.0950   37.6930 N   0  0  0  0  0  0  0  0  0  0  0  0
   43.9320   34.8890   38.3900 H   0  0  0  0  0  0  0  0  0  0  0  0
   43.3890   35.6130   36.8190 H   0  0  0  0  0  0  0  0  0  0  0  0
   36.7480   28.5960   40.0070 C   0  0  0  0  0  0  0  0  0  0  0  0
   35.5290   28.4340   39.7060 O   0  0  0  0  0  0  0  0  0  0  0  0
   37.1570   29.1170   42.3570 C   0  0  0  0  0  0  0  0  0  0  0  0
   37.1320   28.1910   41.3020 C   0  0  0  0  0  0  0  0  0  0  0  0
   37.5070   26.8900   41.6570 C   0  0  0  0  0  0  0  0  0  0  0  0
   37.8620   26.5600   42.9070 N   0  0  0  0  0  0  0  0  0  0  0  0
   37.8670   27.5070   43.8900 C   0  0  0  0  0  0  0  0  0  0  0  0
   37.5170   28.7700   43.6090 N   0  0  0  0  0  0  0  0  0  0  0  0
   36.8710   30.1510   42.1300 H   0  0  0  0  0  0  0  0  0  0  0  0
   38.1480   27.2580   44.8960 H   0  0  0  0  0  0  0  0  0  0  0  0
   37.5120   25.9020   40.6610 C   0  0  0  0  0  0  0  0  0  0  0  0
   36.5820   25.0220   40.1810 C   0  0  0  0  0  0  0  0  0  0  0  0
   36.8470   24.1650   39.2040 C   0  0  0  0  0  0  0  0  0  0  0  0
   38.1040   24.1910   38.6810 C   0  0  0  0  0  0  0  0  0  0  0  0
   38.9300   25.5260   39.6640 S   0  0  0  0  0  0  0  0  0  0  0  0
   35.5900   25.0850   40.6770 H   0  0  0  0  0  0  0  0  0  0  0  0
   36.1570   23.4450   38.7820 H   0  0  0  0  0  0  0  0  0  0  0  0
   38.5720   23.5920   37.8750 H   0  0  0  0  0  0  0  0  0  0  0  0
  1  5  1  0  0  0  0
  1 22  1  0  0  0  0
  2  1  2  0  0  0  0
  3  2  1  0  0  0  0
  3  4  1  0  0  0  0
  4  5  2  0  0  0  0
  6  2  1  0  0  0  0
  7  3  1  0  0  0  0
  8  4  1  0  0  0  0
  8 18  1  0  0  0  0
  9  8  1  0  0  0  0
 10  9  1  0  0  0  0
 11  9  2  0  0  0  0
 11 12  1  0  0  0  0
 12 13  2  0  0  0  0
 12 18  1  0  0  0  0
 13 14  1  0  0  0  0
 14 15  2  0  0  0  0
 15 16  1  0  0  0  0
 17 15  1  0  0  0  0
 18 17  2  0  0  0  0
 19 13  1  0  0  0  0
 19 20  1  0  0  0  0
 21 19  1  0  0  0  0
 22 25  1  0  0  0  0
 23 22  2  0  0  0  0
 24 29  1  0  0  0  0
 25 26  1  0  0  0  0
 25 24  2  0  0  0  0
 26 27  2  0  0  0  0
 27 28  1  0  0  0  0
 28 31  1  0  0  0  0
 29 28  2  0  0  0  0
 30 24  1  0  0  0  0
 32 26  1  0  0  0  0
 33 32  2  0  0  0  0
 33 37  1  0  0  0  0
 34 33  1  0  0  0  0
 35 34  2  0  0  0  0
 35 36  1  0  0  0  0
 36 32  1  0  0  0  0
 38 34  1  0  0  0  0
 39 35  1  0  0  0  0
M  END
>  <minimizedAffinity>
-6.42257881

$$$$

 OpenBabel03252503143D

 39 43  0  0  0  0  0  0  0  0999 V2000
   38.4710   29.1280   41.1920 C   0  0  0  0  0  0  0  0  0  0  0  0
   37.7440   29.0660   40.0280 C   0  0  0  0  0  0  0  0  0  0  0  0
   38.3170   29.9530   39.1920 N   0  0  0  0  0  0  0  0  0  0  0  0
   39.3640   30.5380   39.8310 C   0  0  0  0  0  0  0  0  0  0  0  0
   39.4650   30.0290   41.0750 N   0  0  0  0  0  0  0  0  0  0  0  0
   36.9050   28.4150   39.8970 H   0  0  0  0  0  0  0  0  0  0  0  0
   37.9290   30.0850   38.2260 H   0  0  0  0  0  0  0  0  0  0  0  0
   40.1130   31.5170   39.1210 N   0  0  0  0  0  0  0  0  0  0  0  0
   40.0830   31.5940   37.7580 C   0  0  0  0  0  0  0  0  0  0  0  0
   39.5400   30.9930   37.0100 H   0  0  0  0  0  0  0  0  0  0  0  0
   40.8860   32.6120   37.3330 N   0  0  0  0  0  0  0  0  0  0  0  0
   41.4350   33.1910   38.4300 C   0  0  0  0  0  0  0  0  0  0  0  0
   42.3130   34.2440   38.6920 C   0  0  0  0  0  0  0  0  0  0  0  0
   42.6190   34.5090   39.9610 N   0  0  0  0  0  0  0  0  0  0  0  0
   42.1410   33.8340   41.0230 C   0  0  0  0  0  0  0  0  0  0  0  0
   42.4930   34.1850   41.9770 H   0  0  0  0  0  0  0  0  0  0  0  0
   41.2990   32.8250   40.7880 N   0  0  0  0  0  0  0  0  0  0  0  0
   40.9450   32.4990   39.5140 C   0  0  0  0  0  0  0  0  0  0  0  0
   42.8240   34.9630   37.5760 N   0  0  0  0  0  0  0  0  0  0  0  0
   43.7790   34.5280   37.4840 H   0  0  0  0  0  0  0  0  0  0  0  0
   42.5280   35.7100   36.9170 H   0  0  0  0  0  0  0  0  0  0  0  0
   38.2290   28.3260   42.4390 C   0  0  0  0  0  0  0  0  0  0  0  0
   38.0210   28.8480   43.5730 O   0  0  0  0  0  0  0  0  0  0  0  0
   37.0370   26.2200   42.1160 C   0  0  0  0  0  0  0  0  0  0  0  0
   38.2240   26.9170   42.3880 C   0  0  0  0  0  0  0  0  0  0  0  0
   39.3470   26.1040   42.5910 C   0  0  0  0  0  0  0  0  0  0  0  0
   39.2850   24.7670   42.5290 N   0  0  0  0  0  0  0  0  0  0  0  0
   38.0990   24.1470   42.2610 C   0  0  0  0  0  0  0  0  0  0  0  0
   36.9910   24.8740   42.0580 N   0  0  0  0  0  0  0  0  0  0  0  0
   36.1290   26.8120   41.9490 H   0  0  0  0  0  0  0  0  0  0  0  0
   38.0340   23.0770   42.2080 H   0  0  0  0  0  0  0  0  0  0  0  0
   40.5750   26.7210   42.8710 C   0  0  0  0  0  0  0  0  0  0  0  0
   41.1950   27.1420   44.0150 C   0  0  0  0  0  0  0  0  0  0  0  0
   42.3910   27.7140   44.0090 C   0  0  0  0  0  0  0  0  0  0  0  0
   42.9980   27.8710   42.8000 C   0  0  0  0  0  0  0  0  0  0  0  0
   41.7600   27.1510   41.6250 S   0  0  0  0  0  0  0  0  0  0  0  0
   40.6130   26.9660   44.9450 H   0  0  0  0  0  0  0  0  0  0  0  0
   42.9330   28.0690   44.8770 H   0  0  0  0  0  0  0  0  0  0  0  0
   43.9770   28.3090   42.5260 H   0  0  0  0  0  0  0  0  0  0  0  0
  1 22  1  0  0  0  0
  2  1  2  0  0  0  0
  3  4  1  0  0  0  0
  3  2  1  0  0  0  0
  4  5  2  0  0  0  0
  5  1  1  0  0  0  0
  6  2  1  0  0  0  0
  7  3  1  0  0  0  0
  8 18  1  0  0  0  0
  8  4  1  0  0  0  0
  9  8  1  0  0  0  0
 10  9  1  0  0  0  0
 11  9  2  0  0  0  0
 11 12  1  0  0  0  0
 12 13  2  0  0  0  0
 12 18  1  0  0  0  0
 13 14  1  0  0  0  0
 14 15  2  0  0  0  0
 15 16  1  0  0  0  0
 17 15  1  0  0  0  0
 18 17  2  0  0  0  0
 19 13  1  0  0  0  0
 20 19  1  0  0  0  0
 21 19  1  0  0  0  0
 22 23  2  0  0  0  0
 24 25  1  0  0  0  0
 25 22  1  0  0  0  0
 25 26  2  0  0  0  0
 26 32  1  0  0  0  0
 27 26  1  0  0  0  0
 28 27  2  0  0  0  0
 29 24  2  0  0  0  0
 29 28  1  0  0  0  0
 30 24  1  0  0  0  0
 31 28  1  0  0  0  0
 32 33  2  0  0  0  0
 33 37  1  0  0  0  0
 34 33  1  0  0  0  0
 34 38  1  0  0  0  0
 35 34  2  0  0  0  0
 36 35  1  0  0  0  0
 36 32  1  0  0  0  0
 39 35  1  0  0  0  0
M  END
>  <minimizedAffinity>
-6.39093542

$$$$

 OpenBabel03252503143D

 39 43  0  0  0  0  0  0  0  0999 V2000
   39.1300   28.2050   42.8860 C   0  0  0  0  0  0  0  0  0  0  0  0
   40.3760   27.7310   43.2170 C   0  0  0  0  0  0  0  0  0  0  0  0
   41.2340   28.7310   42.9380 N   0  0  0  0  0  0  0  0  0  0  0  0
   40.5270   29.7850   42.4510 C   0  0  0  0  0  0  0  0  0  0  0  0
   39.2190   29.4640   42.4160 N   0  0  0  0  0  0  0  0  0  0  0  0
   40.5420   26.7500   43.6120 H   0  0  0  0  0  0  0  0  0  0  0  0
   42.2610   28.6020   43.1110 H   0  0  0  0  0  0  0  0  0  0  0  0
   41.2480   30.9570   42.0890 N   0  0  0  0  0  0  0  0  0  0  0  0
   42.5020   31.2050   42.5680 C   0  0  0  0  0  0  0  0  0  0  0  0
   43.1450   30.6250   43.2490 H   0  0  0  0  0  0  0  0  0  0  0  0
   42.9630   32.3890   42.0700 N   0  0  0  0  0  0  0  0  0  0  0  0
   41.9990   32.9030   41.2660 C   0  0  0  0  0  0  0  0  0  0  0  0
   41.8330   34.0440   40.4790 C   0  0  0  0  0  0  0  0  0  0  0  0
   40.6880   34.1890   39.8140 N   0  0  0  0  0  0  0  0  0  0  0  0
   39.6670   33.3120   39.8410 C   0  0  0  0  0  0  0  0  0  0  0  0
   38.8180   33.5890   39.2420 H   0  0  0  0  0  0  0  0  0  0  0  0
   39.8110   32.2160   40.5890 N   0  0  0  0  0  0  0  0  0  0  0  0
   40.9570   32.0050   41.2970 C   0  0  0  0  0  0  0  0  0  0  0  0
   42.9060   34.9760   40.4440 N   0  0  0  0  0  0  0  0  0  0  0  0
   42.5540   35.7050   41.1190 H   0  0  0  0  0  0  0  0  0  0  0  0
   43.8280   35.1010   39.9810 H   0  0  0  0  0  0  0  0  0  0  0  0
   37.8300   27.4630   43.0130 C   0  0  0  0  0  0  0  0  0  0  0  0
   36.9810   27.6960   43.9220 O   0  0  0  0  0  0  0  0  0  0  0  0
   37.7530   25.1010   42.4020 C   0  0  0  0  0  0  0  0  0  0  0  0
   37.5000   26.4470   42.0930 C   0  0  0  0  0  0  0  0  0  0  0  0
   36.9130   26.6600   40.8400 C   0  0  0  0  0  0  0  0  0  0  0  0
   36.6180   25.6540   40.0050 N   0  0  0  0  0  0  0  0  0  0  0  0
   36.8900   24.3640   40.3620 C   0  0  0  0  0  0  0  0  0  0  0  0
   37.4520   24.1000   41.5500 N   0  0  0  0  0  0  0  0  0  0  0  0
   38.2130   24.8820   43.3730 H   0  0  0  0  0  0  0  0  0  0  0  0
   36.6600   23.5480   39.7050 H   0  0  0  0  0  0  0  0  0  0  0  0
   36.6290   27.9770   40.4520 C   0  0  0  0  0  0  0  0  0  0  0  0
   35.6830   28.8980   40.8090 C   0  0  0  0  0  0  0  0  0  0  0  0
   35.6290   30.1110   40.2760 C   0  0  0  0  0  0  0  0  0  0  0  0
   36.5690   30.4180   39.3410 C   0  0  0  0  0  0  0  0  0  0  0  0
   37.5700   28.8630   39.2390 S   0  0  0  0  0  0  0  0  0  0  0  0
   34.9660   28.5440   41.5810 H   0  0  0  0  0  0  0  0  0  0  0  0
   34.9070   30.8810   40.5150 H   0  0  0  0  0  0  0  0  0  0  0  0
   36.7410   31.3430   38.7550 H   0  0  0  0  0  0  0  0  0  0  0  0
  1 22  1  0  0  0  0
  1  2  2  0  0  0  0
  2  6  1  0  0  0  0
  3  7  1  0  0  0  0
  3  2  1  0  0  0  0
  4  3  1  0  0  0  0
  5  4  2  0  0  0  0
  5  1  1  0  0  0  0
  8  4  1  0  0  0  0
  8  9  1  0  0  0  0
  9 10  1  0  0  0  0
 11  9  2  0  0  0  0
 12 18  1  0  0  0  0
 12 11  1  0  0  0  0
 13 12  2  0  0  0  0
 14 15  2  0  0  0  0
 14 13  1  0  0  0  0
 15 17  1  0  0  0  0
 16 15  1  0  0  0  0
 17 18  2  0  0  0  0
 18  8  1  0  0  0  0
 19 13  1  0  0  0  0
 19 20  1  0  0  0  0
 21 19  1  0  0  0  0
 22 23  2  0  0  0  0
 24 30  1  0  0  0  0
 25 24  1  0  0  0  0
 25 22  1  0  0  0  0
 26 25  2  0  0  0  0
 27 28  2  0  0  0  0
 27 26  1  0  0  0  0
 28 29  1  0  0  0  0
 29 24  2  0  0  0  0
 31 28  1  0  0  0  0
 32 33  2  0  0  0  0
 32 26  1  0  0  0  0
 33 37  1  0  0  0  0
 34 38  1  0  0  0  0
 34 33  1  0  0  0  0
 35 34  2  0  0  0  0
 36 35  1  0  0  0  0
 36 32  1  0  0  0  0
 39 35  1  0  0  0  0
M  END
>  <minimizedAffinity>
-6.37158203

$$$$

 OpenBabel03252503143D

 39 43  0  0  0  0  0  0  0  0999 V2000
   37.4520   28.6840   38.4610 C   0  0  0  0  0  0  0  0  0  0  0  0
   38.0100   28.3560   37.2490 C   0  0  0  0  0  0  0  0  0  0  0  0
   38.9560   29.2870   37.0190 N   0  0  0  0  0  0  0  0  0  0  0  0
   38.9720   30.1560   38.0640 C   0  0  0  0  0  0  0  0  0  0  0  0
   38.0390   29.7860   38.9630 N   0  0  0  0  0  0  0  0  0  0  0  0
   37.6960   27.5140   36.6690 H   0  0  0  0  0  0  0  0  0  0  0  0
   39.5270   29.2450   36.1400 H   0  0  0  0  0  0  0  0  0  0  0  0
   39.9070   31.2270   38.0220 N   0  0  0  0  0  0  0  0  0  0  0  0
   41.0090   31.1870   37.2170 C   0  0  0  0  0  0  0  0  0  0  0  0
   41.3660   30.4160   36.5150 H   0  0  0  0  0  0  0  0  0  0  0  0
   41.7350   32.3320   37.3680 N   0  0  0  0  0  0  0  0  0  0  0  0
   41.0950   33.1120   38.2750 C   0  0  0  0  0  0  0  0  0  0  0  0
   41.2950   34.3630   38.8610 C   0  0  0  0  0  0  0  0  0  0  0  0
   40.3990   34.7930   39.7480 N   0  0  0  0  0  0  0  0  0  0  0  0
   39.3040   34.1090   40.1270 C   0  0  0  0  0  0  0  0  0  0  0  0
   38.6880   34.6090   40.8540 H   0  0  0  0  0  0  0  0  0  0  0  0
   39.0990   32.9110   39.5750 N   0  0  0  0  0  0  0  0  0  0  0  0
   39.9770   32.4090   38.6610 C   0  0  0  0  0  0  0  0  0  0  0  0
   42.4490   35.0940   38.4670 N   0  0  0  0  0  0  0  0  0  0  0  0
   43.0920   34.8970   39.2790 H   0  0  0  0  0  0  0  0  0  0  0  0
   42.7740   35.6930   37.6820 H   0  0  0  0  0  0  0  0  0  0  0  0
   36.3450   27.9480   39.1610 C   0  0  0  0  0  0  0  0  0  0  0  0
   35.2530   28.4910   39.5000 O   0  0  0  0  0  0  0  0  0  0  0  0
   36.0940   25.5950   38.5590 C   0  0  0  0  0  0  0  0  0  0  0  0
   36.4890   26.5810   39.4760 C   0  0  0  0  0  0  0  0  0  0  0  0
   37.0150   26.0870   40.6760 C   0  0  0  0  0  0  0  0  0  0  0  0
   37.1300   24.7750   40.9230 N   0  0  0  0  0  0  0  0  0  0  0  0
   36.7270   23.8630   39.9900 C   0  0  0  0  0  0  0  0  0  0  0  0
   36.2160   24.2790   38.8220 N   0  0  0  0  0  0  0  0  0  0  0  0
   35.6750   25.9320   37.6030 H   0  0  0  0  0  0  0  0  0  0  0  0
   36.8130   22.8100   40.1720 H   0  0  0  0  0  0  0  0  0  0  0  0
   37.4320   27.0060   41.6500 C   0  0  0  0  0  0  0  0  0  0  0  0
   36.8170   27.6360   42.6970 C   0  0  0  0  0  0  0  0  0  0  0  0
   37.4520   28.4870   43.4910 C   0  0  0  0  0  0  0  0  0  0  0  0
   38.7670   28.7170   43.2270 C   0  0  0  0  0  0  0  0  0  0  0  0
   39.0830   27.6430   41.7520 S   0  0  0  0  0  0  0  0  0  0  0  0
   35.7440   27.3770   42.8230 H   0  0  0  0  0  0  0  0  0  0  0  0
   37.0230   29.0160   44.3320 H   0  0  0  0  0  0  0  0  0  0  0  0
   39.5100   29.3690   43.7290 H   0  0  0  0  0  0  0  0  0  0  0  0
  1  5  1  0  0  0  0
  1 22  1  0  0  0  0
  2  1  2  0  0  0  0
  3  2  1  0  0  0  0
  3  4  1  0  0  0  0
  4  5  2  0  0  0  0
  6  2  1  0  0  0  0
  7  3  1  0  0  0  0
  8  4  1  0  0  0  0
  8 18  1  0  0  0  0
  9 11  2  0  0  0  0
  9  8  1  0  0  0  0
 10  9  1  0  0  0  0
 11 12  1  0  0  0  0
 12 18  2  0  0  0  0
 12 13  1  0  0  0  0
 13 14  2  0  0  0  0
 14 15  1  0  0  0  0
 15 16  1  0  0  0  0
 17 15  2  0  0  0  0
 18 17  1  0  0  0  0
 19 13  1  0  0  0  0
 19 20  1  0  0  0  0
 21 19  1  0  0  0  0
 22 25  1  0  0  0  0
 22 23  2  0  0  0  0
 24 29  2  0  0  0  0
 24 25  1  0  0  0  0
 25 26  2  0  0  0  0
 26 27  1  0  0  0  0
 26 32  1  0  0  0  0
 28 31  1  0  0  0  0
 28 27  2  0  0  0  0
 29 28  1  0  0  0  0
 30 24  1  0  0  0  0
 32 36  1  0  0  0  0
 32 33  2  0  0  0  0
 33 37  1  0  0  0  0
 33 34  1  0  0  0  0
 34 38  1  0  0  0  0
 35 34  2  0  0  0  0
 35 39  1  0  0  0  0
 36 35  1  0  0  0  0
M  END
>  <minimizedAffinity>
-6.35465288

$$$$

 OpenBabel03252503143D

 39 43  0  0  0  0  0  0  0  0999 V2000
   38.0080   27.4980   42.2620 C   0  0  0  0  0  0  0  0  0  0  0  0
   36.6920   27.8630   42.4140 C   0  0  0  0  0  0  0  0  0  0  0  0
   36.6150   29.1390   41.9900 N   0  0  0  0  0  0  0  0  0  0  0  0
   37.8510   29.5390   41.5920 C   0  0  0  0  0  0  0  0  0  0  0  0
   38.7210   28.5240   41.7580 N   0  0  0  0  0  0  0  0  0  0  0  0
   35.9440   27.2020   42.8000 H   0  0  0  0  0  0  0  0  0  0  0  0
   35.6940   29.6410   42.0120 H   0  0  0  0  0  0  0  0  0  0  0  0
   37.9940   30.8680   41.1040 N   0  0  0  0  0  0  0  0  0  0  0  0
   36.9220   31.5880   40.6580 C   0  0  0  0  0  0  0  0  0  0  0  0
   35.8540   31.3290   40.5900 H   0  0  0  0  0  0  0  0  0  0  0  0
   37.3320   32.8220   40.2470 N   0  0  0  0  0  0  0  0  0  0  0  0
   38.6750   32.8950   40.4310 C   0  0  0  0  0  0  0  0  0  0  0  0
   39.6790   33.8430   40.2240 C   0  0  0  0  0  0  0  0  0  0  0  0
   40.9290   33.5150   40.5460 N   0  0  0  0  0  0  0  0  0  0  0  0
   41.3040   32.3290   41.0600 C   0  0  0  0  0  0  0  0  0  0  0  0
   42.3570   32.2370   41.2610 H   0  0  0  0  0  0  0  0  0  0  0  0
   40.3550   31.4130   41.2640 N   0  0  0  0  0  0  0  0  0  0  0  0
   39.0550   31.6820   40.9560 C   0  0  0  0  0  0  0  0  0  0  0  0
   39.2920   35.0980   39.6800 N   0  0  0  0  0  0  0  0  0  0  0  0
   39.5650   34.9660   38.6710 H   0  0  0  0  0  0  0  0  0  0  0  0
   38.8640   35.9930   39.9890 H   0  0  0  0  0  0  0  0  0  0  0  0
   38.6080   26.1630   42.5960 C   0  0  0  0  0  0  0  0  0  0  0  0
   39.2530   25.9360   43.6620 O   0  0  0  0  0  0  0  0  0  0  0  0
   37.3030   24.3020   41.7050 C   0  0  0  0  0  0  0  0  0  0  0  0
   38.4720   25.0790   41.7040 C   0  0  0  0  0  0  0  0  0  0  0  0
   39.4370   24.6840   40.7690 C   0  0  0  0  0  0  0  0  0  0  0  0
   39.2540   23.6450   39.9440 N   0  0  0  0  0  0  0  0  0  0  0  0
   38.0940   22.9260   39.9930 C   0  0  0  0  0  0  0  0  0  0  0  0
   37.1340   23.2580   40.8680 N   0  0  0  0  0  0  0  0  0  0  0  0
   36.5170   24.5720   42.4190 H   0  0  0  0  0  0  0  0  0  0  0  0
   37.9320   22.0920   39.3380 H   0  0  0  0  0  0  0  0  0  0  0  0
   40.6380   25.4070   40.7050 C   0  0  0  0  0  0  0  0  0  0  0  0
   41.8170   25.3670   41.3960 C   0  0  0  0  0  0  0  0  0  0  0  0
   42.8270   26.1840   41.1320 C   0  0  0  0  0  0  0  0  0  0  0  0
   42.6490   27.0840   40.1260 C   0  0  0  0  0  0  0  0  0  0  0  0
   40.9290   26.7170   39.5460 S   0  0  0  0  0  0  0  0  0  0  0  0
   41.8560   24.5960   42.1950 H   0  0  0  0  0  0  0  0  0  0  0  0
   43.7820   26.2040   41.6420 H   0  0  0  0  0  0  0  0  0  0  0  0
   43.3230   27.8630   39.7160 H   0  0  0  0  0  0  0  0  0  0  0  0
  1  2  2  0  0  0  0
  1 22  1  0  0  0  0
  2  6  1  0  0  0  0
  3  7  1  0  0  0  0
  3  2  1  0  0  0  0
  4  5  2  0  0  0  0
  4  3  1  0  0  0  0
  5  1  1  0  0  0  0
  8  4  1  0  0  0  0
  9  8  1  0  0  0  0
 10  9  1  0  0  0  0
 11 12  1  0  0  0  0
 11  9  2  0  0  0  0
 12 18  1  0  0  0  0
 13 12  2  0  0  0  0
 13 14  1  0  0  0  0
 14 15  2  0  0  0  0
 15 16  1  0  0  0  0
 15 17  1  0  0  0  0
 18  8  1  0  0  0  0
 18 17  2  0  0  0  0
 19 21  1  0  0  0  0
 19 13  1  0  0  0  0
 20 19  1  0  0  0  0
 22 23  2  0  0  0  0
 24 30  1  0  0  0  0
 25 24  1  0  0  0  0
 25 22  1  0  0  0  0
 26 25  2  0  0  0  0
 27 28  2  0  0  0  0
 27 26  1  0  0  0  0
 28 29  1  0  0  0  0
 29 24  2  0  0  0  0
 31 28  1  0  0  0  0
 32 26  1  0  0  0  0
 32 33  2  0  0  0  0
 33 37  1  0  0  0  0
 34 33  1  0  0  0  0
 34 38  1  0  0  0  0
 35 34  2  0  0  0  0
 36 35  1  0  0  0  0
 36 32  1  0  0  0  0
 39 35  1  0  0  0  0
M  END
>  <minimizedAffinity>
-6.22609234

$$$$

 OpenBabel03252503143D

 39 43  0  0  0  0  0  0  0  0999 V2000
   37.9730   29.6420   41.5370 C   0  0  0  0  0  0  0  0  0  0  0  0
   38.5440   29.4610   42.7730 C   0  0  0  0  0  0  0  0  0  0  0  0
   38.7380   28.1340   42.8950 N   0  0  0  0  0  0  0  0  0  0  0  0
   38.2970   27.5250   41.7630 C   0  0  0  0  0  0  0  0  0  0  0  0
   37.8200   28.4580   40.9140 N   0  0  0  0  0  0  0  0  0  0  0  0
   38.7570   30.2680   43.4430 H   0  0  0  0  0  0  0  0  0  0  0  0
   39.1690   27.7470   43.7700 H   0  0  0  0  0  0  0  0  0  0  0  0
   38.4100   26.1090   41.6820 N   0  0  0  0  0  0  0  0  0  0  0  0
   39.2720   25.4110   42.4800 C   0  0  0  0  0  0  0  0  0  0  0  0
   39.9730   25.7500   43.2580 H   0  0  0  0  0  0  0  0  0  0  0  0
   39.1840   24.0790   42.2010 N   0  0  0  0  0  0  0  0  0  0  0  0
   38.2610   23.9200   41.2190 C   0  0  0  0  0  0  0  0  0  0  0  0
   37.7140   22.8560   40.5010 C   0  0  0  0  0  0  0  0  0  0  0  0
   36.7920   23.1270   39.5780 N   0  0  0  0  0  0  0  0  0  0  0  0
   36.3410   24.3600   39.2820 C   0  0  0  0  0  0  0  0  0  0  0  0
   35.5940   24.3940   38.5100 H   0  0  0  0  0  0  0  0  0  0  0  0
   36.8550   25.3880   39.9620 N   0  0  0  0  0  0  0  0  0  0  0  0
   37.8030   25.1820   40.9190 C   0  0  0  0  0  0  0  0  0  0  0  0
   38.1850   21.5490   40.8060 N   0  0  0  0  0  0  0  0  0  0  0  0
   38.8650   21.3970   40.0160 H   0  0  0  0  0  0  0  0  0  0  0  0
   38.0440   20.8070   41.5200 H   0  0  0  0  0  0  0  0  0  0  0  0
   37.5620   30.9520   40.9270 C   0  0  0  0  0  0  0  0  0  0  0  0
   36.3650   31.3630   40.9010 O   0  0  0  0  0  0  0  0  0  0  0  0
   39.1530   32.7950   41.1060 C   0  0  0  0  0  0  0  0  0  0  0  0
   38.5270   31.7970   40.3420 C   0  0  0  0  0  0  0  0  0  0  0  0
   38.9440   31.7340   39.0070 C   0  0  0  0  0  0  0  0  0  0  0  0
   39.8680   32.5630   38.5030 N   0  0  0  0  0  0  0  0  0  0  0  0
   40.4410   33.5150   39.2970 C   0  0  0  0  0  0  0  0  0  0  0  0
   40.0810   33.6230   40.5840 N   0  0  0  0  0  0  0  0  0  0  0  0
   38.8600   32.8850   42.1580 H   0  0  0  0  0  0  0  0  0  0  0  0
   41.1820   34.1860   38.9080 H   0  0  0  0  0  0  0  0  0  0  0  0
   38.3660   30.7650   38.1730 C   0  0  0  0  0  0  0  0  0  0  0  0
   37.1630   30.6490   37.5330 C   0  0  0  0  0  0  0  0  0  0  0  0
   36.8520   29.6010   36.7820 C   0  0  0  0  0  0  0  0  0  0  0  0
   37.7910   28.6230   36.6640 C   0  0  0  0  0  0  0  0  0  0  0  0
   39.1860   29.2670   37.6990 S   0  0  0  0  0  0  0  0  0  0  0  0
   36.4710   31.5030   37.6960 H   0  0  0  0  0  0  0  0  0  0  0  0
   35.9200   29.4490   36.2530 H   0  0  0  0  0  0  0  0  0  0  0  0
   37.7820   27.6650   36.1080 H   0  0  0  0  0  0  0  0  0  0  0  0
  1  2  2  0  0  0  0
  2  3  1  0  0  0  0
  2  6  1  0  0  0  0
  3  7  1  0  0  0  0
  4  3  1  0  0  0  0
  5  1  1  0  0  0  0
  5  4  2  0  0  0  0
  8  4  1  0  0  0  0
  8  9  1  0  0  0  0
  9 10  1  0  0  0  0
 11  9  2  0  0  0  0
 12 11  1  0  0  0  0
 13 19  1  0  0  0  0
 13 12  2  0  0  0  0
 14 13  1  0  0  0  0
 15 14  2  0  0  0  0
 15 17  1  0  0  0  0
 16 15  1  0  0  0  0
 17 18  2  0  0  0  0
 18 12  1  0  0  0  0
 18  8  1  0  0  0  0
 19 21  1  0  0  0  0
 20 19  1  0  0  0  0
 22  1  1  0  0  0  0
 23 22  2  0  0  0  0
 24 30  1  0  0  0  0
 25 22  1  0  0  0  0
 25 24  2  0  0  0  0
 26 25  1  0  0  0  0
 27 26  2  0  0  0  0
 27 28  1  0  0  0  0
 28 29  2  0  0  0  0
 29 24  1  0  0  0  0
 31 28  1  0  0  0  0
 32 26  1  0  0  0  0
 33 37  1  0  0  0  0
 33 32  2  0  0  0  0
 34 33  1  0  0  0  0
 35 34  2  0  0  0  0
 35 36  1  0  0  0  0
 36 32  1  0  0  0  0
 38 34  1  0  0  0  0
 39 35  1  0  0  0  0
M  END
>  <minimizedAffinity>
-6.20027399

$$$$
