
 OpenBabel03252506543D

 43 48  0  0  0  0  0  0  0  0999 V2000
   47.4410   31.5580   45.3330 C   0  0  0  0  0  0  0  0  0  0  0  0
   46.8350   32.7890   45.2150 C   0  0  0  0  0  0  0  0  0  0  0  0
   46.0380   33.3300   46.2100 C   0  0  0  0  0  0  0  0  0  0  0  0
   45.8220   32.6210   47.3860 C   0  0  0  0  0  0  0  0  0  0  0  0
   45.1240   32.8270   48.5390 N   0  0  0  0  0  0  0  0  0  0  0  0
   45.2970   31.7510   49.3440 C   0  0  0  0  0  0  0  0  0  0  0  0
   46.1010   30.8890   48.6780 N   0  0  0  0  0  0  0  0  0  0  0  0
   46.4350   31.3990   47.4790 C   0  0  0  0  0  0  0  0  0  0  0  0
   47.2280   30.8380   46.5170 C   0  0  0  0  0  0  0  0  0  0  0  0
   48.0650   31.1270   44.5650 H   0  0  0  0  0  0  0  0  0  0  0  0
   45.5560   34.3090   46.1170 H   0  0  0  0  0  0  0  0  0  0  0  0
   44.5750   33.6750   48.7180 H   0  0  0  0  0  0  0  0  0  0  0  0
   44.8700   31.6170   50.3260 H   0  0  0  0  0  0  0  0  0  0  0  0
   46.3010   35.2090   42.4950 C   0  0  0  0  0  0  0  0  0  0  0  0
   47.4400   35.0360   41.7040 C   0  0  0  0  0  0  0  0  0  0  0  0
   48.3900   34.0820   42.1150 C   0  0  0  0  0  0  0  0  0  0  0  0
   48.1440   33.3800   43.2620 N   0  0  0  0  0  0  0  0  0  0  0  0
   47.0250   33.5780   44.0020 C   0  0  0  0  0  0  0  0  0  0  0  0
   46.1180   34.4830   43.6200 N   0  0  0  0  0  0  0  0  0  0  0  0
   45.5770   35.9350   42.1840 H   0  0  0  0  0  0  0  0  0  0  0  0
   47.6450   35.5840   40.7970 H   0  0  0  0  0  0  0  0  0  0  0  0
   49.3060   33.8770   41.5650 H   0  0  0  0  0  0  0  0  0  0  0  0
   47.8420   29.5220   46.7090 C   0  0  0  0  0  0  0  0  0  0  0  0
   49.1460   29.3070   47.0870 C   0  0  0  0  0  0  0  0  0  0  0  0
   49.2650   27.9130   47.1390 C   0  0  0  0  0  0  0  0  0  0  0  0
   48.0450   27.3750   46.7930 C   0  0  0  0  0  0  0  0  0  0  0  0
   47.2230   28.3830   46.5440 O   0  0  0  0  0  0  0  0  0  0  0  0
   49.9210   30.0600   47.3020 H   0  0  0  0  0  0  0  0  0  0  0  0
   50.1620   27.3660   47.4040 H   0  0  0  0  0  0  0  0  0  0  0  0
   47.8130   25.9730   46.7430 N   0  0  0  0  0  0  0  0  0  0  0  0
   48.2270   25.1880   45.7080 C   0  0  0  0  0  0  0  0  0  0  0  0
   48.7630   25.4550   44.8070 H   0  0  0  0  0  0  0  0  0  0  0  0
   47.8460   23.9030   45.9730 N   0  0  0  0  0  0  0  0  0  0  0  0
   47.2130   23.9160   47.1500 C   0  0  0  0  0  0  0  0  0  0  0  0
   46.6110   22.9950   47.9500 C   0  0  0  0  0  0  0  0  0  0  0  0
   46.0320   23.2940   49.1250 N   0  0  0  0  0  0  0  0  0  0  0  0
   46.0120   24.5580   49.5950 C   0  0  0  0  0  0  0  0  0  0  0  0
   45.5950   24.9540   50.5020 H   0  0  0  0  0  0  0  0  0  0  0  0
   46.5920   25.4740   48.8340 N   0  0  0  0  0  0  0  0  0  0  0  0
   47.1720   25.1920   47.6640 C   0  0  0  0  0  0  0  0  0  0  0  0
   46.5490   21.6410   47.6000 N   0  0  0  0  0  0  0  0  0  0  0  0
   47.4940   21.2650   47.8670 H   0  0  0  0  0  0  0  0  0  0  0  0
   46.4440   20.6490   47.3210 H   0  0  0  0  0  0  0  0  0  0  0  0
  1  9  1  0  0  0  0
  2  1  2  0  0  0  0
  2  3  1  0  0  0  0
  3  4  2  0  0  0  0
  4  8  1  0  0  0  0
  4  5  1  0  0  0  0
  5 12  1  0  0  0  0
  5  6  1  0  0  0  0
  6 13  1  0  0  0  0
  7  6  2  0  0  0  0
  8  7  1  0  0  0  0
  9 23  1  0  0  0  0
  9  8  2  0  0  0  0
 10  1  1  0  0  0  0
 11  3  1  0  0  0  0
 14 19  1  0  0  0  0
 15 16  1  0  0  0  0
 15 14  2  0  0  0  0
 16 17  2  0  0  0  0
 17 18  1  0  0  0  0
 18  2  1  0  0  0  0
 19 18  2  0  0  0  0
 20 14  1  0  0  0  0
 21 15  1  0  0  0  0
 22 16  1  0  0  0  0
 23 24  2  0  0  0  0
 24 25  1  0  0  0  0
 24 28  1  0  0  0  0
 25 29  1  0  0  0  0
 26 25  2  0  0  0  0
 27 23  1  0  0  0  0
 27 26  1  0  0  0  0
 30 26  1  0  0  0  0
 30 40  1  0  0  0  0
 31 33  2  0  0  0  0
 31 30  1  0  0  0  0
 32 31  1  0  0  0  0
 33 34  1  0  0  0  0
 34 40  2  0  0  0  0
 34 35  1  0  0  0  0
 35 36  2  0  0  0  0
 36 37  1  0  0  0  0
 37 38  1  0  0  0  0
 39 37  2  0  0  0  0
 40 39  1  0  0  0  0
 41 42  1  0  0  0  0
 41 35  1  0  0  0  0
 43 41  1  0  0  0  0
M  END
>  <minimizedAffinity>
-6.14560795

>  <minimizedRMSD>
0.816557586

$$$$
