REMARK  Name = 
REMARK  6 active torsions:
REMARK  status: ('A' for Active; 'I' for Inactive)
REMARK    1  A    between atoms: C_2  and  C_14
REMARK    2  A    between atoms: C_5  and  C_8
REMARK    3  A    between atoms: C_7  and  O_12
REMARK    4  A    between atoms: C_11  and  O_13
REMARK    5  A    between atoms: C_14  and  N_26
REMARK    6  A    between atoms: C_31  and  N_32
REMARK                            x       y       z     vdW  Elec       q    Type
REMARK                         _______ _______ _______ _____ _____    ______ ____
ROOT
ATOM      1  C   UNL     1      44.652  35.384  45.207  0.00  0.00    +0.000 A 
ATOM      2  C   UNL     1      45.386  35.239  44.015  0.00  0.00    +0.000 A 
ATOM      3  C   UNL     1      46.224  34.114  43.930  0.00  0.00    +0.000 A 
ATOM      4  N   UNL     1      46.288  33.249  44.961  0.00  0.00    +0.000 NA
ATOM      5  C   UNL     1      45.573  33.421  46.083  0.00  0.00    +0.000 A 
ATOM      6  N   UNL     1      44.742  34.493  46.224  0.00  0.00    +0.000 NA
ATOM      7  H   UNL     1      43.972  36.197  45.408  0.00  0.00    +0.000 HD
ATOM      8  H   UNL     1      46.785  34.009  43.011  0.00  0.00    +0.000 HD
ENDROOT
BRANCH   5  10
ATOM      9  C   UNL     1      47.191  32.151  47.483  0.00  0.00    +0.000 C 
ATOM     10  C   UNL     1      45.711  32.412  47.123  0.00  0.00    +0.000 C 
ATOM     11  O   UNL     1      45.227  32.765  48.352  0.00  0.00    +0.000 OA
ATOM     12  C   UNL     1      45.724  31.874  49.261  0.00  0.00    +0.000 C 
ATOM     13  C   UNL     1      46.932  31.195  48.661  0.00  0.00    +0.000 C 
ATOM     14  H   UNL     1      47.718  31.665  46.663  0.00  0.00    +0.000 HD
ATOM     15  H   UNL     1      45.325  31.403  46.851  0.00  0.00    +0.000 HD
ATOM     16  H   UNL     1      46.114  32.453  50.144  0.00  0.00    +0.000 HD
ATOM     17  H   UNL     1      44.973  31.182  49.673  0.00  0.00    +0.000 HD
ATOM     18  H   UNL     1      46.653  30.203  48.286  0.00  0.00    +0.000 HD
BRANCH   9  19
ATOM     19  O   UNL     1      47.728  33.281  48.011  0.00  0.00    +0.000 OA
ATOM     20  H   UNL     1      48.535  33.522  47.456  0.00  0.00    +0.000 HD
ENDBRANCH   9  19
BRANCH  13  21
ATOM     21  O   UNL     1      48.011  31.091  49.505  0.00  0.00    +0.000 OA
ATOM     22  H   UNL     1      48.561  30.297  49.222  0.00  0.00    +0.000 HD
ENDBRANCH  13  21
ENDBRANCH   5  10
BRANCH   2  23
ATOM     23  C   UNL     1      45.209  36.260  42.988  0.00  0.00    +0.000 C 
ATOM     24  H   UNL     1      46.173  36.442  42.468  0.00  0.00    +0.000 HD
ATOM     25  H   UNL     1      44.946  37.219  43.459  0.00  0.00    +0.000 HD
BRANCH  23  26
ATOM     26  N   UNL     1      44.140  35.964  42.050  0.00  0.00    +0.000 N 
ATOM     27  C   UNL     1      43.215  35.015  42.306  0.00  0.00    +0.000 A 
ATOM     28  H   UNL     1      43.133  34.378  43.185  0.00  0.00    +0.000 HD
ATOM     29  N   UNL     1      42.329  34.931  41.282  0.00  0.00    +0.000 NA
ATOM     30  C   UNL     1      42.707  35.853  40.350  0.00  0.00    +0.000 A 
ATOM     31  C   UNL     1      42.240  36.268  39.102  0.00  0.00    +0.000 A 
ATOM     32  N   UNL     1      42.887  37.240  38.445  0.00  0.00    +0.000 NA
ATOM     33  C   UNL     1      43.981  37.827  38.967  0.00  0.00    +0.000 A 
ATOM     34  H   UNL     1      44.393  38.591  38.325  0.00  0.00    +0.000 HD
ATOM     35  N   UNL     1      44.475  37.469  40.165  0.00  0.00    +0.000 NA
ATOM     36  C   UNL     1      43.846  36.495  40.847  0.00  0.00    +0.000 A 
BRANCH  31  37
ATOM     37  N   UNL     1      41.081  35.563  38.676  0.00  0.00    +0.000 N 
ATOM     38  H   UNL     1      41.036  34.511  38.721  0.00  0.00    +0.000 HD
ATOM     39  H   UNL     1      40.253  36.082  38.310  0.00  0.00    +0.000 HD
ENDBRANCH  31  37
ENDBRANCH  23  26
ENDBRANCH   2  23
TORSDOF 6
