
     RDKit          3D

 39 42  0  0  0  0  0  0  0  0999 V2000
   44.6523   35.3842   45.2069 C   0  0  0  0  0  0  0  0  0  0  0  0
   45.3858   35.2385   44.0149 C   0  0  0  0  0  0  0  0  0  0  0  0
   46.2241   34.1138   43.9304 C   0  0  0  0  0  0  0  0  0  0  0  0
   46.2879   33.2495   44.9605 N   0  0  0  0  0  0  0  0  0  0  0  0
   45.5731   33.4206   46.0830 C   0  0  0  0  0  0  0  0  0  0  0  0
   44.7425   34.4933   46.2241 N   0  0  0  0  0  0  0  0  0  0  0  0
   47.1907   32.1507   47.4834 C   0  0  2  0  0  0  0  0  0  0  0  0
   45.7113   32.4123   47.1235 C   0  0  1  0  0  0  0  0  0  0  0  0
   45.2267   32.7648   48.3517 O   0  0  0  0  0  0  0  0  0  0  0  0
   45.7241   31.8737   49.2610 C   0  0  0  0  0  0  0  0  0  0  0  0
   46.9321   31.1948   48.6615 C   0  0  2  0  0  0  0  0  0  0  0  0
   47.7281   33.2809   48.0115 O   0  0  0  0  0  0  0  0  0  0  0  0
   48.0105   31.0914   49.5052 O   0  0  0  0  0  0  0  0  0  0  0  0
   45.2089   36.2595   42.9884 C   0  0  0  0  0  0  0  0  0  0  0  0
   43.9723   36.1975   45.4079 H   0  0  0  0  0  0  0  0  0  0  0  0
   46.7853   34.0089   43.0108 H   0  0  0  0  0  0  0  0  0  0  0  0
   47.7177   31.6651   46.6627 H   0  0  0  0  0  0  0  0  0  0  0  0
   45.3245   31.4030   46.8509 H   0  0  0  0  0  0  0  0  0  0  0  0
   46.1138   32.4535   50.1437 H   0  0  0  0  0  0  0  0  0  0  0  0
   44.9730   31.1818   49.6726 H   0  0  0  0  0  0  0  0  0  0  0  0
   46.6526   30.2034   48.2862 H   0  0  0  0  0  0  0  0  0  0  0  0
   48.5353   33.5221   47.4557 H   0  0  0  0  0  0  0  0  0  0  0  0
   48.5613   30.2972   49.2218 H   0  0  0  0  0  0  0  0  0  0  0  0
   46.1728   36.4424   42.4676 H   0  0  0  0  0  0  0  0  0  0  0  0
   44.9458   37.2195   43.4594 H   0  0  0  0  0  0  0  0  0  0  0  0
   44.1402   35.9639   42.0503 N   0  0  0  0  0  0  0  0  0  0  0  0
   43.2148   35.0154   42.3064 C   0  0  0  0  0  0  0  0  0  0  0  0
   43.1335   34.3776   43.1848 H   0  0  0  0  0  0  0  0  0  0  0  0
   42.3294   34.9309   41.2816 N   0  0  0  0  0  0  0  0  0  0  0  0
   42.7070   35.8535   40.3504 C   0  0  0  0  0  0  0  0  0  0  0  0
   42.2399   36.2677   39.1016 C   0  0  0  0  0  0  0  0  0  0  0  0
   41.0807   35.5635   38.6758 N   0  0  0  0  0  0  0  0  0  0  0  0
   41.0363   34.5111   38.7214 H   0  0  0  0  0  0  0  0  0  0  0  0
   42.8872   37.2404   38.4452 N   0  0  0  0  0  0  0  0  0  0  0  0
   43.9808   37.8267   38.9674 C   0  0  0  0  0  0  0  0  0  0  0  0
   44.3930   38.5913   38.3251 H   0  0  0  0  0  0  0  0  0  0  0  0
   44.4755   37.4690   40.1648 N   0  0  0  0  0  0  0  0  0  0  0  0
   43.8461   36.4950   40.8469 C   0  0  0  0  0  0  0  0  0  0  0  0
   40.2529   36.0816   38.3101 H   0  0  0  0  0  0  0  0  0  0  0  0
  1  6  2  0
  2  1  1  0
  3  2  2  0
  3  4  1  0
  4  5  2  0
  5  6  1  0
  7 12  1  0
  7 11  1  0
  8  5  1  0
  8  7  1  0
  8  9  1  0
  9 10  1  0
 11 10  1  0
 11 13  1  0
 14  2  1  0
  1 15  1  0
  3 16  1  0
  7 17  1  6
  8 18  1  6
 10 19  1  0
 10 20  1  0
 11 21  1  6
 12 22  1  0
 13 23  1  0
 14 24  1  0
 14 25  1  0
 26 27  1  0
 27 28  1  0
 27 29  2  0
 29 30  1  0
 30 31  2  0
 31 32  1  0
 32 33  1  0
 31 34  1  0
 34 35  2  0
 35 36  1  0
 35 37  1  0
 37 38  2  0
 38 26  1  0
 38 30  1  0
 32 39  1  0
 14 26  1  0
M  ISO  8  15  14  16  14  17  13  18  13  19  13  20  13  21  13  22   3
M  ISO  6  23   3  24   8  25   8  28  15  33   5  36  16
M  END
>  <DihAtoms>  (1) 
1,13,25,26

>  <DihDeg>  (1) 
-90.00144752222693

$$$$
