
 OpenBabel03252508563D

 29 31  0  0  0  0  0  0  0  0999 V2000
   44.1160   33.8520   42.0550 C   0  0  0  0  0  0  0  0  0  0  0  0
   43.5600   33.0640   42.5730 H   0  0  0  0  0  0  0  0  0  0  0  0
   44.3340   33.6350   40.9880 H   0  0  0  0  0  0  0  0  0  0  0  0
   45.4490   34.0280   42.6510 N   0  0  0  0  0  0  0  0  0  0  0  0
   45.8250   33.9910   43.9550 C   0  0  0  0  0  0  0  0  0  0  0  0
   45.1020   33.8080   44.7570 H   0  0  0  0  0  0  0  0  0  0  0  0
   47.1520   34.2060   44.0360 N   0  0  0  0  0  0  0  0  0  0  0  0
   47.5770   34.3730   42.7900 C   0  0  0  0  0  0  0  0  0  0  0  0
   48.8450   34.6200   42.3260 C   0  0  0  0  0  0  0  0  0  0  0  0
   49.0390   34.7560   40.9830 N   0  0  0  0  0  0  0  0  0  0  0  0
   47.9790   34.6450   40.1330 C   0  0  0  0  0  0  0  0  0  0  0  0
   48.1210   34.7520   39.0540 H   0  0  0  0  0  0  0  0  0  0  0  0
   46.7340   34.4020   40.5860 N   0  0  0  0  0  0  0  0  0  0  0  0
   46.5360   34.2680   41.8900 C   0  0  0  0  0  0  0  0  0  0  0  0
   49.9990   34.7490   43.1520 N   0  0  0  0  0  0  0  0  0  0  0  0
   50.9310   34.3300   42.9400 H   0  0  0  0  0  0  0  0  0  0  0  0
   50.0590   35.2740   44.0650 H   0  0  0  0  0  0  0  0  0  0  0  0
   43.4230   35.2090   42.1510 C   0  0  0  0  0  0  0  0  0  0  0  0
   44.1850   35.9890   41.9800 H   0  0  0  0  0  0  0  0  0  0  0  0
   42.9630   35.3490   43.1430 H   0  0  0  0  0  0  0  0  0  0  0  0
   41.6510   34.9840   38.8460 C   0  0  0  0  0  0  0  0  0  0  0  0
   42.6710   34.9050   39.8100 C   0  0  0  0  0  0  0  0  0  0  0  0
   42.3680   35.2810   41.1100 C   0  0  0  0  0  0  0  0  0  0  0  0
   41.1090   35.7020   41.3760 N   0  0  0  0  0  0  0  0  0  0  0  0
   40.1410   35.7710   40.4370 C   0  0  0  0  0  0  0  0  0  0  0  0
   40.4100   35.4130   39.1720 N   0  0  0  0  0  0  0  0  0  0  0  0
   41.9810   34.6710   37.8640 H   0  0  0  0  0  0  0  0  0  0  0  0
   43.6740   34.5670   39.5850 H   0  0  0  0  0  0  0  0  0  0  0  0
   39.1570   36.1170   40.7250 H   0  0  0  0  0  0  0  0  0  0  0  0
  1 18  1  0  0  0  0
  1  2  1  0  0  0  0
  1  4  1  0  0  0  0
  3  1  1  0  0  0  0
  4  5  1  0  0  0  0
  5  7  2  0  0  0  0
  5  6  1  0  0  0  0
  8  7  1  0  0  0  0
  9  8  1  0  0  0  0
  9 15  1  0  0  0  0
 10  9  2  0  0  0  0
 11 13  2  0  0  0  0
 11 10  1  0  0  0  0
 12 11  1  0  0  0  0
 13 14  1  0  0  0  0
 14  4  1  0  0  0  0
 14  8  2  0  0  0  0
 15 17  1  0  0  0  0
 16 15  1  0  0  0  0
 18 20  1  0  0  0  0
 19 18  1  0  0  0  0
 21 26  2  0  0  0  0
 21 22  1  0  0  0  0
 22 23  2  0  0  0  0
 23 24  1  0  0  0  0
 23 18  1  0  0  0  0
 25 29  1  0  0  0  0
 25 24  2  0  0  0  0
 26 25  1  0  0  0  0
 27 21  1  0  0  0  0
 28 22  1  0  0  0  0
M  END
>  <minimizedAffinity>
-5.07993507

>  <minimizedRMSD>
5.30258369

$$$$
