REMARK  Name = 
REMARK  6 active torsions:
REMARK  status: ('A' for Active; 'I' for Inactive)
REMARK    1  A    between atoms: C_1  and  C_14
REMARK    2  A    between atoms: C_3  and  C_8
REMARK    3  A    between atoms: C_7  and  O_12
REMARK    4  A    between atoms: C_11  and  O_13
REMARK    5  A    between atoms: C_14  and  N_26
REMARK    6  A    between atoms: C_31  and  N_32
REMARK                            x       y       z     vdW  Elec       q    Type
REMARK                         _______ _______ _______ _____ _____    ______ ____
ROOT
ATOM      1  C   UNL     1      45.280  35.336  43.687  0.00  0.00    +0.000 A 
ATOM      2  C   UNL     1      46.367  34.609  43.162  0.00  0.00    +0.000 A 
ATOM      3  C   UNL     1      46.955  33.641  43.995  0.00  0.00    +0.000 A 
ATOM      4  N   UNL     1      46.458  33.462  45.229  0.00  0.00    +0.000 NA
ATOM      5  C   UNL     1      45.405  34.191  45.688  0.00  0.00    +0.000 A 
ATOM      6  N   UNL     1      44.821  35.124  44.916  0.00  0.00    +0.000 NA
ATOM      7  H   UNL     1      46.681  34.829  42.175  0.00  0.00    +0.000 HD
ATOM      8  H   UNL     1      45.084  33.970  46.689  0.00  0.00    +0.000 HD
ENDROOT
BRANCH   3  10
ATOM      9  C   UNL     1      49.008  33.717  42.587  0.00  0.00    +0.000 C 
ATOM     10  C   UNL     1      48.082  32.892  43.440  0.00  0.00    +0.000 C 
ATOM     11  O   UNL     1      47.710  31.894  42.516  0.00  0.00    +0.000 OA
ATOM     12  C   UNL     1      48.915  31.463  41.996  0.00  0.00    +0.000 C 
ATOM     13  C   UNL     1      49.920  32.587  42.089  0.00  0.00    +0.000 C 
ATOM     14  H   UNL     1      48.521  34.099  41.673  0.00  0.00    +0.000 HD
ATOM     15  H   UNL     1      48.630  32.418  44.260  0.00  0.00    +0.000 HD
ATOM     16  H   UNL     1      48.836  31.076  40.955  0.00  0.00    +0.000 HD
ATOM     17  H   UNL     1      49.287  30.621  42.620  0.00  0.00    +0.000 HD
ATOM     18  H   UNL     1      50.749  32.381  42.789  0.00  0.00    +0.000 HD
BRANCH   9  19
ATOM     19  O   UNL     1      49.686  34.680  43.291  0.00  0.00    +0.000 OA
ATOM     20  H   UNL     1      49.019  35.188  43.812  0.00  0.00    +0.000 HD
ENDBRANCH   9  19
BRANCH  13  21
ATOM     21  O   UNL     1      50.459  32.939  40.866  0.00  0.00    +0.000 OA
ATOM     22  H   UNL     1      51.433  33.109  40.877  0.00  0.00    +0.000 HD
ENDBRANCH  13  21
ENDBRANCH   3  10
BRANCH   1  23
ATOM     23  C   UNL     1      44.656  36.385  42.787  0.00  0.00    +0.000 C 
ATOM     24  H   UNL     1      44.246  37.152  43.487  0.00  0.00    +0.000 HD
ATOM     25  H   UNL     1      45.416  36.911  42.191  0.00  0.00    +0.000 HD
BRANCH  23  26
ATOM     26  N   UNL     1      43.601  35.807  42.008  0.00  0.00    +0.000 N 
ATOM     27  C   UNL     1      42.859  36.503  41.113  0.00  0.00    +0.000 A 
ATOM     28  H   UNL     1      42.908  37.545  40.829  0.00  0.00    +0.000 HD
ATOM     29  N   UNL     1      41.948  35.714  40.532  0.00  0.00    +0.000 NA
ATOM     30  C   UNL     1      42.102  34.496  41.057  0.00  0.00    +0.000 A 
ATOM     31  C   UNL     1      41.502  33.263  40.899  0.00  0.00    +0.000 A 
ATOM     32  N   UNL     1      41.880  32.164  41.590  0.00  0.00    +0.000 NA
ATOM     33  C   UNL     1      42.903  32.268  42.489  0.00  0.00    +0.000 A 
ATOM     34  H   UNL     1      43.191  31.367  43.036  0.00  0.00    +0.000 HD
ATOM     35  N   UNL     1      43.507  33.454  42.665  0.00  0.00    +0.000 NA
ATOM     36  C   UNL     1      43.145  34.562  41.986  0.00  0.00    +0.000 A 
BRANCH  31  37
ATOM     37  N   UNL     1      40.449  33.218  39.954  0.00  0.00    +0.000 N 
ATOM     38  H   UNL     1      39.471  33.559  39.822  0.00  0.00    +0.000 HD
ATOM     39  H   UNL     1      40.141  32.874  39.034  0.00  0.00    +0.000 HD
ENDBRANCH  31  37
ENDBRANCH  23  26
ENDBRANCH   1  23
TORSDOF 6
