
 OpenBabel03252508563D

 29 31  0  0  0  0  0  0  0  0999 V2000
   44.1880   30.0510   43.1550 C   0  0  0  0  0  0  0  0  0  0  0  0
   43.7570   30.7940   43.8340 H   0  0  0  0  0  0  0  0  0  0  0  0
   45.0370   29.4770   43.5800 H   0  0  0  0  0  0  0  0  0  0  0  0
   44.7690   30.7020   41.9710 N   0  0  0  0  0  0  0  0  0  0  0  0
   45.8150   30.3170   41.1980 C   0  0  0  0  0  0  0  0  0  0  0  0
   46.3750   29.3980   41.4050 H   0  0  0  0  0  0  0  0  0  0  0  0
   45.9960   31.2220   40.2180 N   0  0  0  0  0  0  0  0  0  0  0  0
   45.0640   32.1500   40.3960 C   0  0  0  0  0  0  0  0  0  0  0  0
   44.8160   33.2870   39.6680 C   0  0  0  0  0  0  0  0  0  0  0  0
   43.7880   34.1010   40.0490 N   0  0  0  0  0  0  0  0  0  0  0  0
   43.0330   33.7710   41.1360 C   0  0  0  0  0  0  0  0  0  0  0  0
   42.2080   34.4140   41.4510 H   0  0  0  0  0  0  0  0  0  0  0  0
   43.2770   32.6550   41.8510 N   0  0  0  0  0  0  0  0  0  0  0  0
   44.2730   31.8610   41.4870 C   0  0  0  0  0  0  0  0  0  0  0  0
   45.5590   33.6960   38.5240 N   0  0  0  0  0  0  0  0  0  0  0  0
   45.1390   34.0800   37.6480 H   0  0  0  0  0  0  0  0  0  0  0  0
   46.6080   33.6660   38.4150 H   0  0  0  0  0  0  0  0  0  0  0  0
   43.1420   29.0700   42.6320 C   0  0  0  0  0  0  0  0  0  0  0  0
   43.6630   28.1360   42.3590 H   0  0  0  0  0  0  0  0  0  0  0  0
   42.6230   29.4780   41.7480 H   0  0  0  0  0  0  0  0  0  0  0  0
   40.1240   29.3780   44.8470 C   0  0  0  0  0  0  0  0  0  0  0  0
   41.0470   29.6460   43.8220 C   0  0  0  0  0  0  0  0  0  0  0  0
   42.1490   28.8130   43.7050 C   0  0  0  0  0  0  0  0  0  0  0  0
   42.2730   27.7890   44.5810 N   0  0  0  0  0  0  0  0  0  0  0  0
   41.3750   27.5450   45.5610 C   0  0  0  0  0  0  0  0  0  0  0  0
   40.3010   28.3380   45.6950 N   0  0  0  0  0  0  0  0  0  0  0  0
   39.3000   30.0800   44.8610 H   0  0  0  0  0  0  0  0  0  0  0  0
   40.9380   30.4690   43.1270 H   0  0  0  0  0  0  0  0  0  0  0  0
   41.5400   26.7070   46.2240 H   0  0  0  0  0  0  0  0  0  0  0  0
  1  3  1  0  0  0  0
  1  2  1  0  0  0  0
  4  1  1  0  0  0  0
  5  6  1  0  0  0  0
  5  4  1  0  0  0  0
  7  8  1  0  0  0  0
  7  5  2  0  0  0  0
  8 14  1  0  0  0  0
  9 10  1  0  0  0  0
  9  8  2  0  0  0  0
 10 11  2  0  0  0  0
 11 12  1  0  0  0  0
 11 13  1  0  0  0  0
 14 13  2  0  0  0  0
 14  4  1  0  0  0  0
 15  9  1  0  0  0  0
 16 15  1  0  0  0  0
 17 15  1  0  0  0  0
 18  1  1  0  0  0  0
 18 23  1  0  0  0  0
 19 18  1  0  0  0  0
 20 18  1  0  0  0  0
 21 27  1  0  0  0  0
 21 26  1  0  0  0  0
 22 21  2  0  0  0  0
 23 22  1  0  0  0  0
 23 24  2  0  0  0  0
 24 25  1  0  0  0  0
 25 26  2  0  0  0  0
 25 29  1  0  0  0  0
 28 22  1  0  0  0  0
M  END
>  <minimizedAffinity>
-2.57753038

>  <minimizedRMSD>
7.03984737

$$$$
