
 OpenBabel03242511463D

 49 52  0  0  0  0  0  0  0  0999 V2000
   44.7720   35.6530   44.4250 C   0  0  0  0  0  0  0  0  0  0  0  0
   44.1700   35.7770   43.1620 C   0  0  0  0  0  0  0  0  0  0  0  0
   44.1980   34.6540   42.3560 C   0  0  0  0  0  0  0  0  0  0  0  0
   44.7800   33.5180   42.7920 N   0  0  0  0  0  0  0  0  0  0  0  0
   45.3410   33.4680   44.0210 C   0  0  0  0  0  0  0  0  0  0  0  0
   45.3440   34.4950   44.8230 N   0  0  0  0  0  0  0  0  0  0  0  0
   44.7640   36.5150   45.0720 H   0  0  0  0  0  0  0  0  0  0  0  0
   43.7370   36.7130   42.9070 H   0  0  0  0  0  0  0  0  0  0  0  0
   45.9600   32.1940   44.4350 C   0  0  0  0  0  0  0  0  0  0  0  0
   45.2110   31.3700   44.5610 H   0  0  0  0  0  0  0  0  0  0  0  0
   46.6700   31.9080   43.6310 H   0  0  0  0  0  0  0  0  0  0  0  0
   46.7700   32.4250   45.6870 C   0  0  0  0  0  0  0  0  0  0  0  0
   47.8200   32.0850   45.5690 H   0  0  0  0  0  0  0  0  0  0  0  0
   46.8530   33.5210   45.9070 H   0  0  0  0  0  0  0  0  0  0  0  0
   46.1760   31.7830   46.8480 C   0  0  0  0  0  0  0  0  0  0  0  0
   45.4020   32.3480   47.8300 C   0  0  0  0  0  0  0  0  0  0  0  0
   44.8900   31.6560   48.8780 C   0  0  0  0  0  0  0  0  0  0  0  0
   45.1610   30.3100   48.9590 C   0  0  0  0  0  0  0  0  0  0  0  0
   45.9350   29.7340   47.9810 C   0  0  0  0  0  0  0  0  0  0  0  0
   46.4430   30.4520   46.9310 C   0  0  0  0  0  0  0  0  0  0  0  0
   45.2160   33.4210   47.7190 H   0  0  0  0  0  0  0  0  0  0  0  0
   44.2950   32.2020   49.5930 H   0  0  0  0  0  0  0  0  0  0  0  0
   44.7210   29.8010   49.8270 H   0  0  0  0  0  0  0  0  0  0  0  0
   46.0560   28.6600   48.1940 H   0  0  0  0  0  0  0  0  0  0  0  0
   48.5420   29.3210   46.5330 C   0  0  0  0  0  0  0  0  0  0  0  0
   49.3540   29.7140   47.4440 O   0  0  0  0  0  0  0  0  0  0  0  0
   47.2020   29.5570   46.0990 N   0  0  0  0  0  0  0  0  0  0  0  0
   49.3020   28.6550   46.1340 H   0  0  0  0  0  0  0  0  0  0  0  0
   46.9830   29.0280   45.2260 H   0  0  0  0  0  0  0  0  0  0  0  0
   43.5610   34.7860   41.0170 C   0  0  0  0  0  0  0  0  0  0  0  0
   43.4110   33.7860   40.5820 H   0  0  0  0  0  0  0  0  0  0  0  0
   44.2810   35.3800   40.3950 H   0  0  0  0  0  0  0  0  0  0  0  0
   42.2710   35.5700   41.0900 C   0  0  0  0  0  0  0  0  0  0  0  0
   41.8090   35.3080   42.0720 H   0  0  0  0  0  0  0  0  0  0  0  0
   42.5200   36.6380   41.0800 H   0  0  0  0  0  0  0  0  0  0  0  0
   41.4150   35.1470   39.9950 N   0  0  0  0  0  0  0  0  0  0  0  0
   41.6180   35.5710   38.7200 C   0  0  0  0  0  0  0  0  0  0  0  0
   42.4020   36.2420   38.3860 H   0  0  0  0  0  0  0  0  0  0  0  0
   40.6670   35.0070   37.9520 N   0  0  0  0  0  0  0  0  0  0  0  0
   39.8790   34.2360   38.7490 C   0  0  0  0  0  0  0  0  0  0  0  0
   38.7730   33.4220   38.6010 C   0  0  0  0  0  0  0  0  0  0  0  0
   38.2190   32.7780   39.6440 N   0  0  0  0  0  0  0  0  0  0  0  0
   38.7340   32.9050   40.9020 C   0  0  0  0  0  0  0  0  0  0  0  0
   38.1970   32.3360   41.6510 H   0  0  0  0  0  0  0  0  0  0  0  0
   39.8270   33.6960   41.1140 N   0  0  0  0  0  0  0  0  0  0  0  0
   40.3530   34.3220   40.0590 C   0  0  0  0  0  0  0  0  0  0  0  0
   38.2480   33.2980   37.2840 N   0  0  0  0  0  0  0  0  0  0  0  0
   38.4000   34.0330   36.5600 H   0  0  0  0  0  0  0  0  0  0  0  0
   37.6780   32.5410   36.8450 H   0  0  0  0  0  0  0  0  0  0  0  0
  1  6  1  0  0  0  0
  1  7  1  0  0  0  0
  2  1  2  0  0  0  0
  3  4  2  0  0  0  0
  3  2  1  0  0  0  0
  4  5  1  0  0  0  0
  5  9  1  0  0  0  0
  5  6  2  0  0  0  0
  8  2  1  0  0  0  0
  9 10  1  0  0  0  0
  9 12  1  0  0  0  0
 11  9  1  0  0  0  0
 12 14  1  0  0  0  0
 12 15  1  0  0  0  0
 13 12  1  0  0  0  0
 15 20  2  0  0  0  0
 15 16  1  0  0  0  0
 16 17  2  0  0  0  0
 17 18  1  0  0  0  0
 17 22  1  0  0  0  0
 18 23  1  0  0  0  0
 19 24  1  0  0  0  0
 19 18  2  0  0  0  0
 20 19  1  0  0  0  0
 21 16  1  0  0  0  0
 25 26  2  0  0  0  0
 27 25  1  0  0  0  0
 27 20  1  0  0  0  0
 28 25  1  0  0  0  0
 29 27  1  0  0  0  0
 30 33  1  0  0  0  0
 30  3  1  0  0  0  0
 31 30  1  0  0  0  0
 32 30  1  0  0  0  0
 33 34  1  0  0  0  0
 35 33  1  0  0  0  0
 36 46  1  0  0  0  0
 36 33  1  0  0  0  0
 37 36  1  0  0  0  0
 38 37  1  0  0  0  0
 39 37  2  0  0  0  0
 39 40  1  0  0  0  0
 40 46  1  0  0  0  0
 41 40  2  0  0  0  0
 41 42  1  0  0  0  0
 42 43  2  0  0  0  0
 43 45  1  0  0  0  0
 43 44  1  0  0  0  0
 46 45  2  0  0  0  0
 47 41  1  0  0  0  0
 48 47  1  0  0  0  0
 49 47  1  0  0  0  0
M  END
>  <minimizedAffinity>
-6.30368853

>  <minimizedRMSD>
1.39832652

$$$$
