
     RDKit          3D

 30 32  0  0  0  0  0  0  0  0999 V2000
   47.0966   34.3901   43.0956 C   0  0  0  0  0  0  0  0  0  0  0  0
   45.7767   34.5926   43.5049 C   0  0  0  0  0  0  0  0  0  0  0  0
   45.2528   33.7602   44.4966 C   0  0  0  0  0  0  0  0  0  0  0  0
   46.0491   32.7936   45.0168 N   0  0  0  0  0  0  0  0  0  0  0  0
   47.3260   32.6272   44.5941 C   0  0  0  0  0  0  0  0  0  0  0  0
   47.8584   33.4176   43.6367 N   0  0  0  0  0  0  0  0  0  0  0  0
   44.9771   35.6841   42.8726 C   0  0  0  0  0  0  0  0  0  0  0  0
   45.6167   36.9027   43.0681 F   0  0  0  0  0  0  0  0  0  0  0  0
   44.9587   35.4646   41.5066 F   0  0  0  0  0  0  0  0  0  0  0  0
   43.7156   35.8120   43.3476 F   0  0  0  0  0  0  0  0  0  0  0  0
   47.5913   35.1968   42.1404 O   0  0  0  0  0  0  0  0  0  0  0  0
   48.8743   35.1911   41.5711 C   0  0  0  0  0  0  0  0  0  0  0  0
   49.7667   35.4916   42.6133 F   0  0  0  0  0  0  0  0  0  0  0  0
   49.1214   33.9669   40.9984 F   0  0  0  0  0  0  0  0  0  0  0  0
   49.0076   36.2269   40.6662 F   0  0  0  0  0  0  0  0  0  0  0  0
   44.2323   33.9042   44.8244 H   0  0  0  0  0  0  0  0  0  0  0  0
   48.0327   31.5717   45.2354 N   0  0  0  0  0  0  0  0  0  0  0  0
   48.1315   31.4894   46.5932 C   0  0  0  0  0  0  0  0  0  0  0  0
   47.7120   32.1725   47.3169 H   0  0  0  0  0  0  0  0  0  0  0  0
   48.8430   30.4122   46.9606 N   0  0  0  0  0  0  0  0  0  0  0  0
   49.2155   29.7805   45.8325 C   0  0  0  0  0  0  0  0  0  0  0  0
   49.9522   28.6332   45.5886 C   0  0  0  0  0  0  0  0  0  0  0  0
   50.4425   27.9364   46.7238 N   0  0  0  0  0  0  0  0  0  0  0  0
   49.8086   27.1053   46.9149 H   0  0  0  0  0  0  0  0  0  0  0  0
   50.1531   28.2576   44.2980 N   0  0  0  0  0  0  0  0  0  0  0  0
   49.6340   29.0052   43.2843 C   0  0  0  0  0  0  0  0  0  0  0  0
   49.8630   28.6022   42.3068 H   0  0  0  0  0  0  0  0  0  0  0  0
   48.9041   30.1401   43.4926 N   0  0  0  0  0  0  0  0  0  0  0  0
   48.7102   30.5043   44.7733 C   0  0  0  0  0  0  0  0  0  0  0  0
   51.2633   28.1077   47.3430 H   0  0  0  0  0  0  0  0  0  0  0  0
  1  2  2  0
  1  6  1  0
  2  3  1  0
  3  4  2  0
  5  4  1  0
  6  5  2  0
  7  8  1  0
  7 10  1  0
  7  2  1  0
  9  7  1  0
 11  1  1  0
 12 11  1  0
 12 13  1  0
 14 12  1  0
 15 12  1  0
  3 16  1  0
 17 18  1  0
 18 19  1  0
 18 20  2  0
 20 21  1  0
 21 22  2  0
 22 23  1  0
 23 24  1  0
 22 25  1  0
 25 26  2  0
 26 27  1  0
 26 28  1  0
 28 29  2  0
 29 17  1  0
 29 21  1  0
 23 30  1  0
  5 17  1  0
M  ISO  4  16  14  19  15  24   5  27  16
M  END
>  <DihAtoms>  (1) 
3,4,16,17

>  <DihDeg>  (1) 
-53.67935003396244

$$$$
