REMARK  Name = 
REMARK  2 active torsions:
REMARK  status: ('A' for Active; 'I' for Inactive)
REMARK    1  A    between atoms: C_3  and  S_7
REMARK    2  A    between atoms: C_16  and  N_17
REMARK                            x       y       z     vdW  Elec       q    Type
REMARK                         _______ _______ _______ _____ _____    ______ ____
ROOT
ATOM      1  C   UNL     1      44.538  36.031  44.532  0.00  0.00    +0.000 A 
ATOM      2  C   UNL     1      45.261  35.896  43.314  0.00  0.00    +0.000 A 
ATOM      3  C   UNL     1      46.126  34.799  43.211  0.00  0.00    +0.000 A 
ATOM      4  N   UNL     1      46.238  33.935  44.241  0.00  0.00    +0.000 NA
ATOM      5  C   UNL     1      45.529  34.100  45.387  0.00  0.00    +0.000 A 
ATOM      6  N   UNL     1      44.685  35.137  45.535  0.00  0.00    +0.000 NA
ATOM      7  H   UNL     1      43.898  36.894  44.535  0.00  0.00    +0.000 HD
ATOM      8  H   UNL     1      45.174  36.575  42.502  0.00  0.00    +0.000 HD
ATOM      9  N   UNL     1      45.603  33.225  46.506  0.00  0.00    +0.000 N 
ATOM     10  C   UNL     1      46.759  32.657  46.932  0.00  0.00    +0.000 A 
ATOM     11  H   UNL     1      47.772  32.758  46.528  0.00  0.00    +0.000 HD
ATOM     12  N   UNL     1      46.529  31.880  48.007  0.00  0.00    +0.000 NA
ATOM     13  C   UNL     1      45.213  31.933  48.294  0.00  0.00    +0.000 A 
ATOM     14  C   UNL     1      44.381  31.363  49.262  0.00  0.00    +0.000 A 
ATOM     15  N   UNL     1      43.055  31.672  49.219  0.00  0.00    +0.000 NA
ATOM     16  C   UNL     1      42.554  32.495  48.283  0.00  0.00    +0.000 A 
ATOM     17  H   UNL     1      41.472  32.695  48.316  0.00  0.00    +0.000 HD
ATOM     18  N   UNL     1      43.337  33.056  47.340  0.00  0.00    +0.000 NA
ATOM     19  C   UNL     1      44.652  32.777  47.348  0.00  0.00    +0.000 A 
ENDROOT
BRANCH  14  20
ATOM     20  N   UNL     1      44.940  30.510  50.221  0.00  0.00    +0.000 N 
ATOM     21  H   UNL     1      45.033  30.507  51.274  0.00  0.00    +0.000 HD
ATOM     22  H   UNL     1      45.380  29.657  49.821  0.00  0.00    +0.000 HD
ENDBRANCH  14  20
BRANCH   3  23
ATOM     23  S   UNL     1      47.075  34.554  41.709  0.00  0.00    +0.000 S 
ATOM     24  H   UNL     1      46.954  33.210  41.336  0.00  0.00    +0.000 HD
ENDBRANCH   3  23
TORSDOF 2
