
 OpenBabel03242511483D

 49 52  0  0  0  0  0  0  0  0999 V2000
   36.1590   29.0360   39.0370 C   0  0  0  0  0  0  0  0  0  0  0  0
   36.5990   30.3700   39.0540 C   0  0  0  0  0  0  0  0  0  0  0  0
   37.0260   30.8600   40.2740 C   0  0  0  0  0  0  0  0  0  0  0  0
   37.0080   30.0710   41.3680 N   0  0  0  0  0  0  0  0  0  0  0  0
   36.5720   28.7950   41.2800 C   0  0  0  0  0  0  0  0  0  0  0  0
   36.1580   28.2810   40.1570 N   0  0  0  0  0  0  0  0  0  0  0  0
   35.8200   28.6310   38.0970 H   0  0  0  0  0  0  0  0  0  0  0  0
   36.5760   30.9140   38.1420 H   0  0  0  0  0  0  0  0  0  0  0  0
   36.5790   27.9880   42.5160 C   0  0  0  0  0  0  0  0  0  0  0  0
   37.1720   28.4630   43.3400 H   0  0  0  0  0  0  0  0  0  0  0  0
   35.5240   27.8970   42.8450 H   0  0  0  0  0  0  0  0  0  0  0  0
   37.0680   26.5970   42.1910 C   0  0  0  0  0  0  0  0  0  0  0  0
   36.3620   25.8180   42.5430 H   0  0  0  0  0  0  0  0  0  0  0  0
   37.1230   26.4470   41.0820 H   0  0  0  0  0  0  0  0  0  0  0  0
   38.3910   26.3420   42.7390 C   0  0  0  0  0  0  0  0  0  0  0  0
   39.2640   27.2340   43.3070 C   0  0  0  0  0  0  0  0  0  0  0  0
   40.4830   26.8910   43.7940 C   0  0  0  0  0  0  0  0  0  0  0  0
   40.8630   25.5710   43.7140 C   0  0  0  0  0  0  0  0  0  0  0  0
   39.9970   24.6690   43.1480 C   0  0  0  0  0  0  0  0  0  0  0  0
   38.7700   25.0370   42.6610 C   0  0  0  0  0  0  0  0  0  0  0  0
   38.9140   28.2710   43.3460 H   0  0  0  0  0  0  0  0  0  0  0  0
   41.0890   27.6750   44.2180 H   0  0  0  0  0  0  0  0  0  0  0  0
   41.8580   25.3510   44.1240 H   0  0  0  0  0  0  0  0  0  0  0  0
   40.4500   23.6660   43.1620 H   0  0  0  0  0  0  0  0  0  0  0  0
   38.5070   23.5020   40.8130 C   0  0  0  0  0  0  0  0  0  0  0  0
   39.2430   23.9410   39.8580 O   0  0  0  0  0  0  0  0  0  0  0  0
   38.1210   23.8640   42.1400 N   0  0  0  0  0  0  0  0  0  0  0  0
   38.2260   22.6440   40.2090 H   0  0  0  0  0  0  0  0  0  0  0  0
   37.4140   23.2020   42.5270 H   0  0  0  0  0  0  0  0  0  0  0  0
   37.4910   32.2750   40.2920 C   0  0  0  0  0  0  0  0  0  0  0  0
   36.7160   32.9100   40.7480 H   0  0  0  0  0  0  0  0  0  0  0  0
   37.6470   32.5570   39.2170 H   0  0  0  0  0  0  0  0  0  0  0  0
   38.8220   32.4140   40.9940 C   0  0  0  0  0  0  0  0  0  0  0  0
   38.6240   33.0280   41.9050 H   0  0  0  0  0  0  0  0  0  0  0  0
   39.1540   31.4150   41.2970 H   0  0  0  0  0  0  0  0  0  0  0  0
   39.7390   33.1040   40.1040 N   0  0  0  0  0  0  0  0  0  0  0  0
   40.0270   34.4240   40.2500 C   0  0  0  0  0  0  0  0  0  0  0  0
   39.6250   35.0850   41.0100 H   0  0  0  0  0  0  0  0  0  0  0  0
   40.9000   34.7560   39.2810 N   0  0  0  0  0  0  0  0  0  0  0  0
   41.1520   33.6460   38.5370 C   0  0  0  0  0  0  0  0  0  0  0  0
   41.9220   33.3120   37.4400 C   0  0  0  0  0  0  0  0  0  0  0  0
   41.9400   32.0640   36.9380 N   0  0  0  0  0  0  0  0  0  0  0  0
   41.1920   31.0700   37.4980 C   0  0  0  0  0  0  0  0  0  0  0  0
   41.2960   30.1140   37.0000 H   0  0  0  0  0  0  0  0  0  0  0  0
   40.4090   31.3370   38.5840 N   0  0  0  0  0  0  0  0  0  0  0  0
   40.4120   32.5830   39.0590 C   0  0  0  0  0  0  0  0  0  0  0  0
   42.6980   34.3580   36.8670 N   0  0  0  0  0  0  0  0  0  0  0  0
   42.4360   35.3620   36.9790 H   0  0  0  0  0  0  0  0  0  0  0  0
   43.5700   34.3260   36.2950 H   0  0  0  0  0  0  0  0  0  0  0  0
  1  2  2  0  0  0  0
  1  6  1  0  0  0  0
  2  3  1  0  0  0  0
  3 30  1  0  0  0  0
  3  4  2  0  0  0  0
  5  4  1  0  0  0  0
  5  9  1  0  0  0  0
  6  5  2  0  0  0  0
  7  1  1  0  0  0  0
  8  2  1  0  0  0  0
  9 11  1  0  0  0  0
  9 10  1  0  0  0  0
 12  9  1  0  0  0  0
 12 13  1  0  0  0  0
 12 15  1  0  0  0  0
 14 12  1  0  0  0  0
 15 16  1  0  0  0  0
 16 21  1  0  0  0  0
 16 17  2  0  0  0  0
 17 22  1  0  0  0  0
 18 17  1  0  0  0  0
 18 23  1  0  0  0  0
 19 24  1  0  0  0  0
 19 18  2  0  0  0  0
 20 15  2  0  0  0  0
 20 19  1  0  0  0  0
 25 27  1  0  0  0  0
 26 25  2  0  0  0  0
 27 29  1  0  0  0  0
 27 20  1  0  0  0  0
 28 25  1  0  0  0  0
 30 31  1  0  0  0  0
 30 33  1  0  0  0  0
 32 30  1  0  0  0  0
 33 35  1  0  0  0  0
 33 34  1  0  0  0  0
 36 37  1  0  0  0  0
 36 33  1  0  0  0  0
 37 38  1  0  0  0  0
 39 37  2  0  0  0  0
 40 46  1  0  0  0  0
 40 39  1  0  0  0  0
 41 40  2  0  0  0  0
 42 41  1  0  0  0  0
 42 43  2  0  0  0  0
 43 45  1  0  0  0  0
 44 43  1  0  0  0  0
 45 46  2  0  0  0  0
 46 36  1  0  0  0  0
 47 48  1  0  0  0  0
 47 41  1  0  0  0  0
 49 47  1  0  0  0  0
M  END
>  <minimizedAffinity>
-7.15022945

$$$$

 OpenBabel03242511483D

 49 52  0  0  0  0  0  0  0  0999 V2000
   37.2620   30.5190   37.1510 C   0  0  0  0  0  0  0  0  0  0  0  0
   37.4690   31.7680   37.7600 C   0  0  0  0  0  0  0  0  0  0  0  0
   37.1030   31.8710   39.0890 C   0  0  0  0  0  0  0  0  0  0  0  0
   36.5780   30.8090   39.7350 N   0  0  0  0  0  0  0  0  0  0  0  0
   36.4060   29.6360   39.0870 C   0  0  0  0  0  0  0  0  0  0  0  0
   36.7330   29.4810   37.8350 N   0  0  0  0  0  0  0  0  0  0  0  0
   37.5390   30.4140   36.1150 H   0  0  0  0  0  0  0  0  0  0  0  0
   37.8880   32.5460   37.1710 H   0  0  0  0  0  0  0  0  0  0  0  0
   35.8270   28.5150   39.8530 C   0  0  0  0  0  0  0  0  0  0  0  0
   34.7310   28.3780   39.6580 H   0  0  0  0  0  0  0  0  0  0  0  0
   36.3610   27.5970   39.5310 H   0  0  0  0  0  0  0  0  0  0  0  0
   36.1250   28.7160   41.3190 C   0  0  0  0  0  0  0  0  0  0  0  0
   36.5430   29.7230   41.5210 H   0  0  0  0  0  0  0  0  0  0  0  0
   35.1820   28.6770   41.9230 H   0  0  0  0  0  0  0  0  0  0  0  0
   37.0260   27.7000   41.8380 C   0  0  0  0  0  0  0  0  0  0  0  0
   37.0780   26.3660   41.5220 C   0  0  0  0  0  0  0  0  0  0  0  0
   37.9660   25.4960   42.0630 C   0  0  0  0  0  0  0  0  0  0  0  0
   38.8680   25.9810   42.9830 C   0  0  0  0  0  0  0  0  0  0  0  0
   38.8250   27.3150   43.3070 C   0  0  0  0  0  0  0  0  0  0  0  0
   37.9190   28.1760   42.7470 C   0  0  0  0  0  0  0  0  0  0  0  0
   36.3400   26.0310   40.7850 H   0  0  0  0  0  0  0  0  0  0  0  0
   37.9160   24.4680   41.7420 H   0  0  0  0  0  0  0  0  0  0  0  0
   39.5620   25.2330   43.3880 H   0  0  0  0  0  0  0  0  0  0  0  0
   39.6060   27.5370   44.0500 H   0  0  0  0  0  0  0  0  0  0  0  0
   39.1640   30.2460   42.6530 C   0  0  0  0  0  0  0  0  0  0  0  0
   40.0370   30.1120   41.7230 O   0  0  0  0  0  0  0  0  0  0  0  0
   38.1420   29.4860   43.3000 N   0  0  0  0  0  0  0  0  0  0  0  0
   39.4920   31.2680   42.8220 H   0  0  0  0  0  0  0  0  0  0  0  0
   37.7100   30.0160   44.0880 H   0  0  0  0  0  0  0  0  0  0  0  0
   37.3220   33.1960   39.7340 C   0  0  0  0  0  0  0  0  0  0  0  0
   36.4000   33.5110   40.2460 H   0  0  0  0  0  0  0  0  0  0  0  0
   37.5690   33.9030   38.8990 H   0  0  0  0  0  0  0  0  0  0  0  0
   38.5070   33.1680   40.6710 C   0  0  0  0  0  0  0  0  0  0  0  0
   38.1880   33.7270   41.5840 H   0  0  0  0  0  0  0  0  0  0  0  0
   38.7080   32.1240   40.9380 H   0  0  0  0  0  0  0  0  0  0  0  0
   39.6190   33.8430   40.0230 N   0  0  0  0  0  0  0  0  0  0  0  0
   39.8160   35.1820   40.1450 C   0  0  0  0  0  0  0  0  0  0  0  0
   39.1980   35.8710   40.7100 H   0  0  0  0  0  0  0  0  0  0  0  0
   40.9170   35.4930   39.4350 N   0  0  0  0  0  0  0  0  0  0  0  0
   41.3990   34.3500   38.8760 C   0  0  0  0  0  0  0  0  0  0  0  0
   42.4560   33.9850   38.0660 C   0  0  0  0  0  0  0  0  0  0  0  0
   42.6500   32.7090   37.6840 N   0  0  0  0  0  0  0  0  0  0  0  0
   41.8020   31.7180   38.0860 C   0  0  0  0  0  0  0  0  0  0  0  0
   42.0700   30.7380   37.7090 H   0  0  0  0  0  0  0  0  0  0  0  0
   40.7380   32.0160   38.8870 N   0  0  0  0  0  0  0  0  0  0  0  0
   40.5720   33.2890   39.2490 C   0  0  0  0  0  0  0  0  0  0  0  0
   43.3320   35.0280   37.6560 N   0  0  0  0  0  0  0  0  0  0  0  0
   43.0220   36.0230   37.6150 H   0  0  0  0  0  0  0  0  0  0  0  0
   44.3310   35.0010   37.3530 H   0  0  0  0  0  0  0  0  0  0  0  0
  1  2  2  0  0  0  0
  1  6  1  0  0  0  0
  2  3  1  0  0  0  0
  3 30  1  0  0  0  0
  3  4  2  0  0  0  0
  5  4  1  0  0  0  0
  5  9  1  0  0  0  0
  6  5  2  0  0  0  0
  7  1  1  0  0  0  0
  8  2  1  0  0  0  0
  9 12  1  0  0  0  0
 10  9  1  0  0  0  0
 11  9  1  0  0  0  0
 12 13  1  0  0  0  0
 12 15  1  0  0  0  0
 12 14  1  0  0  0  0
 15 20  1  0  0  0  0
 16 15  2  0  0  0  0
 16 17  1  0  0  0  0
 17 18  2  0  0  0  0
 18 19  1  0  0  0  0
 18 23  1  0  0  0  0
 19 24  1  0  0  0  0
 20 27  1  0  0  0  0
 20 19  2  0  0  0  0
 21 16  1  0  0  0  0
 22 17  1  0  0  0  0
 25 28  1  0  0  0  0
 25 27  1  0  0  0  0
 26 25  2  0  0  0  0
 27 29  1  0  0  0  0
 30 31  1  0  0  0  0
 30 33  1  0  0  0  0
 32 30  1  0  0  0  0
 33 35  1  0  0  0  0
 33 34  1  0  0  0  0
 36 37  1  0  0  0  0
 36 33  1  0  0  0  0
 37 38  1  0  0  0  0
 39 37  2  0  0  0  0
 40 46  1  0  0  0  0
 40 39  1  0  0  0  0
 41 40  2  0  0  0  0
 42 41  1  0  0  0  0
 42 43  2  0  0  0  0
 43 45  1  0  0  0  0
 44 43  1  0  0  0  0
 45 46  2  0  0  0  0
 46 36  1  0  0  0  0
 47 41  1  0  0  0  0
 48 47  1  0  0  0  0
 49 47  1  0  0  0  0
M  END
>  <minimizedAffinity>
-6.85039473

$$$$

 OpenBabel03242511483D

 49 52  0  0  0  0  0  0  0  0999 V2000
   35.5580   29.3470   40.3170 C   0  0  0  0  0  0  0  0  0  0  0  0
   36.1180   30.5800   39.9430 C   0  0  0  0  0  0  0  0  0  0  0  0
   37.1340   31.0610   40.7490 C   0  0  0  0  0  0  0  0  0  0  0  0
   37.5390   30.3580   41.8260 N   0  0  0  0  0  0  0  0  0  0  0  0
   36.9550   29.1780   42.1280 C   0  0  0  0  0  0  0  0  0  0  0  0
   35.9940   28.6760   41.4050 N   0  0  0  0  0  0  0  0  0  0  0  0
   34.7630   28.9510   39.7050 H   0  0  0  0  0  0  0  0  0  0  0  0
   35.7330   31.0600   39.0780 H   0  0  0  0  0  0  0  0  0  0  0  0
   37.4470   28.4610   43.3210 C   0  0  0  0  0  0  0  0  0  0  0  0
   38.4290   28.8560   43.6890 H   0  0  0  0  0  0  0  0  0  0  0  0
   36.6870   28.6050   44.1160 H   0  0  0  0  0  0  0  0  0  0  0  0
   37.5040   26.9840   43.0170 C   0  0  0  0  0  0  0  0  0  0  0  0
   36.9410   26.3860   43.7630 H   0  0  0  0  0  0  0  0  0  0  0  0
   37.0000   26.7610   42.0420 H   0  0  0  0  0  0  0  0  0  0  0  0
   38.8710   26.4960   42.9310 C   0  0  0  0  0  0  0  0  0  0  0  0
   39.8020   26.3920   43.9330 C   0  0  0  0  0  0  0  0  0  0  0  0
   41.0590   25.9180   43.7480 C   0  0  0  0  0  0  0  0  0  0  0  0
   41.4200   25.5170   42.4830 C   0  0  0  0  0  0  0  0  0  0  0  0
   40.4960   25.6170   41.4720 C   0  0  0  0  0  0  0  0  0  0  0  0
   39.2310   26.0990   41.6810 C   0  0  0  0  0  0  0  0  0  0  0  0
   39.4660   26.7240   44.9210 H   0  0  0  0  0  0  0  0  0  0  0  0
   41.7090   25.8800   44.6080 H   0  0  0  0  0  0  0  0  0  0  0  0
   42.4480   25.1420   42.3920 H   0  0  0  0  0  0  0  0  0  0  0  0
   40.9400   25.2570   40.5310 H   0  0  0  0  0  0  0  0  0  0  0  0
   38.7400   27.2100   39.5900 C   0  0  0  0  0  0  0  0  0  0  0  0
   39.3470   28.3400   39.6190 O   0  0  0  0  0  0  0  0  0  0  0  0
   38.5260   26.0720   40.4270 N   0  0  0  0  0  0  0  0  0  0  0  0
   38.3870   27.4190   38.5840 H   0  0  0  0  0  0  0  0  0  0  0  0
   37.8760   25.3870   39.9820 H   0  0  0  0  0  0  0  0  0  0  0  0
   37.7270   32.3690   40.3530 C   0  0  0  0  0  0  0  0  0  0  0  0
   37.0040   33.1740   40.5490 H   0  0  0  0  0  0  0  0  0  0  0  0
   37.9350   32.2880   39.2530 H   0  0  0  0  0  0  0  0  0  0  0  0
   39.0470   32.6130   41.0460 C   0  0  0  0  0  0  0  0  0  0  0  0
   38.8200   33.2860   41.9080 H   0  0  0  0  0  0  0  0  0  0  0  0
   39.4170   31.6530   41.4250 H   0  0  0  0  0  0  0  0  0  0  0  0
   39.9430   33.2690   40.1090 N   0  0  0  0  0  0  0  0  0  0  0  0
   40.2400   34.5920   40.2060 C   0  0  0  0  0  0  0  0  0  0  0  0
   39.8620   35.2790   40.9560 H   0  0  0  0  0  0  0  0  0  0  0  0
   41.0860   34.8890   39.2020 N   0  0  0  0  0  0  0  0  0  0  0  0
   41.3120   33.7550   38.4870 C   0  0  0  0  0  0  0  0  0  0  0  0
   42.0500   33.3830   37.3810 C   0  0  0  0  0  0  0  0  0  0  0  0
   42.0490   32.1200   36.9170 N   0  0  0  0  0  0  0  0  0  0  0  0
   41.3120   31.1470   37.5290 C   0  0  0  0  0  0  0  0  0  0  0  0
   41.3980   30.1750   37.0580 H   0  0  0  0  0  0  0  0  0  0  0  0
   40.5610   31.4520   38.6280 N   0  0  0  0  0  0  0  0  0  0  0  0
   40.5830   32.7130   39.0630 C   0  0  0  0  0  0  0  0  0  0  0  0
   42.8140   34.4060   36.7530 N   0  0  0  0  0  0  0  0  0  0  0  0
   42.5600   35.4140   36.8410 H   0  0  0  0  0  0  0  0  0  0  0  0
   43.6700   34.3520   36.1580 H   0  0  0  0  0  0  0  0  0  0  0  0
  1  6  1  0  0  0  0
  2  1  2  0  0  0  0
  2  3  1  0  0  0  0
  3  4  2  0  0  0  0
  4  5  1  0  0  0  0
  5  9  1  0  0  0  0
  6  5  2  0  0  0  0
  7  1  1  0  0  0  0
  8  2  1  0  0  0  0
  9 10  1  0  0  0  0
  9 11  1  0  0  0  0
 12  9  1  0  0  0  0
 12 13  1  0  0  0  0
 14 12  1  0  0  0  0
 15 12  1  0  0  0  0
 15 16  1  0  0  0  0
 16 21  1  0  0  0  0
 17 16  2  0  0  0  0
 17 22  1  0  0  0  0
 18 17  1  0  0  0  0
 19 20  1  0  0  0  0
 19 18  2  0  0  0  0
 20 15  2  0  0  0  0
 23 18  1  0  0  0  0
 24 19  1  0  0  0  0
 25 26  2  0  0  0  0
 25 27  1  0  0  0  0
 27 20  1  0  0  0  0
 28 25  1  0  0  0  0
 29 27  1  0  0  0  0
 30 31  1  0  0  0  0
 30  3  1  0  0  0  0
 30 33  1  0  0  0  0
 32 30  1  0  0  0  0
 33 35  1  0  0  0  0
 33 34  1  0  0  0  0
 36 37  1  0  0  0  0
 36 33  1  0  0  0  0
 37 38  1  0  0  0  0
 39 37  2  0  0  0  0
 40 46  1  0  0  0  0
 40 39  1  0  0  0  0
 41 40  2  0  0  0  0
 42 41  1  0  0  0  0
 42 43  2  0  0  0  0
 43 45  1  0  0  0  0
 44 43  1  0  0  0  0
 45 46  2  0  0  0  0
 46 36  1  0  0  0  0
 47 48  1  0  0  0  0
 47 41  1  0  0  0  0
 49 47  1  0  0  0  0
M  END
>  <minimizedAffinity>
-6.81485653

$$$$

 OpenBabel03242511483D

 49 52  0  0  0  0  0  0  0  0999 V2000
   36.5900   30.0570   38.3220 C   0  0  0  0  0  0  0  0  0  0  0  0
   36.9320   31.4080   38.5000 C   0  0  0  0  0  0  0  0  0  0  0  0
   37.2180   31.8030   39.7940 C   0  0  0  0  0  0  0  0  0  0  0  0
   37.1620   30.9130   40.8050 N   0  0  0  0  0  0  0  0  0  0  0  0
   36.8250   29.6270   40.5630 C   0  0  0  0  0  0  0  0  0  0  0  0
   36.5460   29.1980   39.3640 N   0  0  0  0  0  0  0  0  0  0  0  0
   36.3620   29.7230   37.3220 H   0  0  0  0  0  0  0  0  0  0  0  0
   36.9500   32.0330   37.6420 H   0  0  0  0  0  0  0  0  0  0  0  0
   36.7830   28.7060   41.7160 C   0  0  0  0  0  0  0  0  0  0  0  0
   35.7400   28.5140   42.0780 H   0  0  0  0  0  0  0  0  0  0  0  0
   37.2220   27.7460   41.3750 H   0  0  0  0  0  0  0  0  0  0  0  0
   37.6770   29.2440   42.8070 C   0  0  0  0  0  0  0  0  0  0  0  0
   38.0070   30.2820   42.5960 H   0  0  0  0  0  0  0  0  0  0  0  0
   37.1170   29.3180   43.7750 H   0  0  0  0  0  0  0  0  0  0  0  0
   38.8380   28.3970   43.0290 C   0  0  0  0  0  0  0  0  0  0  0  0
   38.9200   27.2390   43.7580 C   0  0  0  0  0  0  0  0  0  0  0  0
   40.0580   26.5160   43.9020 C   0  0  0  0  0  0  0  0  0  0  0  0
   41.1970   26.9730   43.2790 C   0  0  0  0  0  0  0  0  0  0  0  0
   41.1270   28.1320   42.5460 C   0  0  0  0  0  0  0  0  0  0  0  0
   39.9650   28.8470   42.4140 C   0  0  0  0  0  0  0  0  0  0  0  0
   37.9860   26.9180   44.2330 H   0  0  0  0  0  0  0  0  0  0  0  0
   40.0080   25.6200   44.4990 H   0  0  0  0  0  0  0  0  0  0  0  0
   42.0880   26.3490   43.4290 H   0  0  0  0  0  0  0  0  0  0  0  0
   42.1160   28.3560   42.1170 H   0  0  0  0  0  0  0  0  0  0  0  0
   41.0920   30.9740   42.1860 C   0  0  0  0  0  0  0  0  0  0  0  0
   41.6880   31.1990   43.2990 O   0  0  0  0  0  0  0  0  0  0  0  0
   40.2350   29.9970   41.5920 N   0  0  0  0  0  0  0  0  0  0  0  0
   41.5010   31.8920   41.7740 H   0  0  0  0  0  0  0  0  0  0  0  0
   39.9350   30.2810   40.6350 H   0  0  0  0  0  0  0  0  0  0  0  0
   37.5800   33.2360   39.9820 C   0  0  0  0  0  0  0  0  0  0  0  0
   36.7310   33.7720   40.4330 H   0  0  0  0  0  0  0  0  0  0  0  0
   37.7920   33.6330   38.9540 H   0  0  0  0  0  0  0  0  0  0  0  0
   38.8430   33.3880   40.7960 C   0  0  0  0  0  0  0  0  0  0  0  0
   38.6130   34.1520   41.5770 H   0  0  0  0  0  0  0  0  0  0  0  0
   39.0540   32.4280   41.2810 H   0  0  0  0  0  0  0  0  0  0  0  0
   39.9000   33.8580   39.9180 N   0  0  0  0  0  0  0  0  0  0  0  0
   40.3120   35.1530   39.9200 C   0  0  0  0  0  0  0  0  0  0  0  0
   39.9200   35.9480   40.5440 H   0  0  0  0  0  0  0  0  0  0  0  0
   41.2940   35.2650   39.0050 N   0  0  0  0  0  0  0  0  0  0  0  0
   41.4890   34.0430   38.4400 C   0  0  0  0  0  0  0  0  0  0  0  0
   42.3100   33.4890   37.4770 C   0  0  0  0  0  0  0  0  0  0  0  0
   42.2390   32.1870   37.1450 N   0  0  0  0  0  0  0  0  0  0  0  0
   41.3440   31.3550   37.7540 C   0  0  0  0  0  0  0  0  0  0  0  0
   41.3890   30.3330   37.3970 H   0  0  0  0  0  0  0  0  0  0  0  0
   40.5050   31.8420   38.7140 N   0  0  0  0  0  0  0  0  0  0  0  0
   40.5990   33.1370   39.0210 C   0  0  0  0  0  0  0  0  0  0  0  0
   43.2370   34.3680   36.8520 N   0  0  0  0  0  0  0  0  0  0  0  0
   43.0750   35.3980   36.8070 H   0  0  0  0  0  0  0  0  0  0  0  0
   44.1470   34.1760   36.3770 H   0  0  0  0  0  0  0  0  0  0  0  0
  1  2  2  0  0  0  0
  1  6  1  0  0  0  0
  2  3  1  0  0  0  0
  3 30  1  0  0  0  0
  3  4  2  0  0  0  0
  5  4  1  0  0  0  0
  5  9  1  0  0  0  0
  6  5  2  0  0  0  0
  7  1  1  0  0  0  0
  8  2  1  0  0  0  0
  9 10  1  0  0  0  0
  9 12  1  0  0  0  0
 11  9  1  0  0  0  0
 12 15  1  0  0  0  0
 12 14  1  0  0  0  0
 13 12  1  0  0  0  0
 15 16  1  0  0  0  0
 16 17  2  0  0  0  0
 16 21  1  0  0  0  0
 17 22  1  0  0  0  0
 18 23  1  0  0  0  0
 18 17  1  0  0  0  0
 19 18  2  0  0  0  0
 20 19  1  0  0  0  0
 20 15  2  0  0  0  0
 24 19  1  0  0  0  0
 25 26  2  0  0  0  0
 27 25  1  0  0  0  0
 27 20  1  0  0  0  0
 28 25  1  0  0  0  0
 29 27  1  0  0  0  0
 30 31  1  0  0  0  0
 30 33  1  0  0  0  0
 32 30  1  0  0  0  0
 33 35  1  0  0  0  0
 33 34  1  0  0  0  0
 36 37  1  0  0  0  0
 36 33  1  0  0  0  0
 37 38  1  0  0  0  0
 39 37  2  0  0  0  0
 40 39  1  0  0  0  0
 40 46  1  0  0  0  0
 41 40  2  0  0  0  0
 42 41  1  0  0  0  0
 42 43  2  0  0  0  0
 43 45  1  0  0  0  0
 44 43  1  0  0  0  0
 45 46  2  0  0  0  0
 46 36  1  0  0  0  0
 47 41  1  0  0  0  0
 48 47  1  0  0  0  0
 49 47  1  0  0  0  0
M  END
>  <minimizedAffinity>
-6.74241972

$$$$

 OpenBabel03242511483D

 49 52  0  0  0  0  0  0  0  0999 V2000
   36.1620   28.4790   37.0680 C   0  0  0  0  0  0  0  0  0  0  0  0
   36.5820   29.7050   37.6070 C   0  0  0  0  0  0  0  0  0  0  0  0
   37.2770   29.6440   38.8010 C   0  0  0  0  0  0  0  0  0  0  0  0
   37.5200   28.4540   39.3870 N   0  0  0  0  0  0  0  0  0  0  0  0
   37.0860   27.3110   38.8110 C   0  0  0  0  0  0  0  0  0  0  0  0
   36.4270   27.3080   37.6870 N   0  0  0  0  0  0  0  0  0  0  0  0
   35.6170   28.4990   36.1370 H   0  0  0  0  0  0  0  0  0  0  0  0
   36.3430   30.5920   37.0740 H   0  0  0  0  0  0  0  0  0  0  0  0
   37.3870   26.0430   39.5060 C   0  0  0  0  0  0  0  0  0  0  0  0
   36.9060   25.1570   39.0160 H   0  0  0  0  0  0  0  0  0  0  0  0
   38.4880   25.9130   39.4710 H   0  0  0  0  0  0  0  0  0  0  0  0
   36.9970   26.1750   40.9580 C   0  0  0  0  0  0  0  0  0  0  0  0
   36.6430   27.1980   41.2000 H   0  0  0  0  0  0  0  0  0  0  0  0
   36.1250   25.5120   41.1950 H   0  0  0  0  0  0  0  0  0  0  0  0
   38.0860   25.8110   41.8510 C   0  0  0  0  0  0  0  0  0  0  0  0
   38.6280   24.5710   42.0720 C   0  0  0  0  0  0  0  0  0  0  0  0
   39.6510   24.3360   42.9300 C   0  0  0  0  0  0  0  0  0  0  0  0
   40.1770   25.4050   43.6170 C   0  0  0  0  0  0  0  0  0  0  0  0
   39.6430   26.6520   43.4030 C   0  0  0  0  0  0  0  0  0  0  0  0
   38.6080   26.8670   42.5320 C   0  0  0  0  0  0  0  0  0  0  0  0
   38.1740   23.7530   41.5010 H   0  0  0  0  0  0  0  0  0  0  0  0
   39.9980   23.3200   43.0260 H   0  0  0  0  0  0  0  0  0  0  0  0
   41.0030   25.1570   44.2960 H   0  0  0  0  0  0  0  0  0  0  0  0
   40.1740   27.3900   44.0250 H   0  0  0  0  0  0  0  0  0  0  0  0
   37.4940   28.6970   43.6510 C   0  0  0  0  0  0  0  0  0  0  0  0
   36.8860   28.1970   44.6640 O   0  0  0  0  0  0  0  0  0  0  0  0
   38.2910   28.2700   42.5460 N   0  0  0  0  0  0  0  0  0  0  0  0
   37.1650   29.6920   43.9380 H   0  0  0  0  0  0  0  0  0  0  0  0
   38.5220   29.0650   41.9100 H   0  0  0  0  0  0  0  0  0  0  0  0
   37.7210   30.9460   39.3740 C   0  0  0  0  0  0  0  0  0  0  0  0
   36.9980   31.2780   40.1330 H   0  0  0  0  0  0  0  0  0  0  0  0
   37.7440   31.6650   38.5120 H   0  0  0  0  0  0  0  0  0  0  0  0
   39.1240   30.8590   39.9280 C   0  0  0  0  0  0  0  0  0  0  0  0
   39.1050   31.4160   40.8960 H   0  0  0  0  0  0  0  0  0  0  0  0
   39.3500   29.8040   40.1230 H   0  0  0  0  0  0  0  0  0  0  0  0
   40.0290   31.4980   38.9890 N   0  0  0  0  0  0  0  0  0  0  0  0
   40.4920   30.8530   37.8850 C   0  0  0  0  0  0  0  0  0  0  0  0
   40.2530   29.8370   37.5910 H   0  0  0  0  0  0  0  0  0  0  0  0
   41.2990   31.7080   37.2290 N   0  0  0  0  0  0  0  0  0  0  0  0
   41.3350   32.8770   37.9230 C   0  0  0  0  0  0  0  0  0  0  0  0
   41.9450   34.1100   37.8020 C   0  0  0  0  0  0  0  0  0  0  0  0
   41.7560   35.0870   38.7080 N   0  0  0  0  0  0  0  0  0  0  0  0
   40.9480   34.8960   39.7910 C   0  0  0  0  0  0  0  0  0  0  0  0
   40.8810   35.7600   40.4410 H   0  0  0  0  0  0  0  0  0  0  0  0
   40.3160   33.6990   39.9660 N   0  0  0  0  0  0  0  0  0  0  0  0
   40.5230   32.7490   39.0520 C   0  0  0  0  0  0  0  0  0  0  0  0
   42.7840   34.2960   36.6690 N   0  0  0  0  0  0  0  0  0  0  0  0
   43.2340   33.4910   36.1800 H   0  0  0  0  0  0  0  0  0  0  0  0
   43.0760   35.1650   36.1710 H   0  0  0  0  0  0  0  0  0  0  0  0
  1  2  2  0  0  0  0
  1  6  1  0  0  0  0
  2  3  1  0  0  0  0
  3 30  1  0  0  0  0
  3  4  2  0  0  0  0
  5  4  1  0  0  0  0
  5  9  1  0  0  0  0
  6  5  2  0  0  0  0
  7  1  1  0  0  0  0
  8  2  1  0  0  0  0
  9 12  1  0  0  0  0
 10  9  1  0  0  0  0
 11  9  1  0  0  0  0
 12 14  1  0  0  0  0
 12 13  1  0  0  0  0
 12 15  1  0  0  0  0
 15 16  2  0  0  0  0
 15 20  1  0  0  0  0
 16 17  1  0  0  0  0
 17 22  1  0  0  0  0
 17 18  2  0  0  0  0
 18 23  1  0  0  0  0
 19 18  1  0  0  0  0
 19 24  1  0  0  0  0
 20 27  1  0  0  0  0
 20 19  2  0  0  0  0
 21 16  1  0  0  0  0
 25 28  1  0  0  0  0
 25 26  2  0  0  0  0
 27 25  1  0  0  0  0
 29 27  1  0  0  0  0
 30 33  1  0  0  0  0
 30 31  1  0  0  0  0
 32 30  1  0  0  0  0
 33 35  1  0  0  0  0
 33 34  1  0  0  0  0
 36 46  1  0  0  0  0
 36 33  1  0  0  0  0
 37 36  1  0  0  0  0
 38 37  1  0  0  0  0
 39 37  2  0  0  0  0
 39 40  1  0  0  0  0
 40 46  1  0  0  0  0
 41 40  2  0  0  0  0
 41 42  1  0  0  0  0
 42 43  2  0  0  0  0
 43 45  1  0  0  0  0
 43 44  1  0  0  0  0
 46 45  2  0  0  0  0
 47 41  1  0  0  0  0
 48 47  1  0  0  0  0
 49 47  1  0  0  0  0
M  END
>  <minimizedAffinity>
-6.51537561

$$$$

 OpenBabel03242511483D

 49 52  0  0  0  0  0  0  0  0999 V2000
   36.1250   28.1300   39.0470 C   0  0  0  0  0  0  0  0  0  0  0  0
   36.3750   29.4900   38.8030 C   0  0  0  0  0  0  0  0  0  0  0  0
   36.7110   30.2590   39.9020 C   0  0  0  0  0  0  0  0  0  0  0  0
   36.7870   29.6990   41.1270 N   0  0  0  0  0  0  0  0  0  0  0  0
   36.5330   28.3820   41.2900 C   0  0  0  0  0  0  0  0  0  0  0  0
   36.2120   27.6090   40.2910 N   0  0  0  0  0  0  0  0  0  0  0  0
   35.8600   27.5090   38.2060 H   0  0  0  0  0  0  0  0  0  0  0  0
   36.2910   29.8410   37.8040 H   0  0  0  0  0  0  0  0  0  0  0  0
   36.6340   27.8340   42.6570 C   0  0  0  0  0  0  0  0  0  0  0  0
   37.2790   28.4600   43.3270 H   0  0  0  0  0  0  0  0  0  0  0  0
   35.6050   27.8170   43.0710 H   0  0  0  0  0  0  0  0  0  0  0  0
   37.1090   26.4040   42.5800 C   0  0  0  0  0  0  0  0  0  0  0  0
   36.6230   25.7640   43.3440 H   0  0  0  0  0  0  0  0  0  0  0  0
   36.8170   25.9430   41.6010 H   0  0  0  0  0  0  0  0  0  0  0  0
   38.5550   26.3020   42.7040 C   0  0  0  0  0  0  0  0  0  0  0  0
   39.3380   26.5910   43.7930 C   0  0  0  0  0  0  0  0  0  0  0  0
   40.6870   26.4570   43.8080 C   0  0  0  0  0  0  0  0  0  0  0  0
   41.3060   26.0050   42.6650 C   0  0  0  0  0  0  0  0  0  0  0  0
   40.5310   25.7120   41.5690 C   0  0  0  0  0  0  0  0  0  0  0  0
   39.1690   25.8550   41.5760 C   0  0  0  0  0  0  0  0  0  0  0  0
   38.7980   26.9470   44.6770 H   0  0  0  0  0  0  0  0  0  0  0  0
   41.2040   26.7140   44.7190 H   0  0  0  0  0  0  0  0  0  0  0  0
   42.3980   25.9160   42.7340 H   0  0  0  0  0  0  0  0  0  0  0  0
   41.1760   25.3660   40.7460 H   0  0  0  0  0  0  0  0  0  0  0  0
   38.3250   24.0880   40.1570 C   0  0  0  0  0  0  0  0  0  0  0  0
   38.3710   23.0060   40.8450 O   0  0  0  0  0  0  0  0  0  0  0  0
   38.6700   25.4690   40.2820 N   0  0  0  0  0  0  0  0  0  0  0  0
   37.8760   23.5490   39.3280 H   0  0  0  0  0  0  0  0  0  0  0  0
   38.5000   25.9880   39.3940 H   0  0  0  0  0  0  0  0  0  0  0  0
   36.9750   31.7020   39.6430 C   0  0  0  0  0  0  0  0  0  0  0  0
   36.0250   32.2570   39.6620 H   0  0  0  0  0  0  0  0  0  0  0  0
   37.4360   31.7480   38.6210 H   0  0  0  0  0  0  0  0  0  0  0  0
   37.9810   32.2670   40.6180 C   0  0  0  0  0  0  0  0  0  0  0  0
   37.4730   33.1270   41.1180 H   0  0  0  0  0  0  0  0  0  0  0  0
   38.2040   31.4950   41.3650 H   0  0  0  0  0  0  0  0  0  0  0  0
   39.1390   32.7240   39.8700 N   0  0  0  0  0  0  0  0  0  0  0  0
   39.8620   31.8860   39.0810 C   0  0  0  0  0  0  0  0  0  0  0  0
   39.6690   30.8300   38.9260 H   0  0  0  0  0  0  0  0  0  0  0  0
   40.8560   32.6080   38.5310 N   0  0  0  0  0  0  0  0  0  0  0  0
   40.7490   33.8880   38.9780 C   0  0  0  0  0  0  0  0  0  0  0  0
   41.4220   35.0820   38.8070 C   0  0  0  0  0  0  0  0  0  0  0  0
   41.0330   36.2120   39.4250 N   0  0  0  0  0  0  0  0  0  0  0  0
   39.9470   36.2220   40.2530 C   0  0  0  0  0  0  0  0  0  0  0  0
   39.7400   37.1930   40.6860 H   0  0  0  0  0  0  0  0  0  0  0  0
   39.2400   35.0740   40.4620 N   0  0  0  0  0  0  0  0  0  0  0  0
   39.6510   33.9700   39.8360 C   0  0  0  0  0  0  0  0  0  0  0  0
   42.5510   35.0570   37.9420 N   0  0  0  0  0  0  0  0  0  0  0  0
   43.0830   34.1780   37.7570 H   0  0  0  0  0  0  0  0  0  0  0  0
   43.0080   35.8180   37.3930 H   0  0  0  0  0  0  0  0  0  0  0  0
  1  6  1  0  0  0  0
  2  1  2  0  0  0  0
  2  3  1  0  0  0  0
  3  4  2  0  0  0  0
  4  5  1  0  0  0  0
  5  9  1  0  0  0  0
  6  5  2  0  0  0  0
  7  1  1  0  0  0  0
  8  2  1  0  0  0  0
  9 11  1  0  0  0  0
  9 10  1  0  0  0  0
 12  9  1  0  0  0  0
 12 15  1  0  0  0  0
 12 13  1  0  0  0  0
 14 12  1  0  0  0  0
 15 16  1  0  0  0  0
 16 17  2  0  0  0  0
 16 21  1  0  0  0  0
 17 22  1  0  0  0  0
 18 23  1  0  0  0  0
 18 17  1  0  0  0  0
 19 20  1  0  0  0  0
 19 18  2  0  0  0  0
 20 15  2  0  0  0  0
 24 19  1  0  0  0  0
 25 27  1  0  0  0  0
 25 26  2  0  0  0  0
 27 20  1  0  0  0  0
 28 25  1  0  0  0  0
 29 27  1  0  0  0  0
 30 31  1  0  0  0  0
 30  3  1  0  0  0  0
 30 33  1  0  0  0  0
 32 30  1  0  0  0  0
 33 34  1  0  0  0  0
 33 35  1  0  0  0  0
 36 33  1  0  0  0  0
 37 36  1  0  0  0  0
 38 37  1  0  0  0  0
 39 40  1  0  0  0  0
 39 37  2  0  0  0  0
 40 46  1  0  0  0  0
 41 40  2  0  0  0  0
 41 42  1  0  0  0  0
 42 43  2  0  0  0  0
 43 45  1  0  0  0  0
 43 44  1  0  0  0  0
 46 36  1  0  0  0  0
 46 45  2  0  0  0  0
 47 41  1  0  0  0  0
 48 47  1  0  0  0  0
 49 47  1  0  0  0  0
M  END
>  <minimizedAffinity>
-6.4374876

$$$$

 OpenBabel03242511483D

 49 52  0  0  0  0  0  0  0  0999 V2000
   36.7110   30.9770   38.2430 C   0  0  0  0  0  0  0  0  0  0  0  0
   36.4350   30.1040   39.3080 C   0  0  0  0  0  0  0  0  0  0  0  0
   36.7400   30.5660   40.5750 C   0  0  0  0  0  0  0  0  0  0  0  0
   37.2710   31.7940   40.7420 N   0  0  0  0  0  0  0  0  0  0  0  0
   37.5110   32.5840   39.6710 C   0  0  0  0  0  0  0  0  0  0  0  0
   37.2440   32.2000   38.4540 N   0  0  0  0  0  0  0  0  0  0  0  0
   36.4820   30.6400   37.2450 H   0  0  0  0  0  0  0  0  0  0  0  0
   36.0160   29.1550   39.0780 H   0  0  0  0  0  0  0  0  0  0  0  0
   38.0940   33.9160   39.9250 C   0  0  0  0  0  0  0  0  0  0  0  0
   38.0620   34.5810   39.0230 H   0  0  0  0  0  0  0  0  0  0  0  0
   37.4890   34.3810   40.7300 H   0  0  0  0  0  0  0  0  0  0  0  0
   39.4950   33.7450   40.4600 C   0  0  0  0  0  0  0  0  0  0  0  0
   39.7390   34.5040   41.2300 H   0  0  0  0  0  0  0  0  0  0  0  0
   39.5980   32.7630   40.9900 H   0  0  0  0  0  0  0  0  0  0  0  0
   40.4920   33.7850   39.4010 C   0  0  0  0  0  0  0  0  0  0  0  0
   40.7900   32.8180   38.4760 C   0  0  0  0  0  0  0  0  0  0  0  0
   41.7430   32.9550   37.5210 C   0  0  0  0  0  0  0  0  0  0  0  0
   42.4510   34.1340   37.4790 C   0  0  0  0  0  0  0  0  0  0  0  0
   42.1610   35.1100   38.4010 C   0  0  0  0  0  0  0  0  0  0  0  0
   41.1930   34.9490   39.3570 C   0  0  0  0  0  0  0  0  0  0  0  0
   40.1980   31.8990   38.5520 H   0  0  0  0  0  0  0  0  0  0  0  0
   41.8940   32.1290   36.8440 H   0  0  0  0  0  0  0  0  0  0  0  0
   43.2080   34.1910   36.6860 H   0  0  0  0  0  0  0  0  0  0  0  0
   42.8110   35.9810   38.2300 H   0  0  0  0  0  0  0  0  0  0  0  0
   41.9580   36.1200   41.3300 C   0  0  0  0  0  0  0  0  0  0  0  0
   42.7160   35.3080   41.9720 O   0  0  0  0  0  0  0  0  0  0  0  0
   41.1460   36.1460   40.1550 N   0  0  0  0  0  0  0  0  0  0  0  0
   42.1540   36.8950   42.0650 H   0  0  0  0  0  0  0  0  0  0  0  0
   40.6360   37.0520   40.0620 H   0  0  0  0  0  0  0  0  0  0  0  0
   36.4480   29.6390   41.7040 C   0  0  0  0  0  0  0  0  0  0  0  0
   35.6170   30.0410   42.3030 H   0  0  0  0  0  0  0  0  0  0  0  0
   37.3890   29.5990   42.3150 H   0  0  0  0  0  0  0  0  0  0  0  0
   36.1670   28.2380   41.2140 C   0  0  0  0  0  0  0  0  0  0  0  0
   35.1230   28.0060   41.5360 H   0  0  0  0  0  0  0  0  0  0  0  0
   36.2150   28.2430   40.1190 H   0  0  0  0  0  0  0  0  0  0  0  0
   37.1100   27.3330   41.8480 N   0  0  0  0  0  0  0  0  0  0  0  0
   37.8890   27.7220   42.8920 C   0  0  0  0  0  0  0  0  0  0  0  0
   37.8990   28.7050   43.3500 H   0  0  0  0  0  0  0  0  0  0  0  0
   38.6430   26.6650   43.2470 N   0  0  0  0  0  0  0  0  0  0  0  0
   38.3310   25.6260   42.4280 C   0  0  0  0  0  0  0  0  0  0  0  0
   38.7210   24.3110   42.2630 C   0  0  0  0  0  0  0  0  0  0  0  0
   38.1860   23.5250   41.3110 N   0  0  0  0  0  0  0  0  0  0  0  0
   37.2270   24.0000   40.4640 C   0  0  0  0  0  0  0  0  0  0  0  0
   36.8790   23.2680   39.7460 H   0  0  0  0  0  0  0  0  0  0  0  0
   36.7990   25.2920   40.5770 N   0  0  0  0  0  0  0  0  0  0  0  0
   37.3490   26.0460   41.5290 C   0  0  0  0  0  0  0  0  0  0  0  0
   39.7200   23.8290   43.1530 N   0  0  0  0  0  0  0  0  0  0  0  0
   40.3950   24.4710   43.6240 H   0  0  0  0  0  0  0  0  0  0  0  0
   39.9440   22.8580   43.4680 H   0  0  0  0  0  0  0  0  0  0  0  0
  1  6  2  0  0  0  0
  1  2  1  0  0  0  0
  2  3  2  0  0  0  0
  3  4  1  0  0  0  0
  3 30  1  0  0  0  0
  5  9  1  0  0  0  0
  5  4  2  0  0  0  0
  6  5  1  0  0  0  0
  7  1  1  0  0  0  0
  8  2  1  0  0  0  0
  9 12  1  0  0  0  0
  9 11  1  0  0  0  0
 10  9  1  0  0  0  0
 12 14  1  0  0  0  0
 12 13  1  0  0  0  0
 15 12  1  0  0  0  0
 16 21  1  0  0  0  0
 16 15  2  0  0  0  0
 17 16  1  0  0  0  0
 18 17  2  0  0  0  0
 18 19  1  0  0  0  0
 19 20  2  0  0  0  0
 20 15  1  0  0  0  0
 20 27  1  0  0  0  0
 22 17  1  0  0  0  0
 23 18  1  0  0  0  0
 24 19  1  0  0  0  0
 25 26  2  0  0  0  0
 25 28  1  0  0  0  0
 27 25  1  0  0  0  0
 29 27  1  0  0  0  0
 30 31  1  0  0  0  0
 30 32  1  0  0  0  0
 33 34  1  0  0  0  0
 33 30  1  0  0  0  0
 33 36  1  0  0  0  0
 35 33  1  0  0  0  0
 36 37  1  0  0  0  0
 37 39  2  0  0  0  0
 37 38  1  0  0  0  0
 40 39  1  0  0  0  0
 41 40  1  0  0  0  0
 41 47  1  0  0  0  0
 42 41  2  0  0  0  0
 43 45  2  0  0  0  0
 43 42  1  0  0  0  0
 44 43  1  0  0  0  0
 45 46  1  0  0  0  0
 46 36  1  0  0  0  0
 46 40  2  0  0  0  0
 47 49  1  0  0  0  0
 47 48  1  0  0  0  0
M  END
>  <minimizedAffinity>
-6.43597794

$$$$

 OpenBabel03242511483D

 49 52  0  0  0  0  0  0  0  0999 V2000
   35.5630   28.7240   40.5720 C   0  0  0  0  0  0  0  0  0  0  0  0
   35.7940   29.8970   39.8340 C   0  0  0  0  0  0  0  0  0  0  0  0
   36.7570   30.7550   40.3320 C   0  0  0  0  0  0  0  0  0  0  0  0
   37.4180   30.4510   41.4670 N   0  0  0  0  0  0  0  0  0  0  0  0
   37.1450   29.3040   42.1280 C   0  0  0  0  0  0  0  0  0  0  0  0
   36.2490   28.4580   41.7050 N   0  0  0  0  0  0  0  0  0  0  0  0
   34.8160   28.0390   40.2040 H   0  0  0  0  0  0  0  0  0  0  0  0
   35.2230   30.0510   38.9520 H   0  0  0  0  0  0  0  0  0  0  0  0
   37.9060   29.0330   43.3630 C   0  0  0  0  0  0  0  0  0  0  0  0
   38.6590   29.8310   43.5920 H   0  0  0  0  0  0  0  0  0  0  0  0
   37.1690   28.9940   44.1910 H   0  0  0  0  0  0  0  0  0  0  0  0
   38.5380   27.6660   43.2610 C   0  0  0  0  0  0  0  0  0  0  0  0
   38.1970   26.9910   44.0730 H   0  0  0  0  0  0  0  0  0  0  0  0
   38.2190   27.1530   42.3170 H   0  0  0  0  0  0  0  0  0  0  0  0
   39.9900   27.7340   43.2610 C   0  0  0  0  0  0  0  0  0  0  0  0
   40.7930   28.7880   42.9070 C   0  0  0  0  0  0  0  0  0  0  0  0
   42.1480   28.7510   42.9450 C   0  0  0  0  0  0  0  0  0  0  0  0
   42.7520   27.5870   43.3640 C   0  0  0  0  0  0  0  0  0  0  0  0
   41.9580   26.5250   43.7210 C   0  0  0  0  0  0  0  0  0  0  0  0
   40.5900   26.5850   43.6740 C   0  0  0  0  0  0  0  0  0  0  0  0
   40.2640   29.6900   42.5810 H   0  0  0  0  0  0  0  0  0  0  0  0
   42.6800   29.6390   42.6440 H   0  0  0  0  0  0  0  0  0  0  0  0
   43.8490   27.6140   43.3750 H   0  0  0  0  0  0  0  0  0  0  0  0
   42.5920   25.6800   44.0290 H   0  0  0  0  0  0  0  0  0  0  0  0
   39.7350   24.4100   43.0530 C   0  0  0  0  0  0  0  0  0  0  0  0
   39.6930   24.3810   41.7710 O   0  0  0  0  0  0  0  0  0  0  0  0
   40.0690   25.3150   44.1070 N   0  0  0  0  0  0  0  0  0  0  0  0
   39.3860   23.3820   43.0940 H   0  0  0  0  0  0  0  0  0  0  0  0
   39.8760   24.8990   45.0440 H   0  0  0  0  0  0  0  0  0  0  0  0
   37.0010   31.9990   39.5500 C   0  0  0  0  0  0  0  0  0  0  0  0
   36.0770   32.5960   39.5120 H   0  0  0  0  0  0  0  0  0  0  0  0
   37.2910   31.6590   38.5210 H   0  0  0  0  0  0  0  0  0  0  0  0
   38.1610   32.7890   40.1100 C   0  0  0  0  0  0  0  0  0  0  0  0
   37.7960   33.8400   40.2070 H   0  0  0  0  0  0  0  0  0  0  0  0
   38.3950   32.3940   41.1050 H   0  0  0  0  0  0  0  0  0  0  0  0
   39.2630   32.7170   39.1660 N   0  0  0  0  0  0  0  0  0  0  0  0
   39.1700   32.0140   38.0060 C   0  0  0  0  0  0  0  0  0  0  0  0
   38.3070   31.4520   37.6660 H   0  0  0  0  0  0  0  0  0  0  0  0
   40.3450   32.1450   37.3620 N   0  0  0  0  0  0  0  0  0  0  0  0
   41.1610   32.9260   38.1190 C   0  0  0  0  0  0  0  0  0  0  0  0
   42.4450   33.4280   38.0400 C   0  0  0  0  0  0  0  0  0  0  0  0
   42.9660   34.2030   39.0090 N   0  0  0  0  0  0  0  0  0  0  0  0
   42.2380   34.5290   40.1160 C   0  0  0  0  0  0  0  0  0  0  0  0
   42.7710   35.1580   40.8180 H   0  0  0  0  0  0  0  0  0  0  0  0
   40.9620   34.0630   40.2530 N   0  0  0  0  0  0  0  0  0  0  0  0
   40.4740   33.2960   39.2770 C   0  0  0  0  0  0  0  0  0  0  0  0
   43.1920   33.0810   36.8800 N   0  0  0  0  0  0  0  0  0  0  0  0
   42.9800   32.2240   36.3240 H   0  0  0  0  0  0  0  0  0  0  0  0
   43.9980   33.5590   36.4190 H   0  0  0  0  0  0  0  0  0  0  0  0
  1  6  1  0  0  0  0
  2  3  1  0  0  0  0
  2  1  2  0  0  0  0
  3  4  2  0  0  0  0
  4  5  1  0  0  0  0
  5  9  1  0  0  0  0
  6  5  2  0  0  0  0
  7  1  1  0  0  0  0
  8  2  1  0  0  0  0
  9 10  1  0  0  0  0
  9 11  1  0  0  0  0
 12 15  1  0  0  0  0
 12  9  1  0  0  0  0
 12 13  1  0  0  0  0
 14 12  1  0  0  0  0
 15 20  1  0  0  0  0
 16 17  1  0  0  0  0
 16 15  2  0  0  0  0
 17 18  2  0  0  0  0
 18 23  1  0  0  0  0
 18 19  1  0  0  0  0
 19 24  1  0  0  0  0
 20 19  2  0  0  0  0
 20 27  1  0  0  0  0
 21 16  1  0  0  0  0
 22 17  1  0  0  0  0
 25 28  1  0  0  0  0
 25 27  1  0  0  0  0
 26 25  2  0  0  0  0
 27 29  1  0  0  0  0
 30 33  1  0  0  0  0
 30  3  1  0  0  0  0
 31 30  1  0  0  0  0
 32 30  1  0  0  0  0
 33 34  1  0  0  0  0
 33 35  1  0  0  0  0
 36 46  1  0  0  0  0
 36 33  1  0  0  0  0
 37 36  1  0  0  0  0
 38 37  1  0  0  0  0
 39 37  2  0  0  0  0
 39 40  1  0  0  0  0
 40 46  1  0  0  0  0
 41 40  2  0  0  0  0
 41 42  1  0  0  0  0
 42 43  2  0  0  0  0
 43 45  1  0  0  0  0
 43 44  1  0  0  0  0
 46 45  2  0  0  0  0
 47 41  1  0  0  0  0
 48 47  1  0  0  0  0
 49 47  1  0  0  0  0
M  END
>  <minimizedAffinity>
-6.38845539

$$$$

 OpenBabel03242511483D

 49 52  0  0  0  0  0  0  0  0999 V2000
   36.7430   29.7800   36.6570 C   0  0  0  0  0  0  0  0  0  0  0  0
   36.5500   28.6630   37.4870 C   0  0  0  0  0  0  0  0  0  0  0  0
   36.8970   28.8190   38.8170 C   0  0  0  0  0  0  0  0  0  0  0  0
   37.3890   29.9950   39.2580 N   0  0  0  0  0  0  0  0  0  0  0  0
   37.5480   31.0300   38.4030 C   0  0  0  0  0  0  0  0  0  0  0  0
   37.2390   30.9400   37.1400 N   0  0  0  0  0  0  0  0  0  0  0  0
   36.4810   29.6820   35.6160 H   0  0  0  0  0  0  0  0  0  0  0  0
   36.1570   27.7790   37.0490 H   0  0  0  0  0  0  0  0  0  0  0  0
   38.0920   32.2880   38.9520 C   0  0  0  0  0  0  0  0  0  0  0  0
   38.1060   33.1180   38.1990 H   0  0  0  0  0  0  0  0  0  0  0  0
   37.4300   32.5820   39.7920 H   0  0  0  0  0  0  0  0  0  0  0  0
   39.4600   32.0190   39.5310 C   0  0  0  0  0  0  0  0  0  0  0  0
   39.4890   32.2010   40.6250 H   0  0  0  0  0  0  0  0  0  0  0  0
   39.7310   30.9380   39.4190 H   0  0  0  0  0  0  0  0  0  0  0  0
   40.4930   32.8070   38.8780 C   0  0  0  0  0  0  0  0  0  0  0  0
   41.1230   32.5630   37.6850 C   0  0  0  0  0  0  0  0  0  0  0  0
   42.0790   33.3670   37.1580 C   0  0  0  0  0  0  0  0  0  0  0  0
   42.4360   34.4940   37.8620 C   0  0  0  0  0  0  0  0  0  0  0  0
   41.8120   34.7490   39.0580 C   0  0  0  0  0  0  0  0  0  0  0  0
   40.8490   33.9220   39.5720 C   0  0  0  0  0  0  0  0  0  0  0  0
   40.8030   31.6540   37.1640 H   0  0  0  0  0  0  0  0  0  0  0  0
   42.5080   33.0780   36.2120 H   0  0  0  0  0  0  0  0  0  0  0  0
   43.2140   35.1080   37.3880 H   0  0  0  0  0  0  0  0  0  0  0  0
   42.2100   35.6810   39.4890 H   0  0  0  0  0  0  0  0  0  0  0  0
   39.3340   35.4100   40.7290 C   0  0  0  0  0  0  0  0  0  0  0  0
   38.6350   36.0000   39.8290 O   0  0  0  0  0  0  0  0  0  0  0  0
   40.4060   34.4710   40.8270 N   0  0  0  0  0  0  0  0  0  0  0  0
   38.7760   35.9230   41.5070 H   0  0  0  0  0  0  0  0  0  0  0  0
   40.7030   34.3310   41.8170 H   0  0  0  0  0  0  0  0  0  0  0  0
   36.6930   27.6350   39.6960 C   0  0  0  0  0  0  0  0  0  0  0  0
   37.6050   27.0180   39.6960 H   0  0  0  0  0  0  0  0  0  0  0  0
   35.8360   27.0670   39.2480 H   0  0  0  0  0  0  0  0  0  0  0  0
   36.2860   28.0420   41.0930 C   0  0  0  0  0  0  0  0  0  0  0  0
   35.9820   29.1140   41.0220 H   0  0  0  0  0  0  0  0  0  0  0  0
   35.4190   27.4390   41.3860 H   0  0  0  0  0  0  0  0  0  0  0  0
   37.4370   27.8960   41.9670 N   0  0  0  0  0  0  0  0  0  0  0  0
   38.0320   28.9660   42.5560 C   0  0  0  0  0  0  0  0  0  0  0  0
   37.7340   30.0030   42.4480 H   0  0  0  0  0  0  0  0  0  0  0  0
   39.0570   28.5010   43.2950 N   0  0  0  0  0  0  0  0  0  0  0  0
   39.0950   27.1480   43.1640 C   0  0  0  0  0  0  0  0  0  0  0  0
   39.8650   26.1040   43.6380 C   0  0  0  0  0  0  0  0  0  0  0  0
   39.6190   24.8260   43.2950 N   0  0  0  0  0  0  0  0  0  0  0  0
   38.5880   24.5090   42.4580 C   0  0  0  0  0  0  0  0  0  0  0  0
   38.4970   23.4480   42.2620 H   0  0  0  0  0  0  0  0  0  0  0  0
   37.7900   25.4970   41.9570 N   0  0  0  0  0  0  0  0  0  0  0  0
   38.0600   26.7530   42.3140 C   0  0  0  0  0  0  0  0  0  0  0  0
   40.9360   26.4480   44.5090 N   0  0  0  0  0  0  0  0  0  0  0  0
   41.3720   27.3960   44.4960 H   0  0  0  0  0  0  0  0  0  0  0  0
   41.4300   25.8880   45.2380 H   0  0  0  0  0  0  0  0  0  0  0  0
  1  6  2  0  0  0  0
  1  2  1  0  0  0  0
  2  3  2  0  0  0  0
  3  4  1  0  0  0  0
  3 30  1  0  0  0  0
  5  9  1  0  0  0  0
  5  4  2  0  0  0  0
  6  5  1  0  0  0  0
  7  1  1  0  0  0  0
  8  2  1  0  0  0  0
  9 12  1  0  0  0  0
  9 11  1  0  0  0  0
 10  9  1  0  0  0  0
 12 13  1  0  0  0  0
 14 12  1  0  0  0  0
 15 12  1  0  0  0  0
 15 20  1  0  0  0  0
 16 15  2  0  0  0  0
 17 16  1  0  0  0  0
 17 18  2  0  0  0  0
 18 19  1  0  0  0  0
 19 24  1  0  0  0  0
 19 20  2  0  0  0  0
 20 27  1  0  0  0  0
 21 16  1  0  0  0  0
 22 17  1  0  0  0  0
 23 18  1  0  0  0  0
 25 27  1  0  0  0  0
 25 28  1  0  0  0  0
 26 25  2  0  0  0  0
 27 29  1  0  0  0  0
 30 33  1  0  0  0  0
 31 30  1  0  0  0  0
 32 30  1  0  0  0  0
 33 35  1  0  0  0  0
 33 36  1  0  0  0  0
 34 33  1  0  0  0  0
 36 46  1  0  0  0  0
 36 37  1  0  0  0  0
 37 39  2  0  0  0  0
 38 37  1  0  0  0  0
 40 39  1  0  0  0  0
 40 41  1  0  0  0  0
 41 47  1  0  0  0  0
 42 41  2  0  0  0  0
 43 42  1  0  0  0  0
 44 43  1  0  0  0  0
 45 46  1  0  0  0  0
 45 43  2  0  0  0  0
 46 40  2  0  0  0  0
 47 49  1  0  0  0  0
 48 47  1  0  0  0  0
M  END
>  <minimizedAffinity>
-6.33652925

$$$$
