
 OpenBabel03252503433D

 39 42  0  0  1  0  0  0  0  0999 V2000
   45.2040   34.6640   44.6520 C   0  0  0  0  0  0  0  0  0  0  0  0
   46.1470   34.3840   43.6450 C   0  0  0  0  0  0  0  0  0  0  0  0
   47.0070   33.2980   43.8790 C   0  0  0  0  0  0  0  0  0  0  0  0
   46.8980   32.5920   45.0210 N   0  0  0  0  0  0  0  0  0  0  0  0
   45.9860   32.8900   45.9590 C   0  0  0  0  0  0  0  0  0  0  0  0
   45.1230   33.9320   45.7890 N   0  0  0  0  0  0  0  0  0  0  0  0
   44.4840   35.4660   44.6050 H   0  0  0  0  0  0  0  0  0  0  0  0
   47.7290   33.0890   43.1000 H   0  0  0  0  0  0  0  0  0  0  0  0
   47.3670   31.7380   47.6790 C   0  0  2  0  0  0  0  0  0  0  0  0
   45.9500   32.0460   47.1450 C   0  0  1  0  0  0  0  0  0  0  0  0
   45.3980   32.6190   48.2570 O   0  0  0  0  0  0  0  0  0  0  0  0
   45.7390   31.8460   49.3300 C   0  0  0  0  0  0  0  0  0  0  0  0
   46.9300   30.9970   48.9550 C   0  0  2  0  0  0  0  0  0  0  0  0
   47.9170   31.0940   46.9930 H   0  0  0  0  0  0  0  0  0  0  0  0
   45.5030   31.0380   46.9890 H   0  0  0  0  0  0  0  0  0  0  0  0
   46.1030   32.5250   50.1510 H   0  0  0  0  0  0  0  0  0  0  0  0
   44.9000   31.2820   49.7670 H   0  0  0  0  0  0  0  0  0  0  0  0
   46.5990   29.9810   48.7060 H   0  0  0  0  0  0  0  0  0  0  0  0
   47.9530   32.8940   48.0830 O   0  0  0  0  0  0  0  0  0  0  0  0
   48.8210   32.9870   47.5780 H   0  0  0  0  0  0  0  0  0  0  0  0
   47.9220   30.9470   49.9040 O   0  0  0  0  0  0  0  0  0  0  0  0
   48.4230   30.0810   49.7950 H   0  0  0  0  0  0  0  0  0  0  0  0
   46.1420   35.2400   42.4630 C   0  0  0  0  0  0  0  0  0  0  0  0
   47.1850   35.4700   42.1610 H   0  0  0  0  0  0  0  0  0  0  0  0
   45.6890   36.2110   42.7090 H   0  0  0  0  0  0  0  0  0  0  0  0
   45.3690   34.7010   41.3570 N   0  0  0  0  0  0  0  0  0  0  0  0
   45.9310   33.9120   40.4180 C   0  0  0  0  0  0  0  0  0  0  0  0
   46.9670   33.5830   40.3500 H   0  0  0  0  0  0  0  0  0  0  0  0
   45.0050   33.5420   39.4980 N   0  0  0  0  0  0  0  0  0  0  0  0
   43.8230   34.1140   39.8660 C   0  0  0  0  0  0  0  0  0  0  0  0
   42.5200   34.1340   39.3690 C   0  0  0  0  0  0  0  0  0  0  0  0
   41.5760   34.8300   40.0180 N   0  0  0  0  0  0  0  0  0  0  0  0
   41.8630   35.5130   41.1420 C   0  0  0  0  0  0  0  0  0  0  0  0
   41.0040   36.0250   41.5520 H   0  0  0  0  0  0  0  0  0  0  0  0
   43.1000   35.5300   41.6670 N   0  0  0  0  0  0  0  0  0  0  0  0
   44.0680   34.8400   41.0370 C   0  0  0  0  0  0  0  0  0  0  0  0
   42.3630   33.3710   38.1790 N   0  0  0  0  0  0  0  0  0  0  0  0
   43.0340   33.4770   37.3740 H   0  0  0  0  0  0  0  0  0  0  0  0
   41.5770   32.6920   38.0870 H   0  0  0  0  0  0  0  0  0  0  0  0
  1  6  1  0  0  0  0
  2  3  1  0  0  0  0
  2  1  2  0  0  0  0
  3  4  2  0  0  0  0
  4  5  1  0  0  0  0
  5 10  1  0  0  0  0
  6  5  2  0  0  0  0
  7  1  1  0  0  0  0
  8  3  1  0  0  0  0
  9 14  1  6  0  0  0
  9 19  1  0  0  0  0
  9 13  1  0  0  0  0
 10 15  1  6  0  0  0
 10  9  1  0  0  0  0
 10 11  1  0  0  0  0
 11 12  1  0  0  0  0
 12 17  1  0  0  0  0
 12 16  1  0  0  0  0
 13 18  1  6  0  0  0
 13 12  1  0  0  0  0
 13 21  1  0  0  0  0
 20 19  1  0  0  0  0
 22 21  1  0  0  0  0
 23 25  1  0  0  0  0
 23  2  1  0  0  0  0
 24 23  1  0  0  0  0
 26 23  1  0  0  0  0
 27 26  1  0  0  0  0
 28 27  1  0  0  0  0
 29 30  1  0  0  0  0
 29 27  2  0  0  0  0
 30 36  1  0  0  0  0
 31 30  2  0  0  0  0
 31 32  1  0  0  0  0
 32 33  2  0  0  0  0
 33 34  1  0  0  0  0
 33 35  1  0  0  0  0
 36 26  1  0  0  0  0
 36 35  2  0  0  0  0
 37 31  1  0  0  0  0
 38 37  1  0  0  0  0
 39 37  1  0  0  0  0
M  END
>  <minimizedAffinity>
-6.73759556

>  <minimizedRMSD>
1.70725608

$$$$
