
 OpenBabel03242523363D

 24 26  0  0  0  0  0  0  0  0999 V2000
   44.5500   35.6400   45.0630 C   0  0  0  0  0  0  0  0  0  0  0  0
   44.2670   35.7090   43.6700 C   0  0  0  0  0  0  0  0  0  0  0  0
   44.6860   34.6270   42.8860 C   0  0  0  0  0  0  0  0  0  0  0  0
   45.3230   33.5880   43.4640 N   0  0  0  0  0  0  0  0  0  0  0  0
   45.5730   33.5610   44.7980 C   0  0  0  0  0  0  0  0  0  0  0  0
   45.1910   34.5760   45.5940 N   0  0  0  0  0  0  0  0  0  0  0  0
   44.1990   36.5050   45.5950 H   0  0  0  0  0  0  0  0  0  0  0  0
   43.7650   36.5260   43.2130 H   0  0  0  0  0  0  0  0  0  0  0  0
   46.2400   32.4960   45.4660 N   0  0  0  0  0  0  0  0  0  0  0  0
   47.0890   31.6420   44.8430 C   0  0  0  0  0  0  0  0  0  0  0  0
   47.3970   31.6130   43.7920 H   0  0  0  0  0  0  0  0  0  0  0  0
   47.5700   30.7400   45.7180 N   0  0  0  0  0  0  0  0  0  0  0  0
   47.0370   30.9980   46.9290 C   0  0  0  0  0  0  0  0  0  0  0  0
   47.1400   30.4340   48.2030 C   0  0  0  0  0  0  0  0  0  0  0  0
   46.4160   31.0030   49.2070 N   0  0  0  0  0  0  0  0  0  0  0  0
   45.6270   32.0680   48.9910 C   0  0  0  0  0  0  0  0  0  0  0  0
   45.0740   32.4690   49.8550 H   0  0  0  0  0  0  0  0  0  0  0  0
   45.5120   32.6280   47.7710 N   0  0  0  0  0  0  0  0  0  0  0  0
   46.2100   32.0960   46.7520 C   0  0  0  0  0  0  0  0  0  0  0  0
   47.9730   29.3250   48.3900 N   0  0  0  0  0  0  0  0  0  0  0  0
   48.8340   29.1080   48.9640 H   0  0  0  0  0  0  0  0  0  0  0  0
   47.6940   28.4900   47.8350 H   0  0  0  0  0  0  0  0  0  0  0  0
   44.3680   34.6330   41.1210 S   0  0  0  0  0  0  0  0  0  0  0  0
   43.8440   33.3820   40.7720 H   0  0  0  0  0  0  0  0  0  0  0  0
  1  6  1  0  0  0  0
  1  7  1  0  0  0  0
  2  1  2  0  0  0  0
  3  4  2  0  0  0  0
  3  2  1  0  0  0  0
  4  5  1  0  0  0  0
  5  9  1  0  0  0  0
  5  6  2  0  0  0  0
  8  2  1  0  0  0  0
  9 19  1  0  0  0  0
 10  9  1  0  0  0  0
 10 12  2  0  0  0  0
 11 10  1  0  0  0  0
 12 13  1  0  0  0  0
 13 14  1  0  0  0  0
 14 20  1  0  0  0  0
 14 15  2  0  0  0  0
 16 15  1  0  0  0  0
 16 17  1  0  0  0  0
 18 16  2  0  0  0  0
 19 13  2  0  0  0  0
 19 18  1  0  0  0  0
 20 21  1  0  0  0  0
 22 20  1  0  0  0  0
 23  3  1  0  0  0  0
 24 23  1  0  0  0  0
M  END
>  <minimizedAffinity>
-5.50202274

>  <minimizedRMSD>
2.27173829

$$$$
