
 OpenBabel03252504213D

 24 26  0  0  0  0  0  0  0  0999 V2000
   39.3070   26.8320   42.8500 C   0  0  0  0  0  0  0  0  0  0  0  0
   38.2800   27.2800   43.6800 C   0  0  0  0  0  0  0  0  0  0  0  0
   37.7170   28.5550   43.4300 C   0  0  0  0  0  0  0  0  0  0  0  0
   38.2290   29.2630   42.3800 N   0  0  0  0  0  0  0  0  0  0  0  0
   39.2230   28.7920   41.6030 C   0  0  0  0  0  0  0  0  0  0  0  0
   39.7600   27.5830   41.8340 N   0  0  0  0  0  0  0  0  0  0  0  0
   37.9010   26.6750   44.5100 H   0  0  0  0  0  0  0  0  0  0  0  0
   36.9320   28.8860   44.0720 H   0  0  0  0  0  0  0  0  0  0  0  0
   39.6950   29.6050   40.5250 N   0  0  0  0  0  0  0  0  0  0  0  0
   40.9820   29.8310   40.1930 C   0  0  0  0  0  0  0  0  0  0  0  0
   41.8810   29.4440   40.6750 H   0  0  0  0  0  0  0  0  0  0  0  0
   41.0020   30.6580   39.1110 N   0  0  0  0  0  0  0  0  0  0  0  0
   39.7280   30.9190   38.8060 C   0  0  0  0  0  0  0  0  0  0  0  0
   39.1150   31.6770   37.8310 C   0  0  0  0  0  0  0  0  0  0  0  0
   37.7980   31.7840   37.7280 N   0  0  0  0  0  0  0  0  0  0  0  0
   36.9650   31.1510   38.5800 C   0  0  0  0  0  0  0  0  0  0  0  0
   35.8850   31.1870   38.5640 H   0  0  0  0  0  0  0  0  0  0  0  0
   37.5630   30.4110   39.5320 N   0  0  0  0  0  0  0  0  0  0  0  0
   38.8800   30.2690   39.6800 C   0  0  0  0  0  0  0  0  0  0  0  0
   39.8660   32.3980   36.8660 N   0  0  0  0  0  0  0  0  0  0  0  0
   39.5920   32.2420   35.8610 H   0  0  0  0  0  0  0  0  0  0  0  0
   40.6290   33.0680   36.6850 H   0  0  0  0  0  0  0  0  0  0  0  0
   39.9490   25.1980   43.2560 S   0  0  0  0  0  0  0  0  0  0  0  0
   38.9380   24.2950   43.5820 H   0  0  0  0  0  0  0  0  0  0  0  0
  1 23  1  0  0  0  0
  1  2  1  0  0  0  0
  2  7  1  0  0  0  0
  3  2  2  0  0  0  0
  3  8  1  0  0  0  0
  4  3  1  0  0  0  0
  5  6  1  0  0  0  0
  5  4  2  0  0  0  0
  6  1  2  0  0  0  0
  9  5  1  0  0  0  0
 10  9  1  0  0  0  0
 10 11  1  0  0  0  0
 12 10  2  0  0  0  0
 13 12  1  0  0  0  0
 13 19  1  0  0  0  0
 14 13  2  0  0  0  0
 15 14  1  0  0  0  0
 15 16  2  0  0  0  0
 16 18  1  0  0  0  0
 17 16  1  0  0  0  0
 18 19  2  0  0  0  0
 19  9  1  0  0  0  0
 20 14  1  0  0  0  0
 21 20  1  0  0  0  0
 22 20  1  0  0  0  0
 23 24  1  0  0  0  0
M  END
>  <minimizedAffinity>
-5.06295204

$$$$

 OpenBabel03252504213D

 24 26  0  0  0  0  0  0  0  0999 V2000
   36.9320   25.2840   40.3760 C   0  0  0  0  0  0  0  0  0  0  0  0
   36.3980   24.8390   39.1680 C   0  0  0  0  0  0  0  0  0  0  0  0
   35.8760   25.7970   38.2650 C   0  0  0  0  0  0  0  0  0  0  0  0
   35.9340   27.1060   38.6500 N   0  0  0  0  0  0  0  0  0  0  0  0
   36.4590   27.4940   39.8280 C   0  0  0  0  0  0  0  0  0  0  0  0
   36.9560   26.5900   40.6880 N   0  0  0  0  0  0  0  0  0  0  0  0
   36.3740   23.7770   38.9020 H   0  0  0  0  0  0  0  0  0  0  0  0
   35.4710   25.4430   37.3440 H   0  0  0  0  0  0  0  0  0  0  0  0
   36.4770   28.8880   40.1470 N   0  0  0  0  0  0  0  0  0  0  0  0
   36.1410   29.4480   41.3260 C   0  0  0  0  0  0  0  0  0  0  0  0
   35.8010   28.9510   42.2360 H   0  0  0  0  0  0  0  0  0  0  0  0
   36.2940   30.7970   41.2140 N   0  0  0  0  0  0  0  0  0  0  0  0
   36.7200   31.0310   39.9700 C   0  0  0  0  0  0  0  0  0  0  0  0
   37.0460   32.1740   39.2720 C   0  0  0  0  0  0  0  0  0  0  0  0
   37.4550   32.1530   38.0110 N   0  0  0  0  0  0  0  0  0  0  0  0
   37.5780   30.9970   37.3250 C   0  0  0  0  0  0  0  0  0  0  0  0
   37.9030   30.8950   36.2990 H   0  0  0  0  0  0  0  0  0  0  0  0
   37.2600   29.8820   38.0050 N   0  0  0  0  0  0  0  0  0  0  0  0
   36.8440   29.8470   39.2720 C   0  0  0  0  0  0  0  0  0  0  0  0
   36.9640   33.4600   39.8670 N   0  0  0  0  0  0  0  0  0  0  0  0
   37.8230   34.0620   39.7810 H   0  0  0  0  0  0  0  0  0  0  0  0
   36.3910   34.1360   40.3950 H   0  0  0  0  0  0  0  0  0  0  0  0
   37.5680   23.9840   41.4480 S   0  0  0  0  0  0  0  0  0  0  0  0
   38.2800   23.0140   40.7440 H   0  0  0  0  0  0  0  0  0  0  0  0
  1  6  1  0  0  0  0
  1 23  1  0  0  0  0
  2  1  2  0  0  0  0
  3  4  2  0  0  0  0
  3  2  1  0  0  0  0
  4  5  1  0  0  0  0
  5  9  1  0  0  0  0
  5  6  2  0  0  0  0
  7  2  1  0  0  0  0
  8  3  1  0  0  0  0
  9 10  1  0  0  0  0
 10 11  1  0  0  0  0
 12 10  2  0  0  0  0
 13 12  1  0  0  0  0
 14 20  1  0  0  0  0
 14 13  1  0  0  0  0
 15 14  2  0  0  0  0
 16 18  2  0  0  0  0
 16 15  1  0  0  0  0
 17 16  1  0  0  0  0
 18 19  1  0  0  0  0
 19 13  2  0  0  0  0
 19  9  1  0  0  0  0
 20 22  1  0  0  0  0
 21 20  1  0  0  0  0
 24 23  1  0  0  0  0
M  END
>  <minimizedAffinity>
-5.02057123

$$$$

 OpenBabel03252504213D

 24 26  0  0  0  0  0  0  0  0999 V2000
   38.5660   26.3720   42.4870 C   0  0  0  0  0  0  0  0  0  0  0  0
   37.2280   26.3840   42.8770 C   0  0  0  0  0  0  0  0  0  0  0  0
   36.5780   27.6330   43.0280 C   0  0  0  0  0  0  0  0  0  0  0  0
   37.3220   28.7520   42.7770 N   0  0  0  0  0  0  0  0  0  0  0  0
   38.6140   28.6950   42.4020 C   0  0  0  0  0  0  0  0  0  0  0  0
   39.2350   27.5130   42.2570 N   0  0  0  0  0  0  0  0  0  0  0  0
   36.6710   25.4600   43.0660 H   0  0  0  0  0  0  0  0  0  0  0  0
   35.5540   27.6290   43.3270 H   0  0  0  0  0  0  0  0  0  0  0  0
   39.3130   29.9200   42.1610 N   0  0  0  0  0  0  0  0  0  0  0  0
   40.5550   30.2320   42.5800 C   0  0  0  0  0  0  0  0  0  0  0  0
   41.2420   29.6210   43.1680 H   0  0  0  0  0  0  0  0  0  0  0  0
   40.8480   31.4880   42.1430 N   0  0  0  0  0  0  0  0  0  0  0  0
   39.7780   31.9150   41.4650 C   0  0  0  0  0  0  0  0  0  0  0  0
   39.4740   33.0820   40.7980 C   0  0  0  0  0  0  0  0  0  0  0  0
   38.3150   33.2780   40.1860 N   0  0  0  0  0  0  0  0  0  0  0  0
   37.3490   32.3350   40.1780 C   0  0  0  0  0  0  0  0  0  0  0  0
   36.3810   32.4160   39.7050 H   0  0  0  0  0  0  0  0  0  0  0  0
   37.6450   31.1970   40.8290 N   0  0  0  0  0  0  0  0  0  0  0  0
   38.7930   30.9490   41.4600 C   0  0  0  0  0  0  0  0  0  0  0  0
   40.3950   34.1600   40.7240 N   0  0  0  0  0  0  0  0  0  0  0  0
   40.5820   34.5390   39.7600 H   0  0  0  0  0  0  0  0  0  0  0  0
   41.0230   34.8010   41.2340 H   0  0  0  0  0  0  0  0  0  0  0  0
   39.2930   24.7320   42.3240 S   0  0  0  0  0  0  0  0  0  0  0  0
   38.4300   23.8260   41.7090 H   0  0  0  0  0  0  0  0  0  0  0  0
  1  2  1  0  0  0  0
  2  3  2  0  0  0  0
  2  7  1  0  0  0  0
  3  8  1  0  0  0  0
  4  3  1  0  0  0  0
  5  4  2  0  0  0  0
  6  5  1  0  0  0  0
  6  1  2  0  0  0  0
  9  5  1  0  0  0  0
  9 10  1  0  0  0  0
 10 11  1  0  0  0  0
 12 10  2  0  0  0  0
 13 12  1  0  0  0  0
 14 13  2  0  0  0  0
 15 14  1  0  0  0  0
 16 15  2  0  0  0  0
 16 18  1  0  0  0  0
 17 16  1  0  0  0  0
 18 19  2  0  0  0  0
 19 13  1  0  0  0  0
 19  9  1  0  0  0  0
 20 14  1  0  0  0  0
 20 22  1  0  0  0  0
 21 20  1  0  0  0  0
 23  1  1  0  0  0  0
 24 23  1  0  0  0  0
M  END
>  <minimizedAffinity>
-4.90116167

$$$$

 OpenBabel03252504213D

 24 26  0  0  0  0  0  0  0  0999 V2000
   37.4230   30.1750   38.6760 C   0  0  0  0  0  0  0  0  0  0  0  0
   37.2900   31.2290   39.5790 C   0  0  0  0  0  0  0  0  0  0  0  0
   37.3870   30.9490   40.9640 C   0  0  0  0  0  0  0  0  0  0  0  0
   37.6060   29.6480   41.3180 N   0  0  0  0  0  0  0  0  0  0  0  0
   37.7290   28.6590   40.4120 C   0  0  0  0  0  0  0  0  0  0  0  0
   37.6380   28.9190   39.0970 N   0  0  0  0  0  0  0  0  0  0  0  0
   37.1150   32.2570   39.2470 H   0  0  0  0  0  0  0  0  0  0  0  0
   37.2830   31.7630   41.6450 H   0  0  0  0  0  0  0  0  0  0  0  0
   37.9580   27.3260   40.8760 N   0  0  0  0  0  0  0  0  0  0  0  0
   37.3500   26.2060   40.4370 C   0  0  0  0  0  0  0  0  0  0  0  0
   36.5870   26.1120   39.6630 H   0  0  0  0  0  0  0  0  0  0  0  0
   37.8500   25.1490   41.1370 N   0  0  0  0  0  0  0  0  0  0  0  0
   38.7520   25.6470   41.9870 C   0  0  0  0  0  0  0  0  0  0  0  0
   39.5770   25.0880   42.9390 C   0  0  0  0  0  0  0  0  0  0  0  0
   40.4090   25.8060   43.6790 N   0  0  0  0  0  0  0  0  0  0  0  0
   40.5010   27.1460   43.5450 C   0  0  0  0  0  0  0  0  0  0  0  0
   41.1510   27.8010   44.1080 H   0  0  0  0  0  0  0  0  0  0  0  0
   39.6960   27.6920   42.6170 N   0  0  0  0  0  0  0  0  0  0  0  0
   38.8430   27.0170   41.8470 C   0  0  0  0  0  0  0  0  0  0  0  0
   39.5870   23.6900   43.1880 N   0  0  0  0  0  0  0  0  0  0  0  0
   40.5330   23.2280   43.1770 H   0  0  0  0  0  0  0  0  0  0  0  0
   39.0370   22.8420   43.3940 H   0  0  0  0  0  0  0  0  0  0  0  0
   37.2830   30.6430   36.9420 S   0  0  0  0  0  0  0  0  0  0  0  0
   37.9540   31.8320   36.6550 H   0  0  0  0  0  0  0  0  0  0  0  0
  1  6  2  0  0  0  0
  1  2  1  0  0  0  0
  2  3  2  0  0  0  0
  3  4  1  0  0  0  0
  3  8  1  0  0  0  0
  5  9  1  0  0  0  0
  5  4  2  0  0  0  0
  6  5  1  0  0  0  0
  7  2  1  0  0  0  0
  9 19  1  0  0  0  0
 10  9  1  0  0  0  0
 10 12  2  0  0  0  0
 11 10  1  0  0  0  0
 12 13  1  0  0  0  0
 13 14  1  0  0  0  0
 14 20  1  0  0  0  0
 14 15  2  0  0  0  0
 16 15  1  0  0  0  0
 16 17  1  0  0  0  0
 18 16  2  0  0  0  0
 19 13  2  0  0  0  0
 19 18  1  0  0  0  0
 20 22  1  0  0  0  0
 21 20  1  0  0  0  0
 23  1  1  0  0  0  0
 24 23  1  0  0  0  0
M  END
>  <minimizedAffinity>
-4.59851694

$$$$

 OpenBabel03252504213D

 24 26  0  0  0  0  0  0  0  0999 V2000
   39.9910   32.4490   39.0150 C   0  0  0  0  0  0  0  0  0  0  0  0
   39.2760   33.4630   39.6490 C   0  0  0  0  0  0  0  0  0  0  0  0
   38.1860   33.1060   40.4800 C   0  0  0  0  0  0  0  0  0  0  0  0
   37.9110   31.7730   40.6000 N   0  0  0  0  0  0  0  0  0  0  0  0
   38.6290   30.8240   39.9680 C   0  0  0  0  0  0  0  0  0  0  0  0
   39.6630   31.1570   39.1800 N   0  0  0  0  0  0  0  0  0  0  0  0
   39.5350   34.5200   39.5230 H   0  0  0  0  0  0  0  0  0  0  0  0
   37.6470   33.8910   40.9590 H   0  0  0  0  0  0  0  0  0  0  0  0
   38.2670   29.4520   40.1540 N   0  0  0  0  0  0  0  0  0  0  0  0
   38.1700   28.5100   39.1960 C   0  0  0  0  0  0  0  0  0  0  0  0
   38.3470   28.6170   38.1240 H   0  0  0  0  0  0  0  0  0  0  0  0
   37.8000   27.3400   39.7870 N   0  0  0  0  0  0  0  0  0  0  0  0
   37.6790   27.5930   41.0930 C   0  0  0  0  0  0  0  0  0  0  0  0
   37.3370   26.8270   42.1860 C   0  0  0  0  0  0  0  0  0  0  0  0
   37.2840   27.3170   43.4170 N   0  0  0  0  0  0  0  0  0  0  0  0
   37.5650   28.6100   43.6790 C   0  0  0  0  0  0  0  0  0  0  0  0
   37.5440   29.0850   44.6490 H   0  0  0  0  0  0  0  0  0  0  0  0
   37.8980   29.3590   42.6120 N   0  0  0  0  0  0  0  0  0  0  0  0
   37.9660   28.9170   41.3560 C   0  0  0  0  0  0  0  0  0  0  0  0
   37.0170   25.4500   42.0600 N   0  0  0  0  0  0  0  0  0  0  0  0
   37.5340   24.7980   42.7060 H   0  0  0  0  0  0  0  0  0  0  0  0
   36.4560   24.7300   41.5800 H   0  0  0  0  0  0  0  0  0  0  0  0
   41.3560   33.0150   37.9840 S   0  0  0  0  0  0  0  0  0  0  0  0
   42.0820   34.0450   38.5810 H   0  0  0  0  0  0  0  0  0  0  0  0
  1  6  2  0  0  0  0
  1  2  1  0  0  0  0
  2  3  2  0  0  0  0
  3  4  1  0  0  0  0
  3  8  1  0  0  0  0
  5  9  1  0  0  0  0
  5  4  2  0  0  0  0
  6  5  1  0  0  0  0
  7  2  1  0  0  0  0
  9 19  1  0  0  0  0
 10 12  2  0  0  0  0
 10  9  1  0  0  0  0
 11 10  1  0  0  0  0
 12 13  1  0  0  0  0
 13 19  2  0  0  0  0
 13 14  1  0  0  0  0
 14 15  2  0  0  0  0
 15 16  1  0  0  0  0
 16 17  1  0  0  0  0
 18 16  2  0  0  0  0
 19 18  1  0  0  0  0
 20 14  1  0  0  0  0
 20 21  1  0  0  0  0
 22 20  1  0  0  0  0
 23 24  1  0  0  0  0
 23  1  1  0  0  0  0
M  END
>  <minimizedAffinity>
-4.54904509

$$$$

 OpenBabel03252504213D

 24 26  0  0  0  0  0  0  0  0999 V2000
   38.4990   25.5180   41.8880 C   0  0  0  0  0  0  0  0  0  0  0  0
   37.6600   24.6750   41.1610 C   0  0  0  0  0  0  0  0  0  0  0  0
   36.7560   25.2530   40.2370 C   0  0  0  0  0  0  0  0  0  0  0  0
   36.7720   26.6140   40.1240 N   0  0  0  0  0  0  0  0  0  0  0  0
   37.6000   27.3920   40.8470 C   0  0  0  0  0  0  0  0  0  0  0  0
   38.4600   26.8500   41.7240 N   0  0  0  0  0  0  0  0  0  0  0  0
   37.6840   23.5870   41.2850 H   0  0  0  0  0  0  0  0  0  0  0  0
   36.1190   24.5960   39.6870 H   0  0  0  0  0  0  0  0  0  0  0  0
   37.5450   28.8100   40.6610 N   0  0  0  0  0  0  0  0  0  0  0  0
   37.5460   29.7470   41.6290 C   0  0  0  0  0  0  0  0  0  0  0  0
   37.5880   29.6020   42.7100 H   0  0  0  0  0  0  0  0  0  0  0  0
   37.4840   30.9720   41.0350 N   0  0  0  0  0  0  0  0  0  0  0  0
   37.4460   30.7540   39.7170 C   0  0  0  0  0  0  0  0  0  0  0  0
   37.3800   31.5790   38.6150 C   0  0  0  0  0  0  0  0  0  0  0  0
   37.3530   31.1170   37.3730 N   0  0  0  0  0  0  0  0  0  0  0  0
   37.3900   29.7950   37.1070 C   0  0  0  0  0  0  0  0  0  0  0  0
   37.3710   29.3380   36.1280 H   0  0  0  0  0  0  0  0  0  0  0  0
   37.4540   28.9890   38.1820 N   0  0  0  0  0  0  0  0  0  0  0  0
   37.4830   29.4010   39.4500 C   0  0  0  0  0  0  0  0  0  0  0  0
   37.3370   32.9930   38.7440 N   0  0  0  0  0  0  0  0  0  0  0  0
   38.0380   33.5280   38.1690 H   0  0  0  0  0  0  0  0  0  0  0  0
   36.8880   33.8100   39.1850 H   0  0  0  0  0  0  0  0  0  0  0  0
   39.6090   24.6790   43.0330 S   0  0  0  0  0  0  0  0  0  0  0  0
   40.1670   23.5250   42.4840 H   0  0  0  0  0  0  0  0  0  0  0  0
  1 23  1  0  0  0  0
  2  7  1  0  0  0  0
  2  1  2  0  0  0  0
  3  2  1  0  0  0  0
  4  3  2  0  0  0  0
  4  5  1  0  0  0  0
  5  6  2  0  0  0  0
  6  1  1  0  0  0  0
  8  3  1  0  0  0  0
  9  5  1  0  0  0  0
  9 10  1  0  0  0  0
 10 11  1  0  0  0  0
 12 10  2  0  0  0  0
 13 12  1  0  0  0  0
 14 20  1  0  0  0  0
 14 13  2  0  0  0  0
 15 14  1  0  0  0  0
 16 15  2  0  0  0  0
 16 18  1  0  0  0  0
 17 16  1  0  0  0  0
 18 19  2  0  0  0  0
 19 13  1  0  0  0  0
 19  9  1  0  0  0  0
 20 22  1  0  0  0  0
 21 20  1  0  0  0  0
 24 23  1  0  0  0  0
M  END
>  <minimizedAffinity>
-4.54326391

$$$$

 OpenBabel03252504213D

 24 26  0  0  0  0  0  0  0  0999 V2000
   36.3880   23.1410   39.1820 C   0  0  0  0  0  0  0  0  0  0  0  0
   37.7000   22.7670   39.4640 C   0  0  0  0  0  0  0  0  0  0  0  0
   38.6230   23.7710   39.8480 C   0  0  0  0  0  0  0  0  0  0  0  0
   38.1510   25.0520   39.9120 N   0  0  0  0  0  0  0  0  0  0  0  0
   36.8730   25.3700   39.6310 C   0  0  0  0  0  0  0  0  0  0  0  0
   35.9940   24.4220   39.2680 N   0  0  0  0  0  0  0  0  0  0  0  0
   38.0320   21.7260   39.3990 H   0  0  0  0  0  0  0  0  0  0  0  0
   39.6240   23.4720   40.0600 H   0  0  0  0  0  0  0  0  0  0  0  0
   36.4700   26.7390   39.7260 N   0  0  0  0  0  0  0  0  0  0  0  0
   35.7150   27.4180   38.8400 C   0  0  0  0  0  0  0  0  0  0  0  0
   35.2810   27.0570   37.9070 H   0  0  0  0  0  0  0  0  0  0  0  0
   35.5620   28.6910   39.3000 N   0  0  0  0  0  0  0  0  0  0  0  0
   36.2260   28.7610   40.4580 C   0  0  0  0  0  0  0  0  0  0  0  0
   36.4370   29.7650   41.3780 C   0  0  0  0  0  0  0  0  0  0  0  0
   37.1510   29.5890   42.4800 N   0  0  0  0  0  0  0  0  0  0  0  0
   37.7230   28.4030   42.7740 C   0  0  0  0  0  0  0  0  0  0  0  0
   38.3190   28.1790   43.6470 H   0  0  0  0  0  0  0  0  0  0  0  0
   37.5190   27.4230   41.8750 N   0  0  0  0  0  0  0  0  0  0  0  0
   36.8100   27.5460   40.7530 C   0  0  0  0  0  0  0  0  0  0  0  0
   35.8940   31.0650   41.2000 N   0  0  0  0  0  0  0  0  0  0  0  0
   35.3550   31.4530   42.0170 H   0  0  0  0  0  0  0  0  0  0  0  0
   35.7770   31.8780   40.5760 H   0  0  0  0  0  0  0  0  0  0  0  0
   35.3000   21.7860   38.7070 S   0  0  0  0  0  0  0  0  0  0  0  0
   35.4960   20.6470   39.4870 H   0  0  0  0  0  0  0  0  0  0  0  0
  1  6  2  0  0  0  0
  1  2  1  0  0  0  0
  2  3  2  0  0  0  0
  3  4  1  0  0  0  0
  3  8  1  0  0  0  0
  5  9  1  0  0  0  0
  5  4  2  0  0  0  0
  6  5  1  0  0  0  0
  7  2  1  0  0  0  0
  9 19  1  0  0  0  0
 10 12  2  0  0  0  0
 10  9  1  0  0  0  0
 11 10  1  0  0  0  0
 12 13  1  0  0  0  0
 13 19  2  0  0  0  0
 13 14  1  0  0  0  0
 14 15  2  0  0  0  0
 15 16  1  0  0  0  0
 16 17  1  0  0  0  0
 18 16  2  0  0  0  0
 19 18  1  0  0  0  0
 20 14  1  0  0  0  0
 20 21  1  0  0  0  0
 22 20  1  0  0  0  0
 23  1  1  0  0  0  0
 23 24  1  0  0  0  0
M  END
>  <minimizedAffinity>
-4.53293133

$$$$

 OpenBabel03252504213D

 24 26  0  0  0  0  0  0  0  0999 V2000
   40.8120   26.0200   42.6430 C   0  0  0  0  0  0  0  0  0  0  0  0
   39.8030   25.0600   42.6950 C   0  0  0  0  0  0  0  0  0  0  0  0
   38.4640   25.4740   42.4960 C   0  0  0  0  0  0  0  0  0  0  0  0
   38.2550   26.8040   42.2660 N   0  0  0  0  0  0  0  0  0  0  0  0
   39.2600   27.7000   42.2240 C   0  0  0  0  0  0  0  0  0  0  0  0
   40.5320   27.3130   42.4110 N   0  0  0  0  0  0  0  0  0  0  0  0
   40.0190   24.0030   42.8830 H   0  0  0  0  0  0  0  0  0  0  0  0
   37.7010   24.7290   42.5390 H   0  0  0  0  0  0  0  0  0  0  0  0
   38.9460   29.0730   41.9760 N   0  0  0  0  0  0  0  0  0  0  0  0
   39.4440   30.1420   42.6280 C   0  0  0  0  0  0  0  0  0  0  0  0
   40.1630   30.1570   43.4490 H   0  0  0  0  0  0  0  0  0  0  0  0
   38.8900   31.2640   42.0890 N   0  0  0  0  0  0  0  0  0  0  0  0
   38.0670   30.8560   41.1190 C   0  0  0  0  0  0  0  0  0  0  0  0
   37.2410   31.5090   40.2310 C   0  0  0  0  0  0  0  0  0  0  0  0
   36.5000   30.8700   39.3370 N   0  0  0  0  0  0  0  0  0  0  0  0
   36.5100   29.5240   39.2390 C   0  0  0  0  0  0  0  0  0  0  0  0
   35.9380   28.9290   38.5410 H   0  0  0  0  0  0  0  0  0  0  0  0
   37.3160   28.8860   40.1060 N   0  0  0  0  0  0  0  0  0  0  0  0
   38.0800   29.4790   41.0240 C   0  0  0  0  0  0  0  0  0  0  0  0
   37.1300   32.9250   40.2180 N   0  0  0  0  0  0  0  0  0  0  0  0
   37.2580   33.3870   39.2810 H   0  0  0  0  0  0  0  0  0  0  0  0
   36.9660   33.7860   40.7610 H   0  0  0  0  0  0  0  0  0  0  0  0
   42.4770   25.3850   42.9080 S   0  0  0  0  0  0  0  0  0  0  0  0
   42.6970   24.1770   42.2480 H   0  0  0  0  0  0  0  0  0  0  0  0
  1  2  1  0  0  0  0
  1 23  1  0  0  0  0
  2  7  1  0  0  0  0
  3  8  1  0  0  0  0
  3  2  2  0  0  0  0
  4  3  1  0  0  0  0
  5  4  2  0  0  0  0
  5  6  1  0  0  0  0
  6  1  2  0  0  0  0
  9  5  1  0  0  0  0
  9 10  1  0  0  0  0
 10 11  1  0  0  0  0
 12 10  2  0  0  0  0
 13 12  1  0  0  0  0
 14 13  2  0  0  0  0
 15 14  1  0  0  0  0
 16 15  2  0  0  0  0
 16 18  1  0  0  0  0
 17 16  1  0  0  0  0
 18 19  2  0  0  0  0
 19 13  1  0  0  0  0
 19  9  1  0  0  0  0
 20 14  1  0  0  0  0
 20 22  1  0  0  0  0
 21 20  1  0  0  0  0
 24 23  1  0  0  0  0
M  END
>  <minimizedAffinity>
-4.50208855

$$$$

 OpenBabel03252504213D

 24 26  0  0  0  0  0  0  0  0999 V2000
   36.5540   24.6700   40.2270 C   0  0  0  0  0  0  0  0  0  0  0  0
   36.8880   24.6620   41.5800 C   0  0  0  0  0  0  0  0  0  0  0  0
   37.4540   25.8320   42.1430 C   0  0  0  0  0  0  0  0  0  0  0  0
   37.6350   26.8970   41.3070 N   0  0  0  0  0  0  0  0  0  0  0  0
   37.2970   26.8610   40.0030 C   0  0  0  0  0  0  0  0  0  0  0  0
   36.7600   25.7550   39.4640 N   0  0  0  0  0  0  0  0  0  0  0  0
   36.7230   23.7830   42.2120 H   0  0  0  0  0  0  0  0  0  0  0  0
   37.7050   25.8130   43.1800 H   0  0  0  0  0  0  0  0  0  0  0  0
   37.5240   28.0250   39.2040 N   0  0  0  0  0  0  0  0  0  0  0  0
   38.0580   28.0600   37.9680 C   0  0  0  0  0  0  0  0  0  0  0  0
   38.4100   27.2240   37.3610 H   0  0  0  0  0  0  0  0  0  0  0  0
   38.1010   29.3590   37.5590 N   0  0  0  0  0  0  0  0  0  0  0  0
   37.5910   30.0890   38.5550 C   0  0  0  0  0  0  0  0  0  0  0  0
   37.3730   31.4380   38.7360 C   0  0  0  0  0  0  0  0  0  0  0  0
   36.8390   31.9370   39.8410 N   0  0  0  0  0  0  0  0  0  0  0  0
   36.4720   31.1460   40.8720 C   0  0  0  0  0  0  0  0  0  0  0  0
   36.0330   31.4730   41.8040 H   0  0  0  0  0  0  0  0  0  0  0  0
   36.6860   29.8300   40.6970 N   0  0  0  0  0  0  0  0  0  0  0  0
   37.2180   29.2770   39.6070 C   0  0  0  0  0  0  0  0  0  0  0  0
   37.7090   32.3870   37.7350 N   0  0  0  0  0  0  0  0  0  0  0  0
   36.9460   33.0620   37.4670 H   0  0  0  0  0  0  0  0  0  0  0  0
   38.4280   32.7510   37.0910 H   0  0  0  0  0  0  0  0  0  0  0  0
   35.8400   23.1330   39.6140 S   0  0  0  0  0  0  0  0  0  0  0  0
   34.9220   22.5800   40.5060 H   0  0  0  0  0  0  0  0  0  0  0  0
  1  2  1  0  0  0  0
  2  3  2  0  0  0  0
  2  7  1  0  0  0  0
  3  8  1  0  0  0  0
  4  3  1  0  0  0  0
  5  4  2  0  0  0  0
  6  5  1  0  0  0  0
  6  1  2  0  0  0  0
  9 19  1  0  0  0  0
  9  5  1  0  0  0  0
 10  9  1  0  0  0  0
 11 10  1  0  0  0  0
 12 10  2  0  0  0  0
 12 13  1  0  0  0  0
 13 14  2  0  0  0  0
 13 19  1  0  0  0  0
 14 15  1  0  0  0  0
 15 16  2  0  0  0  0
 16 17  1  0  0  0  0
 18 16  1  0  0  0  0
 19 18  2  0  0  0  0
 20 14  1  0  0  0  0
 21 20  1  0  0  0  0
 22 20  1  0  0  0  0
 23  1  1  0  0  0  0
 23 24  1  0  0  0  0
M  END
>  <minimizedAffinity>
-4.41891384

$$$$
