
     RDKit          3D

 39 42  0  0  0  0  0  0  0  0999 V2000
   45.2802   35.3361   43.6870 C   0  0  0  0  0  0  0  0  0  0  0  0
   46.3671   34.6091   43.1620 C   0  0  0  0  0  0  0  0  0  0  0  0
   46.9550   33.6413   43.9953 C   0  0  0  0  0  0  0  0  0  0  0  0
   46.4578   33.4625   45.2286 N   0  0  0  0  0  0  0  0  0  0  0  0
   45.4052   34.1912   45.6882 C   0  0  0  0  0  0  0  0  0  0  0  0
   44.8212   35.1245   44.9159 N   0  0  0  0  0  0  0  0  0  0  0  0
   49.0075   33.7171   42.5873 C   0  0  2  0  0  0  0  0  0  0  0  0
   48.0819   32.8915   43.4398 C   0  0  2  0  0  0  0  0  0  0  0  0
   47.7097   31.8940   42.5157 O   0  0  0  0  0  0  0  0  0  0  0  0
   48.9149   31.4631   41.9963 C   0  0  0  0  0  0  0  0  0  0  0  0
   49.9205   32.5872   42.0892 C   0  0  1  0  0  0  0  0  0  0  0  0
   49.6864   34.6804   43.2911 O   0  0  0  0  0  0  0  0  0  0  0  0
   50.4588   32.9391   40.8656 O   0  0  0  0  0  0  0  0  0  0  0  0
   44.6558   36.3849   42.7871 C   0  0  0  0  0  0  0  0  0  0  0  0
   46.6809   34.8287   42.1747 H   0  0  0  0  0  0  0  0  0  0  0  0
   45.0845   33.9702   46.6887 H   0  0  0  0  0  0  0  0  0  0  0  0
   48.5211   34.0989   41.6730 H   0  0  0  0  0  0  0  0  0  0  0  0
   48.6301   32.4177   44.2598 H   0  0  0  0  0  0  0  0  0  0  0  0
   48.8355   31.0760   40.9547 H   0  0  0  0  0  0  0  0  0  0  0  0
   49.2873   30.6209   42.6202 H   0  0  0  0  0  0  0  0  0  0  0  0
   50.7494   32.3809   42.7890 H   0  0  0  0  0  0  0  0  0  0  0  0
   49.0194   35.1881   43.8123 H   0  0  0  0  0  0  0  0  0  0  0  0
   51.4334   33.1086   40.8775 H   0  0  0  0  0  0  0  0  0  0  0  0
   44.2456   37.1519   43.4870 H   0  0  0  0  0  0  0  0  0  0  0  0
   45.4159   36.9115   42.1909 H   0  0  0  0  0  0  0  0  0  0  0  0
   43.6010   35.8072   42.0084 N   0  0  0  0  0  0  0  0  0  0  0  0
   42.8591   36.5028   41.1129 C   0  0  0  0  0  0  0  0  0  0  0  0
   42.9082   37.5452   40.8288 H   0  0  0  0  0  0  0  0  0  0  0  0
   41.9480   35.7143   40.5316 N   0  0  0  0  0  0  0  0  0  0  0  0
   42.1022   34.4957   41.0566 C   0  0  0  0  0  0  0  0  0  0  0  0
   41.5020   33.2627   40.8988 C   0  0  0  0  0  0  0  0  0  0  0  0
   40.4493   33.2179   39.9538 N   0  0  0  0  0  0  0  0  0  0  0  0
   39.4709   33.5593   39.8217 H   0  0  0  0  0  0  0  0  0  0  0  0
   41.8801   32.1636   41.5900 N   0  0  0  0  0  0  0  0  0  0  0  0
   42.9025   32.2679   42.4886 C   0  0  0  0  0  0  0  0  0  0  0  0
   43.1910   31.3671   43.0356 H   0  0  0  0  0  0  0  0  0  0  0  0
   43.5066   33.4536   42.6648 N   0  0  0  0  0  0  0  0  0  0  0  0
   43.1455   34.5617   41.9863 C   0  0  0  0  0  0  0  0  0  0  0  0
   40.1411   32.8742   39.0338 H   0  0  0  0  0  0  0  0  0  0  0  0
  1  6  1  0
  2  1  2  0
  2  3  1  0
  3  4  2  0
  4  5  1  0
  6  5  2  0
  7 12  1  0
  7  8  1  0
  8  3  1  0
  9  8  1  0
 10 11  1  0
 10  9  1  0
 11 13  1  0
 11  7  1  0
 14  1  1  0
  2 15  1  0
  5 16  1  0
  7 17  1  6
  8 18  1  1
 10 19  1  0
 10 20  1  0
 11 21  1  1
 12 22  1  0
 13 23  1  0
 14 24  1  0
 14 25  1  0
 26 27  1  0
 27 28  1  0
 27 29  2  0
 29 30  1  0
 30 31  2  0
 31 32  1  0
 32 33  1  0
 31 34  1  0
 34 35  2  0
 35 36  1  0
 35 37  1  0
 37 38  2  0
 38 26  1  0
 38 30  1  0
 32 39  1  0
 14 26  1  0
M  ISO  8  15  14  16  14  17  13  18  13  19  13  20  13  21  13  22   3
M  ISO  6  23   3  24   8  25   8  28  15  33   5  36  16
M  END
>  <DihAtoms>  (1) 
0,13,25,26

>  <DihDeg>  (1) 
90.00010544054909

$$$$
