REMARK  Name = 
REMARK  4 active torsions:
REMARK  status: ('A' for Active; 'I' for Inactive)
REMARK    1  A    between atoms: C_1  and  O_11
REMARK    2  A    between atoms: C_2  and  C_7
REMARK    3  A    between atoms: O_11  and  C_12
REMARK    4  A    between atoms: C_22  and  N_23
REMARK                            x       y       z     vdW  Elec       q    Type
REMARK                         _______ _______ _______ _____ _____    ______ ____
ROOT
ATOM      1  C   UNL     1      47.097  34.390  43.096  0.00  0.00    +0.000 A 
ATOM      2  C   UNL     1      45.777  34.593  43.505  0.00  0.00    +0.000 A 
ATOM      3  C   UNL     1      45.253  33.760  44.497  0.00  0.00    +0.000 A 
ATOM      4  N   UNL     1      46.049  32.794  45.017  0.00  0.00    +0.000 NA
ATOM      5  C   UNL     1      47.326  32.627  44.594  0.00  0.00    +0.000 A 
ATOM      6  N   UNL     1      47.858  33.418  43.637  0.00  0.00    +0.000 NA
ATOM      7  H   UNL     1      44.232  33.904  44.824  0.00  0.00    +0.000 HD
ATOM      8  N   UNL     1      48.033  31.572  45.235  0.00  0.00    +0.000 N 
ATOM      9  C   UNL     1      47.889  30.270  44.854  0.00  0.00    +0.000 A 
ATOM     10  H   UNL     1      47.259  29.892  44.063  0.00  0.00    +0.000 HD
ATOM     11  N   UNL     1      48.654  29.461  45.603  0.00  0.00    +0.000 NA
ATOM     12  C   UNL     1      49.307  30.238  46.486  0.00  0.00    +0.000 A 
ATOM     13  C   UNL     1      50.218  29.968  47.493  0.00  0.00    +0.000 A 
ATOM     14  N   UNL     1      50.700  31.009  48.223  0.00  0.00    +0.000 NA
ATOM     15  C   UNL     1      50.285  32.278  47.954  0.00  0.00    +0.000 A 
ATOM     16  H   UNL     1      50.740  33.014  48.602  0.00  0.00    +0.000 HD
ATOM     17  N   UNL     1      49.388  32.576  46.968  0.00  0.00    +0.000 NA
ATOM     18  C   UNL     1      48.916  31.540  46.251  0.00  0.00    +0.000 A 
ENDROOT
BRANCH   2  19
ATOM     19  C   UNL     1      44.977  35.684  42.873  0.00  0.00    +0.000 C 
ATOM     20  F   UNL     1      45.617  36.903  43.068  0.00  0.00    +0.000 F 
ATOM     21  F   UNL     1      44.959  35.465  41.507  0.00  0.00    +0.000 F 
ATOM     22  F   UNL     1      43.716  35.812  43.348  0.00  0.00    +0.000 F 
ENDBRANCH   2  19
BRANCH  13  23
ATOM     23  N   UNL     1      50.576  28.608  47.682  0.00  0.00    +0.000 N 
ATOM     24  H   UNL     1      51.518  28.436  47.221  0.00  0.00    +0.000 HD
ATOM     25  H   UNL     1      50.091  27.822  48.165  0.00  0.00    +0.000 HD
ENDBRANCH  13  23
BRANCH   1  26
ATOM     26  O   UNL     1      47.591  35.197  42.140  0.00  0.00    +0.000 OA
BRANCH  26  27
ATOM     27  C   UNL     1      48.874  35.191  41.571  0.00  0.00    +0.000 C 
ATOM     28  F   UNL     1      49.767  35.492  42.613  0.00  0.00    +0.000 F 
ATOM     29  F   UNL     1      49.121  33.967  40.998  0.00  0.00    +0.000 F 
ATOM     30  F   UNL     1      49.008  36.227  40.666  0.00  0.00    +0.000 F 
ENDBRANCH  26  27
ENDBRANCH   1  26
TORSDOF 4
