
 OpenBabel03252502103D

 53 58  0  0  0  0  0  0  0  0999 V2000
   40.3720   31.8850   38.6420 C   0  0  0  0  0  0  0  0  0  0  0  0
   40.8280   33.1440   38.6080 N   0  0  0  0  0  0  0  0  0  0  0  0
   41.8420   33.5740   37.8690 C   0  0  0  0  0  0  0  0  0  0  0  0
   42.5030   32.7150   37.0700 N   0  0  0  0  0  0  0  0  0  0  0  0
   42.1480   31.4230   37.0090 C   0  0  0  0  0  0  0  0  0  0  0  0
   42.8200   30.5380   36.1920 C   0  0  0  0  0  0  0  0  0  0  0  0
   42.4700   29.2270   36.1210 C   0  0  0  0  0  0  0  0  0  0  0  0
   41.4100   28.8000   36.8980 C   0  0  0  0  0  0  0  0  0  0  0  0
   40.7630   29.7330   37.7070 C   0  0  0  0  0  0  0  0  0  0  0  0
   41.0840   31.0410   37.8020 C   0  0  0  0  0  0  0  0  0  0  0  0
   42.1710   34.6090   37.8800 H   0  0  0  0  0  0  0  0  0  0  0  0
   43.6450   30.9070   35.5970 H   0  0  0  0  0  0  0  0  0  0  0  0
   43.0140   28.5620   35.4740 H   0  0  0  0  0  0  0  0  0  0  0  0
   36.9560   31.9330   39.8300 C   0  0  0  0  0  0  0  0  0  0  0  0
   36.8820   30.9720   40.8440 C   0  0  0  0  0  0  0  0  0  0  0  0
   38.0340   30.2760   41.1230 C   0  0  0  0  0  0  0  0  0  0  0  0
   39.1430   30.5360   40.4400 N   0  0  0  0  0  0  0  0  0  0  0  0
   39.2370   31.4350   39.4840 C   0  0  0  0  0  0  0  0  0  0  0  0
   38.1150   32.1330   39.1890 N   0  0  0  0  0  0  0  0  0  0  0  0
   38.0180   29.3080   42.1000 N   0  0  0  0  0  0  0  0  0  0  0  0
   39.1560   28.3830   42.3670 C   0  0  0  0  0  0  0  0  0  0  0  0
   38.8400   27.7160   43.6790 C   0  0  0  0  0  0  0  0  0  0  0  0
   37.3500   27.7500   43.7200 C   0  0  0  0  0  0  0  0  0  0  0  0
   36.9620   29.0010   43.0080 C   0  0  0  0  0  0  0  0  0  0  0  0
   36.0650   32.5090   39.5730 H   0  0  0  0  0  0  0  0  0  0  0  0
   39.2370   27.6530   41.5430 H   0  0  0  0  0  0  0  0  0  0  0  0
   40.0590   29.0390   42.4190 H   0  0  0  0  0  0  0  0  0  0  0  0
   39.2540   28.2490   44.5460 H   0  0  0  0  0  0  0  0  0  0  0  0
   39.2000   26.6570   43.7000 H   0  0  0  0  0  0  0  0  0  0  0  0
   36.9870   26.8200   43.2360 H   0  0  0  0  0  0  0  0  0  0  0  0
   36.9510   27.7260   44.7710 H   0  0  0  0  0  0  0  0  0  0  0  0
   35.9960   28.7020   42.5000 H   0  0  0  0  0  0  0  0  0  0  0  0
   36.7800   29.7750   43.7580 H   0  0  0  0  0  0  0  0  0  0  0  0
   35.6870   30.8240   41.4980 N   0  0  0  0  0  0  0  0  0  0  0  0
   35.1380   30.2040   40.8340 H   0  0  0  0  0  0  0  0  0  0  0  0
   35.4120   31.2380   42.4320 H   0  0  0  0  0  0  0  0  0  0  0  0
   41.0690   27.4260   36.8010 N   0  0  0  0  0  0  0  0  0  0  0  0
   41.8090   26.3090   37.0180 C   0  0  0  0  0  0  0  0  0  0  0  0
   42.8390   26.3500   37.3180 H   0  0  0  0  0  0  0  0  0  0  0  0
   41.0150   25.2430   36.7880 N   0  0  0  0  0  0  0  0  0  0  0  0
   39.7740   25.6520   36.4270 C   0  0  0  0  0  0  0  0  0  0  0  0
   38.6490   24.9510   36.1000 C   0  0  0  0  0  0  0  0  0  0  0  0
   37.5440   25.6420   35.7780 N   0  0  0  0  0  0  0  0  0  0  0  0
   37.6000   27.0030   35.7930 C   0  0  0  0  0  0  0  0  0  0  0  0
   36.7290   27.6280   35.5390 H   0  0  0  0  0  0  0  0  0  0  0  0
   38.6840   27.7190   36.1070 N   0  0  0  0  0  0  0  0  0  0  0  0
   39.8100   27.0510   36.4360 C   0  0  0  0  0  0  0  0  0  0  0  0
   38.5790   23.5500   36.0820 N   0  0  0  0  0  0  0  0  0  0  0  0
   39.0480   22.7770   36.5820 H   0  0  0  0  0  0  0  0  0  0  0  0
   37.9610   22.9800   35.4810 H   0  0  0  0  0  0  0  0  0  0  0  0
   39.6950   29.1120   38.4370 N   0  0  0  0  0  0  0  0  0  0  0  0
   39.6100   28.6740   39.3770 H   0  0  0  0  0  0  0  0  0  0  0  0
   38.8970   29.1770   37.7650 H   0  0  0  0  0  0  0  0  0  0  0  0
  1 18  1  0  0  0  0
  2  1  1  0  0  0  0
  3 11  1  0  0  0  0
  3  2  2  0  0  0  0
  4  3  1  0  0  0  0
  5  4  2  0  0  0  0
  5 10  1  0  0  0  0
  6  5  1  0  0  0  0
  7  6  2  0  0  0  0
  7  8  1  0  0  0  0
  8  9  2  0  0  0  0
  9 10  1  0  0  0  0
  9 51  1  0  0  0  0
 10  1  2  0  0  0  0
 12  6  1  0  0  0  0
 13  7  1  0  0  0  0
 14 15  1  0  0  0  0
 15 16  2  0  0  0  0
 15 34  1  0  0  0  0
 16 20  1  0  0  0  0
 17 16  1  0  0  0  0
 18 17  2  0  0  0  0
 19 18  1  0  0  0  0
 19 14  2  0  0  0  0
 20 21  1  0  0  0  0
 20 24  1  0  0  0  0
 21 27  1  0  0  0  0
 21 22  1  0  0  0  0
 22 29  1  0  0  0  0
 22 23  1  0  0  0  0
 22 28  1  0  0  0  0
 23 31  1  0  0  0  0
 24 23  1  0  0  0  0
 24 33  1  0  0  0  0
 25 14  1  0  0  0  0
 26 21  1  0  0  0  0
 30 23  1  0  0  0  0
 32 24  1  0  0  0  0
 34 36  1  0  0  0  0
 35 34  1  0  0  0  0
 37  8  1  0  0  0  0
 37 38  1  0  0  0  0
 38 39  1  0  0  0  0
 40 38  2  0  0  0  0
 41 47  1  0  0  0  0
 41 40  1  0  0  0  0
 42 41  2  0  0  0  0
 43 44  2  0  0  0  0
 43 42  1  0  0  0  0
 44 46  1  0  0  0  0
 45 44  1  0  0  0  0
 46 47  2  0  0  0  0
 47 37  1  0  0  0  0
 48 42  1  0  0  0  0
 48 49  1  0  0  0  0
 50 48  1  0  0  0  0
 51 52  1  0  0  0  0
 53 51  1  0  0  0  0
M  END
>  <minimizedAffinity>
-7.25204897

$$$$

 OpenBabel03252502103D

 53 58  0  0  0  0  0  0  0  0999 V2000
   36.3170   28.9530   38.3760 C   0  0  0  0  0  0  0  0  0  0  0  0
   35.3890   29.0520   37.4160 N   0  0  0  0  0  0  0  0  0  0  0  0
   34.7110   28.0380   36.8950 C   0  0  0  0  0  0  0  0  0  0  0  0
   34.9370   26.7850   37.3310 N   0  0  0  0  0  0  0  0  0  0  0  0
   35.8430   26.5440   38.2910 C   0  0  0  0  0  0  0  0  0  0  0  0
   36.0790   25.2620   38.7430 C   0  0  0  0  0  0  0  0  0  0  0  0
   36.9940   25.0060   39.7150 C   0  0  0  0  0  0  0  0  0  0  0  0
   37.6880   26.0780   40.2450 C   0  0  0  0  0  0  0  0  0  0  0  0
   37.4130   27.3530   39.7550 C   0  0  0  0  0  0  0  0  0  0  0  0
   36.5130   27.6440   38.7910 C   0  0  0  0  0  0  0  0  0  0  0  0
   33.9670   28.1760   36.1170 H   0  0  0  0  0  0  0  0  0  0  0  0
   35.5180   24.4480   38.3060 H   0  0  0  0  0  0  0  0  0  0  0  0
   37.1550   23.9960   40.0460 H   0  0  0  0  0  0  0  0  0  0  0  0
   36.8660   31.6940   40.6710 C   0  0  0  0  0  0  0  0  0  0  0  0
   38.0540   32.3110   40.2660 C   0  0  0  0  0  0  0  0  0  0  0  0
   38.6970   31.7650   39.1810 C   0  0  0  0  0  0  0  0  0  0  0  0
   38.1780   30.7040   38.5730 N   0  0  0  0  0  0  0  0  0  0  0  0
   37.0610   30.1080   38.9350 C   0  0  0  0  0  0  0  0  0  0  0  0
   36.4110   30.6260   40.0030 N   0  0  0  0  0  0  0  0  0  0  0  0
   39.8780   32.3190   38.7450 N   0  0  0  0  0  0  0  0  0  0  0  0
   40.7390   31.7100   37.6920 C   0  0  0  0  0  0  0  0  0  0  0  0
   41.7400   32.7720   37.3200 C   0  0  0  0  0  0  0  0  0  0  0  0
   41.8460   33.5810   38.5680 C   0  0  0  0  0  0  0  0  0  0  0  0
   40.4940   33.5250   39.1930 C   0  0  0  0  0  0  0  0  0  0  0  0
   36.3230   32.0930   41.5300 H   0  0  0  0  0  0  0  0  0  0  0  0
   41.2270   30.8060   38.0930 H   0  0  0  0  0  0  0  0  0  0  0  0
   40.0420   31.4590   36.8550 H   0  0  0  0  0  0  0  0  0  0  0  0
   41.4100   33.4050   36.4860 H   0  0  0  0  0  0  0  0  0  0  0  0
   42.7350   32.3270   37.0660 H   0  0  0  0  0  0  0  0  0  0  0  0
   42.6510   33.1300   39.1840 H   0  0  0  0  0  0  0  0  0  0  0  0
   42.1690   34.6380   38.3650 H   0  0  0  0  0  0  0  0  0  0  0  0
   40.7370   33.5290   40.2990 H   0  0  0  0  0  0  0  0  0  0  0  0
   39.9530   34.4320   38.9130 H   0  0  0  0  0  0  0  0  0  0  0  0
   38.4650   33.4220   40.9550 N   0  0  0  0  0  0  0  0  0  0  0  0
   38.9420   33.0000   41.8050 H   0  0  0  0  0  0  0  0  0  0  0  0
   38.3260   34.4350   40.6800 H   0  0  0  0  0  0  0  0  0  0  0  0
   38.6340   25.7770   41.2580 N   0  0  0  0  0  0  0  0  0  0  0  0
   38.4710   25.5410   42.5850 C   0  0  0  0  0  0  0  0  0  0  0  0
   37.5080   25.5580   43.0600 H   0  0  0  0  0  0  0  0  0  0  0  0
   39.6910   25.3040   43.1100 N   0  0  0  0  0  0  0  0  0  0  0  0
   40.6400   25.3820   42.1450 C   0  0  0  0  0  0  0  0  0  0  0  0
   41.9950   25.2230   42.1910 C   0  0  0  0  0  0  0  0  0  0  0  0
   42.6890   25.3630   41.0500 N   0  0  0  0  0  0  0  0  0  0  0  0
   42.0090   25.6580   39.9070 C   0  0  0  0  0  0  0  0  0  0  0  0
   42.5190   25.7860   38.9400 H   0  0  0  0  0  0  0  0  0  0  0  0
   40.6850   25.8220   39.8270 N   0  0  0  0  0  0  0  0  0  0  0  0
   39.9610   25.6860   40.9590 C   0  0  0  0  0  0  0  0  0  0  0  0
   42.7060   24.9180   43.3620 N   0  0  0  0  0  0  0  0  0  0  0  0
   42.5060   24.4150   44.2420 H   0  0  0  0  0  0  0  0  0  0  0  0
   43.6830   25.1850   43.5660 H   0  0  0  0  0  0  0  0  0  0  0  0
   38.2240   28.3330   40.4190 N   0  0  0  0  0  0  0  0  0  0  0  0
   39.1460   28.7750   40.2210 H   0  0  0  0  0  0  0  0  0  0  0  0
   37.6530   28.5610   41.2640 H   0  0  0  0  0  0  0  0  0  0  0  0
  1 10  1  0  0  0  0
  1 18  1  0  0  0  0
  2  1  2  0  0  0  0
  3  4  2  0  0  0  0
  3  2  1  0  0  0  0
  4  5  1  0  0  0  0
  5  6  2  0  0  0  0
  5 10  1  0  0  0  0
  6  7  1  0  0  0  0
  7 13  1  0  0  0  0
  7  8  2  0  0  0  0
  8 37  1  0  0  0  0
  9  8  1  0  0  0  0
  9 51  1  0  0  0  0
 10  9  2  0  0  0  0
 11  3  1  0  0  0  0
 12  6  1  0  0  0  0
 14 25  1  0  0  0  0
 15 14  1  0  0  0  0
 15 34  1  0  0  0  0
 16 15  2  0  0  0  0
 17 18  2  0  0  0  0
 17 16  1  0  0  0  0
 18 19  1  0  0  0  0
 19 14  2  0  0  0  0
 20 16  1  0  0  0  0
 20 24  1  0  0  0  0
 21 26  1  0  0  0  0
 21 20  1  0  0  0  0
 22 21  1  0  0  0  0
 22 23  1  0  0  0  0
 23 30  1  0  0  0  0
 23 24  1  0  0  0  0
 24 32  1  0  0  0  0
 27 21  1  0  0  0  0
 28 22  1  0  0  0  0
 29 22  1  0  0  0  0
 31 23  1  0  0  0  0
 33 24  1  0  0  0  0
 34 35  1  0  0  0  0
 36 34  1  0  0  0  0
 37 38  1  0  0  0  0
 38 39  1  0  0  0  0
 38 40  2  0  0  0  0
 41 42  1  0  0  0  0
 41 40  1  0  0  0  0
 42 48  1  0  0  0  0
 43 42  2  0  0  0  0
 44 43  1  0  0  0  0
 45 44  1  0  0  0  0
 46 44  2  0  0  0  0
 46 47  1  0  0  0  0
 47 37  1  0  0  0  0
 47 41  2  0  0  0  0
 48 50  1  0  0  0  0
 48 49  1  0  0  0  0
 51 53  1  0  0  0  0
 52 51  1  0  0  0  0
M  END
>  <minimizedAffinity>
-7.14639997

$$$$

 OpenBabel03252502103D

 53 58  0  0  0  0  0  0  0  0999 V2000
   37.3360   27.6690   40.5910 C   0  0  0  0  0  0  0  0  0  0  0  0
   36.9580   26.7600   41.5000 N   0  0  0  0  0  0  0  0  0  0  0  0
   37.2650   26.7900   42.7900 C   0  0  0  0  0  0  0  0  0  0  0  0
   38.0170   27.7930   43.2780 N   0  0  0  0  0  0  0  0  0  0  0  0
   38.4630   28.7710   42.4760 C   0  0  0  0  0  0  0  0  0  0  0  0
   39.2340   29.8030   42.9700 C   0  0  0  0  0  0  0  0  0  0  0  0
   39.6910   30.7990   42.1660 C   0  0  0  0  0  0  0  0  0  0  0  0
   39.3590   30.7500   40.8250 C   0  0  0  0  0  0  0  0  0  0  0  0
   38.5780   29.6860   40.3750 C   0  0  0  0  0  0  0  0  0  0  0  0
   38.1070   28.6810   41.1440 C   0  0  0  0  0  0  0  0  0  0  0  0
   36.9300   26.0250   43.4840 H   0  0  0  0  0  0  0  0  0  0  0  0
   39.4750   29.8100   44.0240 H   0  0  0  0  0  0  0  0  0  0  0  0
   40.2910   31.5890   42.5820 H   0  0  0  0  0  0  0  0  0  0  0  0
   37.8830   26.8260   37.1170 C   0  0  0  0  0  0  0  0  0  0  0  0
   36.7680   27.3030   36.4200 C   0  0  0  0  0  0  0  0  0  0  0  0
   35.7910   27.9210   37.1620 C   0  0  0  0  0  0  0  0  0  0  0  0
   35.9390   28.0420   38.4760 N   0  0  0  0  0  0  0  0  0  0  0  0
   36.9790   27.6040   39.1540 C   0  0  0  0  0  0  0  0  0  0  0  0
   37.9540   26.9880   38.4450 N   0  0  0  0  0  0  0  0  0  0  0  0
   34.6640   28.3970   36.5330 N   0  0  0  0  0  0  0  0  0  0  0  0
   33.4750   28.9310   37.2570 C   0  0  0  0  0  0  0  0  0  0  0  0
   32.6300   29.6060   36.2100 C   0  0  0  0  0  0  0  0  0  0  0  0
   32.9830   28.8630   34.9660 C   0  0  0  0  0  0  0  0  0  0  0  0
   34.4110   28.4700   35.1310 C   0  0  0  0  0  0  0  0  0  0  0  0
   38.6830   26.3250   36.5680 H   0  0  0  0  0  0  0  0  0  0  0  0
   32.9390   28.0990   37.7460 H   0  0  0  0  0  0  0  0  0  0  0  0
   33.8880   29.6460   38.0090 H   0  0  0  0  0  0  0  0  0  0  0  0
   32.8590   30.6730   36.0900 H   0  0  0  0  0  0  0  0  0  0  0  0
   31.5380   29.4920   36.4270 H   0  0  0  0  0  0  0  0  0  0  0  0
   32.2820   28.0060   34.8860 H   0  0  0  0  0  0  0  0  0  0  0  0
   32.8230   29.4800   34.0400 H   0  0  0  0  0  0  0  0  0  0  0  0
   34.4490   27.4660   34.6090 H   0  0  0  0  0  0  0  0  0  0  0  0
   35.0270   29.2030   34.6050 H   0  0  0  0  0  0  0  0  0  0  0  0
   36.7510   27.1480   35.0580 N   0  0  0  0  0  0  0  0  0  0  0  0
   36.4250   26.1430   34.9460 H   0  0  0  0  0  0  0  0  0  0  0  0
   37.0060   27.8700   34.3270 H   0  0  0  0  0  0  0  0  0  0  0  0
   39.8510   31.8040   40.0140 N   0  0  0  0  0  0  0  0  0  0  0  0
   39.5070   33.1160   39.9560 C   0  0  0  0  0  0  0  0  0  0  0  0
   38.7460   33.5410   40.5840 H   0  0  0  0  0  0  0  0  0  0  0  0
   40.2760   33.6980   39.0130 N   0  0  0  0  0  0  0  0  0  0  0  0
   41.1120   32.7850   38.4600 C   0  0  0  0  0  0  0  0  0  0  0  0
   42.0580   32.8970   37.4830 C   0  0  0  0  0  0  0  0  0  0  0  0
   42.7440   31.7970   37.1360 N   0  0  0  0  0  0  0  0  0  0  0  0
   42.4630   30.6260   37.7740 C   0  0  0  0  0  0  0  0  0  0  0  0
   42.9890   29.6890   37.5360 H   0  0  0  0  0  0  0  0  0  0  0  0
   41.5430   30.4810   38.7330 N   0  0  0  0  0  0  0  0  0  0  0  0
   40.8380   31.5710   39.1030 C   0  0  0  0  0  0  0  0  0  0  0  0
   42.3570   34.0970   36.8200 N   0  0  0  0  0  0  0  0  0  0  0  0
   42.3200   35.1030   37.0530 H   0  0  0  0  0  0  0  0  0  0  0  0
   42.7130   34.1850   35.8530 H   0  0  0  0  0  0  0  0  0  0  0  0
   38.3350   29.8010   38.9660 N   0  0  0  0  0  0  0  0  0  0  0  0
   38.8040   29.4360   38.1110 H   0  0  0  0  0  0  0  0  0  0  0  0
   37.4850   30.4090   38.9330 H   0  0  0  0  0  0  0  0  0  0  0  0
  1 10  2  0  0  0  0
  1  2  1  0  0  0  0
  2  3  2  0  0  0  0
  3  4  1  0  0  0  0
  3 11  1  0  0  0  0
  5  6  1  0  0  0  0
  5  4  2  0  0  0  0
  6 12  1  0  0  0  0
  7 13  1  0  0  0  0
  7  6  2  0  0  0  0
  8  7  1  0  0  0  0
  9  8  2  0  0  0  0
  9 10  1  0  0  0  0
 10  5  1  0  0  0  0
 14 19  1  0  0  0  0
 15 14  2  0  0  0  0
 15 16  1  0  0  0  0
 16 17  2  0  0  0  0
 17 18  1  0  0  0  0
 18  1  1  0  0  0  0
 19 18  2  0  0  0  0
 20 16  1  0  0  0  0
 20 21  1  0  0  0  0
 21 26  1  0  0  0  0
 21 27  1  0  0  0  0
 22 29  1  0  0  0  0
 22 21  1  0  0  0  0
 23 24  1  0  0  0  0
 23 22  1  0  0  0  0
 24 20  1  0  0  0  0
 25 14  1  0  0  0  0
 28 22  1  0  0  0  0
 30 23  1  0  0  0  0
 31 23  1  0  0  0  0
 32 24  1  0  0  0  0
 33 24  1  0  0  0  0
 34 15  1  0  0  0  0
 35 34  1  0  0  0  0
 36 34  1  0  0  0  0
 37  8  1  0  0  0  0
 38 37  1  0  0  0  0
 38 39  1  0  0  0  0
 40 38  2  0  0  0  0
 41 40  1  0  0  0  0
 41 47  1  0  0  0  0
 42 41  2  0  0  0  0
 43 42  1  0  0  0  0
 43 44  2  0  0  0  0
 44 46  1  0  0  0  0
 45 44  1  0  0  0  0
 46 47  2  0  0  0  0
 47 37  1  0  0  0  0
 48 49  1  0  0  0  0
 48 42  1  0  0  0  0
 50 48  1  0  0  0  0
 51  9  1  0  0  0  0
 52 51  1  0  0  0  0
 53 51  1  0  0  0  0
M  END
>  <minimizedAffinity>
-7.1300106

$$$$

 OpenBabel03252502103D

 53 58  0  0  0  0  0  0  0  0999 V2000
   34.8490   26.3560   37.2120 C   0  0  0  0  0  0  0  0  0  0  0  0
   33.7730   25.9690   36.5140 N   0  0  0  0  0  0  0  0  0  0  0  0
   33.1720   24.7910   36.6210 C   0  0  0  0  0  0  0  0  0  0  0  0
   33.6420   23.8730   37.4860 N   0  0  0  0  0  0  0  0  0  0  0  0
   34.7150   24.1330   38.2480 C   0  0  0  0  0  0  0  0  0  0  0  0
   35.2010   23.1960   39.1370 C   0  0  0  0  0  0  0  0  0  0  0  0
   36.2870   23.4480   39.9140 C   0  0  0  0  0  0  0  0  0  0  0  0
   36.8980   24.6820   39.7880 C   0  0  0  0  0  0  0  0  0  0  0  0
   36.3690   25.5930   38.8750 C   0  0  0  0  0  0  0  0  0  0  0  0
   35.2930   25.3770   38.0890 C   0  0  0  0  0  0  0  0  0  0  0  0
   32.3000   24.5290   36.0300 H   0  0  0  0  0  0  0  0  0  0  0  0
   34.6980   22.2420   39.2090 H   0  0  0  0  0  0  0  0  0  0  0  0
   36.6420   22.6970   40.5970 H   0  0  0  0  0  0  0  0  0  0  0  0
   36.5130   29.0030   35.3930 C   0  0  0  0  0  0  0  0  0  0  0  0
   36.8060   29.9970   36.3320 C   0  0  0  0  0  0  0  0  0  0  0  0
   36.4110   29.7630   37.6270 C   0  0  0  0  0  0  0  0  0  0  0  0
   35.7850   28.6310   37.9300 N   0  0  0  0  0  0  0  0  0  0  0  0
   35.5010   27.6800   37.0650 C   0  0  0  0  0  0  0  0  0  0  0  0
   35.8780   27.8890   35.7820 N   0  0  0  0  0  0  0  0  0  0  0  0
   36.6570   30.7110   38.5920 N   0  0  0  0  0  0  0  0  0  0  0  0
   36.1270   30.6350   39.9830 C   0  0  0  0  0  0  0  0  0  0  0  0
   36.8730   31.6860   40.7610 C   0  0  0  0  0  0  0  0  0  0  0  0
   37.2220   32.6910   39.7150 C   0  0  0  0  0  0  0  0  0  0  0  0
   37.4270   31.9060   38.4650 C   0  0  0  0  0  0  0  0  0  0  0  0
   36.8070   29.1480   34.3520 H   0  0  0  0  0  0  0  0  0  0  0  0
   35.0400   30.8240   39.9720 H   0  0  0  0  0  0  0  0  0  0  0  0
   36.3560   29.5970   40.3250 H   0  0  0  0  0  0  0  0  0  0  0  0
   37.7850   31.3060   41.2390 H   0  0  0  0  0  0  0  0  0  0  0  0
   36.2240   32.1570   41.5420 H   0  0  0  0  0  0  0  0  0  0  0  0
   36.3840   33.4160   39.6650 H   0  0  0  0  0  0  0  0  0  0  0  0
   38.1330   33.2900   39.9870 H   0  0  0  0  0  0  0  0  0  0  0  0
   37.0440   32.6130   37.6690 H   0  0  0  0  0  0  0  0  0  0  0  0
   38.4990   31.7340   38.3450 H   0  0  0  0  0  0  0  0  0  0  0  0
   37.4880   31.1040   35.8990 N   0  0  0  0  0  0  0  0  0  0  0  0
   36.7150   31.6960   35.4730 H   0  0  0  0  0  0  0  0  0  0  0  0
   38.5260   31.2920   35.9840 H   0  0  0  0  0  0  0  0  0  0  0  0
   38.0290   24.9130   40.6130 N   0  0  0  0  0  0  0  0  0  0  0  0
   39.2950   24.4280   40.5420 C   0  0  0  0  0  0  0  0  0  0  0  0
   39.6090   23.7460   39.7750 H   0  0  0  0  0  0  0  0  0  0  0  0
   39.9920   24.9580   41.5690 N   0  0  0  0  0  0  0  0  0  0  0  0
   39.1980   25.7780   42.3010 C   0  0  0  0  0  0  0  0  0  0  0  0
   39.4510   26.5250   43.4150 C   0  0  0  0  0  0  0  0  0  0  0  0
   38.4470   27.2540   43.9300 N   0  0  0  0  0  0  0  0  0  0  0  0
   37.2310   27.2110   43.3170 C   0  0  0  0  0  0  0  0  0  0  0  0
   36.3680   27.7840   43.6890 H   0  0  0  0  0  0  0  0  0  0  0  0
   36.9510   26.4900   42.2270 N   0  0  0  0  0  0  0  0  0  0  0  0
   37.9410   25.7480   41.6870 C   0  0  0  0  0  0  0  0  0  0  0  0
   40.6990   26.5780   44.0540 N   0  0  0  0  0  0  0  0  0  0  0  0
   41.6850   26.4750   43.7650 H   0  0  0  0  0  0  0  0  0  0  0  0
   40.8590   26.7510   45.0600 H   0  0  0  0  0  0  0  0  0  0  0  0
   37.1280   26.8100   38.8820 N   0  0  0  0  0  0  0  0  0  0  0  0
   37.9340   27.1720   38.3300 H   0  0  0  0  0  0  0  0  0  0  0  0
   36.6750   27.3530   39.6510 H   0  0  0  0  0  0  0  0  0  0  0  0
  1 10  1  0  0  0  0
  2  3  1  0  0  0  0
  2  1  2  0  0  0  0
  3  4  2  0  0  0  0
  4  5  1  0  0  0  0
  5  6  1  0  0  0  0
  6 12  1  0  0  0  0
  6  7  2  0  0  0  0
  7 13  1  0  0  0  0
  8  7  1  0  0  0  0
  8 37  1  0  0  0  0
  9 51  1  0  0  0  0
  9  8  2  0  0  0  0
 10  5  2  0  0  0  0
 10  9  1  0  0  0  0
 11  3  1  0  0  0  0
 14 19  2  0  0  0  0
 14 15  1  0  0  0  0
 15 16  2  0  0  0  0
 16 17  1  0  0  0  0
 16 20  1  0  0  0  0
 18  1  1  0  0  0  0
 18 17  2  0  0  0  0
 19 18  1  0  0  0  0
 20 21  1  0  0  0  0
 21 27  1  0  0  0  0
 21 22  1  0  0  0  0
 22 28  1  0  0  0  0
 22 29  1  0  0  0  0
 23 31  1  0  0  0  0
 23 22  1  0  0  0  0
 24 20  1  0  0  0  0
 24 23  1  0  0  0  0
 25 14  1  0  0  0  0
 26 21  1  0  0  0  0
 30 23  1  0  0  0  0
 32 24  1  0  0  0  0
 33 24  1  0  0  0  0
 34 36  1  0  0  0  0
 34 15  1  0  0  0  0
 35 34  1  0  0  0  0
 37 47  1  0  0  0  0
 38 37  1  0  0  0  0
 38 40  2  0  0  0  0
 39 38  1  0  0  0  0
 40 41  1  0  0  0  0
 41 42  1  0  0  0  0
 42 43  2  0  0  0  0
 42 48  1  0  0  0  0
 44 45  1  0  0  0  0
 44 43  1  0  0  0  0
 46 44  2  0  0  0  0
 47 46  1  0  0  0  0
 47 41  2  0  0  0  0
 48 50  1  0  0  0  0
 49 48  1  0  0  0  0
 51 53  1  0  0  0  0
 52 51  1  0  0  0  0
M  END
>  <minimizedAffinity>
-6.92878962

$$$$

 OpenBabel03252502103D

 53 58  0  0  0  0  0  0  0  0999 V2000
   38.5620   27.7850   41.8290 C   0  0  0  0  0  0  0  0  0  0  0  0
   38.5510   26.7780   42.7120 N   0  0  0  0  0  0  0  0  0  0  0  0
   39.4830   26.5490   43.6280 C   0  0  0  0  0  0  0  0  0  0  0  0
   40.5490   27.3660   43.7190 N   0  0  0  0  0  0  0  0  0  0  0  0
   40.6840   28.4140   42.8940 C   0  0  0  0  0  0  0  0  0  0  0  0
   41.7750   29.2550   42.9820 C   0  0  0  0  0  0  0  0  0  0  0  0
   41.9220   30.3200   42.1510 C   0  0  0  0  0  0  0  0  0  0  0  0
   40.9390   30.5410   41.2050 C   0  0  0  0  0  0  0  0  0  0  0  0
   39.8580   29.6630   41.1560 C   0  0  0  0  0  0  0  0  0  0  0  0
   39.6790   28.5960   41.9640 C   0  0  0  0  0  0  0  0  0  0  0  0
   39.4230   25.7160   44.3220 H   0  0  0  0  0  0  0  0  0  0  0  0
   42.5240   29.0520   43.7340 H   0  0  0  0  0  0  0  0  0  0  0  0
   42.7840   30.9570   42.2450 H   0  0  0  0  0  0  0  0  0  0  0  0
   35.4040   29.0670   40.6190 C   0  0  0  0  0  0  0  0  0  0  0  0
   35.2880   28.6330   39.2940 C   0  0  0  0  0  0  0  0  0  0  0  0
   36.3290   27.8890   38.7930 C   0  0  0  0  0  0  0  0  0  0  0  0
   37.3750   27.6150   39.5640 N   0  0  0  0  0  0  0  0  0  0  0  0
   37.5050   28.0100   40.8130 C   0  0  0  0  0  0  0  0  0  0  0  0
   36.4930   28.7470   41.3290 N   0  0  0  0  0  0  0  0  0  0  0  0
   36.2790   27.4480   37.4910 N   0  0  0  0  0  0  0  0  0  0  0  0
   37.4190   26.7820   36.7980 C   0  0  0  0  0  0  0  0  0  0  0  0
   36.8440   26.2060   35.5310 C   0  0  0  0  0  0  0  0  0  0  0  0
   35.6920   27.1090   35.2460 C   0  0  0  0  0  0  0  0  0  0  0  0
   35.1840   27.5360   36.5810 C   0  0  0  0  0  0  0  0  0  0  0  0
   34.6010   29.6620   41.0580 H   0  0  0  0  0  0  0  0  0  0  0  0
   38.2080   27.5260   36.5920 H   0  0  0  0  0  0  0  0  0  0  0  0
   37.7750   25.9980   37.5100 H   0  0  0  0  0  0  0  0  0  0  0  0
   36.4940   25.1710   35.6460 H   0  0  0  0  0  0  0  0  0  0  0  0
   37.5810   26.2480   34.6900 H   0  0  0  0  0  0  0  0  0  0  0  0
   36.0740   27.9390   34.6180 H   0  0  0  0  0  0  0  0  0  0  0  0
   34.8940   26.6030   34.6370 H   0  0  0  0  0  0  0  0  0  0  0  0
   34.8420   28.5970   36.3820 H   0  0  0  0  0  0  0  0  0  0  0  0
   34.3360   26.8990   36.8410 H   0  0  0  0  0  0  0  0  0  0  0  0
   34.1410   28.9520   38.6150 N   0  0  0  0  0  0  0  0  0  0  0  0
   34.3320   29.9490   38.3000 H   0  0  0  0  0  0  0  0  0  0  0  0
   33.2950   28.3360   38.4600 H   0  0  0  0  0  0  0  0  0  0  0  0
   41.1220   31.6610   40.3540 N   0  0  0  0  0  0  0  0  0  0  0  0
   40.6590   32.9340   40.4480 C   0  0  0  0  0  0  0  0  0  0  0  0
   40.0400   33.2630   41.2610 H   0  0  0  0  0  0  0  0  0  0  0  0
   41.1200   33.6150   39.3780 N   0  0  0  0  0  0  0  0  0  0  0  0
   41.8740   32.8050   38.5950 C   0  0  0  0  0  0  0  0  0  0  0  0
   42.5390   33.0370   37.4270 C   0  0  0  0  0  0  0  0  0  0  0  0
   43.2150   32.0200   36.8690 N   0  0  0  0  0  0  0  0  0  0  0  0
   43.2040   30.8100   37.4960 C   0  0  0  0  0  0  0  0  0  0  0  0
   43.7370   29.9360   37.0900 H   0  0  0  0  0  0  0  0  0  0  0  0
   42.5620   30.5480   38.6390 N   0  0  0  0  0  0  0  0  0  0  0  0
   41.8740   31.5530   39.2220 C   0  0  0  0  0  0  0  0  0  0  0  0
   42.5590   34.2790   36.7730 N   0  0  0  0  0  0  0  0  0  0  0  0
   42.4910   35.2690   37.0590 H   0  0  0  0  0  0  0  0  0  0  0  0
   42.6590   34.4280   35.7550 H   0  0  0  0  0  0  0  0  0  0  0  0
   38.9440   30.0470   40.1190 N   0  0  0  0  0  0  0  0  0  0  0  0
   38.8240   29.7880   39.1170 H   0  0  0  0  0  0  0  0  0  0  0  0
   38.3300   30.7390   40.6050 H   0  0  0  0  0  0  0  0  0  0  0  0
  1 10  2  0  0  0  0
  1  2  1  0  0  0  0
  2  3  2  0  0  0  0
  3  4  1  0  0  0  0
  3 11  1  0  0  0  0
  5  6  1  0  0  0  0
  5  4  2  0  0  0  0
  6 12  1  0  0  0  0
  7 13  1  0  0  0  0
  7  6  2  0  0  0  0
  8  7  1  0  0  0  0
  9  8  2  0  0  0  0
  9 10  1  0  0  0  0
 10  5  1  0  0  0  0
 14 25  1  0  0  0  0
 14 19  1  0  0  0  0
 15 14  2  0  0  0  0
 16 15  1  0  0  0  0
 16 17  2  0  0  0  0
 17 18  1  0  0  0  0
 18 19  2  0  0  0  0
 18  1  1  0  0  0  0
 20 16  1  0  0  0  0
 21 20  1  0  0  0  0
 21 27  1  0  0  0  0
 22 28  1  0  0  0  0
 22 21  1  0  0  0  0
 23 22  1  0  0  0  0
 23 24  1  0  0  0  0
 24 33  1  0  0  0  0
 24 20  1  0  0  0  0
 26 21  1  0  0  0  0
 29 22  1  0  0  0  0
 30 23  1  0  0  0  0
 31 23  1  0  0  0  0
 32 24  1  0  0  0  0
 34 15  1  0  0  0  0
 35 34  1  0  0  0  0
 36 34  1  0  0  0  0
 37 38  1  0  0  0  0
 37  8  1  0  0  0  0
 38 39  1  0  0  0  0
 40 38  2  0  0  0  0
 41 47  1  0  0  0  0
 41 40  1  0  0  0  0
 42 41  2  0  0  0  0
 43 42  1  0  0  0  0
 43 44  2  0  0  0  0
 44 46  1  0  0  0  0
 45 44  1  0  0  0  0
 46 47  2  0  0  0  0
 47 37  1  0  0  0  0
 48 49  1  0  0  0  0
 48 42  1  0  0  0  0
 50 48  1  0  0  0  0
 51 53  1  0  0  0  0
 51  9  1  0  0  0  0
 52 51  1  0  0  0  0
M  END
>  <minimizedAffinity>
-6.90465307

$$$$

 OpenBabel03252502103D

 53 58  0  0  0  0  0  0  0  0999 V2000
   38.9340   27.3680   41.8000 C   0  0  0  0  0  0  0  0  0  0  0  0
   38.0070   26.8720   42.6300 N   0  0  0  0  0  0  0  0  0  0  0  0
   36.8260   27.4220   42.8800 C   0  0  0  0  0  0  0  0  0  0  0  0
   36.4810   28.5740   42.2770 N   0  0  0  0  0  0  0  0  0  0  0  0
   37.3170   29.1790   41.4200 C   0  0  0  0  0  0  0  0  0  0  0  0
   36.9690   30.3600   40.7980 C   0  0  0  0  0  0  0  0  0  0  0  0
   37.8080   30.9810   39.9280 C   0  0  0  0  0  0  0  0  0  0  0  0
   39.0330   30.3910   39.6810 C   0  0  0  0  0  0  0  0  0  0  0  0
   39.3380   29.1980   40.3350 C   0  0  0  0  0  0  0  0  0  0  0  0
   38.5300   28.5540   41.2040 C   0  0  0  0  0  0  0  0  0  0  0  0
   36.1110   26.9750   43.5640 H   0  0  0  0  0  0  0  0  0  0  0  0
   36.0020   30.7930   41.0150 H   0  0  0  0  0  0  0  0  0  0  0  0
   37.5070   31.9010   39.4590 H   0  0  0  0  0  0  0  0  0  0  0  0
   42.4240   26.6870   42.4590 C   0  0  0  0  0  0  0  0  0  0  0  0
   42.8530   25.8280   41.4410 C   0  0  0  0  0  0  0  0  0  0  0  0
   41.9160   25.4580   40.5060 C   0  0  0  0  0  0  0  0  0  0  0  0
   40.6740   25.9200   40.6000 N   0  0  0  0  0  0  0  0  0  0  0  0
   40.2480   26.7300   41.5460 C   0  0  0  0  0  0  0  0  0  0  0  0
   41.1520   27.1070   42.4810 N   0  0  0  0  0  0  0  0  0  0  0  0
   42.2740   24.6030   39.4910 N   0  0  0  0  0  0  0  0  0  0  0  0
   41.3050   24.0080   38.5280 C   0  0  0  0  0  0  0  0  0  0  0  0
   42.1400   23.4000   37.4330 C   0  0  0  0  0  0  0  0  0  0  0  0
   43.4180   23.0740   38.1290 C   0  0  0  0  0  0  0  0  0  0  0  0
   43.5810   24.1280   39.1710 C   0  0  0  0  0  0  0  0  0  0  0  0
   43.1350   27.0050   43.2240 H   0  0  0  0  0  0  0  0  0  0  0  0
   40.6900   23.2520   39.0460 H   0  0  0  0  0  0  0  0  0  0  0  0
   40.6820   24.8660   38.1750 H   0  0  0  0  0  0  0  0  0  0  0  0
   42.3290   24.0890   36.5990 H   0  0  0  0  0  0  0  0  0  0  0  0
   41.6730   22.4650   37.0310 H   0  0  0  0  0  0  0  0  0  0  0  0
   43.3180   22.0460   38.5340 H   0  0  0  0  0  0  0  0  0  0  0  0
   44.2920   23.0450   37.4240 H   0  0  0  0  0  0  0  0  0  0  0  0
   44.0790   23.5610   40.0140 H   0  0  0  0  0  0  0  0  0  0  0  0
   44.2490   24.8960   38.7740 H   0  0  0  0  0  0  0  0  0  0  0  0
   44.1700   25.4510   41.4360 N   0  0  0  0  0  0  0  0  0  0  0  0
   44.1850   24.6610   42.1460 H   0  0  0  0  0  0  0  0  0  0  0  0
   44.9530   25.8640   40.8560 H   0  0  0  0  0  0  0  0  0  0  0  0
   39.8850   31.0640   38.7680 N   0  0  0  0  0  0  0  0  0  0  0  0
   40.3500   30.6940   37.5470 C   0  0  0  0  0  0  0  0  0  0  0  0
   40.0960   29.7540   37.0950 H   0  0  0  0  0  0  0  0  0  0  0  0
   41.1300   31.6940   37.0880 N   0  0  0  0  0  0  0  0  0  0  0  0
   41.1770   32.7050   37.9900 C   0  0  0  0  0  0  0  0  0  0  0  0
   41.8260   33.9050   37.9720 C   0  0  0  0  0  0  0  0  0  0  0  0
   41.6830   34.7180   39.0310 N   0  0  0  0  0  0  0  0  0  0  0  0
   40.9020   34.3050   40.0680 C   0  0  0  0  0  0  0  0  0  0  0  0
   40.7440   34.9240   40.9650 H   0  0  0  0  0  0  0  0  0  0  0  0
   40.2540   33.1370   40.1180 N   0  0  0  0  0  0  0  0  0  0  0  0
   40.3790   32.2990   39.0660 C   0  0  0  0  0  0  0  0  0  0  0  0
   42.6320   34.3420   36.9100 N   0  0  0  0  0  0  0  0  0  0  0  0
   42.6650   34.1850   35.8900 H   0  0  0  0  0  0  0  0  0  0  0  0
   43.4410   34.9810   36.9850 H   0  0  0  0  0  0  0  0  0  0  0  0
   40.6430   28.7360   39.9570 N   0  0  0  0  0  0  0  0  0  0  0  0
   41.6010   28.8540   40.3470 H   0  0  0  0  0  0  0  0  0  0  0  0
   40.4440   28.1840   39.0920 H   0  0  0  0  0  0  0  0  0  0  0  0
  1  2  1  0  0  0  0
  2  3  2  0  0  0  0
  3 11  1  0  0  0  0
  4  3  1  0  0  0  0
  5  4  2  0  0  0  0
  6 12  1  0  0  0  0
  6  5  1  0  0  0  0
  7  6  2  0  0  0  0
  8  7  1  0  0  0  0
  8  9  2  0  0  0  0
  9 10  1  0  0  0  0
 10  5  1  0  0  0  0
 10  1  2  0  0  0  0
 13  7  1  0  0  0  0
 14 19  1  0  0  0  0
 14 25  1  0  0  0  0
 15 14  2  0  0  0  0
 16 17  2  0  0  0  0
 16 15  1  0  0  0  0
 17 18  1  0  0  0  0
 18  1  1  0  0  0  0
 18 19  2  0  0  0  0
 20 16  1  0  0  0  0
 21 26  1  0  0  0  0
 21 20  1  0  0  0  0
 22 23  1  0  0  0  0
 22 21  1  0  0  0  0
 23 30  1  0  0  0  0
 23 24  1  0  0  0  0
 24 20  1  0  0  0  0
 24 32  1  0  0  0  0
 27 21  1  0  0  0  0
 28 22  1  0  0  0  0
 29 22  1  0  0  0  0
 31 23  1  0  0  0  0
 33 24  1  0  0  0  0
 34 15  1  0  0  0  0
 34 35  1  0  0  0  0
 36 34  1  0  0  0  0
 37 47  1  0  0  0  0
 37  8  1  0  0  0  0
 38 37  1  0  0  0  0
 39 38  1  0  0  0  0
 40 38  2  0  0  0  0
 40 41  1  0  0  0  0
 41 47  1  0  0  0  0
 42 41  2  0  0  0  0
 42 43  1  0  0  0  0
 43 44  2  0  0  0  0
 44 46  1  0  0  0  0
 44 45  1  0  0  0  0
 47 46  2  0  0  0  0
 48 50  1  0  0  0  0
 48 42  1  0  0  0  0
 49 48  1  0  0  0  0
 51  9  1  0  0  0  0
 51 52  1  0  0  0  0
 53 51  1  0  0  0  0
M  END
>  <minimizedAffinity>
-6.84771538

$$$$

 OpenBabel03252502103D

 53 58  0  0  0  0  0  0  0  0999 V2000
   37.2280   29.6530   37.7260 C   0  0  0  0  0  0  0  0  0  0  0  0
   36.2100   29.8160   36.8700 N   0  0  0  0  0  0  0  0  0  0  0  0
   35.6590   28.8550   36.1400 C   0  0  0  0  0  0  0  0  0  0  0  0
   36.1250   27.5950   36.2280 N   0  0  0  0  0  0  0  0  0  0  0  0
   37.1430   27.2940   37.0470 C   0  0  0  0  0  0  0  0  0  0  0  0
   37.6250   26.0040   37.1420 C   0  0  0  0  0  0  0  0  0  0  0  0
   38.6550   25.6870   37.9690 C   0  0  0  0  0  0  0  0  0  0  0  0
   39.2140   26.7030   38.7210 C   0  0  0  0  0  0  0  0  0  0  0  0
   38.6920   27.9890   38.5900 C   0  0  0  0  0  0  0  0  0  0  0  0
   37.6700   28.3390   37.7790 C   0  0  0  0  0  0  0  0  0  0  0  0
   34.8330   29.0430   35.4610 H   0  0  0  0  0  0  0  0  0  0  0  0
   37.1640   25.2350   36.5380 H   0  0  0  0  0  0  0  0  0  0  0  0
   39.0080   24.6730   38.0200 H   0  0  0  0  0  0  0  0  0  0  0  0
   37.4150   31.9390   40.5220 C   0  0  0  0  0  0  0  0  0  0  0  0
   38.5330   32.7470   40.2920 C   0  0  0  0  0  0  0  0  0  0  0  0
   39.2560   32.4950   39.1510 C   0  0  0  0  0  0  0  0  0  0  0  0
   38.8730   31.5220   38.3300 N   0  0  0  0  0  0  0  0  0  0  0  0
   37.8240   30.7510   38.5240 C   0  0  0  0  0  0  0  0  0  0  0  0
   37.0980   30.9790   39.6440 N   0  0  0  0  0  0  0  0  0  0  0  0
   40.3750   33.2460   38.8790 N   0  0  0  0  0  0  0  0  0  0  0  0
   41.3200   32.9500   37.7650 C   0  0  0  0  0  0  0  0  0  0  0  0
   42.2020   34.1650   37.6460 C   0  0  0  0  0  0  0  0  0  0  0  0
   42.1900   34.7230   39.0280 C   0  0  0  0  0  0  0  0  0  0  0  0
   40.8400   34.4020   39.5740 C   0  0  0  0  0  0  0  0  0  0  0  0
   36.8120   32.1030   41.4180 H   0  0  0  0  0  0  0  0  0  0  0  0
   41.9000   32.0430   38.0070 H   0  0  0  0  0  0  0  0  0  0  0  0
   40.6740   32.7930   36.8680 H   0  0  0  0  0  0  0  0  0  0  0  0
   41.8190   34.9100   36.9340 H   0  0  0  0  0  0  0  0  0  0  0  0
   43.2460   33.8880   37.3530 H   0  0  0  0  0  0  0  0  0  0  0  0
   43.0280   34.2510   39.5800 H   0  0  0  0  0  0  0  0  0  0  0  0
   42.3950   35.8280   39.0440 H   0  0  0  0  0  0  0  0  0  0  0  0
   41.0590   34.2170   40.6690 H   0  0  0  0  0  0  0  0  0  0  0  0
   40.2060   35.2820   39.4500 H   0  0  0  0  0  0  0  0  0  0  0  0
   38.8010   33.7410   41.1970 N   0  0  0  0  0  0  0  0  0  0  0  0
   39.3060   33.2160   41.9700 H   0  0  0  0  0  0  0  0  0  0  0  0
   38.5530   34.7660   41.1150 H   0  0  0  0  0  0  0  0  0  0  0  0
   40.2870   26.3400   39.5750 N   0  0  0  0  0  0  0  0  0  0  0  0
   41.6300   26.3810   39.3810 C   0  0  0  0  0  0  0  0  0  0  0  0
   42.0700   26.7300   38.4660 H   0  0  0  0  0  0  0  0  0  0  0  0
   42.2180   25.9230   40.5060 N   0  0  0  0  0  0  0  0  0  0  0  0
   41.2790   25.5870   41.4230 C   0  0  0  0  0  0  0  0  0  0  0  0
   41.3860   25.0860   42.6880 C   0  0  0  0  0  0  0  0  0  0  0  0
   40.2560   24.8460   43.3730 N   0  0  0  0  0  0  0  0  0  0  0  0
   39.0630   25.1140   42.7730 C   0  0  0  0  0  0  0  0  0  0  0  0
   38.1010   24.9400   43.2800 H   0  0  0  0  0  0  0  0  0  0  0  0
   38.9220   25.6030   41.5370 N   0  0  0  0  0  0  0  0  0  0  0  0
   40.0410   25.8550   40.8250 C   0  0  0  0  0  0  0  0  0  0  0  0
   42.6100   24.8080   43.3170 N   0  0  0  0  0  0  0  0  0  0  0  0
   43.5720   25.1780   43.2630 H   0  0  0  0  0  0  0  0  0  0  0  0
   42.7710   24.0840   44.0370 H   0  0  0  0  0  0  0  0  0  0  0  0
   39.3920   28.9060   39.4430 N   0  0  0  0  0  0  0  0  0  0  0  0
   40.2080   29.5410   39.3190 H   0  0  0  0  0  0  0  0  0  0  0  0
   38.8740   28.8140   40.3460 H   0  0  0  0  0  0  0  0  0  0  0  0
  1 10  1  0  0  0  0
  1 18  1  0  0  0  0
  2  1  2  0  0  0  0
  3  4  2  0  0  0  0
  3  2  1  0  0  0  0
  4  5  1  0  0  0  0
  5  6  2  0  0  0  0
  5 10  1  0  0  0  0
  6  7  1  0  0  0  0
  7 13  1  0  0  0  0
  7  8  2  0  0  0  0
  8 37  1  0  0  0  0
  9  8  1  0  0  0  0
  9 51  1  0  0  0  0
 10  9  2  0  0  0  0
 11  3  1  0  0  0  0
 12  6  1  0  0  0  0
 14 25  1  0  0  0  0
 15 14  1  0  0  0  0
 15 34  1  0  0  0  0
 16 15  2  0  0  0  0
 17 18  2  0  0  0  0
 17 16  1  0  0  0  0
 18 19  1  0  0  0  0
 19 14  2  0  0  0  0
 20 16  1  0  0  0  0
 20 24  1  0  0  0  0
 21 26  1  0  0  0  0
 21 20  1  0  0  0  0
 22 21  1  0  0  0  0
 22 23  1  0  0  0  0
 23 31  1  0  0  0  0
 23 24  1  0  0  0  0
 23 30  1  0  0  0  0
 24 32  1  0  0  0  0
 27 21  1  0  0  0  0
 28 22  1  0  0  0  0
 29 22  1  0  0  0  0
 33 24  1  0  0  0  0
 34 35  1  0  0  0  0
 36 34  1  0  0  0  0
 37 47  1  0  0  0  0
 38 37  1  0  0  0  0
 38 40  2  0  0  0  0
 39 38  1  0  0  0  0
 40 41  1  0  0  0  0
 41 42  1  0  0  0  0
 42 48  1  0  0  0  0
 42 43  2  0  0  0  0
 44 45  1  0  0  0  0
 44 43  1  0  0  0  0
 46 44  2  0  0  0  0
 47 41  2  0  0  0  0
 47 46  1  0  0  0  0
 48 50  1  0  0  0  0
 49 48  1  0  0  0  0
 51 53  1  0  0  0  0
 52 51  1  0  0  0  0
M  END
>  <minimizedAffinity>
-6.83409166

$$$$

 OpenBabel03252502103D

 53 58  0  0  0  0  0  0  0  0999 V2000
   37.4650   30.7490   37.3780 C   0  0  0  0  0  0  0  0  0  0  0  0
   37.0890   31.0500   36.1280 N   0  0  0  0  0  0  0  0  0  0  0  0
   36.5750   30.1960   35.2530 C   0  0  0  0  0  0  0  0  0  0  0  0
   36.3960   28.9080   35.5990 N   0  0  0  0  0  0  0  0  0  0  0  0
   36.7300   28.4710   36.8220 C   0  0  0  0  0  0  0  0  0  0  0  0
   36.5490   27.1520   37.1830 C   0  0  0  0  0  0  0  0  0  0  0  0
   36.8830   26.6980   38.4190 C   0  0  0  0  0  0  0  0  0  0  0  0
   37.4170   27.6050   39.3160 C   0  0  0  0  0  0  0  0  0  0  0  0
   37.5810   28.9270   38.9030 C   0  0  0  0  0  0  0  0  0  0  0  0
   37.2600   29.4110   37.6850 C   0  0  0  0  0  0  0  0  0  0  0  0
   36.2870   30.4950   34.2500 H   0  0  0  0  0  0  0  0  0  0  0  0
   36.1290   26.4700   36.4560 H   0  0  0  0  0  0  0  0  0  0  0  0
   36.7300   25.6640   38.6700 H   0  0  0  0  0  0  0  0  0  0  0  0
   37.3230   33.3070   39.9310 C   0  0  0  0  0  0  0  0  0  0  0  0
   38.6480   33.6770   40.1850 C   0  0  0  0  0  0  0  0  0  0  0  0
   39.6230   33.0230   39.4720 C   0  0  0  0  0  0  0  0  0  0  0  0
   39.2800   32.0910   38.5890 N   0  0  0  0  0  0  0  0  0  0  0  0
   38.0420   31.7270   38.3300 C   0  0  0  0  0  0  0  0  0  0  0  0
   37.0630   32.3560   39.0230 N   0  0  0  0  0  0  0  0  0  0  0  0
   40.9450   33.3340   39.6910 N   0  0  0  0  0  0  0  0  0  0  0  0
   42.0820   32.5750   39.0990 C   0  0  0  0  0  0  0  0  0  0  0  0
   43.3060   33.4180   39.3430 C   0  0  0  0  0  0  0  0  0  0  0  0
   42.9460   34.1800   40.5730 C   0  0  0  0  0  0  0  0  0  0  0  0
   41.4720   34.3900   40.4930 C   0  0  0  0  0  0  0  0  0  0  0  0
   36.5160   33.7990   40.4760 H   0  0  0  0  0  0  0  0  0  0  0  0
   42.1590   31.5880   39.5870 H   0  0  0  0  0  0  0  0  0  0  0  0
   41.8330   32.4740   38.0150 H   0  0  0  0  0  0  0  0  0  0  0  0
   43.5250   34.1120   38.5200 H   0  0  0  0  0  0  0  0  0  0  0  0
   44.2090   32.7860   39.5350 H   0  0  0  0  0  0  0  0  0  0  0  0
   43.2720   33.5730   41.4420 H   0  0  0  0  0  0  0  0  0  0  0  0
   43.5020   35.1530   40.6510 H   0  0  0  0  0  0  0  0  0  0  0  0
   41.1590   34.3360   41.5790 H   0  0  0  0  0  0  0  0  0  0  0  0
   41.2930   35.3880   40.0880 H   0  0  0  0  0  0  0  0  0  0  0  0
   38.8670   34.6790   41.0950 N   0  0  0  0  0  0  0  0  0  0  0  0
   38.8050   34.1630   42.0220 H   0  0  0  0  0  0  0  0  0  0  0  0
   39.0510   35.7010   40.8920 H   0  0  0  0  0  0  0  0  0  0  0  0
   37.7550   27.1010   40.5980 N   0  0  0  0  0  0  0  0  0  0  0  0
   37.0350   27.0400   41.7480 C   0  0  0  0  0  0  0  0  0  0  0  0
   36.0280   27.4060   41.8170 H   0  0  0  0  0  0  0  0  0  0  0  0
   37.8160   26.4670   42.6870 N   0  0  0  0  0  0  0  0  0  0  0  0
   39.0270   26.1540   42.1640 C   0  0  0  0  0  0  0  0  0  0  0  0
   40.1300   25.5710   42.7170 C   0  0  0  0  0  0  0  0  0  0  0  0
   41.2070   25.3860   41.9380 N   0  0  0  0  0  0  0  0  0  0  0  0
   41.1460   25.7880   40.6380 C   0  0  0  0  0  0  0  0  0  0  0  0
   41.9950   25.6650   39.9470 H   0  0  0  0  0  0  0  0  0  0  0  0
   40.0840   26.3630   40.0650 N   0  0  0  0  0  0  0  0  0  0  0  0
   38.9860   26.5620   40.8250 C   0  0  0  0  0  0  0  0  0  0  0  0
   40.2030   25.1510   44.0550 N   0  0  0  0  0  0  0  0  0  0  0  0
   39.5320   24.8140   44.7640 H   0  0  0  0  0  0  0  0  0  0  0  0
   41.0600   25.1050   44.6300 H   0  0  0  0  0  0  0  0  0  0  0  0
   38.1440   29.7180   39.9600 N   0  0  0  0  0  0  0  0  0  0  0  0
   39.1100   29.9910   40.2330 H   0  0  0  0  0  0  0  0  0  0  0  0
   37.2960   30.0140   40.4940 H   0  0  0  0  0  0  0  0  0  0  0  0
  1 10  1  0  0  0  0
  1 18  1  0  0  0  0
  2  1  2  0  0  0  0
  3  4  2  0  0  0  0
  3  2  1  0  0  0  0
  4  5  1  0  0  0  0
  5  6  2  0  0  0  0
  5 10  1  0  0  0  0
  6  7  1  0  0  0  0
  7 13  1  0  0  0  0
  7  8  2  0  0  0  0
  8 37  1  0  0  0  0
  9  8  1  0  0  0  0
  9 51  1  0  0  0  0
 10  9  2  0  0  0  0
 11  3  1  0  0  0  0
 12  6  1  0  0  0  0
 14 15  1  0  0  0  0
 14 25  1  0  0  0  0
 15 34  1  0  0  0  0
 16 20  1  0  0  0  0
 16 15  2  0  0  0  0
 17 16  1  0  0  0  0
 18 17  2  0  0  0  0
 18 19  1  0  0  0  0
 19 14  2  0  0  0  0
 20 24  1  0  0  0  0
 21 22  1  0  0  0  0
 21 26  1  0  0  0  0
 21 20  1  0  0  0  0
 22 29  1  0  0  0  0
 22 23  1  0  0  0  0
 23 31  1  0  0  0  0
 23 30  1  0  0  0  0
 24 23  1  0  0  0  0
 24 32  1  0  0  0  0
 27 21  1  0  0  0  0
 28 22  1  0  0  0  0
 33 24  1  0  0  0  0
 34 35  1  0  0  0  0
 36 34  1  0  0  0  0
 37 47  1  0  0  0  0
 37 38  1  0  0  0  0
 38 39  1  0  0  0  0
 38 40  2  0  0  0  0
 41 40  1  0  0  0  0
 41 42  1  0  0  0  0
 42 48  1  0  0  0  0
 43 42  2  0  0  0  0
 44 43  1  0  0  0  0
 45 44  1  0  0  0  0
 46 44  2  0  0  0  0
 46 47  1  0  0  0  0
 47 41  2  0  0  0  0
 48 50  1  0  0  0  0
 48 49  1  0  0  0  0
 51 52  1  0  0  0  0
 51 53  1  0  0  0  0
M  END
>  <minimizedAffinity>
-6.79034948

$$$$

 OpenBabel03252502103D

 53 58  0  0  0  0  0  0  0  0999 V2000
   40.0080   32.4580   39.8730 C   0  0  0  0  0  0  0  0  0  0  0  0
   39.6960   33.7590   39.7940 N   0  0  0  0  0  0  0  0  0  0  0  0
   38.4830   34.2690   39.9560 C   0  0  0  0  0  0  0  0  0  0  0  0
   37.4430   33.4570   40.2210 N   0  0  0  0  0  0  0  0  0  0  0  0
   37.6150   32.1310   40.3260 C   0  0  0  0  0  0  0  0  0  0  0  0
   36.5540   31.2930   40.5990 C   0  0  0  0  0  0  0  0  0  0  0  0
   36.7170   29.9480   40.7080 C   0  0  0  0  0  0  0  0  0  0  0  0
   37.9900   29.4370   40.5370 C   0  0  0  0  0  0  0  0  0  0  0  0
   39.0290   30.3250   40.2630 C   0  0  0  0  0  0  0  0  0  0  0  0
   38.9030   31.6650   40.1480 C   0  0  0  0  0  0  0  0  0  0  0  0
   38.2870   35.3340   39.8820 H   0  0  0  0  0  0  0  0  0  0  0  0
   35.5720   31.7280   40.7260 H   0  0  0  0  0  0  0  0  0  0  0  0
   35.8690   29.3220   40.9210 H   0  0  0  0  0  0  0  0  0  0  0  0
   43.3260   31.4960   40.9420 C   0  0  0  0  0  0  0  0  0  0  0  0
   43.9900   31.0450   39.7960 C   0  0  0  0  0  0  0  0  0  0  0  0
   43.2770   31.0570   38.6220 C   0  0  0  0  0  0  0  0  0  0  0  0
   42.0200   31.4880   38.6180 N   0  0  0  0  0  0  0  0  0  0  0  0
   41.3760   31.9190   39.6820 C   0  0  0  0  0  0  0  0  0  0  0  0
   42.0570   31.9140   40.8520 N   0  0  0  0  0  0  0  0  0  0  0  0
   43.8720   30.6110   37.4650 N   0  0  0  0  0  0  0  0  0  0  0  0
   43.1430   30.4240   36.1780 C   0  0  0  0  0  0  0  0  0  0  0  0
   44.2080   30.2240   35.1330 C   0  0  0  0  0  0  0  0  0  0  0  0
   45.3360   29.6390   35.9130 C   0  0  0  0  0  0  0  0  0  0  0  0
   45.2370   30.2480   37.2700 C   0  0  0  0  0  0  0  0  0  0  0  0
   43.8540   31.5020   41.8980 H   0  0  0  0  0  0  0  0  0  0  0  0
   42.4750   29.5490   36.2580 H   0  0  0  0  0  0  0  0  0  0  0  0
   42.5620   31.3670   36.0330 H   0  0  0  0  0  0  0  0  0  0  0  0
   44.5250   31.1600   34.6530 H   0  0  0  0  0  0  0  0  0  0  0  0
   43.8770   29.5060   34.3410 H   0  0  0  0  0  0  0  0  0  0  0  0
   45.2080   28.5370   35.8980 H   0  0  0  0  0  0  0  0  0  0  0  0
   46.3340   29.8400   35.4360 H   0  0  0  0  0  0  0  0  0  0  0  0
   45.5850   29.4040   37.9400 H   0  0  0  0  0  0  0  0  0  0  0  0
   45.9330   31.0890   37.3150 H   0  0  0  0  0  0  0  0  0  0  0  0
   45.2990   30.6610   39.9260 N   0  0  0  0  0  0  0  0  0  0  0  0
   45.2100   29.6700   40.2970 H   0  0  0  0  0  0  0  0  0  0  0  0
   46.1600   31.2330   39.7020 H   0  0  0  0  0  0  0  0  0  0  0  0
   38.1260   28.0300   40.6580 N   0  0  0  0  0  0  0  0  0  0  0  0
   37.7800   27.0280   39.8100 C   0  0  0  0  0  0  0  0  0  0  0  0
   37.3170   27.2110   38.8590 H   0  0  0  0  0  0  0  0  0  0  0  0
   38.1240   25.8620   40.3960 N   0  0  0  0  0  0  0  0  0  0  0  0
   38.6880   26.0940   41.6070 C   0  0  0  0  0  0  0  0  0  0  0  0
   39.1840   25.2450   42.5530 C   0  0  0  0  0  0  0  0  0  0  0  0
   39.6900   25.7750   43.6770 N   0  0  0  0  0  0  0  0  0  0  0  0
   39.6820   27.1300   43.8190 C   0  0  0  0  0  0  0  0  0  0  0  0
   40.0810   27.6270   44.7170 H   0  0  0  0  0  0  0  0  0  0  0  0
   39.2030   27.9890   42.9150 N   0  0  0  0  0  0  0  0  0  0  0  0
   38.6880   27.4840   41.7730 C   0  0  0  0  0  0  0  0  0  0  0  0
   39.2000   23.8480   42.4170 N   0  0  0  0  0  0  0  0  0  0  0  0
   39.2500   23.1790   41.6320 H   0  0  0  0  0  0  0  0  0  0  0  0
   39.1560   23.1630   43.1900 H   0  0  0  0  0  0  0  0  0  0  0  0
   40.2690   29.6190   40.1190 N   0  0  0  0  0  0  0  0  0  0  0  0
   40.7920   29.2170   39.3120 H   0  0  0  0  0  0  0  0  0  0  0  0
   40.6110   29.5600   41.1050 H   0  0  0  0  0  0  0  0  0  0  0  0
  1 10  1  0  0  0  0
  2  1  2  0  0  0  0
  2  3  1  0  0  0  0
  3  4  2  0  0  0  0
  4  5  1  0  0  0  0
  5  6  1  0  0  0  0
  6  7  2  0  0  0  0
  6 12  1  0  0  0  0
  7 13  1  0  0  0  0
  8 37  1  0  0  0  0
  8  7  1  0  0  0  0
  9  8  2  0  0  0  0
 10  9  1  0  0  0  0
 10  5  2  0  0  0  0
 11  3  1  0  0  0  0
 14 25  1  0  0  0  0
 15 34  1  0  0  0  0
 15 14  2  0  0  0  0
 16 15  1  0  0  0  0
 17 16  2  0  0  0  0
 17 18  1  0  0  0  0
 18  1  1  0  0  0  0
 18 19  2  0  0  0  0
 19 14  1  0  0  0  0
 20 16  1  0  0  0  0
 21 26  1  0  0  0  0
 21 20  1  0  0  0  0
 22 23  1  0  0  0  0
 22 21  1  0  0  0  0
 23 24  1  0  0  0  0
 24 33  1  0  0  0  0
 24 20  1  0  0  0  0
 24 32  1  0  0  0  0
 27 21  1  0  0  0  0
 28 22  1  0  0  0  0
 29 22  1  0  0  0  0
 30 23  1  0  0  0  0
 31 23  1  0  0  0  0
 34 35  1  0  0  0  0
 36 34  1  0  0  0  0
 37 47  1  0  0  0  0
 38 40  2  0  0  0  0
 38 37  1  0  0  0  0
 39 38  1  0  0  0  0
 40 41  1  0  0  0  0
 41 47  2  0  0  0  0
 41 42  1  0  0  0  0
 42 43  2  0  0  0  0
 43 44  1  0  0  0  0
 44 45  1  0  0  0  0
 46 44  2  0  0  0  0
 47 46  1  0  0  0  0
 48 42  1  0  0  0  0
 48 50  1  0  0  0  0
 49 48  1  0  0  0  0
 51  9  1  0  0  0  0
 51 53  1  0  0  0  0
 52 51  1  0  0  0  0
M  END
>  <minimizedAffinity>
-6.74398375

$$$$
