
 OpenBabel03252504403D

 50 54  0  0  0  0  0  0  0  0999 V2000
   45.1470   32.9500   47.7270 C   0  0  0  0  0  0  0  0  0  0  0  0
   44.1690   32.4310   47.6750 H   0  0  0  0  0  0  0  0  0  0  0  0
   45.0980   33.8970   48.3040 H   0  0  0  0  0  0  0  0  0  0  0  0
   46.1520   32.0830   48.4090 C   0  0  0  0  0  0  0  0  0  0  0  0
   45.9020   31.1040   49.3260 C   0  0  0  0  0  0  0  0  0  0  0  0
   47.0870   30.5940   49.6630 N   0  0  0  0  0  0  0  0  0  0  0  0
   48.0840   31.1950   49.0080 C   0  0  0  0  0  0  0  0  0  0  0  0
   47.4850   32.1310   48.2200 N   0  0  0  0  0  0  0  0  0  0  0  0
   49.4850   31.0010   49.0330 N   0  0  0  0  0  0  0  0  0  0  0  0
   50.2780   31.7770   50.0080 C   0  0  0  0  0  0  0  0  0  0  0  0
   50.6250   30.7730   51.1060 C   0  0  0  0  0  0  0  0  0  0  0  0
   51.1600   29.5000   50.4940 C   0  0  0  0  0  0  0  0  0  0  0  0
   51.5700   29.7620   49.0540 C   0  0  0  0  0  0  0  0  0  0  0  0
   50.3490   30.1580   48.2650 C   0  0  0  0  0  0  0  0  0  0  0  0
   44.9410   30.7790   49.7270 H   0  0  0  0  0  0  0  0  0  0  0  0
   47.2780   29.8250   50.3430 H   0  0  0  0  0  0  0  0  0  0  0  0
   51.1660   32.2190   49.5420 H   0  0  0  0  0  0  0  0  0  0  0  0
   49.6690   32.5750   50.4680 H   0  0  0  0  0  0  0  0  0  0  0  0
   51.3960   31.2560   51.7700 H   0  0  0  0  0  0  0  0  0  0  0  0
   49.7310   30.6060   51.7280 H   0  0  0  0  0  0  0  0  0  0  0  0
   50.2740   28.8070   50.4100 H   0  0  0  0  0  0  0  0  0  0  0  0
   51.9540   29.0190   51.0670 H   0  0  0  0  0  0  0  0  0  0  0  0
   52.0620   28.8590   48.6660 H   0  0  0  0  0  0  0  0  0  0  0  0
   52.3310   30.5870   49.0900 H   0  0  0  0  0  0  0  0  0  0  0  0
   49.8380   29.2030   47.9580 H   0  0  0  0  0  0  0  0  0  0  0  0
   50.6710   30.6510   47.3200 H   0  0  0  0  0  0  0  0  0  0  0  0
   45.0370   34.2730   45.6510 C   0  0  0  0  0  0  0  0  0  0  0  0
   45.6020   33.3160   46.3650 C   0  0  0  0  0  0  0  0  0  0  0  0
   45.5790   34.5390   44.3160 C   0  0  0  0  0  0  0  0  0  0  0  0
   44.8060   35.1500   43.2990 C   0  0  0  0  0  0  0  0  0  0  0  0
   45.4240   35.3540   42.0700 C   0  0  0  0  0  0  0  0  0  0  0  0
   46.6950   34.9770   41.8850 N   0  0  0  0  0  0  0  0  0  0  0  0
   47.4180   34.3930   42.8730 C   0  0  0  0  0  0  0  0  0  0  0  0
   46.8630   34.1850   44.0520 N   0  0  0  0  0  0  0  0  0  0  0  0
   43.7830   35.4270   43.5230 H   0  0  0  0  0  0  0  0  0  0  0  0
   44.8620   35.8130   41.2870 H   0  0  0  0  0  0  0  0  0  0  0  0
   48.7510   34.0510   42.5250 N   0  0  0  0  0  0  0  0  0  0  0  0
   49.8730   34.8100   42.6600 C   0  0  0  0  0  0  0  0  0  0  0  0
   49.8970   35.8270   43.0720 H   0  0  0  0  0  0  0  0  0  0  0  0
   50.9420   34.1140   42.2100 N   0  0  0  0  0  0  0  0  0  0  0  0
   50.5090   32.9030   41.7830 C   0  0  0  0  0  0  0  0  0  0  0  0
   51.1510   31.8000   41.2320 C   0  0  0  0  0  0  0  0  0  0  0  0
   50.4020   30.7130   40.9060 N   0  0  0  0  0  0  0  0  0  0  0  0
   49.0830   30.6790   41.0960 C   0  0  0  0  0  0  0  0  0  0  0  0
   48.5480   29.7870   40.8160 H   0  0  0  0  0  0  0  0  0  0  0  0
   48.4650   31.7580   41.6330 N   0  0  0  0  0  0  0  0  0  0  0  0
   49.1330   32.8650   41.9810 C   0  0  0  0  0  0  0  0  0  0  0  0
   52.5590   31.8170   41.0200 N   0  0  0  0  0  0  0  0  0  0  0  0
   53.2210   32.1440   40.2840 H   0  0  0  0  0  0  0  0  0  0  0  0
   52.9230   31.3630   41.8830 H   0  0  0  0  0  0  0  0  0  0  0  0
  1  3  1  0  0  0  0
  1  4  1  0  0  0  0
  2  1  1  0  0  0  0
  4  5  2  0  0  0  0
  5  6  1  0  0  0  0
  5 15  1  0  0  0  0
  6 16  1  0  0  0  0
  7  9  1  0  0  0  0
  7  6  1  0  0  0  0
  8  4  1  0  0  0  0
  8  7  2  0  0  0  0
  9 10  1  0  0  0  0
 10 18  1  0  0  0  0
 10 11  1  0  0  0  0
 11 20  1  0  0  0  0
 11 19  1  0  0  0  0
 12 22  1  0  0  0  0
 12 11  1  0  0  0  0
 13 24  1  0  0  0  0
 13 12  1  0  0  0  0
 14  9  1  0  0  0  0
 14 13  1  0  0  0  0
 17 10  1  0  0  0  0
 21 12  1  0  0  0  0
 23 13  1  0  0  0  0
 25 14  1  0  0  0  0
 26 14  1  0  0  0  0
 27 28  2  0  0  0  0
 28  1  1  0  0  0  0
 29 27  1  0  0  0  0
 30 35  1  0  0  0  0
 30 29  2  0  0  0  0
 31 30  1  0  0  0  0
 32 31  2  0  0  0  0
 32 33  1  0  0  0  0
 33 34  2  0  0  0  0
 34 29  1  0  0  0  0
 36 31  1  0  0  0  0
 37 38  1  0  0  0  0
 37 33  1  0  0  0  0
 38 39  1  0  0  0  0
 40 38  2  0  0  0  0
 41 47  1  0  0  0  0
 41 40  1  0  0  0  0
 42 41  2  0  0  0  0
 43 44  2  0  0  0  0
 43 42  1  0  0  0  0
 44 46  1  0  0  0  0
 45 44  1  0  0  0  0
 46 47  2  0  0  0  0
 47 37  1  0  0  0  0
 48 42  1  0  0  0  0
 48 50  1  0  0  0  0
 49 48  1  0  0  0  0
M  END
>  <minimizedAffinity>
-7.45039129

>  <minimizedRMSD>
1.76384163

$$$$
