
 OpenBabel03252505303D

 32 34  0  0  0  0  0  0  0  0999 V2000
   49.0470   28.9080   48.2800 C   0  0  0  0  0  0  0  0  0  0  0  0
   50.1190   29.1900   48.2890 H   0  0  0  0  0  0  0  0  0  0  0  0
   48.7250   28.9240   49.3390 H   0  0  0  0  0  0  0  0  0  0  0  0
   48.2600   29.8070   47.4550 N   0  0  0  0  0  0  0  0  0  0  0  0
   48.3740   29.8510   46.0990 C   0  0  0  0  0  0  0  0  0  0  0  0
   49.0290   29.2590   45.4670 H   0  0  0  0  0  0  0  0  0  0  0  0
   47.5350   30.7660   45.5860 N   0  0  0  0  0  0  0  0  0  0  0  0
   46.8800   31.3120   46.6180 C   0  0  0  0  0  0  0  0  0  0  0  0
   45.9060   32.2860   46.7700 C   0  0  0  0  0  0  0  0  0  0  0  0
   45.4220   32.6390   47.9490 N   0  0  0  0  0  0  0  0  0  0  0  0
   45.8930   32.0270   49.0720 C   0  0  0  0  0  0  0  0  0  0  0  0
   45.4350   32.3850   49.9960 H   0  0  0  0  0  0  0  0  0  0  0  0
   46.8530   31.0560   49.0130 N   0  0  0  0  0  0  0  0  0  0  0  0
   47.3280   30.7150   47.7980 C   0  0  0  0  0  0  0  0  0  0  0  0
   45.4780   32.8700   45.5270 N   0  0  0  0  0  0  0  0  0  0  0  0
   46.0560   33.4040   44.8120 H   0  0  0  0  0  0  0  0  0  0  0  0
   44.4590   32.7810   45.2400 H   0  0  0  0  0  0  0  0  0  0  0  0
   48.8760   27.6330   47.8130 O   0  0  0  0  0  0  0  0  0  0  0  0
   50.2640   27.4220   49.9730 O   0  0  0  0  0  0  0  0  0  0  0  0
   49.6940   26.5770   48.8370 P   0  0  2  0  0  0  0  0  0  0  0  0
   50.9170   25.8330   47.9670 O   0  0  0  0  0  0  0  0  0  0  0  0
   50.9370   26.0840   47.0110 H   0  0  0  0  0  0  0  0  0  0  0  0
   48.6450   25.4350   49.5240 O   0  0  0  0  0  0  0  0  0  0  0  0
   47.4710   23.1100   47.1000 C   0  0  0  0  0  0  0  0  0  0  0  0
   46.0890   22.9780   47.3650 C   0  0  0  0  0  0  0  0  0  0  0  0
   45.6050   23.7540   48.4400 C   0  0  0  0  0  0  0  0  0  0  0  0
   46.4570   24.5560   49.1400 N   0  0  0  0  0  0  0  0  0  0  0  0
   47.7680   24.6220   48.8200 C   0  0  0  0  0  0  0  0  0  0  0  0
   48.2620   23.9100   47.8160 N   0  0  0  0  0  0  0  0  0  0  0  0
   47.8370   22.5100   46.2710 H   0  0  0  0  0  0  0  0  0  0  0  0
   45.4420   22.3430   46.8030 H   0  0  0  0  0  0  0  0  0  0  0  0
   44.5450   23.7010   48.7000 H   0  0  0  0  0  0  0  0  0  0  0  0
  1  2  1  0  0  0  0
  1  3  1  0  0  0  0
  4 14  1  0  0  0  0
  4  1  1  0  0  0  0
  5  4  1  0  0  0  0
  6  5  1  0  0  0  0
  7  5  2  0  0  0  0
  7  8  1  0  0  0  0
  8  9  2  0  0  0  0
  8 14  1  0  0  0  0
  9 10  1  0  0  0  0
 10 11  2  0  0  0  0
 11 12  1  0  0  0  0
 13 11  1  0  0  0  0
 14 13  2  0  0  0  0
 15  9  1  0  0  0  0
 16 15  1  0  0  0  0
 17 15  1  0  0  0  0
 18  1  1  0  0  0  0
 18 20  1  0  0  0  0
 20 23  1  0  0  0  0
 20 19  2  1  0  0  0
 21 20  1  0  0  0  0
 22 21  1  0  0  0  0
 24 25  2  0  0  0  0
 24 29  1  0  0  0  0
 25 26  1  0  0  0  0
 26 32  1  0  0  0  0
 26 27  2  0  0  0  0
 28 27  1  0  0  0  0
 28 23  1  0  0  0  0
 29 28  2  0  0  0  0
 30 24  1  0  0  0  0
 31 25  1  0  0  0  0
M  END
>  <minimizedAffinity>
-3.72868848

>  <minimizedRMSD>
8.30046272

$$$$
