REMARK  Name = 
REMARK  4 active torsions:
REMARK  status: ('A' for Active; 'I' for Inactive)
REMARK    1  A    between atoms: C_1  and  C_7
REMARK    2  A    between atoms: C_7  and  C_8
REMARK    3  A    between atoms: C_8  and  N_16
REMARK    4  A    between atoms: C_21  and  N_22
REMARK                            x       y       z     vdW  Elec       q    Type
REMARK                         _______ _______ _______ _____ _____    ______ ____
ROOT
ATOM      1  C   UNL     1      49.498  34.832  42.557  0.00  0.00    +0.000 C 
ATOM      2  H   UNL     1      49.014  35.400  41.738  0.00  0.00    +0.000 HD
ATOM      3  H   UNL     1      49.562  35.511  43.429  0.00  0.00    +0.000 HD
ENDROOT
BRANCH   1   4
ATOM      4  N   UNL     1      50.811  34.334  42.135  0.00  0.00    +0.000 N 
ATOM      5  C   UNL     1      51.800  35.195  41.799  0.00  0.00    +0.000 A 
ATOM      6  H   UNL     1      51.773  36.276  41.793  0.00  0.00    +0.000 HD
ATOM      7  N   UNL     1      52.873  34.433  41.458  0.00  0.00    +0.000 NA
ATOM      8  C   UNL     1      52.529  33.139  41.589  0.00  0.00    +0.000 A 
ATOM      9  C   UNL     1      53.166  31.920  41.397  0.00  0.00    +0.000 A 
ATOM     10  N   UNL     1      52.511  30.765  41.627  0.00  0.00    +0.000 NA
ATOM     11  C   UNL     1      51.216  30.744  42.051  0.00  0.00    +0.000 A 
ATOM     12  H   UNL     1      50.872  29.726  42.178  0.00  0.00    +0.000 HD
ATOM     13  N   UNL     1      50.538  31.909  42.257  0.00  0.00    +0.000 NA
ATOM     14  C   UNL     1      51.202  33.052  42.024  0.00  0.00    +0.000 A 
BRANCH   9  15
ATOM     15  N   UNL     1      54.526  31.943  40.952  0.00  0.00    +0.000 N 
ATOM     16  H   UNL     1      55.192  32.712  41.250  0.00  0.00    +0.000 HD
ATOM     17  H   UNL     1      55.052  31.297  40.333  0.00  0.00    +0.000 HD
ENDBRANCH   9  15
ENDBRANCH   1   4
BRANCH   1  18
ATOM     18  C   UNL     1      48.574  33.659  42.876  0.00  0.00    +0.000 C 
ATOM     19  H   UNL     1      48.506  32.964  42.014  0.00  0.00    +0.000 HD
ATOM     20  H   UNL     1      49.093  33.108  43.668  0.00  0.00    +0.000 HD
BRANCH  18  21
ATOM     21  C   UNL     1      47.276  34.187  43.299  0.00  0.00    +0.000 A 
ATOM     22  C   UNL     1      46.625  35.174  42.575  0.00  0.00    +0.000 A 
ATOM     23  C   UNL     1      45.373  35.648  43.031  0.00  0.00    +0.000 A 
ATOM     24  N   UNL     1      44.888  35.093  44.164  0.00  0.00    +0.000 NA
ATOM     25  C   UNL     1      45.553  34.126  44.850  0.00  0.00    +0.000 A 
ATOM     26  N   UNL     1      46.747  33.678  44.410  0.00  0.00    +0.000 NA
ATOM     27  H   UNL     1      47.008  35.606  41.686  0.00  0.00    +0.000 HD
ATOM     28  H   UNL     1      44.803  36.408  42.533  0.00  0.00    +0.000 HD
ATOM     29  H   UNL     1      45.133  33.694  45.767  0.00  0.00    +0.000 HD
ENDBRANCH  18  21
ENDBRANCH   1  18
TORSDOF 4
