
 OpenBabel03252505303D

 32 34  0  0  0  0  0  0  0  0999 V2000
   45.0560   30.1110   47.6620 C   0  0  0  0  0  0  0  0  0  0  0  0
   44.0880   30.4100   48.1100 H   0  0  0  0  0  0  0  0  0  0  0  0
   45.8170   30.2900   48.4480 H   0  0  0  0  0  0  0  0  0  0  0  0
   45.0430   28.7280   47.2190 N   0  0  0  0  0  0  0  0  0  0  0  0
   45.9750   27.8190   47.6150 C   0  0  0  0  0  0  0  0  0  0  0  0
   46.8170   27.9770   48.2800 H   0  0  0  0  0  0  0  0  0  0  0  0
   45.7280   26.6200   47.0580 N   0  0  0  0  0  0  0  0  0  0  0  0
   44.6340   26.7620   46.3030 C   0  0  0  0  0  0  0  0  0  0  0  0
   43.8760   25.9340   45.4900 C   0  0  0  0  0  0  0  0  0  0  0  0
   42.8040   26.3520   44.8370 N   0  0  0  0  0  0  0  0  0  0  0  0
   42.4170   27.6540   44.9610 C   0  0  0  0  0  0  0  0  0  0  0  0
   41.5230   27.9050   44.3870 H   0  0  0  0  0  0  0  0  0  0  0  0
   43.1050   28.5380   45.7430 N   0  0  0  0  0  0  0  0  0  0  0  0
   44.1950   28.0840   46.3970 C   0  0  0  0  0  0  0  0  0  0  0  0
   44.3700   24.5830   45.4260 N   0  0  0  0  0  0  0  0  0  0  0  0
   45.3150   24.2400   45.0820 H   0  0  0  0  0  0  0  0  0  0  0  0
   43.7450   23.7920   45.7560 H   0  0  0  0  0  0  0  0  0  0  0  0
   45.3720   30.9040   46.5920 O   0  0  0  0  0  0  0  0  0  0  0  0
   47.0120   32.0220   48.2340 O   0  0  0  0  0  0  0  0  0  0  0  0
   45.9720   32.3660   47.1710 P   0  0  2  0  0  0  0  0  0  0  0  0
   44.7020   33.2390   47.8300 O   0  0  0  0  0  0  0  0  0  0  0  0
   43.8230   32.7970   47.7360 H   0  0  0  0  0  0  0  0  0  0  0  0
   46.7570   33.2450   45.9530 O   0  0  0  0  0  0  0  0  0  0  0  0
   44.4580   35.6420   44.6740 C   0  0  0  0  0  0  0  0  0  0  0  0
   44.8470   35.8350   43.3290 C   0  0  0  0  0  0  0  0  0  0  0  0
   45.9590   35.0740   42.9080 C   0  0  0  0  0  0  0  0  0  0  0  0
   46.5750   34.2280   43.7810 N   0  0  0  0  0  0  0  0  0  0  0  0
   46.1380   34.1040   45.0540 C   0  0  0  0  0  0  0  0  0  0  0  0
   45.0960   34.8010   45.4880 N   0  0  0  0  0  0  0  0  0  0  0  0
   43.6020   36.2310   44.9920 H   0  0  0  0  0  0  0  0  0  0  0  0
   44.3490   36.5040   42.6640 H   0  0  0  0  0  0  0  0  0  0  0  0
   46.3140   35.1730   41.8800 H   0  0  0  0  0  0  0  0  0  0  0  0
  1  2  1  0  0  0  0
  1  3  1  0  0  0  0
  4  5  1  0  0  0  0
  4  1  1  0  0  0  0
  5  6  1  0  0  0  0
  7  5  2  0  0  0  0
  8 14  1  0  0  0  0
  8  7  1  0  0  0  0
  9  8  2  0  0  0  0
 10 11  2  0  0  0  0
 10  9  1  0  0  0  0
 11 13  1  0  0  0  0
 12 11  1  0  0  0  0
 13 14  2  0  0  0  0
 14  4  1  0  0  0  0
 15  9  1  0  0  0  0
 15 17  1  0  0  0  0
 16 15  1  0  0  0  0
 18 20  1  0  0  0  0
 18  1  1  0  0  0  0
 20 21  1  0  0  0  0
 20 19  2  1  0  0  0
 22 21  1  0  0  0  0
 23 20  1  0  0  0  0
 24 30  1  0  0  0  0
 24 29  1  0  0  0  0
 25 24  2  0  0  0  0
 26 25  1  0  0  0  0
 26 27  2  0  0  0  0
 27 28  1  0  0  0  0
 28 29  2  0  0  0  0
 28 23  1  0  0  0  0
 31 25  1  0  0  0  0
 32 26  1  0  0  0  0
M  END
>  <minimizedAffinity>
-4.70011759

>  <minimizedRMSD>
0.995230615

$$$$
