
 OpenBabel03242512493D

 35 38  0  0  1  0  0  0  0  0999 V2000
   38.0690   27.6020   41.5630 N   0  0  0  0  0  0  0  0  0  0  0  0
   37.8760   26.5510   42.5630 C   0  0  0  0  0  0  0  0  0  0  0  0
   36.7590   27.1790   43.3500 C   0  0  0  0  0  0  0  0  0  0  0  0
   37.3820   28.5470   43.6120 C   0  0  0  0  0  0  0  0  0  0  0  0
   38.1030   28.8350   42.3270 C   0  0  2  0  0  0  0  0  0  0  0  0
   38.8110   26.4590   43.1510 H   0  0  0  0  0  0  0  0  0  0  0  0
   37.6080   25.5760   42.1070 H   0  0  0  0  0  0  0  0  0  0  0  0
   36.5490   26.6330   44.2850 H   0  0  0  0  0  0  0  0  0  0  0  0
   35.8720   27.2580   42.7260 H   0  0  0  0  0  0  0  0  0  0  0  0
   38.0380   28.5170   44.5060 H   0  0  0  0  0  0  0  0  0  0  0  0
   36.5640   29.2840   43.7250 H   0  0  0  0  0  0  0  0  0  0  0  0
   39.1930   28.9290   42.6290 H   0  0  0  0  0  0  0  0  0  0  0  0
   37.7130   30.0050   41.6340 N   0  0  0  0  0  0  0  0  0  0  0  0
   36.4070   30.2680   41.3330 C   0  0  0  0  0  0  0  0  0  0  0  0
   35.4860   29.7150   41.5330 H   0  0  0  0  0  0  0  0  0  0  0  0
   36.3080   31.4330   40.6730 N   0  0  0  0  0  0  0  0  0  0  0  0
   37.5310   31.9690   40.5180 C   0  0  0  0  0  0  0  0  0  0  0  0
   37.9940   33.1290   39.9290 C   0  0  0  0  0  0  0  0  0  0  0  0
   39.3370   33.3430   39.9690 N   0  0  0  0  0  0  0  0  0  0  0  0
   40.1630   32.4500   40.5630 C   0  0  0  0  0  0  0  0  0  0  0  0
   41.2160   32.7070   40.5460 H   0  0  0  0  0  0  0  0  0  0  0  0
   39.6750   31.3320   41.1270 N   0  0  0  0  0  0  0  0  0  0  0  0
   38.3720   31.0600   41.1230 C   0  0  0  0  0  0  0  0  0  0  0  0
   37.0620   34.0180   39.3240 N   0  0  0  0  0  0  0  0  0  0  0  0
   36.2560   34.5910   39.6940 H   0  0  0  0  0  0  0  0  0  0  0  0
   37.3200   34.0330   38.3030 H   0  0  0  0  0  0  0  0  0  0  0  0
   37.4180   27.1710   37.9320 C   0  0  0  0  0  0  0  0  0  0  0  0
   37.1640   27.2120   39.3050 C   0  0  0  0  0  0  0  0  0  0  0  0
   38.2040   27.5270   40.1760 C   0  0  0  0  0  0  0  0  0  0  0  0
   39.4360   27.7840   39.6210 N   0  0  0  0  0  0  0  0  0  0  0  0
   39.6650   27.7400   38.2980 C   0  0  0  0  0  0  0  0  0  0  0  0
   38.6660   27.4370   37.4510 N   0  0  0  0  0  0  0  0  0  0  0  0
   36.5540   26.9180   37.3280 H   0  0  0  0  0  0  0  0  0  0  0  0
   36.1790   27.0000   39.6980 H   0  0  0  0  0  0  0  0  0  0  0  0
   40.6360   27.9440   37.8800 H   0  0  0  0  0  0  0  0  0  0  0  0
  1  5  1  0  0  0  0
  1  2  1  0  0  0  0
  2  6  1  0  0  0  0
  2  3  1  0  0  0  0
  3  4  1  0  0  0  0
  3  8  1  0  0  0  0
  4 11  1  0  0  0  0
  4 10  1  0  0  0  0
  5 12  1  1  0  0  0
  5  4  1  0  0  0  0
  7  2  1  0  0  0  0
  9  3  1  0  0  0  0
 13  5  1  0  0  0  0
 14 15  1  0  0  0  0
 14 13  1  0  0  0  0
 16 14  2  0  0  0  0
 17 16  1  0  0  0  0
 17 23  1  0  0  0  0
 18 19  1  0  0  0  0
 18 17  2  0  0  0  0
 19 20  2  0  0  0  0
 20 22  1  0  0  0  0
 21 20  1  0  0  0  0
 23 22  2  0  0  0  0
 23 13  1  0  0  0  0
 24 25  1  0  0  0  0
 24 18  1  0  0  0  0
 26 24  1  0  0  0  0
 27 28  1  0  0  0  0
 28 34  1  0  0  0  0
 28 29  2  0  0  0  0
 29  1  1  0  0  0  0
 30 29  1  0  0  0  0
 31 30  2  0  0  0  0
 32 27  2  0  0  0  0
 32 31  1  0  0  0  0
 33 27  1  0  0  0  0
 35 31  1  0  0  0  0
M  END
>  <minimizedAffinity>
-5.54694557

$$$$

 OpenBabel03242512493D

 35 38  0  0  1  0  0  0  0  0999 V2000
   37.1240   27.9960   41.4180 N   0  0  0  0  0  0  0  0  0  0  0  0
   36.9200   27.6700   42.8300 C   0  0  0  0  0  0  0  0  0  0  0  0
   37.7520   28.7600   43.4450 C   0  0  0  0  0  0  0  0  0  0  0  0
   39.0470   28.5500   42.6670 C   0  0  0  0  0  0  0  0  0  0  0  0
   38.5550   28.2010   41.2920 C   0  0  2  0  0  0  0  0  0  0  0  0
   37.3380   26.6600   43.0150 H   0  0  0  0  0  0  0  0  0  0  0  0
   35.8500   27.7050   43.1230 H   0  0  0  0  0  0  0  0  0  0  0  0
   37.8920   28.6170   44.5300 H   0  0  0  0  0  0  0  0  0  0  0  0
   37.3070   29.7270   43.2240 H   0  0  0  0  0  0  0  0  0  0  0  0
   39.6690   27.7630   43.1420 H   0  0  0  0  0  0  0  0  0  0  0  0
   39.5790   29.5180   42.6120 H   0  0  0  0  0  0  0  0  0  0  0  0
   38.9570   27.1560   41.1040 H   0  0  0  0  0  0  0  0  0  0  0  0
   38.9690   29.0510   40.2400 N   0  0  0  0  0  0  0  0  0  0  0  0
   39.6620   28.5830   39.1600 C   0  0  0  0  0  0  0  0  0  0  0  0
   40.0070   27.5820   38.8920 H   0  0  0  0  0  0  0  0  0  0  0  0
   39.9350   29.5890   38.3130 N   0  0  0  0  0  0  0  0  0  0  0  0
   39.4390   30.7380   38.8010 C   0  0  0  0  0  0  0  0  0  0  0  0
   39.4340   32.0420   38.3470 C   0  0  0  0  0  0  0  0  0  0  0  0
   38.8150   32.9640   39.1340 N   0  0  0  0  0  0  0  0  0  0  0  0
   38.2370   32.6000   40.3020 C   0  0  0  0  0  0  0  0  0  0  0  0
   37.7680   33.4020   40.8600 H   0  0  0  0  0  0  0  0  0  0  0  0
   38.2610   31.3190   40.7120 N   0  0  0  0  0  0  0  0  0  0  0  0
   38.8500   30.3680   39.9920 C   0  0  0  0  0  0  0  0  0  0  0  0
   40.0640   32.3460   37.1080 N   0  0  0  0  0  0  0  0  0  0  0  0
   39.8860   32.0540   36.1090 H   0  0  0  0  0  0  0  0  0  0  0  0
   40.8510   33.0010   37.3540 H   0  0  0  0  0  0  0  0  0  0  0  0
   34.3690   29.0840   39.1790 C   0  0  0  0  0  0  0  0  0  0  0  0
   35.2210   29.0740   40.2860 C   0  0  0  0  0  0  0  0  0  0  0  0
   36.2150   28.1020   40.3660 C   0  0  0  0  0  0  0  0  0  0  0  0
   36.2970   27.1980   39.3320 N   0  0  0  0  0  0  0  0  0  0  0  0
   35.4690   27.2200   38.2730 C   0  0  0  0  0  0  0  0  0  0  0  0
   34.5080   28.1560   38.1900 N   0  0  0  0  0  0  0  0  0  0  0  0
   33.6260   29.8740   39.1970 H   0  0  0  0  0  0  0  0  0  0  0  0
   35.1180   29.8040   41.0780 H   0  0  0  0  0  0  0  0  0  0  0  0
   35.5480   26.5050   37.4730 H   0  0  0  0  0  0  0  0  0  0  0  0
  1  2  1  0  0  0  0
  2  6  1  0  0  0  0
  2  7  1  0  0  0  0
  2  3  1  0  0  0  0
  3  8  1  0  0  0  0
  4 10  1  0  0  0  0
  4  3  1  0  0  0  0
  5 12  1  6  0  0  0
  5  1  1  0  0  0  0
  5  4  1  0  0  0  0
  9  3  1  0  0  0  0
 11  4  1  0  0  0  0
 13  5  1  0  0  0  0
 14 13  1  0  0  0  0
 15 14  1  0  0  0  0
 16 17  1  0  0  0  0
 16 14  2  0  0  0  0
 17 23  1  0  0  0  0
 18 17  2  0  0  0  0
 18 19  1  0  0  0  0
 19 20  2  0  0  0  0
 20 22  1  0  0  0  0
 20 21  1  0  0  0  0
 23 13  1  0  0  0  0
 23 22  2  0  0  0  0
 24 26  1  0  0  0  0
 24 18  1  0  0  0  0
 25 24  1  0  0  0  0
 27 33  1  0  0  0  0
 27 28  1  0  0  0  0
 28 29  2  0  0  0  0
 28 34  1  0  0  0  0
 29  1  1  0  0  0  0
 30 29  1  0  0  0  0
 31 30  2  0  0  0  0
 32 31  1  0  0  0  0
 32 27  2  0  0  0  0
 35 31  1  0  0  0  0
M  END
>  <minimizedAffinity>
-5.33993816

$$$$

 OpenBabel03242512493D

 35 38  0  0  1  0  0  0  0  0999 V2000
   40.0400   25.7820   41.8360 N   0  0  0  0  0  0  0  0  0  0  0  0
   41.1930   25.1220   42.4500 C   0  0  0  0  0  0  0  0  0  0  0  0
   41.3240   25.9770   43.6790 C   0  0  0  0  0  0  0  0  0  0  0  0
   41.3390   27.3530   43.0210 C   0  0  0  0  0  0  0  0  0  0  0  0
   40.3470   27.1980   41.9050 C   0  0  2  0  0  0  0  0  0  0  0  0
   42.0570   25.2280   41.7630 H   0  0  0  0  0  0  0  0  0  0  0  0
   41.0020   24.0510   42.6680 H   0  0  0  0  0  0  0  0  0  0  0  0
   42.2570   25.7720   44.2320 H   0  0  0  0  0  0  0  0  0  0  0  0
   40.4490   25.8460   44.3100 H   0  0  0  0  0  0  0  0  0  0  0  0
   42.3640   27.6200   42.6860 H   0  0  0  0  0  0  0  0  0  0  0  0
   40.9380   28.0870   43.7450 H   0  0  0  0  0  0  0  0  0  0  0  0
   40.9500   27.3850   40.9620 H   0  0  0  0  0  0  0  0  0  0  0  0
   39.2360   28.0730   41.9240 N   0  0  0  0  0  0  0  0  0  0  0  0
   38.5750   28.3820   43.0790 C   0  0  0  0  0  0  0  0  0  0  0  0
   38.7320   28.0710   44.1150 H   0  0  0  0  0  0  0  0  0  0  0  0
   37.5630   29.2260   42.8230 N   0  0  0  0  0  0  0  0  0  0  0  0
   37.5220   29.4970   41.5080 C   0  0  0  0  0  0  0  0  0  0  0  0
   36.7040   30.2850   40.7230 C   0  0  0  0  0  0  0  0  0  0  0  0
   36.9760   30.3160   39.3900 N   0  0  0  0  0  0  0  0  0  0  0  0
   38.0040   29.6000   38.8780 C   0  0  0  0  0  0  0  0  0  0  0  0
   38.1430   29.6870   37.8060 H   0  0  0  0  0  0  0  0  0  0  0  0
   38.7800   28.8430   39.6740 N   0  0  0  0  0  0  0  0  0  0  0  0
   38.5690   28.7680   40.9850 C   0  0  0  0  0  0  0  0  0  0  0  0
   35.6430   31.0070   41.3370 N   0  0  0  0  0  0  0  0  0  0  0  0
   35.6070   31.7800   42.0560 H   0  0  0  0  0  0  0  0  0  0  0  0
   34.7620   30.6120   40.9170 H   0  0  0  0  0  0  0  0  0  0  0  0
   36.7080   24.2130   41.3590 C   0  0  0  0  0  0  0  0  0  0  0  0
   37.8300   24.7110   42.0260 C   0  0  0  0  0  0  0  0  0  0  0  0
   38.8740   25.2520   41.2810 C   0  0  0  0  0  0  0  0  0  0  0  0
   38.7340   25.2640   39.9120 N   0  0  0  0  0  0  0  0  0  0  0  0
   37.6480   24.7800   39.2850 C   0  0  0  0  0  0  0  0  0  0  0  0
   36.6360   24.2570   39.9980 N   0  0  0  0  0  0  0  0  0  0  0  0
   35.9440   23.8100   42.0140 H   0  0  0  0  0  0  0  0  0  0  0  0
   37.8990   24.6780   43.1050 H   0  0  0  0  0  0  0  0  0  0  0  0
   37.5540   24.7970   38.2130 H   0  0  0  0  0  0  0  0  0  0  0  0
  1  5  1  0  0  0  0
  1  2  1  0  0  0  0
  2  7  1  0  0  0  0
  2  3  1  0  0  0  0
  3  8  1  0  0  0  0
  3  9  1  0  0  0  0
  4  3  1  0  0  0  0
  4 11  1  0  0  0  0
  5 12  1  6  0  0  0
  5 13  1  0  0  0  0
  5  4  1  0  0  0  0
  6  2  1  0  0  0  0
 10  4  1  0  0  0  0
 13 14  1  0  0  0  0
 14 15  1  0  0  0  0
 16 14  2  0  0  0  0
 17 16  1  0  0  0  0
 18 24  1  0  0  0  0
 18 17  2  0  0  0  0
 19 18  1  0  0  0  0
 20 19  2  0  0  0  0
 20 22  1  0  0  0  0
 21 20  1  0  0  0  0
 22 23  2  0  0  0  0
 23 17  1  0  0  0  0
 23 13  1  0  0  0  0
 24 25  1  0  0  0  0
 26 24  1  0  0  0  0
 27 33  1  0  0  0  0
 27 28  1  0  0  0  0
 28 34  1  0  0  0  0
 29  1  1  0  0  0  0
 29 28  2  0  0  0  0
 30 29  1  0  0  0  0
 31 30  2  0  0  0  0
 31 32  1  0  0  0  0
 32 27  2  0  0  0  0
 35 31  1  0  0  0  0
M  END
>  <minimizedAffinity>
-5.31367636

$$$$

 OpenBabel03242512493D

 35 38  0  0  1  0  0  0  0  0999 V2000
   38.9130   25.0440   41.4120 N   0  0  0  0  0  0  0  0  0  0  0  0
   38.7490   23.6150   41.1410 C   0  0  0  0  0  0  0  0  0  0  0  0
   37.3100   23.6220   40.7070 C   0  0  0  0  0  0  0  0  0  0  0  0
   36.7010   24.3740   41.8860 C   0  0  0  0  0  0  0  0  0  0  0  0
   37.7480   25.4040   42.1990 C   0  0  2  0  0  0  0  0  0  0  0  0
   38.9050   23.0640   42.0900 H   0  0  0  0  0  0  0  0  0  0  0  0
   39.4490   23.2490   40.3620 H   0  0  0  0  0  0  0  0  0  0  0  0
   36.8980   22.6030   40.6080 H   0  0  0  0  0  0  0  0  0  0  0  0
   37.2100   24.1830   39.7820 H   0  0  0  0  0  0  0  0  0  0  0  0
   36.4790   23.6810   42.7240 H   0  0  0  0  0  0  0  0  0  0  0  0
   35.7930   24.8970   41.5320 H   0  0  0  0  0  0  0  0  0  0  0  0
   38.0660   25.1710   43.2640 H   0  0  0  0  0  0  0  0  0  0  0  0
   37.3430   26.7570   42.1240 N   0  0  0  0  0  0  0  0  0  0  0  0
   37.5240   27.6270   43.1610 C   0  0  0  0  0  0  0  0  0  0  0  0
   37.9660   27.4990   44.1520 H   0  0  0  0  0  0  0  0  0  0  0  0
   37.0520   28.8410   42.8360 N   0  0  0  0  0  0  0  0  0  0  0  0
   36.5500   28.8120   41.5900 C   0  0  0  0  0  0  0  0  0  0  0  0
   35.9550   29.7600   40.7810 C   0  0  0  0  0  0  0  0  0  0  0  0
   35.5640   29.3520   39.5440 N   0  0  0  0  0  0  0  0  0  0  0  0
   35.7570   28.0730   39.1440 C   0  0  0  0  0  0  0  0  0  0  0  0
   35.4130   27.8420   38.1420 H   0  0  0  0  0  0  0  0  0  0  0  0
   36.3400   27.1780   39.9600 N   0  0  0  0  0  0  0  0  0  0  0  0
   36.7460   27.5090   41.1820 C   0  0  0  0  0  0  0  0  0  0  0  0
   35.7870   31.0840   41.2750 N   0  0  0  0  0  0  0  0  0  0  0  0
   36.4590   31.8400   41.5760 H   0  0  0  0  0  0  0  0  0  0  0  0
   34.7450   31.2350   41.3050 H   0  0  0  0  0  0  0  0  0  0  0  0
   41.1370   27.3260   39.5060 C   0  0  0  0  0  0  0  0  0  0  0  0
   40.0890   26.4380   39.7560 C   0  0  0  0  0  0  0  0  0  0  0  0
   39.9230   25.9320   41.0430 C   0  0  0  0  0  0  0  0  0  0  0  0
   40.8160   26.3470   42.0040 N   0  0  0  0  0  0  0  0  0  0  0  0
   41.8200   27.2030   41.7480 C   0  0  0  0  0  0  0  0  0  0  0  0
   41.9860   27.6950   40.5080 N   0  0  0  0  0  0  0  0  0  0  0  0
   41.1930   27.6700   38.4790 H   0  0  0  0  0  0  0  0  0  0  0  0
   39.4110   26.1360   38.9690 H   0  0  0  0  0  0  0  0  0  0  0  0
   42.5100   27.5170   42.5110 H   0  0  0  0  0  0  0  0  0  0  0  0
  1  5  1  0  0  0  0
  2  1  1  0  0  0  0
  2  6  1  0  0  0  0
  3  2  1  0  0  0  0
  3  4  1  0  0  0  0
  4  5  1  0  0  0  0
  4 10  1  0  0  0  0
  5 12  1  1  0  0  0
  7  2  1  0  0  0  0
  8  3  1  0  0  0  0
  9  3  1  0  0  0  0
 11  4  1  0  0  0  0
 13  5  1  0  0  0  0
 13 14  1  0  0  0  0
 14 15  1  0  0  0  0
 16 14  2  0  0  0  0
 17 16  1  0  0  0  0
 18 24  1  0  0  0  0
 18 17  2  0  0  0  0
 19 18  1  0  0  0  0
 20 19  2  0  0  0  0
 20 22  1  0  0  0  0
 21 20  1  0  0  0  0
 22 23  2  0  0  0  0
 23 17  1  0  0  0  0
 23 13  1  0  0  0  0
 24 26  1  0  0  0  0
 24 25  1  0  0  0  0
 27 28  2  0  0  0  0
 27 32  1  0  0  0  0
 28 29  1  0  0  0  0
 29  1  1  0  0  0  0
 29 30  2  0  0  0  0
 31 30  1  0  0  0  0
 31 35  1  0  0  0  0
 32 31  2  0  0  0  0
 33 27  1  0  0  0  0
 34 28  1  0  0  0  0
M  END
>  <minimizedAffinity>
-5.25523281

$$$$

 OpenBabel03242512493D

 35 38  0  0  1  0  0  0  0  0999 V2000
   37.4880   29.1270   42.1320 N   0  0  0  0  0  0  0  0  0  0  0  0
   37.5170   28.5880   43.4920 C   0  0  0  0  0  0  0  0  0  0  0  0
   38.0720   27.2230   43.1910 C   0  0  0  0  0  0  0  0  0  0  0  0
   37.1020   26.8000   42.0920 C   0  0  0  0  0  0  0  0  0  0  0  0
   36.8840   28.0770   41.3330 C   0  0  2  0  0  0  0  0  0  0  0  0
   36.4750   28.5500   43.8700 H   0  0  0  0  0  0  0  0  0  0  0  0
   38.1540   29.1890   44.1720 H   0  0  0  0  0  0  0  0  0  0  0  0
   38.0250   26.5520   44.0660 H   0  0  0  0  0  0  0  0  0  0  0  0
   39.0870   27.3170   42.8130 H   0  0  0  0  0  0  0  0  0  0  0  0
   36.1780   26.3640   42.5270 H   0  0  0  0  0  0  0  0  0  0  0  0
   37.6230   26.0840   41.4280 H   0  0  0  0  0  0  0  0  0  0  0  0
   35.7700   28.2780   41.4300 H   0  0  0  0  0  0  0  0  0  0  0  0
   37.2320   28.0620   39.9620 N   0  0  0  0  0  0  0  0  0  0  0  0
   38.4530   27.6300   39.5290 C   0  0  0  0  0  0  0  0  0  0  0  0
   39.3230   27.2450   40.0650 H   0  0  0  0  0  0  0  0  0  0  0  0
   38.5300   27.7200   38.1910 N   0  0  0  0  0  0  0  0  0  0  0  0
   37.3770   28.2100   37.7050 C   0  0  0  0  0  0  0  0  0  0  0  0
   36.9260   28.4970   36.4320 C   0  0  0  0  0  0  0  0  0  0  0  0
   35.6630   28.9940   36.3250 N   0  0  0  0  0  0  0  0  0  0  0  0
   34.9020   29.1890   37.4260 C   0  0  0  0  0  0  0  0  0  0  0  0
   33.9100   29.5870   37.2420 H   0  0  0  0  0  0  0  0  0  0  0  0
   35.3750   28.8970   38.6510 N   0  0  0  0  0  0  0  0  0  0  0  0
   36.6000   28.4100   38.8270 C   0  0  0  0  0  0  0  0  0  0  0  0
   37.7880   28.2650   35.3240 N   0  0  0  0  0  0  0  0  0  0  0  0
   38.2300   27.3980   34.9140 H   0  0  0  0  0  0  0  0  0  0  0  0
   37.9520   29.2150   34.9000 H   0  0  0  0  0  0  0  0  0  0  0  0
   39.5250   32.0910   41.2110 C   0  0  0  0  0  0  0  0  0  0  0  0
   39.2120   30.8470   41.7620 C   0  0  0  0  0  0  0  0  0  0  0  0
   37.9160   30.3550   41.6280 C   0  0  0  0  0  0  0  0  0  0  0  0
   37.0110   31.1390   40.9500 N   0  0  0  0  0  0  0  0  0  0  0  0
   37.3280   32.3350   40.4260 C   0  0  0  0  0  0  0  0  0  0  0  0
   38.5770   32.8160   40.5510 N   0  0  0  0  0  0  0  0  0  0  0  0
   40.5550   32.3970   41.3600 H   0  0  0  0  0  0  0  0  0  0  0  0
   39.9560   30.2650   42.2890 H   0  0  0  0  0  0  0  0  0  0  0  0
   36.6070   32.9360   39.8990 H   0  0  0  0  0  0  0  0  0  0  0  0
  1  2  1  0  0  0  0
  2  6  1  0  0  0  0
  2  7  1  0  0  0  0
  3  2  1  0  0  0  0
  3  8  1  0  0  0  0
  4 10  1  0  0  0  0
  4  3  1  0  0  0  0
  5 12  1  1  0  0  0
  5  4  1  0  0  0  0
  5  1  1  0  0  0  0
  9  3  1  0  0  0  0
 11  4  1  0  0  0  0
 13  5  1  0  0  0  0
 14 13  1  0  0  0  0
 14 15  1  0  0  0  0
 16 14  2  0  0  0  0
 17 16  1  0  0  0  0
 17 23  1  0  0  0  0
 18 17  2  0  0  0  0
 19 18  1  0  0  0  0
 19 20  2  0  0  0  0
 20 22  1  0  0  0  0
 21 20  1  0  0  0  0
 22 23  2  0  0  0  0
 23 13  1  0  0  0  0
 24 18  1  0  0  0  0
 25 24  1  0  0  0  0
 26 24  1  0  0  0  0
 27 33  1  0  0  0  0
 27 28  1  0  0  0  0
 28 34  1  0  0  0  0
 29 28  2  0  0  0  0
 29  1  1  0  0  0  0
 30 29  1  0  0  0  0
 31 32  1  0  0  0  0
 31 30  2  0  0  0  0
 32 27  2  0  0  0  0
 35 31  1  0  0  0  0
M  END
>  <minimizedAffinity>
-5.2039237

$$$$

 OpenBabel03242512493D

 35 38  0  0  1  0  0  0  0  0999 V2000
   39.3580   31.7920   38.6220 N   0  0  0  0  0  0  0  0  0  0  0  0
   40.4920   32.6750   38.3520 C   0  0  0  0  0  0  0  0  0  0  0  0
   41.1230   32.6700   39.7160 C   0  0  0  0  0  0  0  0  0  0  0  0
   39.9010   33.0320   40.5540 C   0  0  0  0  0  0  0  0  0  0  0  0
   38.7950   32.2870   39.8650 C   0  0  2  0  0  0  0  0  0  0  0  0
   40.0950   33.6710   38.0700 H   0  0  0  0  0  0  0  0  0  0  0  0
   41.1540   32.2830   37.5520 H   0  0  0  0  0  0  0  0  0  0  0  0
   41.9260   33.4220   39.8080 H   0  0  0  0  0  0  0  0  0  0  0  0
   41.4840   31.6710   39.9480 H   0  0  0  0  0  0  0  0  0  0  0  0
   39.7570   34.1320   40.5890 H   0  0  0  0  0  0  0  0  0  0  0  0
   40.0340   32.6010   41.5650 H   0  0  0  0  0  0  0  0  0  0  0  0
   38.0760   33.0980   39.5250 H   0  0  0  0  0  0  0  0  0  0  0  0
   38.0890   31.3420   40.6460 N   0  0  0  0  0  0  0  0  0  0  0  0
   36.7240   31.3250   40.7050 C   0  0  0  0  0  0  0  0  0  0  0  0
   35.9650   31.9480   40.2260 H   0  0  0  0  0  0  0  0  0  0  0  0
   36.3070   30.3380   41.5140 N   0  0  0  0  0  0  0  0  0  0  0  0
   37.3690   29.6810   42.0100 C   0  0  0  0  0  0  0  0  0  0  0  0
   37.5100   28.6090   42.8690 C   0  0  0  0  0  0  0  0  0  0  0  0
   38.7810   28.2090   43.1480 N   0  0  0  0  0  0  0  0  0  0  0  0
   39.8420   28.8460   42.6010 C   0  0  0  0  0  0  0  0  0  0  0  0
   40.8140   28.4560   42.8820 H   0  0  0  0  0  0  0  0  0  0  0  0
   39.6660   29.8860   41.7680 N   0  0  0  0  0  0  0  0  0  0  0  0
   38.4520   30.3290   41.4520 C   0  0  0  0  0  0  0  0  0  0  0  0
   36.3440   27.9930   43.4040 N   0  0  0  0  0  0  0  0  0  0  0  0
   35.5320   27.4740   42.9740 H   0  0  0  0  0  0  0  0  0  0  0  0
   36.4070   28.1460   44.4440 H   0  0  0  0  0  0  0  0  0  0  0  0
   38.8750   28.4410   37.0970 C   0  0  0  0  0  0  0  0  0  0  0  0
   39.4740   29.4570   37.8450 C   0  0  0  0  0  0  0  0  0  0  0  0
   38.8570   30.7040   37.9060 C   0  0  0  0  0  0  0  0  0  0  0  0
   37.6770   30.8600   37.2150 N   0  0  0  0  0  0  0  0  0  0  0  0
   37.1150   29.8720   36.4980 C   0  0  0  0  0  0  0  0  0  0  0  0
   37.7040   28.6650   36.4360 N   0  0  0  0  0  0  0  0  0  0  0  0
   39.4210   27.5030   37.1050 H   0  0  0  0  0  0  0  0  0  0  0  0
   40.4040   29.2910   38.3710 H   0  0  0  0  0  0  0  0  0  0  0  0
   36.1910   30.0100   35.9630 H   0  0  0  0  0  0  0  0  0  0  0  0
  1  5  1  0  0  0  0
  2  1  1  0  0  0  0
  2  3  1  0  0  0  0
  3  8  1  0  0  0  0
  3  9  1  0  0  0  0
  3  4  1  0  0  0  0
  4 10  1  0  0  0  0
  4 11  1  0  0  0  0
  5 12  1  6  0  0  0
  5  4  1  0  0  0  0
  5 13  1  0  0  0  0
  6  2  1  0  0  0  0
  7  2  1  0  0  0  0
 13 14  1  0  0  0  0
 13 23  1  0  0  0  0
 14 16  2  0  0  0  0
 15 14  1  0  0  0  0
 16 17  1  0  0  0  0
 17 18  1  0  0  0  0
 18 19  2  0  0  0  0
 18 24  1  0  0  0  0
 20 21  1  0  0  0  0
 20 19  1  0  0  0  0
 22 20  2  0  0  0  0
 23 22  1  0  0  0  0
 23 17  2  0  0  0  0
 24 26  1  0  0  0  0
 25 24  1  0  0  0  0
 27 33  1  0  0  0  0
 27 28  1  0  0  0  0
 28 29  2  0  0  0  0
 28 34  1  0  0  0  0
 29  1  1  0  0  0  0
 30 29  1  0  0  0  0
 31 30  2  0  0  0  0
 32 31  1  0  0  0  0
 32 27  2  0  0  0  0
 35 31  1  0  0  0  0
M  END
>  <minimizedAffinity>
-5.09802818

$$$$

 OpenBabel03242512493D

 35 38  0  0  1  0  0  0  0  0999 V2000
   37.3110   31.8810   40.0070 N   0  0  0  0  0  0  0  0  0  0  0  0
   37.3250   33.2930   39.6220 C   0  0  0  0  0  0  0  0  0  0  0  0
   38.8120   33.5020   39.5550 C   0  0  0  0  0  0  0  0  0  0  0  0
   39.2000   32.9550   40.9250 C   0  0  0  0  0  0  0  0  0  0  0  0
   38.2720   31.7850   41.0890 C   0  0  2  0  0  0  0  0  0  0  0  0
   36.8490   33.8760   40.4350 H   0  0  0  0  0  0  0  0  0  0  0  0
   36.8040   33.4750   38.6590 H   0  0  0  0  0  0  0  0  0  0  0  0
   39.0790   34.5670   39.4440 H   0  0  0  0  0  0  0  0  0  0  0  0
   39.2300   32.9000   38.7520 H   0  0  0  0  0  0  0  0  0  0  0  0
   39.0920   33.7350   41.7070 H   0  0  0  0  0  0  0  0  0  0  0  0
   40.2360   32.5720   40.8650 H   0  0  0  0  0  0  0  0  0  0  0  0
   37.6590   32.0370   42.0110 H   0  0  0  0  0  0  0  0  0  0  0  0
   38.8790   30.5210   41.2700 N   0  0  0  0  0  0  0  0  0  0  0  0
   39.9740   30.1320   40.5500 C   0  0  0  0  0  0  0  0  0  0  0  0
   40.5560   30.6380   39.7780 H   0  0  0  0  0  0  0  0  0  0  0  0
   40.3490   28.8940   40.9090 N   0  0  0  0  0  0  0  0  0  0  0  0
   39.5250   28.4310   41.8640 C   0  0  0  0  0  0  0  0  0  0  0  0
   39.4570   27.2470   42.5720 C   0  0  0  0  0  0  0  0  0  0  0  0
   38.4560   27.1350   43.4870 N   0  0  0  0  0  0  0  0  0  0  0  0
   37.5790   28.1470   43.6790 C   0  0  0  0  0  0  0  0  0  0  0  0
   36.8170   27.9670   44.4290 H   0  0  0  0  0  0  0  0  0  0  0  0
   37.6760   29.2860   42.9710 N   0  0  0  0  0  0  0  0  0  0  0  0
   38.6300   29.4620   42.0610 C   0  0  0  0  0  0  0  0  0  0  0  0
   40.4170   26.2290   42.3110 N   0  0  0  0  0  0  0  0  0  0  0  0
   41.4660   26.1720   42.4190 H   0  0  0  0  0  0  0  0  0  0  0  0
   39.8600   25.4160   41.9410 H   0  0  0  0  0  0  0  0  0  0  0  0
   35.9580   29.1770   37.8520 C   0  0  0  0  0  0  0  0  0  0  0  0
   36.7540   30.2560   38.2410 C   0  0  0  0  0  0  0  0  0  0  0  0
   36.5740   30.8060   39.5070 C   0  0  0  0  0  0  0  0  0  0  0  0
   35.6080   30.2430   40.3090 N   0  0  0  0  0  0  0  0  0  0  0  0
   34.8490   29.2050   39.9190 C   0  0  0  0  0  0  0  0  0  0  0  0
   35.0180   28.6680   38.6990 N   0  0  0  0  0  0  0  0  0  0  0  0
   36.1640   28.8100   36.8520 H   0  0  0  0  0  0  0  0  0  0  0  0
   37.5000   30.6690   37.5760 H   0  0  0  0  0  0  0  0  0  0  0  0
   34.0980   28.7760   40.5590 H   0  0  0  0  0  0  0  0  0  0  0  0
  1  5  1  0  0  0  0
  2  1  1  0  0  0  0
  2  6  1  0  0  0  0
  3  2  1  0  0  0  0
  3  4  1  0  0  0  0
  4  5  1  0  0  0  0
  4 10  1  0  0  0  0
  5 13  1  0  0  0  0
  5 12  1  1  0  0  0
  7  2  1  0  0  0  0
  8  3  1  0  0  0  0
  9  3  1  0  0  0  0
 11  4  1  0  0  0  0
 13 23  1  0  0  0  0
 14 16  2  0  0  0  0
 14 13  1  0  0  0  0
 15 14  1  0  0  0  0
 16 17  1  0  0  0  0
 17 23  2  0  0  0  0
 17 18  1  0  0  0  0
 18 19  2  0  0  0  0
 19 20  1  0  0  0  0
 20 21  1  0  0  0  0
 22 20  2  0  0  0  0
 23 22  1  0  0  0  0
 24 25  1  0  0  0  0
 24 18  1  0  0  0  0
 26 24  1  0  0  0  0
 27 28  2  0  0  0  0
 27 32  1  0  0  0  0
 28 29  1  0  0  0  0
 29  1  1  0  0  0  0
 29 30  2  0  0  0  0
 31 30  1  0  0  0  0
 31 35  1  0  0  0  0
 32 31  2  0  0  0  0
 33 27  1  0  0  0  0
 34 28  1  0  0  0  0
M  END
>  <minimizedAffinity>
-5.06065798

$$$$

 OpenBabel03242512493D

 35 38  0  0  1  0  0  0  0  0999 V2000
   37.5910   29.9350   41.4650 N   0  0  0  0  0  0  0  0  0  0  0  0
   37.7720   29.3520   42.7950 C   0  0  0  0  0  0  0  0  0  0  0  0
   37.9260   27.9100   42.3990 C   0  0  0  0  0  0  0  0  0  0  0  0
   36.6820   27.7590   41.5290 C   0  0  0  0  0  0  0  0  0  0  0  0
   36.6120   29.0800   40.8190 C   0  0  2  0  0  0  0  0  0  0  0  0
   36.8490   29.5360   43.3810 H   0  0  0  0  0  0  0  0  0  0  0  0
   38.6540   29.7670   43.3230 H   0  0  0  0  0  0  0  0  0  0  0  0
   37.9060   27.2330   43.2710 H   0  0  0  0  0  0  0  0  0  0  0  0
   38.8370   27.7860   41.8190 H   0  0  0  0  0  0  0  0  0  0  0  0
   35.7920   27.5270   42.1500 H   0  0  0  0  0  0  0  0  0  0  0  0
   36.8780   26.9700   40.7790 H   0  0  0  0  0  0  0  0  0  0  0  0
   35.6180   29.5230   41.1430 H   0  0  0  0  0  0  0  0  0  0  0  0
   36.6610   29.0390   39.4060 N   0  0  0  0  0  0  0  0  0  0  0  0
   35.6560   29.5450   38.6310 C   0  0  0  0  0  0  0  0  0  0  0  0
   34.7130   30.0340   38.8860 H   0  0  0  0  0  0  0  0  0  0  0  0
   35.9450   29.3790   37.3300 N   0  0  0  0  0  0  0  0  0  0  0  0
   37.1340   28.7650   37.2060 C   0  0  0  0  0  0  0  0  0  0  0  0
   37.8890   28.3620   36.1230 C   0  0  0  0  0  0  0  0  0  0  0  0
   39.0770   27.7560   36.3940 N   0  0  0  0  0  0  0  0  0  0  0  0
   39.4800   27.5650   37.6710 C   0  0  0  0  0  0  0  0  0  0  0  0
   40.4390   27.0750   37.7890 H   0  0  0  0  0  0  0  0  0  0  0  0
   38.7170   27.9710   38.7020 N   0  0  0  0  0  0  0  0  0  0  0  0
   37.5450   28.5700   38.5080 C   0  0  0  0  0  0  0  0  0  0  0  0
   37.3950   28.5980   34.8090 N   0  0  0  0  0  0  0  0  0  0  0  0
   37.1710   29.4720   34.2610 H   0  0  0  0  0  0  0  0  0  0  0  0
   37.2620   27.6410   34.3910 H   0  0  0  0  0  0  0  0  0  0  0  0
   39.9980   32.3150   39.9380 C   0  0  0  0  0  0  0  0  0  0  0  0
   39.5250   31.1430   40.5330 C   0  0  0  0  0  0  0  0  0  0  0  0
   38.1770   31.0530   40.8720 C   0  0  0  0  0  0  0  0  0  0  0  0
   37.3820   32.1420   40.5940 N   0  0  0  0  0  0  0  0  0  0  0  0
   37.8530   33.2630   40.0220 C   0  0  0  0  0  0  0  0  0  0  0  0
   39.1530   33.3570   39.6920 N   0  0  0  0  0  0  0  0  0  0  0  0
   41.0570   32.3000   39.7070 H   0  0  0  0  0  0  0  0  0  0  0  0
   40.1860   30.3120   40.7350 H   0  0  0  0  0  0  0  0  0  0  0  0
   37.2180   34.1060   39.8120 H   0  0  0  0  0  0  0  0  0  0  0  0
  1  2  1  0  0  0  0
  2  7  1  0  0  0  0
  2  6  1  0  0  0  0
  3  2  1  0  0  0  0
  3  8  1  0  0  0  0
  4 10  1  0  0  0  0
  4  3  1  0  0  0  0
  5 12  1  1  0  0  0
  5  1  1  0  0  0  0
  5  4  1  0  0  0  0
  9  3  1  0  0  0  0
 11  4  1  0  0  0  0
 13  5  1  0  0  0  0
 14 15  1  0  0  0  0
 14 13  1  0  0  0  0
 16 14  2  0  0  0  0
 17 16  1  0  0  0  0
 17 23  1  0  0  0  0
 18 19  1  0  0  0  0
 18 17  2  0  0  0  0
 19 20  2  0  0  0  0
 20 21  1  0  0  0  0
 20 22  1  0  0  0  0
 23 22  2  0  0  0  0
 23 13  1  0  0  0  0
 24 18  1  0  0  0  0
 25 24  1  0  0  0  0
 26 24  1  0  0  0  0
 27 28  1  0  0  0  0
 28 34  1  0  0  0  0
 28 29  2  0  0  0  0
 29  1  1  0  0  0  0
 30 29  1  0  0  0  0
 31 30  2  0  0  0  0
 32 27  2  0  0  0  0
 32 31  1  0  0  0  0
 33 27  1  0  0  0  0
 35 31  1  0  0  0  0
M  END
>  <minimizedAffinity>
-5.04031229

$$$$

 OpenBabel03242512493D

 35 38  0  0  1  0  0  0  0  0999 V2000
   37.6440   27.6130   41.4940 N   0  0  0  0  0  0  0  0  0  0  0  0
   37.5730   26.6110   42.5580 C   0  0  0  0  0  0  0  0  0  0  0  0
   38.1630   27.4180   43.6800 C   0  0  0  0  0  0  0  0  0  0  0  0
   39.4420   27.8930   42.9950 C   0  0  0  0  0  0  0  0  0  0  0  0
   38.9870   28.1550   41.5890 C   0  0  2  0  0  0  0  0  0  0  0  0
   38.2140   25.7540   42.2670 H   0  0  0  0  0  0  0  0  0  0  0  0
   36.5350   26.2700   42.7500 H   0  0  0  0  0  0  0  0  0  0  0  0
   38.3750   26.8030   44.5710 H   0  0  0  0  0  0  0  0  0  0  0  0
   37.5050   28.2500   43.9160 H   0  0  0  0  0  0  0  0  0  0  0  0
   40.2420   27.1290   43.0810 H   0  0  0  0  0  0  0  0  0  0  0  0
   39.7410   28.8560   43.4500 H   0  0  0  0  0  0  0  0  0  0  0  0
   39.6050   27.4450   40.9540 H   0  0  0  0  0  0  0  0  0  0  0  0
   39.1590   29.4740   41.1060 N   0  0  0  0  0  0  0  0  0  0  0  0
   38.9110   30.5690   41.8850 C   0  0  0  0  0  0  0  0  0  0  0  0
   38.5740   30.6670   42.9200 H   0  0  0  0  0  0  0  0  0  0  0  0
   39.1480   31.6940   41.1920 N   0  0  0  0  0  0  0  0  0  0  0  0
   39.5520   31.3820   39.9490 C   0  0  0  0  0  0  0  0  0  0  0  0
   39.9180   32.1340   38.8500 C   0  0  0  0  0  0  0  0  0  0  0  0
   40.2800   31.4500   37.7310 N   0  0  0  0  0  0  0  0  0  0  0  0
   40.2740   30.0970   37.7160 C   0  0  0  0  0  0  0  0  0  0  0  0
   40.5790   29.6400   36.7810 H   0  0  0  0  0  0  0  0  0  0  0  0
   39.9120   29.3980   38.8060 N   0  0  0  0  0  0  0  0  0  0  0  0
   39.5460   30.0030   39.9320 C   0  0  0  0  0  0  0  0  0  0  0  0
   39.8980   33.5540   38.9450 N   0  0  0  0  0  0  0  0  0  0  0  0
   40.4270   34.2530   39.5330 H   0  0  0  0  0  0  0  0  0  0  0  0
   39.1750   33.8650   38.2450 H   0  0  0  0  0  0  0  0  0  0  0  0
   34.7400   29.2040   39.8150 C   0  0  0  0  0  0  0  0  0  0  0  0
   35.6270   28.8660   40.8390 C   0  0  0  0  0  0  0  0  0  0  0  0
   36.6940   28.0160   40.5560 C   0  0  0  0  0  0  0  0  0  0  0  0
   36.8090   27.5560   39.2640 N   0  0  0  0  0  0  0  0  0  0  0  0
   35.9450   27.8900   38.2900 C   0  0  0  0  0  0  0  0  0  0  0  0
   34.9140   28.7100   38.5550 N   0  0  0  0  0  0  0  0  0  0  0  0
   33.9400   29.8690   40.1210 H   0  0  0  0  0  0  0  0  0  0  0  0
   35.4970   29.2490   41.8410 H   0  0  0  0  0  0  0  0  0  0  0  0
   36.0500   27.5210   37.2840 H   0  0  0  0  0  0  0  0  0  0  0  0
  1  5  1  0  0  0  0
  1  2  1  0  0  0  0
  2  7  1  0  0  0  0
  2  3  1  0  0  0  0
  3  9  1  0  0  0  0
  3  8  1  0  0  0  0
  4 10  1  0  0  0  0
  4 11  1  0  0  0  0
  4  3  1  0  0  0  0
  5 12  1  6  0  0  0
  5  4  1  0  0  0  0
  6  2  1  0  0  0  0
 13  5  1  0  0  0  0
 13 14  1  0  0  0  0
 14 15  1  0  0  0  0
 16 14  2  0  0  0  0
 17 16  1  0  0  0  0
 18 24  1  0  0  0  0
 18 17  2  0  0  0  0
 19 18  1  0  0  0  0
 20 19  2  0  0  0  0
 20 22  1  0  0  0  0
 21 20  1  0  0  0  0
 22 23  2  0  0  0  0
 23 17  1  0  0  0  0
 23 13  1  0  0  0  0
 24 25  1  0  0  0  0
 26 24  1  0  0  0  0
 27 33  1  0  0  0  0
 27 28  1  0  0  0  0
 28 34  1  0  0  0  0
 29 28  2  0  0  0  0
 29  1  1  0  0  0  0
 30 29  1  0  0  0  0
 31 32  1  0  0  0  0
 31 30  2  0  0  0  0
 32 27  2  0  0  0  0
 35 31  1  0  0  0  0
M  END
>  <minimizedAffinity>
-5.03712463

$$$$
