
 OpenBabel03252504413D

 50 54  0  0  0  0  0  0  0  0999 V2000
   45.5480   33.0390   46.8680 C   0  0  0  0  0  0  0  0  0  0  0  0
   44.5530   32.5840   46.6870 H   0  0  0  0  0  0  0  0  0  0  0  0
   45.4800   34.0720   47.2700 H   0  0  0  0  0  0  0  0  0  0  0  0
   46.3030   32.2360   47.8750 C   0  0  0  0  0  0  0  0  0  0  0  0
   45.8460   31.8000   49.0840 C   0  0  0  0  0  0  0  0  0  0  0  0
   46.8510   31.1260   49.6450 N   0  0  0  0  0  0  0  0  0  0  0  0
   47.9290   31.1060   48.8550 C   0  0  0  0  0  0  0  0  0  0  0  0
   47.5730   31.8080   47.7420 N   0  0  0  0  0  0  0  0  0  0  0  0
   49.2090   30.5270   49.0150 N   0  0  0  0  0  0  0  0  0  0  0  0
   50.2650   31.3390   49.6550 C   0  0  0  0  0  0  0  0  0  0  0  0
   50.3840   30.7710   51.0680 C   0  0  0  0  0  0  0  0  0  0  0  0
   50.4750   29.2630   51.0140 C   0  0  0  0  0  0  0  0  0  0  0  0
   50.8350   28.8260   49.6040 C   0  0  0  0  0  0  0  0  0  0  0  0
   49.7290   29.2400   48.6690 C   0  0  0  0  0  0  0  0  0  0  0  0
   44.8650   31.9540   49.5350 H   0  0  0  0  0  0  0  0  0  0  0  0
   46.8590   30.6520   50.5740 H   0  0  0  0  0  0  0  0  0  0  0  0
   51.2070   31.2850   49.0950 H   0  0  0  0  0  0  0  0  0  0  0  0
   49.9530   32.3940   49.7460 H   0  0  0  0  0  0  0  0  0  0  0  0
   51.3100   31.2140   51.5300 H   0  0  0  0  0  0  0  0  0  0  0  0
   49.5300   31.1260   51.6650 H   0  0  0  0  0  0  0  0  0  0  0  0
   49.4210   28.8900   51.1610 H   0  0  0  0  0  0  0  0  0  0  0  0
   51.1340   28.8210   51.7630 H   0  0  0  0  0  0  0  0  0  0  0  0
   51.0110   27.7410   49.6130 H   0  0  0  0  0  0  0  0  0  0  0  0
   51.8040   29.3350   49.3560 H   0  0  0  0  0  0  0  0  0  0  0  0
   48.9390   28.4400   48.7280 H   0  0  0  0  0  0  0  0  0  0  0  0
   50.1090   29.2180   47.6220 H   0  0  0  0  0  0  0  0  0  0  0  0
   46.0770   34.0760   44.6970 C   0  0  0  0  0  3  0  0  0  0  0  0
   46.3020   33.1350   45.5960 C   0  0  0  0  0  3  0  0  0  0  0  0
   46.8910   34.0630   43.4770 C   0  0  0  0  0  0  0  0  0  0  0  0
   46.6380   34.9420   42.3970 C   0  0  0  0  0  0  0  0  0  0  0  0
   47.4750   34.8410   41.2900 C   0  0  0  0  0  0  0  0  0  0  0  0
   48.4660   33.9420   41.2760 N   0  0  0  0  0  0  0  0  0  0  0  0
   48.6910   33.1090   42.3220 C   0  0  0  0  0  0  0  0  0  0  0  0
   47.9160   33.1780   43.3890 N   0  0  0  0  0  0  0  0  0  0  0  0
   45.8170   35.6430   42.4810 H   0  0  0  0  0  0  0  0  0  0  0  0
   47.3050   35.4930   40.4620 H   0  0  0  0  0  0  0  0  0  0  0  0
   49.7780   32.2120   42.1580 N   0  0  0  0  0  0  0  0  0  0  0  0
   50.9230   32.4040   41.4470 C   0  0  0  0  0  0  0  0  0  0  0  0
   51.1670   33.3140   40.8830 H   0  0  0  0  0  0  0  0  0  0  0  0
   51.7030   31.3030   41.5480 N   0  0  0  0  0  0  0  0  0  0  0  0
   51.0600   30.3990   42.3250 C   0  0  0  0  0  0  0  0  0  0  0  0
   51.3790   29.1170   42.7610 C   0  0  0  0  0  0  0  0  0  0  0  0
   50.4870   28.4660   43.5530 N   0  0  0  0  0  0  0  0  0  0  0  0
   49.3300   29.0150   43.9180 C   0  0  0  0  0  0  0  0  0  0  0  0
   48.6670   28.4440   44.5490 H   0  0  0  0  0  0  0  0  0  0  0  0
   49.0270   30.2630   43.4900 N   0  0  0  0  0  0  0  0  0  0  0  0
   49.8520   30.9710   42.7080 C   0  0  0  0  0  0  0  0  0  0  0  0
   52.6100   28.5130   42.3800 N   0  0  0  0  0  0  0  0  0  0  0  0
   52.9800   27.9630   41.5750 H   0  0  0  0  0  0  0  0  0  0  0  0
   53.2300   28.7370   43.1840 H   0  0  0  0  0  0  0  0  0  0  0  0
  1  3  1  0  0  0  0
  1  4  1  0  0  0  0
  2  1  1  0  0  0  0
  4  5  2  0  0  0  0
  5 15  1  0  0  0  0
  5  6  1  0  0  0  0
  6 16  1  0  0  0  0
  7  9  1  0  0  0  0
  7  6  1  0  0  0  0
  8  4  1  0  0  0  0
  8  7  2  0  0  0  0
  9 10  1  0  0  0  0
 10 18  1  0  0  0  0
 10 11  1  0  0  0  0
 11 19  1  0  0  0  0
 11 20  1  0  0  0  0
 12 11  1  0  0  0  0
 12 21  1  0  0  0  0
 12 22  1  0  0  0  0
 13 23  1  0  0  0  0
 13 12  1  0  0  0  0
 14 25  1  0  0  0  0
 14  9  1  0  0  0  0
 14 13  1  0  0  0  0
 17 10  1  0  0  0  0
 24 13  1  0  0  0  0
 26 14  1  0  0  0  0
 27 28  2  0  0  0  0
 28  1  1  0  0  0  0
 29 27  1  0  0  0  0
 30 35  1  0  0  0  0
 30 29  2  0  0  0  0
 31 30  1  0  0  0  0
 32 31  2  0  0  0  0
 32 33  1  0  0  0  0
 33 34  2  0  0  0  0
 34 29  1  0  0  0  0
 36 31  1  0  0  0  0
 37 33  1  0  0  0  0
 37 47  1  0  0  0  0
 38 40  2  0  0  0  0
 38 37  1  0  0  0  0
 39 38  1  0  0  0  0
 40 41  1  0  0  0  0
 41 47  2  0  0  0  0
 41 42  1  0  0  0  0
 42 43  2  0  0  0  0
 43 44  1  0  0  0  0
 44 45  1  0  0  0  0
 46 44  2  0  0  0  0
 47 46  1  0  0  0  0
 48 42  1  0  0  0  0
 48 50  1  0  0  0  0
 49 48  1  0  0  0  0
M  END
>  <minimizedAffinity>
-6.46023083

>  <minimizedRMSD>
0.40490672

$$$$
