
 OpenBabel03252506583D

 29 31  0  0  0  0  0  0  0  0999 V2000
   46.0530   32.0600   42.9080 C   0  0  0  0  0  0  0  0  0  0  0  0
   46.0380   31.3060   43.7200 H   0  0  0  0  0  0  0  0  0  0  0  0
   46.5150   32.9760   43.3250 H   0  0  0  0  0  0  0  0  0  0  0  0
   44.7000   32.2950   42.3960 N   0  0  0  0  0  0  0  0  0  0  0  0
   43.8220   31.2720   42.2700 C   0  0  0  0  0  0  0  0  0  0  0  0
   43.9730   30.2290   42.5060 H   0  0  0  0  0  0  0  0  0  0  0  0
   42.6750   31.8090   41.7750 N   0  0  0  0  0  0  0  0  0  0  0  0
   42.8670   33.1310   41.6090 C   0  0  0  0  0  0  0  0  0  0  0  0
   42.0970   34.1930   41.1530 C   0  0  0  0  0  0  0  0  0  0  0  0
   42.6120   35.4380   41.1130 N   0  0  0  0  0  0  0  0  0  0  0  0
   43.8880   35.7030   41.5110 C   0  0  0  0  0  0  0  0  0  0  0  0
   44.1110   36.7570   41.4040 H   0  0  0  0  0  0  0  0  0  0  0  0
   44.6910   34.7010   41.9680 N   0  0  0  0  0  0  0  0  0  0  0  0
   44.1660   33.4660   42.0030 C   0  0  0  0  0  0  0  0  0  0  0  0
   40.7580   33.9150   40.7360 N   0  0  0  0  0  0  0  0  0  0  0  0
   40.1790   33.1610   41.2050 H   0  0  0  0  0  0  0  0  0  0  0  0
   40.1730   34.3400   39.9930 H   0  0  0  0  0  0  0  0  0  0  0  0
   46.9370   31.4880   41.8020 C   0  0  0  0  0  0  0  0  0  0  0  0
   46.3910   30.7190   41.2180 H   0  0  0  0  0  0  0  0  0  0  0  0
   47.0990   32.3280   41.1180 H   0  0  0  0  0  0  0  0  0  0  0  0
   48.1750   30.9890   42.4020 C   0  0  0  0  0  0  0  0  0  0  0  0
   48.1580   30.1520   43.5070 C   0  0  0  0  0  0  0  0  0  0  0  0
   49.3850   29.7010   44.0470 C   0  0  0  0  0  0  0  0  0  0  0  0
   50.5120   30.1260   43.4340 N   0  0  0  0  0  0  0  0  0  0  0  0
   50.4930   30.9480   42.3510 C   0  0  0  0  0  0  0  0  0  0  0  0
   49.3200   31.3740   41.8410 N   0  0  0  0  0  0  0  0  0  0  0  0
   47.2720   29.8200   43.9850 H   0  0  0  0  0  0  0  0  0  0  0  0
   49.4630   29.0530   44.8980 H   0  0  0  0  0  0  0  0  0  0  0  0
   51.4260   31.2750   41.8750 H   0  0  0  0  0  0  0  0  0  0  0  0
  1  3  1  0  0  0  0
  1  2  1  0  0  0  0
  4  1  1  0  0  0  0
  5  4  1  0  0  0  0
  5  6  1  0  0  0  0
  7  5  2  0  0  0  0
  8  7  1  0  0  0  0
  8 14  1  0  0  0  0
  9  8  2  0  0  0  0
 10  9  1  0  0  0  0
 10 11  2  0  0  0  0
 11 13  1  0  0  0  0
 12 11  1  0  0  0  0
 13 14  2  0  0  0  0
 14  4  1  0  0  0  0
 15  9  1  0  0  0  0
 15 16  1  0  0  0  0
 17 15  1  0  0  0  0
 18 21  1  0  0  0  0
 18  1  1  0  0  0  0
 19 18  1  0  0  0  0
 20 18  1  0  0  0  0
 21 22  1  0  0  0  0
 22 27  1  0  0  0  0
 22 23  2  0  0  0  0
 23 28  1  0  0  0  0
 24 23  1  0  0  0  0
 25 24  2  0  0  0  0
 26 25  1  0  0  0  0
 26 21  2  0  0  0  0
 29 25  1  0  0  0  0
M  END
>  <minimizedAffinity>
-2.83981442

>  <minimizedRMSD>
7.97752333

$$$$
