
 OpenBabel03252502433D

 36 39  0  0  1  0  0  0  0  0999 V2000
   49.0510   34.8260   41.5410 C   0  0  1  0  0  0  0  0  0  0  0  0
   50.1000   34.5890   42.5820 C   0  0  0  0  0  0  0  0  0  0  0  0
   49.2460   33.4860   42.0990 C   0  0  2  0  0  0  0  0  0  0  0  0
   49.3690   35.0930   40.4940 H   0  0  0  0  0  0  0  0  0  0  0  0
   50.0360   35.0360   43.5950 H   0  0  0  0  0  0  0  0  0  0  0  0
   51.1350   34.7320   42.2050 H   0  0  0  0  0  0  0  0  0  0  0  0
   48.5840   32.8220   42.6000 H   0  0  0  0  0  0  0  0  0  0  0  0
   49.9910   32.6100   41.1680 N   0  0  0  0  0  0  0  0  0  0  0  0
   51.2530   32.1660   41.3570 C   0  0  0  0  0  0  0  0  0  0  0  0
   51.8640   32.4160   42.2380 H   0  0  0  0  0  0  0  0  0  0  0  0
   51.5630   31.4070   40.2990 N   0  0  0  0  0  0  0  0  0  0  0  0
   50.5230   31.3600   39.4430 C   0  0  0  0  0  0  0  0  0  0  0  0
   50.3050   30.7420   38.2280 C   0  0  0  0  0  0  0  0  0  0  0  0
   49.1230   30.8890   37.5960 N   0  0  0  0  0  0  0  0  0  0  0  0
   48.1420   31.6460   38.1490 C   0  0  0  0  0  0  0  0  0  0  0  0
   47.1980   31.7360   37.5970 H   0  0  0  0  0  0  0  0  0  0  0  0
   48.3390   32.2560   39.3310 N   0  0  0  0  0  0  0  0  0  0  0  0
   49.5220   32.1290   40.0000 C   0  0  0  0  0  0  0  0  0  0  0  0
   51.3970   29.9700   37.7340 N   0  0  0  0  0  0  0  0  0  0  0  0
   52.4020   30.2820   37.6570 H   0  0  0  0  0  0  0  0  0  0  0  0
   51.2170   28.9760   37.4020 H   0  0  0  0  0  0  0  0  0  0  0  0
   47.8240   35.5680   41.9590 C   0  0  0  0  0  0  0  0  0  0  0  0
   47.5810   36.4040   41.2910 H   0  0  0  0  0  0  0  0  0  0  0  0
   48.0570   35.9250   43.0100 H   0  0  0  0  0  0  0  0  0  0  0  0
   46.7100   34.5390   42.0090 C   0  0  0  0  0  0  0  0  0  0  0  0
   47.2120   33.5630   42.2990 H   0  0  0  0  0  0  0  0  0  0  0  0
   46.0910   34.4850   41.1260 H   0  0  0  0  0  0  0  0  0  0  0  0
   44.4980   35.9000   44.7220 C   0  0  0  0  0  0  0  0  0  0  0  0
   45.1400   35.7620   43.4580 C   0  0  0  0  0  0  0  0  0  0  0  0
   45.9780   34.6950   43.2970 C   0  0  0  0  0  0  0  0  0  0  0  0
   46.1620   33.8240   44.3280 N   0  0  0  0  0  0  0  0  0  0  0  0
   45.5570   33.9680   45.4940 C   0  0  0  0  0  0  0  0  0  0  0  0
   44.7300   34.9970   45.6970 N   0  0  0  0  0  0  0  0  0  0  0  0
   43.8180   36.7080   44.9560 H   0  0  0  0  0  0  0  0  0  0  0  0
   44.8450   36.5460   42.7880 H   0  0  0  0  0  0  0  0  0  0  0  0
   45.7660   33.2240   46.2520 H   0  0  0  0  0  0  0  0  0  0  0  0
  1  4  1  6  0  0  0
  1 22  1  0  0  0  0
  1  3  1  0  0  0  0
  1  2  1  0  0  0  0
  2  5  1  0  0  0  0
  3  2  1  0  0  0  0
  3  7  1  1  0  0  0
  6  2  1  0  0  0  0
  8  9  1  0  0  0  0
  8  3  1  0  0  0  0
  9 10  1  0  0  0  0
 11  9  2  0  0  0  0
 12 18  1  0  0  0  0
 12 11  1  0  0  0  0
 13 12  2  0  0  0  0
 14 15  2  0  0  0  0
 14 13  1  0  0  0  0
 15 17  1  0  0  0  0
 16 15  1  0  0  0  0
 17 18  2  0  0  0  0
 18  8  1  0  0  0  0
 19 13  1  0  0  0  0
 20 19  1  0  0  0  0
 21 19  1  0  0  0  0
 22 25  1  0  0  0  0
 22 24  1  0  0  0  0
 23 22  1  0  0  0  0
 25 26  1  0  0  0  0
 25 30  1  0  0  0  0
 27 25  1  0  0  0  0
 28 34  1  0  0  0  0
 28 33  1  0  0  0  0
 29 28  2  0  0  0  0
 30 29  1  0  0  0  0
 30 31  2  0  0  0  0
 31 32  1  0  0  0  0
 32 33  2  0  0  0  0
 32 36  1  0  0  0  0
 35 29  1  0  0  0  0
M  END
>  <minimizedAffinity>
-5.11667871

>  <minimizedRMSD>
1.54257905

$$$$
