
 OpenBabel03242517333D

 52 56  0  0  1  0  0  0  0  0999 V2000
   37.9520   27.9030   43.0680 C   0  0  0  0  0  0  0  0  0  0  0  0
   38.4360   28.5130   43.8650 H   0  0  0  0  0  0  0  0  0  0  0  0
   37.4590   27.0660   43.5680 H   0  0  0  0  0  0  0  0  0  0  0  0
   37.2120   25.2000   38.7510 C   0  0  0  0  0  0  0  0  0  0  0  0
   36.2530   24.2490   39.1930 C   0  0  0  0  0  0  0  0  0  0  0  0
   36.2310   23.9170   40.5550 C   0  0  0  0  0  0  0  0  0  0  0  0
   37.1280   24.5260   41.3630 N   0  0  0  0  0  0  0  0  0  0  0  0
   38.0220   25.4140   40.9500 C   0  0  0  0  0  0  0  0  0  0  0  0
   38.0350   25.7250   39.6460 N   0  0  0  0  0  0  0  0  0  0  0  0
   38.9030   25.9880   41.8550 N   0  0  0  0  0  0  0  0  0  0  0  0
   39.7880   25.1550   42.6420 C   0  0  0  0  0  0  0  0  0  0  0  0
   40.3850   25.8540   43.8210 C   0  0  0  0  0  0  0  0  0  0  0  0
   40.6140   27.2550   43.6980 N   0  0  0  0  0  0  0  0  0  0  0  0
   40.3530   27.7540   42.3750 C   0  0  0  0  0  0  0  0  0  0  0  0
   38.9320   27.4580   42.0090 C   0  0  2  0  0  0  0  0  0  0  0  0
   37.3160   25.5250   37.7380 H   0  0  0  0  0  0  0  0  0  0  0  0
   35.5950   23.8320   38.4650 H   0  0  0  0  0  0  0  0  0  0  0  0
   35.5050   23.1930   40.9010 H   0  0  0  0  0  0  0  0  0  0  0  0
   39.1480   24.2940   42.9840 H   0  0  0  0  0  0  0  0  0  0  0  0
   40.5880   24.7250   42.0150 H   0  0  0  0  0  0  0  0  0  0  0  0
   41.3560   25.3660   44.0820 H   0  0  0  0  0  0  0  0  0  0  0  0
   39.7310   25.6220   44.7120 H   0  0  0  0  0  0  0  0  0  0  0  0
   41.5310   27.5620   44.0960 H   0  0  0  0  0  0  0  0  0  0  0  0
   40.6710   28.7900   42.3070 H   0  0  0  0  0  0  0  0  0  0  0  0
   40.9870   27.1030   41.6940 H   0  0  0  0  0  0  0  0  0  0  0  0
   38.6430   27.9430   41.0570 H   0  0  0  0  0  0  0  0  0  0  0  0
   36.9140   28.7250   42.3510 C   0  0  0  0  0  3  0  0  0  0  0  0
   37.2350   29.8990   41.8140 C   0  0  0  0  0  3  0  0  0  0  0  0
   36.2930   30.7880   41.0870 C   0  0  0  0  0  0  0  0  0  0  0  0
   35.5440   30.1860   40.5220 H   0  0  0  0  0  0  0  0  0  0  0  0
   35.7290   31.3700   41.8150 H   0  0  0  0  0  0  0  0  0  0  0  0
   37.0760   31.7050   40.1740 C   0  0  2  0  0  0  0  0  0  0  0  0
   37.3070   31.2510   38.7620 C   0  0  0  0  0  0  0  0  0  0  0  0
   38.4440   31.3210   39.7470 C   0  0  1  0  0  0  0  0  0  0  0  0
   36.8860   32.7930   40.3580 H   0  0  0  0  0  0  0  0  0  0  0  0
   37.1820   32.0120   37.9840 H   0  0  0  0  0  0  0  0  0  0  0  0
   36.9490   30.2120   38.5070 H   0  0  0  0  0  0  0  0  0  0  0  0
   38.8580   30.3850   40.1470 H   0  0  0  0  0  0  0  0  0  0  0  0
   39.4050   32.3870   39.4220 N   0  0  0  0  0  0  0  0  0  0  0  0
   39.4450   33.6400   39.9110 C   0  0  0  0  0  0  0  0  0  0  0  0
   38.7360   34.0460   40.6480 H   0  0  0  0  0  0  0  0  0  0  0  0
   40.4540   34.3190   39.3880 N   0  0  0  0  0  0  0  0  0  0  0  0
   41.0920   33.5050   38.5370 C   0  0  0  0  0  0  0  0  0  0  0  0
   42.1870   33.6310   37.7130 C   0  0  0  0  0  0  0  0  0  0  0  0
   42.5920   32.6070   36.9620 N   0  0  0  0  0  0  0  0  0  0  0  0
   41.9210   31.4300   37.0080 C   0  0  0  0  0  0  0  0  0  0  0  0
   42.3440   30.6770   36.3560 H   0  0  0  0  0  0  0  0  0  0  0  0
   40.8350   31.2570   37.8060 N   0  0  0  0  0  0  0  0  0  0  0  0
   40.4290   32.2800   38.5570 C   0  0  0  0  0  0  0  0  0  0  0  0
   42.8400   34.9110   37.7240 N   0  0  0  0  0  0  0  0  0  0  0  0
   43.4490   35.4540   38.3800 H   0  0  0  0  0  0  0  0  0  0  0  0
   42.5930   35.3620   36.7960 H   0  0  0  0  0  0  0  0  0  0  0  0
  1  3  1  0  0  0  0
  1  2  1  0  0  0  0
  4  5  2  0  0  0  0
  4  9  1  0  0  0  0
  5  6  1  0  0  0  0
  6 18  1  0  0  0  0
  6  7  2  0  0  0  0
  8  7  1  0  0  0  0
  8 10  1  0  0  0  0
  9  8  2  0  0  0  0
 10 15  1  0  0  0  0
 10 11  1  0  0  0  0
 11 19  1  0  0  0  0
 11 12  1  0  0  0  0
 12 21  1  0  0  0  0
 12 22  1  0  0  0  0
 13 12  1  0  0  0  0
 13 23  1  0  0  0  0
 14 13  1  0  0  0  0
 15 26  1  6  0  0  0
 15 14  1  0  0  0  0
 15  1  1  0  0  0  0
 16  4  1  0  0  0  0
 17  5  1  0  0  0  0
 20 11  1  0  0  0  0
 24 14  1  0  0  0  0
 25 14  1  0  0  0  0
 27  1  1  0  0  0  0
 28 27  2  0  0  0  0
 29 28  1  0  0  0  0
 29 31  1  0  0  0  0
 30 29  1  0  0  0  0
 32 35  1  1  0  0  0
 32 29  1  0  0  0  0
 33 34  1  0  0  0  0
 33 32  1  0  0  0  0
 34 38  1  1  0  0  0
 34 32  1  0  0  0  0
 36 33  1  0  0  0  0
 37 33  1  0  0  0  0
 39 34  1  0  0  0  0
 39 40  1  0  0  0  0
 40 41  1  0  0  0  0
 42 40  2  0  0  0  0
 43 49  1  0  0  0  0
 43 42  1  0  0  0  0
 44 50  1  0  0  0  0
 44 43  2  0  0  0  0
 45 46  2  0  0  0  0
 45 44  1  0  0  0  0
 46 48  1  0  0  0  0
 47 46  1  0  0  0  0
 48 49  2  0  0  0  0
 49 39  1  0  0  0  0
 50 51  1  0  0  0  0
 52 50  1  0  0  0  0
M  END
>  <minimizedAffinity>
-6.72168589

$$$$

 OpenBabel03242517333D

 52 56  0  0  1  0  0  0  0  0999 V2000
   37.4840   27.9030   42.6790 C   0  0  0  0  0  0  0  0  0  0  0  0
   37.7770   27.7650   43.7450 H   0  0  0  0  0  0  0  0  0  0  0  0
   36.5190   27.4060   42.5490 H   0  0  0  0  0  0  0  0  0  0  0  0
   37.0520   24.9260   38.5020 C   0  0  0  0  0  0  0  0  0  0  0  0
   36.0640   24.0020   38.9360 C   0  0  0  0  0  0  0  0  0  0  0  0
   35.9450   23.7570   40.3110 C   0  0  0  0  0  0  0  0  0  0  0  0
   36.7820   24.4200   41.1390 N   0  0  0  0  0  0  0  0  0  0  0  0
   37.7040   25.2840   40.7350 C   0  0  0  0  0  0  0  0  0  0  0  0
   37.8100   25.5110   39.4180 N   0  0  0  0  0  0  0  0  0  0  0  0
   38.5190   25.9180   41.6610 N   0  0  0  0  0  0  0  0  0  0  0  0
   39.3450   25.1410   42.5610 C   0  0  0  0  0  0  0  0  0  0  0  0
   39.8570   25.9170   43.7320 C   0  0  0  0  0  0  0  0  0  0  0  0
   40.0950   27.3080   43.5360 N   0  0  0  0  0  0  0  0  0  0  0  0
   39.9280   27.7200   42.1680 C   0  0  0  0  0  0  0  0  0  0  0  0
   38.5370   27.3950   41.7230 C   0  0  2  0  0  0  0  0  0  0  0  0
   37.2270   25.1860   37.4810 H   0  0  0  0  0  0  0  0  0  0  0  0
   35.4590   23.5360   38.1900 H   0  0  0  0  0  0  0  0  0  0  0  0
   35.1960   23.0530   40.6500 H   0  0  0  0  0  0  0  0  0  0  0  0
   38.6830   24.3010   42.9110 H   0  0  0  0  0  0  0  0  0  0  0  0
   40.1870   24.6760   42.0210 H   0  0  0  0  0  0  0  0  0  0  0  0
   40.8070   25.4510   44.0920 H   0  0  0  0  0  0  0  0  0  0  0  0
   39.1410   25.7390   44.5870 H   0  0  0  0  0  0  0  0  0  0  0  0
   40.9810   27.6430   43.9770 H   0  0  0  0  0  0  0  0  0  0  0  0
   40.2510   28.7510   42.0570 H   0  0  0  0  0  0  0  0  0  0  0  0
   40.6090   27.0300   41.5770 H   0  0  0  0  0  0  0  0  0  0  0  0
   38.3170   27.8170   40.7230 H   0  0  0  0  0  0  0  0  0  0  0  0
   37.3250   29.3690   42.3760 C   0  0  0  0  0  3  0  0  0  0  0  0
   36.7070   29.7670   41.2670 C   0  0  0  0  0  3  0  0  0  0  0  0
   36.4950   31.1830   40.8720 C   0  0  0  0  0  0  0  0  0  0  0  0
   35.4100   31.3880   40.7190 H   0  0  0  0  0  0  0  0  0  0  0  0
   36.8140   31.8260   41.6930 H   0  0  0  0  0  0  0  0  0  0  0  0
   37.3010   31.4800   39.6270 C   0  0  2  0  0  0  0  0  0  0  0  0
   37.3580   30.4200   38.5660 C   0  0  0  0  0  0  0  0  0  0  0  0
   38.5750   30.7580   39.3880 C   0  0  1  0  0  0  0  0  0  0  0  0
   37.2540   32.5510   39.3050 H   0  0  0  0  0  0  0  0  0  0  0  0
   37.2590   30.7670   37.5310 H   0  0  0  0  0  0  0  0  0  0  0  0
   36.8630   29.4380   38.8150 H   0  0  0  0  0  0  0  0  0  0  0  0
   38.9080   30.0480   40.1580 H   0  0  0  0  0  0  0  0  0  0  0  0
   39.6220   31.4220   38.5970 N   0  0  0  0  0  0  0  0  0  0  0  0
   40.2080   30.9820   37.4690 C   0  0  0  0  0  0  0  0  0  0  0  0
   39.9710   30.0300   36.9720 H   0  0  0  0  0  0  0  0  0  0  0  0
   41.1100   31.8500   37.0360 N   0  0  0  0  0  0  0  0  0  0  0  0
   41.1230   32.8810   37.8910 C   0  0  0  0  0  0  0  0  0  0  0  0
   41.8270   34.0600   37.9760 C   0  0  0  0  0  0  0  0  0  0  0  0
   41.6070   34.9100   38.9780 N   0  0  0  0  0  0  0  0  0  0  0  0
   40.6820   34.6140   39.9240 C   0  0  0  0  0  0  0  0  0  0  0  0
   40.5940   35.3800   40.6830 H   0  0  0  0  0  0  0  0  0  0  0  0
   39.9610   33.4640   39.8820 N   0  0  0  0  0  0  0  0  0  0  0  0
   40.1810   32.6120   38.8810 C   0  0  0  0  0  0  0  0  0  0  0  0
   42.7880   34.2960   36.9340 N   0  0  0  0  0  0  0  0  0  0  0  0
   42.7700   34.5460   35.9170 H   0  0  0  0  0  0  0  0  0  0  0  0
   43.7370   34.1640   37.3890 H   0  0  0  0  0  0  0  0  0  0  0  0
  1  2  1  0  0  0  0
  3  1  1  0  0  0  0
  4  5  2  0  0  0  0
  4  9  1  0  0  0  0
  5  6  1  0  0  0  0
  6 18  1  0  0  0  0
  6  7  2  0  0  0  0
  8  7  1  0  0  0  0
  8 10  1  0  0  0  0
  9  8  2  0  0  0  0
 10 15  1  0  0  0  0
 10 11  1  0  0  0  0
 11 19  1  0  0  0  0
 11 12  1  0  0  0  0
 12 21  1  0  0  0  0
 12 22  1  0  0  0  0
 13 12  1  0  0  0  0
 13 23  1  0  0  0  0
 14 13  1  0  0  0  0
 15 26  1  6  0  0  0
 15 14  1  0  0  0  0
 15  1  1  0  0  0  0
 16  4  1  0  0  0  0
 17  5  1  0  0  0  0
 20 11  1  0  0  0  0
 24 14  1  0  0  0  0
 25 14  1  0  0  0  0
 27  1  1  0  0  0  0
 28 27  2  0  0  0  0
 29 28  1  0  0  0  0
 29 31  1  0  0  0  0
 30 29  1  0  0  0  0
 32 35  1  6  0  0  0
 32 29  1  0  0  0  0
 33 37  1  0  0  0  0
 33 34  1  0  0  0  0
 33 32  1  0  0  0  0
 34 32  1  0  0  0  0
 34 38  1  1  0  0  0
 36 33  1  0  0  0  0
 39 49  1  0  0  0  0
 39 34  1  0  0  0  0
 40 39  1  0  0  0  0
 41 40  1  0  0  0  0
 42 40  2  0  0  0  0
 42 43  1  0  0  0  0
 43 44  2  0  0  0  0
 43 49  1  0  0  0  0
 44 45  1  0  0  0  0
 45 46  2  0  0  0  0
 46 47  1  0  0  0  0
 48 46  1  0  0  0  0
 49 48  2  0  0  0  0
 50 52  1  0  0  0  0
 50 44  1  0  0  0  0
 51 50  1  0  0  0  0
M  END
>  <minimizedAffinity>
-6.67196321

$$$$

 OpenBabel03242517333D

 52 56  0  0  1  0  0  0  0  0999 V2000
   37.0480   26.8770   42.5210 C   0  0  0  0  0  0  0  0  0  0  0  0
   36.9080   26.0330   43.2350 H   0  0  0  0  0  0  0  0  0  0  0  0
   36.0500   27.2160   42.2320 H   0  0  0  0  0  0  0  0  0  0  0  0
   37.6890   29.1890   37.9670 C   0  0  0  0  0  0  0  0  0  0  0  0
   36.3630   29.6270   37.7020 C   0  0  0  0  0  0  0  0  0  0  0  0
   35.3030   28.9150   38.2820 C   0  0  0  0  0  0  0  0  0  0  0  0
   35.6130   27.8530   39.0600 N   0  0  0  0  0  0  0  0  0  0  0  0
   36.8510   27.4460   39.3080 C   0  0  0  0  0  0  0  0  0  0  0  0
   37.8570   28.1320   38.7490 N   0  0  0  0  0  0  0  0  0  0  0  0
   37.0710   26.3430   40.1210 N   0  0  0  0  0  0  0  0  0  0  0  0
   36.4950   25.0590   39.7840 C   0  0  0  0  0  0  0  0  0  0  0  0
   36.4860   24.0840   40.9170 C   0  0  0  0  0  0  0  0  0  0  0  0
   37.5410   24.1870   41.8700 N   0  0  0  0  0  0  0  0  0  0  0  0
   38.5430   25.1490   41.4990 C   0  0  0  0  0  0  0  0  0  0  0  0
   37.9000   26.4910   41.3360 C   0  0  2  0  0  0  0  0  0  0  0  0
   38.5670   29.6570   37.5780 H   0  0  0  0  0  0  0  0  0  0  0  0
   36.2380   30.4780   37.0720 H   0  0  0  0  0  0  0  0  0  0  0  0
   34.2900   29.2400   38.0850 H   0  0  0  0  0  0  0  0  0  0  0  0
   35.4410   25.2900   39.4610 H   0  0  0  0  0  0  0  0  0  0  0  0
   37.0030   24.6160   38.9100 H   0  0  0  0  0  0  0  0  0  0  0  0
   36.4910   23.0450   40.5060 H   0  0  0  0  0  0  0  0  0  0  0  0
   35.4750   24.1620   41.4140 H   0  0  0  0  0  0  0  0  0  0  0  0
   37.9270   23.2600   42.1620 H   0  0  0  0  0  0  0  0  0  0  0  0
   39.3800   25.0860   42.1870 H   0  0  0  0  0  0  0  0  0  0  0  0
   38.8670   24.8360   40.4560 H   0  0  0  0  0  0  0  0  0  0  0  0
   38.6510   27.2900   41.1860 H   0  0  0  0  0  0  0  0  0  0  0  0
   37.7720   28.0090   43.1990 C   0  0  0  0  0  3  0  0  0  0  0  0
   38.5380   28.8400   42.4960 C   0  0  0  0  0  3  0  0  0  0  0  0
   39.2930   29.9860   43.0620 C   0  0  0  0  0  0  0  0  0  0  0  0
   38.8510   30.3050   44.0340 H   0  0  0  0  0  0  0  0  0  0  0  0
   40.3100   29.6600   43.2820 H   0  0  0  0  0  0  0  0  0  0  0  0
   39.3100   31.1170   42.0580 C   0  0  2  0  0  0  0  0  0  0  0  0
   38.2270   31.1400   41.0180 C   0  0  0  0  0  0  0  0  0  0  0  0
   39.6540   30.8370   40.6420 C   0  0  1  0  0  0  0  0  0  0  0  0
   39.6580   32.0920   42.4840 H   0  0  0  0  0  0  0  0  0  0  0  0
   37.7810   32.1190   40.8070 H   0  0  0  0  0  0  0  0  0  0  0  0
   37.5260   30.2590   41.0080 H   0  0  0  0  0  0  0  0  0  0  0  0
   39.9260   29.8050   40.3800 H   0  0  0  0  0  0  0  0  0  0  0  0
   40.2660   31.9090   39.8410 N   0  0  0  0  0  0  0  0  0  0  0  0
   40.1030   33.2370   39.9780 C   0  0  0  0  0  0  0  0  0  0  0  0
   39.4650   33.7140   40.7370 H   0  0  0  0  0  0  0  0  0  0  0  0
   40.8150   33.8960   39.0760 N   0  0  0  0  0  0  0  0  0  0  0  0
   41.4580   32.9900   38.3280 C   0  0  0  0  0  0  0  0  0  0  0  0
   42.3250   33.0550   37.2620 C   0  0  0  0  0  0  0  0  0  0  0  0
   42.8130   31.9400   36.7170 N   0  0  0  0  0  0  0  0  0  0  0  0
   42.4530   30.7320   37.2140 C   0  0  0  0  0  0  0  0  0  0  0  0
   42.9140   29.9050   36.6890 H   0  0  0  0  0  0  0  0  0  0  0  0
   41.6010   30.6180   38.2650 N   0  0  0  0  0  0  0  0  0  0  0  0
   41.1120   31.7300   38.8110 C   0  0  0  0  0  0  0  0  0  0  0  0
   42.6550   34.3730   36.7970 N   0  0  0  0  0  0  0  0  0  0  0  0
   43.2310   35.1820   37.1310 H   0  0  0  0  0  0  0  0  0  0  0  0
   42.1460   34.4820   35.8720 H   0  0  0  0  0  0  0  0  0  0  0  0
  1 27  1  0  0  0  0
  1  2  1  0  0  0  0
  3  1  1  0  0  0  0
  4  9  1  0  0  0  0
  5  4  2  0  0  0  0
  5  6  1  0  0  0  0
  6  7  2  0  0  0  0
  7  8  1  0  0  0  0
  8 10  1  0  0  0  0
  9  8  2  0  0  0  0
 10 15  1  0  0  0  0
 11 10  1  0  0  0  0
 11 12  1  0  0  0  0
 12 22  1  0  0  0  0
 12 13  1  0  0  0  0
 13 23  1  0  0  0  0
 14 13  1  0  0  0  0
 14 24  1  0  0  0  0
 15 26  1  6  0  0  0
 15 14  1  0  0  0  0
 15  1  1  0  0  0  0
 16  4  1  0  0  0  0
 17  5  1  0  0  0  0
 18  6  1  0  0  0  0
 19 11  1  0  0  0  0
 20 11  1  0  0  0  0
 21 12  1  0  0  0  0
 25 14  1  0  0  0  0
 28 29  1  0  0  0  0
 28 27  2  0  0  0  0
 29 31  1  0  0  0  0
 29 30  1  0  0  0  0
 32 35  1  1  0  0  0
 32 29  1  0  0  0  0
 33 32  1  0  0  0  0
 34 38  1  6  0  0  0
 34 33  1  0  0  0  0
 34 32  1  0  0  0  0
 36 33  1  0  0  0  0
 37 33  1  0  0  0  0
 39 40  1  0  0  0  0
 39 34  1  0  0  0  0
 40 41  1  0  0  0  0
 42 40  2  0  0  0  0
 43 49  1  0  0  0  0
 43 42  1  0  0  0  0
 44 43  2  0  0  0  0
 45 46  2  0  0  0  0
 45 44  1  0  0  0  0
 46 48  1  0  0  0  0
 47 46  1  0  0  0  0
 48 49  2  0  0  0  0
 49 39  1  0  0  0  0
 50 51  1  0  0  0  0
 50 44  1  0  0  0  0
 52 50  1  0  0  0  0
M  END
>  <minimizedAffinity>
-6.43746471

$$$$

 OpenBabel03242517333D

 52 56  0  0  1  0  0  0  0  0999 V2000
   36.7870   31.5400   40.7330 C   0  0  0  0  0  0  0  0  0  0  0  0
   35.9060   32.1750   40.9800 H   0  0  0  0  0  0  0  0  0  0  0  0
   37.4960   31.6480   41.5580 H   0  0  0  0  0  0  0  0  0  0  0  0
   39.6090   28.7040   37.4950 C   0  0  0  0  0  0  0  0  0  0  0  0
   40.4250   27.9870   38.4110 C   0  0  0  0  0  0  0  0  0  0  0  0
   40.6830   28.5670   39.6600 C   0  0  0  0  0  0  0  0  0  0  0  0
   40.1360   29.7770   39.9140 N   0  0  0  0  0  0  0  0  0  0  0  0
   39.3730   30.4460   39.0590 C   0  0  0  0  0  0  0  0  0  0  0  0
   39.1320   29.8820   37.8670 N   0  0  0  0  0  0  0  0  0  0  0  0
   38.8540   31.6840   39.4100 N   0  0  0  0  0  0  0  0  0  0  0  0
   39.7370   32.7660   39.7880 C   0  0  0  0  0  0  0  0  0  0  0  0
   39.0490   33.8880   40.4980 C   0  0  0  0  0  0  0  0  0  0  0  0
   37.6900   34.1380   40.1520 N   0  0  0  0  0  0  0  0  0  0  0  0
   37.2330   33.3370   39.0490 C   0  0  0  0  0  0  0  0  0  0  0  0
   37.3900   31.8890   39.3940 C   0  0  2  0  0  0  0  0  0  0  0  0
   39.3490   28.3550   36.5190 H   0  0  0  0  0  0  0  0  0  0  0  0
   40.8040   27.0390   38.1010 H   0  0  0  0  0  0  0  0  0  0  0  0
   41.3050   28.0290   40.3640 H   0  0  0  0  0  0  0  0  0  0  0  0
   40.5050   32.2930   40.4620 H   0  0  0  0  0  0  0  0  0  0  0  0
   40.2840   33.1550   38.9110 H   0  0  0  0  0  0  0  0  0  0  0  0
   39.6260   34.8310   40.3370 H   0  0  0  0  0  0  0  0  0  0  0  0
   39.1630   33.6990   41.6060 H   0  0  0  0  0  0  0  0  0  0  0  0
   37.4650   35.1550   40.0620 H   0  0  0  0  0  0  0  0  0  0  0  0
   36.2430   33.6640   38.7460 H   0  0  0  0  0  0  0  0  0  0  0  0
   37.9830   33.5380   38.2200 H   0  0  0  0  0  0  0  0  0  0  0  0
   36.9250   31.2330   38.6330 H   0  0  0  0  0  0  0  0  0  0  0  0
   36.3680   30.0970   40.6340 C   0  0  0  0  0  3  0  0  0  0  0  0
   36.5670   29.2630   41.6520 C   0  0  0  0  0  3  0  0  0  0  0  0
   36.1930   27.8270   41.6600 C   0  0  0  0  0  0  0  0  0  0  0  0
   35.1620   27.6930   42.0630 H   0  0  0  0  0  0  0  0  0  0  0  0
   36.1680   27.4660   40.6320 H   0  0  0  0  0  0  0  0  0  0  0  0
   37.2120   27.0510   42.4650 C   0  0  2  0  0  0  0  0  0  0  0  0
   37.6390   27.6240   43.7850 C   0  0  0  0  0  0  0  0  0  0  0  0
   38.5880   27.5840   42.6160 C   0  0  1  0  0  0  0  0  0  0  0  0
   37.1020   25.9400   42.3790 H   0  0  0  0  0  0  0  0  0  0  0  0
   37.7290   26.9130   44.6140 H   0  0  0  0  0  0  0  0  0  0  0  0
   37.2290   28.6420   44.0430 H   0  0  0  0  0  0  0  0  0  0  0  0
   38.8290   28.5220   42.0970 H   0  0  0  0  0  0  0  0  0  0  0  0
   39.6930   26.6340   42.8200 N   0  0  0  0  0  0  0  0  0  0  0  0
   39.6580   25.2930   42.7120 C   0  0  0  0  0  0  0  0  0  0  0  0
   38.7650   24.7100   42.4460 H   0  0  0  0  0  0  0  0  0  0  0  0
   40.8480   24.7690   42.9680 N   0  0  0  0  0  0  0  0  0  0  0  0
   41.6820   25.7770   43.2520 C   0  0  0  0  0  0  0  0  0  0  0  0
   43.0130   25.8670   43.5890 C   0  0  0  0  0  0  0  0  0  0  0  0
   43.5760   27.0540   43.8180 N   0  0  0  0  0  0  0  0  0  0  0  0
   42.8330   28.1830   43.7180 C   0  0  0  0  0  0  0  0  0  0  0  0
   43.4010   29.0810   43.9270 H   0  0  0  0  0  0  0  0  0  0  0  0
   41.5170   28.1450   43.3870 N   0  0  0  0  0  0  0  0  0  0  0  0
   40.9520   26.9600   43.1590 C   0  0  0  0  0  0  0  0  0  0  0  0
   43.7270   24.6230   43.6730 N   0  0  0  0  0  0  0  0  0  0  0  0
   44.0920   23.9020   43.0060 H   0  0  0  0  0  0  0  0  0  0  0  0
   43.8890   24.4600   44.7090 H   0  0  0  0  0  0  0  0  0  0  0  0
  1  2  1  0  0  0  0
  1  3  1  0  0  0  0
  4  9  2  0  0  0  0
  4  5  1  0  0  0  0
  5  6  2  0  0  0  0
  6  7  1  0  0  0  0
  6 18  1  0  0  0  0
  8 10  1  0  0  0  0
  8  7  2  0  0  0  0
  9  8  1  0  0  0  0
 10 11  1  0  0  0  0
 11 19  1  0  0  0  0
 11 12  1  0  0  0  0
 12 22  1  0  0  0  0
 13 12  1  0  0  0  0
 14 15  1  0  0  0  0
 14 13  1  0  0  0  0
 15 26  1  6  0  0  0
 15 10  1  0  0  0  0
 15  1  1  0  0  0  0
 16  4  1  0  0  0  0
 17  5  1  0  0  0  0
 20 11  1  0  0  0  0
 21 12  1  0  0  0  0
 23 13  1  0  0  0  0
 24 14  1  0  0  0  0
 25 14  1  0  0  0  0
 27  1  1  0  0  0  0
 27 28  2  0  0  0  0
 28 29  1  0  0  0  0
 29 30  1  0  0  0  0
 29 32  1  0  0  0  0
 31 29  1  0  0  0  0
 32 35  1  6  0  0  0
 32 34  1  0  0  0  0
 32 33  1  0  0  0  0
 33 37  1  0  0  0  0
 33 36  1  0  0  0  0
 34 38  1  6  0  0  0
 34 39  1  0  0  0  0
 34 33  1  0  0  0  0
 39 49  1  0  0  0  0
 40 39  1  0  0  0  0
 40 42  2  0  0  0  0
 41 40  1  0  0  0  0
 42 43  1  0  0  0  0
 43 44  1  0  0  0  0
 44 50  1  0  0  0  0
 44 45  2  0  0  0  0
 46 45  1  0  0  0  0
 46 47  1  0  0  0  0
 48 46  2  0  0  0  0
 49 43  2  0  0  0  0
 49 48  1  0  0  0  0
 50 52  1  0  0  0  0
 51 50  1  0  0  0  0
M  END
>  <minimizedAffinity>
-6.39320326

$$$$

 OpenBabel03242517333D

 52 56  0  0  1  0  0  0  0  0999 V2000
   41.5160   25.2450   42.0270 C   0  0  0  0  0  0  0  0  0  0  0  0
   42.4940   25.6850   42.3320 H   0  0  0  0  0  0  0  0  0  0  0  0
   41.6740   24.1700   41.9160 H   0  0  0  0  0  0  0  0  0  0  0  0
   36.7940   25.0620   39.9870 C   0  0  0  0  0  0  0  0  0  0  0  0
   36.4530   23.7040   40.2290 C   0  0  0  0  0  0  0  0  0  0  0  0
   37.4930   22.7700   40.3390 C   0  0  0  0  0  0  0  0  0  0  0  0
   38.7590   23.2250   40.2090 N   0  0  0  0  0  0  0  0  0  0  0  0
   39.0780   24.4930   39.9850 C   0  0  0  0  0  0  0  0  0  0  0  0
   38.0770   25.3780   39.8790 N   0  0  0  0  0  0  0  0  0  0  0  0
   40.4090   24.8660   39.8650 N   0  0  0  0  0  0  0  0  0  0  0  0
   41.2510   24.2590   38.8560 C   0  0  0  0  0  0  0  0  0  0  0  0
   42.7140   24.4600   39.0890 C   0  0  0  0  0  0  0  0  0  0  0  0
   43.1080   25.6600   39.7470 N   0  0  0  0  0  0  0  0  0  0  0  0
   42.0150   26.5690   39.9620 C   0  0  0  0  0  0  0  0  0  0  0  0
   40.9620   25.8880   40.7790 C   0  0  2  0  0  0  0  0  0  0  0  0
   36.0840   25.8530   39.8860 H   0  0  0  0  0  0  0  0  0  0  0  0
   35.4180   23.4600   40.3130 H   0  0  0  0  0  0  0  0  0  0  0  0
   37.2420   21.7330   40.5220 H   0  0  0  0  0  0  0  0  0  0  0  0
   40.9990   23.1620   38.8880 H   0  0  0  0  0  0  0  0  0  0  0  0
   40.9780   24.6160   37.8480 H   0  0  0  0  0  0  0  0  0  0  0  0
   43.2500   24.4090   38.1100 H   0  0  0  0  0  0  0  0  0  0  0  0
   43.0910   23.5470   39.6380 H   0  0  0  0  0  0  0  0  0  0  0  0
   43.9560   26.1040   39.3260 H   0  0  0  0  0  0  0  0  0  0  0  0
   42.3950   27.5130   40.3410 H   0  0  0  0  0  0  0  0  0  0  0  0
   41.5580   26.7150   38.9330 H   0  0  0  0  0  0  0  0  0  0  0  0
   40.1630   26.5900   41.0870 H   0  0  0  0  0  0  0  0  0  0  0  0
   40.4900   25.4810   43.1040 C   0  0  0  0  0  3  0  0  0  0  0  0
   39.8920   26.6630   43.2210 C   0  0  0  0  0  3  0  0  0  0  0  0
   38.8690   27.0020   44.2420 C   0  0  0  0  0  0  0  0  0  0  0  0
   38.3640   26.0800   44.6110 H   0  0  0  0  0  0  0  0  0  0  0  0
   39.3690   27.4430   45.1050 H   0  0  0  0  0  0  0  0  0  0  0  0
   37.8800   27.9820   43.6510 C   0  0  2  0  0  0  0  0  0  0  0  0
   36.5730   27.4370   43.1530 C   0  0  0  0  0  0  0  0  0  0  0  0
   37.6080   27.9610   42.1930 C   0  0  1  0  0  0  0  0  0  0  0  0
   37.8800   28.9820   44.1550 H   0  0  0  0  0  0  0  0  0  0  0  0
   35.6800   28.0220   43.4000 H   0  0  0  0  0  0  0  0  0  0  0  0
   36.4580   26.3160   43.1780 H   0  0  0  0  0  0  0  0  0  0  0  0
   38.1740   27.2450   41.5810 H   0  0  0  0  0  0  0  0  0  0  0  0
   37.1870   29.2100   41.5370 N   0  0  0  0  0  0  0  0  0  0  0  0
   36.0060   29.4760   40.9500 C   0  0  0  0  0  0  0  0  0  0  0  0
   35.1690   28.7670   40.8810 H   0  0  0  0  0  0  0  0  0  0  0  0
   35.9870   30.7090   40.4670 N   0  0  0  0  0  0  0  0  0  0  0  0
   37.1740   31.2680   40.7360 C   0  0  0  0  0  0  0  0  0  0  0  0
   37.7430   32.4970   40.4940 C   0  0  0  0  0  0  0  0  0  0  0  0
   38.9850   32.7610   40.9010 N   0  0  0  0  0  0  0  0  0  0  0  0
   39.6960   31.8130   41.5580 C   0  0  0  0  0  0  0  0  0  0  0  0
   40.6870   32.1460   41.8350 H   0  0  0  0  0  0  0  0  0  0  0  0
   39.1770   30.5860   41.8200 N   0  0  0  0  0  0  0  0  0  0  0  0
   37.9360   30.3190   41.4140 C   0  0  0  0  0  0  0  0  0  0  0  0
   36.9210   33.4440   39.7920 N   0  0  0  0  0  0  0  0  0  0  0  0
   36.0810   34.0330   40.0010 H   0  0  0  0  0  0  0  0  0  0  0  0
   37.3350   33.5090   38.8170 H   0  0  0  0  0  0  0  0  0  0  0  0
  1  2  1  0  0  0  0
  1 27  1  0  0  0  0
  3  1  1  0  0  0  0
  4  5  1  0  0  0  0
  5 17  1  0  0  0  0
  5  6  2  0  0  0  0
  6 18  1  0  0  0  0
  7  6  1  0  0  0  0
  8  7  2  0  0  0  0
  9  8  1  0  0  0  0
  9  4  2  0  0  0  0
 10  8  1  0  0  0  0
 10 15  1  0  0  0  0
 11 19  1  0  0  0  0
 11 12  1  0  0  0  0
 11 10  1  0  0  0  0
 12 22  1  0  0  0  0
 12 13  1  0  0  0  0
 13 14  1  0  0  0  0
 14 24  1  0  0  0  0
 14 15  1  0  0  0  0
 15 26  1  1  0  0  0
 15  1  1  0  0  0  0
 16  4  1  0  0  0  0
 20 11  1  0  0  0  0
 21 12  1  0  0  0  0
 23 13  1  0  0  0  0
 25 14  1  0  0  0  0
 27 28  2  0  0  0  0
 28 29  1  0  0  0  0
 29 30  1  0  0  0  0
 29 31  1  0  0  0  0
 32 35  1  1  0  0  0
 32 29  1  0  0  0  0
 33 37  1  0  0  0  0
 33 36  1  0  0  0  0
 33 32  1  0  0  0  0
 34 38  1  6  0  0  0
 34 33  1  0  0  0  0
 34 32  1  0  0  0  0
 39 34  1  0  0  0  0
 40 39  1  0  0  0  0
 41 40  1  0  0  0  0
 42 43  1  0  0  0  0
 42 40  2  0  0  0  0
 43 49  1  0  0  0  0
 44 43  2  0  0  0  0
 44 45  1  0  0  0  0
 45 46  2  0  0  0  0
 46 48  1  0  0  0  0
 46 47  1  0  0  0  0
 49 39  1  0  0  0  0
 49 48  2  0  0  0  0
 50 51  1  0  0  0  0
 50 44  1  0  0  0  0
 52 50  1  0  0  0  0
M  END
>  <minimizedAffinity>
-6.34302711

$$$$

 OpenBabel03242517333D

 52 56  0  0  1  0  0  0  0  0999 V2000
   36.8050   27.2050   40.5840 C   0  0  0  0  0  0  0  0  0  0  0  0
   36.0560   26.3960   40.4190 H   0  0  0  0  0  0  0  0  0  0  0  0
   37.5160   27.1500   39.7550 H   0  0  0  0  0  0  0  0  0  0  0  0
   40.6620   29.9380   42.6210 C   0  0  0  0  0  0  0  0  0  0  0  0
   41.5050   30.0940   41.4870 C   0  0  0  0  0  0  0  0  0  0  0  0
   41.4380   29.1270   40.4750 C   0  0  0  0  0  0  0  0  0  0  0  0
   40.5710   28.1030   40.6430 N   0  0  0  0  0  0  0  0  0  0  0  0
   39.7830   27.9580   41.7010 C   0  0  0  0  0  0  0  0  0  0  0  0
   39.8550   28.8870   42.6640 N   0  0  0  0  0  0  0  0  0  0  0  0
   38.9240   26.8720   41.7850 N   0  0  0  0  0  0  0  0  0  0  0  0
   39.4440   25.5220   41.7270 C   0  0  0  0  0  0  0  0  0  0  0  0
   38.4040   24.4860   41.4420 C   0  0  0  0  0  0  0  0  0  0  0  0
   37.0850   24.7440   41.9130 N   0  0  0  0  0  0  0  0  0  0  0  0
   36.9990   25.9260   42.7270 C   0  0  0  0  0  0  0  0  0  0  0  0
   37.4720   27.1040   41.9340 C   0  0  2  0  0  0  0  0  0  0  0  0
   40.6320   30.6130   43.4480 H   0  0  0  0  0  0  0  0  0  0  0  0
   42.1500   30.9430   41.4630 H   0  0  0  0  0  0  0  0  0  0  0  0
   42.0770   29.2380   39.6080 H   0  0  0  0  0  0  0  0  0  0  0  0
   40.2100   25.5410   40.9020 H   0  0  0  0  0  0  0  0  0  0  0  0
   39.9850   25.2670   42.6550 H   0  0  0  0  0  0  0  0  0  0  0  0
   38.7380   23.5070   41.8650 H   0  0  0  0  0  0  0  0  0  0  0  0
   38.4140   24.3030   40.3280 H   0  0  0  0  0  0  0  0  0  0  0  0
   36.6220   23.9040   42.3320 H   0  0  0  0  0  0  0  0  0  0  0  0
   36.0070   25.9960   43.1640 H   0  0  0  0  0  0  0  0  0  0  0  0
   37.7760   25.7710   43.5400 H   0  0  0  0  0  0  0  0  0  0  0  0
   37.2960   28.0570   42.4690 H   0  0  0  0  0  0  0  0  0  0  0  0
   36.1250   28.5480   40.5580 C   0  0  0  0  0  3  0  0  0  0  0  0
   36.7870   29.6470   40.9080 C   0  0  0  0  0  3  0  0  0  0  0  0
   36.2150   31.0180   40.9180 C   0  0  0  0  0  0  0  0  0  0  0  0
   35.1520   31.0010   40.5840 H   0  0  0  0  0  0  0  0  0  0  0  0
   36.2080   31.3850   41.9440 H   0  0  0  0  0  0  0  0  0  0  0  0
   37.0610   31.9170   40.0430 C   0  0  2  0  0  0  0  0  0  0  0  0
   37.3030   31.4830   38.6270 C   0  0  0  0  0  0  0  0  0  0  0  0
   38.4200   31.4810   39.6390 C   0  0  1  0  0  0  0  0  0  0  0  0
   36.9150   33.0080   40.2460 H   0  0  0  0  0  0  0  0  0  0  0  0
   37.2320   32.2650   37.8630 H   0  0  0  0  0  0  0  0  0  0  0  0
   36.9060   30.4670   38.3420 H   0  0  0  0  0  0  0  0  0  0  0  0
   38.7810   30.5190   40.0280 H   0  0  0  0  0  0  0  0  0  0  0  0
   39.4350   32.5090   39.3590 N   0  0  0  0  0  0  0  0  0  0  0  0
   39.5190   33.7470   39.8780 C   0  0  0  0  0  0  0  0  0  0  0  0
   38.8130   34.1690   40.6080 H   0  0  0  0  0  0  0  0  0  0  0  0
   40.5700   34.3920   39.3920 N   0  0  0  0  0  0  0  0  0  0  0  0
   41.1900   33.5680   38.5360 C   0  0  0  0  0  0  0  0  0  0  0  0
   42.3070   33.6620   37.7400 C   0  0  0  0  0  0  0  0  0  0  0  0
   42.6830   32.6360   36.9750 N   0  0  0  0  0  0  0  0  0  0  0  0
   41.9590   31.4910   36.9800 C   0  0  0  0  0  0  0  0  0  0  0  0
   42.3620   30.7340   36.3190 H   0  0  0  0  0  0  0  0  0  0  0  0
   40.8490   31.3510   37.7490 N   0  0  0  0  0  0  0  0  0  0  0  0
   40.4720   32.3740   38.5140 C   0  0  0  0  0  0  0  0  0  0  0  0
   43.0170   34.9100   37.7940 N   0  0  0  0  0  0  0  0  0  0  0  0
   43.6360   35.4110   38.4750 H   0  0  0  0  0  0  0  0  0  0  0  0
   42.8120   35.3920   36.8720 H   0  0  0  0  0  0  0  0  0  0  0  0
  1 15  1  0  0  0  0
  2  1  1  0  0  0  0
  3  1  1  0  0  0  0
  4  9  1  0  0  0  0
  4 16  1  0  0  0  0
  5  4  2  0  0  0  0
  6  7  2  0  0  0  0
  6  5  1  0  0  0  0
  7  8  1  0  0  0  0
  8 10  1  0  0  0  0
  8  9  2  0  0  0  0
 10 15  1  0  0  0  0
 11 10  1  0  0  0  0
 11 20  1  0  0  0  0
 12 11  1  0  0  0  0
 12 21  1  0  0  0  0
 12 13  1  0  0  0  0
 13 23  1  0  0  0  0
 13 14  1  0  0  0  0
 14 24  1  0  0  0  0
 14 25  1  0  0  0  0
 15 26  1  1  0  0  0
 15 14  1  0  0  0  0
 17  5  1  0  0  0  0
 18  6  1  0  0  0  0
 19 11  1  0  0  0  0
 22 12  1  0  0  0  0
 27  1  1  0  0  0  0
 27 28  2  0  0  0  0
 28 29  1  0  0  0  0
 29 31  1  0  0  0  0
 30 29  1  0  0  0  0
 32 35  1  1  0  0  0
 32 29  1  0  0  0  0
 33 34  1  0  0  0  0
 33 32  1  0  0  0  0
 34 38  1  1  0  0  0
 34 32  1  0  0  0  0
 36 33  1  0  0  0  0
 37 33  1  0  0  0  0
 39 34  1  0  0  0  0
 39 40  1  0  0  0  0
 40 41  1  0  0  0  0
 42 40  2  0  0  0  0
 43 42  1  0  0  0  0
 44 50  1  0  0  0  0
 44 43  2  0  0  0  0
 45 46  2  0  0  0  0
 45 44  1  0  0  0  0
 46 48  1  0  0  0  0
 47 46  1  0  0  0  0
 48 49  2  0  0  0  0
 49 43  1  0  0  0  0
 49 39  1  0  0  0  0
 50 51  1  0  0  0  0
 52 50  1  0  0  0  0
M  END
>  <minimizedAffinity>
-6.24660444

$$$$

 OpenBabel03242517333D

 52 56  0  0  1  0  0  0  0  0999 V2000
   37.8420   25.7690   40.0730 C   0  0  0  0  0  0  0  0  0  0  0  0
   37.7000   24.6870   39.8480 H   0  0  0  0  0  0  0  0  0  0  0  0
   38.8610   26.0230   39.7690 H   0  0  0  0  0  0  0  0  0  0  0  0
   38.7910   30.0450   42.7760 C   0  0  0  0  0  0  0  0  0  0  0  0
   40.0620   30.4120   42.2560 C   0  0  0  0  0  0  0  0  0  0  0  0
   40.8790   29.4010   41.7330 C   0  0  0  0  0  0  0  0  0  0  0  0
   40.4030   28.1350   41.7560 N   0  0  0  0  0  0  0  0  0  0  0  0
   39.2160   27.7930   42.2410 C   0  0  0  0  0  0  0  0  0  0  0  0
   38.4430   28.7670   42.7400 N   0  0  0  0  0  0  0  0  0  0  0  0
   38.8130   26.4660   42.2220 N   0  0  0  0  0  0  0  0  0  0  0  0
   39.6060   25.4510   42.8820 C   0  0  0  0  0  0  0  0  0  0  0  0
   39.2740   24.0560   42.4610 C   0  0  0  0  0  0  0  0  0  0  0  0
   37.9270   23.7970   42.0760 N   0  0  0  0  0  0  0  0  0  0  0  0
   37.0540   24.9200   42.2920 C   0  0  0  0  0  0  0  0  0  0  0  0
   37.5650   26.0960   41.5210 C   0  0  2  0  0  0  0  0  0  0  0  0
   38.0910   30.7330   43.1970 H   0  0  0  0  0  0  0  0  0  0  0  0
   40.3330   31.4430   42.2910 H   0  0  0  0  0  0  0  0  0  0  0  0
   41.8490   29.6710   41.3350 H   0  0  0  0  0  0  0  0  0  0  0  0
   40.6720   25.6950   42.6130 H   0  0  0  0  0  0  0  0  0  0  0  0
   39.5290   25.5410   43.9790 H   0  0  0  0  0  0  0  0  0  0  0  0
   39.5390   23.3510   43.2870 H   0  0  0  0  0  0  0  0  0  0  0  0
   39.9970   23.7750   41.6400 H   0  0  0  0  0  0  0  0  0  0  0  0
   37.5560   22.8920   42.4450 H   0  0  0  0  0  0  0  0  0  0  0  0
   36.0260   24.6220   42.1090 H   0  0  0  0  0  0  0  0  0  0  0  0
   37.1970   25.1850   43.3870 H   0  0  0  0  0  0  0  0  0  0  0  0
   36.8530   26.9430   41.5450 H   0  0  0  0  0  0  0  0  0  0  0  0
   36.8710   26.5930   39.2700 C   0  0  0  0  0  3  0  0  0  0  0  0
   37.1680   26.9680   38.0290 C   0  0  0  0  0  3  0  0  0  0  0  0
   36.2860   27.7790   37.1510 C   0  0  0  0  0  0  0  0  0  0  0  0
   36.5690   27.6450   36.0820 H   0  0  0  0  0  0  0  0  0  0  0  0
   35.2650   27.4090   37.2450 H   0  0  0  0  0  0  0  0  0  0  0  0
   36.3600   29.2300   37.5720 C   0  0  2  0  0  0  0  0  0  0  0  0
   37.0040   30.1980   36.6230 C   0  0  0  0  0  0  0  0  0  0  0  0
   37.6730   29.8260   37.9210 C   0  0  1  0  0  0  0  0  0  0  0  0
   35.4710   29.5740   38.1600 H   0  0  0  0  0  0  0  0  0  0  0  0
   36.4980   31.1630   36.5010 H   0  0  0  0  0  0  0  0  0  0  0  0
   37.4650   29.7540   35.6950 H   0  0  0  0  0  0  0  0  0  0  0  0
   38.5520   29.1690   37.8940 H   0  0  0  0  0  0  0  0  0  0  0  0
   37.7060   30.9440   38.8770 N   0  0  0  0  0  0  0  0  0  0  0  0
   36.7750   31.2780   39.7890 C   0  0  0  0  0  0  0  0  0  0  0  0
   35.8300   30.7370   39.9450 H   0  0  0  0  0  0  0  0  0  0  0  0
   37.1500   32.3470   40.4760 N   0  0  0  0  0  0  0  0  0  0  0  0
   38.3460   32.7290   40.0110 C   0  0  0  0  0  0  0  0  0  0  0  0
   39.2240   33.7430   40.3140 C   0  0  0  0  0  0  0  0  0  0  0  0
   40.3760   33.8630   39.6530 N   0  0  0  0  0  0  0  0  0  0  0  0
   40.6860   32.9810   38.6720 C   0  0  0  0  0  0  0  0  0  0  0  0
   41.6440   33.1830   38.2110 H   0  0  0  0  0  0  0  0  0  0  0  0
   39.8520   31.9630   38.3380 N   0  0  0  0  0  0  0  0  0  0  0  0
   38.7010   31.8410   38.9980 C   0  0  0  0  0  0  0  0  0  0  0  0
   38.8190   34.6340   41.3660 N   0  0  0  0  0  0  0  0  0  0  0  0
   38.7250   34.5970   42.4080 H   0  0  0  0  0  0  0  0  0  0  0  0
   38.5630   35.5430   40.8820 H   0  0  0  0  0  0  0  0  0  0  0  0
  1 15  1  0  0  0  0
  2  1  1  0  0  0  0
  3  1  1  0  0  0  0
  4 16  1  0  0  0  0
  5 17  1  0  0  0  0
  5  4  2  0  0  0  0
  6  7  2  0  0  0  0
  6  5  1  0  0  0  0
  7  8  1  0  0  0  0
  8  9  2  0  0  0  0
  9  4  1  0  0  0  0
 10  8  1  0  0  0  0
 10 11  1  0  0  0  0
 11 20  1  0  0  0  0
 12 11  1  0  0  0  0
 12 21  1  0  0  0  0
 13 14  1  0  0  0  0
 13 23  1  0  0  0  0
 13 12  1  0  0  0  0
 14 25  1  0  0  0  0
 15 26  1  1  0  0  0
 15 10  1  0  0  0  0
 15 14  1  0  0  0  0
 18  6  1  0  0  0  0
 19 11  1  0  0  0  0
 22 12  1  0  0  0  0
 24 14  1  0  0  0  0
 27  1  1  0  0  0  0
 28 27  2  0  0  0  0
 29 31  1  0  0  0  0
 29 32  1  0  0  0  0
 29 28  1  0  0  0  0
 30 29  1  0  0  0  0
 32 34  1  0  0  0  0
 32 35  1  1  0  0  0
 33 32  1  0  0  0  0
 33 34  1  0  0  0  0
 34 38  1  6  0  0  0
 34 39  1  0  0  0  0
 36 33  1  0  0  0  0
 37 33  1  0  0  0  0
 39 49  1  0  0  0  0
 39 40  1  0  0  0  0
 40 41  1  0  0  0  0
 40 42  2  0  0  0  0
 43 44  1  0  0  0  0
 43 42  1  0  0  0  0
 44 50  1  0  0  0  0
 45 44  2  0  0  0  0
 46 45  1  0  0  0  0
 47 46  1  0  0  0  0
 48 46  2  0  0  0  0
 48 49  1  0  0  0  0
 49 43  2  0  0  0  0
 50 51  1  0  0  0  0
 52 50  1  0  0  0  0
M  END
>  <minimizedAffinity>
-6.24544048

$$$$

 OpenBabel03242517333D

 52 56  0  0  1  0  0  0  0  0999 V2000
   37.4340   27.3990   42.4330 C   0  0  0  0  0  0  0  0  0  0  0  0
   37.3820   27.2520   43.5370 H   0  0  0  0  0  0  0  0  0  0  0  0
   37.0900   26.4690   41.9740 H   0  0  0  0  0  0  0  0  0  0  0  0
   39.3370   27.9740   37.6860 C   0  0  0  0  0  0  0  0  0  0  0  0
   38.7210   26.8820   37.0180 C   0  0  0  0  0  0  0  0  0  0  0  0
   38.3500   25.7650   37.7790 C   0  0  0  0  0  0  0  0  0  0  0  0
   38.6040   25.8000   39.1070 N   0  0  0  0  0  0  0  0  0  0  0  0
   39.1790   26.8200   39.7300 C   0  0  0  0  0  0  0  0  0  0  0  0
   39.5310   27.8830   38.9930 N   0  0  0  0  0  0  0  0  0  0  0  0
   39.4000   26.7640   41.0990 N   0  0  0  0  0  0  0  0  0  0  0  0
   40.1960   25.6980   41.6690 C   0  0  0  0  0  0  0  0  0  0  0  0
   40.0300   25.5440   43.1470 C   0  0  0  0  0  0  0  0  0  0  0  0
   39.7390   26.7210   43.8940 N   0  0  0  0  0  0  0  0  0  0  0  0
   39.7900   27.9190   43.1000 C   0  0  0  0  0  0  0  0  0  0  0  0
   38.8140   27.8040   41.9720 C   0  0  2  0  0  0  0  0  0  0  0  0
   39.6590   28.8720   37.2040 H   0  0  0  0  0  0  0  0  0  0  0  0
   38.5700   26.9650   35.9650 H   0  0  0  0  0  0  0  0  0  0  0  0
   37.8800   24.9280   37.2790 H   0  0  0  0  0  0  0  0  0  0  0  0
   39.8540   24.7650   41.1390 H   0  0  0  0  0  0  0  0  0  0  0  0
   41.2640   25.8280   41.4220 H   0  0  0  0  0  0  0  0  0  0  0  0
   40.9550   25.0830   43.5720 H   0  0  0  0  0  0  0  0  0  0  0  0
   39.2450   24.7480   43.3110 H   0  0  0  0  0  0  0  0  0  0  0  0
   40.2690   26.7830   44.7930 H   0  0  0  0  0  0  0  0  0  0  0  0
   39.6950   28.7880   43.7450 H   0  0  0  0  0  0  0  0  0  0  0  0
   40.8190   27.8980   42.6190 H   0  0  0  0  0  0  0  0  0  0  0  0
   38.7170   28.7540   41.4140 H   0  0  0  0  0  0  0  0  0  0  0  0
   36.5160   28.5180   42.0200 C   0  0  0  0  0  3  0  0  0  0  0  0
   37.0060   29.6320   41.4840 C   0  0  0  0  0  3  0  0  0  0  0  0
   36.1930   30.7930   41.0420 C   0  0  0  0  0  0  0  0  0  0  0  0
   35.2510   30.4490   40.5560 H   0  0  0  0  0  0  0  0  0  0  0  0
   35.8920   31.3640   41.9210 H   0  0  0  0  0  0  0  0  0  0  0  0
   37.0180   31.6560   40.1130 C   0  0  2  0  0  0  0  0  0  0  0  0
   37.3870   31.0830   38.7760 C   0  0  0  0  0  0  0  0  0  0  0  0
   38.4310   31.2960   39.8400 C   0  0  1  0  0  0  0  0  0  0  0  0
   36.7730   32.7460   40.1750 H   0  0  0  0  0  0  0  0  0  0  0  0
   37.3020   31.7620   37.9200 H   0  0  0  0  0  0  0  0  0  0  0  0
   37.0910   30.0110   38.5940 H   0  0  0  0  0  0  0  0  0  0  0  0
   38.8430   30.4210   40.3620 H   0  0  0  0  0  0  0  0  0  0  0  0
   39.3770   32.3690   39.4940 N   0  0  0  0  0  0  0  0  0  0  0  0
   39.4000   33.6300   39.9610 C   0  0  0  0  0  0  0  0  0  0  0  0
   38.6870   34.0400   40.6920 H   0  0  0  0  0  0  0  0  0  0  0  0
   40.3990   34.3150   39.4240 N   0  0  0  0  0  0  0  0  0  0  0  0
   41.0460   33.4940   38.5860 C   0  0  0  0  0  0  0  0  0  0  0  0
   42.1370   33.6210   37.7580 C   0  0  0  0  0  0  0  0  0  0  0  0
   42.5550   32.5890   37.0240 N   0  0  0  0  0  0  0  0  0  0  0  0
   41.9000   31.4040   37.0920 C   0  0  0  0  0  0  0  0  0  0  0  0
   42.3330   30.6460   36.4520 H   0  0  0  0  0  0  0  0  0  0  0  0
   40.8190   31.2310   37.8950 N   0  0  0  0  0  0  0  0  0  0  0  0
   40.4000   32.2610   38.6290 C   0  0  0  0  0  0  0  0  0  0  0  0
   42.7730   34.9100   37.7450 N   0  0  0  0  0  0  0  0  0  0  0  0
   43.3760   35.4730   38.3900 H   0  0  0  0  0  0  0  0  0  0  0  0
   42.5180   35.3410   36.8100 H   0  0  0  0  0  0  0  0  0  0  0  0
  1  2  1  0  0  0  0
  3  1  1  0  0  0  0
  4  9  1  0  0  0  0
  5  4  2  0  0  0  0
  5  6  1  0  0  0  0
  6  7  2  0  0  0  0
  7  8  1  0  0  0  0
  8 10  1  0  0  0  0
  9  8  2  0  0  0  0
 10 11  1  0  0  0  0
 10 15  1  0  0  0  0
 11 12  1  0  0  0  0
 12 22  1  0  0  0  0
 12 21  1  0  0  0  0
 12 13  1  0  0  0  0
 13 23  1  0  0  0  0
 14 24  1  0  0  0  0
 14 13  1  0  0  0  0
 15 26  1  6  0  0  0
 15  1  1  0  0  0  0
 15 14  1  0  0  0  0
 16  4  1  0  0  0  0
 17  5  1  0  0  0  0
 18  6  1  0  0  0  0
 19 11  1  0  0  0  0
 20 11  1  0  0  0  0
 25 14  1  0  0  0  0
 27  1  1  0  0  0  0
 28 27  2  0  0  0  0
 29 28  1  0  0  0  0
 29 31  1  0  0  0  0
 30 29  1  0  0  0  0
 32 35  1  1  0  0  0
 32 29  1  0  0  0  0
 33 34  1  0  0  0  0
 33 32  1  0  0  0  0
 34 32  1  0  0  0  0
 34 38  1  1  0  0  0
 36 33  1  0  0  0  0
 37 33  1  0  0  0  0
 39 34  1  0  0  0  0
 39 40  1  0  0  0  0
 40 41  1  0  0  0  0
 42 40  2  0  0  0  0
 43 49  1  0  0  0  0
 43 42  1  0  0  0  0
 44 43  2  0  0  0  0
 45 46  2  0  0  0  0
 45 44  1  0  0  0  0
 46 48  1  0  0  0  0
 47 46  1  0  0  0  0
 48 49  2  0  0  0  0
 49 39  1  0  0  0  0
 50 44  1  0  0  0  0
 50 51  1  0  0  0  0
 52 50  1  0  0  0  0
M  END
>  <minimizedAffinity>
-6.19413948

$$$$

 OpenBabel03242517333D

 52 56  0  0  1  0  0  0  0  0999 V2000
   37.0710   25.7050   42.3220 C   0  0  0  0  0  0  0  0  0  0  0  0
   37.3020   24.9700   43.1260 H   0  0  0  0  0  0  0  0  0  0  0  0
   36.0300   25.5410   42.0330 H   0  0  0  0  0  0  0  0  0  0  0  0
   37.5760   28.6600   38.1380 C   0  0  0  0  0  0  0  0  0  0  0  0
   36.2140   28.9370   37.8420 C   0  0  0  0  0  0  0  0  0  0  0  0
   35.2450   28.0140   38.2600 C   0  0  0  0  0  0  0  0  0  0  0  0
   35.6720   26.9140   38.9200 N   0  0  0  0  0  0  0  0  0  0  0  0
   36.9430   26.6560   39.1970 C   0  0  0  0  0  0  0  0  0  0  0  0
   37.8620   27.5450   38.7930 N   0  0  0  0  0  0  0  0  0  0  0  0
   37.2860   25.4990   39.8820 N   0  0  0  0  0  0  0  0  0  0  0  0
   36.9220   24.2010   39.3520 C   0  0  0  0  0  0  0  0  0  0  0  0
   37.0050   23.0950   40.3550 C   0  0  0  0  0  0  0  0  0  0  0  0
   37.9860   23.2200   41.3800 N   0  0  0  0  0  0  0  0  0  0  0  0
   38.8520   24.3540   41.1960 C   0  0  0  0  0  0  0  0  0  0  0  0
   38.0260   25.6010   41.1570 C   0  0  2  0  0  0  0  0  0  0  0  0
   38.3920   29.2930   37.8670 H   0  0  0  0  0  0  0  0  0  0  0  0
   35.9940   29.8370   37.3140 H   0  0  0  0  0  0  0  0  0  0  0  0
   34.2050   28.2160   38.0380 H   0  0  0  0  0  0  0  0  0  0  0  0
   35.8620   24.3210   38.9920 H   0  0  0  0  0  0  0  0  0  0  0  0
   37.5310   23.9520   38.4660 H   0  0  0  0  0  0  0  0  0  0  0  0
   37.1830   22.1300   39.8210 H   0  0  0  0  0  0  0  0  0  0  0  0
   35.9710   22.9640   40.7910 H   0  0  0  0  0  0  0  0  0  0  0  0
   38.4920   22.3260   41.5810 H   0  0  0  0  0  0  0  0  0  0  0  0
   39.6560   24.3200   41.9250 H   0  0  0  0  0  0  0  0  0  0  0  0
   39.2670   24.2280   40.1470 H   0  0  0  0  0  0  0  0  0  0  0  0
   38.6560   26.5110   41.1560 H   0  0  0  0  0  0  0  0  0  0  0  0
   37.2160   27.1070   42.8510 C   0  0  0  0  0  3  0  0  0  0  0  0
   38.2770   27.8440   42.5320 C   0  0  0  0  0  3  0  0  0  0  0  0
   38.5190   29.2340   42.9960 C   0  0  0  0  0  0  0  0  0  0  0  0
   37.5770   29.8280   42.9590 H   0  0  0  0  0  0  0  0  0  0  0  0
   38.8200   29.2040   44.0430 H   0  0  0  0  0  0  0  0  0  0  0  0
   39.6080   29.8590   42.1530 C   0  0  2  0  0  0  0  0  0  0  0  0
   40.2760   31.0950   42.6830 C   0  0  0  0  0  0  0  0  0  0  0  0
   39.3630   31.1610   41.4860 C   0  0  1  0  0  0  0  0  0  0  0  0
   40.2340   29.1130   41.6000 H   0  0  0  0  0  0  0  0  0  0  0  0
   41.3650   31.1410   42.5690 H   0  0  0  0  0  0  0  0  0  0  0  0
   39.8540   31.5190   43.6380 H   0  0  0  0  0  0  0  0  0  0  0  0
   38.3680   31.6120   41.6020 H   0  0  0  0  0  0  0  0  0  0  0  0
   40.0890   31.4610   40.2410 N   0  0  0  0  0  0  0  0  0  0  0  0
   40.3810   30.6200   39.2330 C   0  0  0  0  0  0  0  0  0  0  0  0
   40.1040   29.5560   39.2060 H   0  0  0  0  0  0  0  0  0  0  0  0
   41.0460   31.2470   38.2730 N   0  0  0  0  0  0  0  0  0  0  0  0
   41.1990   32.5220   38.6530 C   0  0  0  0  0  0  0  0  0  0  0  0
   41.7890   33.6330   38.0980 C   0  0  0  0  0  0  0  0  0  0  0  0
   41.7760   34.8010   38.7410 N   0  0  0  0  0  0  0  0  0  0  0  0
   41.1760   34.8970   39.9520 C   0  0  0  0  0  0  0  0  0  0  0  0
   41.2310   35.8930   40.3720 H   0  0  0  0  0  0  0  0  0  0  0  0
   40.5800   33.8280   40.5410 N   0  0  0  0  0  0  0  0  0  0  0  0
   40.5930   32.6600   39.9000 C   0  0  0  0  0  0  0  0  0  0  0  0
   42.4020   33.4450   36.8110 N   0  0  0  0  0  0  0  0  0  0  0  0
   42.0820   33.2970   35.8250 H   0  0  0  0  0  0  0  0  0  0  0  0
   43.4470   33.4750   36.9890 H   0  0  0  0  0  0  0  0  0  0  0  0
  1 27  1  0  0  0  0
  1  2  1  0  0  0  0
  3  1  1  0  0  0  0
  4  9  1  0  0  0  0
  5  4  2  0  0  0  0
  5  6  1  0  0  0  0
  6  7  2  0  0  0  0
  7  8  1  0  0  0  0
  8 10  1  0  0  0  0
  9  8  2  0  0  0  0
 10 15  1  0  0  0  0
 11 10  1  0  0  0  0
 11 12  1  0  0  0  0
 12 22  1  0  0  0  0
 12 13  1  0  0  0  0
 13 23  1  0  0  0  0
 14 13  1  0  0  0  0
 14 24  1  0  0  0  0
 15 26  1  6  0  0  0
 15 14  1  0  0  0  0
 15  1  1  0  0  0  0
 16  4  1  0  0  0  0
 17  5  1  0  0  0  0
 18  6  1  0  0  0  0
 19 11  1  0  0  0  0
 20 11  1  0  0  0  0
 21 12  1  0  0  0  0
 25 14  1  0  0  0  0
 28 27  2  0  0  0  0
 28 29  1  0  0  0  0
 29 31  1  0  0  0  0
 30 29  1  0  0  0  0
 32 35  1  6  0  0  0
 32 33  1  0  0  0  0
 32 29  1  0  0  0  0
 33 37  1  0  0  0  0
 34 38  1  1  0  0  0
 34 32  1  0  0  0  0
 34 33  1  0  0  0  0
 36 33  1  0  0  0  0
 39 34  1  0  0  0  0
 40 39  1  0  0  0  0
 41 40  1  0  0  0  0
 42 43  1  0  0  0  0
 42 40  2  0  0  0  0
 43 49  1  0  0  0  0
 44 43  2  0  0  0  0
 44 45  1  0  0  0  0
 45 46  2  0  0  0  0
 46 47  1  0  0  0  0
 46 48  1  0  0  0  0
 49 39  1  0  0  0  0
 49 48  2  0  0  0  0
 50 52  1  0  0  0  0
 50 44  1  0  0  0  0
 51 50  1  0  0  0  0
M  END
>  <minimizedAffinity>
-6.17989683

$$$$
