
 OpenBabel03252505293D

 32 34  0  0  0  0  0  0  0  0999 V2000
   45.1600   30.2430   48.0810 C   0  0  0  0  0  0  0  0  0  0  0  0
   44.1290   30.1660   48.4820 H   0  0  0  0  0  0  0  0  0  0  0  0
   45.7420   30.7760   48.8590 H   0  0  0  0  0  0  0  0  0  0  0  0
   45.7210   28.9400   47.7750 N   0  0  0  0  0  0  0  0  0  0  0  0
   44.9770   27.7990   47.7820 C   0  0  0  0  0  0  0  0  0  0  0  0
   43.9200   27.6970   48.0030 H   0  0  0  0  0  0  0  0  0  0  0  0
   45.7410   26.7400   47.4640 N   0  0  0  0  0  0  0  0  0  0  0  0
   46.9770   27.2030   47.2520 C   0  0  0  0  0  0  0  0  0  0  0  0
   48.1970   26.6460   46.9020 C   0  0  0  0  0  0  0  0  0  0  0  0
   49.2990   27.3640   46.7550 N   0  0  0  0  0  0  0  0  0  0  0  0
   49.2450   28.7120   46.9550 C   0  0  0  0  0  0  0  0  0  0  0  0
   50.2020   29.2170   46.8120 H   0  0  0  0  0  0  0  0  0  0  0  0
   48.0850   29.3410   47.3020 N   0  0  0  0  0  0  0  0  0  0  0  0
   46.9760   28.5860   47.4440 C   0  0  0  0  0  0  0  0  0  0  0  0
   48.1460   25.2200   46.7140 N   0  0  0  0  0  0  0  0  0  0  0  0
   47.8820   24.4690   47.4190 H   0  0  0  0  0  0  0  0  0  0  0  0
   48.3960   24.8170   45.7650 H   0  0  0  0  0  0  0  0  0  0  0  0
   45.1920   31.0050   46.9450 O   0  0  0  0  0  0  0  0  0  0  0  0
   46.8150   32.3080   48.4630 O   0  0  0  0  0  0  0  0  0  0  0  0
   45.8060   32.5230   47.3380 P   0  0  2  0  0  0  0  0  0  0  0  0
   44.5380   33.4950   47.8420 O   0  0  0  0  0  0  0  0  0  0  0  0
   43.6530   33.0580   47.7850 H   0  0  0  0  0  0  0  0  0  0  0  0
   46.6340   33.2180   46.0320 O   0  0  0  0  0  0  0  0  0  0  0  0
   44.4830   35.6690   44.6080 C   0  0  0  0  0  0  0  0  0  0  0  0
   44.9090   35.7890   43.2660 C   0  0  0  0  0  0  0  0  0  0  0  0
   45.9920   34.9600   42.9010 C   0  0  0  0  0  0  0  0  0  0  0  0
   46.5480   34.1210   43.8210 N   0  0  0  0  0  0  0  0  0  0  0  0
   46.0780   34.0690   45.0870 C   0  0  0  0  0  0  0  0  0  0  0  0
   45.0610   34.8310   45.4690 N   0  0  0  0  0  0  0  0  0  0  0  0
   43.6500   36.3100   44.8820 H   0  0  0  0  0  0  0  0  0  0  0  0
   44.4590   36.4540   42.5640 H   0  0  0  0  0  0  0  0  0  0  0  0
   46.3740   35.0010   41.8780 H   0  0  0  0  0  0  0  0  0  0  0  0
  1  2  1  0  0  0  0
  1  3  1  0  0  0  0
  4  5  1  0  0  0  0
  4  1  1  0  0  0  0
  5  6  1  0  0  0  0
  7  5  2  0  0  0  0
  8 14  1  0  0  0  0
  8  7  1  0  0  0  0
  9  8  2  0  0  0  0
 10  9  1  0  0  0  0
 10 11  2  0  0  0  0
 11 13  1  0  0  0  0
 12 11  1  0  0  0  0
 13 14  2  0  0  0  0
 14  4  1  0  0  0  0
 15  9  1  0  0  0  0
 15 16  1  0  0  0  0
 17 15  1  0  0  0  0
 18 20  1  0  0  0  0
 18  1  1  0  0  0  0
 20 21  1  0  0  0  0
 20 19  2  1  0  0  0
 22 21  1  0  0  0  0
 23 20  1  0  0  0  0
 24 30  1  0  0  0  0
 24 29  1  0  0  0  0
 25 24  2  0  0  0  0
 26 25  1  0  0  0  0
 26 27  2  0  0  0  0
 27 28  1  0  0  0  0
 28 29  2  0  0  0  0
 28 23  1  0  0  0  0
 31 25  1  0  0  0  0
 32 26  1  0  0  0  0
M  END
>  <minimizedAffinity>
-4.77595425

>  <minimizedRMSD>
2.13223505

$$$$
