
 OpenBabel03242512213D

 42 45  0  0  0  0  0  0  0  0999 V2000
   48.3860   33.0230   41.7080 C   0  0  0  0  0  0  0  0  0  0  0  0
   47.8610   34.2540   42.0080 C   0  0  0  0  0  0  0  0  0  0  0  0
   48.6930   35.2470   42.4310 C   0  0  0  0  0  0  0  0  0  0  0  0
   50.0560   34.9980   42.5510 C   0  0  0  0  0  0  0  0  0  0  0  0
   50.5490   33.7520   42.2420 C   0  0  0  0  0  0  0  0  0  0  0  0
   49.7040   32.7240   41.8080 C   0  0  0  0  0  0  0  0  0  0  0  0
   48.2130   36.1990   42.6520 H   0  0  0  0  0  0  0  0  0  0  0  0
   50.6830   35.8090   42.8900 H   0  0  0  0  0  0  0  0  0  0  0  0
   51.6150   33.6030   42.3520 H   0  0  0  0  0  0  0  0  0  0  0  0
   46.4080   34.4230   41.8500 C   0  0  0  0  0  0  0  0  0  0  0  0
   45.9050   33.5400   41.4880 H   0  0  0  0  0  0  0  0  0  0  0  0
   46.2700   35.2990   41.1760 H   0  0  0  0  0  0  0  0  0  0  0  0
   45.7680   34.7590   43.1810 C   0  0  0  0  0  0  0  0  0  0  0  0
   45.8720   33.8260   44.2110 C   0  0  0  0  0  0  0  0  0  0  0  0
   45.2840   34.1600   45.4090 C   0  0  0  0  0  0  0  0  0  0  0  0
   44.6540   35.3380   45.5260 N   0  0  0  0  0  0  0  0  0  0  0  0
   44.5700   36.2330   44.4980 C   0  0  0  0  0  0  0  0  0  0  0  0
   45.1300   35.9240   43.3400 N   0  0  0  0  0  0  0  0  0  0  0  0
   46.3810   32.8760   44.1110 H   0  0  0  0  0  0  0  0  0  0  0  0
   45.2930   33.5230   46.2860 H   0  0  0  0  0  0  0  0  0  0  0  0
   44.0720   37.1860   44.5580 H   0  0  0  0  0  0  0  0  0  0  0  0
   47.6120   31.9380   41.2660 O   0  0  0  0  0  0  0  0  0  0  0  0
   47.4900   31.1930   41.9570 H   0  0  0  0  0  0  0  0  0  0  0  0
   50.3180   31.4990   41.5230 O   0  0  0  0  0  0  0  0  0  0  0  0
   50.9760   31.4640   40.2970 C   0  0  0  0  0  0  0  0  0  0  0  0
   52.3510   31.3540   40.2960 C   0  0  0  0  0  0  0  0  0  0  0  0
   53.0990   31.3120   39.1130 C   0  0  0  0  0  0  0  0  0  0  0  0
   52.4610   31.3800   37.9510 N   0  0  0  0  0  0  0  0  0  0  0  0
   51.1190   31.4890   37.9490 C   0  0  0  0  0  0  0  0  0  0  0  0
   50.4090   31.5290   39.0890 N   0  0  0  0  0  0  0  0  0  0  0  0
   52.9560   31.2910   41.1950 H   0  0  0  0  0  0  0  0  0  0  0  0
   54.1750   31.2250   39.1230 H   0  0  0  0  0  0  0  0  0  0  0  0
   48.7750   33.4310   38.0050 Cl  0  0  0  0  0  0  0  0  0  0  0  0
   49.2640   32.4460   36.6700 C   0  0  0  0  0  0  0  0  0  0  0  0
   50.3450   31.5710   36.6910 C   0  0  0  0  0  0  0  0  0  0  0  0
   50.6540   30.8280   35.5780 C   0  0  0  0  0  0  0  0  0  0  0  0
   51.5090   30.1480   35.6220 H   0  0  0  0  0  0  0  0  0  0  0  0
   49.9440   30.8940   34.4010 C   0  0  0  0  0  0  0  0  0  0  0  0
   48.8700   31.7560   34.3630 C   0  0  0  0  0  0  0  0  0  0  0  0
   47.9520   31.8530   32.8710 Cl  0  0  0  0  0  0  0  0  0  0  0  0
   48.5410   32.5130   35.4740 C   0  0  0  0  0  0  0  0  0  0  0  0
   47.6820   33.1590   35.3460 H   0  0  0  0  0  0  0  0  0  0  0  0
  1  6  2  0  0  0  0
  1  2  1  0  0  0  0
  2  3  2  0  0  0  0
  3  4  1  0  0  0  0
  3  7  1  0  0  0  0
  4  8  1  0  0  0  0
  5  9  1  0  0  0  0
  5  4  2  0  0  0  0
  6  5  1  0  0  0  0
 10  2  1  0  0  0  0
 10 13  1  0  0  0  0
 11 10  1  0  0  0  0
 12 10  1  0  0  0  0
 13 18  2  0  0  0  0
 13 14  1  0  0  0  0
 14 15  2  0  0  0  0
 15 16  1  0  0  0  0
 15 20  1  0  0  0  0
 17 21  1  0  0  0  0
 17 16  2  0  0  0  0
 18 17  1  0  0  0  0
 19 14  1  0  0  0  0
 22  1  1  0  0  0  0
 22 23  1  0  0  0  0
 24  6  1  0  0  0  0
 25 24  1  0  0  0  0
 26 25  1  0  0  0  0
 26 31  1  0  0  0  0
 27 32  1  0  0  0  0
 27 26  2  0  0  0  0
 28 27  1  0  0  0  0
 29 28  2  0  0  0  0
 29 30  1  0  0  0  0
 30 25  2  0  0  0  0
 34 35  1  0  0  0  0
 34 33  1  0  0  0  0
 35 29  1  0  0  0  0
 36 37  1  0  0  0  0
 36 35  2  0  0  0  0
 38 36  1  0  0  0  0
 39 38  2  0  0  0  0
 39 41  1  0  0  0  0
 40 39  1  0  0  0  0
 41 34  2  0  0  0  0
 42 41  1  0  0  0  0
M  END
>  <minimizedAffinity>
-6.28824711

>  <minimizedRMSD>
0.693526506

$$$$
