
 OpenBabel03252503223D

 41 45  0  0  1  0  0  0  0  0999 V2000
   47.5200   32.9480   40.0350 C   0  0  1  0  0  0  0  0  0  0  0  0
   48.0550   34.2050   39.5510 C   0  0  0  0  0  0  0  0  0  0  0  0
   48.9670   33.0080   39.6130 C   0  0  2  0  0  0  0  0  0  0  0  0
   46.8310   32.3020   39.4330 H   0  0  0  0  0  0  0  0  0  0  0  0
   48.2880   34.9780   40.3270 H   0  0  0  0  0  0  0  0  0  0  0  0
   47.8440   34.6400   38.5660 H   0  0  0  0  0  0  0  0  0  0  0  0
   49.7180   32.9400   40.3990 H   0  0  0  0  0  0  0  0  0  0  0  0
   49.2760   32.3590   38.3140 C   0  0  0  0  0  0  0  0  0  0  0  0
   50.0490   31.2130   38.1780 C   0  0  0  0  0  0  0  0  0  0  0  0
   50.2820   30.6480   36.9310 C   0  0  0  0  0  0  0  0  0  0  0  0
   49.7470   31.2170   35.7990 C   0  0  0  0  0  0  0  0  0  0  0  0
   49.9520   30.6970   34.5640 N   0  0  0  0  0  0  0  0  0  0  0  0
   49.4150   31.2750   33.4660 C   0  0  0  0  0  0  0  0  0  0  0  0
   48.6280   32.4210   33.5090 C   0  0  0  0  0  0  0  0  0  0  0  0
   48.4030   32.9760   34.7650 C   0  0  0  0  0  0  0  0  0  0  0  0
   48.9650   32.3650   35.8880 C   0  0  0  0  0  0  0  0  0  0  0  0
   48.7560   32.9000   37.1470 C   0  0  0  0  0  0  0  0  0  0  0  0
   50.4560   30.7900   39.0960 H   0  0  0  0  0  0  0  0  0  0  0  0
   50.8810   29.7670   36.8480 H   0  0  0  0  0  0  0  0  0  0  0  0
   49.6430   30.7770   32.5310 H   0  0  0  0  0  0  0  0  0  0  0  0
   48.2200   32.8480   32.6010 H   0  0  0  0  0  0  0  0  0  0  0  0
   47.7990   33.8610   34.8320 H   0  0  0  0  0  0  0  0  0  0  0  0
   48.1500   33.7980   37.1110 H   0  0  0  0  0  0  0  0  0  0  0  0
   46.1090   31.9690   41.8830 C   0  0  0  0  0  0  0  0  0  0  0  0
   47.2380   32.7410   41.4810 C   0  0  0  0  0  0  0  0  0  0  0  0
   48.0310   33.2980   42.4670 C   0  0  0  0  0  0  0  0  0  0  0  0
   47.6820   33.0740   43.7640 N   0  0  0  0  0  0  0  0  0  0  0  0
   46.6120   32.3440   44.1240 C   0  0  0  0  0  0  0  0  0  0  0  0
   45.8190   31.7850   43.1800 N   0  0  0  0  0  0  0  0  0  0  0  0
   45.4590   31.5110   41.1390 H   0  0  0  0  0  0  0  0  0  0  0  0
   48.8810   33.8780   42.1880 H   0  0  0  0  0  0  0  0  0  0  0  0
   45.1230   34.5890   45.3550 Cl  0  0  0  0  0  0  0  0  0  0  0  0
   45.5840   33.1300   46.2080 C   0  0  0  0  0  0  0  0  0  0  0  0
   46.2800   32.1340   45.5430 C   0  0  0  0  0  0  0  0  0  0  0  0
   46.6710   30.9510   46.1810 C   0  0  0  0  0  0  0  0  0  0  0  0
   47.2170   30.2000   45.6140 H   0  0  0  0  0  0  0  0  0  0  0  0
   46.3430   30.7770   47.5310 C   0  0  0  0  0  0  0  0  0  0  0  0
   45.6490   31.7850   48.1680 C   0  0  0  0  0  0  0  0  0  0  0  0
   45.2560   31.5350   49.8570 Cl  0  0  0  0  0  0  0  0  0  0  0  0
   45.2590   32.9550   47.5520 C   0  0  0  0  0  0  0  0  0  0  0  0
   44.7070   33.7240   48.1060 H   0  0  0  0  0  0  0  0  0  0  0  0
  1  4  1  6  0  0  0
  1 25  1  0  0  0  0
  2  3  1  0  0  0  0
  2  1  1  0  0  0  0
  2  5  1  0  0  0  0
  3  1  1  0  0  0  0
  3  7  1  1  0  0  0
  6  2  1  0  0  0  0
  8  3  1  0  0  0  0
  9  8  1  0  0  0  0
  9 18  1  0  0  0  0
 10  9  2  0  0  0  0
 11 16  1  0  0  0  0
 11 10  1  0  0  0  0
 12 11  2  0  0  0  0
 13 14  2  0  0  0  0
 13 12  1  0  0  0  0
 14 15  1  0  0  0  0
 15 22  1  0  0  0  0
 15 16  2  0  0  0  0
 16 17  1  0  0  0  0
 17  8  2  0  0  0  0
 19 10  1  0  0  0  0
 20 13  1  0  0  0  0
 21 14  1  0  0  0  0
 23 17  1  0  0  0  0
 24 29  1  0  0  0  0
 25 24  2  0  0  0  0
 25 26  1  0  0  0  0
 26 27  2  0  0  0  0
 27 28  1  0  0  0  0
 28 34  1  0  0  0  0
 29 28  2  0  0  0  0
 30 24  1  0  0  0  0
 31 26  1  0  0  0  0
 32 33  1  0  0  0  0
 33 40  1  0  0  0  0
 34 35  1  0  0  0  0
 34 33  2  0  0  0  0
 35 37  2  0  0  0  0
 36 35  1  0  0  0  0
 37 38  1  0  0  0  0
 38 39  1  0  0  0  0
 40 41  1  0  0  0  0
 40 38  2  0  0  0  0
M  END
>  <minimizedAffinity>
-5.4002614

>  <minimizedRMSD>
4.44247103

$$$$
