
 OpenBabel03242515393D

 37 40  0  0  0  0  0  0  0  0999 V2000
   43.9070   34.5650   40.7060 C   0  0  0  0  0  0  0  0  0  0  0  0
   43.8070   33.9230   39.4840 C   0  0  0  0  0  0  0  0  0  0  0  0
   44.9580   33.3210   38.9770 C   0  0  0  0  0  0  0  0  0  0  0  0
   46.1010   33.4050   39.7140 N   0  0  0  0  0  0  0  0  0  0  0  0
   46.1630   34.0320   40.8870 C   0  0  0  0  0  0  0  0  0  0  0  0
   45.0650   34.5970   41.3560 N   0  0  0  0  0  0  0  0  0  0  0  0
   42.8730   33.8960   38.9590 H   0  0  0  0  0  0  0  0  0  0  0  0
   43.6700   30.6580   39.0520 Cl  0  0  0  0  0  0  0  0  0  0  0  0
   44.3930   31.3830   37.6140 C   0  0  0  0  0  0  0  0  0  0  0  0
   44.9590   32.6300   37.7170 C   0  0  0  0  0  0  0  0  0  0  0  0
   45.4970   33.1120   36.5430 C   0  0  0  0  0  0  0  0  0  0  0  0
   45.9600   34.0860   36.5460 H   0  0  0  0  0  0  0  0  0  0  0  0
   45.4680   32.3900   35.3460 C   0  0  0  0  0  3  0  0  0  0  0  0
   44.8740   31.1340   35.3270 C   0  0  0  0  0  0  0  0  0  0  0  0
   44.8680   30.2800   33.8030 Cl  0  0  0  0  0  0  0  0  0  0  0  0
   44.3240   30.6160   36.4860 C   0  0  0  0  0  0  0  0  0  0  0  0
   43.8630   29.6340   36.4580 H   0  0  0  0  0  0  0  0  0  0  0  0
   42.3930   35.3340   41.3330 S   0  0  0  0  0  0  0  0  0  0  0  0
   39.9650   34.8340   40.2670 C   0  0  0  0  0  0  0  0  0  0  0  0
   40.9890   34.2690   41.0330 C   0  0  0  0  0  0  0  0  0  0  0  0
   40.8890   32.9740   41.5060 C   0  0  0  0  0  0  0  0  0  0  0  0
   39.7810   32.1880   41.2480 C   0  0  0  0  0  0  0  0  0  0  0  0
   38.7500   32.7630   40.4740 C   0  0  0  0  0  0  0  0  0  0  0  0
   38.8390   34.0630   39.9920 C   0  0  0  0  0  0  0  0  0  0  0  0
   37.7420   31.7730   40.3500 O   0  0  0  0  0  0  0  0  0  0  0  0
   38.0190   30.8170   41.3420 C   0  0  0  0  0  0  0  0  0  0  0  0
   39.4160   30.8950   41.5830 O   0  0  0  0  0  0  0  0  0  0  0  0
   40.0030   35.8360   39.8800 H   0  0  0  0  0  0  0  0  0  0  0  0
   41.7120   32.5930   42.0920 H   0  0  0  0  0  0  0  0  0  0  0  0
   38.0590   34.5000   39.4070 H   0  0  0  0  0  0  0  0  0  0  0  0
   37.6810   29.8030   41.0920 H   0  0  0  0  0  0  0  0  0  0  0  0
   37.5330   31.1820   42.2850 H   0  0  0  0  0  0  0  0  0  0  0  0
   47.2990   34.1290   41.6450 O   0  0  0  0  0  0  0  0  0  0  0  0
   48.5260   34.4030   41.0390 C   0  0  0  0  0  0  0  0  0  0  0  0
   49.1470   33.2780   40.5670 F   0  0  0  0  0  0  0  0  0  0  0  0
   48.2410   35.3320   40.0260 F   0  0  0  0  0  0  0  0  0  0  0  0
   49.3500   34.9650   42.0030 F   0  0  0  0  0  0  0  0  0  0  0  0
  1 18  1  0  0  0  0
  1  6  1  0  0  0  0
  2  1  2  0  0  0  0
  3  2  1  0  0  0  0
  3  4  2  0  0  0  0
  4  5  1  0  0  0  0
  5  6  2  0  0  0  0
  5 33  1  0  0  0  0
  7  2  1  0  0  0  0
  9 10  1  0  0  0  0
  9  8  1  0  0  0  0
 10  3  1  0  0  0  0
 11 12  1  0  0  0  0
 11 10  2  0  0  0  0
 13 11  1  0  0  0  0
 14 13  2  0  0  0  0
 14 16  1  0  0  0  0
 15 14  1  0  0  0  0
 16  9  2  0  0  0  0
 17 16  1  0  0  0  0
 19 20  1  0  0  0  0
 20 18  1  0  0  0  0
 20 21  2  0  0  0  0
 21 29  1  0  0  0  0
 22 21  1  0  0  0  0
 22 27  1  0  0  0  0
 23 22  2  0  0  0  0
 24 19  2  0  0  0  0
 24 23  1  0  0  0  0
 25 23  1  0  0  0  0
 25 26  1  0  0  0  0
 26 27  1  0  0  0  0
 26 32  1  0  0  0  0
 28 19  1  0  0  0  0
 30 24  1  0  0  0  0
 31 26  1  0  0  0  0
 34 33  1  0  0  0  0
 34 37  1  0  0  0  0
 35 34  1  0  0  0  0
 36 34  1  0  0  0  0
M  END
>  <minimizedAffinity>
-5.84802914

>  <minimizedRMSD>
0.935514212

$$$$
