
 OpenBabel03252506523D

 32 35  0  0  0  0  0  0  0  0999 V2000
   47.2160   31.3710   45.1050 C   0  0  0  0  0  0  0  0  0  0  0  0
   46.8840   32.7120   45.0870 C   0  0  0  0  0  0  0  0  0  0  0  0
   46.2740   33.3600   46.1550 C   0  0  0  0  0  0  0  0  0  0  0  0
   45.9820   32.6120   47.3050 C   0  0  0  0  0  0  0  0  0  0  0  0
   45.4050   32.8940   48.5120 N   0  0  0  0  0  0  0  0  0  0  0  0
   45.3870   31.7510   49.2470 C   0  0  0  0  0  0  0  0  0  0  0  0
   45.9470   30.7870   48.4910 N   0  0  0  0  0  0  0  0  0  0  0  0
   46.3210   31.2810   47.2980 C   0  0  0  0  0  0  0  0  0  0  0  0
   46.9220   30.6350   46.2510 C   0  0  0  0  0  0  0  0  0  0  0  0
   47.6920   30.9240   44.2330 H   0  0  0  0  0  0  0  0  0  0  0  0
   46.0190   34.3930   46.1410 H   0  0  0  0  0  0  0  0  0  0  0  0
   45.0550   33.8420   48.7780 H   0  0  0  0  0  0  0  0  0  0  0  0
   44.9780   31.7490   50.2280 H   0  0  0  0  0  0  0  0  0  0  0  0
   44.7480   28.6890   45.5510 Cl  0  0  0  0  0  0  0  0  0  0  0  0
   46.3940   28.1860   45.9370 C   0  0  0  0  0  0  0  0  0  0  0  0
   47.2830   29.2210   46.2410 C   0  0  0  0  0  0  0  0  0  0  0  0
   48.5830   28.8440   46.5480 C   0  0  0  0  0  0  0  0  0  0  0  0
   49.3000   29.6220   46.7900 H   0  0  0  0  0  0  0  0  0  0  0  0
   49.0330   27.5350   46.5700 C   0  0  0  0  0  3  0  0  0  0  0  0
   48.1220   26.5650   46.2650 C   0  0  0  0  0  0  0  0  0  0  0  0
   48.6150   24.8960   46.2710 Cl  0  0  0  0  0  0  0  0  0  0  0  0
   46.8270   26.8780   45.9540 C   0  0  0  0  0  0  0  0  0  0  0  0
   46.0710   26.1350   45.7050 H   0  0  0  0  0  0  0  0  0  0  0  0
   46.5810   35.1850   42.3750 C   0  0  0  0  0  0  0  0  0  0  0  0
   47.7880   34.9880   41.6650 C   0  0  0  0  0  0  0  0  0  0  0  0
   48.6960   34.0060   42.1240 C   0  0  0  0  0  0  0  0  0  0  0  0
   48.3410   33.3020   43.2420 N   0  0  0  0  0  0  0  0  0  0  0  0
   47.1780   33.5140   43.9010 C   0  0  0  0  0  0  0  0  0  0  0  0
   46.3270   34.4390   43.4640 N   0  0  0  0  0  0  0  0  0  0  0  0
   45.9290   35.9430   41.9810 H   0  0  0  0  0  0  0  0  0  0  0  0
   48.0940   35.5290   40.7800 H   0  0  0  0  0  0  0  0  0  0  0  0
   49.6280   33.7850   41.6580 H   0  0  0  0  0  0  0  0  0  0  0  0
  1  9  1  0  0  0  0
  2  1  2  0  0  0  0
  2  3  1  0  0  0  0
  3  4  2  0  0  0  0
  4  5  1  0  0  0  0
  5 12  1  0  0  0  0
  5  6  1  0  0  0  0
  6 13  1  0  0  0  0
  7  6  2  0  0  0  0
  8  4  1  0  0  0  0
  8  7  1  0  0  0  0
  9  8  2  0  0  0  0
 10  1  1  0  0  0  0
 11  3  1  0  0  0  0
 14 15  1  0  0  0  0
 15 22  2  0  0  0  0
 15 16  1  0  0  0  0
 16  9  1  0  0  0  0
 16 17  2  0  0  0  0
 17 19  1  0  0  0  0
 17 18  1  0  0  0  0
 20 21  1  0  0  0  0
 20 19  2  0  0  0  0
 22 20  1  0  0  0  0
 23 22  1  0  0  0  0
 24 29  1  0  0  0  0
 25 26  1  0  0  0  0
 25 24  2  0  0  0  0
 26 27  2  0  0  0  0
 27 28  1  0  0  0  0
 28  2  1  0  0  0  0
 29 28  2  0  0  0  0
 30 24  1  0  0  0  0
 31 25  1  0  0  0  0
 32 26  1  0  0  0  0
M  END
>  <minimizedAffinity>
-5.39303446

>  <minimizedRMSD>
0.84291333

$$$$
