REMARK  Name = 
REMARK  2 active torsions:
REMARK  status: ('A' for Active; 'I' for Inactive)
REMARK    1  A    between atoms: C_1  and  C_7
REMARK    2  A    between atoms: C_7  and  C_15
REMARK                            x       y       z     vdW  Elec       q    Type
REMARK                         _______ _______ _______ _____ _____    ______ ____
ROOT
ATOM      1  C   UNL     1      44.892  36.138  43.104  0.00  0.00    +0.000 C 
ATOM      2  H   UNL     1      44.517  36.997  43.710  0.00  0.00    +0.000 HD
ATOM      3  H   UNL     1      45.752  36.526  42.524  0.00  0.00    +0.000 HD
ENDROOT
BRANCH   1   6
ATOM      4 CL   UNL     1      43.754  38.224  41.248  0.00  0.00    +0.000 Cl
ATOM      5  C   UNL     1      43.221  36.565  41.365  0.00  0.00    +0.000 A 
ATOM      6  C   UNL     1      43.794  35.668  42.242  0.00  0.00    +0.000 A 
ATOM      7  C   UNL     1      43.281  34.386  42.236  0.00  0.00    +0.000 A 
ATOM      8  H   UNL     1      43.749  33.696  42.937  0.00  0.00    +0.000 HD
ATOM      9  C   UNL     1      42.248  33.972  41.414  0.00  0.00    +0.000 A 
ATOM     10  C   UNL     1      41.702  34.920  40.544  0.00  0.00    +0.000 A 
ATOM     11 CL   UNL     1      40.383  34.389  39.495  0.00  0.00    +0.000 Cl
ATOM     12  C   UNL     1      42.183  36.220  40.512  0.00  0.00    +0.000 A 
ATOM     13  H   UNL     1      41.691  36.856  39.808  0.00  0.00    +0.000 HD
ENDBRANCH   1   6
BRANCH   1  14
ATOM     14  C   UNL     1      45.442  35.068  43.989  0.00  0.00    +0.000 A 
ATOM     15  C   UNL     1      46.506  34.290  43.504  0.00  0.00    +0.000 A 
ATOM     16  C   UNL     1      47.017  33.289  44.335  0.00  0.00    +0.000 A 
ATOM     17  N   UNL     1      46.456  33.123  45.567  0.00  0.00    +0.000 NA
ATOM     18  C   UNL     1      45.432  33.896  45.991  0.00  0.00    +0.000 A 
ATOM     19  N   UNL     1      44.919  34.867  45.214  0.00  0.00    +0.000 NA
ATOM     20  H   UNL     1      46.920  34.468  42.504  0.00  0.00    +0.000 HD
ATOM     21  H   UNL     1      47.828  32.671  44.008  0.00  0.00    +0.000 HD
ATOM     22  H   UNL     1      45.100  33.648  46.975  0.00  0.00    +0.000 HD
ENDBRANCH   1  14
TORSDOF 2
