
 OpenBabel03252501103D

 21 22  0  0  0  0  0  0  0  0999 V2000
   47.2180   34.9880   41.9340 C   0  0  0  0  0  0  0  0  0  0  0  0
   48.2740   35.6960   41.8680 O   0  0  0  0  0  0  0  0  0  0  0  0
   44.5220   33.6370   41.4500 Cl  0  0  0  0  0  0  0  0  0  0  0  0
   45.8600   33.6880   40.3140 C   0  0  0  0  0  0  0  0  0  0  0  0
   47.0460   34.3310   40.6360 C   0  0  0  0  0  0  0  0  0  0  0  0
   48.0150   34.2930   39.6480 C   0  0  0  0  0  0  0  0  0  0  0  0
   48.9690   34.7860   39.8500 H   0  0  0  0  0  0  0  0  0  0  0  0
   47.8040   33.6610   38.4390 C   0  0  0  0  0  0  0  0  0  0  0  0
   46.6170   33.0380   38.1640 C   0  0  0  0  0  0  0  0  0  0  0  0
   46.4200   32.2530   36.6050 Cl  0  0  0  0  0  0  0  0  0  0  0  0
   45.6320   33.0500   39.1120 C   0  0  0  0  0  0  0  0  0  0  0  0
   44.7000   32.5530   38.8770 H   0  0  0  0  0  0  0  0  0  0  0  0
   44.6550   35.9410   44.4200 C   0  0  0  0  0  0  0  0  0  0  0  0
   45.4790   35.9560   43.2810 C   0  0  0  0  0  0  0  0  0  0  0  0
   46.4080   34.9140   43.1160 C   0  0  0  0  0  0  0  0  0  0  0  0
   46.4350   33.9640   44.0800 N   0  0  0  0  0  0  0  0  0  0  0  0
   45.6400   33.9680   45.1590 C   0  0  0  0  0  0  0  0  0  0  0  0
   44.7320   34.9730   45.3360 N   0  0  0  0  0  0  0  0  0  0  0  0
   43.9480   36.7460   44.5340 H   0  0  0  0  0  0  0  0  0  0  0  0
   45.3590   36.7710   42.5860 H   0  0  0  0  0  0  0  0  0  0  0  0
   45.7440   33.1520   45.8780 H   0  0  0  0  0  0  0  0  0  0  0  0
  1 15  1  0  0  0  0
  2  1  2  0  0  0  0
  4  5  1  0  0  0  0
  4  3  1  0  0  0  0
  5  1  1  0  0  0  0
  6  7  1  0  0  0  0
  6  5  2  0  0  0  0
  8  6  1  0  0  0  0
  9  8  2  0  0  0  0
  9 11  1  0  0  0  0
 10  9  1  0  0  0  0
 11  4  2  0  0  0  0
 12 11  1  0  0  0  0
 13 19  1  0  0  0  0
 13 18  1  0  0  0  0
 14 13  2  0  0  0  0
 15 14  1  0  0  0  0
 15 16  2  0  0  0  0
 16 17  1  0  0  0  0
 17 18  2  0  0  0  0
 17 21  1  0  0  0  0
 20 14  1  0  0  0  0
M  END
>  <minimizedAffinity>
-4.81943369

>  <minimizedRMSD>
0.520522714

$$$$
