
 OpenBabel03252508463D

 46 48  0  0  0  0  0  0  0  0999 V2000
   42.6910   31.3970   42.6060 N   0  0  0  0  0  0  0  0  0  0  0  0
   42.9580   31.6770   43.5880 H   0  0  0  0  0  0  0  0  0  0  0  0
   42.9920   32.4420   41.6790 C   0  0  0  0  0  0  0  0  0  0  0  0
   43.4950   32.0100   40.7930 H   0  0  0  0  0  0  0  0  0  0  0  0
   42.0660   32.9390   41.2950 H   0  0  0  0  0  0  0  0  0  0  0  0
   43.6630   34.8500   41.9100 C   0  0  0  0  0  0  0  0  0  0  0  0
   43.8880   33.5040   42.2260 C   0  0  0  0  0  0  0  0  0  0  0  0
   44.9500   33.1960   43.0500 C   0  0  0  0  0  0  0  0  0  0  0  0
   45.7590   34.1790   43.5400 C   0  0  0  0  0  0  0  0  0  0  0  0
   45.5570   35.5090   43.2420 C   0  0  0  0  0  0  0  0  0  0  0  0
   44.4800   35.7890   42.4120 C   0  0  0  0  0  0  0  0  0  0  0  0
   45.0780   32.1410   43.2620 H   0  0  0  0  0  0  0  0  0  0  0  0
   46.5710   33.8540   44.1780 H   0  0  0  0  0  0  0  0  0  0  0  0
   46.2170   36.2570   43.6500 H   0  0  0  0  0  0  0  0  0  0  0  0
   44.2870   36.8230   42.1550 H   0  0  0  0  0  0  0  0  0  0  0  0
   40.2550   35.7300   40.5490 C   0  0  0  0  0  0  0  0  0  0  0  0
   41.2730   35.4920   41.4950 C   0  0  0  0  0  0  0  0  0  0  0  0
   42.5340   35.1230   41.0400 C   0  0  0  0  0  0  0  0  0  0  0  0
   42.7000   35.0150   39.6880 N   0  0  0  0  0  0  0  0  0  0  0  0
   41.7060   35.2500   38.7970 C   0  0  0  0  0  0  0  0  0  0  0  0
   40.4950   35.6040   39.2420 N   0  0  0  0  0  0  0  0  0  0  0  0
   39.3410   36.0020   41.0340 H   0  0  0  0  0  0  0  0  0  0  0  0
   41.1770   35.5640   42.5500 H   0  0  0  0  0  0  0  0  0  0  0  0
   41.8250   35.1670   37.7380 H   0  0  0  0  0  0  0  0  0  0  0  0
   41.0140   31.0200   42.6540 S   0  0  0  0  0  0  0  0  0  0  0  0
   40.1770   32.2640   42.4630 O   0  0  0  0  0  0  0  0  0  0  0  0
   40.0560   32.7120   41.5760 H   0  0  0  0  0  0  0  0  0  0  0  0
   40.6480   30.3210   43.9080 O   0  0  0  0  0  0  0  0  0  0  0  0
   41.1630   30.1990   44.7400 H   0  0  0  0  0  0  0  0  0  0  0  0
   40.7250   29.9760   41.3660 O   0  0  0  0  0  0  0  0  0  0  0  0
   39.9870   28.9060   41.8070 C   0  0  0  0  0  0  0  0  0  0  0  0
   38.9170   29.1860   41.7160 H   0  0  0  0  0  0  0  0  0  0  0  0
   40.1490   28.6020   42.8490 H   0  0  0  0  0  0  0  0  0  0  0  0
   40.2430   27.7030   40.8800 C   0  0  0  0  0  0  0  0  0  0  0  0
   41.3230   27.5500   40.8890 H   0  0  0  0  0  0  0  0  0  0  0  0
   39.9450   28.0100   39.8820 H   0  0  0  0  0  0  0  0  0  0  0  0
   37.4090   27.2330   39.8060 Cl  0  0  0  0  0  0  0  0  0  0  0  0
   38.2070   26.2020   40.9750 C   0  0  0  0  0  0  0  0  0  0  0  0
   39.4860   26.5240   41.3670 C   0  0  0  0  0  0  0  0  0  0  0  0
   40.1390   25.7070   42.2990 C   0  0  0  0  0  0  0  0  0  0  0  0
   41.1460   25.9400   42.6170 H   0  0  0  0  0  0  0  0  0  0  0  0
   39.5290   24.5890   42.8320 C   0  0  0  0  0  3  0  0  0  0  0  0
   38.2540   24.3050   42.4150 C   0  0  0  0  0  0  0  0  0  0  0  0
   37.4950   22.8710   43.1140 Cl  0  0  0  0  0  0  0  0  0  0  0  0
   37.5620   25.0820   41.4940 C   0  0  0  0  0  0  0  0  0  0  0  0
   36.5410   24.8160   41.1850 H   0  0  0  0  0  0  0  0  0  0  0  0
  1 25  1  0  0  0  0
  1  2  1  0  0  0  0
  3  7  1  0  0  0  0
  3  1  1  0  0  0  0
  4  3  1  0  0  0  0
  5  3  1  0  0  0  0
  6  7  2  0  0  0  0
  6 11  1  0  0  0  0
  7  8  1  0  0  0  0
  8 12  1  0  0  0  0
  8  9  2  0  0  0  0
  9 13  1  0  0  0  0
 10  9  1  0  0  0  0
 10 14  1  0  0  0  0
 11 10  2  0  0  0  0
 15 11  1  0  0  0  0
 16 22  1  0  0  0  0
 16 17  1  0  0  0  0
 17 23  1  0  0  0  0
 18 17  2  0  0  0  0
 18  6  1  0  0  0  0
 19 18  1  0  0  0  0
 20 21  1  0  0  0  0
 20 19  2  0  0  0  0
 21 16  2  0  0  0  0
 24 20  1  0  0  0  0
 25 28  1  0  0  0  0
 26 25  1  0  0  0  0
 27 26  1  0  0  0  0
 28 29  1  0  0  0  0
 30 31  1  0  0  0  0
 30 25  1  0  0  0  0
 31 33  1  0  0  0  0
 32 31  1  0  0  0  0
 34 35  1  0  0  0  0
 34 39  1  0  0  0  0
 34 31  1  0  0  0  0
 36 34  1  0  0  0  0
 37 38  1  0  0  0  0
 38 39  2  0  0  0  0
 38 45  1  0  0  0  0
 39 40  1  0  0  0  0
 40 41  1  0  0  0  0
 40 42  2  0  0  0  0
 43 42  1  0  0  0  0
 43 44  1  0  0  0  0
 45 43  2  0  0  0  0
 46 45  1  0  0  0  0
M  END
>  <minimizedAffinity>
-5.22934771

>  <minimizedRMSD>
0.477318317

$$$$
