
 OpenBabel03252503523D

 22 23  0  0  0  0  0  0  0  0999 V2000
   36.8630   28.4250   41.9530 C   0  0  0  0  0  0  0  0  0  0  0  0
   36.0970   28.2150   40.7880 C   0  0  0  0  0  0  0  0  0  0  0  0
   35.8610   29.3000   39.9440 C   0  0  0  0  0  0  0  0  0  0  0  0
   36.3850   30.4950   40.3000 N   0  0  0  0  0  0  0  0  0  0  0  0
   37.1100   30.6730   41.4130 C   0  0  0  0  0  0  0  0  0  0  0  0
   37.3490   29.6400   42.2390 N   0  0  0  0  0  0  0  0  0  0  0  0
   35.7150   27.2490   40.5690 H   0  0  0  0  0  0  0  0  0  0  0  0
   37.4930   31.6770   41.6150 H   0  0  0  0  0  0  0  0  0  0  0  0
   37.4820   29.1970   37.5000 Cl  0  0  0  0  0  0  0  0  0  0  0  0
   35.7380   29.1070   37.5150 C   0  0  0  0  0  0  0  0  0  0  0  0
   35.0830   29.1660   38.7280 C   0  0  0  0  0  0  0  0  0  0  0  0
   33.7080   29.0890   38.6550 C   0  0  0  0  0  0  0  0  0  0  0  0
   33.1530   29.1310   39.5790 H   0  0  0  0  0  0  0  0  0  0  0  0
   33.0490   28.9600   37.4340 C   0  0  0  0  0  3  0  0  0  0  0  0
   33.7460   28.9050   36.2450 C   0  0  0  0  0  0  0  0  0  0  0  0
   32.9090   28.7450   34.7260 Cl  0  0  0  0  0  0  0  0  0  0  0  0
   35.1220   28.9810   36.2900 C   0  0  0  0  0  0  0  0  0  0  0  0
   35.6900   28.9400   35.3700 H   0  0  0  0  0  0  0  0  0  0  0  0
   37.0860   27.2310   42.8220 C   0  0  0  0  0  0  0  0  0  0  0  0
   37.2890   26.0920   42.0880 F   0  0  0  0  0  0  0  0  0  0  0  0
   38.1750   27.5020   43.6500 F   0  0  0  0  0  0  0  0  0  0  0  0
   36.0050   27.0640   43.6790 F   0  0  0  0  0  0  0  0  0  0  0  0
  1  6  1  0  0  0  0
  1 19  1  0  0  0  0
  2  1  2  0  0  0  0
  3  4  2  0  0  0  0
  3  2  1  0  0  0  0
  4  5  1  0  0  0  0
  5  8  1  0  0  0  0
  5  6  2  0  0  0  0
  7  2  1  0  0  0  0
  9 10  1  0  0  0  0
 10 11  1  0  0  0  0
 11  3  1  0  0  0  0
 12 11  2  0  0  0  0
 12 13  1  0  0  0  0
 14 12  1  0  0  0  0
 15 17  1  0  0  0  0
 15 14  2  0  0  0  0
 16 15  1  0  0  0  0
 17 10  2  0  0  0  0
 18 17  1  0  0  0  0
 19 21  1  0  0  0  0
 19 22  1  0  0  0  0
 20 19  1  0  0  0  0
M  END
>  <minimizedAffinity>
-5.05846596

$$$$

 OpenBabel03252503523D

 22 23  0  0  0  0  0  0  0  0999 V2000
   38.4030   31.8110   40.5310 C   0  0  0  0  0  0  0  0  0  0  0  0
   38.9070   30.5910   41.0260 C   0  0  0  0  0  0  0  0  0  0  0  0
   37.9990   29.6140   41.4350 C   0  0  0  0  0  0  0  0  0  0  0  0
   36.6820   29.9010   41.3290 N   0  0  0  0  0  0  0  0  0  0  0  0
   36.2240   31.0680   40.8550 C   0  0  0  0  0  0  0  0  0  0  0  0
   37.0820   32.0220   40.4570 N   0  0  0  0  0  0  0  0  0  0  0  0
   39.9550   30.4310   41.0820 H   0  0  0  0  0  0  0  0  0  0  0  0
   35.1390   31.2070   40.8080 H   0  0  0  0  0  0  0  0  0  0  0  0
   37.9760   27.4510   39.4520 Cl  0  0  0  0  0  0  0  0  0  0  0  0
   38.4690   27.2410   41.1140 C   0  0  0  0  0  0  0  0  0  0  0  0
   38.4380   28.3330   41.9550 C   0  0  0  0  0  0  0  0  0  0  0  0
   38.8410   28.0860   43.2510 C   0  0  0  0  0  0  0  0  0  0  0  0
   38.8330   28.9110   43.9460 H   0  0  0  0  0  0  0  0  0  0  0  0
   39.2470   26.8170   43.6580 C   0  0  0  0  0  3  0  0  0  0  0  0
   39.2620   25.7520   42.7800 C   0  0  0  0  0  0  0  0  0  0  0  0
   39.7710   24.1720   43.3030 Cl  0  0  0  0  0  0  0  0  0  0  0  0
   38.8630   25.9730   41.4790 C   0  0  0  0  0  0  0  0  0  0  0  0
   38.8670   25.1540   40.7730 H   0  0  0  0  0  0  0  0  0  0  0  0
   39.4170   32.8220   40.1080 C   0  0  0  0  0  0  0  0  0  0  0  0
   40.3700   33.0290   41.0710 F   0  0  0  0  0  0  0  0  0  0  0  0
   39.9890   32.3810   38.9160 F   0  0  0  0  0  0  0  0  0  0  0  0
   38.7860   34.0190   39.7930 F   0  0  0  0  0  0  0  0  0  0  0  0
  1  2  1  0  0  0  0
  2  7  1  0  0  0  0
  2  3  2  0  0  0  0
  3 11  1  0  0  0  0
  4  3  1  0  0  0  0
  5  4  2  0  0  0  0
  6  1  2  0  0  0  0
  6  5  1  0  0  0  0
  8  5  1  0  0  0  0
  9 10  1  0  0  0  0
 10 17  2  0  0  0  0
 10 11  1  0  0  0  0
 11 12  2  0  0  0  0
 12 14  1  0  0  0  0
 12 13  1  0  0  0  0
 15 16  1  0  0  0  0
 15 14  2  0  0  0  0
 17 15  1  0  0  0  0
 18 17  1  0  0  0  0
 19  1  1  0  0  0  0
 19 20  1  0  0  0  0
 21 19  1  0  0  0  0
 22 19  1  0  0  0  0
M  END
>  <minimizedAffinity>
-4.78478384

$$$$

 OpenBabel03252503523D

 22 23  0  0  0  0  0  0  0  0999 V2000
   36.8950   28.5950   41.8410 C   0  0  0  0  0  0  0  0  0  0  0  0
   37.9160   29.4850   41.4480 C   0  0  0  0  0  0  0  0  0  0  0  0
   37.6320   30.4260   40.4590 C   0  0  0  0  0  0  0  0  0  0  0  0
   36.3860   30.4240   39.9330 N   0  0  0  0  0  0  0  0  0  0  0  0
   35.4310   29.5690   40.3200 C   0  0  0  0  0  0  0  0  0  0  0  0
   35.6840   28.6550   41.2720 N   0  0  0  0  0  0  0  0  0  0  0  0
   38.8730   29.4310   41.9040 H   0  0  0  0  0  0  0  0  0  0  0  0
   34.4530   29.6460   39.8360 H   0  0  0  0  0  0  0  0  0  0  0  0
   39.1390   29.5310   38.1050 Cl  0  0  0  0  0  0  0  0  0  0  0  0
   39.3990   31.0630   38.9000 C   0  0  0  0  0  0  0  0  0  0  0  0
   38.6280   31.3760   40.0010 C   0  0  0  0  0  0  0  0  0  0  0  0
   38.8940   32.6030   40.5730 C   0  0  0  0  0  0  0  0  0  0  0  0
   38.3150   32.8900   41.4370 H   0  0  0  0  0  0  0  0  0  0  0  0
   39.8740   33.4480   40.0590 C   0  0  0  0  0  3  0  0  0  0  0  0
   40.6220   33.0940   38.9550 C   0  0  0  0  0  0  0  0  0  0  0  0
   41.8440   34.1610   38.3240 Cl  0  0  0  0  0  0  0  0  0  0  0  0
   40.3760   31.8720   38.3650 C   0  0  0  0  0  0  0  0  0  0  0  0
   40.9490   31.5720   37.4980 H   0  0  0  0  0  0  0  0  0  0  0  0
   37.2510   27.6080   42.9030 C   0  0  0  0  0  0  0  0  0  0  0  0
   38.3000   28.0370   43.6730 F   0  0  0  0  0  0  0  0  0  0  0  0
   36.1130   27.3830   43.6760 F   0  0  0  0  0  0  0  0  0  0  0  0
   37.5510   26.3800   42.3250 F   0  0  0  0  0  0  0  0  0  0  0  0
  1 19  1  0  0  0  0
  2  1  1  0  0  0  0
  2  7  1  0  0  0  0
  3  2  2  0  0  0  0
  4  5  2  0  0  0  0
  4  3  1  0  0  0  0
  5  6  1  0  0  0  0
  6  1  2  0  0  0  0
  8  5  1  0  0  0  0
  9 10  1  0  0  0  0
 10 11  1  0  0  0  0
 11  3  1  0  0  0  0
 11 12  2  0  0  0  0
 12 13  1  0  0  0  0
 14 12  1  0  0  0  0
 15 14  2  0  0  0  0
 16 15  1  0  0  0  0
 17 10  2  0  0  0  0
 17 15  1  0  0  0  0
 18 17  1  0  0  0  0
 19 20  1  0  0  0  0
 19 21  1  0  0  0  0
 22 19  1  0  0  0  0
M  END
>  <minimizedAffinity>
-4.75944519

$$$$

 OpenBabel03252503523D

 22 23  0  0  0  0  0  0  0  0999 V2000
   37.2530   26.6680   41.6660 C   0  0  0  0  0  0  0  0  0  0  0  0
   37.8620   27.8280   41.1440 C   0  0  0  0  0  0  0  0  0  0  0  0
   37.9420   28.9590   41.9560 C   0  0  0  0  0  0  0  0  0  0  0  0
   37.4270   28.8710   43.2030 N   0  0  0  0  0  0  0  0  0  0  0  0
   36.8520   27.7580   43.6800 C   0  0  0  0  0  0  0  0  0  0  0  0
   36.7650   26.6580   42.9130 N   0  0  0  0  0  0  0  0  0  0  0  0
   38.2460   27.8280   40.1540 H   0  0  0  0  0  0  0  0  0  0  0  0
   36.4650   27.7840   44.7020 H   0  0  0  0  0  0  0  0  0  0  0  0
   36.0680   30.8020   40.6520 Cl  0  0  0  0  0  0  0  0  0  0  0  0
   37.7690   31.1340   40.8620 C   0  0  0  0  0  0  0  0  0  0  0  0
   38.5530   30.1900   41.4930 C   0  0  0  0  0  0  0  0  0  0  0  0
   39.8850   30.5260   41.6200 C   0  0  0  0  0  0  0  0  0  0  0  0
   40.5380   29.8180   42.1070 H   0  0  0  0  0  0  0  0  0  0  0  0
   40.3800   31.7370   41.1410 C   0  0  0  0  0  3  0  0  0  0  0  0
   39.5570   32.6520   40.5170 C   0  0  0  0  0  0  0  0  0  0  0  0
   40.1900   34.1610   39.9220 Cl  0  0  0  0  0  0  0  0  0  0  0  0
   38.2210   32.3400   40.3760 C   0  0  0  0  0  0  0  0  0  0  0  0
   37.5570   33.0410   39.8900 H   0  0  0  0  0  0  0  0  0  0  0  0
   37.1930   25.4870   40.7550 C   0  0  0  0  0  0  0  0  0  0  0  0
   36.5430   25.7730   39.5830 F   0  0  0  0  0  0  0  0  0  0  0  0
   38.5000   25.0620   40.5190 F   0  0  0  0  0  0  0  0  0  0  0  0
   36.5720   24.4250   41.4010 F   0  0  0  0  0  0  0  0  0  0  0  0
  1  6  1  0  0  0  0
  2  1  2  0  0  0  0
  2  3  1  0  0  0  0
  3  4  2  0  0  0  0
  4  5  1  0  0  0  0
  5  8  1  0  0  0  0
  6  5  2  0  0  0  0
  7  2  1  0  0  0  0
  9 10  1  0  0  0  0
 10 11  1  0  0  0  0
 11 12  2  0  0  0  0
 11  3  1  0  0  0  0
 12 13  1  0  0  0  0
 14 12  1  0  0  0  0
 15 14  2  0  0  0  0
 16 15  1  0  0  0  0
 17 15  1  0  0  0  0
 17 10  2  0  0  0  0
 18 17  1  0  0  0  0
 19 22  1  0  0  0  0
 19  1  1  0  0  0  0
 20 19  1  0  0  0  0
 21 19  1  0  0  0  0
M  END
>  <minimizedAffinity>
-4.74147415

$$$$

 OpenBabel03252503523D

 22 23  0  0  0  0  0  0  0  0999 V2000
   36.8460   25.3100   40.4720 C   0  0  0  0  0  0  0  0  0  0  0  0
   37.0170   26.7020   40.6140 C   0  0  0  0  0  0  0  0  0  0  0  0
   36.5510   27.5360   39.5980 C   0  0  0  0  0  0  0  0  0  0  0  0
   35.9590   26.9520   38.5320 N   0  0  0  0  0  0  0  0  0  0  0  0
   35.8060   25.6260   38.4170 C   0  0  0  0  0  0  0  0  0  0  0  0
   36.2490   24.8050   39.3840 N   0  0  0  0  0  0  0  0  0  0  0  0
   37.4920   27.0950   41.4790 H   0  0  0  0  0  0  0  0  0  0  0  0
   35.3140   25.2470   37.5160 H   0  0  0  0  0  0  0  0  0  0  0  0
   38.3480   28.6630   37.5710 Cl  0  0  0  0  0  0  0  0  0  0  0  0
   37.5100   29.6210   38.7670 C   0  0  0  0  0  0  0  0  0  0  0  0
   36.6890   28.9780   39.6700 C   0  0  0  0  0  0  0  0  0  0  0  0
   36.0630   29.8030   40.5820 C   0  0  0  0  0  0  0  0  0  0  0  0
   35.4110   29.3440   41.3090 H   0  0  0  0  0  0  0  0  0  0  0  0
   36.2590   31.1820   40.5710 C   0  0  0  0  0  3  0  0  0  0  0  0
   37.0900   31.7820   39.6480 C   0  0  0  0  0  0  0  0  0  0  0  0
   37.3270   33.5060   39.6470 Cl  0  0  0  0  0  0  0  0  0  0  0  0
   37.7290   30.9790   38.7250 C   0  0  0  0  0  0  0  0  0  0  0  0
   38.3850   31.4270   37.9910 H   0  0  0  0  0  0  0  0  0  0  0  0
   37.3650   24.4630   41.5870 C   0  0  0  0  0  0  0  0  0  0  0  0
   38.6120   24.8570   41.9960 F   0  0  0  0  0  0  0  0  0  0  0  0
   36.4450   24.5250   42.6330 F   0  0  0  0  0  0  0  0  0  0  0  0
   37.3870   23.1300   41.1950 F   0  0  0  0  0  0  0  0  0  0  0  0
  1  2  1  0  0  0  0
  1 19  1  0  0  0  0
  2  7  1  0  0  0  0
  3 11  1  0  0  0  0
  3  2  2  0  0  0  0
  4  3  1  0  0  0  0
  5  4  2  0  0  0  0
  5  6  1  0  0  0  0
  6  1  2  0  0  0  0
  8  5  1  0  0  0  0
  9 10  1  0  0  0  0
 10 11  1  0  0  0  0
 11 12  2  0  0  0  0
 12 13  1  0  0  0  0
 14 12  1  0  0  0  0
 15 14  2  0  0  0  0
 16 15  1  0  0  0  0
 17 10  2  0  0  0  0
 17 15  1  0  0  0  0
 18 17  1  0  0  0  0
 19 20  1  0  0  0  0
 19 21  1  0  0  0  0
 22 19  1  0  0  0  0
M  END
>  <minimizedAffinity>
-4.70782232

$$$$

 OpenBabel03252503523D

 22 23  0  0  0  0  0  0  0  0999 V2000
   38.1330   25.5770   41.8190 C   0  0  0  0  0  0  0  0  0  0  0  0
   37.7760   26.8010   41.2150 C   0  0  0  0  0  0  0  0  0  0  0  0
   38.2070   27.9860   41.8100 C   0  0  0  0  0  0  0  0  0  0  0  0
   38.9460   27.8860   42.9380 N   0  0  0  0  0  0  0  0  0  0  0  0
   39.2750   26.7130   43.4950 C   0  0  0  0  0  0  0  0  0  0  0  0
   38.8690   25.5600   42.9370 N   0  0  0  0  0  0  0  0  0  0  0  0
   37.1910   26.8060   40.3280 H   0  0  0  0  0  0  0  0  0  0  0  0
   39.8780   26.7350   44.4080 H   0  0  0  0  0  0  0  0  0  0  0  0
   40.3550   29.1570   40.1900 Cl  0  0  0  0  0  0  0  0  0  0  0  0
   38.8160   29.9320   40.4700 C   0  0  0  0  0  0  0  0  0  0  0  0
   37.8810   29.2840   41.2510 C   0  0  0  0  0  0  0  0  0  0  0  0
   36.6920   29.9610   41.4250 C   0  0  0  0  0  0  0  0  0  0  0  0
   35.9310   29.4920   42.0290 H   0  0  0  0  0  0  0  0  0  0  0  0
   36.4720   31.2080   40.8450 C   0  0  0  0  0  3  0  0  0  0  0  0
   37.4370   31.8190   40.0700 C   0  0  0  0  0  0  0  0  0  0  0  0
   37.1480   33.3790   39.3520 Cl  0  0  0  0  0  0  0  0  0  0  0  0
   38.6350   31.1630   39.8810 C   0  0  0  0  0  0  0  0  0  0  0  0
   39.4060   31.6230   39.2780 H   0  0  0  0  0  0  0  0  0  0  0  0
   37.6450   24.3390   41.1420 C   0  0  0  0  0  0  0  0  0  0  0  0
   36.3670   24.0170   41.5160 F   0  0  0  0  0  0  0  0  0  0  0  0
   37.7340   24.5410   39.7650 F   0  0  0  0  0  0  0  0  0  0  0  0
   38.5050   23.2830   41.4140 F   0  0  0  0  0  0  0  0  0  0  0  0
  1  6  1  0  0  0  0
  2  3  1  0  0  0  0
  2  1  2  0  0  0  0
  3  4  2  0  0  0  0
  4  5  1  0  0  0  0
  5  8  1  0  0  0  0
  6  5  2  0  0  0  0
  7  2  1  0  0  0  0
  9 10  1  0  0  0  0
 10 11  1  0  0  0  0
 11 12  2  0  0  0  0
 11  3  1  0  0  0  0
 12 13  1  0  0  0  0
 14 12  1  0  0  0  0
 15 14  2  0  0  0  0
 16 15  1  0  0  0  0
 17 15  1  0  0  0  0
 17 10  2  0  0  0  0
 18 17  1  0  0  0  0
 19 22  1  0  0  0  0
 19 20  1  0  0  0  0
 19  1  1  0  0  0  0
 21 19  1  0  0  0  0
M  END
>  <minimizedAffinity>
-4.70371294

$$$$

 OpenBabel03252503523D

 22 23  0  0  0  0  0  0  0  0999 V2000
   39.3030   32.0580   39.1140 C   0  0  0  0  0  0  0  0  0  0  0  0
   39.0960   30.7140   39.4860 C   0  0  0  0  0  0  0  0  0  0  0  0
   37.9410   30.3930   40.1990 C   0  0  0  0  0  0  0  0  0  0  0  0
   37.0870   31.4000   40.4910 N   0  0  0  0  0  0  0  0  0  0  0  0
   37.3030   32.6720   40.1280 C   0  0  0  0  0  0  0  0  0  0  0  0
   38.4100   33.0010   39.4400 N   0  0  0  0  0  0  0  0  0  0  0  0
   39.8090   29.9730   39.2230 H   0  0  0  0  0  0  0  0  0  0  0  0
   36.5530   33.4160   40.4100 H   0  0  0  0  0  0  0  0  0  0  0  0
   38.8220   29.7790   42.9300 Cl  0  0  0  0  0  0  0  0  0  0  0  0
   38.0240   28.6300   41.8850 C   0  0  0  0  0  0  0  0  0  0  0  0
   37.6550   29.0350   40.6180 C   0  0  0  0  0  0  0  0  0  0  0  0
   37.0310   28.0710   39.8540 C   0  0  0  0  0  0  0  0  0  0  0  0
   36.7240   28.3410   38.8560 H   0  0  0  0  0  0  0  0  0  0  0  0
   36.8000   26.7880   40.3470 C   0  0  0  0  0  3  0  0  0  0  0  0
   37.1870   26.4280   41.6210 C   0  0  0  0  0  0  0  0  0  0  0  0
   36.8920   24.8210   42.2230 Cl  0  0  0  0  0  0  0  0  0  0  0  0
   37.8140   27.3740   42.4050 C   0  0  0  0  0  0  0  0  0  0  0  0
   38.1260   27.1140   43.4080 H   0  0  0  0  0  0  0  0  0  0  0  0
   40.5550   32.3470   38.3520 C   0  0  0  0  0  0  0  0  0  0  0  0
   41.5850   31.5220   38.7220 F   0  0  0  0  0  0  0  0  0  0  0  0
   40.2680   32.2210   36.9940 F   0  0  0  0  0  0  0  0  0  0  0  0
   40.9180   33.6770   38.5290 F   0  0  0  0  0  0  0  0  0  0  0  0
  1  6  2  0  0  0  0
  1  2  1  0  0  0  0
  2  3  2  0  0  0  0
  3  4  1  0  0  0  0
  3 11  1  0  0  0  0
  5  8  1  0  0  0  0
  5  4  2  0  0  0  0
  6  5  1  0  0  0  0
  7  2  1  0  0  0  0
 10 17  1  0  0  0  0
 10  9  1  0  0  0  0
 11 10  2  0  0  0  0
 12 14  2  0  0  0  0
 12 11  1  0  0  0  0
 13 12  1  0  0  0  0
 14 15  1  0  0  0  0
 15 16  1  0  0  0  0
 15 17  2  0  0  0  0
 17 18  1  0  0  0  0
 19 22  1  0  0  0  0
 19 20  1  0  0  0  0
 19  1  1  0  0  0  0
 21 19  1  0  0  0  0
M  END
>  <minimizedAffinity>
-4.63991547

$$$$

 OpenBabel03252503523D

 22 23  0  0  0  0  0  0  0  0999 V2000
   37.8330   26.5280   42.3640 C   0  0  0  0  0  0  0  0  0  0  0  0
   37.8680   27.2500   41.1530 C   0  0  0  0  0  0  0  0  0  0  0  0
   37.8130   28.6430   41.2090 C   0  0  0  0  0  0  0  0  0  0  0  0
   37.7270   29.2170   42.4300 N   0  0  0  0  0  0  0  0  0  0  0  0
   37.6950   28.5120   43.5690 C   0  0  0  0  0  0  0  0  0  0  0  0
   37.7480   27.1700   43.5370 N   0  0  0  0  0  0  0  0  0  0  0  0
   37.9360   26.7350   40.2280 H   0  0  0  0  0  0  0  0  0  0  0  0
   37.6260   29.0670   44.5090 H   0  0  0  0  0  0  0  0  0  0  0  0
   35.1580   29.3130   40.1540 Cl  0  0  0  0  0  0  0  0  0  0  0  0
   36.6540   29.8340   39.4210 C   0  0  0  0  0  0  0  0  0  0  0  0
   37.8440   29.4570   40.0080 C   0  0  0  0  0  0  0  0  0  0  0  0
   38.9810   29.9070   39.3700 C   0  0  0  0  0  0  0  0  0  0  0  0
   39.9360   29.6360   39.7940 H   0  0  0  0  0  0  0  0  0  0  0  0
   38.9090   30.6860   38.2180 C   0  0  0  0  0  3  0  0  0  0  0  0
   37.6960   31.0400   37.6650 C   0  0  0  0  0  0  0  0  0  0  0  0
   37.6210   32.0140   36.2240 Cl  0  0  0  0  0  0  0  0  0  0  0  0
   36.5430   30.6020   38.2840 C   0  0  0  0  0  0  0  0  0  0  0  0
   35.5810   30.8670   37.8690 H   0  0  0  0  0  0  0  0  0  0  0  0
   37.8950   25.0410   42.2480 C   0  0  0  0  0  0  0  0  0  0  0  0
   36.6930   24.4510   42.5420 F   0  0  0  0  0  0  0  0  0  0  0  0
   38.3090   24.7300   40.9540 F   0  0  0  0  0  0  0  0  0  0  0  0
   38.8890   24.5440   43.0820 F   0  0  0  0  0  0  0  0  0  0  0  0
  1  6  1  0  0  0  0
  2  3  1  0  0  0  0
  2  1  2  0  0  0  0
  3  4  2  0  0  0  0
  4  5  1  0  0  0  0
  5  8  1  0  0  0  0
  6  5  2  0  0  0  0
  7  2  1  0  0  0  0
 10 11  1  0  0  0  0
 10  9  1  0  0  0  0
 11  3  1  0  0  0  0
 12 13  1  0  0  0  0
 12 11  2  0  0  0  0
 14 12  1  0  0  0  0
 15 14  2  0  0  0  0
 15 17  1  0  0  0  0
 16 15  1  0  0  0  0
 17 10  2  0  0  0  0
 18 17  1  0  0  0  0
 19  1  1  0  0  0  0
 19 20  1  0  0  0  0
 19 22  1  0  0  0  0
 21 19  1  0  0  0  0
M  END
>  <minimizedAffinity>
-4.63030577

$$$$

 OpenBabel03252503523D

 22 23  0  0  0  0  0  0  0  0999 V2000
   37.4780   25.5890   40.7910 C   0  0  0  0  0  0  0  0  0  0  0  0
   37.6670   26.9800   40.9190 C   0  0  0  0  0  0  0  0  0  0  0  0
   37.5140   27.7790   39.7860 C   0  0  0  0  0  0  0  0  0  0  0  0
   37.1910   27.1620   38.6260 N   0  0  0  0  0  0  0  0  0  0  0  0
   37.0160   25.8380   38.5260 C   0  0  0  0  0  0  0  0  0  0  0  0
   37.1590   25.0510   39.6070 N   0  0  0  0  0  0  0  0  0  0  0  0
   37.9190   27.3990   41.8620 H   0  0  0  0  0  0  0  0  0  0  0  0
   36.7560   25.4320   37.5440 H   0  0  0  0  0  0  0  0  0  0  0  0
   35.0420   29.2650   40.3300 Cl  0  0  0  0  0  0  0  0  0  0  0  0
   36.5970   30.0210   40.0840 C   0  0  0  0  0  0  0  0  0  0  0  0
   37.6910   29.2170   39.8360 C   0  0  0  0  0  0  0  0  0  0  0  0
   38.8820   29.8890   39.6530 C   0  0  0  0  0  0  0  0  0  0  0  0
   39.7650   29.3010   39.4550 H   0  0  0  0  0  0  0  0  0  0  0  0
   38.9520   31.2780   39.7190 C   0  0  0  0  0  3  0  0  0  0  0  0
   37.8310   32.0420   39.9710 C   0  0  0  0  0  0  0  0  0  0  0  0
   37.9330   33.7790   40.0510 Cl  0  0  0  0  0  0  0  0  0  0  0  0
   36.6270   31.3950   40.1570 C   0  0  0  0  0  0  0  0  0  0  0  0
   35.7350   31.9730   40.3560 H   0  0  0  0  0  0  0  0  0  0  0  0
   37.6550   24.7810   42.0340 C   0  0  0  0  0  0  0  0  0  0  0  0
   38.5390   25.3610   42.9050 F   0  0  0  0  0  0  0  0  0  0  0  0
   36.4000   24.6180   42.6210 F   0  0  0  0  0  0  0  0  0  0  0  0
   38.0760   23.4980   41.7070 F   0  0  0  0  0  0  0  0  0  0  0  0
  1  2  1  0  0  0  0
  1 19  1  0  0  0  0
  2  7  1  0  0  0  0
  3 11  1  0  0  0  0
  3  2  2  0  0  0  0
  4  3  1  0  0  0  0
  5  4  2  0  0  0  0
  5  6  1  0  0  0  0
  6  1  2  0  0  0  0
  8  5  1  0  0  0  0
 10 17  1  0  0  0  0
 10  9  1  0  0  0  0
 11 10  2  0  0  0  0
 12 14  2  0  0  0  0
 12 11  1  0  0  0  0
 13 12  1  0  0  0  0
 14 15  1  0  0  0  0
 15 16  1  0  0  0  0
 15 17  2  0  0  0  0
 17 18  1  0  0  0  0
 19 21  1  0  0  0  0
 19 20  1  0  0  0  0
 22 19  1  0  0  0  0
M  END
>  <minimizedAffinity>
-4.56052065

$$$$
