
 OpenBabel03242517583D

 44 46  0  0  0  0  0  0  0  0999 V2000
   39.0730   31.0920   39.7820 C   0  0  0  0  0  0  0  0  0  0  0  0
   37.7600   31.0200   39.4440 C   0  0  0  0  0  0  0  0  0  0  0  0
   37.0100   32.1820   39.4230 C   0  0  0  0  0  0  0  0  0  0  0  0
   37.5430   33.4160   39.7310 C   0  0  0  0  0  0  0  0  0  0  0  0
   38.8880   33.4900   40.0760 C   0  0  0  0  0  0  0  0  0  0  0  0
   39.6340   32.3230   40.0960 C   0  0  0  0  0  0  0  0  0  0  0  0
   35.9600   32.2130   39.1660 H   0  0  0  0  0  0  0  0  0  0  0  0
   36.9870   34.3430   39.7250 H   0  0  0  0  0  0  0  0  0  0  0  0
   39.4210   34.3890   40.3350 H   0  0  0  0  0  0  0  0  0  0  0  0
   40.7000   32.2870   40.3560 H   0  0  0  0  0  0  0  0  0  0  0  0
   39.9440   29.5970   39.8560 S   0  0  0  0  0  0  0  0  0  0  0  0
   41.3290   29.7910   40.4420 O   0  0  0  0  0  0  0  0  0  0  0  0
   40.1750   29.1640   38.4080 O   0  0  0  0  0  0  0  0  0  0  0  0
   38.8590   29.6580   42.9020 Cl  0  0  0  0  0  0  0  0  0  0  0  0
   38.5470   28.2780   41.8650 C   0  0  0  0  0  0  0  0  0  0  0  0
   39.1200   28.2840   40.6100 C   0  0  0  0  0  0  0  0  0  0  0  0
   38.8870   27.0890   39.9220 C   0  0  0  0  0  0  0  0  0  0  0  0
   39.3000   26.9850   38.9140 H   0  0  0  0  0  0  0  0  0  0  0  0
   38.1730   26.0100   40.4020 C   0  0  0  0  0  3  0  0  0  0  0  0
   37.6410   26.1180   41.6710 C   0  0  0  0  0  0  0  0  0  0  0  0
   36.7230   24.7820   42.3330 Cl  0  0  0  0  0  0  0  0  0  0  0  0
   37.8160   27.2600   42.4360 C   0  0  0  0  0  0  0  0  0  0  0  0
   37.3990   27.3400   43.4300 H   0  0  0  0  0  0  0  0  0  0  0  0
   37.0380   29.8940   39.0960 O   0  0  0  0  0  0  0  0  0  0  0  0
   36.6000   29.7140   35.5960 C   0  0  0  0  0  0  0  0  0  0  0  0
   35.2730   29.2430   35.4880 C   0  0  0  0  0  0  0  0  0  0  0  0
   34.5490   28.9920   36.6240 C   0  0  0  0  0  0  0  0  0  0  0  0
   35.1760   29.2220   37.7790 N   0  0  0  0  0  0  0  0  0  0  0  0
   36.4060   29.6600   37.8980 C   0  0  0  0  0  0  0  0  0  0  0  0
   37.1300   29.9100   36.7950 N   0  0  0  0  0  0  0  0  0  0  0  0
   37.1860   29.9170   34.7070 H   0  0  0  0  0  0  0  0  0  0  0  0
   34.9340   29.1190   34.4750 H   0  0  0  0  0  0  0  0  0  0  0  0
   33.1620   28.5200   36.6050 C   0  0  0  0  0  0  0  0  0  0  0  0
   33.1670   27.4920   36.1880 H   0  0  0  0  0  0  0  0  0  0  0  0
   32.7100   28.4870   37.6310 H   0  0  0  0  0  0  0  0  0  0  0  0
   32.2540   29.3770   35.7740 C   0  0  0  0  0  0  0  0  0  0  0  0
   31.5520   28.6480   35.2540 H   0  0  0  0  0  0  0  0  0  0  0  0
   32.7440   29.9010   34.9550 H   0  0  0  0  0  0  0  0  0  0  0  0
   31.3870   30.2520   36.5640 C   0  0  0  0  0  3  0  0  0  0  0  0
   30.6370   31.3440   36.4630 C   0  0  0  0  0  3  0  0  0  0  0  0
   29.9220   32.0460   37.6020 C   0  0  0  0  0  0  0  0  0  0  0  0
   28.8630   31.7230   37.5320 H   0  0  0  0  0  0  0  0  0  0  0  0
   30.3900   31.6980   38.5520 H   0  0  0  0  0  0  0  0  0  0  0  0
   30.0790   33.1170   37.4880 H   0  0  0  0  0  0  0  0  0  0  0  0
  1 11  1  0  0  0  0
  1  6  1  0  0  0  0
  2  1  2  0  0  0  0
  3  2  1  0  0  0  0
  3  4  2  0  0  0  0
  4  5  1  0  0  0  0
  5  6  2  0  0  0  0
  5  9  1  0  0  0  0
  6 10  1  0  0  0  0
  7  3  1  0  0  0  0
  8  4  1  0  0  0  0
 11 12  2  0  0  0  0
 11 16  1  0  0  0  0
 13 11  2  0  0  0  0
 15 22  1  0  0  0  0
 15 14  1  0  0  0  0
 16 15  2  0  0  0  0
 17 19  2  0  0  0  0
 17 16  1  0  0  0  0
 18 17  1  0  0  0  0
 19 20  1  0  0  0  0
 20 21  1  0  0  0  0
 20 22  2  0  0  0  0
 22 23  1  0  0  0  0
 24  2  1  0  0  0  0
 25 30  1  0  0  0  0
 26 25  2  0  0  0  0
 26 27  1  0  0  0  0
 27 28  2  0  0  0  0
 28 29  1  0  0  0  0
 29 24  1  0  0  0  0
 30 29  2  0  0  0  0
 31 25  1  0  0  0  0
 32 26  1  0  0  0  0
 33 27  1  0  0  0  0
 33 35  1  0  0  0  0
 34 33  1  0  0  0  0
 36 39  1  0  0  0  0
 36 33  1  0  0  0  0
 37 36  1  0  0  0  0
 38 36  1  0  0  0  0
 40 39  2  0  0  0  0
 40 41  1  0  0  0  0
 41 43  1  0  0  0  0
 42 41  1  0  0  0  0
 44 41  1  0  0  0  0
M  END
>  <minimizedAffinity>
-5.76787424

$$$$

 OpenBabel03242517583D

 44 46  0  0  0  0  0  0  0  0999 V2000
   38.1250   26.4840   41.2630 C   0  0  0  0  0  0  0  0  0  0  0  0
   37.7850   26.1300   39.9970 C   0  0  0  0  0  0  0  0  0  0  0  0
   37.0260   24.9910   39.8010 C   0  0  0  0  0  0  0  0  0  0  0  0
   36.5960   24.1960   40.8440 C   0  0  0  0  0  0  0  0  0  0  0  0
   36.9410   24.5600   42.1400 C   0  0  0  0  0  0  0  0  0  0  0  0
   37.7030   25.7010   42.3300 C   0  0  0  0  0  0  0  0  0  0  0  0
   36.7140   24.6380   38.8270 H   0  0  0  0  0  0  0  0  0  0  0  0
   36.0020   23.3010   40.7270 H   0  0  0  0  0  0  0  0  0  0  0  0
   36.6690   24.0270   43.0350 H   0  0  0  0  0  0  0  0  0  0  0  0
   38.0230   26.0630   43.3160 H   0  0  0  0  0  0  0  0  0  0  0  0
   39.1320   27.8810   41.4400 S   0  0  0  0  0  0  0  0  0  0  0  0
   40.5330   27.6240   40.9190 O   0  0  0  0  0  0  0  0  0  0  0  0
   39.2950   28.1030   42.9430 O   0  0  0  0  0  0  0  0  0  0  0  0
   36.0210   28.7360   41.6730 Cl  0  0  0  0  0  0  0  0  0  0  0  0
   37.2010   29.8240   40.9670 C   0  0  0  0  0  0  0  0  0  0  0  0
   38.4900   29.3550   40.8170 C   0  0  0  0  0  0  0  0  0  0  0  0
   39.3080   30.2710   40.1480 C   0  0  0  0  0  0  0  0  0  0  0  0
   40.3530   29.9990   39.9730 H   0  0  0  0  0  0  0  0  0  0  0  0
   38.9150   31.5090   39.6820 C   0  0  0  0  0  3  0  0  0  0  0  0
   37.6010   31.8760   39.8920 C   0  0  0  0  0  0  0  0  0  0  0  0
   37.0440   33.4350   39.3240 Cl  0  0  0  0  0  0  0  0  0  0  0  0
   36.7090   31.0390   40.5420 C   0  0  0  0  0  0  0  0  0  0  0  0
   35.6800   31.3290   40.7040 H   0  0  0  0  0  0  0  0  0  0  0  0
   38.1040   26.7850   38.8220 O   0  0  0  0  0  0  0  0  0  0  0  0
   37.3100   29.4330   36.6250 C   0  0  0  0  0  0  0  0  0  0  0  0
   35.9110   29.5420   36.7870 C   0  0  0  0  0  0  0  0  0  0  0  0
   35.2620   28.6990   37.6500 C   0  0  0  0  0  0  0  0  0  0  0  0
   36.0280   27.8140   38.2910 N   0  0  0  0  0  0  0  0  0  0  0  0
   37.3280   27.6990   38.1530 C   0  0  0  0  0  0  0  0  0  0  0  0
   37.9800   28.5180   37.3100 N   0  0  0  0  0  0  0  0  0  0  0  0
   37.8390   30.0920   35.9450 H   0  0  0  0  0  0  0  0  0  0  0  0
   35.4600   30.3150   36.1910 H   0  0  0  0  0  0  0  0  0  0  0  0
   33.8180   28.7540   37.8940 C   0  0  0  0  0  0  0  0  0  0  0  0
   33.5220   27.7920   38.3580 H   0  0  0  0  0  0  0  0  0  0  0  0
   33.5360   29.5880   38.5890 H   0  0  0  0  0  0  0  0  0  0  0  0
   33.0130   28.9590   36.6450 C   0  0  0  0  0  0  0  0  0  0  0  0
   32.5870   27.9340   36.3950 H   0  0  0  0  0  0  0  0  0  0  0  0
   33.5950   29.2250   35.7640 H   0  0  0  0  0  0  0  0  0  0  0  0
   31.8480   29.8260   36.8330 C   0  0  0  0  0  3  0  0  0  0  0  0
   31.1590   30.7900   36.2330 C   0  0  0  0  0  3  0  0  0  0  0  0
   29.9920   31.5560   36.8270 C   0  0  0  0  0  0  0  0  0  0  0  0
   29.0810   31.0980   36.3890 H   0  0  0  0  0  0  0  0  0  0  0  0
   30.0270   31.4100   37.9320 H   0  0  0  0  0  0  0  0  0  0  0  0
   30.1270   32.6100   36.5930 H   0  0  0  0  0  0  0  0  0  0  0  0
  1 11  1  0  0  0  0
  1  6  1  0  0  0  0
  2  1  2  0  0  0  0
  3  2  1  0  0  0  0
  3  4  2  0  0  0  0
  4  5  1  0  0  0  0
  5  6  2  0  0  0  0
  5  9  1  0  0  0  0
  6 10  1  0  0  0  0
  7  3  1  0  0  0  0
  8  4  1  0  0  0  0
 11 13  2  0  0  0  0
 12 11  2  0  0  0  0
 15 14  1  0  0  0  0
 16 15  1  0  0  0  0
 16 11  1  0  0  0  0
 17 16  2  0  0  0  0
 18 17  1  0  0  0  0
 19 20  2  0  0  0  0
 19 17  1  0  0  0  0
 20 22  1  0  0  0  0
 21 20  1  0  0  0  0
 22 23  1  0  0  0  0
 22 15  2  0  0  0  0
 24  2  1  0  0  0  0
 25 26  2  0  0  0  0
 25 30  1  0  0  0  0
 26 27  1  0  0  0  0
 27 33  1  0  0  0  0
 27 28  2  0  0  0  0
 29 28  1  0  0  0  0
 29 24  1  0  0  0  0
 30 29  2  0  0  0  0
 31 25  1  0  0  0  0
 32 26  1  0  0  0  0
 33 34  1  0  0  0  0
 33 35  1  0  0  0  0
 36 39  1  0  0  0  0
 36 33  1  0  0  0  0
 37 36  1  0  0  0  0
 38 36  1  0  0  0  0
 40 41  1  0  0  0  0
 40 39  2  0  0  0  0
 41 43  1  0  0  0  0
 42 41  1  0  0  0  0
 44 41  1  0  0  0  0
M  END
>  <minimizedAffinity>
-5.75641012

$$$$

 OpenBabel03242517583D

 44 46  0  0  0  0  0  0  0  0999 V2000
   37.3140   26.1750   41.4040 C   0  0  0  0  0  0  0  0  0  0  0  0
   38.0340   26.2890   40.2590 C   0  0  0  0  0  0  0  0  0  0  0  0
   38.3040   25.1490   39.5220 C   0  0  0  0  0  0  0  0  0  0  0  0
   37.8710   23.8970   39.9050 C   0  0  0  0  0  0  0  0  0  0  0  0
   37.1320   23.7810   41.0760 C   0  0  0  0  0  0  0  0  0  0  0  0
   36.8640   24.9250   41.8100 C   0  0  0  0  0  0  0  0  0  0  0  0
   38.8720   25.1520   38.6010 H   0  0  0  0  0  0  0  0  0  0  0  0
   38.0640   22.9880   39.3540 H   0  0  0  0  0  0  0  0  0  0  0  0
   36.7360   22.8650   41.4800 H   0  0  0  0  0  0  0  0  0  0  0  0
   36.2900   24.9280   42.7460 H   0  0  0  0  0  0  0  0  0  0  0  0
   37.0640   27.6250   42.3170 S   0  0  0  0  0  0  0  0  0  0  0  0
   36.4130   27.3320   43.6550 O   0  0  0  0  0  0  0  0  0  0  0  0
   36.0370   28.4480   41.5400 O   0  0  0  0  0  0  0  0  0  0  0  0
   39.8700   26.6600   43.6060 Cl  0  0  0  0  0  0  0  0  0  0  0  0
   39.6930   28.2750   42.9460 C   0  0  0  0  0  0  0  0  0  0  0  0
   38.4420   28.6460   42.4980 C   0  0  0  0  0  0  0  0  0  0  0  0
   38.4040   29.9840   42.0960 C   0  0  0  0  0  0  0  0  0  0  0  0
   37.4560   30.3850   41.7240 H   0  0  0  0  0  0  0  0  0  0  0  0
   39.4680   30.8630   42.1220 C   0  0  0  0  0  3  0  0  0  0  0  0
   40.6740   30.3800   42.5870 C   0  0  0  0  0  0  0  0  0  0  0  0
   42.0610   31.4480   42.6440 Cl  0  0  0  0  0  0  0  0  0  0  0  0
   40.8170   29.0690   43.0120 C   0  0  0  0  0  0  0  0  0  0  0  0
   41.7630   28.6950   43.3760 H   0  0  0  0  0  0  0  0  0  0  0  0
   38.5530   27.4410   39.6980 O   0  0  0  0  0  0  0  0  0  0  0  0
   38.0690   30.2350   37.5930 C   0  0  0  0  0  0  0  0  0  0  0  0
   36.8550   29.9120   36.9480 C   0  0  0  0  0  0  0  0  0  0  0  0
   36.2220   28.7340   37.2470 C   0  0  0  0  0  0  0  0  0  0  0  0
   36.8220   27.9610   38.1540 N   0  0  0  0  0  0  0  0  0  0  0  0
   37.9490   28.2450   38.7630 C   0  0  0  0  0  0  0  0  0  0  0  0
   38.5820   29.3960   38.4810 N   0  0  0  0  0  0  0  0  0  0  0  0
   38.5830   31.1620   37.3680 H   0  0  0  0  0  0  0  0  0  0  0  0
   36.5200   30.6560   36.2480 H   0  0  0  0  0  0  0  0  0  0  0  0
   34.9510   28.3280   36.6400 C   0  0  0  0  0  0  0  0  0  0  0  0
   34.7180   29.0580   35.8380 H   0  0  0  0  0  0  0  0  0  0  0  0
   35.0050   27.3040   36.1860 H   0  0  0  0  0  0  0  0  0  0  0  0
   33.8110   28.2960   37.6140 C   0  0  0  0  0  0  0  0  0  0  0  0
   34.2460   28.6800   38.5930 H   0  0  0  0  0  0  0  0  0  0  0  0
   33.4480   27.2990   37.8590 H   0  0  0  0  0  0  0  0  0  0  0  0
   32.7280   29.2240   37.2820 C   0  0  0  0  0  3  0  0  0  0  0  0
   32.0510   29.7080   36.2480 C   0  0  0  0  0  3  0  0  0  0  0  0
   30.9970   30.7990   36.3010 C   0  0  0  0  0  0  0  0  0  0  0  0
   30.0220   30.2710   36.2590 H   0  0  0  0  0  0  0  0  0  0  0  0
   31.1250   31.3370   37.2690 H   0  0  0  0  0  0  0  0  0  0  0  0
   31.1790   31.4830   35.4750 H   0  0  0  0  0  0  0  0  0  0  0  0
  1  6  1  0  0  0  0
  1 11  1  0  0  0  0
  2  1  2  0  0  0  0
  3  4  2  0  0  0  0
  3  2  1  0  0  0  0
  4  5  1  0  0  0  0
  5  9  1  0  0  0  0
  5  6  2  0  0  0  0
  6 10  1  0  0  0  0
  7  3  1  0  0  0  0
  8  4  1  0  0  0  0
 11 16  1  0  0  0  0
 11 12  2  0  0  0  0
 13 11  2  0  0  0  0
 15 22  1  0  0  0  0
 15 14  1  0  0  0  0
 16 15  2  0  0  0  0
 17 19  2  0  0  0  0
 17 16  1  0  0  0  0
 18 17  1  0  0  0  0
 19 20  1  0  0  0  0
 20 21  1  0  0  0  0
 20 22  2  0  0  0  0
 22 23  1  0  0  0  0
 24  2  1  0  0  0  0
 25 30  1  0  0  0  0
 26 27  1  0  0  0  0
 26 25  2  0  0  0  0
 27 28  2  0  0  0  0
 28 29  1  0  0  0  0
 29 24  1  0  0  0  0
 30 29  2  0  0  0  0
 31 25  1  0  0  0  0
 32 26  1  0  0  0  0
 33 27  1  0  0  0  0
 33 36  1  0  0  0  0
 34 33  1  0  0  0  0
 35 33  1  0  0  0  0
 36 38  1  0  0  0  0
 36 37  1  0  0  0  0
 39 36  1  0  0  0  0
 40 41  1  0  0  0  0
 40 39  2  0  0  0  0
 41 43  1  0  0  0  0
 42 41  1  0  0  0  0
 44 41  1  0  0  0  0
M  END
>  <minimizedAffinity>
-5.70660257

$$$$

 OpenBabel03242517583D

 44 46  0  0  0  0  0  0  0  0999 V2000
   37.0520   30.2270   38.2840 C   0  0  0  0  0  0  0  0  0  0  0  0
   36.5740   30.3120   39.5520 C   0  0  0  0  0  0  0  0  0  0  0  0
   36.6570   31.5210   40.2190 C   0  0  0  0  0  0  0  0  0  0  0  0
   37.2080   32.6480   39.6480 C   0  0  0  0  0  0  0  0  0  0  0  0
   37.6960   32.5620   38.3500 C   0  0  0  0  0  0  0  0  0  0  0  0
   37.6110   31.3490   37.6860 C   0  0  0  0  0  0  0  0  0  0  0  0
   36.3020   31.6730   41.2300 H   0  0  0  0  0  0  0  0  0  0  0  0
   37.2890   33.6070   40.1400 H   0  0  0  0  0  0  0  0  0  0  0  0
   38.1470   33.3670   37.7930 H   0  0  0  0  0  0  0  0  0  0  0  0
   37.9710   31.1890   36.6610 H   0  0  0  0  0  0  0  0  0  0  0  0
   36.9810   28.6730   37.5250 S   0  0  0  0  0  0  0  0  0  0  0  0
   37.6560   27.6110   38.3710 O   0  0  0  0  0  0  0  0  0  0  0  0
   37.8290   28.7770   36.2570 O   0  0  0  0  0  0  0  0  0  0  0  0
   36.3040   25.6730   36.5230 Cl  0  0  0  0  0  0  0  0  0  0  0  0
   35.0400   26.8820   36.6560 C   0  0  0  0  0  0  0  0  0  0  0  0
   35.4200   28.1630   37.0010 C   0  0  0  0  0  0  0  0  0  0  0  0
   34.3430   29.0550   36.9710 C   0  0  0  0  0  0  0  0  0  0  0  0
   34.5320   30.1020   37.2260 H   0  0  0  0  0  0  0  0  0  0  0  0
   33.0410   28.7330   36.6460 C   0  0  0  0  0  3  0  0  0  0  0  0
   32.7770   27.4180   36.3220 C   0  0  0  0  0  0  0  0  0  0  0  0
   31.1430   26.9500   35.9020 Cl  0  0  0  0  0  0  0  0  0  0  0  0
   33.7740   26.4570   36.3190 C   0  0  0  0  0  0  0  0  0  0  0  0
   33.5640   25.4280   36.0630 H   0  0  0  0  0  0  0  0  0  0  0  0
   35.9810   29.3120   40.3000 O   0  0  0  0  0  0  0  0  0  0  0  0
   37.6990   28.6700   43.3190 C   0  0  0  0  0  0  0  0  0  0  0  0
   37.7490   27.2580   43.3350 C   0  0  0  0  0  0  0  0  0  0  0  0
   37.1880   26.5490   42.3060 C   0  0  0  0  0  0  0  0  0  0  0  0
   36.6220   27.2710   41.3380 N   0  0  0  0  0  0  0  0  0  0  0  0
   36.5660   28.5810   41.3060 C   0  0  0  0  0  0  0  0  0  0  0  0
   37.1110   29.2920   42.3070 N   0  0  0  0  0  0  0  0  0  0  0  0
   38.1370   29.2460   44.1250 H   0  0  0  0  0  0  0  0  0  0  0  0
   38.2490   26.8480   44.1950 H   0  0  0  0  0  0  0  0  0  0  0  0
   37.2110   25.0850   42.2330 C   0  0  0  0  0  0  0  0  0  0  0  0
   38.1030   24.7380   42.7940 H   0  0  0  0  0  0  0  0  0  0  0  0
   36.2990   24.6230   42.6920 H   0  0  0  0  0  0  0  0  0  0  0  0
   37.2860   24.5610   40.8300 C   0  0  0  0  0  0  0  0  0  0  0  0
   38.0610   23.7280   40.8650 H   0  0  0  0  0  0  0  0  0  0  0  0
   37.6870   25.2630   40.1000 H   0  0  0  0  0  0  0  0  0  0  0  0
   36.0510   23.9210   40.3750 C   0  0  0  0  0  3  0  0  0  0  0  0
   35.5850   23.1010   39.4400 C   0  0  0  0  0  3  0  0  0  0  0  0
   34.1300   22.7260   39.2230 C   0  0  0  0  0  0  0  0  0  0  0  0
   34.0100   21.7240   39.6830 H   0  0  0  0  0  0  0  0  0  0  0  0
   33.5100   23.4900   39.7480 H   0  0  0  0  0  0  0  0  0  0  0  0
   33.9290   22.7620   38.1540 H   0  0  0  0  0  0  0  0  0  0  0  0
  1  2  1  0  0  0  0
  2  3  2  0  0  0  0
  2 24  1  0  0  0  0
  3  7  1  0  0  0  0
  4  8  1  0  0  0  0
  4  3  1  0  0  0  0
  5  4  2  0  0  0  0
  6  1  2  0  0  0  0
  6  5  1  0  0  0  0
  9  5  1  0  0  0  0
 10  6  1  0  0  0  0
 11  1  1  0  0  0  0
 11 12  2  0  0  0  0
 13 11  2  0  0  0  0
 14 15  1  0  0  0  0
 15 16  1  0  0  0  0
 16 11  1  0  0  0  0
 17 16  2  0  0  0  0
 17 18  1  0  0  0  0
 19 17  1  0  0  0  0
 20 19  2  0  0  0  0
 21 20  1  0  0  0  0
 22 20  1  0  0  0  0
 22 15  2  0  0  0  0
 23 22  1  0  0  0  0
 24 29  1  0  0  0  0
 25 26  1  0  0  0  0
 25 31  1  0  0  0  0
 26 32  1  0  0  0  0
 27 26  2  0  0  0  0
 28 27  1  0  0  0  0
 29 28  2  0  0  0  0
 29 30  1  0  0  0  0
 30 25  2  0  0  0  0
 33 27  1  0  0  0  0
 33 35  1  0  0  0  0
 33 34  1  0  0  0  0
 36 37  1  0  0  0  0
 36 33  1  0  0  0  0
 38 36  1  0  0  0  0
 39 36  1  0  0  0  0
 40 39  2  0  0  0  0
 41 40  1  0  0  0  0
 41 42  1  0  0  0  0
 41 43  1  0  0  0  0
 44 41  1  0  0  0  0
M  END
>  <minimizedAffinity>
-5.50817156

$$$$

 OpenBabel03242517583D

 44 46  0  0  0  0  0  0  0  0999 V2000
   36.7940   30.1320   38.3660 C   0  0  0  0  0  0  0  0  0  0  0  0
   35.9410   29.6390   39.3000 C   0  0  0  0  0  0  0  0  0  0  0  0
   34.8570   28.8860   38.8870 C   0  0  0  0  0  0  0  0  0  0  0  0
   34.6050   28.6140   37.5580 C   0  0  0  0  0  0  0  0  0  0  0  0
   35.4780   29.1180   36.6020 C   0  0  0  0  0  0  0  0  0  0  0  0
   36.5620   29.8720   37.0210 C   0  0  0  0  0  0  0  0  0  0  0  0
   34.1310   28.4580   39.5640 H   0  0  0  0  0  0  0  0  0  0  0  0
   33.7690   28.0310   37.2000 H   0  0  0  0  0  0  0  0  0  0  0  0
   35.3930   28.9770   35.5380 H   0  0  0  0  0  0  0  0  0  0  0  0
   37.3010   30.3080   36.3370 H   0  0  0  0  0  0  0  0  0  0  0  0
   38.0930   31.1220   38.9390 S   0  0  0  0  0  0  0  0  0  0  0  0
   37.5960   32.4790   39.3970 O   0  0  0  0  0  0  0  0  0  0  0  0
   38.9810   31.4060   37.7270 O   0  0  0  0  0  0  0  0  0  0  0  0
   39.1700   28.0760   38.7690 Cl  0  0  0  0  0  0  0  0  0  0  0  0
   39.6990   29.1460   40.0550 C   0  0  0  0  0  0  0  0  0  0  0  0
   39.1260   30.3990   40.1150 C   0  0  0  0  0  0  0  0  0  0  0  0
   39.5480   31.1150   41.2400 C   0  0  0  0  0  0  0  0  0  0  0  0
   39.1530   32.1240   41.3880 H   0  0  0  0  0  0  0  0  0  0  0  0
   40.4330   30.6610   42.1970 C   0  0  0  0  0  3  0  0  0  0  0  0
   40.9460   29.3910   42.0310 C   0  0  0  0  0  0  0  0  0  0  0  0
   42.0740   28.7610   43.2130 Cl  0  0  0  0  0  0  0  0  0  0  0  0
   40.5900   28.5990   40.9520 C   0  0  0  0  0  0  0  0  0  0  0  0
   40.9930   27.6040   40.8260 H   0  0  0  0  0  0  0  0  0  0  0  0
   36.0150   29.7870   40.6730 O   0  0  0  0  0  0  0  0  0  0  0  0
   37.5450   28.6480   43.6450 C   0  0  0  0  0  0  0  0  0  0  0  0
   37.6700   27.2630   43.4010 C   0  0  0  0  0  0  0  0  0  0  0  0
   37.2230   26.7410   42.2160 C   0  0  0  0  0  0  0  0  0  0  0  0
   36.6890   27.6120   41.3580 N   0  0  0  0  0  0  0  0  0  0  0  0
   36.5650   28.9010   41.5680 C   0  0  0  0  0  0  0  0  0  0  0  0
   36.9980   29.4290   42.7250 N   0  0  0  0  0  0  0  0  0  0  0  0
   37.8930   29.0770   44.5780 H   0  0  0  0  0  0  0  0  0  0  0  0
   38.1290   26.7160   44.2060 H   0  0  0  0  0  0  0  0  0  0  0  0
   37.3300   25.3210   41.8720 C   0  0  0  0  0  0  0  0  0  0  0  0
   37.5780   24.7710   42.8030 H   0  0  0  0  0  0  0  0  0  0  0  0
   36.3720   24.9100   41.4590 H   0  0  0  0  0  0  0  0  0  0  0  0
   38.3850   25.0350   40.8450 C   0  0  0  0  0  0  0  0  0  0  0  0
   38.3410   25.9130   40.1220 H   0  0  0  0  0  0  0  0  0  0  0  0
   38.1890   24.1670   40.2180 H   0  0  0  0  0  0  0  0  0  0  0  0
   39.7470   25.0460   41.3820 C   0  0  0  0  0  3  0  0  0  0  0  0
   40.4160   24.9830   42.5270 C   0  0  0  0  0  3  0  0  0  0  0  0
   41.9170   25.1350   42.6950 C   0  0  0  0  0  0  0  0  0  0  0  0
   42.3090   24.1030   42.8000 H   0  0  0  0  0  0  0  0  0  0  0  0
   42.3060   25.6240   41.7710 H   0  0  0  0  0  0  0  0  0  0  0  0
   42.0960   25.7790   43.5540 H   0  0  0  0  0  0  0  0  0  0  0  0
  1 11  1  0  0  0  0
  1  2  1  0  0  0  0
  2 24  1  0  0  0  0
  3  2  2  0  0  0  0
  3  7  1  0  0  0  0
  4  3  1  0  0  0  0
  5  6  1  0  0  0  0
  5  4  2  0  0  0  0
  6  1  2  0  0  0  0
  8  4  1  0  0  0  0
  9  5  1  0  0  0  0
 10  6  1  0  0  0  0
 11 12  2  0  0  0  0
 11 16  1  0  0  0  0
 13 11  2  0  0  0  0
 14 15  1  0  0  0  0
 15 16  2  0  0  0  0
 15 22  1  0  0  0  0
 16 17  1  0  0  0  0
 17 18  1  0  0  0  0
 17 19  2  0  0  0  0
 20 19  1  0  0  0  0
 20 21  1  0  0  0  0
 22 20  2  0  0  0  0
 23 22  1  0  0  0  0
 24 29  1  0  0  0  0
 25 31  1  0  0  0  0
 26 25  1  0  0  0  0
 26 32  1  0  0  0  0
 27 26  2  0  0  0  0
 28 29  2  0  0  0  0
 28 27  1  0  0  0  0
 29 30  1  0  0  0  0
 30 25  2  0  0  0  0
 33 27  1  0  0  0  0
 33 34  1  0  0  0  0
 35 33  1  0  0  0  0
 36 39  1  0  0  0  0
 36 33  1  0  0  0  0
 37 36  1  0  0  0  0
 38 36  1  0  0  0  0
 39 40  2  0  0  0  0
 40 41  1  0  0  0  0
 41 42  1  0  0  0  0
 41 44  1  0  0  0  0
 43 41  1  0  0  0  0
M  END
>  <minimizedAffinity>
-5.41555166

$$$$

 OpenBabel03242517583D

 44 46  0  0  0  0  0  0  0  0999 V2000
   39.0030   27.2120   42.0760 C   0  0  0  0  0  0  0  0  0  0  0  0
   39.0300   28.3760   42.7750 C   0  0  0  0  0  0  0  0  0  0  0  0
   37.9360   28.7170   43.5500 C   0  0  0  0  0  0  0  0  0  0  0  0
   36.8150   27.9200   43.6440 C   0  0  0  0  0  0  0  0  0  0  0  0
   36.7870   26.7280   42.9310 C   0  0  0  0  0  0  0  0  0  0  0  0
   37.8850   26.3920   42.1550 C   0  0  0  0  0  0  0  0  0  0  0  0
   37.8760   29.6250   44.1350 H   0  0  0  0  0  0  0  0  0  0  0  0
   35.9440   28.1550   44.2390 H   0  0  0  0  0  0  0  0  0  0  0  0
   35.9760   26.0200   42.9200 H   0  0  0  0  0  0  0  0  0  0  0  0
   37.9510   25.4720   41.5590 H   0  0  0  0  0  0  0  0  0  0  0  0
   40.3710   26.8720   41.0720 S   0  0  0  0  0  0  0  0  0  0  0  0
   40.2870   25.4810   40.4740 O   0  0  0  0  0  0  0  0  0  0  0  0
   41.5850   26.8400   41.9990 O   0  0  0  0  0  0  0  0  0  0  0  0
   38.2450   27.9170   38.8690 Cl  0  0  0  0  0  0  0  0  0  0  0  0
   39.8520   28.6130   38.9670 C   0  0  0  0  0  0  0  0  0  0  0  0
   40.7330   28.0530   39.8690 C   0  0  0  0  0  0  0  0  0  0  0  0
   42.0080   28.6220   39.7790 C   0  0  0  0  0  0  0  0  0  0  0  0
   42.7880   28.2490   40.4490 H   0  0  0  0  0  0  0  0  0  0  0  0
   42.3810   29.6270   38.9100 C   0  0  0  0  0  3  0  0  0  0  0  0
   41.4130   30.1140   38.0550 C   0  0  0  0  0  0  0  0  0  0  0  0
   41.8270   31.3900   36.9300 Cl  0  0  0  0  0  0  0  0  0  0  0  0
   40.1200   29.6170   38.0630 C   0  0  0  0  0  0  0  0  0  0  0  0
   39.3660   30.0000   37.3900 H   0  0  0  0  0  0  0  0  0  0  0  0
   40.0500   29.3080   42.8250 O   0  0  0  0  0  0  0  0  0  0  0  0
   41.4830   32.2190   41.4300 C   0  0  0  0  0  0  0  0  0  0  0  0
   40.3710   32.8270   40.8080 C   0  0  0  0  0  0  0  0  0  0  0  0
   39.1420   32.2230   40.8780 C   0  0  0  0  0  0  0  0  0  0  0  0
   39.0930   31.0720   41.5500 N   0  0  0  0  0  0  0  0  0  0  0  0
   40.1160   30.4930   42.1330 C   0  0  0  0  0  0  0  0  0  0  0  0
   41.3270   31.0710   42.0750 N   0  0  0  0  0  0  0  0  0  0  0  0
   42.4620   32.6830   41.3840 H   0  0  0  0  0  0  0  0  0  0  0  0
   40.5980   33.7550   40.3140 H   0  0  0  0  0  0  0  0  0  0  0  0
   37.9320   32.7930   40.2780 C   0  0  0  0  0  0  0  0  0  0  0  0
   37.1350   32.7670   41.0490 H   0  0  0  0  0  0  0  0  0  0  0  0
   38.0800   33.8560   39.9530 H   0  0  0  0  0  0  0  0  0  0  0  0
   37.4600   32.0450   39.0670 C   0  0  0  0  0  0  0  0  0  0  0  0
   38.3890   31.5360   38.6520 H   0  0  0  0  0  0  0  0  0  0  0  0
   37.1160   32.6740   38.2470 H   0  0  0  0  0  0  0  0  0  0  0  0
   36.5280   30.9590   39.3730 C   0  0  0  0  0  3  0  0  0  0  0  0
   35.9780   30.3150   40.3950 C   0  0  0  0  0  3  0  0  0  0  0  0
   35.0740   29.0990   40.3040 C   0  0  0  0  0  0  0  0  0  0  0  0
   34.0420   29.4860   40.4310 H   0  0  0  0  0  0  0  0  0  0  0  0
   35.2180   28.6540   39.2920 H   0  0  0  0  0  0  0  0  0  0  0  0
   35.3890   28.3870   41.0650 H   0  0  0  0  0  0  0  0  0  0  0  0
  1  6  2  0  0  0  0
  1  2  1  0  0  0  0
  2 24  1  0  0  0  0
  2  3  2  0  0  0  0
  3  4  1  0  0  0  0
  3  7  1  0  0  0  0
  4  8  1  0  0  0  0
  5  4  2  0  0  0  0
  6  5  1  0  0  0  0
  9  5  1  0  0  0  0
 10  6  1  0  0  0  0
 11 13  2  0  0  0  0
 11  1  1  0  0  0  0
 12 11  2  0  0  0  0
 14 15  1  0  0  0  0
 15 16  1  0  0  0  0
 16 11  1  0  0  0  0
 17 16  2  0  0  0  0
 17 18  1  0  0  0  0
 19 17  1  0  0  0  0
 20 22  1  0  0  0  0
 20 19  2  0  0  0  0
 21 20  1  0  0  0  0
 22 15  2  0  0  0  0
 23 22  1  0  0  0  0
 25 30  1  0  0  0  0
 26 27  1  0  0  0  0
 26 25  2  0  0  0  0
 27 28  2  0  0  0  0
 28 29  1  0  0  0  0
 29 24  1  0  0  0  0
 30 29  2  0  0  0  0
 31 25  1  0  0  0  0
 32 26  1  0  0  0  0
 33 27  1  0  0  0  0
 33 34  1  0  0  0  0
 35 33  1  0  0  0  0
 36 39  1  0  0  0  0
 36 33  1  0  0  0  0
 37 36  1  0  0  0  0
 38 36  1  0  0  0  0
 39 40  2  0  0  0  0
 41 40  1  0  0  0  0
 41 42  1  0  0  0  0
 41 44  1  0  0  0  0
 43 41  1  0  0  0  0
M  END
>  <minimizedAffinity>
-5.41341829

$$$$

 OpenBabel03242517583D

 44 46  0  0  0  0  0  0  0  0999 V2000
   41.5100   31.7630   40.2290 C   0  0  0  0  0  0  0  0  0  0  0  0
   41.9110   30.6940   40.9640 C   0  0  0  0  0  0  0  0  0  0  0  0
   42.7840   30.8940   42.0180 C   0  0  0  0  0  0  0  0  0  0  0  0
   43.2670   32.1410   42.3550 C   0  0  0  0  0  0  0  0  0  0  0  0
   42.8560   33.2360   41.6050 C   0  0  0  0  0  0  0  0  0  0  0  0
   41.9820   33.0300   40.5500 C   0  0  0  0  0  0  0  0  0  0  0  0
   43.1530   30.0980   42.6500 H   0  0  0  0  0  0  0  0  0  0  0  0
   43.9500   32.3340   43.1700 H   0  0  0  0  0  0  0  0  0  0  0  0
   43.1580   34.2570   41.7660 H   0  0  0  0  0  0  0  0  0  0  0  0
   41.6050   33.8340   39.9050 H   0  0  0  0  0  0  0  0  0  0  0  0
   40.4700   31.4420   38.8830 S   0  0  0  0  0  0  0  0  0  0  0  0
   41.1510   30.5590   37.8560 O   0  0  0  0  0  0  0  0  0  0  0  0
   40.2510   32.7820   38.1830 O   0  0  0  0  0  0  0  0  0  0  0  0
   38.3340   33.0670   40.6870 Cl  0  0  0  0  0  0  0  0  0  0  0  0
   37.9050   31.5340   39.9500 C   0  0  0  0  0  0  0  0  0  0  0  0
   38.8960   30.8550   39.2730 C   0  0  0  0  0  0  0  0  0  0  0  0
   38.4620   29.6040   38.8240 C   0  0  0  0  0  0  0  0  0  0  0  0
   39.1720   28.9780   38.2740 H   0  0  0  0  0  0  0  0  0  0  0  0
   37.2010   29.0750   39.0110 C   0  0  0  0  0  3  0  0  0  0  0  0
   36.2890   29.8470   39.7010 C   0  0  0  0  0  0  0  0  0  0  0  0
   34.6720   29.2290   39.9680 Cl  0  0  0  0  0  0  0  0  0  0  0  0
   36.6190   31.1000   40.1890 C   0  0  0  0  0  0  0  0  0  0  0  0
   35.9020   31.7010   40.7300 H   0  0  0  0  0  0  0  0  0  0  0  0
   41.5440   29.3710   40.8000 O   0  0  0  0  0  0  0  0  0  0  0  0
   41.5960   26.7670   43.1850 C   0  0  0  0  0  0  0  0  0  0  0  0
   40.2730   26.7920   43.6790 C   0  0  0  0  0  0  0  0  0  0  0  0
   39.3830   27.7090   43.1840 C   0  0  0  0  0  0  0  0  0  0  0  0
   39.8510   28.5300   42.2430 N   0  0  0  0  0  0  0  0  0  0  0  0
   41.0760   28.5200   41.7720 C   0  0  0  0  0  0  0  0  0  0  0  0
   41.9610   27.6290   42.2470 N   0  0  0  0  0  0  0  0  0  0  0  0
   42.3120   26.0490   43.5670 H   0  0  0  0  0  0  0  0  0  0  0  0
   40.0740   26.0530   44.4350 H   0  0  0  0  0  0  0  0  0  0  0  0
   37.9880   27.7930   43.6250 C   0  0  0  0  0  0  0  0  0  0  0  0
   37.8140   26.9630   44.3400 H   0  0  0  0  0  0  0  0  0  0  0  0
   37.7640   28.7630   44.1420 H   0  0  0  0  0  0  0  0  0  0  0  0
   37.0010   27.6800   42.5010 C   0  0  0  0  0  0  0  0  0  0  0  0
   37.3850   28.3870   41.6960 H   0  0  0  0  0  0  0  0  0  0  0  0
   36.0050   28.0560   42.7290 H   0  0  0  0  0  0  0  0  0  0  0  0
   36.9740   26.3580   41.8730 C   0  0  0  0  0  3  0  0  0  0  0  0
   37.0690   25.0650   42.1610 C   0  0  0  0  0  3  0  0  0  0  0  0
   37.0920   23.9260   41.1590 C   0  0  0  0  0  0  0  0  0  0  0  0
   36.0660   23.5050   41.1650 H   0  0  0  0  0  0  0  0  0  0  0  0
   37.3450   24.3630   40.1650 H   0  0  0  0  0  0  0  0  0  0  0  0
   37.8710   23.2280   41.4610 H   0  0  0  0  0  0  0  0  0  0  0  0
  1  6  2  0  0  0  0
  1  2  1  0  0  0  0
  2  3  2  0  0  0  0
  3  4  1  0  0  0  0
  3  7  1  0  0  0  0
  4  8  1  0  0  0  0
  5  9  1  0  0  0  0
  5  4  2  0  0  0  0
  6  5  1  0  0  0  0
 10  6  1  0  0  0  0
 11 16  1  0  0  0  0
 11  1  1  0  0  0  0
 12 11  2  0  0  0  0
 13 11  2  0  0  0  0
 15 22  1  0  0  0  0
 15 14  1  0  0  0  0
 16 15  2  0  0  0  0
 17 19  2  0  0  0  0
 17 16  1  0  0  0  0
 18 17  1  0  0  0  0
 19 20  1  0  0  0  0
 20 21  1  0  0  0  0
 20 22  2  0  0  0  0
 22 23  1  0  0  0  0
 24  2  1  0  0  0  0
 24 29  1  0  0  0  0
 25 31  1  0  0  0  0
 25 26  1  0  0  0  0
 26 32  1  0  0  0  0
 27 33  1  0  0  0  0
 27 26  2  0  0  0  0
 28 27  1  0  0  0  0
 29 28  2  0  0  0  0
 29 30  1  0  0  0  0
 30 25  2  0  0  0  0
 33 35  1  0  0  0  0
 33 34  1  0  0  0  0
 36 38  1  0  0  0  0
 36 33  1  0  0  0  0
 37 36  1  0  0  0  0
 39 40  2  0  0  0  0
 39 36  1  0  0  0  0
 41 42  1  0  0  0  0
 41 44  1  0  0  0  0
 41 40  1  0  0  0  0
 43 41  1  0  0  0  0
M  END
>  <minimizedAffinity>
-5.4064126

$$$$

 OpenBabel03242517583D

 44 46  0  0  0  0  0  0  0  0999 V2000
   36.4420   29.8510   38.4840 C   0  0  0  0  0  0  0  0  0  0  0  0
   35.6590   29.5840   39.5600 C   0  0  0  0  0  0  0  0  0  0  0  0
   34.4000   29.0500   39.3560 C   0  0  0  0  0  0  0  0  0  0  0  0
   33.9040   28.7760   38.0990 C   0  0  0  0  0  0  0  0  0  0  0  0
   34.7060   29.0480   36.9960 C   0  0  0  0  0  0  0  0  0  0  0  0
   35.9660   29.5830   37.2060 C   0  0  0  0  0  0  0  0  0  0  0  0
   33.7140   28.8100   40.1570 H   0  0  0  0  0  0  0  0  0  0  0  0
   32.9260   28.3600   37.9030 H   0  0  0  0  0  0  0  0  0  0  0  0
   34.4370   28.8790   35.9670 H   0  0  0  0  0  0  0  0  0  0  0  0
   36.6660   29.8290   36.3970 H   0  0  0  0  0  0  0  0  0  0  0  0
   37.9810   30.5800   38.7980 S   0  0  0  0  0  0  0  0  0  0  0  0
   37.8420   31.8120   39.6710 O   0  0  0  0  0  0  0  0  0  0  0  0
   38.4930   31.0940   37.4530 O   0  0  0  0  0  0  0  0  0  0  0  0
   40.7680   31.5930   40.0900 Cl  0  0  0  0  0  0  0  0  0  0  0  0
   40.3690   29.8850   40.0400 C   0  0  0  0  0  0  0  0  0  0  0  0
   39.2060   29.5230   39.3910 C   0  0  0  0  0  0  0  0  0  0  0  0
   39.0530   28.1340   39.3260 C   0  0  0  0  0  0  0  0  0  0  0  0
   38.1640   27.7350   38.8290 H   0  0  0  0  0  0  0  0  0  0  0  0
   39.9320   27.2030   39.8410 C   0  0  0  0  0  3  0  0  0  0  0  0
   41.0610   27.6820   40.4730 C   0  0  0  0  0  0  0  0  0  0  0  0
   42.2130   26.5480   41.1470 Cl  0  0  0  0  0  0  0  0  0  0  0  0
   41.3080   29.0400   40.5890 C   0  0  0  0  0  0  0  0  0  0  0  0
   42.1940   29.4110   41.0840 H   0  0  0  0  0  0  0  0  0  0  0  0
   35.9640   29.7750   40.8950 O   0  0  0  0  0  0  0  0  0  0  0  0
   38.2850   28.7490   43.3510 C   0  0  0  0  0  0  0  0  0  0  0  0
   38.1170   27.3470   43.3500 C   0  0  0  0  0  0  0  0  0  0  0  0
   37.2040   26.7760   42.5020 C   0  0  0  0  0  0  0  0  0  0  0  0
   36.5250   27.6170   41.7200 N   0  0  0  0  0  0  0  0  0  0  0  0
   36.6690   28.9210   41.7080 C   0  0  0  0  0  0  0  0  0  0  0  0
   37.5590   29.4970   42.5330 N   0  0  0  0  0  0  0  0  0  0  0  0
   39.0030   29.2170   44.0160 H   0  0  0  0  0  0  0  0  0  0  0  0
   38.7530   26.8290   44.0450 H   0  0  0  0  0  0  0  0  0  0  0  0
   36.9780   25.3300   42.4210 C   0  0  0  0  0  0  0  0  0  0  0  0
   37.4260   24.8720   43.3260 H   0  0  0  0  0  0  0  0  0  0  0  0
   35.8870   25.0720   42.3920 H   0  0  0  0  0  0  0  0  0  0  0  0
   37.5900   24.7010   41.2050 C   0  0  0  0  0  0  0  0  0  0  0  0
   37.6820   23.5950   41.4580 H   0  0  0  0  0  0  0  0  0  0  0  0
   38.6130   25.0090   40.9960 H   0  0  0  0  0  0  0  0  0  0  0  0
   36.7330   24.7560   40.0190 C   0  0  0  0  0  3  0  0  0  0  0  0
   36.4550   25.5190   38.9690 C   0  0  0  0  0  3  0  0  0  0  0  0
   35.3630   25.2690   37.9460 C   0  0  0  0  0  0  0  0  0  0  0  0
   35.8750   24.8300   37.0650 H   0  0  0  0  0  0  0  0  0  0  0  0
   34.6440   24.5450   38.3980 H   0  0  0  0  0  0  0  0  0  0  0  0
   34.8590   26.2140   37.7540 H   0  0  0  0  0  0  0  0  0  0  0  0
  1 11  1  0  0  0  0
  1  2  1  0  0  0  0
  2 24  1  0  0  0  0
  3  2  2  0  0  0  0
  3  7  1  0  0  0  0
  4  3  1  0  0  0  0
  5  6  1  0  0  0  0
  5  4  2  0  0  0  0
  6  1  2  0  0  0  0
  8  4  1  0  0  0  0
  9  5  1  0  0  0  0
 10  6  1  0  0  0  0
 11 16  1  0  0  0  0
 11 12  2  0  0  0  0
 13 11  2  0  0  0  0
 15 14  1  0  0  0  0
 15 22  1  0  0  0  0
 16 15  2  0  0  0  0
 17 16  1  0  0  0  0
 17 19  2  0  0  0  0
 18 17  1  0  0  0  0
 19 20  1  0  0  0  0
 20 22  2  0  0  0  0
 20 21  1  0  0  0  0
 22 23  1  0  0  0  0
 24 29  1  0  0  0  0
 25 31  1  0  0  0  0
 26 25  1  0  0  0  0
 26 32  1  0  0  0  0
 27 26  2  0  0  0  0
 28 27  1  0  0  0  0
 29 28  2  0  0  0  0
 29 30  1  0  0  0  0
 30 25  2  0  0  0  0
 33 27  1  0  0  0  0
 33 34  1  0  0  0  0
 35 33  1  0  0  0  0
 36 37  1  0  0  0  0
 36 33  1  0  0  0  0
 38 36  1  0  0  0  0
 39 36  1  0  0  0  0
 40 39  2  0  0  0  0
 41 43  1  0  0  0  0
 41 40  1  0  0  0  0
 42 41  1  0  0  0  0
 44 41  1  0  0  0  0
M  END
>  <minimizedAffinity>
-5.40113974

$$$$

 OpenBabel03242517583D

 44 46  0  0  0  0  0  0  0  0999 V2000
   38.2960   28.2450   41.3690 C   0  0  0  0  0  0  0  0  0  0  0  0
   37.3660   27.2550   41.3700 C   0  0  0  0  0  0  0  0  0  0  0  0
   36.6420   27.0190   42.5250 C   0  0  0  0  0  0  0  0  0  0  0  0
   36.8260   27.7490   43.6800 C   0  0  0  0  0  0  0  0  0  0  0  0
   37.7760   28.7640   43.6780 C   0  0  0  0  0  0  0  0  0  0  0  0
   38.4990   28.9960   42.5190 C   0  0  0  0  0  0  0  0  0  0  0  0
   35.8860   26.2500   42.6110 H   0  0  0  0  0  0  0  0  0  0  0  0
   36.2790   27.5920   44.5980 H   0  0  0  0  0  0  0  0  0  0  0  0
   38.0130   29.4040   44.5110 H   0  0  0  0  0  0  0  0  0  0  0  0
   39.2680   29.7740   42.4270 H   0  0  0  0  0  0  0  0  0  0  0  0
   39.2160   28.4500   39.9170 S   0  0  0  0  0  0  0  0  0  0  0  0
   40.2210   27.3290   39.7350 O   0  0  0  0  0  0  0  0  0  0  0  0
   40.0540   29.7130   40.1160 O   0  0  0  0  0  0  0  0  0  0  0  0
   36.8550   30.6450   39.6600 Cl  0  0  0  0  0  0  0  0  0  0  0  0
   37.3550   29.6970   38.2710 C   0  0  0  0  0  0  0  0  0  0  0  0
   38.3030   28.7170   38.4790 C   0  0  0  0  0  0  0  0  0  0  0  0
   38.5390   27.9630   37.3250 C   0  0  0  0  0  0  0  0  0  0  0  0
   39.2740   27.1540   37.3780 H   0  0  0  0  0  0  0  0  0  0  0  0
   37.9240   28.1470   36.1040 C   0  0  0  0  0  3  0  0  0  0  0  0
   36.9930   29.1620   36.0120 C   0  0  0  0  0  0  0  0  0  0  0  0
   36.1790   29.4440   34.4880 Cl  0  0  0  0  0  0  0  0  0  0  0  0
   36.6850   29.9650   37.0980 C   0  0  0  0  0  0  0  0  0  0  0  0
   35.9550   30.7580   37.0230 H   0  0  0  0  0  0  0  0  0  0  0  0
   37.0230   26.4160   40.3260 O   0  0  0  0  0  0  0  0  0  0  0  0
   38.6940   23.3330   40.7410 C   0  0  0  0  0  0  0  0  0  0  0  0
   37.7800   22.4220   40.1660 C   0  0  0  0  0  0  0  0  0  0  0  0
   36.6000   22.8850   39.6450 C   0  0  0  0  0  0  0  0  0  0  0  0
   36.4020   24.2020   39.7240 N   0  0  0  0  0  0  0  0  0  0  0  0
   37.2390   25.0620   40.2540 C   0  0  0  0  0  0  0  0  0  0  0  0
   38.4010   24.6250   40.7690 N   0  0  0  0  0  0  0  0  0  0  0  0
   39.6310   22.9830   41.1570 H   0  0  0  0  0  0  0  0  0  0  0  0
   38.1090   21.3990   40.1880 H   0  0  0  0  0  0  0  0  0  0  0  0
   35.6040   22.0140   39.0140 C   0  0  0  0  0  0  0  0  0  0  0  0
   36.1400   21.3690   38.2880 H   0  0  0  0  0  0  0  0  0  0  0  0
   35.0820   21.3580   39.7580 H   0  0  0  0  0  0  0  0  0  0  0  0
   34.5280   22.7680   38.2910 C   0  0  0  0  0  0  0  0  0  0  0  0
   34.4210   22.2430   37.2870 H   0  0  0  0  0  0  0  0  0  0  0  0
   34.7870   23.7930   38.0260 H   0  0  0  0  0  0  0  0  0  0  0  0
   33.2120   22.6660   38.9240 C   0  0  0  0  0  3  0  0  0  0  0  0
   32.0030   23.2140   38.9070 C   0  0  0  0  0  3  0  0  0  0  0  0
   30.8560   22.8770   39.8420 C   0  0  0  0  0  0  0  0  0  0  0  0
   30.1890   22.2050   39.2640 H   0  0  0  0  0  0  0  0  0  0  0  0
   31.2910   22.3530   40.7260 H   0  0  0  0  0  0  0  0  0  0  0  0
   30.3950   23.8100   40.1600 H   0  0  0  0  0  0  0  0  0  0  0  0
  1  2  2  0  0  0  0
  1  6  1  0  0  0  0
  2  3  1  0  0  0  0
  3  7  1  0  0  0  0
  3  4  2  0  0  0  0
  4  8  1  0  0  0  0
  5  4  1  0  0  0  0
  5  9  1  0  0  0  0
  6  5  2  0  0  0  0
 10  6  1  0  0  0  0
 11 13  2  0  0  0  0
 11  1  1  0  0  0  0
 12 11  2  0  0  0  0
 15 16  1  0  0  0  0
 15 14  1  0  0  0  0
 16 11  1  0  0  0  0
 17 18  1  0  0  0  0
 17 16  2  0  0  0  0
 19 17  1  0  0  0  0
 20 19  2  0  0  0  0
 20 22  1  0  0  0  0
 21 20  1  0  0  0  0
 22 15  2  0  0  0  0
 23 22  1  0  0  0  0
 24  2  1  0  0  0  0
 25 30  1  0  0  0  0
 25 31  1  0  0  0  0
 26 32  1  0  0  0  0
 26 25  2  0  0  0  0
 27 28  2  0  0  0  0
 27 26  1  0  0  0  0
 28 29  1  0  0  0  0
 29 24  1  0  0  0  0
 29 30  2  0  0  0  0
 33 27  1  0  0  0  0
 33 35  1  0  0  0  0
 34 33  1  0  0  0  0
 36 39  1  0  0  0  0
 36 33  1  0  0  0  0
 37 36  1  0  0  0  0
 38 36  1  0  0  0  0
 40 39  2  0  0  0  0
 40 41  1  0  0  0  0
 41 44  1  0  0  0  0
 41 43  1  0  0  0  0
 42 41  1  0  0  0  0
M  END
>  <minimizedAffinity>
-5.25335979

$$$$
