
 OpenBabel03242512463D

 39 41  0  0  1  0  0  0  0  0999 V2000
   42.1440   31.1350   37.3860 C   0  0  0  0  0  0  0  0  0  0  0  0
   41.9220   29.7810   37.0880 C   0  0  0  0  0  0  0  0  0  0  0  0
   40.8150   29.1730   37.6820 C   0  0  0  0  0  0  0  0  0  0  0  0
   40.0230   29.9300   38.5100 N   0  0  0  0  0  0  0  0  0  0  0  0
   40.2920   31.2100   38.7510 C   0  0  0  0  0  0  0  0  0  0  0  0
   41.3500   31.8390   38.1990 N   0  0  0  0  0  0  0  0  0  0  0  0
   39.3710   31.9110   39.6330 N   0  0  0  0  0  0  0  0  0  0  0  0
   39.9110   32.9840   40.4270 C   0  0  0  0  0  0  0  0  0  0  0  0
   38.9380   34.0710   40.5830 C   0  0  0  0  0  0  0  0  0  0  0  0
   37.6870   34.0210   39.7670 C   0  0  0  0  0  0  0  0  0  0  0  0
   37.0840   32.6720   39.6300 C   0  0  0  0  0  0  0  0  0  0  0  0
   37.9890   31.5040   39.6430 C   0  0  2  0  0  0  0  0  0  0  0  0
   42.5470   29.2050   36.4410 H   0  0  0  0  0  0  0  0  0  0  0  0
   40.6020   28.1350   37.4850 H   0  0  0  0  0  0  0  0  0  0  0  0
   40.8600   33.3620   39.9370 H   0  0  0  0  0  0  0  0  0  0  0  0
   40.2590   32.5670   41.3860 H   0  0  0  0  0  0  0  0  0  0  0  0
   39.4240   35.0480   40.3710 H   0  0  0  0  0  0  0  0  0  0  0  0
   38.6150   34.1460   41.6590 H   0  0  0  0  0  0  0  0  0  0  0  0
   37.9060   34.4220   38.7590 H   0  0  0  0  0  0  0  0  0  0  0  0
   36.9630   34.7290   40.2360 H   0  0  0  0  0  0  0  0  0  0  0  0
   36.3750   32.7060   38.7770 H   0  0  0  0  0  0  0  0  0  0  0  0
   36.4020   32.5570   40.5250 H   0  0  0  0  0  0  0  0  0  0  0  0
   37.8220   31.0000   38.6320 H   0  0  0  0  0  0  0  0  0  0  0  0
   35.9040   29.5830   38.7470 Cl  0  0  0  0  0  0  0  0  0  0  0  0
   36.6850   29.4690   40.3350 C   0  0  0  0  0  0  0  0  0  0  0  0
   37.6540   30.4460   40.6170 C   0  0  0  0  0  0  0  0  0  0  0  0
   38.1980   30.2710   41.8700 C   0  0  0  0  0  0  0  0  0  0  0  0
   38.9430   30.9530   42.2030 H   0  0  0  0  0  0  0  0  0  0  0  0
   37.8620   29.2780   42.7580 C   0  0  0  0  0  3  0  0  0  0  0  0
   36.9000   28.3610   42.3960 C   0  0  0  0  0  0  0  0  0  0  0  0
   36.3860   27.0560   43.4360 Cl  0  0  0  0  0  0  0  0  0  0  0  0
   36.2860   28.4410   41.1640 C   0  0  0  0  0  0  0  0  0  0  0  0
   35.5240   27.7540   40.8200 H   0  0  0  0  0  0  0  0  0  0  0  0
   43.2390   31.6860   36.7800 O   0  0  0  0  0  0  0  0  0  0  0  0
   43.7770   32.9300   37.0720 C   0  0  0  0  0  0  0  0  0  0  0  0
   44.9300   33.1060   37.5510 O   0  0  0  0  0  0  0  0  0  0  0  0
   43.1160   34.1610   36.8720 N   0  0  0  0  0  0  0  0  0  0  0  0
   43.3510   34.9840   36.2810 H   0  0  0  0  0  0  0  0  0  0  0  0
   42.2250   34.5490   37.2710 H   0  0  0  0  0  0  0  0  0  0  0  0
  1  6  1  0  0  0  0
  2  1  2  0  0  0  0
  2  3  1  0  0  0  0
  3  4  2  0  0  0  0
  4  5  1  0  0  0  0
  5  7  1  0  0  0  0
  6  5  2  0  0  0  0
  7 12  1  0  0  0  0
  7  8  1  0  0  0  0
  8  9  1  0  0  0  0
  8 16  1  0  0  0  0
  9 18  1  0  0  0  0
 10 20  1  0  0  0  0
 10  9  1  0  0  0  0
 11 12  1  0  0  0  0
 11 10  1  0  0  0  0
 11 22  1  0  0  0  0
 12 23  1  6  0  0  0
 12 26  1  0  0  0  0
 13  2  1  0  0  0  0
 14  3  1  0  0  0  0
 15  8  1  0  0  0  0
 17  9  1  0  0  0  0
 19 10  1  0  0  0  0
 21 11  1  0  0  0  0
 24 25  1  0  0  0  0
 25 26  2  0  0  0  0
 25 32  1  0  0  0  0
 26 27  1  0  0  0  0
 27 28  1  0  0  0  0
 27 29  2  0  0  0  0
 30 29  1  0  0  0  0
 30 31  1  0  0  0  0
 32 30  2  0  0  0  0
 33 32  1  0  0  0  0
 34 35  1  0  0  0  0
 34  1  1  0  0  0  0
 35 36  2  0  0  0  0
 37 35  1  0  0  0  0
 37 39  1  0  0  0  0
 38 37  1  0  0  0  0
M  END
>  <minimizedAffinity>
-6.24660921

$$$$

 OpenBabel03242512463D

 39 41  0  0  1  0  0  0  0  0999 V2000
   40.4870   31.4050   37.7190 C   0  0  0  0  0  0  0  0  0  0  0  0
   41.3330   30.3420   37.3630 C   0  0  0  0  0  0  0  0  0  0  0  0
   41.0480   29.0910   37.9110 C   0  0  0  0  0  0  0  0  0  0  0  0
   39.9690   28.9810   38.7530 N   0  0  0  0  0  0  0  0  0  0  0  0
   39.2080   30.0290   39.0500 C   0  0  0  0  0  0  0  0  0  0  0  0
   39.4460   31.2580   38.5440 N   0  0  0  0  0  0  0  0  0  0  0  0
   38.0840   29.7840   39.9430 N   0  0  0  0  0  0  0  0  0  0  0  0
   37.6690   30.8720   40.7890 C   0  0  0  0  0  0  0  0  0  0  0  0
   36.2130   30.8770   40.9700 C   0  0  0  0  0  0  0  0  0  0  0  0
   35.3940   29.9530   40.1290 C   0  0  0  0  0  0  0  0  0  0  0  0
   35.9820   28.6050   39.9260 C   0  0  0  0  0  0  0  0  0  0  0  0
   37.4550   28.4890   39.9100 C   0  0  2  0  0  0  0  0  0  0  0  0
   42.1700   30.4430   36.7050 H   0  0  0  0  0  0  0  0  0  0  0  0
   41.6680   28.2440   37.6680 H   0  0  0  0  0  0  0  0  0  0  0  0
   38.0200   31.8480   40.3330 H   0  0  0  0  0  0  0  0  0  0  0  0
   38.2270   30.8100   41.7360 H   0  0  0  0  0  0  0  0  0  0  0  0
   35.8140   31.9020   40.8070 H   0  0  0  0  0  0  0  0  0  0  0  0
   35.9580   30.6450   42.0420 H   0  0  0  0  0  0  0  0  0  0  0  0
   35.2280   30.4260   39.1420 H   0  0  0  0  0  0  0  0  0  0  0  0
   34.3900   29.8740   40.6120 H   0  0  0  0  0  0  0  0  0  0  0  0
   35.4650   28.1400   39.0620 H   0  0  0  0  0  0  0  0  0  0  0  0
   35.6240   27.9870   40.8030 H   0  0  0  0  0  0  0  0  0  0  0  0
   37.6990   28.0680   38.8760 H   0  0  0  0  0  0  0  0  0  0  0  0
   38.0260   25.8340   38.6970 Cl  0  0  0  0  0  0  0  0  0  0  0  0
   38.3460   26.1910   40.4050 C   0  0  0  0  0  0  0  0  0  0  0  0
   38.0280   27.4890   40.8340 C   0  0  0  0  0  0  0  0  0  0  0  0
   38.3120   27.6650   42.1710 C   0  0  0  0  0  0  0  0  0  0  0  0
   38.1110   28.6080   42.6160 H   0  0  0  0  0  0  0  0  0  0  0  0
   38.8410   26.7130   43.0080 C   0  0  0  0  0  3  0  0  0  0  0  0
   39.1230   25.4640   42.5000 C   0  0  0  0  0  0  0  0  0  0  0  0
   39.7960   24.1710   43.4630 Cl  0  0  0  0  0  0  0  0  0  0  0  0
   38.8770   25.1760   41.1740 C   0  0  0  0  0  0  0  0  0  0  0  0
   39.0760   24.2170   40.7150 H   0  0  0  0  0  0  0  0  0  0  0  0
   40.8070   32.6090   37.1570 O   0  0  0  0  0  0  0  0  0  0  0  0
   41.8260   33.4480   37.5820 C   0  0  0  0  0  0  0  0  0  0  0  0
   42.0960   33.6730   38.7930 O   0  0  0  0  0  0  0  0  0  0  0  0
   42.6940   34.1600   36.7270 N   0  0  0  0  0  0  0  0  0  0  0  0
   43.7280   34.1300   36.6110 H   0  0  0  0  0  0  0  0  0  0  0  0
   42.5120   34.8930   35.9980 H   0  0  0  0  0  0  0  0  0  0  0  0
  1  6  1  0  0  0  0
  2  1  2  0  0  0  0
  2  3  1  0  0  0  0
  3  4  2  0  0  0  0
  4  5  1  0  0  0  0
  5  7  1  0  0  0  0
  6  5  2  0  0  0  0
  7  8  1  0  0  0  0
  8  9  1  0  0  0  0
  8 16  1  0  0  0  0
  9 18  1  0  0  0  0
 10 20  1  0  0  0  0
 10  9  1  0  0  0  0
 11 10  1  0  0  0  0
 11 22  1  0  0  0  0
 12 23  1  6  0  0  0
 12 11  1  0  0  0  0
 12  7  1  0  0  0  0
 12 26  1  0  0  0  0
 13  2  1  0  0  0  0
 14  3  1  0  0  0  0
 15  8  1  0  0  0  0
 17  9  1  0  0  0  0
 19 10  1  0  0  0  0
 21 11  1  0  0  0  0
 24 25  1  0  0  0  0
 25 26  2  0  0  0  0
 25 32  1  0  0  0  0
 26 27  1  0  0  0  0
 27 28  1  0  0  0  0
 27 29  2  0  0  0  0
 30 29  1  0  0  0  0
 30 31  1  0  0  0  0
 32 30  2  0  0  0  0
 33 32  1  0  0  0  0
 34 35  1  0  0  0  0
 34  1  1  0  0  0  0
 35 36  2  0  0  0  0
 37 35  1  0  0  0  0
 38 37  1  0  0  0  0
 39 37  1  0  0  0  0
M  END
>  <minimizedAffinity>
-5.81684637

$$$$

 OpenBabel03242512463D

 39 41  0  0  1  0  0  0  0  0999 V2000
   37.2320   27.1060   42.2380 C   0  0  0  0  0  0  0  0  0  0  0  0
   37.5090   28.0050   43.2800 C   0  0  0  0  0  0  0  0  0  0  0  0
   37.9840   29.2670   42.9210 C   0  0  0  0  0  0  0  0  0  0  0  0
   38.1460   29.5460   41.5870 N   0  0  0  0  0  0  0  0  0  0  0  0
   37.8650   28.6470   40.6480 C   0  0  0  0  0  0  0  0  0  0  0  0
   37.4030   27.4140   40.9490 N   0  0  0  0  0  0  0  0  0  0  0  0
   38.0630   29.0640   39.2680 N   0  0  0  0  0  0  0  0  0  0  0  0
   38.4200   28.0430   38.3180 C   0  0  0  0  0  0  0  0  0  0  0  0
   37.8120   28.3020   37.0080 C   0  0  0  0  0  0  0  0  0  0  0  0
   36.7950   29.3910   36.9040 C   0  0  0  0  0  0  0  0  0  0  0  0
   37.1050   30.6130   37.6890 C   0  0  0  0  0  0  0  0  0  0  0  0
   37.8740   30.4540   38.9410 C   0  0  2  0  0  0  0  0  0  0  0  0
   37.3770   27.7730   44.3150 H   0  0  0  0  0  0  0  0  0  0  0  0
   38.2120   29.9920   43.6850 H   0  0  0  0  0  0  0  0  0  0  0  0
   38.0920   27.0360   38.7210 H   0  0  0  0  0  0  0  0  0  0  0  0
   39.5180   27.9670   38.2840 H   0  0  0  0  0  0  0  0  0  0  0  0
   37.3350   27.3750   36.6210 H   0  0  0  0  0  0  0  0  0  0  0  0
   38.6130   28.5400   36.2530 H   0  0  0  0  0  0  0  0  0  0  0  0
   35.8150   28.9930   37.2300 H   0  0  0  0  0  0  0  0  0  0  0  0
   36.6890   29.6380   35.8200 H   0  0  0  0  0  0  0  0  0  0  0  0
   36.1660   31.1970   37.7860 H   0  0  0  0  0  0  0  0  0  0  0  0
   37.7370   31.2560   37.0060 H   0  0  0  0  0  0  0  0  0  0  0  0
   37.1830   30.8590   39.7560 H   0  0  0  0  0  0  0  0  0  0  0  0
   37.3760   33.2500   39.8230 Cl  0  0  0  0  0  0  0  0  0  0  0  0
   39.0020   32.6400   39.4640 C   0  0  0  0  0  0  0  0  0  0  0  0
   39.0810   31.2970   39.0610 C   0  0  0  0  0  0  0  0  0  0  0  0
   40.3820   30.9210   38.8050 C   0  0  0  0  0  0  0  0  0  0  0  0
   40.5720   29.9250   38.4870 H   0  0  0  0  0  0  0  0  0  0  0  0
   41.4860   31.7300   38.9210 C   0  0  0  0  0  3  0  0  0  0  0  0
   41.3140   33.0360   39.3240 C   0  0  0  0  0  0  0  0  0  0  0  0
   42.6370   34.1610   39.5070 Cl  0  0  0  0  0  0  0  0  0  0  0  0
   40.0540   33.5210   39.6050 C   0  0  0  0  0  0  0  0  0  0  0  0
   39.8520   34.5340   39.9250 H   0  0  0  0  0  0  0  0  0  0  0  0
   36.7690   25.8840   42.6390 O   0  0  0  0  0  0  0  0  0  0  0  0
   37.1230   24.6670   42.0770 C   0  0  0  0  0  0  0  0  0  0  0  0
   36.4400   24.0670   41.2030 O   0  0  0  0  0  0  0  0  0  0  0  0
   38.2870   23.9380   42.4000 N   0  0  0  0  0  0  0  0  0  0  0  0
   39.0980   23.6370   41.8210 H   0  0  0  0  0  0  0  0  0  0  0  0
   38.6230   23.5200   43.3030 H   0  0  0  0  0  0  0  0  0  0  0  0
  1 34  1  0  0  0  0
  1  2  1  0  0  0  0
  2 13  1  0  0  0  0
  3  2  2  0  0  0  0
  3 14  1  0  0  0  0
  4  3  1  0  0  0  0
  5  6  1  0  0  0  0
  5  4  2  0  0  0  0
  6  1  2  0  0  0  0
  7  5  1  0  0  0  0
  8 15  1  0  0  0  0
  8  7  1  0  0  0  0
  9  8  1  0  0  0  0
 10  9  1  0  0  0  0
 10 19  1  0  0  0  0
 10 11  1  0  0  0  0
 11 21  1  0  0  0  0
 11 12  1  0  0  0  0
 12 26  1  0  0  0  0
 12  7  1  0  0  0  0
 12 23  1  1  0  0  0
 16  8  1  0  0  0  0
 17  9  1  0  0  0  0
 18  9  1  0  0  0  0
 20 10  1  0  0  0  0
 22 11  1  0  0  0  0
 25 32  1  0  0  0  0
 25 24  1  0  0  0  0
 26 25  2  0  0  0  0
 27 29  2  0  0  0  0
 27 26  1  0  0  0  0
 28 27  1  0  0  0  0
 29 30  1  0  0  0  0
 30 31  1  0  0  0  0
 30 32  2  0  0  0  0
 32 33  1  0  0  0  0
 35 37  1  0  0  0  0
 35 34  1  0  0  0  0
 36 35  2  0  0  0  0
 37 39  1  0  0  0  0
 38 37  1  0  0  0  0
M  END
>  <minimizedAffinity>
-5.75308084

$$$$

 OpenBabel03242512463D

 39 41  0  0  1  0  0  0  0  0999 V2000
   38.2250   31.3100   39.2330 C   0  0  0  0  0  0  0  0  0  0  0  0
   37.4070   31.0720   38.1160 C   0  0  0  0  0  0  0  0  0  0  0  0
   36.8090   29.8150   38.0230 C   0  0  0  0  0  0  0  0  0  0  0  0
   37.0540   28.9020   39.0190 N   0  0  0  0  0  0  0  0  0  0  0  0
   37.8410   29.1920   40.0510 C   0  0  0  0  0  0  0  0  0  0  0  0
   38.4410   30.3940   40.1820 N   0  0  0  0  0  0  0  0  0  0  0  0
   38.0130   28.1480   41.0500 N   0  0  0  0  0  0  0  0  0  0  0  0
   39.2660   28.1180   41.7600 C   0  0  0  0  0  0  0  0  0  0  0  0
   39.0760   27.7010   43.1530 C   0  0  0  0  0  0  0  0  0  0  0  0
   37.6790   27.5880   43.6730 C   0  0  0  0  0  0  0  0  0  0  0  0
   36.7030   27.0050   42.7190 C   0  0  0  0  0  0  0  0  0  0  0  0
   36.9250   27.2320   41.2760 C   0  0  2  0  0  0  0  0  0  0  0  0
   37.2250   31.7930   37.3490 H   0  0  0  0  0  0  0  0  0  0  0  0
   36.1720   29.5840   37.1840 H   0  0  0  0  0  0  0  0  0  0  0  0
   39.7410   29.1450   41.7090 H   0  0  0  0  0  0  0  0  0  0  0  0
   39.9670   27.4770   41.2020 H   0  0  0  0  0  0  0  0  0  0  0  0
   39.6190   28.3920   43.8340 H   0  0  0  0  0  0  0  0  0  0  0  0
   39.5630   26.6990   43.3250 H   0  0  0  0  0  0  0  0  0  0  0  0
   37.3310   28.5940   43.9740 H   0  0  0  0  0  0  0  0  0  0  0  0
   37.7260   26.9790   44.6080 H   0  0  0  0  0  0  0  0  0  0  0  0
   35.6860   27.2580   43.0830 H   0  0  0  0  0  0  0  0  0  0  0  0
   36.7610   25.8860   42.8780 H   0  0  0  0  0  0  0  0  0  0  0  0
   35.9910   27.7890   40.9260 H   0  0  0  0  0  0  0  0  0  0  0  0
   38.2740   24.8730   42.4840 Cl  0  0  0  0  0  0  0  0  0  0  0  0
   37.5440   24.8290   40.8680 C   0  0  0  0  0  0  0  0  0  0  0  0
   36.9400   26.0190   40.4330 C   0  0  0  0  0  0  0  0  0  0  0  0
   36.4050   25.8820   39.1700 C   0  0  0  0  0  0  0  0  0  0  0  0
   35.9220   26.7190   38.7270 H   0  0  0  0  0  0  0  0  0  0  0  0
   36.4390   24.7410   38.4060 C   0  0  0  0  0  3  0  0  0  0  0  0
   37.0540   23.6190   38.9150 C   0  0  0  0  0  0  0  0  0  0  0  0
   37.1630   22.1100   38.0410 Cl  0  0  0  0  0  0  0  0  0  0  0  0
   37.6250   23.6420   40.1700 C   0  0  0  0  0  0  0  0  0  0  0  0
   38.1220   22.7970   40.6260 H   0  0  0  0  0  0  0  0  0  0  0  0
   38.7880   32.5540   39.2790 O   0  0  0  0  0  0  0  0  0  0  0  0
   39.3390   33.1450   40.4070 C   0  0  0  0  0  0  0  0  0  0  0  0
   38.8580   34.1610   40.9780 O   0  0  0  0  0  0  0  0  0  0  0  0
   40.5030   32.6940   41.0650 N   0  0  0  0  0  0  0  0  0  0  0  0
   40.6600   32.3530   42.0360 H   0  0  0  0  0  0  0  0  0  0  0  0
   41.4960   32.5910   40.7400 H   0  0  0  0  0  0  0  0  0  0  0  0
  1 34  1  0  0  0  0
  1  6  1  0  0  0  0
  2  1  2  0  0  0  0
  3  2  1  0  0  0  0
  3  4  2  0  0  0  0
  4  5  1  0  0  0  0
  5  6  2  0  0  0  0
  5  7  1  0  0  0  0
  7 12  1  0  0  0  0
  7  8  1  0  0  0  0
  8  9  1  0  0  0  0
  9 18  1  0  0  0  0
  9 10  1  0  0  0  0
  9 17  1  0  0  0  0
 10 19  1  0  0  0  0
 10 20  1  0  0  0  0
 11 22  1  0  0  0  0
 11 21  1  0  0  0  0
 11 10  1  0  0  0  0
 12 23  1  6  0  0  0
 12 11  1  0  0  0  0
 13  2  1  0  0  0  0
 14  3  1  0  0  0  0
 15  8  1  0  0  0  0
 16  8  1  0  0  0  0
 25 24  1  0  0  0  0
 26 25  1  0  0  0  0
 26 12  1  0  0  0  0
 27 26  2  0  0  0  0
 28 27  1  0  0  0  0
 29 30  2  0  0  0  0
 29 27  1  0  0  0  0
 30 32  1  0  0  0  0
 31 30  1  0  0  0  0
 32 33  1  0  0  0  0
 32 25  2  0  0  0  0
 34 35  1  0  0  0  0
 35 36  2  0  0  0  0
 35 37  1  0  0  0  0
 37 38  1  0  0  0  0
 39 37  1  0  0  0  0
M  END
>  <minimizedAffinity>
-5.71944189

$$$$

 OpenBabel03242512463D

 39 41  0  0  1  0  0  0  0  0999 V2000
   37.9700   31.4040   39.9250 C   0  0  0  0  0  0  0  0  0  0  0  0
   36.6500   30.9450   39.7860 C   0  0  0  0  0  0  0  0  0  0  0  0
   36.3900   29.6290   40.1700 C   0  0  0  0  0  0  0  0  0  0  0  0
   37.4310   28.8760   40.6540 N   0  0  0  0  0  0  0  0  0  0  0  0
   38.6600   29.3720   40.7600 C   0  0  0  0  0  0  0  0  0  0  0  0
   38.9570   30.6390   40.4010 N   0  0  0  0  0  0  0  0  0  0  0  0
   39.6750   28.4810   41.3010 N   0  0  0  0  0  0  0  0  0  0  0  0
   41.0280   28.6730   40.8450 C   0  0  0  0  0  0  0  0  0  0  0  0
   41.9920   28.4100   41.9190 C   0  0  0  0  0  0  0  0  0  0  0  0
   41.4690   28.2110   43.3050 C   0  0  0  0  0  0  0  0  0  0  0  0
   40.2190   27.4140   43.3930 C   0  0  0  0  0  0  0  0  0  0  0  0
   39.2710   27.4870   42.2630 C   0  0  2  0  0  0  0  0  0  0  0  0
   35.8500   31.5440   39.4070 H   0  0  0  0  0  0  0  0  0  0  0  0
   35.3920   29.2310   40.0820 H   0  0  0  0  0  0  0  0  0  0  0  0
   41.1380   29.7320   40.4570 H   0  0  0  0  0  0  0  0  0  0  0  0
   41.1860   28.0490   39.9520 H   0  0  0  0  0  0  0  0  0  0  0  0
   42.7380   29.2330   41.9700 H   0  0  0  0  0  0  0  0  0  0  0  0
   42.6010   27.4950   41.6730 H   0  0  0  0  0  0  0  0  0  0  0  0
   41.2970   29.2030   43.7640 H   0  0  0  0  0  0  0  0  0  0  0  0
   42.2850   27.7290   43.8960 H   0  0  0  0  0  0  0  0  0  0  0  0
   39.7740   27.5990   44.3920 H   0  0  0  0  0  0  0  0  0  0  0  0
   40.5560   26.3360   43.4580 H   0  0  0  0  0  0  0  0  0  0  0  0
   38.3070   27.8940   42.7210 H   0  0  0  0  0  0  0  0  0  0  0  0
   36.5740   26.5430   43.0880 Cl  0  0  0  0  0  0  0  0  0  0  0  0
   37.6140   25.6160   41.9900 C   0  0  0  0  0  0  0  0  0  0  0  0
   38.8590   26.1900   41.6880 C   0  0  0  0  0  0  0  0  0  0  0  0
   39.5890   25.3950   40.8320 C   0  0  0  0  0  0  0  0  0  0  0  0
   40.5550   25.7200   40.5310 H   0  0  0  0  0  0  0  0  0  0  0  0
   39.1810   24.1880   40.3170 C   0  0  0  0  0  3  0  0  0  0  0  0
   37.9410   23.7010   40.6680 C   0  0  0  0  0  0  0  0  0  0  0  0
   37.3110   22.1820   40.0810 Cl  0  0  0  0  0  0  0  0  0  0  0  0
   37.1260   24.4140   41.5210 C   0  0  0  0  0  0  0  0  0  0  0  0
   36.1440   24.0880   41.8350 H   0  0  0  0  0  0  0  0  0  0  0  0
   38.1740   32.6980   39.5360 O   0  0  0  0  0  0  0  0  0  0  0  0
   39.0310   33.5960   40.1540 C   0  0  0  0  0  0  0  0  0  0  0  0
   40.1040   34.0160   39.6390 O   0  0  0  0  0  0  0  0  0  0  0  0
   38.8240   34.1610   41.4300 N   0  0  0  0  0  0  0  0  0  0  0  0
   38.7100   35.1480   41.7390 H   0  0  0  0  0  0  0  0  0  0  0  0
   38.7350   33.7260   42.3810 H   0  0  0  0  0  0  0  0  0  0  0  0
  1  6  1  0  0  0  0
  2  1  2  0  0  0  0
  2  3  1  0  0  0  0
  3  4  2  0  0  0  0
  4  5  1  0  0  0  0
  5  7  1  0  0  0  0
  6  5  2  0  0  0  0
  7 12  1  0  0  0  0
  8  7  1  0  0  0  0
  8  9  1  0  0  0  0
  9 17  1  0  0  0  0
  9 10  1  0  0  0  0
 10 11  1  0  0  0  0
 10 19  1  0  0  0  0
 10 20  1  0  0  0  0
 11 22  1  0  0  0  0
 11 21  1  0  0  0  0
 12 23  1  1  0  0  0
 12 11  1  0  0  0  0
 13  2  1  0  0  0  0
 14  3  1  0  0  0  0
 15  8  1  0  0  0  0
 16  8  1  0  0  0  0
 18  9  1  0  0  0  0
 25 24  1  0  0  0  0
 26 25  1  0  0  0  0
 26 12  1  0  0  0  0
 27 26  2  0  0  0  0
 28 27  1  0  0  0  0
 29 30  2  0  0  0  0
 29 27  1  0  0  0  0
 30 32  1  0  0  0  0
 31 30  1  0  0  0  0
 32 33  1  0  0  0  0
 32 25  2  0  0  0  0
 34  1  1  0  0  0  0
 34 35  1  0  0  0  0
 35 37  1  0  0  0  0
 36 35  2  0  0  0  0
 37 38  1  0  0  0  0
 37 39  1  0  0  0  0
M  END
>  <minimizedAffinity>
-5.70554972

$$$$

 OpenBabel03242512463D

 39 41  0  0  1  0  0  0  0  0999 V2000
   37.2090   25.4750   41.0600 C   0  0  0  0  0  0  0  0  0  0  0  0
   37.0670   24.5660   39.9990 C   0  0  0  0  0  0  0  0  0  0  0  0
   36.5730   25.0680   38.7940 C   0  0  0  0  0  0  0  0  0  0  0  0
   36.2620   26.4030   38.7240 N   0  0  0  0  0  0  0  0  0  0  0  0
   36.4200   27.2110   39.7690 C   0  0  0  0  0  0  0  0  0  0  0  0
   36.8940   26.7690   40.9540 N   0  0  0  0  0  0  0  0  0  0  0  0
   36.0700   28.6090   39.5680 N   0  0  0  0  0  0  0  0  0  0  0  0
   35.5910   29.3370   40.7140 C   0  0  0  0  0  0  0  0  0  0  0  0
   36.0470   30.7310   40.6850 C   0  0  0  0  0  0  0  0  0  0  0  0
   37.0610   31.1210   39.6600 C   0  0  0  0  0  0  0  0  0  0  0  0
   36.8630   30.5130   38.3210 C   0  0  0  0  0  0  0  0  0  0  0  0
   36.2410   29.1740   38.2540 C   0  0  2  0  0  0  0  0  0  0  0  0
   37.3140   23.5290   40.0690 H   0  0  0  0  0  0  0  0  0  0  0  0
   36.4460   24.4090   37.9500 H   0  0  0  0  0  0  0  0  0  0  0  0
   35.9470   28.8170   41.6560 H   0  0  0  0  0  0  0  0  0  0  0  0
   34.4950   29.2350   40.7580 H   0  0  0  0  0  0  0  0  0  0  0  0
   36.4620   31.0150   41.6770 H   0  0  0  0  0  0  0  0  0  0  0  0
   35.1670   31.4210   40.5430 H   0  0  0  0  0  0  0  0  0  0  0  0
   38.0660   30.8480   40.0350 H   0  0  0  0  0  0  0  0  0  0  0  0
   37.0450   32.2360   39.5920 H   0  0  0  0  0  0  0  0  0  0  0  0
   37.8140   30.6160   37.7600 H   0  0  0  0  0  0  0  0  0  0  0  0
   36.1650   31.2160   37.7730 H   0  0  0  0  0  0  0  0  0  0  0  0
   37.0260   28.5170   37.7490 H   0  0  0  0  0  0  0  0  0  0  0  0
   36.8790   28.8070   35.3730 Cl  0  0  0  0  0  0  0  0  0  0  0  0
   35.2130   28.8830   35.9780 C   0  0  0  0  0  0  0  0  0  0  0  0
   35.0680   29.0570   37.3640 C   0  0  0  0  0  0  0  0  0  0  0  0
   33.7410   29.1050   37.7320 C   0  0  0  0  0  0  0  0  0  0  0  0
   33.5000   29.2380   38.7580 H   0  0  0  0  0  0  0  0  0  0  0  0
   32.6700   28.9980   36.8780 C   0  0  0  0  0  3  0  0  0  0  0  0
   32.9070   28.8290   35.5320 C   0  0  0  0  0  0  0  0  0  0  0  0
   31.6310   28.6820   34.3490 Cl  0  0  0  0  0  0  0  0  0  0  0  0
   34.1980   28.7680   35.0510 C   0  0  0  0  0  0  0  0  0  0  0  0
   34.4510   28.6370   34.0080 H   0  0  0  0  0  0  0  0  0  0  0  0
   37.6970   24.9370   42.2180 O   0  0  0  0  0  0  0  0  0  0  0  0
   39.0390   24.7900   42.5330 C   0  0  0  0  0  0  0  0  0  0  0  0
   39.9370   25.6090   42.1940 O   0  0  0  0  0  0  0  0  0  0  0  0
   39.5820   23.7170   43.2700 N   0  0  0  0  0  0  0  0  0  0  0  0
   40.0960   23.6890   44.1740 H   0  0  0  0  0  0  0  0  0  0  0  0
   39.6010   22.6820   43.0890 H   0  0  0  0  0  0  0  0  0  0  0  0
  1 34  1  0  0  0  0
  2 13  1  0  0  0  0
  2  1  2  0  0  0  0
  3  2  1  0  0  0  0
  4  3  2  0  0  0  0
  4  5  1  0  0  0  0
  5  6  2  0  0  0  0
  6  1  1  0  0  0  0
  7  5  1  0  0  0  0
  7  8  1  0  0  0  0
  8 16  1  0  0  0  0
  8 15  1  0  0  0  0
  9  8  1  0  0  0  0
  9 17  1  0  0  0  0
 10 19  1  0  0  0  0
 10  9  1  0  0  0  0
 11 10  1  0  0  0  0
 12 23  1  6  0  0  0
 12 11  1  0  0  0  0
 12  7  1  0  0  0  0
 14  3  1  0  0  0  0
 18  9  1  0  0  0  0
 20 10  1  0  0  0  0
 21 11  1  0  0  0  0
 22 11  1  0  0  0  0
 24 25  1  0  0  0  0
 25 26  1  0  0  0  0
 26 27  2  0  0  0  0
 26 12  1  0  0  0  0
 27 28  1  0  0  0  0
 29 27  1  0  0  0  0
 30 29  2  0  0  0  0
 31 30  1  0  0  0  0
 32 30  1  0  0  0  0
 32 25  2  0  0  0  0
 33 32  1  0  0  0  0
 34 35  1  0  0  0  0
 35 37  1  0  0  0  0
 36 35  2  0  0  0  0
 37 38  1  0  0  0  0
 39 37  1  0  0  0  0
M  END
>  <minimizedAffinity>
-5.66137314

$$$$

 OpenBabel03242512463D

 39 41  0  0  1  0  0  0  0  0999 V2000
   38.0020   31.6740   39.1770 C   0  0  0  0  0  0  0  0  0  0  0  0
   37.7820   31.1970   37.8740 C   0  0  0  0  0  0  0  0  0  0  0  0
   37.6800   29.8150   37.7120 C   0  0  0  0  0  0  0  0  0  0  0  0
   37.7980   29.0190   38.8240 N   0  0  0  0  0  0  0  0  0  0  0  0
   38.0070   29.5360   40.0320 C   0  0  0  0  0  0  0  0  0  0  0  0
   38.1120   30.8660   40.2360 N   0  0  0  0  0  0  0  0  0  0  0  0
   38.0990   28.5920   41.1350 N   0  0  0  0  0  0  0  0  0  0  0  0
   38.9340   28.9620   42.2480 C   0  0  0  0  0  0  0  0  0  0  0  0
   38.3700   28.4870   43.5160 C   0  0  0  0  0  0  0  0  0  0  0  0
   36.9880   27.9180   43.5050 C   0  0  0  0  0  0  0  0  0  0  0  0
   36.6750   27.0610   42.3340 C   0  0  0  0  0  0  0  0  0  0  0  0
   37.3440   27.3680   41.0530 C   0  0  2  0  0  0  0  0  0  0  0  0
   37.6920   31.8300   37.0180 H   0  0  0  0  0  0  0  0  0  0  0  0
   37.5120   29.4000   36.7310 H   0  0  0  0  0  0  0  0  0  0  0  0
   39.0540   30.0890   42.2590 H   0  0  0  0  0  0  0  0  0  0  0  0
   39.9540   28.5930   42.0570 H   0  0  0  0  0  0  0  0  0  0  0  0
   38.3760   29.3090   44.2650 H   0  0  0  0  0  0  0  0  0  0  0  0
   39.0380   27.6970   43.9620 H   0  0  0  0  0  0  0  0  0  0  0  0
   36.2620   28.7520   43.5460 H   0  0  0  0  0  0  0  0  0  0  0  0
   36.8630   27.3460   44.4550 H   0  0  0  0  0  0  0  0  0  0  0  0
   35.5710   26.9640   42.2750 H   0  0  0  0  0  0  0  0  0  0  0  0
   37.0080   26.0210   42.6270 H   0  0  0  0  0  0  0  0  0  0  0  0
   36.4900   27.5950   40.3300 H   0  0  0  0  0  0  0  0  0  0  0  0
   35.9080   26.1230   38.7660 Cl  0  0  0  0  0  0  0  0  0  0  0  0
   37.4910   25.5490   39.3230 C   0  0  0  0  0  0  0  0  0  0  0  0
   38.0480   26.2380   40.4130 C   0  0  0  0  0  0  0  0  0  0  0  0
   39.2730   25.7170   40.7690 C   0  0  0  0  0  0  0  0  0  0  0  0
   39.7950   26.1520   41.5860 H   0  0  0  0  0  0  0  0  0  0  0  0
   39.9010   24.6600   40.1560 C   0  0  0  0  0  3  0  0  0  0  0  0
   39.2800   24.0430   39.0920 C   0  0  0  0  0  0  0  0  0  0  0  0
   39.9760   22.6910   38.2340 Cl  0  0  0  0  0  0  0  0  0  0  0  0
   38.0490   24.4810   38.6520 C   0  0  0  0  0  0  0  0  0  0  0  0
   37.5100   24.0410   37.8240 H   0  0  0  0  0  0  0  0  0  0  0  0
   38.0940   33.0330   39.2850 O   0  0  0  0  0  0  0  0  0  0  0  0
   39.0000   33.7160   40.0820 C   0  0  0  0  0  0  0  0  0  0  0  0
   40.1070   34.1610   39.6720 O   0  0  0  0  0  0  0  0  0  0  0  0
   38.8110   34.0060   41.4500 N   0  0  0  0  0  0  0  0  0  0  0  0
   38.7590   34.9090   41.9650 H   0  0  0  0  0  0  0  0  0  0  0  0
   38.6780   33.3830   42.2850 H   0  0  0  0  0  0  0  0  0  0  0  0
  1 34  1  0  0  0  0
  1  6  1  0  0  0  0
  2  1  2  0  0  0  0
  3  2  1  0  0  0  0
  3  4  2  0  0  0  0
  4  5  1  0  0  0  0
  5  6  2  0  0  0  0
  5  7  1  0  0  0  0
  7  8  1  0  0  0  0
  8 15  1  0  0  0  0
  8  9  1  0  0  0  0
  9 18  1  0  0  0  0
  9 17  1  0  0  0  0
 10  9  1  0  0  0  0
 10 19  1  0  0  0  0
 10 20  1  0  0  0  0
 11 22  1  0  0  0  0
 11 10  1  0  0  0  0
 12 23  1  6  0  0  0
 12  7  1  0  0  0  0
 12 11  1  0  0  0  0
 13  2  1  0  0  0  0
 14  3  1  0  0  0  0
 16  8  1  0  0  0  0
 21 11  1  0  0  0  0
 24 25  1  0  0  0  0
 25 26  1  0  0  0  0
 26 27  2  0  0  0  0
 26 12  1  0  0  0  0
 27 28  1  0  0  0  0
 29 27  1  0  0  0  0
 30 29  2  0  0  0  0
 31 30  1  0  0  0  0
 32 30  1  0  0  0  0
 32 25  2  0  0  0  0
 33 32  1  0  0  0  0
 34 35  1  0  0  0  0
 35 37  1  0  0  0  0
 36 35  2  0  0  0  0
 37 38  1  0  0  0  0
 37 39  1  0  0  0  0
M  END
>  <minimizedAffinity>
-5.56845808

$$$$

 OpenBabel03242512463D

 39 41  0  0  1  0  0  0  0  0999 V2000
   37.0820   30.6240   40.7220 C   0  0  0  0  0  0  0  0  0  0  0  0
   35.9270   29.9680   40.2680 C   0  0  0  0  0  0  0  0  0  0  0  0
   35.9500   28.5730   40.2600 C   0  0  0  0  0  0  0  0  0  0  0  0
   37.0890   27.9390   40.6920 N   0  0  0  0  0  0  0  0  0  0  0  0
   38.1500   28.6220   41.1100 C   0  0  0  0  0  0  0  0  0  0  0  0
   38.1730   29.9720   41.1350 N   0  0  0  0  0  0  0  0  0  0  0  0
   39.2920   27.8380   41.5580 N   0  0  0  0  0  0  0  0  0  0  0  0
   40.5970   28.4190   41.3810 C   0  0  0  0  0  0  0  0  0  0  0  0
   41.4910   28.0630   42.4880 C   0  0  0  0  0  0  0  0  0  0  0  0
   40.9020   27.3800   43.6800 C   0  0  0  0  0  0  0  0  0  0  0  0
   39.8730   26.3560   43.3680 C   0  0  0  0  0  0  0  0  0  0  0  0
   39.0450   26.5530   42.1600 C   0  0  2  0  0  0  0  0  0  0  0  0
   35.0470   30.4760   39.9350 H   0  0  0  0  0  0  0  0  0  0  0  0
   35.0870   28.0230   39.9200 H   0  0  0  0  0  0  0  0  0  0  0  0
   40.4910   29.5440   41.2970 H   0  0  0  0  0  0  0  0  0  0  0  0
   40.9820   28.1180   40.3940 H   0  0  0  0  0  0  0  0  0  0  0  0
   42.0130   28.9710   42.8620 H   0  0  0  0  0  0  0  0  0  0  0  0
   42.3190   27.3970   42.1160 H   0  0  0  0  0  0  0  0  0  0  0  0
   40.4570   28.1460   44.3440 H   0  0  0  0  0  0  0  0  0  0  0  0
   41.7480   26.9250   44.2480 H   0  0  0  0  0  0  0  0  0  0  0  0
   39.3040   26.1570   44.2990 H   0  0  0  0  0  0  0  0  0  0  0  0
   40.4470   25.3940   43.2080 H   0  0  0  0  0  0  0  0  0  0  0  0
   37.9730   26.6110   42.5520 H   0  0  0  0  0  0  0  0  0  0  0  0
   36.6430   24.8130   42.3820 Cl  0  0  0  0  0  0  0  0  0  0  0  0
   37.9370   24.5070   41.2080 C   0  0  0  0  0  0  0  0  0  0  0  0
   39.0070   25.4160   41.2180 C   0  0  0  0  0  0  0  0  0  0  0  0
   39.9560   25.0910   40.2740 C   0  0  0  0  0  0  0  0  0  0  0  0
   40.8200   25.7040   40.1860 H   0  0  0  0  0  0  0  0  0  0  0  0
   39.8950   24.0220   39.4130 C   0  0  0  0  0  3  0  0  0  0  0  0
   38.8060   23.1810   39.4740 C   0  0  0  0  0  0  0  0  0  0  0  0
   38.6150   21.7890   38.4360 Cl  0  0  0  0  0  0  0  0  0  0  0  0
   37.7950   23.4100   40.3840 C   0  0  0  0  0  0  0  0  0  0  0  0
   36.9160   22.7880   40.4820 H   0  0  0  0  0  0  0  0  0  0  0  0
   37.0100   31.9890   40.7120 O   0  0  0  0  0  0  0  0  0  0  0  0
   38.0890   32.8490   40.5680 C   0  0  0  0  0  0  0  0  0  0  0  0
   38.1490   33.7690   39.7070 O   0  0  0  0  0  0  0  0  0  0  0  0
   39.2570   32.8160   41.3580 N   0  0  0  0  0  0  0  0  0  0  0  0
   39.6850   33.5230   41.9900 H   0  0  0  0  0  0  0  0  0  0  0  0
   39.9820   32.0700   41.5040 H   0  0  0  0  0  0  0  0  0  0  0  0
  1  6  1  0  0  0  0
  2  1  2  0  0  0  0
  3  2  1  0  0  0  0
  3  4  2  0  0  0  0
  4  5  1  0  0  0  0
  5  6  2  0  0  0  0
  5  7  1  0  0  0  0
  7 12  1  0  0  0  0
  8  7  1  0  0  0  0
  8  9  1  0  0  0  0
  9 17  1  0  0  0  0
  9 10  1  0  0  0  0
 10 20  1  0  0  0  0
 10 19  1  0  0  0  0
 11 10  1  0  0  0  0
 11 21  1  0  0  0  0
 12 23  1  1  0  0  0
 12 11  1  0  0  0  0
 13  2  1  0  0  0  0
 14  3  1  0  0  0  0
 15  8  1  0  0  0  0
 16  8  1  0  0  0  0
 18  9  1  0  0  0  0
 22 11  1  0  0  0  0
 25 26  1  0  0  0  0
 25 24  1  0  0  0  0
 26 12  1  0  0  0  0
 27 26  2  0  0  0  0
 28 27  1  0  0  0  0
 29 30  2  0  0  0  0
 29 27  1  0  0  0  0
 30 32  1  0  0  0  0
 31 30  1  0  0  0  0
 32 33  1  0  0  0  0
 32 25  2  0  0  0  0
 34  1  1  0  0  0  0
 35 34  1  0  0  0  0
 35 37  1  0  0  0  0
 36 35  2  0  0  0  0
 37 39  1  0  0  0  0
 37 38  1  0  0  0  0
M  END
>  <minimizedAffinity>
-5.49658251

$$$$

 OpenBabel03242512463D

 39 41  0  0  1  0  0  0  0  0999 V2000
   40.0430   31.9370   40.4830 C   0  0  0  0  0  0  0  0  0  0  0  0
   39.3740   32.3070   39.3050 C   0  0  0  0  0  0  0  0  0  0  0  0
   38.3860   31.4400   38.8350 C   0  0  0  0  0  0  0  0  0  0  0  0
   38.1330   30.2950   39.5490 N   0  0  0  0  0  0  0  0  0  0  0  0
   38.8050   30.0040   40.6590 C   0  0  0  0  0  0  0  0  0  0  0  0
   39.7690   30.8120   41.1500 N   0  0  0  0  0  0  0  0  0  0  0  0
   38.4370   28.7690   41.3360 N   0  0  0  0  0  0  0  0  0  0  0  0
   39.4710   28.0900   42.0710 C   0  0  0  0  0  0  0  0  0  0  0  0
   38.9350   27.4600   43.2830 C   0  0  0  0  0  0  0  0  0  0  0  0
   37.5290   27.7750   43.6800 C   0  0  0  0  0  0  0  0  0  0  0  0
   36.5660   27.8600   42.5530 C   0  0  0  0  0  0  0  0  0  0  0  0
   37.0710   28.3190   41.2440 C   0  0  2  0  0  0  0  0  0  0  0  0
   39.5820   33.2030   38.7600 H   0  0  0  0  0  0  0  0  0  0  0  0
   37.8450   31.6800   37.9350 H   0  0  0  0  0  0  0  0  0  0  0  0
   40.2860   28.8330   42.3330 H   0  0  0  0  0  0  0  0  0  0  0  0
   39.9720   27.3800   41.3940 H   0  0  0  0  0  0  0  0  0  0  0  0
   39.5800   27.7030   44.1550 H   0  0  0  0  0  0  0  0  0  0  0  0
   38.9980   26.3380   43.1930 H   0  0  0  0  0  0  0  0  0  0  0  0
   37.5240   28.7350   44.2310 H   0  0  0  0  0  0  0  0  0  0  0  0
   37.2120   26.9920   44.4100 H   0  0  0  0  0  0  0  0  0  0  0  0
   35.6650   28.3910   42.9220 H   0  0  0  0  0  0  0  0  0  0  0  0
   36.1930   26.8020   42.3980 H   0  0  0  0  0  0  0  0  0  0  0  0
   36.4650   29.2600   41.0160 H   0  0  0  0  0  0  0  0  0  0  0  0
   34.8930   29.2590   39.4500 Cl  0  0  0  0  0  0  0  0  0  0  0  0
   35.7740   27.7450   39.1680 C   0  0  0  0  0  0  0  0  0  0  0  0
   36.7780   27.4340   40.0980 C   0  0  0  0  0  0  0  0  0  0  0  0
   37.4000   26.2430   39.7920 C   0  0  0  0  0  0  0  0  0  0  0  0
   38.1790   25.8960   40.4270 H   0  0  0  0  0  0  0  0  0  0  0  0
   37.1020   25.4370   38.7200 C   0  0  0  0  0  3  0  0  0  0  0  0
   36.1000   25.8220   37.8580 C   0  0  0  0  0  0  0  0  0  0  0  0
   35.6280   24.8830   36.4620 Cl  0  0  0  0  0  0  0  0  0  0  0  0
   35.4090   26.9970   38.0680 C   0  0  0  0  0  0  0  0  0  0  0  0
   34.6130   27.3540   37.4290 H   0  0  0  0  0  0  0  0  0  0  0  0
   41.0010   32.8180   40.9020 O   0  0  0  0  0  0  0  0  0  0  0  0
   42.1170   32.4900   41.6570 C   0  0  0  0  0  0  0  0  0  0  0  0
   43.3050   32.6840   41.2820 O   0  0  0  0  0  0  0  0  0  0  0  0
   42.0780   31.9030   42.9400 N   0  0  0  0  0  0  0  0  0  0  0  0
   42.4270   32.2340   43.8630 H   0  0  0  0  0  0  0  0  0  0  0  0
   41.6880   30.9890   43.2790 H   0  0  0  0  0  0  0  0  0  0  0  0
  1 34  1  0  0  0  0
  1  6  1  0  0  0  0
  2  1  2  0  0  0  0
  3  2  1  0  0  0  0
  3  4  2  0  0  0  0
  4  5  1  0  0  0  0
  5  6  2  0  0  0  0
  5  7  1  0  0  0  0
  7  8  1  0  0  0  0
  8 15  1  0  0  0  0
  8  9  1  0  0  0  0
  9 10  1  0  0  0  0
  9 17  1  0  0  0  0
 10 19  1  0  0  0  0
 10 20  1  0  0  0  0
 11 21  1  0  0  0  0
 11 10  1  0  0  0  0
 12 23  1  6  0  0  0
 12  7  1  0  0  0  0
 12 11  1  0  0  0  0
 13  2  1  0  0  0  0
 14  3  1  0  0  0  0
 16  8  1  0  0  0  0
 18  9  1  0  0  0  0
 22 11  1  0  0  0  0
 25 24  1  0  0  0  0
 25 26  1  0  0  0  0
 26 12  1  0  0  0  0
 27 26  2  0  0  0  0
 27 28  1  0  0  0  0
 29 27  1  0  0  0  0
 30 32  1  0  0  0  0
 30 29  2  0  0  0  0
 31 30  1  0  0  0  0
 32 25  2  0  0  0  0
 33 32  1  0  0  0  0
 34 35  1  0  0  0  0
 35 37  1  0  0  0  0
 36 35  2  0  0  0  0
 37 39  1  0  0  0  0
 37 38  1  0  0  0  0
M  END
>  <minimizedAffinity>
-5.38489437

$$$$
