
     RDKit          3D

 47 49  0  0  0  0  0  0  0  0999 V2000
   45.3061   34.2786   43.7482 C   0  0  0  0  0  0  0  0  0  0  0  0
   46.4758   34.7631   43.1224 C   0  0  0  0  0  0  0  0  0  0  0  0
   47.6515   34.0702   43.2545 C   0  0  0  0  0  0  0  0  0  0  0  0
   47.5939   32.9571   43.9882 N   0  0  0  0  0  0  0  0  0  0  0  0
   46.5172   32.4928   44.5756 C   0  0  0  0  0  0  0  0  0  0  0  0
   45.3572   33.1599   44.4563 N   0  0  0  0  0  0  0  0  0  0  0  0
   48.9063   34.4889   42.6251 C   0  0  0  0  0  0  0  0  0  0  0  0
   48.7479   35.6676   41.7121 C   0  0  0  0  0  0  0  0  0  0  0  0
   48.5017   35.3023   40.3158 C   0  0  0  0  0  0  0  0  0  0  0  0
   48.2806   34.2492   39.5381 C   0  0  0  0  0  0  0  0  0  0  0  0
   48.1641   34.2644   38.0250 C   0  0  0  0  0  0  0  0  0  0  0  0
   46.4733   31.3427   45.3262 O   0  0  0  0  0  0  0  0  0  0  0  0
   45.4297   30.1794   47.2252 C   0  0  0  0  0  0  0  0  0  0  0  0
   46.0646   31.2276   46.6419 C   0  0  0  0  0  0  0  0  0  0  0  0
   46.3697   32.3372   47.4098 C   0  0  0  0  0  0  0  0  0  0  0  0
   46.0554   32.4219   48.7496 C   0  0  0  0  0  0  0  0  0  0  0  0
   45.4068   31.3483   49.3482 C   0  0  0  0  0  0  0  0  0  0  0  0
   45.1032   30.2402   48.5739 C   0  0  0  0  0  0  0  0  0  0  0  0
   45.0153   28.8479   46.1989 S   0  0  0  0  0  0  0  0  0  0  0  0
   43.5186   28.7754   45.9640 O   0  0  0  0  0  0  0  0  0  0  0  0
   45.3631   27.5805   46.9803 O   0  0  0  0  0  0  0  0  0  0  0  0
   44.3687   34.8149   43.6532 H   0  0  0  0  0  0  0  0  0  0  0  0
   46.3321   35.6738   42.5695 H   0  0  0  0  0  0  0  0  0  0  0  0
   49.6128   34.7562   43.4372 H   0  0  0  0  0  0  0  0  0  0  0  0
   49.3643   33.6734   42.0069 H   0  0  0  0  0  0  0  0  0  0  0  0
   49.7630   36.1830   41.7127 H   0  0  0  0  0  0  0  0  0  0  0  0
   48.0633   36.4348   42.0699 H   0  0  0  0  0  0  0  0  0  0  0  0
   48.4942   36.2152   39.6798 H   0  0  0  0  0  0  0  0  0  0  0  0
   48.2415   33.2542   39.9827 H   0  0  0  0  0  0  0  0  0  0  0  0
   47.0757   34.2254   37.8112 H   0  0  0  0  0  0  0  0  0  0  0  0
   48.6126   35.2202   37.6673 H   0  0  0  0  0  0  0  0  0  0  0  0
   48.7342   33.4231   37.6351 H   0  0  0  0  0  0  0  0  0  0  0  0
   46.8720   33.2135   47.0242 H   0  0  0  0  0  0  0  0  0  0  0  0
   46.2782   33.2716   49.3787 H   0  0  0  0  0  0  0  0  0  0  0  0
   45.1089   31.2903   50.3806 H   0  0  0  0  0  0  0  0  0  0  0  0
   44.5933   29.3482   48.9608 H   0  0  0  0  0  0  0  0  0  0  0  0
   48.2264   28.5014   46.0236 Cl  0  0  0  0  0  0  0  0  0  0  0  0
   47.2403   28.4933   44.5718 C   0  0  0  0  0  0  0  0  0  0  0  0
   45.8911   28.7392   44.7184 C   0  0  0  0  0  0  0  0  0  0  0  0
   45.2345   28.8112   43.4853 C   0  0  0  0  0  0  0  0  0  0  0  0
   44.1584   29.0053   43.4844 H   0  0  0  0  0  0  0  0  0  0  0  0
   45.8266   28.6577   42.2482 C   0  0  0  0  0  0  0  0  0  0  0  0
   47.1837   28.4119   42.2239 C   0  0  0  0  0  0  0  0  0  0  0  0
   47.9912   28.2060   40.6835 Cl  0  0  0  0  0  0  0  0  0  0  0  0
   47.9279   28.3232   43.3902 C   0  0  0  0  0  0  0  0  0  0  0  0
   48.9911   28.1305   43.3659 H   0  0  0  0  0  0  0  0  0  0  0  0
   45.2276   28.7320   41.3530 H   0  0  0  0  0  0  0  0  0  0  0  0
  1  6  2  0
  2  3  2  0
  2  1  1  0
  3  4  1  0
  4  5  2  0
  5 12  1  0
  6  5  1  0
  7  3  1  0
  8  7  1  0
  9  8  1  0
 10  9  2  0
 11 10  1  0
 12 14  1  0
 13 18  2  0
 14 13  1  0
 14 15  2  0
 15 16  1  0
 16 17  2  0
 18 17  1  0
 19 21  2  0
 19 13  1  0
 20 19  2  0
  1 22  1  0
  2 23  1  0
  7 24  1  0
  7 25  1  0
  8 26  1  0
  8 27  1  0
  9 28  1  0
 10 29  1  0
 11 30  1  0
 11 31  1  0
 11 32  1  0
 15 33  1  0
 16 34  1  0
 17 35  1  0
 18 36  1  0
 37 38  1  0
 38 39  2  0
 39 40  1  0
 40 41  1  0
 40 42  2  0
 42 43  1  0
 43 44  1  0
 43 45  2  0
 45 46  1  0
 45 38  1  0
 42 47  1  0
 19 39  1  0
M  ISO  8  22  14  23  14  24   8  25   8  26   8  27   8  30   8  31   8
M  ISO  7  32   8  33  14  34  14  35  14  36  14  41  16  46  15
M  END
>  <DihAtoms>  (1) 
20,18,38,37

>  <DihDeg>  (1) 
158.40462170425067

$$$$
