
 OpenBabel03252508193D

 48 52  0  0  1  0  0  0  0  0999 V2000
   36.2530   29.3350   40.5580 C   0  0  0  0  0  0  0  0  0  0  0  0
   36.3100   30.4310   40.8230 H   0  0  0  0  0  0  0  0  0  0  0  0
   35.9970   28.8240   41.4750 H   0  0  0  0  0  0  0  0  0  0  0  0
   37.5190   28.9370   39.8770 C   0  0  1  0  0  0  0  0  0  0  0  0
   38.4560   30.0500   39.5570 C   0  0  0  0  0  0  0  0  0  0  0  0
   38.8120   29.0720   40.5790 C   0  0  1  0  0  0  0  0  0  0  0  0
   37.3780   28.3030   38.9510 H   0  0  0  0  0  0  0  0  0  0  0  0
   39.0450   30.0830   38.6210 H   0  0  0  0  0  0  0  0  0  0  0  0
   38.1770   31.0750   39.8890 H   0  0  0  0  0  0  0  0  0  0  0  0
   39.5890   28.3280   40.3110 H   0  0  0  0  0  0  0  0  0  0  0  0
   38.7880   29.4150   42.0340 C   0  0  2  0  0  0  0  0  0  0  0  0
   40.1200   29.0750   42.7520 C   0  0  0  0  0  0  0  0  0  0  0  0
   38.9260   28.2780   43.0420 C   0  0  2  0  0  0  0  0  0  0  0  0
   38.4170   30.4050   42.3760 H   0  0  0  0  0  0  0  0  0  0  0  0
   40.5100   29.7360   43.5210 H   0  0  0  0  0  0  0  0  0  0  0  0
   40.9110   28.5620   42.1770 H   0  0  0  0  0  0  0  0  0  0  0  0
   38.4120   28.4880   44.0080 H   0  0  0  0  0  0  0  0  0  0  0  0
   36.1700   27.2310   43.4230 Cl  0  0  0  0  0  0  0  0  0  0  0  0
   37.4530   26.3440   42.5860 C   0  0  0  0  0  0  0  0  0  0  0  0
   38.7000   26.9350   42.4700 C   0  0  0  0  0  0  0  0  0  0  0  0
   39.6810   26.2170   41.8110 C   0  0  0  0  0  0  0  0  0  0  0  0
   40.6670   26.6400   41.6990 H   0  0  0  0  0  0  0  0  0  0  0  0
   39.4440   24.9580   41.2830 C   0  0  0  0  0  3  0  0  0  0  0  0
   38.1860   24.4080   41.4220 C   0  0  0  0  0  0  0  0  0  0  0  0
   37.8150   22.8070   40.7720 Cl  0  0  0  0  0  0  0  0  0  0  0  0
   37.1690   25.0770   42.0690 C   0  0  0  0  0  0  0  0  0  0  0  0
   36.1930   24.6230   42.1640 H   0  0  0  0  0  0  0  0  0  0  0  0
   35.2630   28.3340   38.6680 C   0  0  0  0  0  3  0  0  0  0  0  0
   35.0670   29.1110   39.6470 C   0  0  0  0  0  3  0  0  0  0  0  0
   32.9040   26.7800   36.2990 C   0  0  0  0  0  0  0  0  0  0  0  0
   32.0560   27.8270   35.9670 C   0  0  0  0  0  0  0  0  0  0  0  0
   32.3190   29.0310   36.5600 C   0  0  0  0  0  0  0  0  0  0  0  0
   33.3670   29.1480   37.4210 N   0  0  0  0  0  0  0  0  0  0  0  0
   34.1690   28.1070   37.7180 C   0  0  0  0  0  0  0  0  0  0  0  0
   33.9150   26.9430   37.1450 N   0  0  0  0  0  0  0  0  0  0  0  0
   32.7300   25.8020   35.8480 H   0  0  0  0  0  0  0  0  0  0  0  0
   31.2280   27.7360   35.2880 H   0  0  0  0  0  0  0  0  0  0  0  0
   31.5160   30.2180   36.3100 C   0  0  0  0  0  0  0  0  0  0  0  0
   31.4750   30.8880   35.1160 C   0  0  0  0  0  0  0  0  0  0  0  0
   30.7070   32.0160   34.8950 C   0  0  0  0  0  0  0  0  0  0  0  0
   29.9330   32.5170   35.9080 C   0  0  0  0  0  0  0  0  0  0  0  0
   29.9350   31.8880   37.1240 C   0  0  0  0  0  0  0  0  0  0  0  0
   30.7190   30.7630   37.2930 C   0  0  0  0  0  0  0  0  0  0  0  0
   32.0930   30.4960   34.2940 H   0  0  0  0  0  0  0  0  0  0  0  0
   30.7650   32.4570   33.8970 H   0  0  0  0  0  0  0  0  0  0  0  0
   29.3690   33.4080   35.6270 H   0  0  0  0  0  0  0  0  0  0  0  0
   29.3120   32.3130   37.8940 H   0  0  0  0  0  0  0  0  0  0  0  0
   30.6600   30.3310   38.2840 H   0  0  0  0  0  0  0  0  0  0  0  0
  1  2  1  0  0  0  0
  1  3  1  0  0  0  0
  4  7  1  6  0  0  0
  4  1  1  0  0  0  0
  4  6  1  0  0  0  0
  5  4  1  0  0  0  0
  5  9  1  0  0  0  0
  5  6  1  0  0  0  0
  6 10  1  6  0  0  0
  6 11  1  0  0  0  0
  8  5  1  0  0  0  0
 11 14  1  1  0  0  0
 11 12  1  0  0  0  0
 11 13  1  0  0  0  0
 12 13  1  0  0  0  0
 12 15  1  0  0  0  0
 13 17  1  1  0  0  0
 16 12  1  0  0  0  0
 19 18  1  0  0  0  0
 20 19  1  0  0  0  0
 20 13  1  0  0  0  0
 21 20  2  0  0  0  0
 22 21  1  0  0  0  0
 23 24  2  0  0  0  0
 23 21  1  0  0  0  0
 24 26  1  0  0  0  0
 25 24  1  0  0  0  0
 26 27  1  0  0  0  0
 26 19  2  0  0  0  0
 28 29  2  0  0  0  0
 29  1  1  0  0  0  0
 30 35  1  0  0  0  0
 31 30  2  0  0  0  0
 31 32  1  0  0  0  0
 32 33  2  0  0  0  0
 33 34  1  0  0  0  0
 34 28  1  0  0  0  0
 35 34  2  0  0  0  0
 36 30  1  0  0  0  0
 37 31  1  0  0  0  0
 38 32  1  0  0  0  0
 38 43  1  0  0  0  0
 39 38  2  0  0  0  0
 40 39  1  0  0  0  0
 40 41  2  0  0  0  0
 41 42  1  0  0  0  0
 42 43  2  0  0  0  0
 42 47  1  0  0  0  0
 43 48  1  0  0  0  0
 44 39  1  0  0  0  0
 45 40  1  0  0  0  0
 46 41  1  0  0  0  0
M  END
>  <minimizedAffinity>
-6.63826323

$$$$

 OpenBabel03252508193D

 48 52  0  0  1  0  0  0  0  0999 V2000
   37.1420   27.5440   39.2710 C   0  0  0  0  0  0  0  0  0  0  0  0
   36.4800   26.8820   39.9020 H   0  0  0  0  0  0  0  0  0  0  0  0
   37.7680   26.8750   38.6990 H   0  0  0  0  0  0  0  0  0  0  0  0
   37.8190   28.5350   40.1560 C   0  0  1  0  0  0  0  0  0  0  0  0
   36.9710   29.6690   40.6200 C   0  0  0  0  0  0  0  0  0  0  0  0
   37.4170   28.6590   41.5720 C   0  0  1  0  0  0  0  0  0  0  0  0
   38.7870   28.9500   39.7460 H   0  0  0  0  0  0  0  0  0  0  0  0
   37.3560   30.7020   40.7160 H   0  0  0  0  0  0  0  0  0  0  0  0
   35.8970   29.6700   40.3230 H   0  0  0  0  0  0  0  0  0  0  0  0
   38.2180   28.9560   42.2790 H   0  0  0  0  0  0  0  0  0  0  0  0
   36.4780   27.6360   42.1280 C   0  0  2  0  0  0  0  0  0  0  0  0
   36.4520   27.6260   43.6780 C   0  0  0  0  0  0  0  0  0  0  0  0
   37.0640   26.5040   42.9650 C   0  0  2  0  0  0  0  0  0  0  0  0
   35.4440   27.5430   41.7320 H   0  0  0  0  0  0  0  0  0  0  0  0
   35.5160   27.4650   44.2070 H   0  0  0  0  0  0  0  0  0  0  0  0
   37.1500   28.2880   44.2200 H   0  0  0  0  0  0  0  0  0  0  0  0
   36.4660   25.5660   42.9080 H   0  0  0  0  0  0  0  0  0  0  0  0
   37.8900   24.5020   40.9290 Cl  0  0  0  0  0  0  0  0  0  0  0  0
   39.0310   25.4390   41.9050 C   0  0  0  0  0  0  0  0  0  0  0  0
   38.5270   26.3440   42.8250 C   0  0  0  0  0  0  0  0  0  0  0  0
   39.4420   27.0610   43.5720 C   0  0  0  0  0  0  0  0  0  0  0  0
   39.0920   27.7770   44.3000 H   0  0  0  0  0  0  0  0  0  0  0  0
   40.8090   26.8940   43.4230 C   0  0  0  0  0  3  0  0  0  0  0  0
   41.2670   25.9810   42.4940 C   0  0  0  0  0  0  0  0  0  0  0  0
   42.9970   25.7180   42.2510 Cl  0  0  0  0  0  0  0  0  0  0  0  0
   40.4010   25.2380   41.7200 C   0  0  0  0  0  0  0  0  0  0  0  0
   40.7850   24.5300   41.0010 H   0  0  0  0  0  0  0  0  0  0  0  0
   35.1460   27.7440   38.0320 C   0  0  0  0  0  3  0  0  0  0  0  0
   36.2880   28.2490   38.2400 C   0  0  0  0  0  3  0  0  0  0  0  0
   33.7090   28.8490   34.8210 C   0  0  0  0  0  0  0  0  0  0  0  0
   32.5570   29.5190   35.2070 C   0  0  0  0  0  0  0  0  0  0  0  0
   32.3090   29.5760   36.5510 C   0  0  0  0  0  0  0  0  0  0  0  0
   33.1750   28.9930   37.4240 N   0  0  0  0  0  0  0  0  0  0  0  0
   34.2850   28.3500   37.0110 C   0  0  0  0  0  0  0  0  0  0  0  0
   34.5240   28.2960   35.7120 N   0  0  0  0  0  0  0  0  0  0  0  0
   33.9440   28.7810   33.7590 H   0  0  0  0  0  0  0  0  0  0  0  0
   31.8720   29.9800   34.5180 H   0  0  0  0  0  0  0  0  0  0  0  0
   31.1410   30.2430   37.1030 C   0  0  0  0  0  0  0  0  0  0  0  0
   30.4840   29.8420   38.2360 C   0  0  0  0  0  0  0  0  0  0  0  0
   29.3730   30.4870   38.7480 C   0  0  0  0  0  0  0  0  0  0  0  0
   28.8770   31.5920   38.1090 C   0  0  0  0  0  0  0  0  0  0  0  0
   29.4940   32.0390   36.9700 C   0  0  0  0  0  0  0  0  0  0  0  0
   30.6020   31.3590   36.5010 C   0  0  0  0  0  0  0  0  0  0  0  0
   30.8720   28.9550   38.7590 H   0  0  0  0  0  0  0  0  0  0  0  0
   28.9410   30.0650   39.6590 H   0  0  0  0  0  0  0  0  0  0  0  0
   28.0010   32.0220   38.5950 H   0  0  0  0  0  0  0  0  0  0  0  0
   29.0740   32.9110   36.4980 H   0  0  0  0  0  0  0  0  0  0  0  0
   31.0250   31.7800   35.5970 H   0  0  0  0  0  0  0  0  0  0  0  0
  1  2  1  0  0  0  0
  1  4  1  0  0  0  0
  3  1  1  0  0  0  0
  4  7  1  6  0  0  0
  4  5  1  0  0  0  0
  4  6  1  0  0  0  0
  5  8  1  0  0  0  0
  5  6  1  0  0  0  0
  6 11  1  0  0  0  0
  6 10  1  1  0  0  0
  9  5  1  0  0  0  0
 11 14  1  6  0  0  0
 11 13  1  0  0  0  0
 11 12  1  0  0  0  0
 12 15  1  0  0  0  0
 12 16  1  0  0  0  0
 13 17  1  1  0  0  0
 13 12  1  0  0  0  0
 18 19  1  0  0  0  0
 19 20  1  0  0  0  0
 20 13  1  0  0  0  0
 20 21  2  0  0  0  0
 21 22  1  0  0  0  0
 23 21  1  0  0  0  0
 24 23  2  0  0  0  0
 25 24  1  0  0  0  0
 26 19  2  0  0  0  0
 26 24  1  0  0  0  0
 27 26  1  0  0  0  0
 28 29  2  0  0  0  0
 29  1  1  0  0  0  0
 30 31  2  0  0  0  0
 30 35  1  0  0  0  0
 31 32  1  0  0  0  0
 32 38  1  0  0  0  0
 32 33  2  0  0  0  0
 34 33  1  0  0  0  0
 34 28  1  0  0  0  0
 35 34  2  0  0  0  0
 36 30  1  0  0  0  0
 37 31  1  0  0  0  0
 38 39  1  0  0  0  0
 39 40  2  0  0  0  0
 39 44  1  0  0  0  0
 40 45  1  0  0  0  0
 41 46  1  0  0  0  0
 41 40  1  0  0  0  0
 42 41  2  0  0  0  0
 43 42  1  0  0  0  0
 43 38  2  0  0  0  0
 47 42  1  0  0  0  0
 48 43  1  0  0  0  0
M  END
>  <minimizedAffinity>
-6.22668076

$$$$

 OpenBabel03252508193D

 48 52  0  0  1  0  0  0  0  0999 V2000
   38.2090   30.8610   38.5480 C   0  0  0  0  0  0  0  0  0  0  0  0
   38.6140   31.5110   37.7190 H   0  0  0  0  0  0  0  0  0  0  0  0
   37.9410   31.5370   39.3470 H   0  0  0  0  0  0  0  0  0  0  0  0
   39.2020   29.7910   38.8540 C   0  0  1  0  0  0  0  0  0  0  0  0
   40.6330   30.1990   38.7750 C   0  0  0  0  0  0  0  0  0  0  0  0
   40.0390   29.8840   40.0680 C   0  0  1  0  0  0  0  0  0  0  0  0
   39.0630   28.8360   38.2670 H   0  0  0  0  0  0  0  0  0  0  0  0
   41.4210   29.5340   38.3720 H   0  0  0  0  0  0  0  0  0  0  0  0
   40.8580   31.2650   38.5480 H   0  0  0  0  0  0  0  0  0  0  0  0
   40.3290   28.9190   40.5320 H   0  0  0  0  0  0  0  0  0  0  0  0
   39.7160   30.9520   41.0640 C   0  0  2  0  0  0  0  0  0  0  0  0
   40.5450   30.8250   42.3690 C   0  0  0  0  0  0  0  0  0  0  0  0
   39.1110   30.5290   42.3990 C   0  0  2  0  0  0  0  0  0  0  0  0
   39.6620   32.0170   40.7540 H   0  0  0  0  0  0  0  0  0  0  0  0
   40.9080   31.7160   42.8730 H   0  0  0  0  0  0  0  0  0  0  0  0
   41.2160   29.9560   42.4830 H   0  0  0  0  0  0  0  0  0  0  0  0
   38.4530   31.3100   42.8450 H   0  0  0  0  0  0  0  0  0  0  0  0
   36.2860   30.3040   41.5020 Cl  0  0  0  0  0  0  0  0  0  0  0  0
   37.2700   28.9230   42.0120 C   0  0  0  0  0  0  0  0  0  0  0  0
   38.5760   29.1520   42.4100 C   0  0  0  0  0  0  0  0  0  0  0  0
   39.3190   28.0540   42.8020 C   0  0  0  0  0  0  0  0  0  0  0  0
   40.3410   28.1870   43.1200 H   0  0  0  0  0  0  0  0  0  0  0  0
   38.7950   26.7720   42.8030 C   0  0  0  0  0  3  0  0  0  0  0  0
   37.4870   26.5900   42.3980 C   0  0  0  0  0  0  0  0  0  0  0  0
   36.7550   24.9820   42.3750 Cl  0  0  0  0  0  0  0  0  0  0  0  0
   36.6990   27.6480   41.9970 C   0  0  0  0  0  0  0  0  0  0  0  0
   35.6790   27.4780   41.6850 H   0  0  0  0  0  0  0  0  0  0  0  0
   36.8800   28.9940   37.9980 C   0  0  0  0  0  3  0  0  0  0  0  0
   36.8970   30.2550   38.1000 C   0  0  0  0  0  3  0  0  0  0  0  0
   34.3300   26.4880   37.0980 C   0  0  0  0  0  0  0  0  0  0  0  0
   33.2810   27.2630   36.6230 C   0  0  0  0  0  0  0  0  0  0  0  0
   33.4790   28.6160   36.6220 C   0  0  0  0  0  0  0  0  0  0  0  0
   34.6580   29.1280   37.0710 N   0  0  0  0  0  0  0  0  0  0  0  0
   35.6540   28.3430   37.5250 C   0  0  0  0  0  0  0  0  0  0  0  0
   35.4620   27.0350   37.5250 N   0  0  0  0  0  0  0  0  0  0  0  0
   34.2130   25.4040   37.1160 H   0  0  0  0  0  0  0  0  0  0  0  0
   32.3500   26.8600   36.2690 H   0  0  0  0  0  0  0  0  0  0  0  0
   32.4700   29.5540   36.1550 C   0  0  0  0  0  0  0  0  0  0  0  0
   31.4670   30.0640   36.9360 C   0  0  0  0  0  0  0  0  0  0  0  0
   30.5140   30.9550   36.4760 C   0  0  0  0  0  0  0  0  0  0  0  0
   30.5490   31.3690   35.1710 C   0  0  0  0  0  0  0  0  0  0  0  0
   31.5310   30.8910   34.3440 C   0  0  0  0  0  0  0  0  0  0  0  0
   32.4590   30.0040   34.8530 C   0  0  0  0  0  0  0  0  0  0  0  0
   31.4270   29.7390   37.9860 H   0  0  0  0  0  0  0  0  0  0  0  0
   29.7670   31.2850   37.2010 H   0  0  0  0  0  0  0  0  0  0  0  0
   29.7540   32.0700   34.9130 H   0  0  0  0  0  0  0  0  0  0  0  0
   31.5240   31.2420   33.3250 H   0  0  0  0  0  0  0  0  0  0  0  0
   33.1980   29.6780   34.1310 H   0  0  0  0  0  0  0  0  0  0  0  0
  1  4  1  0  0  0  0
  1  3  1  0  0  0  0
  2  1  1  0  0  0  0
  4  7  1  6  0  0  0
  4  6  1  0  0  0  0
  5  4  1  0  0  0  0
  5  6  1  0  0  0  0
  6 10  1  1  0  0  0
  6 11  1  0  0  0  0
  8  5  1  0  0  0  0
  9  5  1  0  0  0  0
 11 14  1  6  0  0  0
 11 12  1  0  0  0  0
 11 13  1  0  0  0  0
 12 13  1  0  0  0  0
 12 16  1  0  0  0  0
 12 15  1  0  0  0  0
 13 20  1  0  0  0  0
 13 17  1  1  0  0  0
 18 19  1  0  0  0  0
 19 20  1  0  0  0  0
 20 21  2  0  0  0  0
 21 23  1  0  0  0  0
 21 22  1  0  0  0  0
 24 23  2  0  0  0  0
 25 24  1  0  0  0  0
 26 19  2  0  0  0  0
 26 24  1  0  0  0  0
 27 26  1  0  0  0  0
 28 29  2  0  0  0  0
 29  1  1  0  0  0  0
 30 36  1  0  0  0  0
 30 35  1  0  0  0  0
 31 30  2  0  0  0  0
 32 31  1  0  0  0  0
 32 33  2  0  0  0  0
 33 34  1  0  0  0  0
 34 28  1  0  0  0  0
 35 34  2  0  0  0  0
 37 31  1  0  0  0  0
 38 32  1  0  0  0  0
 38 39  1  0  0  0  0
 39 44  1  0  0  0  0
 40 39  2  0  0  0  0
 40 45  1  0  0  0  0
 41 40  1  0  0  0  0
 42 43  1  0  0  0  0
 42 41  2  0  0  0  0
 43 38  2  0  0  0  0
 46 41  1  0  0  0  0
 47 42  1  0  0  0  0
 48 43  1  0  0  0  0
M  END
>  <minimizedAffinity>
-6.05386066

$$$$

 OpenBabel03252508193D

 48 52  0  0  1  0  0  0  0  0999 V2000
   36.1380   29.2890   39.6200 C   0  0  0  0  0  0  0  0  0  0  0  0
   36.2230   30.3710   39.3120 H   0  0  0  0  0  0  0  0  0  0  0  0
   35.7120   29.2990   40.6130 H   0  0  0  0  0  0  0  0  0  0  0  0
   37.4640   28.6300   39.4450 C   0  0  1  0  0  0  0  0  0  0  0  0
   38.6510   29.4830   39.7340 C   0  0  0  0  0  0  0  0  0  0  0  0
   38.3230   28.3720   40.6190 C   0  0  1  0  0  0  0  0  0  0  0  0
   37.6130   28.1270   38.4440 H   0  0  0  0  0  0  0  0  0  0  0  0
   39.5800   29.4340   39.1360 H   0  0  0  0  0  0  0  0  0  0  0  0
   38.4690   30.5170   40.1040 H   0  0  0  0  0  0  0  0  0  0  0  0
   38.9710   27.4740   40.5570 H   0  0  0  0  0  0  0  0  0  0  0  0
   37.7410   28.5970   41.9780 C   0  0  2  0  0  0  0  0  0  0  0  0
   38.7360   28.2610   43.1190 C   0  0  0  0  0  0  0  0  0  0  0  0
   37.5790   27.3910   42.8980 C   0  0  2  0  0  0  0  0  0  0  0  0
   37.2010   29.5390   42.2140 H   0  0  0  0  0  0  0  0  0  0  0  0
   38.7670   28.8760   44.0140 H   0  0  0  0  0  0  0  0  0  0  0  0
   39.7170   27.8310   42.8520 H   0  0  0  0  0  0  0  0  0  0  0  0
   36.7330   27.5000   43.6140 H   0  0  0  0  0  0  0  0  0  0  0  0
   39.9410   25.7630   43.6770 Cl  0  0  0  0  0  0  0  0  0  0  0  0
   38.7350   25.2420   42.4910 C   0  0  0  0  0  0  0  0  0  0  0  0
   37.6760   26.0880   42.2080 C   0  0  0  0  0  0  0  0  0  0  0  0
   36.7510   25.6540   41.2770 C   0  0  0  0  0  0  0  0  0  0  0  0
   35.9100   26.2810   41.0270 H   0  0  0  0  0  0  0  0  0  0  0  0
   36.8630   24.4270   40.6430 C   0  0  0  0  0  3  0  0  0  0  0  0
   37.9350   23.6150   40.9560 C   0  0  0  0  0  0  0  0  0  0  0  0
   38.1400   22.0380   40.1860 Cl  0  0  0  0  0  0  0  0  0  0  0  0
   38.8890   23.9960   41.8770 C   0  0  0  0  0  0  0  0  0  0  0  0
   39.7180   23.3420   42.1030 H   0  0  0  0  0  0  0  0  0  0  0  0
   34.7520   29.2420   37.7140 C   0  0  0  0  0  3  0  0  0  0  0  0
   35.0920   28.6150   38.7590 C   0  0  0  0  0  3  0  0  0  0  0  0
   32.4560   26.9030   36.0260 C   0  0  0  0  0  0  0  0  0  0  0  0
   31.7030   27.7350   35.2100 C   0  0  0  0  0  0  0  0  0  0  0  0
   32.0050   29.0680   35.2590 C   0  0  0  0  0  0  0  0  0  0  0  0
   33.0000   29.5070   36.0790 N   0  0  0  0  0  0  0  0  0  0  0  0
   33.7100   28.6680   36.8570 C   0  0  0  0  0  0  0  0  0  0  0  0
   33.4170   27.3790   36.8090 N   0  0  0  0  0  0  0  0  0  0  0  0
   32.2470   25.8320   36.0170 H   0  0  0  0  0  0  0  0  0  0  0  0
   30.9170   27.3900   34.5630 H   0  0  0  0  0  0  0  0  0  0  0  0
   31.3010   30.0600   34.4620 C   0  0  0  0  0  0  0  0  0  0  0  0
   30.5820   29.7760   33.3320 C   0  0  0  0  0  0  0  0  0  0  0  0
   29.9190   30.7320   32.5840 C   0  0  0  0  0  0  0  0  0  0  0  0
   29.9650   32.0450   32.9690 C   0  0  0  0  0  0  0  0  0  0  0  0
   30.6700   32.3880   34.0930 C   0  0  0  0  0  0  0  0  0  0  0  0
   31.3140   31.3950   34.8050 C   0  0  0  0  0  0  0  0  0  0  0  0
   30.5360   28.7240   33.0110 H   0  0  0  0  0  0  0  0  0  0  0  0
   29.3810   30.3740   31.7030 H   0  0  0  0  0  0  0  0  0  0  0  0
   29.4100   32.7140   32.3110 H   0  0  0  0  0  0  0  0  0  0  0  0
   30.6820   33.4310   34.3620 H   0  0  0  0  0  0  0  0  0  0  0  0
   31.8470   31.7540   35.6770 H   0  0  0  0  0  0  0  0  0  0  0  0
  1  3  1  0  0  0  0
  2  1  1  0  0  0  0
  4  7  1  6  0  0  0
  4  1  1  0  0  0  0
  4  5  1  0  0  0  0
  4  6  1  0  0  0  0
  5  9  1  0  0  0  0
  5  6  1  0  0  0  0
  6 10  1  6  0  0  0
  6 11  1  0  0  0  0
  8  5  1  0  0  0  0
 11 14  1  1  0  0  0
 11 13  1  0  0  0  0
 11 12  1  0  0  0  0
 12 15  1  0  0  0  0
 13 12  1  0  0  0  0
 13 17  1  1  0  0  0
 16 12  1  0  0  0  0
 19 18  1  0  0  0  0
 20 19  1  0  0  0  0
 20 13  1  0  0  0  0
 21 20  2  0  0  0  0
 22 21  1  0  0  0  0
 23 24  2  0  0  0  0
 23 21  1  0  0  0  0
 24 26  1  0  0  0  0
 25 24  1  0  0  0  0
 26 27  1  0  0  0  0
 26 19  2  0  0  0  0
 28 29  2  0  0  0  0
 29  1  1  0  0  0  0
 30 35  1  0  0  0  0
 31 32  1  0  0  0  0
 31 30  2  0  0  0  0
 32 33  2  0  0  0  0
 33 34  1  0  0  0  0
 34 28  1  0  0  0  0
 35 34  2  0  0  0  0
 36 30  1  0  0  0  0
 37 31  1  0  0  0  0
 38 43  1  0  0  0  0
 38 32  1  0  0  0  0
 39 38  2  0  0  0  0
 40 41  2  0  0  0  0
 40 39  1  0  0  0  0
 41 42  1  0  0  0  0
 42 47  1  0  0  0  0
 42 43  2  0  0  0  0
 43 48  1  0  0  0  0
 44 39  1  0  0  0  0
 45 40  1  0  0  0  0
 46 41  1  0  0  0  0
M  END
>  <minimizedAffinity>
-6.0237813

$$$$

 OpenBabel03252508193D

 48 52  0  0  1  0  0  0  0  0999 V2000
   36.7100   27.1390   39.7860 C   0  0  0  0  0  0  0  0  0  0  0  0
   36.1860   26.1500   39.9290 H   0  0  0  0  0  0  0  0  0  0  0  0
   37.6650   26.9040   39.3410 H   0  0  0  0  0  0  0  0  0  0  0  0
   36.7140   27.8760   41.0830 C   0  0  1  0  0  0  0  0  0  0  0  0
   36.9940   27.0510   42.2910 C   0  0  0  0  0  0  0  0  0  0  0  0
   37.9730   28.0320   41.8400 C   0  0  1  0  0  0  0  0  0  0  0  0
   35.7930   28.5020   41.2740 H   0  0  0  0  0  0  0  0  0  0  0  0
   36.4790   27.2150   43.2570 H   0  0  0  0  0  0  0  0  0  0  0  0
   37.2260   25.9730   42.1420 H   0  0  0  0  0  0  0  0  0  0  0  0
   38.0660   28.9600   42.4400 H   0  0  0  0  0  0  0  0  0  0  0  0
   39.2480   27.6190   41.1760 C   0  0  2  0  0  0  0  0  0  0  0  0
   40.5020   28.2360   41.8500 C   0  0  0  0  0  0  0  0  0  0  0  0
   40.0990   28.7010   40.5200 C   0  0  2  0  0  0  0  0  0  0  0  0
   39.4390   26.5520   40.9320 H   0  0  0  0  0  0  0  0  0  0  0  0
   41.4120   27.6520   41.9480 H   0  0  0  0  0  0  0  0  0  0  0  0
   40.3550   28.9570   42.6730 H   0  0  0  0  0  0  0  0  0  0  0  0
   40.6970   28.3230   39.6600 H   0  0  0  0  0  0  0  0  0  0  0  0
   39.0890   29.0750   37.7490 Cl  0  0  0  0  0  0  0  0  0  0  0  0
   38.8710   30.2620   39.0450 C   0  0  0  0  0  0  0  0  0  0  0  0
   39.3870   29.9760   40.2980 C   0  0  0  0  0  0  0  0  0  0  0  0
   39.2010   30.9220   41.2880 C   0  0  0  0  0  0  0  0  0  0  0  0
   39.5870   30.7410   42.2790 H   0  0  0  0  0  0  0  0  0  0  0  0
   38.5290   32.1110   41.0550 C   0  0  0  0  0  3  0  0  0  0  0  0
   38.0300   32.3540   39.7900 C   0  0  0  0  0  0  0  0  0  0  0  0
   37.1630   33.8490   39.4230 Cl  0  0  0  0  0  0  0  0  0  0  0  0
   38.1870   31.4470   38.7630 C   0  0  0  0  0  0  0  0  0  0  0  0
   37.7870   31.6610   37.7830 H   0  0  0  0  0  0  0  0  0  0  0  0
   35.0470   27.3210   38.1240 C   0  0  0  0  0  3  0  0  0  0  0  0
   35.9760   27.9330   38.7270 C   0  0  0  0  0  3  0  0  0  0  0  0
   33.9690   28.5940   34.8360 C   0  0  0  0  0  0  0  0  0  0  0  0
   32.8550   29.3610   35.1470 C   0  0  0  0  0  0  0  0  0  0  0  0
   32.5090   29.4220   36.4680 C   0  0  0  0  0  0  0  0  0  0  0  0
   33.2480   28.7510   37.3930 N   0  0  0  0  0  0  0  0  0  0  0  0
   34.3250   28.0160   37.0540 C   0  0  0  0  0  0  0  0  0  0  0  0
   34.6590   27.9570   35.7760 N   0  0  0  0  0  0  0  0  0  0  0  0
   34.2790   28.5190   33.7940 H   0  0  0  0  0  0  0  0  0  0  0  0
   32.2690   29.8910   34.4170 H   0  0  0  0  0  0  0  0  0  0  0  0
   31.3650   30.1840   36.9440 C   0  0  0  0  0  0  0  0  0  0  0  0
   30.6860   29.9190   38.1030 C   0  0  0  0  0  0  0  0  0  0  0  0
   29.5990   30.6540   38.5400 C   0  0  0  0  0  0  0  0  0  0  0  0
   29.1520   31.7120   37.7940 C   0  0  0  0  0  0  0  0  0  0  0  0
   29.7930   32.0230   36.6240 C   0  0  0  0  0  0  0  0  0  0  0  0
   30.8750   31.2580   36.2320 C   0  0  0  0  0  0  0  0  0  0  0  0
   31.0340   29.0710   38.7120 H   0  0  0  0  0  0  0  0  0  0  0  0
   29.1450   30.3380   39.4830 H   0  0  0  0  0  0  0  0  0  0  0  0
   28.2910   32.2210   38.2290 H   0  0  0  0  0  0  0  0  0  0  0  0
   29.4120   32.8620   36.0670 H   0  0  0  0  0  0  0  0  0  0  0  0
   31.3210   31.5740   35.2980 H   0  0  0  0  0  0  0  0  0  0  0  0
  1  2  1  0  0  0  0
  1  4  1  0  0  0  0
  3  1  1  0  0  0  0
  4  7  1  1  0  0  0
  4  6  1  0  0  0  0
  4  5  1  0  0  0  0
  5  8  1  0  0  0  0
  6  5  1  0  0  0  0
  6 10  1  1  0  0  0
  9  5  1  0  0  0  0
 11 14  1  6  0  0  0
 11  6  1  0  0  0  0
 11 12  1  0  0  0  0
 12 15  1  0  0  0  0
 12 16  1  0  0  0  0
 13 17  1  6  0  0  0
 13 11  1  0  0  0  0
 13 12  1  0  0  0  0
 18 19  1  0  0  0  0
 19 20  1  0  0  0  0
 20 13  1  0  0  0  0
 20 21  2  0  0  0  0
 21 22  1  0  0  0  0
 23 21  1  0  0  0  0
 24 23  2  0  0  0  0
 25 24  1  0  0  0  0
 26 19  2  0  0  0  0
 26 24  1  0  0  0  0
 27 26  1  0  0  0  0
 28 29  2  0  0  0  0
 29  1  1  0  0  0  0
 30 31  2  0  0  0  0
 30 35  1  0  0  0  0
 31 32  1  0  0  0  0
 32 38  1  0  0  0  0
 32 33  2  0  0  0  0
 34 33  1  0  0  0  0
 34 28  1  0  0  0  0
 35 34  2  0  0  0  0
 36 30  1  0  0  0  0
 37 31  1  0  0  0  0
 38 39  1  0  0  0  0
 39 40  2  0  0  0  0
 39 44  1  0  0  0  0
 40 45  1  0  0  0  0
 41 46  1  0  0  0  0
 41 40  1  0  0  0  0
 42 41  2  0  0  0  0
 43 42  1  0  0  0  0
 43 38  2  0  0  0  0
 47 42  1  0  0  0  0
 48 43  1  0  0  0  0
M  END
>  <minimizedAffinity>
-5.88048744

$$$$

 OpenBabel03252508193D

 48 52  0  0  1  0  0  0  0  0999 V2000
   36.3970   29.7760   36.9360 C   0  0  0  0  0  0  0  0  0  0  0  0
   35.8320   30.1240   36.0230 H   0  0  0  0  0  0  0  0  0  0  0  0
   37.0480   28.9840   36.5940 H   0  0  0  0  0  0  0  0  0  0  0  0
   35.4210   29.4500   38.0150 C   0  0  1  0  0  0  0  0  0  0  0  0
   34.1340   28.8520   37.5610 C   0  0  0  0  0  0  0  0  0  0  0  0
   35.0870   28.0410   38.3090 C   0  0  1  0  0  0  0  0  0  0  0  0
   35.1970   30.3020   38.7220 H   0  0  0  0  0  0  0  0  0  0  0  0
   33.1630   29.1030   38.0270 H   0  0  0  0  0  0  0  0  0  0  0  0
   34.0120   28.6470   36.4730 H   0  0  0  0  0  0  0  0  0  0  0  0
   34.8310   27.8140   39.3640 H   0  0  0  0  0  0  0  0  0  0  0  0
   35.8980   26.9730   37.6470 C   0  0  2  0  0  0  0  0  0  0  0  0
   35.8000   25.6080   38.3760 C   0  0  0  0  0  0  0  0  0  0  0  0
   37.0550   26.3620   38.4300 C   0  0  2  0  0  0  0  0  0  0  0  0
   35.8410   26.8190   36.5480 H   0  0  0  0  0  0  0  0  0  0  0  0
   35.7670   24.6850   37.8030 H   0  0  0  0  0  0  0  0  0  0  0  0
   35.2320   25.5560   39.3210 H   0  0  0  0  0  0  0  0  0  0  0  0
   37.8800   25.9990   37.7750 H   0  0  0  0  0  0  0  0  0  0  0  0
   39.4570   28.0580   37.9940 Cl  0  0  0  0  0  0  0  0  0  0  0  0
   38.5740   27.9770   39.5260 C   0  0  0  0  0  0  0  0  0  0  0  0
   37.4680   27.1490   39.6100 C   0  0  0  0  0  0  0  0  0  0  0  0
   36.7990   27.1080   40.8190 C   0  0  0  0  0  0  0  0  0  0  0  0
   35.9320   26.4760   40.9280 H   0  0  0  0  0  0  0  0  0  0  0  0
   37.2060   27.8560   41.9120 C   0  0  0  0  0  3  0  0  0  0  0  0
   38.3150   28.6680   41.7830 C   0  0  0  0  0  0  0  0  0  0  0  0
   38.8880   29.6500   43.1360 Cl  0  0  0  0  0  0  0  0  0  0  0  0
   39.0210   28.7500   40.6020 C   0  0  0  0  0  0  0  0  0  0  0  0
   39.8850   29.3930   40.5280 H   0  0  0  0  0  0  0  0  0  0  0  0
   37.2290   31.2330   38.5920 C   0  0  0  0  0  3  0  0  0  0  0  0
   37.3330   30.8770   37.3820 C   0  0  0  0  0  3  0  0  0  0  0  0
   38.4470   34.2720   40.2870 C   0  0  0  0  0  0  0  0  0  0  0  0
   39.7900   34.3080   39.9400 C   0  0  0  0  0  0  0  0  0  0  0  0
   40.2360   33.2970   39.1350 C   0  0  0  0  0  0  0  0  0  0  0  0
   39.3730   32.3290   38.7220 N   0  0  0  0  0  0  0  0  0  0  0  0
   38.0740   32.3270   39.0800 C   0  0  0  0  0  0  0  0  0  0  0  0
   37.6430   33.3050   39.8580 N   0  0  0  0  0  0  0  0  0  0  0  0
   38.0500   35.0600   40.9280 H   0  0  0  0  0  0  0  0  0  0  0  0
   40.4730   35.0720   40.2660 H   0  0  0  0  0  0  0  0  0  0  0  0
   41.6180   33.2020   38.6900 C   0  0  0  0  0  0  0  0  0  0  0  0
   42.0550   32.3720   37.6930 C   0  0  0  0  0  0  0  0  0  0  0  0
   43.3730   32.2930   37.2820 C   0  0  0  0  0  0  0  0  0  0  0  0
   44.3190   33.0770   37.8880 C   0  0  0  0  0  0  0  0  0  0  0  0
   43.9390   33.9270   38.8920 C   0  0  0  0  0  0  0  0  0  0  0  0
   42.6090   33.9690   39.2640 C   0  0  0  0  0  0  0  0  0  0  0  0
   41.3050   31.7360   37.1980 H   0  0  0  0  0  0  0  0  0  0  0  0
   43.5900   31.5890   36.4750 H   0  0  0  0  0  0  0  0  0  0  0  0
   45.3240   32.9360   37.4880 H   0  0  0  0  0  0  0  0  0  0  0  0
   44.7120   34.5270   39.3420 H   0  0  0  0  0  0  0  0  0  0  0  0
   42.3980   34.6670   40.0650 H   0  0  0  0  0  0  0  0  0  0  0  0
  1 29  1  0  0  0  0
  1  4  1  0  0  0  0
  2  1  1  0  0  0  0
  3  1  1  0  0  0  0
  4  6  1  0  0  0  0
  4  7  1  1  0  0  0
  5  4  1  0  0  0  0
  5  8  1  0  0  0  0
  5  6  1  0  0  0  0
  6 10  1  1  0  0  0
  9  5  1  0  0  0  0
 11 14  1  6  0  0  0
 11  6  1  0  0  0  0
 11 12  1  0  0  0  0
 11 13  1  0  0  0  0
 12 13  1  0  0  0  0
 12 16  1  0  0  0  0
 13 17  1  6  0  0  0
 13 20  1  0  0  0  0
 15 12  1  0  0  0  0
 18 19  1  0  0  0  0
 19 20  2  0  0  0  0
 19 26  1  0  0  0  0
 20 21  1  0  0  0  0
 21 22  1  0  0  0  0
 21 23  2  0  0  0  0
 24 23  1  0  0  0  0
 24 25  1  0  0  0  0
 26 24  2  0  0  0  0
 27 26  1  0  0  0  0
 28 34  1  0  0  0  0
 29 28  2  0  0  0  0
 30 36  1  0  0  0  0
 31 37  1  0  0  0  0
 31 30  1  0  0  0  0
 32 31  2  0  0  0  0
 33 34  2  0  0  0  0
 33 32  1  0  0  0  0
 34 35  1  0  0  0  0
 35 30  2  0  0  0  0
 38 32  1  0  0  0  0
 38 43  1  0  0  0  0
 39 38  2  0  0  0  0
 40 39  1  0  0  0  0
 40 41  2  0  0  0  0
 41 42  1  0  0  0  0
 42 43  2  0  0  0  0
 42 47  1  0  0  0  0
 43 48  1  0  0  0  0
 44 39  1  0  0  0  0
 45 40  1  0  0  0  0
 46 41  1  0  0  0  0
M  END
>  <minimizedAffinity>
-5.84843493

$$$$

 OpenBabel03252508193D

 48 52  0  0  1  0  0  0  0  0999 V2000
   41.1590   28.4270   43.1900 C   0  0  0  0  0  0  0  0  0  0  0  0
   41.9610   29.1570   43.5040 H   0  0  0  0  0  0  0  0  0  0  0  0
   40.6930   28.0910   44.1040 H   0  0  0  0  0  0  0  0  0  0  0  0
   41.7660   27.3930   42.3030 C   0  0  1  0  0  0  0  0  0  0  0  0
   42.6610   26.4120   42.9780 C   0  0  0  0  0  0  0  0  0  0  0  0
   41.3760   25.9750   42.4460 C   0  0  1  0  0  0  0  0  0  0  0  0
   42.2960   27.8030   41.3930 H   0  0  0  0  0  0  0  0  0  0  0  0
   43.5900   26.0320   42.5110 H   0  0  0  0  0  0  0  0  0  0  0  0
   42.7720   26.4840   44.0840 H   0  0  0  0  0  0  0  0  0  0  0  0
   41.3970   25.3710   41.5160 H   0  0  0  0  0  0  0  0  0  0  0  0
   40.2250   25.6510   43.3440 C   0  0  2  0  0  0  0  0  0  0  0  0
   39.7420   24.1840   43.1930 C   0  0  0  0  0  0  0  0  0  0  0  0
   38.8960   25.2730   42.6990 C   0  0  2  0  0  0  0  0  0  0  0  0
   40.2490   25.9310   44.4190 H   0  0  0  0  0  0  0  0  0  0  0  0
   39.4200   23.6230   44.0660 H   0  0  0  0  0  0  0  0  0  0  0  0
   40.2110   23.5530   42.4180 H   0  0  0  0  0  0  0  0  0  0  0  0
   38.0150   25.5410   43.3270 H   0  0  0  0  0  0  0  0  0  0  0  0
   36.9820   27.4690   42.1060 Cl  0  0  0  0  0  0  0  0  0  0  0  0
   37.9380   26.6370   40.8700 C   0  0  0  0  0  0  0  0  0  0  0  0
   38.7980   25.6260   41.2680 C   0  0  0  0  0  0  0  0  0  0  0  0
   39.5300   24.9950   40.2800 C   0  0  0  0  0  0  0  0  0  0  0  0
   40.2110   24.2020   40.5450 H   0  0  0  0  0  0  0  0  0  0  0  0
   39.4210   25.3450   38.9440 C   0  0  0  0  0  3  0  0  0  0  0  0
   38.5510   26.3580   38.5930 C   0  0  0  0  0  0  0  0  0  0  0  0
   38.3620   26.8560   36.9080 Cl  0  0  0  0  0  0  0  0  0  0  0  0
   37.7950   27.0230   39.5350 C   0  0  0  0  0  0  0  0  0  0  0  0
   37.1220   27.8120   39.2340 H   0  0  0  0  0  0  0  0  0  0  0  0
   40.3960   30.3160   42.0030 C   0  0  0  0  0  3  0  0  0  0  0  0
   40.0700   29.1810   42.4580 C   0  0  0  0  0  3  0  0  0  0  0  0
   38.4530   33.1310   40.6250 C   0  0  0  0  0  0  0  0  0  0  0  0
   37.3990   32.4990   39.9810 C   0  0  0  0  0  0  0  0  0  0  0  0
   37.3820   31.1330   40.0400 C   0  0  0  0  0  0  0  0  0  0  0  0
   38.3680   30.4720   40.7070 N   0  0  0  0  0  0  0  0  0  0  0  0
   39.3760   31.1200   41.3220 C   0  0  0  0  0  0  0  0  0  0  0  0
   39.3920   32.4410   41.2640 N   0  0  0  0  0  0  0  0  0  0  0  0
   38.5040   34.2190   40.6030 H   0  0  0  0  0  0  0  0  0  0  0  0
   36.6200   33.0190   39.4530 H   0  0  0  0  0  0  0  0  0  0  0  0
   36.3420   30.3340   39.4110 C   0  0  0  0  0  0  0  0  0  0  0  0
   35.2780   29.7870   40.0770 C   0  0  0  0  0  0  0  0  0  0  0  0
   34.2970   29.0290   39.4640 C   0  0  0  0  0  0  0  0  0  0  0  0
   34.3650   28.7940   38.1170 C   0  0  0  0  0  0  0  0  0  0  0  0
   35.4090   29.3170   37.4000 C   0  0  0  0  0  0  0  0  0  0  0  0
   36.3620   30.0680   38.0590 C   0  0  0  0  0  0  0  0  0  0  0  0
   35.2100   29.9680   41.1610 H   0  0  0  0  0  0  0  0  0  0  0  0
   33.5010   28.6500   40.1100 H   0  0  0  0  0  0  0  0  0  0  0  0
   33.5430   28.1860   37.7370 H   0  0  0  0  0  0  0  0  0  0  0  0
   35.4260   29.1090   36.3430 H   0  0  0  0  0  0  0  0  0  0  0  0
   37.1500   30.4410   37.4170 H   0  0  0  0  0  0  0  0  0  0  0  0
  1  2  1  0  0  0  0
  1  3  1  0  0  0  0
  4  7  1  6  0  0  0
  4  6  1  0  0  0  0
  4  5  1  0  0  0  0
  4  1  1  0  0  0  0
  5  9  1  0  0  0  0
  6 10  1  6  0  0  0
  6  5  1  0  0  0  0
  6 11  1  0  0  0  0
  8  5  1  0  0  0  0
 11 14  1  1  0  0  0
 12 11  1  0  0  0  0
 12 15  1  0  0  0  0
 13 12  1  0  0  0  0
 13 17  1  1  0  0  0
 13 11  1  0  0  0  0
 16 12  1  0  0  0  0
 19 20  1  0  0  0  0
 19 18  1  0  0  0  0
 20 13  1  0  0  0  0
 21 22  1  0  0  0  0
 21 20  2  0  0  0  0
 23 21  1  0  0  0  0
 24 23  2  0  0  0  0
 24 26  1  0  0  0  0
 25 24  1  0  0  0  0
 26 19  2  0  0  0  0
 27 26  1  0  0  0  0
 28 29  2  0  0  0  0
 29  1  1  0  0  0  0
 30 35  1  0  0  0  0
 31 32  1  0  0  0  0
 31 30  2  0  0  0  0
 32 33  2  0  0  0  0
 33 34  1  0  0  0  0
 34 28  1  0  0  0  0
 35 34  2  0  0  0  0
 36 30  1  0  0  0  0
 37 31  1  0  0  0  0
 38 32  1  0  0  0  0
 38 39  1  0  0  0  0
 39 44  1  0  0  0  0
 40 39  2  0  0  0  0
 40 45  1  0  0  0  0
 41 40  1  0  0  0  0
 42 43  1  0  0  0  0
 42 41  2  0  0  0  0
 43 38  2  0  0  0  0
 46 41  1  0  0  0  0
 47 42  1  0  0  0  0
 48 43  1  0  0  0  0
M  END
>  <minimizedAffinity>
-5.80627918

$$$$

 OpenBabel03252508193D

 48 52  0  0  1  0  0  0  0  0999 V2000
   38.0780   27.9860   43.5390 C   0  0  0  0  0  0  0  0  0  0  0  0
   38.3780   28.3660   44.5590 H   0  0  0  0  0  0  0  0  0  0  0  0
   37.1260   27.4960   43.6750 H   0  0  0  0  0  0  0  0  0  0  0  0
   39.1970   27.1760   42.9770 C   0  0  1  0  0  0  0  0  0  0  0  0
   39.4790   25.8920   43.6800 C   0  0  0  0  0  0  0  0  0  0  0  0
   38.9190   25.8750   42.3340 C   0  0  1  0  0  0  0  0  0  0  0  0
   40.1690   27.7380   42.8450 H   0  0  0  0  0  0  0  0  0  0  0  0
   40.5060   25.5110   43.8360 H   0  0  0  0  0  0  0  0  0  0  0  0
   38.8160   25.6070   44.5270 H   0  0  0  0  0  0  0  0  0  0  0  0
   39.6020   25.5860   41.5100 H   0  0  0  0  0  0  0  0  0  0  0  0
   37.4910   25.5070   42.0840 C   0  0  2  0  0  0  0  0  0  0  0  0
   37.3440   24.2550   41.1800 C   0  0  0  0  0  0  0  0  0  0  0  0
   36.9740   25.5700   40.6510 C   0  0  2  0  0  0  0  0  0  0  0  0
   36.7650   25.4530   42.9240 H   0  0  0  0  0  0  0  0  0  0  0  0
   36.5610   23.5290   41.3770 H   0  0  0  0  0  0  0  0  0  0  0  0
   38.2570   23.8060   40.7510 H   0  0  0  0  0  0  0  0  0  0  0  0
   35.8840   25.7910   40.5900 H   0  0  0  0  0  0  0  0  0  0  0  0
   35.8750   28.2150   39.8530 Cl  0  0  0  0  0  0  0  0  0  0  0  0
   37.4310   27.5850   39.2900 C   0  0  0  0  0  0  0  0  0  0  0  0
   37.8390   26.3370   39.7300 C   0  0  0  0  0  0  0  0  0  0  0  0
   39.0580   25.8730   39.2730 C   0  0  0  0  0  0  0  0  0  0  0  0
   39.4140   24.9050   39.5910 H   0  0  0  0  0  0  0  0  0  0  0  0
   39.8520   26.6110   38.4100 C   0  0  0  0  0  3  0  0  0  0  0  0
   39.4060   27.8510   37.9980 C   0  0  0  0  0  0  0  0  0  0  0  0
   40.3670   28.8460   36.8980 Cl  0  0  0  0  0  0  0  0  0  0  0  0
   38.1980   28.3650   38.4210 C   0  0  0  0  0  0  0  0  0  0  0  0
   37.8730   29.3370   38.0820 H   0  0  0  0  0  0  0  0  0  0  0  0
   38.7560   29.6170   41.9770 C   0  0  0  0  0  3  0  0  0  0  0  0
   37.7780   29.1680   42.6440 C   0  0  0  0  0  3  0  0  0  0  0  0
   37.2200   32.4010   40.1110 C   0  0  0  0  0  0  0  0  0  0  0  0
   38.3100   33.0170   39.5130 C   0  0  0  0  0  0  0  0  0  0  0  0
   39.5340   32.4610   39.7620 C   0  0  0  0  0  0  0  0  0  0  0  0
   39.6280   31.3610   40.5590 N   0  0  0  0  0  0  0  0  0  0  0  0
   38.5470   30.7900   41.1230 C   0  0  0  0  0  0  0  0  0  0  0  0
   37.3630   31.3290   40.8830 N   0  0  0  0  0  0  0  0  0  0  0  0
   36.2260   32.8130   39.9390 H   0  0  0  0  0  0  0  0  0  0  0  0
   38.2370   33.8860   38.8830 H   0  0  0  0  0  0  0  0  0  0  0  0
   40.7660   32.9970   39.2040 C   0  0  0  0  0  0  0  0  0  0  0  0
   41.7570   33.5860   39.9430 C   0  0  0  0  0  0  0  0  0  0  0  0
   42.9220   34.0930   39.3960 C   0  0  0  0  0  0  0  0  0  0  0  0
   43.1260   34.0160   38.0440 C   0  0  0  0  0  0  0  0  0  0  0  0
   42.1670   33.4370   37.2560 C   0  0  0  0  0  0  0  0  0  0  0  0
   41.0210   32.9450   37.8510 C   0  0  0  0  0  0  0  0  0  0  0  0
   41.6060   33.6550   41.0310 H   0  0  0  0  0  0  0  0  0  0  0  0
   43.6340   34.5390   40.0960 H   0  0  0  0  0  0  0  0  0  0  0  0
   44.0750   34.4450   37.7200 H   0  0  0  0  0  0  0  0  0  0  0  0
   42.3650   33.3960   36.1980 H   0  0  0  0  0  0  0  0  0  0  0  0
   40.3180   32.5050   37.1550 H   0  0  0  0  0  0  0  0  0  0  0  0
  1  3  1  0  0  0  0
  1  2  1  0  0  0  0
  4  7  1  6  0  0  0
  4  1  1  0  0  0  0
  4  5  1  0  0  0  0
  5  8  1  0  0  0  0
  5  9  1  0  0  0  0
  6 10  1  6  0  0  0
  6  4  1  0  0  0  0
  6  5  1  0  0  0  0
 11  6  1  0  0  0  0
 11 14  1  1  0  0  0
 12 15  1  0  0  0  0
 12 11  1  0  0  0  0
 13 17  1  6  0  0  0
 13 12  1  0  0  0  0
 13 11  1  0  0  0  0
 16 12  1  0  0  0  0
 19 20  1  0  0  0  0
 19 18  1  0  0  0  0
 20 13  1  0  0  0  0
 21 22  1  0  0  0  0
 21 20  2  0  0  0  0
 23 21  1  0  0  0  0
 24 23  2  0  0  0  0
 24 26  1  0  0  0  0
 25 24  1  0  0  0  0
 26 19  2  0  0  0  0
 27 26  1  0  0  0  0
 28 29  2  0  0  0  0
 29  1  1  0  0  0  0
 30 35  1  0  0  0  0
 31 32  1  0  0  0  0
 31 30  2  0  0  0  0
 32 33  2  0  0  0  0
 33 34  1  0  0  0  0
 34 28  1  0  0  0  0
 35 34  2  0  0  0  0
 36 30  1  0  0  0  0
 37 31  1  0  0  0  0
 38 32  1  0  0  0  0
 38 39  1  0  0  0  0
 39 44  1  0  0  0  0
 40 39  2  0  0  0  0
 40 45  1  0  0  0  0
 41 40  1  0  0  0  0
 42 43  1  0  0  0  0
 42 41  2  0  0  0  0
 43 38  2  0  0  0  0
 46 41  1  0  0  0  0
 47 42  1  0  0  0  0
 48 43  1  0  0  0  0
M  END
>  <minimizedAffinity>
-5.80220366

$$$$

 OpenBabel03252508193D

 48 52  0  0  1  0  0  0  0  0999 V2000
   36.0060   25.4530   38.5640 C   0  0  0  0  0  0  0  0  0  0  0  0
   35.8700   24.3440   38.4090 H   0  0  0  0  0  0  0  0  0  0  0  0
   35.1360   25.7830   39.1140 H   0  0  0  0  0  0  0  0  0  0  0  0
   36.2730   26.0970   37.2460 C   0  0  1  0  0  0  0  0  0  0  0  0
   35.3380   25.7260   36.1470 C   0  0  0  0  0  0  0  0  0  0  0  0
   35.3150   27.0770   36.6930 C   0  0  1  0  0  0  0  0  0  0  0  0
   37.3340   25.9870   36.8720 H   0  0  0  0  0  0  0  0  0  0  0  0
   35.6740   25.5760   35.1030 H   0  0  0  0  0  0  0  0  0  0  0  0
   34.4900   25.0470   36.3930 H   0  0  0  0  0  0  0  0  0  0  0  0
   35.7510   27.8790   36.0640 H   0  0  0  0  0  0  0  0  0  0  0  0
   34.2030   27.5470   37.5760 C   0  0  2  0  0  0  0  0  0  0  0  0
   33.5680   28.8740   37.0850 C   0  0  0  0  0  0  0  0  0  0  0  0
   34.3780   28.8750   38.3050 C   0  0  2  0  0  0  0  0  0  0  0  0
   33.4060   26.8460   37.9030 H   0  0  0  0  0  0  0  0  0  0  0  0
   32.4960   29.0290   37.1660 H   0  0  0  0  0  0  0  0  0  0  0  0
   34.0170   29.3800   36.2120 H   0  0  0  0  0  0  0  0  0  0  0  0
   33.8230   28.9190   39.2690 H   0  0  0  0  0  0  0  0  0  0  0  0
   35.7070   28.5940   40.9490 Cl  0  0  0  0  0  0  0  0  0  0  0  0
   36.4940   29.2840   39.5220 C   0  0  0  0  0  0  0  0  0  0  0  0
   35.7720   29.3640   38.3420 C   0  0  0  0  0  0  0  0  0  0  0  0
   36.4140   29.9070   37.2450 C   0  0  0  0  0  0  0  0  0  0  0  0
   35.8890   29.9890   36.3060 H   0  0  0  0  0  0  0  0  0  0  0  0
   37.7220   30.3580   37.3050 C   0  0  0  0  0  3  0  0  0  0  0  0
   38.4040   30.2590   38.5020 C   0  0  0  0  0  0  0  0  0  0  0  0
   40.0740   30.8140   38.6480 Cl  0  0  0  0  0  0  0  0  0  0  0  0
   37.8150   29.7260   39.6290 C   0  0  0  0  0  0  0  0  0  0  0  0
   38.3700   29.6600   40.5530 H   0  0  0  0  0  0  0  0  0  0  0  0
   37.0350   25.1880   40.6680 C   0  0  0  0  0  3  0  0  0  0  0  0
   37.1660   25.6780   39.5090 C   0  0  0  0  0  3  0  0  0  0  0  0
   39.5690   24.7030   43.3030 C   0  0  0  0  0  0  0  0  0  0  0  0
   40.1310   25.9650   43.4330 C   0  0  0  0  0  0  0  0  0  0  0  0
   39.6270   26.9420   42.6200 C   0  0  0  0  0  0  0  0  0  0  0  0
   38.6250   26.6450   41.7470 N   0  0  0  0  0  0  0  0  0  0  0  0
   38.1030   25.4070   41.6490 C   0  0  0  0  0  0  0  0  0  0  0  0
   38.5920   24.4630   42.4360 N   0  0  0  0  0  0  0  0  0  0  0  0
   39.9420   23.8950   43.9330 H   0  0  0  0  0  0  0  0  0  0  0  0
   40.9230   26.2000   44.1220 H   0  0  0  0  0  0  0  0  0  0  0  0
   40.1180   28.3110   42.6430 C   0  0  0  0  0  0  0  0  0  0  0  0
   41.4390   28.6600   42.5580 C   0  0  0  0  0  0  0  0  0  0  0  0
   41.8890   29.9680   42.5830 C   0  0  0  0  0  0  0  0  0  0  0  0
   40.9880   30.9920   42.6990 C   0  0  0  0  0  0  0  0  0  0  0  0
   39.6530   30.7010   42.7890 C   0  0  0  0  0  0  0  0  0  0  0  0
   39.2550   29.3790   42.7580 C   0  0  0  0  0  0  0  0  0  0  0  0
   42.1740   27.8460   42.4650 H   0  0  0  0  0  0  0  0  0  0  0  0
   42.9700   30.1110   42.5070 H   0  0  0  0  0  0  0  0  0  0  0  0
   41.4500   31.9810   42.7090 H   0  0  0  0  0  0  0  0  0  0  0  0
   38.9770   31.5350   42.8780 H   0  0  0  0  0  0  0  0  0  0  0  0
   38.1830   29.2410   42.8340 H   0  0  0  0  0  0  0  0  0  0  0  0
  1  3  1  0  0  0  0
  1 29  1  0  0  0  0
  2  1  1  0  0  0  0
  4  7  1  6  0  0  0
  4  1  1  0  0  0  0
  5  9  1  0  0  0  0
  5  6  1  0  0  0  0
  5  4  1  0  0  0  0
  6 10  1  6  0  0  0
  6  4  1  0  0  0  0
  6 11  1  0  0  0  0
  8  5  1  0  0  0  0
 11 14  1  1  0  0  0
 11 13  1  0  0  0  0
 12 15  1  0  0  0  0
 12 11  1  0  0  0  0
 12 13  1  0  0  0  0
 13 20  1  0  0  0  0
 13 17  1  1  0  0  0
 16 12  1  0  0  0  0
 19 26  1  0  0  0  0
 19 18  1  0  0  0  0
 20 19  2  0  0  0  0
 21 23  2  0  0  0  0
 21 20  1  0  0  0  0
 22 21  1  0  0  0  0
 23 24  1  0  0  0  0
 24 25  1  0  0  0  0
 24 26  2  0  0  0  0
 26 27  1  0  0  0  0
 28 34  1  0  0  0  0
 29 28  2  0  0  0  0
 30 31  1  0  0  0  0
 30 36  1  0  0  0  0
 31 37  1  0  0  0  0
 32 38  1  0  0  0  0
 32 31  2  0  0  0  0
 33 32  1  0  0  0  0
 34 33  2  0  0  0  0
 34 35  1  0  0  0  0
 35 30  2  0  0  0  0
 38 43  1  0  0  0  0
 39 40  1  0  0  0  0
 39 38  2  0  0  0  0
 40 41  2  0  0  0  0
 41 46  1  0  0  0  0
 41 42  1  0  0  0  0
 42 47  1  0  0  0  0
 43 42  2  0  0  0  0
 43 48  1  0  0  0  0
 44 39  1  0  0  0  0
 45 40  1  0  0  0  0
M  END
>  <minimizedAffinity>
-5.80098677

$$$$
