
 OpenBabel03252500293D

 29 31  0  0  1  0  0  0  0  0999 V2000
   47.1710   33.0200   41.3040 C   0  0  1  0  0  0  0  0  0  0  0  0
   46.5560   32.1470   40.3330 C   0  0  0  0  0  0  0  0  0  0  0  0
   46.1880   33.5810   40.2750 C   0  0  1  0  0  0  0  0  0  0  0  0
   48.1790   33.4910   41.1750 H   0  0  0  0  0  0  0  0  0  0  0  0
   45.8190   31.3940   40.7070 H   0  0  0  0  0  0  0  0  0  0  0  0
   47.2450   31.7160   39.5550 H   0  0  0  0  0  0  0  0  0  0  0  0
   46.6140   34.1090   39.3850 H   0  0  0  0  0  0  0  0  0  0  0  0
   46.2710   31.8410   43.3420 C   0  0  0  0  0  0  0  0  0  0  0  0
   46.7520   33.0390   42.7330 C   0  0  0  0  0  0  0  0  0  0  0  0
   46.8010   34.1870   43.5010 C   0  0  0  0  0  0  0  0  0  0  0  0
   46.3880   34.1060   44.7870 N   0  0  0  0  0  0  0  0  0  0  0  0
   45.9300   32.9490   45.3520 C   0  0  0  0  0  0  0  0  0  0  0  0
   45.8660   31.7930   44.6260 N   0  0  0  0  0  0  0  0  0  0  0  0
   46.2090   30.9100   42.7960 H   0  0  0  0  0  0  0  0  0  0  0  0
   47.1580   35.1130   43.0830 H   0  0  0  0  0  0  0  0  0  0  0  0
   45.6610   33.1460   46.3860 H   0  0  0  0  0  0  0  0  0  0  0  0
   44.8610   34.0540   40.7210 C   0  0  0  0  0  0  0  0  0  0  0  0
   44.6150   35.0040   40.2040 H   0  0  0  0  0  0  0  0  0  0  0  0
   44.8630   34.2900   41.8110 H   0  0  0  0  0  0  0  0  0  0  0  0
   44.2170   33.5080   37.7640 Cl  0  0  0  0  0  0  0  0  0  0  0  0
   43.4360   32.7260   39.1100 C   0  0  0  0  0  0  0  0  0  0  0  0
   43.8030   33.0450   40.3990 C   0  0  0  0  0  0  0  0  0  0  0  0
   43.1550   32.3950   41.4510 C   0  0  0  0  0  0  0  0  0  0  0  0
   43.4650   32.6660   42.4600 H   0  0  0  0  0  0  0  0  0  0  0  0
   42.1720   31.4560   41.2220 C   0  0  0  0  0  3  0  0  0  0  0  0
   41.8230   31.1560   39.9040 C   0  0  0  0  0  0  0  0  0  0  0  0
   40.5590   29.9480   39.6960 Cl  0  0  0  0  0  0  0  0  0  0  0  0
   42.4490   31.7860   38.8500 C   0  0  0  0  0  0  0  0  0  0  0  0
   42.1460   31.5200   37.8570 H   0  0  0  0  0  0  0  0  0  0  0  0
  1  4  1  6  0  0  0
  1  9  1  0  0  0  0
  2  5  1  0  0  0  0
  2  1  1  0  0  0  0
  3  7  1  6  0  0  0
  3  2  1  0  0  0  0
  3 17  1  0  0  0  0
  3  1  1  0  0  0  0
  6  2  1  0  0  0  0
  8 13  1  0  0  0  0
  9  8  2  0  0  0  0
  9 10  1  0  0  0  0
 10 11  2  0  0  0  0
 11 12  1  0  0  0  0
 12 16  1  0  0  0  0
 13 12  2  0  0  0  0
 14  8  1  0  0  0  0
 15 10  1  0  0  0  0
 17 19  1  0  0  0  0
 18 17  1  0  0  0  0
 20 21  1  0  0  0  0
 21 22  1  0  0  0  0
 22 17  1  0  0  0  0
 22 23  2  0  0  0  0
 23 24  1  0  0  0  0
 25 23  1  0  0  0  0
 26 25  2  0  0  0  0
 27 26  1  0  0  0  0
 28 21  2  0  0  0  0
 28 26  1  0  0  0  0
 29 28  1  0  0  0  0
M  END
>  <minimizedAffinity>
-2.79387879

>  <minimizedRMSD>
7.88415384

$$$$
