
 OpenBabel03252509293D

 22 23  0  0  0  0  0  0  0  0999 V2000
   44.9880   33.0520   41.6540 C   0  0  0  0  0  0  0  0  0  0  0  0
   44.6840   31.9700   41.6540 H   0  0  0  0  0  0  0  0  0  0  0  0
   44.8550   33.4530   42.6790 H   0  0  0  0  0  0  0  0  0  0  0  0
   43.7200   35.5170   42.6870 Cl  0  0  0  0  0  0  0  0  0  0  0  0
   43.4100   34.8880   41.0710 C   0  0  0  0  0  0  0  0  0  0  0  0
   44.0720   33.7150   40.7040 C   0  0  0  0  0  0  0  0  0  0  0  0
   43.8240   33.2190   39.4200 C   0  0  0  0  0  0  0  0  0  0  0  0
   44.3350   32.2960   39.1130 H   0  0  0  0  0  0  0  0  0  0  0  0
   42.9670   33.8370   38.5290 C   0  0  0  0  0  3  0  0  0  0  0  0
   42.3130   35.0110   38.9150 C   0  0  0  0  0  0  0  0  0  0  0  0
   41.2180   35.8250   37.8100 Cl  0  0  0  0  0  0  0  0  0  0  0  0
   42.5460   35.5230   40.1890 C   0  0  0  0  0  0  0  0  0  0  0  0
   42.0370   36.4420   40.4990 H   0  0  0  0  0  0  0  0  0  0  0  0
   48.3210   34.4880   40.8730 C   0  0  0  0  0  0  0  0  0  0  0  0
   46.9600   34.4150   41.2190 C   0  0  0  0  0  0  0  0  0  0  0  0
   46.3970   33.1290   41.2960 C   0  0  0  0  0  0  0  0  0  0  0  0
   47.1970   32.0550   41.0340 N   0  0  0  0  0  0  0  0  0  0  0  0
   48.5030   32.1860   40.7060 C   0  0  0  0  0  0  0  0  0  0  0  0
   49.0610   33.4090   40.6270 N   0  0  0  0  0  0  0  0  0  0  0  0
   48.7360   35.5020   40.8200 H   0  0  0  0  0  0  0  0  0  0  0  0
   46.3560   35.2880   41.4190 H   0  0  0  0  0  0  0  0  0  0  0  0
   49.0470   31.2610   40.5180 H   0  0  0  0  0  0  0  0  0  0  0  0
  1  3  1  0  0  0  0
  2  1  1  0  0  0  0
  5  4  1  0  0  0  0
  6  5  1  0  0  0  0
  6  1  1  0  0  0  0
  7  6  2  0  0  0  0
  8  7  1  0  0  0  0
  9 10  2  0  0  0  0
  9  7  1  0  0  0  0
 10 12  1  0  0  0  0
 11 10  1  0  0  0  0
 12 13  1  0  0  0  0
 12  5  2  0  0  0  0
 14 15  1  0  0  0  0
 15 16  2  0  0  0  0
 15 21  1  0  0  0  0
 16  1  1  0  0  0  0
 17 16  1  0  0  0  0
 18 17  2  0  0  0  0
 19 18  1  0  0  0  0
 19 14  2  0  0  0  0
 20 14  1  0  0  0  0
 22 18  1  0  0  0  0
M  END
>  <minimizedAffinity>
-3.48297405

>  <minimizedRMSD>
6.47037315

$$$$
