
     RDKit          3D

 46 49  0  0  0  0  0  0  0  0999 V2000
   44.5045   35.5346   45.1171 C   0  0  0  0  0  0  0  0  0  0  0  0
   45.1633   35.5075   43.8812 C   0  0  0  0  0  0  0  0  0  0  0  0
   46.0820   34.5450   43.6427 C   0  0  0  0  0  0  0  0  0  0  0  0
   46.3123   33.6490   44.6343 N   0  0  0  0  0  0  0  0  0  0  0  0
   45.6866   33.6790   45.8014 C   0  0  0  0  0  0  0  0  0  0  0  0
   44.7779   34.6155   46.0621 N   0  0  0  0  0  0  0  0  0  0  0  0
   46.0116   32.6807   46.7844 N   0  0  0  0  0  0  0  0  0  0  0  0
   45.2652   32.4509   47.9696 C   0  0  0  0  0  0  0  0  0  0  0  0
   46.3361   32.1128   48.9919 C   0  0  0  0  0  0  0  0  0  0  0  0
   47.6209   32.0072   48.2335 C   0  0  0  0  0  0  0  0  0  0  0  0
   47.1341   31.7706   46.8030 C   0  0  1  0  0  0  0  0  0  0  0  0
   44.8157   36.5248   42.9242 N   0  0  0  0  0  0  0  0  0  0  0  0
   46.6220   30.0764   46.6397 S   0  0  0  0  0  0  0  0  0  0  0  0
   45.6161   30.5099   43.4893 O   0  0  0  0  0  0  0  0  0  0  0  0
   44.9829   29.9861   44.4197 C   0  0  0  0  0  0  0  0  0  0  0  0
   45.0742   29.7828   45.8869 C   0  0  1  0  0  0  0  0  0  0  0  0
   44.5324   28.3830   46.0390 C   0  0  0  0  0  0  0  0  0  0  0  0
   43.2209   28.5869   45.2733 C   0  0  0  0  0  0  0  0  0  0  0  0
   43.7372   29.3262   44.1266 N   0  0  0  0  0  0  0  0  0  0  0  0
   43.7808   36.3040   45.2870 H   0  0  0  0  0  0  0  0  0  0  0  0
   46.6036   34.5006   42.7009 H   0  0  0  0  0  0  0  0  0  0  0  0
   44.4300   31.8325   48.0543 H   0  0  0  0  0  0  0  0  0  0  0  0
   44.9138   33.4768   48.3152 H   0  0  0  0  0  0  0  0  0  0  0  0
   46.3438   32.7423   49.8766 H   0  0  0  0  0  0  0  0  0  0  0  0
   46.1098   31.0644   49.3473 H   0  0  0  0  0  0  0  0  0  0  0  0
   48.2378   31.1764   48.6084 H   0  0  0  0  0  0  0  0  0  0  0  0
   48.1223   32.9953   48.3162 H   0  0  0  0  0  0  0  0  0  0  0  0
   47.9474   32.0630   46.0991 H   0  0  0  0  0  0  0  0  0  0  0  0
   44.8424   37.5246   43.1898 H   0  0  0  0  0  0  0  0  0  0  0  0
   44.5650   36.0718   42.0226 H   0  0  0  0  0  0  0  0  0  0  0  0
   44.1925   30.3925   46.2237 H   0  0  0  0  0  0  0  0  0  0  0  0
   45.1524   27.6321   45.5076 H   0  0  0  0  0  0  0  0  0  0  0  0
   44.3455   28.1636   47.0924 H   0  0  0  0  0  0  0  0  0  0  0  0
   42.7527   27.6360   45.0136 H   0  0  0  0  0  0  0  0  0  0  0  0
   42.5527   29.2217   45.8896 H   0  0  0  0  0  0  0  0  0  0  0  0
   42.6614   31.9274   42.9808 Cl  0  0  0  0  0  0  0  0  0  0  0  0
   42.3863   30.3418   42.2918 C   0  0  0  0  0  0  0  0  0  0  0  0
   42.9380   29.2747   42.9263 C   0  0  0  0  0  0  0  0  0  0  0  0
   42.7228   28.0238   42.3854 C   0  0  0  0  0  0  0  0  0  0  0  0
   43.1416   27.1182   42.8505 H   0  0  0  0  0  0  0  0  0  0  0  0
   41.9805   27.7754   41.2354 C   0  0  0  0  0  0  0  0  0  0  0  0
   41.4193   28.8847   40.5942 C   0  0  0  0  0  0  0  0  0  0  0  0
   40.4716   28.6533   39.1411 Cl  0  0  0  0  0  0  0  0  0  0  0  0
   41.6453   30.1233   41.1488 C   0  0  0  0  0  0  0  0  0  0  0  0
   41.2027   30.9887   40.6415 H   0  0  0  0  0  0  0  0  0  0  0  0
   41.8464   26.7686   40.8586 H   0  0  0  0  0  0  0  0  0  0  0  0
  1  6  2  0
  2  1  1  0
  3  2  2  0
  3  4  1  0
  4  5  2  0
  5  6  1  0
  5  7  1  0
  7 11  1  0
  7  8  1  0
  8  9  1  0
 10  9  1  0
 11 10  1  0
 12  2  1  0
 13 11  1  0
 14 15  2  0
 15 16  1  0
 16 17  1  0
 16 13  1  0
 18 17  1  0
 19 15  1  0
 19 18  1  0
  1 20  1  0
  3 21  1  0
  8 22  1  0
  8 23  1  0
  9 24  1  0
  9 25  1  0
 10 26  1  0
 10 27  1  0
 11 28  1  6
 12 29  1  0
 12 30  1  0
 16 31  1  1
 17 32  1  0
 17 33  1  0
 18 34  1  0
 18 35  1  0
 36 37  1  0
 37 38  2  0
 38 39  1  0
 39 40  1  0
 39 41  2  0
 41 42  1  0
 42 43  1  0
 42 44  2  0
 44 45  1  0
 44 37  1  0
 41 46  1  0
 19 38  1  0
M  ISO  8  20  14  21  14  22  13  23  13  24  13  25  13  26  13  27  13
M  ISO  8  28  13  31  13  32  13  33  13  34  13  35  13  40  16  45  15
M  END
>  <DihAtoms>  (1) 
14,18,37,36

>  <DihDeg>  (1) 
90.0010901066483

$$$$
