
     RDKit          3D

 22 23  0  0  0  0  0  0  0  0999 V2000
   44.5803   36.0013   44.4816 C   0  0  0  0  0  0  0  0  0  0  0  0
   45.3269   35.9009   43.2954 C   0  0  0  0  0  0  0  0  0  0  0  0
   46.2260   34.8292   43.1618 C   0  0  0  0  0  0  0  0  0  0  0  0
   46.3033   33.9653   44.2014 N   0  0  0  0  0  0  0  0  0  0  0  0
   45.5819   34.0793   45.3246 C   0  0  0  0  0  0  0  0  0  0  0  0
   44.7035   35.1141   45.4717 N   0  0  0  0  0  0  0  0  0  0  0  0
   46.9573   34.7843   41.9272 C   0  0  0  0  0  0  0  0  0  0  0  0
   48.0518   35.4097   41.7544 O   0  0  0  0  0  0  0  0  0  0  0  0
   43.8946   36.8278   44.5708 H   0  0  0  0  0  0  0  0  0  0  0  0
   45.1730   36.6553   42.5406 H   0  0  0  0  0  0  0  0  0  0  0  0
   45.7207   33.3262   46.1044 H   0  0  0  0  0  0  0  0  0  0  0  0
   45.2869   36.3113   39.8762 Cl  0  0  0  0  0  0  0  0  0  0  0  0
   45.9007   34.6770   39.6842 C   0  0  0  0  0  0  0  0  0  0  0  0
   46.6521   34.0750   40.6816 C   0  0  0  0  0  0  0  0  0  0  0  0
   47.0707   32.7866   40.3975 C   0  0  0  0  0  0  0  0  0  0  0  0
   47.6662   32.2663   41.1497 H   0  0  0  0  0  0  0  0  0  0  0  0
   46.7570   32.1609   39.2084 C   0  0  0  0  0  0  0  0  0  0  0  0
   46.0119   32.7934   38.2506 C   0  0  0  0  0  0  0  0  0  0  0  0
   45.6514   31.9346   36.7609 Cl  0  0  0  0  0  0  0  0  0  0  0  0
   45.5776   34.0669   38.4897 C   0  0  0  0  0  0  0  0  0  0  0  0
   44.9893   34.5521   37.7210 H   0  0  0  0  0  0  0  0  0  0  0  0
   47.1196   31.1529   39.0572 H   0  0  0  0  0  0  0  0  0  0  0  0
  1  6  2  0
  2  1  1  0
  3  2  2  0
  3  4  1  0
  4  5  2  0
  5  6  1  0
  7  3  1  0
  8  7  2  0
  1  9  1  0
  2 10  1  0
  5 11  1  0
 12 13  1  0
 13 14  2  0
 14 15  1  0
 15 16  1  0
 15 17  2  0
 17 18  1  0
 18 19  1  0
 18 20  2  0
 20 21  1  0
 20 13  1  0
 17 22  1  0
  7 14  1  0
M  ISO  5   9  14  10  14  11  14  16  16  21  15
M  END
>  <DihAtoms>  (1) 
2,6,13,12

>  <DihDeg>  (1) 
-45.00340542686451

$$$$
