REMARK  Name = 
REMARK  3 active torsions:
REMARK  status: ('A' for Active; 'I' for Inactive)
REMARK    1  A    between atoms: C_1  and  C_11
REMARK    2  A    between atoms: C_3  and  S_13
REMARK    3  A    between atoms: S_13  and  C_23
REMARK                            x       y       z     vdW  Elec       q    Type
REMARK                         _______ _______ _______ _____ _____    ______ ____
ROOT
ATOM      1  C   UNL     1      46.002  32.754  47.052  0.00  0.00    +0.000 A 
ATOM      2  C   UNL     1      47.242  32.406  47.527  0.00  0.00    +0.000 A 
ATOM      3  C   UNL     1      47.431  31.619  48.639  0.00  0.00    +0.000 A 
ATOM      4  C   UNL     1      46.318  31.147  49.328  0.00  0.00    +0.000 A 
ATOM      5  C   UNL     1      45.074  31.471  48.888  0.00  0.00    +0.000 A 
ATOM      6  C   UNL     1      44.950  32.265  47.764  0.00  0.00    +0.000 A 
ATOM      7  H   UNL     1      48.126  32.778  46.984  0.00  0.00    +0.000 HD
ATOM      8  H   UNL     1      46.479  30.524  50.209  0.00  0.00    +0.000 HD
ATOM      9  H   UNL     1      44.198  31.112  49.412  0.00  0.00    +0.000 HD
ATOM     10  H   UNL     1      43.935  32.493  47.455  0.00  0.00    +0.000 HD
ENDROOT
BRANCH   1  15
ATOM     11  C   UNL     1      44.730  35.362  44.842  0.00  0.00    +0.000 A 
ATOM     12  C   UNL     1      45.488  35.222  43.685  0.00  0.00    +0.000 A 
ATOM     13  C   UNL     1      46.448  34.222  43.659  0.00  0.00    +0.000 A 
ATOM     14  N   UNL     1      46.637  33.400  44.749  0.00  0.00    +0.000 NA
ATOM     15  C   UNL     1      45.851  33.592  45.865  0.00  0.00    +0.000 A 
ATOM     16  N   UNL     1      44.906  34.564  45.914  0.00  0.00    +0.000 NA
ATOM     17  H   UNL     1      44.000  36.158  44.800  0.00  0.00    +0.000 HD
ATOM     18  H   UNL     1      45.415  35.807  42.795  0.00  0.00    +0.000 HD
ATOM     19  H   UNL     1      47.122  33.959  42.874  0.00  0.00    +0.000 HD
ENDBRANCH   1  15
BRANCH   3  20
ATOM     20  S   UNL     1      49.083  31.221  49.178  0.00  0.00    +0.000 S 
BRANCH  20  23
ATOM     21 CL   UNL     1      48.594  28.367  50.556  0.00  0.00    +0.000 Cl
ATOM     22  C   UNL     1      49.439  28.505  49.037  0.00  0.00    +0.000 A 
ATOM     23  C   UNL     1      49.671  29.709  48.411  0.00  0.00    +0.000 A 
ATOM     24  C   UNL     1      50.352  29.709  47.207  0.00  0.00    +0.000 A 
ATOM     25  H   UNL     1      50.546  30.640  46.697  0.00  0.00    +0.000 HD
ATOM     26  C   UNL     1      50.778  28.490  46.673  0.00  0.00    +0.000 A 
ATOM     27  C   UNL     1      50.543  27.273  47.307  0.00  0.00    +0.000 A 
ATOM     28 CL   UNL     1      51.101  25.770  46.590  0.00  0.00    +0.000 Cl
ATOM     29  C   UNL     1      49.862  27.326  48.500  0.00  0.00    +0.000 A 
ATOM     30  H   UNL     1      49.698  26.347  48.967  0.00  0.00    +0.000 HD
ENDBRANCH  20  23
ENDBRANCH   3  20
TORSDOF 3
