
 OpenBabel03252504533D

 22 23  0  0  0  0  0  0  0  0999 V2000
   45.7610   32.1490   40.8940 C   0  0  0  0  0  0  0  0  0  0  0  0
   46.5690   31.3680   40.8990 H   0  0  0  0  0  0  0  0  0  0  0  0
   45.1960   32.0630   39.9430 H   0  0  0  0  0  0  0  0  0  0  0  0
   46.2620   33.4410   38.2790 Cl  0  0  0  0  0  0  0  0  0  0  0  0
   46.7640   34.1540   39.8100 C   0  0  0  0  0  0  0  0  0  0  0  0
   46.4680   33.4430   40.9740 C   0  0  0  0  0  0  0  0  0  0  0  0
   46.8680   34.0130   42.1870 C   0  0  0  0  0  0  0  0  0  0  0  0
   46.6450   33.4690   43.1150 H   0  0  0  0  0  0  0  0  0  0  0  0
   47.5300   35.2240   42.2650 C   0  0  0  0  0  3  0  0  0  0  0  0
   47.8180   35.9210   41.0870 C   0  0  0  0  0  0  0  0  0  0  0  0
   48.6570   37.4620   41.1480 Cl  0  0  0  0  0  0  0  0  0  0  0  0
   47.4280   35.3710   39.8680 C   0  0  0  0  0  0  0  0  0  0  0  0
   47.6490   35.9110   38.9420 H   0  0  0  0  0  0  0  0  0  0  0  0
   42.9300   32.5190   43.2650 C   0  0  0  0  0  0  0  0  0  0  0  0
   43.8000   32.7830   42.1930 C   0  0  0  0  0  0  0  0  0  0  0  0
   44.8590   31.8780   42.0040 C   0  0  0  0  0  0  0  0  0  0  0  0
   44.9690   30.8220   42.8610 N   0  0  0  0  0  0  0  0  0  0  0  0
   44.1000   30.6180   43.8780 C   0  0  0  0  0  0  0  0  0  0  0  0
   43.0780   31.4730   44.0750 N   0  0  0  0  0  0  0  0  0  0  0  0
   42.1120   33.2400   43.3910 H   0  0  0  0  0  0  0  0  0  0  0  0
   43.6820   33.6310   41.5340 H   0  0  0  0  0  0  0  0  0  0  0  0
   44.2830   29.7430   44.4990 H   0  0  0  0  0  0  0  0  0  0  0  0
  1  2  1  0  0  0  0
  1  6  1  0  0  0  0
  1 16  1  0  0  0  0
  3  1  1  0  0  0  0
  4  5  1  0  0  0  0
  5 12  2  0  0  0  0
  5  6  1  0  0  0  0
  6  7  2  0  0  0  0
  7  9  1  0  0  0  0
  7  8  1  0  0  0  0
 10 11  1  0  0  0  0
 10  9  2  0  0  0  0
 12 10  1  0  0  0  0
 13 12  1  0  0  0  0
 14 20  1  0  0  0  0
 14 19  1  0  0  0  0
 15 14  2  0  0  0  0
 16 15  1  0  0  0  0
 16 17  2  0  0  0  0
 17 18  1  0  0  0  0
 18 19  2  0  0  0  0
 18 22  1  0  0  0  0
 21 15  1  0  0  0  0
M  END
>  <minimizedAffinity>
9.22089767

>  <minimizedRMSD>
3.88434052

$$$$
