
 OpenBabel03242517553D

 44 46  0  0  0  0  0  0  0  0999 V2000
   45.4160   30.1490   47.3490 C   0  0  0  0  0  0  0  0  0  0  0  0
   45.9730   31.2200   46.7270 C   0  0  0  0  0  0  0  0  0  0  0  0
   46.2080   32.3710   47.4570 C   0  0  0  0  0  0  0  0  0  0  0  0
   45.9000   32.4760   48.7970 C   0  0  0  0  0  0  0  0  0  0  0  0
   45.3320   31.3800   49.4350 C   0  0  0  0  0  0  0  0  0  0  0  0
   45.0980   30.2300   48.6990 C   0  0  0  0  0  0  0  0  0  0  0  0
   46.6450   33.2670   47.0390 H   0  0  0  0  0  0  0  0  0  0  0  0
   46.0690   33.3590   49.3970 H   0  0  0  0  0  0  0  0  0  0  0  0
   45.0480   31.3340   50.4730 H   0  0  0  0  0  0  0  0  0  0  0  0
   44.6540   29.3180   49.1190 H   0  0  0  0  0  0  0  0  0  0  0  0
   45.0850   28.7610   46.3690 S   0  0  0  0  0  0  0  0  0  0  0  0
   43.8380   28.9610   45.5290 O   0  0  0  0  0  0  0  0  0  0  0  0
   44.7420   27.6270   47.3360 O   0  0  0  0  0  0  0  0  0  0  0  0
   48.0150   28.0830   47.5600 Cl  0  0  0  0  0  0  0  0  0  0  0  0
   47.6390   27.7810   45.8730 C   0  0  0  0  0  0  0  0  0  0  0  0
   46.4000   28.1810   45.4170 C   0  0  0  0  0  0  0  0  0  0  0  0
   46.2600   27.9840   44.0390 C   0  0  0  0  0  0  0  0  0  0  0  0
   45.3140   28.2700   43.5710 H   0  0  0  0  0  0  0  0  0  0  0  0
   47.2190   27.4530   43.2010 C   0  0  0  0  0  0  0  0  0  0  0  0
   48.4210   27.0840   43.7700 C   0  0  0  0  0  0  0  0  0  0  0  0
   49.6760   26.4030   42.7570 Cl  0  0  0  0  0  0  0  0  0  0  0  0
   48.6610   27.2400   45.1250 C   0  0  0  0  0  0  0  0  0  0  0  0
   49.6040   26.9510   45.5670 H   0  0  0  0  0  0  0  0  0  0  0  0
   46.3600   31.3210   45.4040 O   0  0  0  0  0  0  0  0  0  0  0  0
   45.2670   34.2830   43.8220 C   0  0  0  0  0  0  0  0  0  0  0  0
   46.4490   34.7380   43.1980 C   0  0  0  0  0  0  0  0  0  0  0  0
   47.6070   34.0170   43.3340 C   0  0  0  0  0  0  0  0  0  0  0  0
   47.5220   32.9070   44.0670 N   0  0  0  0  0  0  0  0  0  0  0  0
   46.4330   32.4690   44.6530 C   0  0  0  0  0  0  0  0  0  0  0  0
   45.2900   33.1630   44.5310 N   0  0  0  0  0  0  0  0  0  0  0  0
   44.3430   34.8410   43.7260 H   0  0  0  0  0  0  0  0  0  0  0  0
   46.3280   35.6520   42.6450 H   0  0  0  0  0  0  0  0  0  0  0  0
   48.8730   34.4060   42.7060 C   0  0  0  0  0  0  0  0  0  0  0  0
   49.5820   34.6630   43.5190 H   0  0  0  0  0  0  0  0  0  0  0  0
   49.3160   33.5760   42.0950 H   0  0  0  0  0  0  0  0  0  0  0  0
   48.7430   35.5820   41.7840 C   0  0  0  0  0  0  0  0  0  0  0  0
   49.7400   36.1260   41.8540 H   0  0  0  0  0  0  0  0  0  0  0  0
   48.0130   36.3280   42.0950 H   0  0  0  0  0  0  0  0  0  0  0  0
   48.6030   35.2120   40.3750 C   0  0  0  0  0  0  0  0  0  0  0  0
   48.0240   34.3150   39.5850 C   0  0  0  0  0  0  0  0  0  0  0  0
   48.2070   34.1960   38.0830 C   0  0  0  0  0  0  0  0  0  0  0  0
   47.3090   34.6690   37.6360 H   0  0  0  0  0  0  0  0  0  0  0  0
   49.1340   34.7550   37.8170 H   0  0  0  0  0  0  0  0  0  0  0  0
   48.3330   33.1420   37.8420 H   0  0  0  0  0  0  0  0  0  0  0  0
  1  6  1  0  0  0  0
  2  1  2  0  0  0  0
  2  3  1  0  0  0  0
  3  4  2  0  0  0  0
  4  8  1  0  0  0  0
  4  5  1  0  0  0  0
  5  9  1  0  0  0  0
  6 10  1  0  0  0  0
  6  5  2  0  0  0  0
  7  3  1  0  0  0  0
 11 13  2  0  0  0  0
 11  1  1  0  0  0  0
 12 11  2  0  0  0  0
 15 14  1  0  0  0  0
 16 15  1  0  0  0  0
 16 11  1  0  0  0  0
 17 16  2  0  0  0  0
 18 17  1  0  0  0  0
 19 20  2  0  0  0  0
 19 17  1  0  0  0  0
 20 22  1  0  0  0  0
 21 20  1  0  0  0  0
 22 23  1  0  0  0  0
 22 15  2  0  0  0  0
 24  2  1  0  0  0  0
 25 30  1  0  0  0  0
 26 27  1  0  0  0  0
 26 25  2  0  0  0  0
 27 28  2  0  0  0  0
 28 29  1  0  0  0  0
 29 24  1  0  0  0  0
 30 29  2  0  0  0  0
 31 25  1  0  0  0  0
 32 26  1  0  0  0  0
 33 27  1  0  0  0  0
 33 34  1  0  0  0  0
 35 33  1  0  0  0  0
 36 37  1  0  0  0  0
 36 38  1  0  0  0  0
 36 33  1  0  0  0  0
 39 36  1  0  0  0  0
 40 39  2  0  0  0  0
 41 40  1  0  0  0  0
 42 41  1  0  0  0  0
 43 41  1  0  0  0  0
 44 41  1  0  0  0  0
M  END
>  <minimizedAffinity>
-5.6095829

>  <minimizedRMSD>
1.4063071

$$$$
