
 OpenBabel03242513023D

 32 35  0  0  0  0  0  0  0  0999 V2000
   39.4990   34.3170   40.2260 C   0  0  0  0  0  0  0  0  0  0  0  0
   38.8110   33.3160   40.9110 C   0  0  0  0  0  0  0  0  0  0  0  0
   39.2440   31.9950   40.7710 C   0  0  0  0  0  0  0  0  0  0  0  0
   40.3210   31.7920   39.9650 N   0  0  0  0  0  0  0  0  0  0  0  0
   40.9720   32.7590   39.3140 C   0  0  0  0  0  0  0  0  0  0  0  0
   40.5600   34.0170   39.4450 N   0  0  0  0  0  0  0  0  0  0  0  0
   39.1580   35.3230   40.3410 H   0  0  0  0  0  0  0  0  0  0  0  0
   37.9620   33.5390   41.5370 H   0  0  0  0  0  0  0  0  0  0  0  0
   43.3370   33.0300   38.6590 C   0  0  0  0  0  0  0  0  0  0  0  0
   42.1110   32.4070   38.4810 C   0  0  0  0  0  0  0  0  0  0  0  0
   41.9040   31.4220   37.5070 C   0  0  0  0  0  0  0  0  0  0  0  0
   42.9650   31.0410   36.6760 C   0  0  0  0  0  0  0  0  0  0  0  0
   43.1200   30.1480   35.6580 N   0  0  0  0  0  0  0  0  0  0  0  0
   44.4200   30.2370   35.2330 C   0  0  0  0  0  0  0  0  0  0  0  0
   45.0340   31.1840   36.0030 N   0  0  0  0  0  0  0  0  0  0  0  0
   44.1610   31.6840   36.8870 C   0  0  0  0  0  0  0  0  0  0  0  0
   44.3950   32.6500   37.8290 C   0  0  0  0  0  0  0  0  0  0  0  0
   43.4980   33.7890   39.4090 H   0  0  0  0  0  0  0  0  0  0  0  0
   40.9440   30.9380   37.3720 H   0  0  0  0  0  0  0  0  0  0  0  0
   42.3530   29.5390   35.3100 H   0  0  0  0  0  0  0  0  0  0  0  0
   44.8520   29.6520   34.4330 H   0  0  0  0  0  0  0  0  0  0  0  0
   45.3490   33.1390   37.9710 H   0  0  0  0  0  0  0  0  0  0  0  0
   36.6580   30.9900   39.4930 Cl  0  0  0  0  0  0  0  0  0  0  0  0
   37.4330   30.3700   40.9180 C   0  0  0  0  0  0  0  0  0  0  0  0
   38.6020   30.8740   41.4380 C   0  0  0  0  0  0  0  0  0  0  0  0
   39.1010   30.2810   42.5740 C   0  0  0  0  0  0  0  0  0  0  0  0
   39.9990   30.6260   43.0220 H   0  0  0  0  0  0  0  0  0  0  0  0
   38.4480   29.2240   43.1600 C   0  0  0  0  0  3  0  0  0  0  0  0
   37.2740   28.6970   42.6610 C   0  0  0  0  0  0  0  0  0  0  0  0
   36.4360   27.3500   43.4020 Cl  0  0  0  0  0  0  0  0  0  0  0  0
   36.7780   29.3080   41.5070 C   0  0  0  0  0  0  0  0  0  0  0  0
   35.8550   28.8760   41.1340 H   0  0  0  0  0  0  0  0  0  0  0  0
  1  7  1  0  0  0  0
  1  2  1  0  0  0  0
  2  8  1  0  0  0  0
  3  2  2  0  0  0  0
  3 25  1  0  0  0  0
  4  3  1  0  0  0  0
  5  6  1  0  0  0  0
  5  4  2  0  0  0  0
  6  1  2  0  0  0  0
  9 18  1  0  0  0  0
 10  9  1  0  0  0  0
 10  5  1  0  0  0  0
 11 10  2  0  0  0  0
 12 16  2  0  0  0  0
 12 11  1  0  0  0  0
 13 12  1  0  0  0  0
 14 13  1  0  0  0  0
 14 15  2  0  0  0  0
 15 16  1  0  0  0  0
 16 17  1  0  0  0  0
 17 22  1  0  0  0  0
 17  9  2  0  0  0  0
 19 11  1  0  0  0  0
 20 13  1  0  0  0  0
 21 14  1  0  0  0  0
 23 24  1  0  0  0  0
 24 25  2  0  0  0  0
 24 31  1  0  0  0  0
 25 26  1  0  0  0  0
 26 27  1  0  0  0  0
 26 28  2  0  0  0  0
 29 28  1  0  0  0  0
 29 30  1  0  0  0  0
 31 29  2  0  0  0  0
 32 31  1  0  0  0  0
M  END
>  <minimizedAffinity>
-6.20836401

$$$$

 OpenBabel03242513023D

 32 35  0  0  0  0  0  0  0  0999 V2000
   37.2300   27.9450   43.6840 C   0  0  0  0  0  0  0  0  0  0  0  0
   37.0250   26.8630   42.8280 C   0  0  0  0  0  0  0  0  0  0  0  0
   37.1490   27.0710   41.4520 C   0  0  0  0  0  0  0  0  0  0  0  0
   37.4650   28.3340   41.0550 N   0  0  0  0  0  0  0  0  0  0  0  0
   37.6570   29.3620   41.8840 C   0  0  0  0  0  0  0  0  0  0  0  0
   37.5400   29.1660   43.1960 N   0  0  0  0  0  0  0  0  0  0  0  0
   37.1320   27.7730   44.7350 H   0  0  0  0  0  0  0  0  0  0  0  0
   36.7770   25.8830   43.2030 H   0  0  0  0  0  0  0  0  0  0  0  0
   37.0620   31.3750   40.5850 C   0  0  0  0  0  0  0  0  0  0  0  0
   37.9910   30.6650   41.3300 C   0  0  0  0  0  0  0  0  0  0  0  0
   39.2790   31.1510   41.5860 C   0  0  0  0  0  0  0  0  0  0  0  0
   39.6560   32.4000   41.0780 C   0  0  0  0  0  0  0  0  0  0  0  0
   40.7870   33.1600   41.1280 N   0  0  0  0  0  0  0  0  0  0  0  0
   40.5370   34.3090   40.4230 C   0  0  0  0  0  0  0  0  0  0  0  0
   39.2550   34.2270   39.9560 N   0  0  0  0  0  0  0  0  0  0  0  0
   38.7050   33.0690   40.3460 C   0  0  0  0  0  0  0  0  0  0  0  0
   37.4390   32.6210   40.0790 C   0  0  0  0  0  0  0  0  0  0  0  0
   36.0690   31.0010   40.3880 H   0  0  0  0  0  0  0  0  0  0  0  0
   40.0010   30.5920   42.1680 H   0  0  0  0  0  0  0  0  0  0  0  0
   41.6510   32.8670   41.6260 H   0  0  0  0  0  0  0  0  0  0  0  0
   41.2430   35.1140   40.2800 H   0  0  0  0  0  0  0  0  0  0  0  0
   36.7110   33.1720   39.4990 H   0  0  0  0  0  0  0  0  0  0  0  0
   35.5930   27.8560   38.9430 Cl  0  0  0  0  0  0  0  0  0  0  0  0
   36.2650   26.2980   39.3150 C   0  0  0  0  0  0  0  0  0  0  0  0
   36.9570   26.0160   40.4690 C   0  0  0  0  0  0  0  0  0  0  0  0
   37.4330   24.7370   40.6300 C   0  0  0  0  0  0  0  0  0  0  0  0
   37.9740   24.4580   41.4990 H   0  0  0  0  0  0  0  0  0  0  0  0
   37.2200   23.7810   39.6650 C   0  0  0  0  0  3  0  0  0  0  0  0
   36.5290   24.0340   38.4980 C   0  0  0  0  0  0  0  0  0  0  0  0
   36.2530   22.8220   37.2650 Cl  0  0  0  0  0  0  0  0  0  0  0  0
   36.0510   25.3380   38.3470 C   0  0  0  0  0  0  0  0  0  0  0  0
   35.5120   25.5130   37.4220 H   0  0  0  0  0  0  0  0  0  0  0  0
  1  7  1  0  0  0  0
  2  8  1  0  0  0  0
  2  1  2  0  0  0  0
  3  2  1  0  0  0  0
  4  3  2  0  0  0  0
  4  5  1  0  0  0  0
  5  6  2  0  0  0  0
  6  1  1  0  0  0  0
  9 10  1  0  0  0  0
 10 11  2  0  0  0  0
 10  5  1  0  0  0  0
 11 19  1  0  0  0  0
 12 13  1  0  0  0  0
 12 11  1  0  0  0  0
 13 20  1  0  0  0  0
 14 13  1  0  0  0  0
 15 16  1  0  0  0  0
 15 14  2  0  0  0  0
 16 12  2  0  0  0  0
 17 16  1  0  0  0  0
 17  9  2  0  0  0  0
 18  9  1  0  0  0  0
 21 14  1  0  0  0  0
 22 17  1  0  0  0  0
 23 24  1  0  0  0  0
 24 25  1  0  0  0  0
 25 26  2  0  0  0  0
 25  3  1  0  0  0  0
 26 27  1  0  0  0  0
 28 26  1  0  0  0  0
 29 28  2  0  0  0  0
 30 29  1  0  0  0  0
 31 29  1  0  0  0  0
 31 24  2  0  0  0  0
 32 31  1  0  0  0  0
M  END
>  <minimizedAffinity>
-6.17480421

$$$$

 OpenBabel03242513023D

 32 35  0  0  0  0  0  0  0  0999 V2000
   36.1160   31.0330   40.8280 C   0  0  0  0  0  0  0  0  0  0  0  0
   36.5040   29.7550   41.2310 C   0  0  0  0  0  0  0  0  0  0  0  0
   37.8600   29.4240   41.1760 C   0  0  0  0  0  0  0  0  0  0  0  0
   38.7040   30.3910   40.7280 N   0  0  0  0  0  0  0  0  0  0  0  0
   38.3210   31.6110   40.3440 C   0  0  0  0  0  0  0  0  0  0  0  0
   37.0300   31.9300   40.3950 N   0  0  0  0  0  0  0  0  0  0  0  0
   35.0760   31.2750   40.8740 H   0  0  0  0  0  0  0  0  0  0  0  0
   35.7870   29.0290   41.5780 H   0  0  0  0  0  0  0  0  0  0  0  0
   39.5440   33.7450   40.5620 C   0  0  0  0  0  0  0  0  0  0  0  0
   39.3270   32.5560   39.8840 C   0  0  0  0  0  0  0  0  0  0  0  0
   40.0500   32.2020   38.7370 C   0  0  0  0  0  0  0  0  0  0  0  0
   41.0320   33.0720   38.2480 C   0  0  0  0  0  0  0  0  0  0  0  0
   41.8980   33.0540   37.1950 N   0  0  0  0  0  0  0  0  0  0  0  0
   42.6230   34.2160   37.2440 C   0  0  0  0  0  0  0  0  0  0  0  0
   42.1830   34.9230   38.3290 N   0  0  0  0  0  0  0  0  0  0  0  0
   41.2130   34.2390   38.9500 C   0  0  0  0  0  0  0  0  0  0  0  0
   40.5240   34.6130   40.0730 C   0  0  0  0  0  0  0  0  0  0  0  0
   38.9870   34.0180   41.4460 H   0  0  0  0  0  0  0  0  0  0  0  0
   39.8760   31.2720   38.2100 H   0  0  0  0  0  0  0  0  0  0  0  0
   41.9520   32.2730   36.5120 H   0  0  0  0  0  0  0  0  0  0  0  0
   43.3930   34.4970   36.5400 H   0  0  0  0  0  0  0  0  0  0  0  0
   40.6900   35.5390   40.6050 H   0  0  0  0  0  0  0  0  0  0  0  0
   37.5060   28.6880   44.1200 Cl  0  0  0  0  0  0  0  0  0  0  0  0
   38.2500   27.7250   42.8810 C   0  0  0  0  0  0  0  0  0  0  0  0
   38.3750   28.1220   41.5710 C   0  0  0  0  0  0  0  0  0  0  0  0
   38.9870   27.2540   40.6980 C   0  0  0  0  0  0  0  0  0  0  0  0
   39.1130   27.5040   39.6750 H   0  0  0  0  0  0  0  0  0  0  0  0
   39.4550   26.0360   41.1300 C   0  0  0  0  0  3  0  0  0  0  0  0
   39.3450   25.6110   42.4390 C   0  0  0  0  0  0  0  0  0  0  0  0
   39.9380   24.0610   42.9970 Cl  0  0  0  0  0  0  0  0  0  0  0  0
   38.7200   26.5020   43.3140 C   0  0  0  0  0  0  0  0  0  0  0  0
   38.6450   26.1460   44.3370 H   0  0  0  0  0  0  0  0  0  0  0  0
  1  7  1  0  0  0  0
  1  2  1  0  0  0  0
  2  8  1  0  0  0  0
  3  2  2  0  0  0  0
  3 25  1  0  0  0  0
  4  3  1  0  0  0  0
  5  6  1  0  0  0  0
  5  4  2  0  0  0  0
  6  1  2  0  0  0  0
  9 18  1  0  0  0  0
 10  5  1  0  0  0  0
 10  9  2  0  0  0  0
 11 10  1  0  0  0  0
 12 11  2  0  0  0  0
 12 16  1  0  0  0  0
 13 14  1  0  0  0  0
 13 12  1  0  0  0  0
 14 15  2  0  0  0  0
 15 16  1  0  0  0  0
 16 17  2  0  0  0  0
 17  9  1  0  0  0  0
 17 22  1  0  0  0  0
 19 11  1  0  0  0  0
 20 13  1  0  0  0  0
 21 14  1  0  0  0  0
 24 31  1  0  0  0  0
 24 23  1  0  0  0  0
 25 24  2  0  0  0  0
 26 28  2  0  0  0  0
 26 25  1  0  0  0  0
 27 26  1  0  0  0  0
 28 29  1  0  0  0  0
 29 30  1  0  0  0  0
 29 31  2  0  0  0  0
 31 32  1  0  0  0  0
M  END
>  <minimizedAffinity>
-6.09154415

$$$$

 OpenBabel03242513023D

 32 35  0  0  0  0  0  0  0  0999 V2000
   37.4570   27.6180   43.6590 C   0  0  0  0  0  0  0  0  0  0  0  0
   38.6820   26.9730   43.8250 C   0  0  0  0  0  0  0  0  0  0  0  0
   39.8240   27.5620   43.2740 C   0  0  0  0  0  0  0  0  0  0  0  0
   39.6410   28.7350   42.6090 N   0  0  0  0  0  0  0  0  0  0  0  0
   38.4620   29.3420   42.4560 C   0  0  0  0  0  0  0  0  0  0  0  0
   37.3740   28.7830   42.9800 N   0  0  0  0  0  0  0  0  0  0  0  0
   36.5910   27.1580   44.0850 H   0  0  0  0  0  0  0  0  0  0  0  0
   38.7650   26.0430   44.3630 H   0  0  0  0  0  0  0  0  0  0  0  0
   37.2880   30.9200   40.9640 C   0  0  0  0  0  0  0  0  0  0  0  0
   38.4030   30.5960   41.7210 C   0  0  0  0  0  0  0  0  0  0  0  0
   39.5150   31.4410   41.8200 C   0  0  0  0  0  0  0  0  0  0  0  0
   39.5150   32.6620   41.1350 C   0  0  0  0  0  0  0  0  0  0  0  0
   40.3930   33.6970   41.0080 N   0  0  0  0  0  0  0  0  0  0  0  0
   39.8120   34.6260   40.1860 C   0  0  0  0  0  0  0  0  0  0  0  0
   38.5860   34.1390   39.8270 N   0  0  0  0  0  0  0  0  0  0  0  0
   38.3910   32.9430   40.3970 C   0  0  0  0  0  0  0  0  0  0  0  0
   37.2880   32.1380   40.2800 C   0  0  0  0  0  0  0  0  0  0  0  0
   36.4300   30.2690   40.8870 H   0  0  0  0  0  0  0  0  0  0  0  0
   40.3840   31.1830   42.4130 H   0  0  0  0  0  0  0  0  0  0  0  0
   41.3220   33.7190   41.4740 H   0  0  0  0  0  0  0  0  0  0  0  0
   40.2630   35.5630   39.8920 H   0  0  0  0  0  0  0  0  0  0  0  0
   36.4170   32.3870   39.6910 H   0  0  0  0  0  0  0  0  0  0  0  0
   40.5510   25.4910   41.1490 Cl  0  0  0  0  0  0  0  0  0  0  0  0
   41.5450   26.0380   42.4640 C   0  0  0  0  0  0  0  0  0  0  0  0
   41.1510   26.9770   43.3860 C   0  0  0  0  0  0  0  0  0  0  0  0
   42.0450   27.3140   44.3740 C   0  0  0  0  0  0  0  0  0  0  0  0
   41.7980   28.0330   45.1150 H   0  0  0  0  0  0  0  0  0  0  0  0
   43.2860   26.7270   44.4300 C   0  0  0  0  0  3  0  0  0  0  0  0
   43.7100   25.7810   43.5180 C   0  0  0  0  0  0  0  0  0  0  0  0
   45.2900   25.0290   43.5810 Cl  0  0  0  0  0  0  0  0  0  0  0  0
   42.7920   25.4490   42.5200 C   0  0  0  0  0  0  0  0  0  0  0  0
   43.1480   24.7030   41.8150 H   0  0  0  0  0  0  0  0  0  0  0  0
  1  2  1  0  0  0  0
  1  7  1  0  0  0  0
  2  8  1  0  0  0  0
  3 25  1  0  0  0  0
  3  2  2  0  0  0  0
  4  3  1  0  0  0  0
  5  4  2  0  0  0  0
  5  6  1  0  0  0  0
  6  1  2  0  0  0  0
  9 10  1  0  0  0  0
 10 11  2  0  0  0  0
 10  5  1  0  0  0  0
 11 19  1  0  0  0  0
 12 11  1  0  0  0  0
 13 12  1  0  0  0  0
 13 20  1  0  0  0  0
 14 13  1  0  0  0  0
 15 14  2  0  0  0  0
 15 16  1  0  0  0  0
 16 12  2  0  0  0  0
 17 16  1  0  0  0  0
 17  9  2  0  0  0  0
 18  9  1  0  0  0  0
 21 14  1  0  0  0  0
 22 17  1  0  0  0  0
 23 24  1  0  0  0  0
 24 31  2  0  0  0  0
 24 25  1  0  0  0  0
 25 26  2  0  0  0  0
 26 28  1  0  0  0  0
 26 27  1  0  0  0  0
 29 30  1  0  0  0  0
 29 28  2  0  0  0  0
 31 29  1  0  0  0  0
 32 31  1  0  0  0  0
M  END
>  <minimizedAffinity>
-6.06524277

$$$$

 OpenBabel03242513023D

 32 35  0  0  0  0  0  0  0  0999 V2000
   37.1110   27.8970   44.0720 C   0  0  0  0  0  0  0  0  0  0  0  0
   37.6350   29.0990   43.5950 C   0  0  0  0  0  0  0  0  0  0  0  0
   38.0330   29.1670   42.2570 C   0  0  0  0  0  0  0  0  0  0  0  0
   37.8730   28.0370   41.5180 N   0  0  0  0  0  0  0  0  0  0  0  0
   37.3700   26.8910   41.9850 C   0  0  0  0  0  0  0  0  0  0  0  0
   36.9910   26.8240   43.2600 N   0  0  0  0  0  0  0  0  0  0  0  0
   36.8110   27.8570   45.0960 H   0  0  0  0  0  0  0  0  0  0  0  0
   37.7380   29.9640   44.2310 H   0  0  0  0  0  0  0  0  0  0  0  0
   36.6420   25.8880   39.8510 C   0  0  0  0  0  0  0  0  0  0  0  0
   37.2520   25.7530   41.0880 C   0  0  0  0  0  0  0  0  0  0  0  0
   37.7810   24.5360   41.5370 C   0  0  0  0  0  0  0  0  0  0  0  0
   37.6970   23.4050   40.7150 C   0  0  0  0  0  0  0  0  0  0  0  0
   38.0890   22.1040   40.8220 N   0  0  0  0  0  0  0  0  0  0  0  0
   37.7180   21.4700   39.6650 C   0  0  0  0  0  0  0  0  0  0  0  0
   37.1050   22.4000   38.8730 N   0  0  0  0  0  0  0  0  0  0  0  0
   37.0840   23.5830   39.4980 C   0  0  0  0  0  0  0  0  0  0  0  0
   36.5580   24.7590   39.0320 C   0  0  0  0  0  0  0  0  0  0  0  0
   36.2340   26.8250   39.5050 H   0  0  0  0  0  0  0  0  0  0  0  0
   38.2570   24.4350   42.5040 H   0  0  0  0  0  0  0  0  0  0  0  0
   38.5770   21.7210   41.6560 H   0  0  0  0  0  0  0  0  0  0  0  0
   37.8910   20.4260   39.4480 H   0  0  0  0  0  0  0  0  0  0  0  0
   36.0810   24.8680   38.0680 H   0  0  0  0  0  0  0  0  0  0  0  0
   36.0800   30.8870   40.6560 Cl  0  0  0  0  0  0  0  0  0  0  0  0
   37.7700   31.1890   40.9200 C   0  0  0  0  0  0  0  0  0  0  0  0
   38.5910   30.3680   41.6560 C   0  0  0  0  0  0  0  0  0  0  0  0
   39.9110   30.7340   41.7820 C   0  0  0  0  0  0  0  0  0  0  0  0
   40.5930   30.1400   42.3370 H   0  0  0  0  0  0  0  0  0  0  0  0
   40.3820   31.8810   41.1890 C   0  0  0  0  0  3  0  0  0  0  0  0
   39.5820   32.7240   40.4450 C   0  0  0  0  0  0  0  0  0  0  0  0
   40.1740   34.1870   39.6880 Cl  0  0  0  0  0  0  0  0  0  0  0  0
   38.2440   32.3410   40.3260 C   0  0  0  0  0  0  0  0  0  0  0  0
   37.6350   33.0190   39.7370 H   0  0  0  0  0  0  0  0  0  0  0  0
  1  7  1  0  0  0  0
  2  1  1  0  0  0  0
  2  8  1  0  0  0  0
  3  2  2  0  0  0  0
  4  5  2  0  0  0  0
  4  3  1  0  0  0  0
  5  6  1  0  0  0  0
  6  1  2  0  0  0  0
  9 10  1  0  0  0  0
 10 11  2  0  0  0  0
 10  5  1  0  0  0  0
 11 19  1  0  0  0  0
 12 13  1  0  0  0  0
 12 11  1  0  0  0  0
 13 20  1  0  0  0  0
 14 13  1  0  0  0  0
 15 16  1  0  0  0  0
 15 14  2  0  0  0  0
 16 12  2  0  0  0  0
 17 16  1  0  0  0  0
 17  9  2  0  0  0  0
 18  9  1  0  0  0  0
 21 14  1  0  0  0  0
 22 17  1  0  0  0  0
 23 24  1  0  0  0  0
 24 25  1  0  0  0  0
 25 26  2  0  0  0  0
 25  3  1  0  0  0  0
 26 27  1  0  0  0  0
 28 26  1  0  0  0  0
 29 28  2  0  0  0  0
 30 29  1  0  0  0  0
 31 29  1  0  0  0  0
 31 24  2  0  0  0  0
 32 31  1  0  0  0  0
M  END
>  <minimizedAffinity>
-6.04137802

$$$$

 OpenBabel03242513023D

 32 35  0  0  0  0  0  0  0  0999 V2000
   37.0890   27.8210   43.6850 C   0  0  0  0  0  0  0  0  0  0  0  0
   37.1320   26.6940   42.8630 C   0  0  0  0  0  0  0  0  0  0  0  0
   37.4350   26.8690   41.5100 C   0  0  0  0  0  0  0  0  0  0  0  0
   37.6660   28.1450   41.1000 N   0  0  0  0  0  0  0  0  0  0  0  0
   37.6220   29.2160   41.8960 C   0  0  0  0  0  0  0  0  0  0  0  0
   37.3340   29.0520   43.1850 N   0  0  0  0  0  0  0  0  0  0  0  0
   36.8570   27.6740   44.7180 H   0  0  0  0  0  0  0  0  0  0  0  0
   36.9390   25.7050   43.2470 H   0  0  0  0  0  0  0  0  0  0  0  0
   36.9380   31.1730   40.5560 C   0  0  0  0  0  0  0  0  0  0  0  0
   37.8900   30.5290   41.3310 C   0  0  0  0  0  0  0  0  0  0  0  0
   39.1410   31.0950   41.6080 C   0  0  0  0  0  0  0  0  0  0  0  0
   39.4550   32.3570   41.0910 C   0  0  0  0  0  0  0  0  0  0  0  0
   40.5370   33.1840   41.1560 N   0  0  0  0  0  0  0  0  0  0  0  0
   40.2360   34.3060   40.4290 C   0  0  0  0  0  0  0  0  0  0  0  0
   38.9720   34.1420   39.9350 N   0  0  0  0  0  0  0  0  0  0  0  0
   38.4830   32.9590   40.3290 C   0  0  0  0  0  0  0  0  0  0  0  0
   37.2520   32.4330   40.0400 C   0  0  0  0  0  0  0  0  0  0  0  0
   35.9740   30.7380   40.3420 H   0  0  0  0  0  0  0  0  0  0  0  0
   39.8820   30.5870   42.2140 H   0  0  0  0  0  0  0  0  0  0  0  0
   41.4050   32.9490   41.6770 H   0  0  0  0  0  0  0  0  0  0  0  0
   40.8960   35.1500   40.2900 H   0  0  0  0  0  0  0  0  0  0  0  0
   36.5070   32.9320   39.4360 H   0  0  0  0  0  0  0  0  0  0  0  0
   40.0710   25.3260   41.4590 Cl  0  0  0  0  0  0  0  0  0  0  0  0
   38.6630   25.0290   40.4870 C   0  0  0  0  0  0  0  0  0  0  0  0
   37.5060   25.7670   40.5640 C   0  0  0  0  0  0  0  0  0  0  0  0
   36.4700   25.4160   39.7320 C   0  0  0  0  0  0  0  0  0  0  0  0
   35.5520   25.9480   39.7450 H   0  0  0  0  0  0  0  0  0  0  0  0
   36.5960   24.3630   38.8560 C   0  0  0  0  0  3  0  0  0  0  0  0
   37.7450   23.6050   38.7560 C   0  0  0  0  0  0  0  0  0  0  0  0
   37.9140   22.2630   37.6450 Cl  0  0  0  0  0  0  0  0  0  0  0  0
   38.7890   23.9720   39.6080 C   0  0  0  0  0  0  0  0  0  0  0  0
   39.6810   23.3610   39.5110 H   0  0  0  0  0  0  0  0  0  0  0  0
  1  7  1  0  0  0  0
  2  8  1  0  0  0  0
  2  1  2  0  0  0  0
  3  2  1  0  0  0  0
  4  3  2  0  0  0  0
  4  5  1  0  0  0  0
  5  6  2  0  0  0  0
  6  1  1  0  0  0  0
  9 10  1  0  0  0  0
 10 11  2  0  0  0  0
 10  5  1  0  0  0  0
 11 19  1  0  0  0  0
 12 13  1  0  0  0  0
 12 11  1  0  0  0  0
 13 20  1  0  0  0  0
 14 13  1  0  0  0  0
 15 16  1  0  0  0  0
 15 14  2  0  0  0  0
 16 12  2  0  0  0  0
 17 16  1  0  0  0  0
 17  9  2  0  0  0  0
 18  9  1  0  0  0  0
 21 14  1  0  0  0  0
 22 17  1  0  0  0  0
 24 25  1  0  0  0  0
 24 23  1  0  0  0  0
 25  3  1  0  0  0  0
 26 27  1  0  0  0  0
 26 25  2  0  0  0  0
 28 26  1  0  0  0  0
 29 28  2  0  0  0  0
 29 31  1  0  0  0  0
 30 29  1  0  0  0  0
 31 24  2  0  0  0  0
 32 31  1  0  0  0  0
M  END
>  <minimizedAffinity>
-5.98452568

$$$$

 OpenBabel03242513023D

 32 35  0  0  0  0  0  0  0  0999 V2000
   38.5640   35.0410   40.1630 C   0  0  0  0  0  0  0  0  0  0  0  0
   37.8160   33.9010   39.8670 C   0  0  0  0  0  0  0  0  0  0  0  0
   38.4890   32.7650   39.4110 C   0  0  0  0  0  0  0  0  0  0  0  0
   39.8410   32.8660   39.2920 N   0  0  0  0  0  0  0  0  0  0  0  0
   40.5450   33.9640   39.5780 C   0  0  0  0  0  0  0  0  0  0  0  0
   39.9060   35.0480   40.0120 N   0  0  0  0  0  0  0  0  0  0  0  0
   38.0380   35.9040   40.5110 H   0  0  0  0  0  0  0  0  0  0  0  0
   36.7450   33.8810   39.9810 H   0  0  0  0  0  0  0  0  0  0  0  0
   42.8330   34.0960   40.4970 C   0  0  0  0  0  0  0  0  0  0  0  0
   41.9900   33.9410   39.4070 C   0  0  0  0  0  0  0  0  0  0  0  0
   42.4700   33.7580   38.1050 C   0  0  0  0  0  0  0  0  0  0  0  0
   43.8520   33.7270   37.8790 C   0  0  0  0  0  0  0  0  0  0  0  0
   44.6470   33.5720   36.7830 N   0  0  0  0  0  0  0  0  0  0  0  0
   45.9480   33.6340   37.2100 C   0  0  0  0  0  0  0  0  0  0  0  0
   45.9200   33.8250   38.5640 N   0  0  0  0  0  0  0  0  0  0  0  0
   44.6510   33.8840   38.9860 C   0  0  0  0  0  0  0  0  0  0  0  0
   44.2120   34.0650   40.2710 C   0  0  0  0  0  0  0  0  0  0  0  0
   42.4630   34.2380   41.5010 H   0  0  0  0  0  0  0  0  0  0  0  0
   41.8070   33.6370   37.2570 H   0  0  0  0  0  0  0  0  0  0  0  0
   44.2750   33.4360   35.8220 H   0  0  0  0  0  0  0  0  0  0  0  0
   46.8150   33.5440   36.5720 H   0  0  0  0  0  0  0  0  0  0  0  0
   44.8660   34.1860   41.1230 H   0  0  0  0  0  0  0  0  0  0  0  0
   38.3550   30.6720   41.6320 Cl  0  0  0  0  0  0  0  0  0  0  0  0
   37.7140   30.5360   40.0240 C   0  0  0  0  0  0  0  0  0  0  0  0
   37.8110   31.5240   39.0720 C   0  0  0  0  0  0  0  0  0  0  0  0
   37.2550   31.2770   37.8390 C   0  0  0  0  0  0  0  0  0  0  0  0
   37.2990   32.0000   37.0640 H   0  0  0  0  0  0  0  0  0  0  0  0
   36.6270   30.0820   37.5770 C   0  0  0  0  0  3  0  0  0  0  0  0
   36.5140   29.0740   38.5120 C   0  0  0  0  0  0  0  0  0  0  0  0
   35.7150   27.5500   38.1870 Cl  0  0  0  0  0  0  0  0  0  0  0  0
   37.0830   29.3380   39.7600 C   0  0  0  0  0  0  0  0  0  0  0  0
   36.9810   28.5300   40.4780 H   0  0  0  0  0  0  0  0  0  0  0  0
  1  7  1  0  0  0  0
  2  8  1  0  0  0  0
  2  1  2  0  0  0  0
  3  2  1  0  0  0  0
  4  3  2  0  0  0  0
  4  5  1  0  0  0  0
  5  6  2  0  0  0  0
  6  1  1  0  0  0  0
  9 18  1  0  0  0  0
 10  5  1  0  0  0  0
 10  9  2  0  0  0  0
 11 10  1  0  0  0  0
 12 11  2  0  0  0  0
 12 16  1  0  0  0  0
 13 14  1  0  0  0  0
 13 12  1  0  0  0  0
 14 15  2  0  0  0  0
 15 16  1  0  0  0  0
 16 17  2  0  0  0  0
 17  9  1  0  0  0  0
 17 22  1  0  0  0  0
 19 11  1  0  0  0  0
 20 13  1  0  0  0  0
 21 14  1  0  0  0  0
 24 23  1  0  0  0  0
 25  3  1  0  0  0  0
 25 24  2  0  0  0  0
 26 25  1  0  0  0  0
 27 26  1  0  0  0  0
 28 26  2  0  0  0  0
 28 29  1  0  0  0  0
 29 31  2  0  0  0  0
 30 29  1  0  0  0  0
 31 24  1  0  0  0  0
 31 32  1  0  0  0  0
M  END
>  <minimizedAffinity>
-5.95101833

$$$$

 OpenBabel03242513023D

 32 35  0  0  0  0  0  0  0  0999 V2000
   39.9350   27.6270   43.4120 C   0  0  0  0  0  0  0  0  0  0  0  0
   39.4500   26.4430   42.8580 C   0  0  0  0  0  0  0  0  0  0  0  0
   38.6000   26.5250   41.7520 C   0  0  0  0  0  0  0  0  0  0  0  0
   38.3120   27.7760   41.3000 N   0  0  0  0  0  0  0  0  0  0  0  0
   38.7830   28.9030   41.8390 C   0  0  0  0  0  0  0  0  0  0  0  0
   39.5920   28.8260   42.8930 N   0  0  0  0  0  0  0  0  0  0  0  0
   40.5840   27.5510   44.2580 H   0  0  0  0  0  0  0  0  0  0  0  0
   39.7140   25.4790   43.2620 H   0  0  0  0  0  0  0  0  0  0  0  0
   37.2500   30.2870   40.4870 C   0  0  0  0  0  0  0  0  0  0  0  0
   38.3970   30.1790   41.2590 C   0  0  0  0  0  0  0  0  0  0  0  0
   39.2330   31.2720   41.5190 C   0  0  0  0  0  0  0  0  0  0  0  0
   38.9110   32.5260   40.9870 C   0  0  0  0  0  0  0  0  0  0  0  0
   39.4750   33.7670   41.0330 N   0  0  0  0  0  0  0  0  0  0  0  0
   38.6770   34.6050   40.2980 C   0  0  0  0  0  0  0  0  0  0  0  0
   37.6390   33.8570   39.8180 N   0  0  0  0  0  0  0  0  0  0  0  0
   37.7680   32.5880   40.2280 C   0  0  0  0  0  0  0  0  0  0  0  0
   36.9300   31.5400   39.9550 C   0  0  0  0  0  0  0  0  0  0  0  0
   36.6050   29.4450   40.2850 H   0  0  0  0  0  0  0  0  0  0  0  0
   40.1280   31.1830   42.1230 H   0  0  0  0  0  0  0  0  0  0  0  0
   40.3530   33.9770   41.5480 H   0  0  0  0  0  0  0  0  0  0  0  0
   38.8600   35.6580   40.1450 H   0  0  0  0  0  0  0  0  0  0  0  0
   36.0350   31.6190   39.3540 H   0  0  0  0  0  0  0  0  0  0  0  0
   40.3870   25.1710   39.6770 Cl  0  0  0  0  0  0  0  0  0  0  0  0
   38.7850   24.6970   40.1500 C   0  0  0  0  0  0  0  0  0  0  0  0
   38.0360   25.3570   41.0960 C   0  0  0  0  0  0  0  0  0  0  0  0
   36.7810   24.8670   41.3690 C   0  0  0  0  0  0  0  0  0  0  0  0
   36.1550   25.3330   42.0890 H   0  0  0  0  0  0  0  0  0  0  0  0
   36.3010   23.7570   40.7150 C   0  0  0  0  0  3  0  0  0  0  0  0
   37.0290   23.0750   39.7620 C   0  0  0  0  0  0  0  0  0  0  0  0
   36.4250   21.6610   38.9250 Cl  0  0  0  0  0  0  0  0  0  0  0  0
   38.3020   23.5830   39.4940 C   0  0  0  0  0  0  0  0  0  0  0  0
   38.8550   23.0300   38.7410 H   0  0  0  0  0  0  0  0  0  0  0  0
  1  7  1  0  0  0  0
  2  8  1  0  0  0  0
  2  1  2  0  0  0  0
  3  2  1  0  0  0  0
  4  3  2  0  0  0  0
  4  5  1  0  0  0  0
  5  6  2  0  0  0  0
  6  1  1  0  0  0  0
  9 10  1  0  0  0  0
 10 11  2  0  0  0  0
 10  5  1  0  0  0  0
 11 19  1  0  0  0  0
 12 13  1  0  0  0  0
 12 11  1  0  0  0  0
 13 20  1  0  0  0  0
 14 13  1  0  0  0  0
 15 16  1  0  0  0  0
 15 14  2  0  0  0  0
 16 12  2  0  0  0  0
 17 16  1  0  0  0  0
 17  9  2  0  0  0  0
 18  9  1  0  0  0  0
 21 14  1  0  0  0  0
 22 17  1  0  0  0  0
 23 24  1  0  0  0  0
 24 25  1  0  0  0  0
 25 26  2  0  0  0  0
 25  3  1  0  0  0  0
 26 27  1  0  0  0  0
 28 26  1  0  0  0  0
 29 28  2  0  0  0  0
 30 29  1  0  0  0  0
 31 29  1  0  0  0  0
 31 24  2  0  0  0  0
 32 31  1  0  0  0  0
M  END
>  <minimizedAffinity>
-5.93778324

$$$$

 OpenBabel03242513023D

 32 35  0  0  0  0  0  0  0  0999 V2000
   35.8460   30.6230   40.9740 C   0  0  0  0  0  0  0  0  0  0  0  0
   35.8680   29.2280   40.9590 C   0  0  0  0  0  0  0  0  0  0  0  0
   37.0640   28.5850   40.6270 C   0  0  0  0  0  0  0  0  0  0  0  0
   38.1250   29.3870   40.3410 N   0  0  0  0  0  0  0  0  0  0  0  0
   38.0910   30.7210   40.3570 C   0  0  0  0  0  0  0  0  0  0  0  0
   36.9540   31.3360   40.6730 N   0  0  0  0  0  0  0  0  0  0  0  0
   34.9260   31.1030   41.2290 H   0  0  0  0  0  0  0  0  0  0  0  0
   34.9930   28.6450   41.1960 H   0  0  0  0  0  0  0  0  0  0  0  0
   40.2270   31.7710   41.0130 C   0  0  0  0  0  0  0  0  0  0  0  0
   39.2990   31.4630   40.0300 C   0  0  0  0  0  0  0  0  0  0  0  0
   39.4670   31.8420   38.6920 C   0  0  0  0  0  0  0  0  0  0  0  0
   40.6110   32.5570   38.3180 C   0  0  0  0  0  0  0  0  0  0  0  0
   41.0880   33.0700   37.1490 N   0  0  0  0  0  0  0  0  0  0  0  0
   42.2840   33.6770   37.4280 C   0  0  0  0  0  0  0  0  0  0  0  0
   42.5150   33.5210   38.7660 N   0  0  0  0  0  0  0  0  0  0  0  0
   41.5040   32.8410   39.3230 C   0  0  0  0  0  0  0  0  0  0  0  0
   41.3690   32.4860   40.6390 C   0  0  0  0  0  0  0  0  0  0  0  0
   40.0990   31.4800   42.0440 H   0  0  0  0  0  0  0  0  0  0  0  0
   38.7380   31.5980   37.9280 H   0  0  0  0  0  0  0  0  0  0  0  0
   40.5880   32.9860   36.2420 H   0  0  0  0  0  0  0  0  0  0  0  0
   42.9090   34.1790   36.7030 H   0  0  0  0  0  0  0  0  0  0  0  0
   42.0900   32.7240   41.4080 H   0  0  0  0  0  0  0  0  0  0  0  0
   37.8690   27.2390   43.2490 Cl  0  0  0  0  0  0  0  0  0  0  0  0
   37.5610   26.4660   41.7240 C   0  0  0  0  0  0  0  0  0  0  0  0
   37.2000   27.1380   40.5810 C   0  0  0  0  0  0  0  0  0  0  0  0
   36.9870   26.3940   39.4450 C   0  0  0  0  0  0  0  0  0  0  0  0
   36.7080   26.8560   38.5310 H   0  0  0  0  0  0  0  0  0  0  0  0
   37.1330   25.0270   39.4610 C   0  0  0  0  0  3  0  0  0  0  0  0
   37.4940   24.3250   40.5930 C   0  0  0  0  0  0  0  0  0  0  0  0
   37.6810   22.5850   40.6240 Cl  0  0  0  0  0  0  0  0  0  0  0  0
   37.7060   25.0930   41.7400 C   0  0  0  0  0  0  0  0  0  0  0  0
   37.9890   24.5190   42.6180 H   0  0  0  0  0  0  0  0  0  0  0  0
  1  7  1  0  0  0  0
  2  1  1  0  0  0  0
  2  8  1  0  0  0  0
  3  2  2  0  0  0  0
  4  5  2  0  0  0  0
  4  3  1  0  0  0  0
  5  6  1  0  0  0  0
  6  1  2  0  0  0  0
  9 18  1  0  0  0  0
 10  5  1  0  0  0  0
 10  9  2  0  0  0  0
 11 10  1  0  0  0  0
 12 11  2  0  0  0  0
 12 16  1  0  0  0  0
 13 14  1  0  0  0  0
 13 12  1  0  0  0  0
 14 15  2  0  0  0  0
 15 16  1  0  0  0  0
 16 17  2  0  0  0  0
 17  9  1  0  0  0  0
 17 22  1  0  0  0  0
 19 11  1  0  0  0  0
 20 13  1  0  0  0  0
 21 14  1  0  0  0  0
 24 31  1  0  0  0  0
 24 23  1  0  0  0  0
 25  3  1  0  0  0  0
 25 24  2  0  0  0  0
 26 28  2  0  0  0  0
 26 25  1  0  0  0  0
 27 26  1  0  0  0  0
 28 29  1  0  0  0  0
 29 30  1  0  0  0  0
 29 31  2  0  0  0  0
 31 32  1  0  0  0  0
M  END
>  <minimizedAffinity>
-5.91563129

$$$$
