
 OpenBabel03252506523D

 32 35  0  0  0  0  0  0  0  0999 V2000
   47.2790   31.4610   44.8530 C   0  0  0  0  0  0  0  0  0  0  0  0
   46.9760   32.8040   44.7370 C   0  0  0  0  0  0  0  0  0  0  0  0
   46.1950   33.4910   45.6590 C   0  0  0  0  0  0  0  0  0  0  0  0
   45.6910   32.7820   46.7590 C   0  0  0  0  0  0  0  0  0  0  0  0
   44.9120   33.1080   47.8350 N   0  0  0  0  0  0  0  0  0  0  0  0
   44.7460   31.9890   48.5880 C   0  0  0  0  0  0  0  0  0  0  0  0
   45.4180   30.9960   47.9730 N   0  0  0  0  0  0  0  0  0  0  0  0
   46.0060   31.4490   46.8520 C   0  0  0  0  0  0  0  0  0  0  0  0
   46.7740   30.7650   45.9490 C   0  0  0  0  0  0  0  0  0  0  0  0
   47.8970   30.9820   44.0940 H   0  0  0  0  0  0  0  0  0  0  0  0
   45.9620   34.5260   45.5690 H   0  0  0  0  0  0  0  0  0  0  0  0
   44.5340   34.0670   48.0060 H   0  0  0  0  0  0  0  0  0  0  0  0
   44.1680   32.0210   49.4800 H   0  0  0  0  0  0  0  0  0  0  0  0
   48.9620   30.0210   47.8630 Cl  0  0  0  0  0  0  0  0  0  0  0  0
   48.1010   28.8320   46.8860 C   0  0  0  0  0  0  0  0  0  0  0  0
   47.1100   29.3470   46.0460 C   0  0  0  0  0  0  0  0  0  0  0  0
   46.4230   28.4260   45.2700 C   0  0  0  0  0  0  0  0  0  0  0  0
   45.6460   28.7920   44.6050 H   0  0  0  0  0  0  0  0  0  0  0  0
   46.6590   27.0620   45.2820 C   0  0  0  0  0  3  0  0  0  0  0  0
   47.6370   26.6140   46.1220 C   0  0  0  0  0  0  0  0  0  0  0  0
   47.9900   24.9100   46.1920 Cl  0  0  0  0  0  0  0  0  0  0  0  0
   48.3470   27.4760   46.9100 C   0  0  0  0  0  0  0  0  0  0  0  0
   49.1350   27.1590   47.5920 H   0  0  0  0  0  0  0  0  0  0  0  0
   47.2500   35.2780   42.0220 C   0  0  0  0  0  0  0  0  0  0  0  0
   48.5070   34.9570   41.4620 C   0  0  0  0  0  0  0  0  0  0  0  0
   49.2520   33.8930   42.0220 C   0  0  0  0  0  0  0  0  0  0  0  0
   48.6960   33.2350   43.0840 N   0  0  0  0  0  0  0  0  0  0  0  0
   47.4890   33.5650   43.5990 C   0  0  0  0  0  0  0  0  0  0  0  0
   46.7930   34.5680   43.0680 N   0  0  0  0  0  0  0  0  0  0  0  0
   46.7280   36.0940   41.5570 H   0  0  0  0  0  0  0  0  0  0  0  0
   48.9700   35.4590   40.6230 H   0  0  0  0  0  0  0  0  0  0  0  0
   50.2060   33.5780   41.6690 H   0  0  0  0  0  0  0  0  0  0  0  0
  1  9  1  0  0  0  0
  2  1  2  0  0  0  0
  2  3  1  0  0  0  0
  3  4  2  0  0  0  0
  4  8  1  0  0  0  0
  4  5  1  0  0  0  0
  5 12  1  0  0  0  0
  5  6  1  0  0  0  0
  6 13  1  0  0  0  0
  7  6  2  0  0  0  0
  8  7  1  0  0  0  0
  9 16  1  0  0  0  0
  9  8  2  0  0  0  0
 10  1  1  0  0  0  0
 11  3  1  0  0  0  0
 15 22  1  0  0  0  0
 15 14  1  0  0  0  0
 16 15  2  0  0  0  0
 17 19  2  0  0  0  0
 17 16  1  0  0  0  0
 18 17  1  0  0  0  0
 19 20  1  0  0  0  0
 20 21  1  0  0  0  0
 20 22  2  0  0  0  0
 22 23  1  0  0  0  0
 24 29  1  0  0  0  0
 25 26  1  0  0  0  0
 25 24  2  0  0  0  0
 26 27  2  0  0  0  0
 27 28  1  0  0  0  0
 28  2  1  0  0  0  0
 29 28  2  0  0  0  0
 30 24  1  0  0  0  0
 31 25  1  0  0  0  0
 32 26  1  0  0  0  0
M  END
>  <minimizedAffinity>
-5.35674143

>  <minimizedRMSD>
0.886718154

$$$$
