
 OpenBabel03252503133D

 35 38  0  0  0  0  0  0  0  0999 V2000
   46.9690   34.7610   41.9300 C   0  0  0  0  0  0  0  0  0  0  0  0
   48.1800   35.1070   42.0570 O   0  0  0  0  0  0  0  0  0  0  0  0
   45.5420   36.2390   43.2720 C   0  0  0  0  0  0  0  0  0  0  0  0
   46.1470   34.9800   43.0660 C   0  0  0  0  0  0  0  0  0  0  0  0
   45.8650   34.0370   44.0330 C   0  0  0  0  0  0  0  0  0  0  0  0
   45.0660   34.3000   45.1000 N   0  0  0  0  0  0  0  0  0  0  0  0
   44.5120   35.5290   45.2450 C   0  0  0  0  0  0  0  0  0  0  0  0
   44.7470   36.4880   44.3400 N   0  0  0  0  0  0  0  0  0  0  0  0
   45.7070   37.0470   42.5600 H   0  0  0  0  0  0  0  0  0  0  0  0
   43.8830   35.6790   46.1170 H   0  0  0  0  0  0  0  0  0  0  0  0
   46.4290   32.7570   43.9170 C   0  0  0  0  0  0  0  0  0  0  0  0
   47.6360   32.2100   44.2890 C   0  0  0  0  0  0  0  0  0  0  0  0
   47.9260   30.9360   44.0560 C   0  0  0  0  0  0  0  0  0  0  0  0
   46.9830   30.1830   43.4330 C   0  0  0  0  0  0  0  0  0  0  0  0
   45.6110   31.3830   43.1730 S   0  0  0  0  0  0  0  0  0  0  0  0
   48.3300   32.9170   44.7900 H   0  0  0  0  0  0  0  0  0  0  0  0
   48.8480   30.4420   44.3190 H   0  0  0  0  0  0  0  0  0  0  0  0
   46.9650   29.1300   43.1290 H   0  0  0  0  0  0  0  0  0  0  0  0
   46.3870   34.1580   40.6870 C   0  0  0  0  0  0  0  0  0  0  0  0
   45.0360   34.0760   40.3750 C   0  0  0  0  0  0  0  0  0  0  0  0
   44.9820   33.4660   39.1780 N   0  0  0  0  0  0  0  0  0  0  0  0
   46.2670   33.1870   38.7760 C   0  0  0  0  0  0  0  0  0  0  0  0
   47.1350   33.6190   39.7170 N   0  0  0  0  0  0  0  0  0  0  0  0
   44.2010   34.4320   40.9790 H   0  0  0  0  0  0  0  0  0  0  0  0
   44.1380   33.2380   38.6360 H   0  0  0  0  0  0  0  0  0  0  0  0
   48.2840   34.6150   37.1670 Cl  0  0  0  0  0  0  0  0  0  0  0  0
   47.6070   33.0720   36.6830 C   0  0  0  0  0  0  0  0  0  0  0  0
   46.6790   32.5250   37.5290 C   0  0  0  0  0  0  0  0  0  0  0  0
   46.0870   31.2960   37.2220 C   0  0  0  0  0  0  0  0  0  0  0  0
   45.3530   30.8150   37.8430 H   0  0  0  0  0  0  0  0  0  0  0  0
   46.4880   30.6830   36.0370 C   0  0  0  0  0  0  0  0  0  0  0  0
   47.4250   31.2550   35.2010 C   0  0  0  0  0  0  0  0  0  0  0  0
   47.9550   30.5130   33.7020 Cl  0  0  0  0  0  0  0  0  0  0  0  0
   48.0090   32.4710   35.5080 C   0  0  0  0  0  0  0  0  0  0  0  0
   48.7480   32.9850   34.9090 H   0  0  0  0  0  0  0  0  0  0  0  0
  1  2  2  0  0  0  0
  1  4  1  0  0  0  0
  3  8  1  0  0  0  0
  4  3  2  0  0  0  0
  4  5  1  0  0  0  0
  5  6  2  0  0  0  0
  6  7  1  0  0  0  0
  7 10  1  0  0  0  0
  8  7  2  0  0  0  0
  9  3  1  0  0  0  0
 11  5  1  0  0  0  0
 11 12  2  0  0  0  0
 12 16  1  0  0  0  0
 13 12  1  0  0  0  0
 13 17  1  0  0  0  0
 14 13  2  0  0  0  0
 15 14  1  0  0  0  0
 15 11  1  0  0  0  0
 18 14  1  0  0  0  0
 19  1  1  0  0  0  0
 20 19  2  0  0  0  0
 20 24  1  0  0  0  0
 21 20  1  0  0  0  0
 22 21  1  0  0  0  0
 22 23  2  0  0  0  0
 23 19  1  0  0  0  0
 25 21  1  0  0  0  0
 27 26  1  0  0  0  0
 27 28  1  0  0  0  0
 28 22  1  0  0  0  0
 29 28  2  0  0  0  0
 29 30  1  0  0  0  0
 31 29  1  0  0  0  0
 32 34  1  0  0  0  0
 32 31  2  0  0  0  0
 33 32  1  0  0  0  0
 34 27  2  0  0  0  0
 35 34  1  0  0  0  0
M  END
>  <minimizedAffinity>
-5.44850302

>  <minimizedRMSD>
0.89052856

$$$$
