
 OpenBabel03252505403D

 29 31  0  0  1  0  0  0  0  0999 V2000
   44.6760   34.6660   43.3750 C   0  0  1  0  0  0  0  0  0  0  0  0
   45.8370   35.6720   43.1630 C   0  0  0  0  0  0  0  0  0  0  0  0
   45.0450   35.1450   42.0480 C   0  0  1  0  0  0  0  0  0  0  0  0
   43.8130   35.0640   43.9370 H   0  0  0  0  0  0  0  0  0  0  0  0
   45.5900   36.6860   43.6000 H   0  0  0  0  0  0  0  0  0  0  0  0
   46.7890   35.3190   43.5410 H   0  0  0  0  0  0  0  0  0  0  0  0
   44.3020   35.9600   41.6700 H   0  0  0  0  0  0  0  0  0  0  0  0
   43.1080   33.6490   40.0470 Cl  0  0  0  0  0  0  0  0  0  0  0  0
   44.8510   33.6550   39.9590 C   0  0  0  0  0  0  0  0  0  0  0  0
   45.5180   34.3730   40.9200 C   0  0  0  0  0  0  0  0  0  0  0  0
   46.9110   34.2910   40.7350 C   0  0  0  0  0  0  0  0  0  0  0  0
   47.5800   34.8130   41.4240 H   0  0  0  0  0  0  0  0  0  0  0  0
   47.5250   33.5850   39.7250 C   0  0  0  0  0  3  0  0  0  0  0  0
   46.7720   32.8910   38.8030 C   0  0  0  0  0  0  0  0  0  0  0  0
   47.5860   32.0180   37.5510 Cl  0  0  0  0  0  0  0  0  0  0  0  0
   45.4010   32.9340   38.9320 C   0  0  0  0  0  0  0  0  0  0  0  0
   44.8020   32.4000   38.2230 H   0  0  0  0  0  0  0  0  0  0  0  0
   45.1120   33.3430   43.9110 C   0  0  0  0  0  0  0  0  0  0  0  0
   44.9090   32.2020   43.1340 C   0  0  0  0  0  0  0  0  0  0  0  0
   45.3530   31.0010   43.6370 C   0  0  0  0  0  0  0  0  0  0  0  0
   45.9590   30.9820   44.8500 N   0  0  0  0  0  0  0  0  0  0  0  0
   46.1370   32.1000   45.5710 C   0  0  0  0  0  0  0  0  0  0  0  0
   45.7100   33.2980   45.1010 N   0  0  0  0  0  0  0  0  0  0  0  0
   44.4460   32.1220   42.1870 H   0  0  0  0  0  0  0  0  0  0  0  0
   45.2430   30.0550   43.1100 H   0  0  0  0  0  0  0  0  0  0  0  0
   46.8310   31.8700   46.8810 C   0  0  0  0  0  0  0  0  0  0  0  0
   47.4220   33.0260   47.3570 F   0  0  0  0  0  0  0  0  0  0  0  0
   47.8310   30.9070   46.7300 F   0  0  0  0  0  0  0  0  0  0  0  0
   45.9190   31.3500   47.7910 F   0  0  0  0  0  0  0  0  0  0  0  0
  1 18  1  0  0  0  0
  1  4  1  1  0  0  0
  2  1  1  0  0  0  0
  2  6  1  0  0  0  0
  2  5  1  0  0  0  0
  3  7  1  6  0  0  0
  3  2  1  0  0  0  0
  3  1  1  0  0  0  0
  9  8  1  0  0  0  0
  9 10  1  0  0  0  0
 10  3  1  0  0  0  0
 11 10  2  0  0  0  0
 11 12  1  0  0  0  0
 13 11  1  0  0  0  0
 14 16  1  0  0  0  0
 14 13  2  0  0  0  0
 15 14  1  0  0  0  0
 16  9  2  0  0  0  0
 17 16  1  0  0  0  0
 18 23  1  0  0  0  0
 19 20  1  0  0  0  0
 19 18  2  0  0  0  0
 20 21  2  0  0  0  0
 21 22  1  0  0  0  0
 22 26  1  0  0  0  0
 23 22  2  0  0  0  0
 24 19  1  0  0  0  0
 25 20  1  0  0  0  0
 26 27  1  0  0  0  0
 26 29  1  0  0  0  0
 28 26  1  0  0  0  0
M  END
>  <minimizedAffinity>
-4.63957977

>  <minimizedRMSD>
2.64653945

$$$$
