
 OpenBabel03252508463D

 46 48  0  0  0  0  0  0  0  0999 V2000
   42.6680   31.3590   42.6130 N   0  0  0  0  0  0  0  0  0  0  0  0
   42.9510   31.6280   43.5930 H   0  0  0  0  0  0  0  0  0  0  0  0
   42.9650   32.4100   41.6920 C   0  0  0  0  0  0  0  0  0  0  0  0
   43.4530   31.9820   40.7950 H   0  0  0  0  0  0  0  0  0  0  0  0
   42.0370   32.9160   41.3230 H   0  0  0  0  0  0  0  0  0  0  0  0
   43.6650   34.8100   41.9180 C   0  0  0  0  0  0  0  0  0  0  0  0
   43.8740   33.4620   42.2360 C   0  0  0  0  0  0  0  0  0  0  0  0
   44.9330   33.1420   43.0590 C   0  0  0  0  0  0  0  0  0  0  0  0
   45.7540   34.1150   43.5480 C   0  0  0  0  0  0  0  0  0  0  0  0
   45.5680   35.4470   43.2480 C   0  0  0  0  0  0  0  0  0  0  0  0
   44.4940   35.7390   42.4180 C   0  0  0  0  0  0  0  0  0  0  0  0
   45.0480   32.0860   43.2720 H   0  0  0  0  0  0  0  0  0  0  0  0
   46.5620   33.7820   44.1850 H   0  0  0  0  0  0  0  0  0  0  0  0
   46.2380   36.1870   43.6550 H   0  0  0  0  0  0  0  0  0  0  0  0
   44.3140   36.7750   42.1600 H   0  0  0  0  0  0  0  0  0  0  0  0
   40.2620   35.7110   40.5590 C   0  0  0  0  0  0  0  0  0  0  0  0
   41.2770   35.4590   41.5050 C   0  0  0  0  0  0  0  0  0  0  0  0
   42.5390   35.0950   41.0490 C   0  0  0  0  0  0  0  0  0  0  0  0
   42.7090   35.0050   39.6960 N   0  0  0  0  0  0  0  0  0  0  0  0
   41.7170   35.2530   38.8050 C   0  0  0  0  0  0  0  0  0  0  0  0
   40.5050   35.6030   39.2510 N   0  0  0  0  0  0  0  0  0  0  0  0
   39.3470   35.9770   41.0460 H   0  0  0  0  0  0  0  0  0  0  0  0
   41.1780   35.5180   42.5610 H   0  0  0  0  0  0  0  0  0  0  0  0
   41.8390   35.1840   37.7460 H   0  0  0  0  0  0  0  0  0  0  0  0
   40.9890   30.9950   42.6810 S   0  0  0  0  0  0  0  0  0  0  0  0
   40.1590   32.2430   42.4890 O   0  0  0  0  0  0  0  0  0  0  0  0
   40.0320   32.6860   41.6010 H   0  0  0  0  0  0  0  0  0  0  0  0
   40.6320   30.3070   43.9440 O   0  0  0  0  0  0  0  0  0  0  0  0
   41.1550   30.1870   44.7710 H   0  0  0  0  0  0  0  0  0  0  0  0
   40.6800   29.9430   41.4040 O   0  0  0  0  0  0  0  0  0  0  0  0
   39.9650   28.8670   41.8660 C   0  0  0  0  0  0  0  0  0  0  0  0
   38.8980   29.0550   41.6250 H   0  0  0  0  0  0  0  0  0  0  0  0
   40.0190   28.6760   42.9450 H   0  0  0  0  0  0  0  0  0  0  0  0
   40.4080   27.6040   41.1030 C   0  0  0  0  0  0  0  0  0  0  0  0
   41.4960   27.6540   41.0610 H   0  0  0  0  0  0  0  0  0  0  0  0
   40.0170   27.6970   40.0940 H   0  0  0  0  0  0  0  0  0  0  0  0
   37.7690   26.3510   40.1670 Cl  0  0  0  0  0  0  0  0  0  0  0  0
   38.7390   25.7400   41.4900 C   0  0  0  0  0  0  0  0  0  0  0  0
   39.9090   26.3950   41.8030 C   0  0  0  0  0  0  0  0  0  0  0  0
   40.6970   25.9160   42.8560 C   0  0  0  0  0  0  0  0  0  0  0  0
   41.6220   26.4140   43.1150 H   0  0  0  0  0  0  0  0  0  0  0  0
   40.3280   24.8050   43.5870 C   0  0  0  0  0  3  0  0  0  0  0  0
   39.1550   24.1830   43.2440 C   0  0  0  0  0  0  0  0  0  0  0  0
   38.7040   22.7660   44.1970 Cl  0  0  0  0  0  0  0  0  0  0  0  0
   38.3370   24.6160   42.2080 C   0  0  0  0  0  0  0  0  0  0  0  0
   37.4050   24.0860   41.9650 H   0  0  0  0  0  0  0  0  0  0  0  0
  1 25  1  0  0  0  0
  1  2  1  0  0  0  0
  3  7  1  0  0  0  0
  3  1  1  0  0  0  0
  4  3  1  0  0  0  0
  5  3  1  0  0  0  0
  6  7  2  0  0  0  0
  6 11  1  0  0  0  0
  7  8  1  0  0  0  0
  8 12  1  0  0  0  0
  8  9  2  0  0  0  0
  9 13  1  0  0  0  0
 10  9  1  0  0  0  0
 10 14  1  0  0  0  0
 11 10  2  0  0  0  0
 15 11  1  0  0  0  0
 16 22  1  0  0  0  0
 16 17  1  0  0  0  0
 17 23  1  0  0  0  0
 18 17  2  0  0  0  0
 18  6  1  0  0  0  0
 19 18  1  0  0  0  0
 20 21  1  0  0  0  0
 20 19  2  0  0  0  0
 21 16  2  0  0  0  0
 24 20  1  0  0  0  0
 25 28  1  0  0  0  0
 26 25  1  0  0  0  0
 27 26  1  0  0  0  0
 28 29  1  0  0  0  0
 30 31  1  0  0  0  0
 30 25  1  0  0  0  0
 31 33  1  0  0  0  0
 32 31  1  0  0  0  0
 34 39  1  0  0  0  0
 34 31  1  0  0  0  0
 35 34  1  0  0  0  0
 36 34  1  0  0  0  0
 37 38  1  0  0  0  0
 38 39  2  0  0  0  0
 38 45  1  0  0  0  0
 39 40  1  0  0  0  0
 40 41  1  0  0  0  0
 40 42  2  0  0  0  0
 43 42  1  0  0  0  0
 43 44  1  0  0  0  0
 45 43  2  0  0  0  0
 46 45  1  0  0  0  0
M  END
>  <minimizedAffinity>
-5.17484283

>  <minimizedRMSD>
0.468863726

$$$$
