
 OpenBabel03252506053D

 44 48  0  0  0  0  0  0  0  0999 V2000
   44.8030   35.9490   43.1590 Cl  0  0  0  0  0  0  0  0  0  0  0  0
   45.5490   34.7180   44.1260 C   0  0  0  0  0  0  0  0  0  0  0  0
   46.6350   34.0130   43.6370 C   0  0  0  0  0  0  0  0  0  0  0  0
   47.1500   33.0550   44.4940 C   0  0  0  0  0  0  0  0  0  0  0  0
   46.6750   32.7680   45.7500 C   0  0  0  0  0  0  0  0  0  0  0  0
   45.5980   33.4890   46.1990 C   0  0  0  0  0  0  0  0  0  0  0  0
   45.0120   33.1040   47.8030 Cl  0  0  0  0  0  0  0  0  0  0  0  0
   45.0400   34.4520   45.4010 C   0  0  0  0  0  0  0  0  0  0  0  0
   48.0100   32.5050   44.0910 H   0  0  0  0  0  0  0  0  0  0  0  0
   44.1910   35.0140   45.7660 H   0  0  0  0  0  0  0  0  0  0  0  0
   47.3600   31.7210   46.4940 C   0  0  0  0  0  0  0  0  0  0  0  0
   47.4950   30.4270   46.0150 C   0  0  0  0  0  0  0  0  0  0  0  0
   48.1380   29.4130   46.6950 C   0  0  0  0  0  0  0  0  0  0  0  0
   48.6880   29.6820   47.9280 C   0  0  0  0  0  0  0  0  0  0  0  0
   49.3110   28.6860   48.5770 N   0  0  0  0  0  0  0  0  0  0  0  0
   49.8800   28.8670   49.7990 C   0  0  0  0  0  0  0  0  0  0  0  0
   49.7850   30.1330   50.3400 C   0  0  0  0  0  0  0  0  0  0  0  0
   49.1490   31.1520   49.6780 C   0  0  0  0  0  0  0  0  0  0  0  0
   48.5760   30.9470   48.4350 C   0  0  0  0  0  0  0  0  0  0  0  0
   47.9280   31.9510   47.7400 C   0  0  0  0  0  0  0  0  0  0  0  0
   47.0630   30.1950   45.0350 H   0  0  0  0  0  0  0  0  0  0  0  0
   48.2130   28.4150   46.2680 H   0  0  0  0  0  0  0  0  0  0  0  0
   50.3640   28.0190   50.2620 H   0  0  0  0  0  0  0  0  0  0  0  0
   50.2410   30.2850   51.3220 H   0  0  0  0  0  0  0  0  0  0  0  0
   49.0950   32.1240   50.1290 H   0  0  0  0  0  0  0  0  0  0  0  0
   47.8620   32.9310   48.1740 H   0  0  0  0  0  0  0  0  0  0  0  0
   48.6710   35.4370   40.9810 C   0  0  0  0  0  0  0  0  0  0  0  0
   48.2500   34.7370   39.8410 C   0  0  0  0  0  0  0  0  0  0  0  0
   47.2480   33.7570   39.9930 C   0  0  0  0  0  0  0  0  0  0  0  0
   46.7810   33.5840   41.2440 N   0  0  0  0  0  0  0  0  0  0  0  0
   47.1930   34.2610   42.3190 C   0  0  0  0  0  0  0  0  0  0  0  0
   48.1420   35.1930   42.1980 N   0  0  0  0  0  0  0  0  0  0  0  0
   49.4350   36.1760   40.8320 H   0  0  0  0  0  0  0  0  0  0  0  0
   48.6720   34.9350   38.8880 H   0  0  0  0  0  0  0  0  0  0  0  0
   48.9910   31.4900   39.2990 Cl  0  0  0  0  0  0  0  0  0  0  0  0
   47.4900   31.8930   38.4600 C   0  0  0  0  0  0  0  0  0  0  0  0
   46.7480   32.9810   38.8680 C   0  0  0  0  0  0  0  0  0  0  0  0
   45.5970   33.2520   38.1890 C   0  0  0  0  0  0  0  0  0  0  0  0
   44.9890   34.0950   38.4800 H   0  0  0  0  0  0  0  0  0  0  0  0
   45.2060   32.4380   37.1200 C   0  0  0  0  0  3  0  0  0  0  0  0
   45.9710   31.3640   36.7410 C   0  0  0  0  0  0  0  0  0  0  0  0
   45.4700   30.3480   35.3940 Cl  0  0  0  0  0  0  0  0  0  0  0  0
   47.1360   31.0770   37.4170 C   0  0  0  0  0  0  0  0  0  0  0  0
   47.7340   30.2330   37.1170 H   0  0  0  0  0  0  0  0  0  0  0  0
  1  2  1  0  0  0  0
  2  8  1  0  0  0  0
  3  2  2  0  0  0  0
  3  4  1  0  0  0  0
  4  5  2  0  0  0  0
  5  6  1  0  0  0  0
  5 11  1  0  0  0  0
  6  7  1  0  0  0  0
  8 10  1  0  0  0  0
  8  6  2  0  0  0  0
  9  4  1  0  0  0  0
 11 20  1  0  0  0  0
 12 11  2  0  0  0  0
 12 13  1  0  0  0  0
 13 14  2  0  0  0  0
 14 19  1  0  0  0  0
 14 15  1  0  0  0  0
 15 16  2  0  0  0  0
 16 23  1  0  0  0  0
 16 17  1  0  0  0  0
 17 24  1  0  0  0  0
 18 25  1  0  0  0  0
 18 17  2  0  0  0  0
 19 18  1  0  0  0  0
 20 26  1  0  0  0  0
 20 19  2  0  0  0  0
 21 12  1  0  0  0  0
 22 13  1  0  0  0  0
 27 32  1  0  0  0  0
 28 29  1  0  0  0  0
 28 27  2  0  0  0  0
 29 30  2  0  0  0  0
 30 31  1  0  0  0  0
 31  3  1  0  0  0  0
 32 31  2  0  0  0  0
 33 27  1  0  0  0  0
 34 28  1  0  0  0  0
 36 37  1  0  0  0  0
 36 35  1  0  0  0  0
 37 29  1  0  0  0  0
 38 39  1  0  0  0  0
 38 37  2  0  0  0  0
 40 38  1  0  0  0  0
 41 40  2  0  0  0  0
 41 43  1  0  0  0  0
 42 41  1  0  0  0  0
 43 36  2  0  0  0  0
 44 43  1  0  0  0  0
M  END
>  <minimizedAffinity>
-7.14677143

>  <minimizedRMSD>
0.506016672

$$$$
