
 OpenBabel03252506373D

 45 48  0  0  1  0  0  0  0  0999 V2000
   44.4810   35.6900   45.0220 C   0  0  0  0  0  0  0  0  0  0  0  0
   45.1220   35.6560   43.7780 C   0  0  0  0  0  0  0  0  0  0  0  0
   46.0190   34.6760   43.5240 C   0  0  0  0  0  0  0  0  0  0  0  0
   46.2440   33.7710   44.5070 N   0  0  0  0  0  0  0  0  0  0  0  0
   45.6350   33.8080   45.6830 C   0  0  0  0  0  0  0  0  0  0  0  0
   44.7480   34.7600   45.9600 N   0  0  0  0  0  0  0  0  0  0  0  0
   45.9530   32.7990   46.6570 N   0  0  0  0  0  0  0  0  0  0  0  0
   45.2170   32.5780   47.8510 C   0  0  0  0  0  0  0  0  0  0  0  0
   46.2940   32.2140   48.8580 C   0  0  0  0  0  0  0  0  0  0  0  0
   47.5670   32.0860   48.0820 C   0  0  0  0  0  0  0  0  0  0  0  0
   47.0570   31.8670   46.6570 C   0  0  1  0  0  0  0  0  0  0  0  0
   43.7750   36.4730   45.2050 H   0  0  0  0  0  0  0  0  0  0  0  0
   46.5280   34.6260   42.5750 H   0  0  0  0  0  0  0  0  0  0  0  0
   44.3710   31.9750   47.9430 H   0  0  0  0  0  0  0  0  0  0  0  0
   44.8910   33.6090   48.2050 H   0  0  0  0  0  0  0  0  0  0  0  0
   46.3260   32.8390   49.7450 H   0  0  0  0  0  0  0  0  0  0  0  0
   46.0520   31.1680   49.2110 H   0  0  0  0  0  0  0  0  0  0  0  0
   48.1720   31.2420   48.4450 H   0  0  0  0  0  0  0  0  0  0  0  0
   48.0880   33.0640   48.1620 H   0  0  0  0  0  0  0  0  0  0  0  0
   47.8660   32.1460   45.9440 H   0  0  0  0  0  0  0  0  0  0  0  0
   44.7830   36.6840   42.8300 N   0  0  0  0  0  0  0  0  0  0  0  0
   44.8330   37.6820   43.1000 H   0  0  0  0  0  0  0  0  0  0  0  0
   44.5120   36.2410   41.9300 H   0  0  0  0  0  0  0  0  0  0  0  0
   46.5090   30.1830   46.4930 S   0  0  0  0  0  0  0  0  0  0  0  0
   46.3140   30.5800   43.1860 O   0  0  0  0  0  0  0  0  0  0  0  0
   45.4700   30.0660   43.9380 C   0  0  0  0  0  0  0  0  0  0  0  0
   45.1950   29.8800   45.3840 C   0  0  1  0  0  0  0  0  0  0  0  0
   44.6290   28.4810   45.4130 C   0  0  0  0  0  0  0  0  0  0  0  0
   43.5490   28.6750   44.3440 C   0  0  0  0  0  0  0  0  0  0  0  0
   44.3340   29.4010   43.3530 N   0  0  0  0  0  0  0  0  0  0  0  0
   44.2590   30.4920   45.4860 H   0  0  0  0  0  0  0  0  0  0  0  0
   45.3600   27.7250   45.0610 H   0  0  0  0  0  0  0  0  0  0  0  0
   44.1880   28.2740   46.3900 H   0  0  0  0  0  0  0  0  0  0  0  0
   43.1580   27.7210   43.9890 H   0  0  0  0  0  0  0  0  0  0  0  0
   42.7500   29.3170   44.7700 H   0  0  0  0  0  0  0  0  0  0  0  0
   42.7750   31.7620   42.2410 Cl  0  0  0  0  0  0  0  0  0  0  0  0
   43.1480   30.3010   41.3510 C   0  0  0  0  0  0  0  0  0  0  0  0
   43.8560   29.3360   41.9930 C   0  0  0  0  0  0  0  0  0  0  0  0
   44.1520   28.1840   41.2940 C   0  0  0  0  0  0  0  0  0  0  0  0
   44.7220   27.3630   41.7560 H   0  0  0  0  0  0  0  0  0  0  0  0
   43.7760   27.9380   39.9770 C   0  0  0  0  0  3  0  0  0  0  0  0
   43.0490   28.9420   39.3300 C   0  0  0  0  0  0  0  0  0  0  0  0
   42.5400   28.7070   37.6710 Cl  0  0  0  0  0  0  0  0  0  0  0  0
   42.7640   30.0840   40.0440 C   0  0  0  0  0  0  0  0  0  0  0  0
   42.1930   30.8670   39.5310 H   0  0  0  0  0  0  0  0  0  0  0  0
  1 12  1  0  0  0  0
  1  6  1  0  0  0  0
  2  1  2  0  0  0  0
  3  2  1  0  0  0  0
  3  4  2  0  0  0  0
  4  5  1  0  0  0  0
  5  6  2  0  0  0  0
  5  7  1  0  0  0  0
  7  8  1  0  0  0  0
  8 14  1  0  0  0  0
  8 15  1  0  0  0  0
  8  9  1  0  0  0  0
  9 17  1  0  0  0  0
  9 16  1  0  0  0  0
 10 19  1  0  0  0  0
 10 18  1  0  0  0  0
 10  9  1  0  0  0  0
 11 20  1  6  0  0  0
 11  7  1  0  0  0  0
 11 10  1  0  0  0  0
 13  3  1  0  0  0  0
 21 22  1  0  0  0  0
 21  2  1  0  0  0  0
 23 21  1  0  0  0  0
 24 11  1  0  0  0  0
 25 26  2  0  0  0  0
 26 27  1  0  0  0  0
 27 28  1  0  0  0  0
 27 31  1  1  0  0  0
 27 24  1  0  0  0  0
 28 33  1  0  0  0  0
 29 35  1  0  0  0  0
 29 28  1  0  0  0  0
 30 26  1  0  0  0  0
 30 29  1  0  0  0  0
 32 28  1  0  0  0  0
 34 29  1  0  0  0  0
 37 38  1  0  0  0  0
 37 36  1  0  0  0  0
 38 30  1  0  0  0  0
 39 40  1  0  0  0  0
 39 38  2  0  0  0  0
 41 39  1  0  0  0  0
 42 41  2  0  0  0  0
 42 44  1  0  0  0  0
 43 42  1  0  0  0  0
 44 37  2  0  0  0  0
 45 44  1  0  0  0  0
M  END
>  <minimizedAffinity>
-5.17255068

>  <minimizedRMSD>
1.04279125

$$$$
