
 OpenBabel03252506053D

 44 48  0  0  0  0  0  0  0  0999 V2000
   44.7160   35.8550   43.3880 Cl  0  0  0  0  0  0  0  0  0  0  0  0
   45.4940   34.6250   44.3310 C   0  0  0  0  0  0  0  0  0  0  0  0
   46.5740   33.9310   43.8130 C   0  0  0  0  0  0  0  0  0  0  0  0
   47.1160   32.9730   44.6520 C   0  0  0  0  0  0  0  0  0  0  0  0
   46.6740   32.6770   45.9180 C   0  0  0  0  0  0  0  0  0  0  0  0
   45.6020   33.3880   46.3960 C   0  0  0  0  0  0  0  0  0  0  0  0
   45.0580   32.9910   48.0120 Cl  0  0  0  0  0  0  0  0  0  0  0  0
   45.0180   34.3500   45.6170 C   0  0  0  0  0  0  0  0  0  0  0  0
   47.9700   32.4320   44.2270 H   0  0  0  0  0  0  0  0  0  0  0  0
   44.1740   34.9040   46.0040 H   0  0  0  0  0  0  0  0  0  0  0  0
   47.3840   31.6320   46.6400 C   0  0  0  0  0  0  0  0  0  0  0  0
   47.5180   30.3410   46.1530 C   0  0  0  0  0  0  0  0  0  0  0  0
   48.1850   29.3290   46.8120 C   0  0  0  0  0  0  0  0  0  0  0  0
   48.7630   29.5970   48.0320 C   0  0  0  0  0  0  0  0  0  0  0  0
   49.4080   28.6030   48.6620 N   0  0  0  0  0  0  0  0  0  0  0  0
   50.0060   28.7830   49.8700 C   0  0  0  0  0  0  0  0  0  0  0  0
   49.9150   30.0460   50.4190 C   0  0  0  0  0  0  0  0  0  0  0  0
   49.2550   31.0630   49.7770 C   0  0  0  0  0  0  0  0  0  0  0  0
   48.6540   30.8590   48.5480 C   0  0  0  0  0  0  0  0  0  0  0  0
   47.9810   31.8610   47.8730 C   0  0  0  0  0  0  0  0  0  0  0  0
   47.0630   30.1100   45.1820 H   0  0  0  0  0  0  0  0  0  0  0  0
   48.2560   28.3340   46.3790 H   0  0  0  0  0  0  0  0  0  0  0  0
   50.5070   27.9370   50.3180 H   0  0  0  0  0  0  0  0  0  0  0  0
   50.3930   30.1970   51.3900 H   0  0  0  0  0  0  0  0  0  0  0  0
   49.2050   32.0330   50.2340 H   0  0  0  0  0  0  0  0  0  0  0  0
   47.9190   32.8390   48.3130 H   0  0  0  0  0  0  0  0  0  0  0  0
   48.6240   35.2860   41.1320 C   0  0  0  0  0  0  0  0  0  0  0  0
   48.0920   34.6840   39.9820 C   0  0  0  0  0  0  0  0  0  0  0  0
   47.0090   33.7950   40.1360 C   0  0  0  0  0  0  0  0  0  0  0  0
   46.5790   33.6060   41.3980 N   0  0  0  0  0  0  0  0  0  0  0  0
   47.0980   34.1900   42.4830 C   0  0  0  0  0  0  0  0  0  0  0  0
   48.1240   35.0340   42.3600 N   0  0  0  0  0  0  0  0  0  0  0  0
   49.4480   35.9580   40.9810 H   0  0  0  0  0  0  0  0  0  0  0  0
   48.4910   34.8880   39.0200 H   0  0  0  0  0  0  0  0  0  0  0  0
   44.0880   34.1420   40.0470 Cl  0  0  0  0  0  0  0  0  0  0  0  0
   45.0240   33.2220   38.8650 C   0  0  0  0  0  0  0  0  0  0  0  0
   46.3920   33.1230   39.0030 C   0  0  0  0  0  0  0  0  0  0  0  0
   47.0700   32.4010   38.0660 C   0  0  0  0  0  0  0  0  0  0  0  0
   48.1430   32.3020   38.1400 H   0  0  0  0  0  0  0  0  0  0  0  0
   46.3780   31.7930   37.0130 C   0  0  0  0  0  3  0  0  0  0  0  0
   45.0160   31.9140   36.9080 C   0  0  0  0  0  0  0  0  0  0  0  0
   44.1550   31.1450   35.5800 Cl  0  0  0  0  0  0  0  0  0  0  0  0
   44.3150   32.6400   37.8480 C   0  0  0  0  0  0  0  0  0  0  0  0
   43.2460   32.7320   37.7630 H   0  0  0  0  0  0  0  0  0  0  0  0
  1  2  1  0  0  0  0
  2  8  1  0  0  0  0
  3  2  2  0  0  0  0
  3  4  1  0  0  0  0
  4  5  2  0  0  0  0
  5  6  1  0  0  0  0
  5 11  1  0  0  0  0
  6  7  1  0  0  0  0
  8 10  1  0  0  0  0
  8  6  2  0  0  0  0
  9  4  1  0  0  0  0
 11 20  1  0  0  0  0
 12 11  2  0  0  0  0
 12 13  1  0  0  0  0
 13 14  2  0  0  0  0
 14 19  1  0  0  0  0
 14 15  1  0  0  0  0
 15 16  2  0  0  0  0
 16 23  1  0  0  0  0
 16 17  1  0  0  0  0
 17 24  1  0  0  0  0
 18 25  1  0  0  0  0
 18 17  2  0  0  0  0
 19 18  1  0  0  0  0
 20 26  1  0  0  0  0
 20 19  2  0  0  0  0
 21 12  1  0  0  0  0
 22 13  1  0  0  0  0
 27 32  1  0  0  0  0
 28 29  1  0  0  0  0
 28 27  2  0  0  0  0
 29 30  2  0  0  0  0
 30 31  1  0  0  0  0
 31  3  1  0  0  0  0
 32 31  2  0  0  0  0
 33 27  1  0  0  0  0
 34 28  1  0  0  0  0
 36 37  1  0  0  0  0
 36 35  1  0  0  0  0
 37 29  1  0  0  0  0
 38 39  1  0  0  0  0
 38 37  2  0  0  0  0
 40 38  1  0  0  0  0
 41 40  2  0  0  0  0
 41 43  1  0  0  0  0
 42 41  1  0  0  0  0
 43 36  2  0  0  0  0
 44 43  1  0  0  0  0
M  END
>  <minimizedAffinity>
-7.45214987

>  <minimizedRMSD>
0.429596245

$$$$
