
 OpenBabel03252503103D

 28 30  0  0  1  0  0  0  0  0999 V2000
   39.3770   32.1250   40.5400 C   0  0  0  0  0  0  0  0  0  0  0  0
   38.5400   31.0180   40.8360 C   0  0  0  0  0  0  0  0  0  0  0  0
   39.0720   30.1320   41.7620 C   0  0  0  0  0  0  0  0  0  0  0  0
   40.2750   30.3140   42.3240 N   0  0  0  0  0  0  0  0  0  0  0  0
   41.0400   31.3990   42.0020 C   0  0  0  0  0  0  0  0  0  0  0  0
   40.5710   32.2930   41.1060 N   0  0  0  0  0  0  0  0  0  0  0  0
   39.0110   32.8580   39.8160 H   0  0  0  0  0  0  0  0  0  0  0  0
   41.9990   31.4940   42.4850 H   0  0  0  0  0  0  0  0  0  0  0  0
   38.3120   29.0260   42.1280 C   0  0  0  0  0  0  0  0  0  0  0  0
   37.4630   28.7290   43.1430 C   0  0  0  0  0  0  0  0  0  0  0  0
   36.8500   27.5670   43.3060 C   0  0  0  0  0  0  0  0  0  0  0  0
   37.1180   26.6150   42.3570 C   0  0  0  0  0  0  0  0  0  0  0  0
   38.2870   27.4890   41.2380 S   0  0  0  0  0  0  0  0  0  0  0  0
   37.1230   29.3720   43.9380 H   0  0  0  0  0  0  0  0  0  0  0  0
   36.1720   27.0970   43.9780 H   0  0  0  0  0  0  0  0  0  0  0  0
   36.9050   25.6180   42.0590 H   0  0  0  0  0  0  0  0  0  0  0  0
   37.2810   30.9160   40.1980 C   0  0  2  0  0  3  0  0  0  0  0  0
   36.3130   31.3230   40.9900 O   0  0  0  0  0  1  0  0  0  0  0  0
   35.0370   29.0940   40.5790 Cl  0  0  0  0  0  0  0  0  0  0  0  0
   35.8170   29.5370   39.0420 C   0  0  0  0  0  0  0  0  0  0  0  0
   36.8930   30.4270   38.8390 C   0  0  0  0  0  0  0  0  0  0  0  0
   37.2960   30.5820   37.5430 C   0  0  0  0  0  0  0  0  0  0  0  0
   38.1290   31.2610   37.5020 H   0  0  0  0  0  0  0  0  0  0  0  0
   36.7110   29.9300   36.4900 C   0  0  0  0  0  3  0  0  0  0  0  0
   35.6620   29.0640   36.6940 C   0  0  0  0  0  0  0  0  0  0  0  0
   35.0220   28.3070   35.2520 Cl  0  0  0  0  0  0  0  0  0  0  0  0
   35.2050   28.8590   37.9760 C   0  0  0  0  0  0  0  0  0  0  0  0
   34.3840   28.1670   38.0400 H   0  0  0  0  0  0  0  0  0  0  0  0
  1  2  2  0  0  0  0
  1  6  1  0  0  0  0
  2  3  1  0  0  0  0
  3  9  1  0  0  0  0
  3  4  2  0  0  0  0
  5  4  1  0  0  0  0
  5  8  1  0  0  0  0
  6  5  2  0  0  0  0
  7  1  1  0  0  0  0
  9 10  2  0  0  0  0
 10 11  1  0  0  0  0
 10 14  1  0  0  0  0
 11 15  1  0  0  0  0
 12 11  2  0  0  0  0
 13  9  1  0  0  0  0
 13 12  1  0  0  0  0
 16 12  1  0  0  0  0
 17  2  1  0  0  0  0
 17 18  1  1  0  0  0
 20 19  1  0  0  0  0
 21 20  1  0  0  0  0
 21 17  1  0  0  0  0
 22 21  2  0  0  0  0
 23 22  1  0  0  0  0
 24 25  2  0  0  0  0
 24 22  1  0  0  0  0
 25 27  1  0  0  0  0
 26 25  1  0  0  0  0
 27 28  1  0  0  0  0
 27 20  2  0  0  0  0
M  END
>  <minimizedAffinity>
-5.33341265

$$$$

 OpenBabel03252503103D

 28 30  0  0  1  0  0  0  0  0999 V2000
   38.9760   29.5990   42.9250 C   0  0  0  0  0  0  0  0  0  0  0  0
   37.9200   29.1130   42.1110 C   0  0  0  0  0  0  0  0  0  0  0  0
   37.5880   29.9450   41.0520 C   0  0  0  0  0  0  0  0  0  0  0  0
   38.2160   31.1070   40.8240 N   0  0  0  0  0  0  0  0  0  0  0  0
   39.2280   31.5260   41.6410 C   0  0  0  0  0  0  0  0  0  0  0  0
   39.5920   30.7560   42.6870 N   0  0  0  0  0  0  0  0  0  0  0  0
   39.2820   28.9850   43.7770 H   0  0  0  0  0  0  0  0  0  0  0  0
   39.6970   32.4690   41.4100 H   0  0  0  0  0  0  0  0  0  0  0  0
   36.5760   29.5410   40.1870 C   0  0  0  0  0  0  0  0  0  0  0  0
   35.2260   29.4250   40.2660 C   0  0  0  0  0  0  0  0  0  0  0  0
   34.4440   28.9850   39.2930 C   0  0  0  0  0  0  0  0  0  0  0  0
   35.0810   28.6280   38.1330 C   0  0  0  0  0  0  0  0  0  0  0  0
   36.8450   28.9640   38.5290 S   0  0  0  0  0  0  0  0  0  0  0  0
   34.5800   29.6970   41.0840 H   0  0  0  0  0  0  0  0  0  0  0  0
   33.4130   28.8040   39.1040 H   0  0  0  0  0  0  0  0  0  0  0  0
   34.9270   28.2510   37.1510 H   0  0  0  0  0  0  0  0  0  0  0  0
   37.3230   27.8700   42.4260 C   0  0  2  0  0  3  0  0  0  0  0  0
   36.6390   27.9430   43.5470 O   0  0  0  0  0  1  0  0  0  0  0  0
   39.4600   26.3300   43.6780 Cl  0  0  0  0  0  0  0  0  0  0  0  0
   38.4060   25.8200   42.3390 C   0  0  0  0  0  0  0  0  0  0  0  0
   37.3590   26.5460   41.7320 C   0  0  0  0  0  0  0  0  0  0  0  0
   36.7090   25.9080   40.7140 C   0  0  0  0  0  0  0  0  0  0  0  0
   35.9480   26.5520   40.3110 H   0  0  0  0  0  0  0  0  0  0  0  0
   37.0290   24.6450   40.2900 C   0  0  0  0  0  3  0  0  0  0  0  0
   38.0510   23.9420   40.8860 C   0  0  0  0  0  0  0  0  0  0  0  0
   38.3410   22.3440   40.2350 Cl  0  0  0  0  0  0  0  0  0  0  0  0
   38.7500   24.5250   41.9180 C   0  0  0  0  0  0  0  0  0  0  0  0
   39.5290   23.9040   42.3230 H   0  0  0  0  0  0  0  0  0  0  0  0
  1  7  1  0  0  0  0
  2 17  1  0  0  0  0
  2  1  2  0  0  0  0
  3  2  1  0  0  0  0
  4  3  2  0  0  0  0
  4  5  1  0  0  0  0
  5  6  2  0  0  0  0
  6  1  1  0  0  0  0
  8  5  1  0  0  0  0
  9 10  2  0  0  0  0
  9  3  1  0  0  0  0
 10 14  1  0  0  0  0
 11 10  1  0  0  0  0
 12 13  1  0  0  0  0
 12 11  2  0  0  0  0
 13  9  1  0  0  0  0
 15 11  1  0  0  0  0
 16 12  1  0  0  0  0
 17 18  1  1  0  0  0
 20 19  1  0  0  0  0
 21 20  2  0  0  0  0
 21 17  1  0  0  0  0
 22 21  1  0  0  0  0
 23 22  1  0  0  0  0
 24 22  2  0  0  0  0
 24 25  1  0  0  0  0
 25 27  2  0  0  0  0
 26 25  1  0  0  0  0
 27 28  1  0  0  0  0
 27 20  1  0  0  0  0
M  END
>  <minimizedAffinity>
-5.3133359

$$$$

 OpenBabel03252503103D

 28 30  0  0  1  0  0  0  0  0999 V2000
   35.4260   27.0960   38.0410 C   0  0  0  0  0  0  0  0  0  0  0  0
   35.8520   27.6980   39.2540 C   0  0  0  0  0  0  0  0  0  0  0  0
   36.6190   26.8710   40.0620 C   0  0  0  0  0  0  0  0  0  0  0  0
   36.9260   25.6130   39.7190 N   0  0  0  0  0  0  0  0  0  0  0  0
   36.4890   25.0830   38.5380 C   0  0  0  0  0  0  0  0  0  0  0  0
   35.7390   25.8430   37.7130 N   0  0  0  0  0  0  0  0  0  0  0  0
   34.8180   27.6990   37.3620 H   0  0  0  0  0  0  0  0  0  0  0  0
   36.7660   24.0650   38.3150 H   0  0  0  0  0  0  0  0  0  0  0  0
   37.0980   27.3830   41.2630 C   0  0  0  0  0  0  0  0  0  0  0  0
   36.5690   27.6330   42.4870 C   0  0  0  0  0  0  0  0  0  0  0  0
   37.2290   28.1580   43.5070 C   0  0  0  0  0  0  0  0  0  0  0  0
   38.5440   28.4600   43.2720 C   0  0  0  0  0  0  0  0  0  0  0  0
   38.7630   27.9460   41.5200 S   0  0  0  0  0  0  0  0  0  0  0  0
   35.5730   27.4200   42.8390 H   0  0  0  0  0  0  0  0  0  0  0  0
   37.0610   28.4440   44.5180 H   0  0  0  0  0  0  0  0  0  0  0  0
   39.4250   28.8600   43.7130 H   0  0  0  0  0  0  0  0  0  0  0  0
   35.4840   29.0370   39.5240 C   0  0  2  0  0  3  0  0  0  0  0  0
   34.1770   29.1850   39.4960 O   0  0  0  0  0  1  0  0  0  0  0  0
   36.4580   29.9980   36.9490 Cl  0  0  0  0  0  0  0  0  0  0  0  0
   36.7800   30.6980   38.5530 C   0  0  0  0  0  0  0  0  0  0  0  0
   36.3050   30.2550   39.8050 C   0  0  0  0  0  0  0  0  0  0  0  0
   36.7120   30.9860   40.8850 C   0  0  0  0  0  0  0  0  0  0  0  0
   36.3130   30.5540   41.7860 H   0  0  0  0  0  0  0  0  0  0  0  0
   37.5260   32.0830   40.7880 C   0  0  0  0  0  3  0  0  0  0  0  0
   37.9860   32.5100   39.5630 C   0  0  0  0  0  0  0  0  0  0  0  0
   39.0170   33.9240   39.6010 Cl  0  0  0  0  0  0  0  0  0  0  0  0
   37.6160   31.8200   38.4320 C   0  0  0  0  0  0  0  0  0  0  0  0
   38.0210   32.2250   37.5220 H   0  0  0  0  0  0  0  0  0  0  0  0
  1  2  1  0  0  0  0
  2 17  1  0  0  0  0
  2  3  2  0  0  0  0
  3  9  1  0  0  0  0
  4  3  1  0  0  0  0
  5  4  2  0  0  0  0
  6  1  2  0  0  0  0
  6  5  1  0  0  0  0
  7  1  1  0  0  0  0
  8  5  1  0  0  0  0
  9 13  1  0  0  0  0
  9 10  2  0  0  0  0
 10 14  1  0  0  0  0
 10 11  1  0  0  0  0
 11 15  1  0  0  0  0
 12 11  2  0  0  0  0
 12 16  1  0  0  0  0
 13 12  1  0  0  0  0
 17 18  1  6  0  0  0
 17 21  1  0  0  0  0
 19 20  1  0  0  0  0
 20 21  1  0  0  0  0
 21 22  2  0  0  0  0
 22 23  1  0  0  0  0
 24 22  1  0  0  0  0
 25 26  1  0  0  0  0
 25 24  2  0  0  0  0
 27 20  2  0  0  0  0
 27 25  1  0  0  0  0
 28 27  1  0  0  0  0
M  END
>  <minimizedAffinity>
-5.21063089

$$$$

 OpenBabel03252503103D

 28 30  0  0  1  0  0  0  0  0999 V2000
   39.1090   26.5690   43.6670 C   0  0  0  0  0  0  0  0  0  0  0  0
   38.3070   26.8490   42.5300 C   0  0  0  0  0  0  0  0  0  0  0  0
   38.5630   26.0330   41.4370 C   0  0  0  0  0  0  0  0  0  0  0  0
   39.4890   25.0660   41.4620 N   0  0  0  0  0  0  0  0  0  0  0  0
   40.2340   24.8400   42.5850 C   0  0  0  0  0  0  0  0  0  0  0  0
   40.0270   25.6040   43.6780 N   0  0  0  0  0  0  0  0  0  0  0  0
   38.9520   27.1800   44.5600 H   0  0  0  0  0  0  0  0  0  0  0  0
   40.9650   24.0490   42.5470 H   0  0  0  0  0  0  0  0  0  0  0  0
   37.8100   26.2230   40.2830 C   0  0  0  0  0  0  0  0  0  0  0  0
   36.5900   25.8220   39.8480 C   0  0  0  0  0  0  0  0  0  0  0  0
   36.0710   26.1160   38.6660 C   0  0  0  0  0  0  0  0  0  0  0  0
   36.8540   26.8850   37.8460 C   0  0  0  0  0  0  0  0  0  0  0  0
   38.3570   27.1530   38.8720 S   0  0  0  0  0  0  0  0  0  0  0  0
   35.8460   25.2520   40.3790 H   0  0  0  0  0  0  0  0  0  0  0  0
   35.1840   25.9370   38.1050 H   0  0  0  0  0  0  0  0  0  0  0  0
   36.8990   27.3510   36.8920 H   0  0  0  0  0  0  0  0  0  0  0  0
   37.3470   27.8860   42.6030 C   0  0  2  0  0  3  0  0  0  0  0  0
   36.5940   27.7610   43.6750 O   0  0  0  0  0  1  0  0  0  0  0  0
   39.5890   29.7340   42.8450 Cl  0  0  0  0  0  0  0  0  0  0  0  0
   38.1400   29.9250   41.8310 C   0  0  0  0  0  0  0  0  0  0  0  0
   37.0540   29.0340   41.6910 C   0  0  0  0  0  0  0  0  0  0  0  0
   36.0660   29.4360   40.8380 C   0  0  0  0  0  0  0  0  0  0  0  0
   35.2820   28.6990   40.8200 H   0  0  0  0  0  0  0  0  0  0  0  0
   36.1000   30.6190   40.1480 C   0  0  0  0  0  3  0  0  0  0  0  0
   37.1620   31.4830   40.2890 C   0  0  0  0  0  0  0  0  0  0  0  0
   37.0620   32.9540   39.3450 Cl  0  0  0  0  0  0  0  0  0  0  0  0
   38.1940   31.1430   41.1340 C   0  0  0  0  0  0  0  0  0  0  0  0
   38.9780   31.8760   41.1810 H   0  0  0  0  0  0  0  0  0  0  0  0
  1  6  1  0  0  0  0
  1  7  1  0  0  0  0
  2 17  1  0  0  0  0
  2  1  2  0  0  0  0
  3  4  2  0  0  0  0
  3  2  1  0  0  0  0
  4  5  1  0  0  0  0
  5  6  2  0  0  0  0
  8  5  1  0  0  0  0
  9  3  1  0  0  0  0
 10  9  2  0  0  0  0
 10 14  1  0  0  0  0
 11 10  1  0  0  0  0
 12 11  2  0  0  0  0
 12 13  1  0  0  0  0
 13  9  1  0  0  0  0
 15 11  1  0  0  0  0
 16 12  1  0  0  0  0
 17 18  1  6  0  0  0
 20 19  1  0  0  0  0
 21 20  1  0  0  0  0
 21 17  1  0  0  0  0
 22 21  2  0  0  0  0
 23 22  1  0  0  0  0
 24 25  2  0  0  0  0
 24 22  1  0  0  0  0
 25 27  1  0  0  0  0
 26 25  1  0  0  0  0
 27 28  1  0  0  0  0
 27 20  2  0  0  0  0
M  END
>  <minimizedAffinity>
-5.19551897

$$$$

 OpenBabel03252503103D

 28 30  0  0  1  0  0  0  0  0999 V2000
   36.2260   29.9600   38.4210 C   0  0  0  0  0  0  0  0  0  0  0  0
   36.6920   29.6660   39.7290 C   0  0  0  0  0  0  0  0  0  0  0  0
   36.6830   28.3150   40.0470 C   0  0  0  0  0  0  0  0  0  0  0  0
   36.2680   27.3750   39.1870 N   0  0  0  0  0  0  0  0  0  0  0  0
   35.8290   27.7150   37.9390 C   0  0  0  0  0  0  0  0  0  0  0  0
   35.8160   29.0150   37.5760 N   0  0  0  0  0  0  0  0  0  0  0  0
   36.2100   31.0080   38.1130 H   0  0  0  0  0  0  0  0  0  0  0  0
   35.5060   26.9170   37.2900 H   0  0  0  0  0  0  0  0  0  0  0  0
   37.1420   27.9310   41.3030 C   0  0  0  0  0  0  0  0  0  0  0  0
   36.6030   27.8450   42.5450 C   0  0  0  0  0  0  0  0  0  0  0  0
   37.2550   27.4590   43.6300 C   0  0  0  0  0  0  0  0  0  0  0  0
   38.5720   27.1300   43.4480 C   0  0  0  0  0  0  0  0  0  0  0  0
   38.8040   27.4050   41.6440 S   0  0  0  0  0  0  0  0  0  0  0  0
   35.5850   28.0290   42.8440 H   0  0  0  0  0  0  0  0  0  0  0  0
   37.0790   27.3120   44.6700 H   0  0  0  0  0  0  0  0  0  0  0  0
   39.4490   26.7940   43.9460 H   0  0  0  0  0  0  0  0  0  0  0  0
   37.1190   30.7260   40.5620 C   0  0  2  0  0  3  0  0  0  0  0  0
   36.1130   31.2250   41.2480 O   0  0  0  0  0  1  0  0  0  0  0  0
   37.0680   33.2830   39.1620 Cl  0  0  0  0  0  0  0  0  0  0  0  0
   38.4260   32.5790   40.0710 C   0  0  0  0  0  0  0  0  0  0  0  0
   38.4620   31.3510   40.7660 C   0  0  0  0  0  0  0  0  0  0  0  0
   39.6450   31.0550   41.3810 C   0  0  0  0  0  0  0  0  0  0  0  0
   39.5720   30.0940   41.8610 H   0  0  0  0  0  0  0  0  0  0  0  0
   40.7400   31.8770   41.3450 C   0  0  0  0  0  3  0  0  0  0  0  0
   40.6980   33.0730   40.6660 C   0  0  0  0  0  0  0  0  0  0  0  0
   42.1750   34.0120   40.7090 Cl  0  0  0  0  0  0  0  0  0  0  0  0
   39.5380   33.4350   40.0210 C   0  0  0  0  0  0  0  0  0  0  0  0
   39.5960   34.3840   39.5180 H   0  0  0  0  0  0  0  0  0  0  0  0
  1  2  1  0  0  0  0
  2  3  2  0  0  0  0
  2 17  1  0  0  0  0
  3  9  1  0  0  0  0
  4  3  1  0  0  0  0
  5  4  2  0  0  0  0
  6  5  1  0  0  0  0
  6  1  2  0  0  0  0
  7  1  1  0  0  0  0
  8  5  1  0  0  0  0
  9 13  1  0  0  0  0
  9 10  2  0  0  0  0
 10 14  1  0  0  0  0
 10 11  1  0  0  0  0
 11 15  1  0  0  0  0
 12 11  2  0  0  0  0
 12 16  1  0  0  0  0
 13 12  1  0  0  0  0
 17 21  1  0  0  0  0
 17 18  1  6  0  0  0
 19 20  1  0  0  0  0
 20 21  1  0  0  0  0
 21 22  2  0  0  0  0
 22 23  1  0  0  0  0
 24 22  1  0  0  0  0
 25 26  1  0  0  0  0
 25 24  2  0  0  0  0
 27 20  2  0  0  0  0
 27 25  1  0  0  0  0
 28 27  1  0  0  0  0
M  END
>  <minimizedAffinity>
-5.13872004

$$$$

 OpenBabel03252503103D

 28 30  0  0  1  0  0  0  0  0999 V2000
   40.0090   31.9350   39.8330 C   0  0  0  0  0  0  0  0  0  0  0  0
   39.0670   31.0850   40.4680 C   0  0  0  0  0  0  0  0  0  0  0  0
   39.6350   30.0900   41.2510 C   0  0  0  0  0  0  0  0  0  0  0  0
   40.9600   29.9510   41.3900 N   0  0  0  0  0  0  0  0  0  0  0  0
   41.8220   30.7980   40.7540 C   0  0  0  0  0  0  0  0  0  0  0  0
   41.3250   31.7850   39.9790 N   0  0  0  0  0  0  0  0  0  0  0  0
   39.6210   32.7390   39.2020 H   0  0  0  0  0  0  0  0  0  0  0  0
   42.8780   30.6390   40.9020 H   0  0  0  0  0  0  0  0  0  0  0  0
   38.7860   29.2200   41.9280 C   0  0  0  0  0  0  0  0  0  0  0  0
   38.0580   29.2740   43.0710 C   0  0  0  0  0  0  0  0  0  0  0  0
   37.3160   28.2850   43.5460 C   0  0  0  0  0  0  0  0  0  0  0  0
   37.3080   27.1360   42.8010 C   0  0  0  0  0  0  0  0  0  0  0  0
   38.4170   27.5650   41.3970 S   0  0  0  0  0  0  0  0  0  0  0  0
   37.9290   30.1070   43.7410 H   0  0  0  0  0  0  0  0  0  0  0  0
   36.6820   28.0760   44.3740 H   0  0  0  0  0  0  0  0  0  0  0  0
   36.9150   26.1490   42.7490 H   0  0  0  0  0  0  0  0  0  0  0  0
   37.6860   31.3160   40.2680 C   0  0  2  0  0  3  0  0  0  0  0  0
   37.3600   32.5500   40.5890 O   0  0  0  0  0  1  0  0  0  0  0  0
   37.8640   31.2610   37.3580 Cl  0  0  0  0  0  0  0  0  0  0  0  0
   36.6790   30.4170   38.3820 C   0  0  0  0  0  0  0  0  0  0  0  0
   36.5880   30.4220   39.7900 C   0  0  0  0  0  0  0  0  0  0  0  0
   35.5700   29.6800   40.3190 C   0  0  0  0  0  0  0  0  0  0  0  0
   35.5790   29.7670   41.3920 H   0  0  0  0  0  0  0  0  0  0  0  0
   34.6820   28.9670   39.5580 C   0  0  0  0  0  3  0  0  0  0  0  0
   34.7760   28.9670   38.1850 C   0  0  0  0  0  0  0  0  0  0  0  0
   33.5700   28.0110   37.3510 Cl  0  0  0  0  0  0  0  0  0  0  0  0
   35.7770   29.6940   37.5830 C   0  0  0  0  0  0  0  0  0  0  0  0
   35.7740   29.6350   36.5100 H   0  0  0  0  0  0  0  0  0  0  0  0
  1  6  2  0  0  0  0
  1  2  1  0  0  0  0
  2  3  2  0  0  0  0
  3  4  1  0  0  0  0
  3  9  1  0  0  0  0
  5  8  1  0  0  0  0
  5  4  2  0  0  0  0
  6  5  1  0  0  0  0
  7  1  1  0  0  0  0
  9 10  2  0  0  0  0
 10 11  1  0  0  0  0
 10 14  1  0  0  0  0
 11 15  1  0  0  0  0
 12 11  2  0  0  0  0
 13  9  1  0  0  0  0
 13 12  1  0  0  0  0
 16 12  1  0  0  0  0
 17  2  1  0  0  0  0
 17 18  1  1  0  0  0
 19 20  1  0  0  0  0
 20 21  1  0  0  0  0
 21 17  1  0  0  0  0
 21 22  2  0  0  0  0
 22 23  1  0  0  0  0
 24 22  1  0  0  0  0
 25 24  2  0  0  0  0
 26 25  1  0  0  0  0
 27 25  1  0  0  0  0
 27 20  2  0  0  0  0
 28 27  1  0  0  0  0
M  END
>  <minimizedAffinity>
-5.07309818

$$$$

 OpenBabel03252503103D

 28 30  0  0  1  0  0  0  0  0999 V2000
   38.5380   31.6370   41.0430 C   0  0  0  0  0  0  0  0  0  0  0  0
   37.9590   30.7680   40.0820 C   0  0  0  0  0  0  0  0  0  0  0  0
   38.4730   30.9100   38.8010 C   0  0  0  0  0  0  0  0  0  0  0  0
   39.4340   31.7960   38.5060 N   0  0  0  0  0  0  0  0  0  0  0  0
   39.9560   32.6090   39.4710 C   0  0  0  0  0  0  0  0  0  0  0  0
   39.4930   32.5140   40.7350 N   0  0  0  0  0  0  0  0  0  0  0  0
   38.1720   31.5710   42.0710 H   0  0  0  0  0  0  0  0  0  0  0  0
   40.7270   33.3030   39.1750 H   0  0  0  0  0  0  0  0  0  0  0  0
   37.9790   30.0850   37.7970 C   0  0  0  0  0  0  0  0  0  0  0  0
   36.8330   30.0220   37.0740 C   0  0  0  0  0  0  0  0  0  0  0  0
   36.5640   29.1070   36.1550 C   0  0  0  0  0  0  0  0  0  0  0  0
   37.5410   28.1700   35.9450 C   0  0  0  0  0  0  0  0  0  0  0  0
   38.8460   28.6830   37.1340 S   0  0  0  0  0  0  0  0  0  0  0  0
   35.9950   30.6980   37.0920 H   0  0  0  0  0  0  0  0  0  0  0  0
   35.7850   28.8430   35.4800 H   0  0  0  0  0  0  0  0  0  0  0  0
   37.7950   27.3080   35.3760 H   0  0  0  0  0  0  0  0  0  0  0  0
   36.9550   29.8600   40.4920 C   0  0  2  0  0  3  0  0  0  0  0  0
   35.8740   30.4950   40.8900 O   0  0  0  0  0  1  0  0  0  0  0  0
   37.7680   29.1340   43.1960 Cl  0  0  0  0  0  0  0  0  0  0  0  0
   37.3420   28.0310   41.8660 C   0  0  0  0  0  0  0  0  0  0  0  0
   36.9330   28.3660   40.5580 C   0  0  0  0  0  0  0  0  0  0  0  0
   36.6670   27.3100   39.7330 C   0  0  0  0  0  0  0  0  0  0  0  0
   36.3850   27.6730   38.7600 H   0  0  0  0  0  0  0  0  0  0  0  0
   36.7800   26.0020   40.1230 C   0  0  0  0  0  3  0  0  0  0  0  0
   37.1800   25.6820   41.4000 C   0  0  0  0  0  0  0  0  0  0  0  0
   37.2780   23.9700   41.7490 Cl  0  0  0  0  0  0  0  0  0  0  0  0
   37.4650   26.6960   42.2860 C   0  0  0  0  0  0  0  0  0  0  0  0
   37.7690   26.3540   43.2580 H   0  0  0  0  0  0  0  0  0  0  0  0
  1  7  1  0  0  0  0
  2 17  1  0  0  0  0
  2  1  2  0  0  0  0
  3  2  1  0  0  0  0
  4  3  2  0  0  0  0
  4  5  1  0  0  0  0
  5  6  2  0  0  0  0
  6  1  1  0  0  0  0
  8  5  1  0  0  0  0
  9  3  1  0  0  0  0
 10 14  1  0  0  0  0
 10  9  2  0  0  0  0
 11 10  1  0  0  0  0
 12 11  2  0  0  0  0
 12 13  1  0  0  0  0
 13  9  1  0  0  0  0
 15 11  1  0  0  0  0
 16 12  1  0  0  0  0
 17 21  1  0  0  0  0
 17 18  1  1  0  0  0
 20 27  1  0  0  0  0
 20 19  1  0  0  0  0
 21 20  2  0  0  0  0
 22 24  2  0  0  0  0
 22 21  1  0  0  0  0
 23 22  1  0  0  0  0
 24 25  1  0  0  0  0
 25 26  1  0  0  0  0
 25 27  2  0  0  0  0
 27 28  1  0  0  0  0
M  END
>  <minimizedAffinity>
-5.04574156

$$$$

 OpenBabel03252503103D

 28 30  0  0  1  0  0  0  0  0999 V2000
   35.5390   28.4830   37.4420 C   0  0  0  0  0  0  0  0  0  0  0  0
   36.1480   29.3170   38.4160 C   0  0  0  0  0  0  0  0  0  0  0  0
   36.8630   30.3820   37.8880 C   0  0  0  0  0  0  0  0  0  0  0  0
   36.9660   30.5980   36.5700 N   0  0  0  0  0  0  0  0  0  0  0  0
   36.3590   29.7620   35.6750 C   0  0  0  0  0  0  0  0  0  0  0  0
   35.6500   28.7090   36.1340 N   0  0  0  0  0  0  0  0  0  0  0  0
   34.9610   27.6260   37.7980 H   0  0  0  0  0  0  0  0  0  0  0  0
   36.4760   29.9840   34.6270 H   0  0  0  0  0  0  0  0  0  0  0  0
   37.4780   31.2650   38.7700 C   0  0  0  0  0  0  0  0  0  0  0  0
   37.0770   32.3290   39.5100 C   0  0  0  0  0  0  0  0  0  0  0  0
   37.8670   33.0540   40.2860 C   0  0  0  0  0  0  0  0  0  0  0  0
   39.1820   32.6710   40.3210 C   0  0  0  0  0  0  0  0  0  0  0  0
   39.2050   31.2250   39.1850 S   0  0  0  0  0  0  0  0  0  0  0  0
   36.0830   32.7280   39.6200 H   0  0  0  0  0  0  0  0  0  0  0  0
   37.8110   33.8950   40.9360 H   0  0  0  0  0  0  0  0  0  0  0  0
   40.1310   32.8990   40.7440 H   0  0  0  0  0  0  0  0  0  0  0  0
   35.9750   29.0130   39.7870 C   0  0  2  0  0  3  0  0  0  0  0  0
   34.7240   29.1820   40.1560 O   0  0  0  0  0  1  0  0  0  0  0  0
   36.2410   26.1230   39.5050 Cl  0  0  0  0  0  0  0  0  0  0  0  0
   37.0510   27.1690   40.6960 C   0  0  0  0  0  0  0  0  0  0  0  0
   36.9440   28.5690   40.8360 C   0  0  0  0  0  0  0  0  0  0  0  0
   37.6820   29.1200   41.8440 C   0  0  0  0  0  0  0  0  0  0  0  0
   37.5140   30.1820   41.8760 H   0  0  0  0  0  0  0  0  0  0  0  0
   38.4830   28.3870   42.6800 C   0  0  0  0  0  3  0  0  0  0  0  0
   38.5820   27.0220   42.5380 C   0  0  0  0  0  0  0  0  0  0  0  0
   39.6420   26.2250   43.6800 Cl  0  0  0  0  0  0  0  0  0  0  0  0
   37.8650   26.3990   41.5420 C   0  0  0  0  0  0  0  0  0  0  0  0
   38.0040   25.3340   41.5060 H   0  0  0  0  0  0  0  0  0  0  0  0
  1  7  1  0  0  0  0
  1  2  1  0  0  0  0
  2 17  1  0  0  0  0
  3  2  2  0  0  0  0
  3  9  1  0  0  0  0
  4  3  1  0  0  0  0
  5  6  1  0  0  0  0
  5  4  2  0  0  0  0
  6  1  2  0  0  0  0
  8  5  1  0  0  0  0
  9 13  1  0  0  0  0
  9 10  2  0  0  0  0
 10 14  1  0  0  0  0
 10 11  1  0  0  0  0
 11 12  2  0  0  0  0
 11 15  1  0  0  0  0
 12 16  1  0  0  0  0
 13 12  1  0  0  0  0
 17 18  1  1  0  0  0
 17 21  1  0  0  0  0
 19 20  1  0  0  0  0
 20 21  2  0  0  0  0
 20 27  1  0  0  0  0
 21 22  1  0  0  0  0
 22 23  1  0  0  0  0
 22 24  2  0  0  0  0
 25 24  1  0  0  0  0
 25 26  1  0  0  0  0
 27 25  2  0  0  0  0
 28 27  1  0  0  0  0
M  END
>  <minimizedAffinity>
-5.02059984

$$$$

 OpenBabel03252503103D

 28 30  0  0  1  0  0  0  0  0999 V2000
   39.8080   32.2230   38.4200 C   0  0  0  0  0  0  0  0  0  0  0  0
   40.2520   31.8700   39.7210 C   0  0  0  0  0  0  0  0  0  0  0  0
   41.6120   31.6110   39.8090 C   0  0  0  0  0  0  0  0  0  0  0  0
   42.4300   31.6880   38.7500 N   0  0  0  0  0  0  0  0  0  0  0  0
   41.9480   32.0320   37.5190 C   0  0  0  0  0  0  0  0  0  0  0  0
   40.6320   32.2950   37.3760 N   0  0  0  0  0  0  0  0  0  0  0  0
   38.7450   32.4390   38.2890 H   0  0  0  0  0  0  0  0  0  0  0  0
   42.6510   32.0780   36.7030 H   0  0  0  0  0  0  0  0  0  0  0  0
   42.1410   31.2760   41.0510 C   0  0  0  0  0  0  0  0  0  0  0  0
   42.4070   31.9460   42.2010 C   0  0  0  0  0  0  0  0  0  0  0  0
   42.9480   31.4090   43.2830 C   0  0  0  0  0  0  0  0  0  0  0  0
   43.2480   30.0750   43.2000 C   0  0  0  0  0  0  0  0  0  0  0  0
   42.7090   29.6530   41.4930 S   0  0  0  0  0  0  0  0  0  0  0  0
   42.1980   32.9750   42.4360 H   0  0  0  0  0  0  0  0  0  0  0  0
   43.2470   31.6950   44.2640 H   0  0  0  0  0  0  0  0  0  0  0  0
   43.6550   29.2530   43.7370 H   0  0  0  0  0  0  0  0  0  0  0  0
   39.3150   31.8240   40.7790 C   0  0  2  0  0  3  0  0  0  0  0  0
   38.8610   33.0260   41.0640 O   0  0  0  0  0  1  0  0  0  0  0  0
   36.7150   31.1150   39.6670 Cl  0  0  0  0  0  0  0  0  0  0  0  0
   37.5330   30.3650   41.0570 C   0  0  0  0  0  0  0  0  0  0  0  0
   38.7960   30.6860   41.5980 C   0  0  0  0  0  0  0  0  0  0  0  0
   39.1830   29.9430   42.6770 C   0  0  0  0  0  0  0  0  0  0  0  0
   40.1450   30.2800   43.0220 H   0  0  0  0  0  0  0  0  0  0  0  0
   38.4170   28.9450   43.2190 C   0  0  0  0  0  3  0  0  0  0  0  0
   37.1860   28.6370   42.6860 C   0  0  0  0  0  0  0  0  0  0  0  0
   36.3260   27.3390   43.4870 Cl  0  0  0  0  0  0  0  0  0  0  0  0
   36.7320   29.3460   41.5980 C   0  0  0  0  0  0  0  0  0  0  0  0
   35.7630   29.0370   41.2500 H   0  0  0  0  0  0  0  0  0  0  0  0
  1  2  1  0  0  0  0
  2  3  2  0  0  0  0
  2 17  1  0  0  0  0
  3  9  1  0  0  0  0
  4  3  1  0  0  0  0
  5  4  2  0  0  0  0
  6  5  1  0  0  0  0
  6  1  2  0  0  0  0
  7  1  1  0  0  0  0
  8  5  1  0  0  0  0
  9 13  1  0  0  0  0
  9 10  2  0  0  0  0
 10 14  1  0  0  0  0
 10 11  1  0  0  0  0
 11 15  1  0  0  0  0
 12 11  2  0  0  0  0
 12 16  1  0  0  0  0
 13 12  1  0  0  0  0
 17 18  1  1  0  0  0
 17 21  1  0  0  0  0
 19 20  1  0  0  0  0
 20 21  2  0  0  0  0
 20 27  1  0  0  0  0
 21 22  1  0  0  0  0
 22 23  1  0  0  0  0
 22 24  2  0  0  0  0
 25 24  1  0  0  0  0
 25 26  1  0  0  0  0
 27 25  2  0  0  0  0
 28 27  1  0  0  0  0
M  END
>  <minimizedAffinity>
-4.91046286

$$$$
