
 OpenBabel03242513013D

 32 35  0  0  0  0  0  0  0  0999 V2000
   46.9570   35.0520   42.6330 C   0  0  0  0  0  0  0  0  0  0  0  0
   47.9690   34.5350   41.8250 C   0  0  0  0  0  0  0  0  0  0  0  0
   48.4990   33.2810   42.1430 C   0  0  0  0  0  0  0  0  0  0  0  0
   47.9740   32.6600   43.2330 N   0  0  0  0  0  0  0  0  0  0  0  0
   47.0050   33.1660   44.0000 C   0  0  0  0  0  0  0  0  0  0  0  0
   46.4990   34.3600   43.6990 N   0  0  0  0  0  0  0  0  0  0  0  0
   46.5600   36.0120   42.3790 H   0  0  0  0  0  0  0  0  0  0  0  0
   48.3460   35.0760   40.9720 H   0  0  0  0  0  0  0  0  0  0  0  0
   46.2540   31.0450   45.0150 C   0  0  0  0  0  0  0  0  0  0  0  0
   46.5310   32.3970   45.1400 C   0  0  0  0  0  0  0  0  0  0  0  0
   46.3750   33.0880   46.3480 C   0  0  0  0  0  0  0  0  0  0  0  0
   45.9220   32.4000   47.4810 C   0  0  0  0  0  0  0  0  0  0  0  0
   45.6630   32.7380   48.7760 N   0  0  0  0  0  0  0  0  0  0  0  0
   45.2360   31.6040   49.4160 C   0  0  0  0  0  0  0  0  0  0  0  0
   45.2440   30.5930   48.4960 N   0  0  0  0  0  0  0  0  0  0  0  0
   45.6590   31.0620   47.3120 C   0  0  0  0  0  0  0  0  0  0  0  0
   45.8020   30.3580   46.1460 C   0  0  0  0  0  0  0  0  0  0  0  0
   46.3750   30.5120   44.0840 H   0  0  0  0  0  0  0  0  0  0  0  0
   46.5930   34.1450   46.4410 H   0  0  0  0  0  0  0  0  0  0  0  0
   45.7850   33.7000   49.1500 H   0  0  0  0  0  0  0  0  0  0  0  0
   44.9520   31.5500   50.4570 H   0  0  0  0  0  0  0  0  0  0  0  0
   45.5870   29.3040   46.0440 H   0  0  0  0  0  0  0  0  0  0  0  0
   47.6680   32.1430   39.4330 Cl  0  0  0  0  0  0  0  0  0  0  0  0
   49.2540   32.1120   40.1420 C   0  0  0  0  0  0  0  0  0  0  0  0
   49.5560   32.6470   41.3710 C   0  0  0  0  0  0  0  0  0  0  0  0
   50.8570   32.5500   41.8060 C   0  0  0  0  0  0  0  0  0  0  0  0
   51.1510   32.9430   42.7470 H   0  0  0  0  0  0  0  0  0  0  0  0
   51.8130   31.9370   41.0320 C   0  0  0  0  0  0  0  0  0  0  0  0
   51.5390   31.3910   39.7940 C   0  0  0  0  0  0  0  0  0  0  0  0
   52.7510   30.6100   38.8010 Cl  0  0  0  0  0  0  0  0  0  0  0  0
   50.2150   31.4980   39.3640 C   0  0  0  0  0  0  0  0  0  0  0  0
   50.0240   31.0620   38.3890 H   0  0  0  0  0  0  0  0  0  0  0  0
  1  6  1  0  0  0  0
  2  3  1  0  0  0  0
  2  1  2  0  0  0  0
  3  4  2  0  0  0  0
  4  5  1  0  0  0  0
  5 10  1  0  0  0  0
  6  5  2  0  0  0  0
  7  1  1  0  0  0  0
  8  2  1  0  0  0  0
  9 10  2  0  0  0  0
  9 17  1  0  0  0  0
 10 11  1  0  0  0  0
 11 19  1  0  0  0  0
 11 12  2  0  0  0  0
 12 13  1  0  0  0  0
 13 20  1  0  0  0  0
 13 14  1  0  0  0  0
 14 21  1  0  0  0  0
 15 14  2  0  0  0  0
 16 12  1  0  0  0  0
 16 15  1  0  0  0  0
 17 16  2  0  0  0  0
 18  9  1  0  0  0  0
 22 17  1  0  0  0  0
 23 24  1  0  0  0  0
 24 25  1  0  0  0  0
 25 26  2  0  0  0  0
 25  3  1  0  0  0  0
 26 27  1  0  0  0  0
 28 26  1  0  0  0  0
 29 28  2  0  0  0  0
 30 29  1  0  0  0  0
 31 29  1  0  0  0  0
 31 24  2  0  0  0  0
 32 31  1  0  0  0  0
M  END
>  <minimizedAffinity>
-5.95993137

>  <minimizedRMSD>
1.2554934

$$$$
