
 OpenBabel03252508463D

 46 48  0  0  0  0  0  0  0  0999 V2000
   42.7020   31.5320   42.5740 N   0  0  0  0  0  0  0  0  0  0  0  0
   42.9320   31.8400   43.5570 H   0  0  0  0  0  0  0  0  0  0  0  0
   43.0460   32.5490   41.6300 C   0  0  0  0  0  0  0  0  0  0  0  0
   43.5910   32.0900   40.7840 H   0  0  0  0  0  0  0  0  0  0  0  0
   42.1380   33.0300   41.1870 H   0  0  0  0  0  0  0  0  0  0  0  0
   43.6510   34.9730   41.8770 C   0  0  0  0  0  0  0  0  0  0  0  0
   43.9110   33.6320   42.1860 C   0  0  0  0  0  0  0  0  0  0  0  0
   44.9800   33.3470   43.0090 C   0  0  0  0  0  0  0  0  0  0  0  0
   45.7610   34.3480   43.5080 C   0  0  0  0  0  0  0  0  0  0  0  0
   45.5230   35.6740   43.2170 C   0  0  0  0  0  0  0  0  0  0  0  0
   44.4410   35.9300   42.3870 C   0  0  0  0  0  0  0  0  0  0  0  0
   45.1360   32.2950   43.2150 H   0  0  0  0  0  0  0  0  0  0  0  0
   46.5800   34.0420   44.1440 H   0  0  0  0  0  0  0  0  0  0  0  0
   46.1620   36.4370   43.6310 H   0  0  0  0  0  0  0  0  0  0  0  0
   44.2200   36.9600   42.1350 H   0  0  0  0  0  0  0  0  0  0  0  0
   40.2310   35.8020   40.5130 C   0  0  0  0  0  0  0  0  0  0  0  0
   41.2540   35.5890   41.4590 C   0  0  0  0  0  0  0  0  0  0  0  0
   42.5160   35.2200   41.0070 C   0  0  0  0  0  0  0  0  0  0  0  0
   42.6770   35.0860   39.6570 N   0  0  0  0  0  0  0  0  0  0  0  0
   41.6780   35.2960   38.7650 C   0  0  0  0  0  0  0  0  0  0  0  0
   40.4660   35.6510   39.2080 N   0  0  0  0  0  0  0  0  0  0  0  0
   39.3170   36.0770   40.9970 H   0  0  0  0  0  0  0  0  0  0  0  0
   41.1620   35.6820   42.5140 H   0  0  0  0  0  0  0  0  0  0  0  0
   41.7930   35.1920   37.7080 H   0  0  0  0  0  0  0  0  0  0  0  0
   41.0230   31.1640   42.5670 S   0  0  0  0  0  0  0  0  0  0  0  0
   40.1950   32.4260   42.4920 O   0  0  0  0  0  0  0  0  0  0  0  0
   40.0870   32.9610   41.6530 H   0  0  0  0  0  0  0  0  0  0  0  0
   40.6400   30.3450   43.7400 O   0  0  0  0  0  0  0  0  0  0  0  0
   41.1450   30.1370   44.5610 H   0  0  0  0  0  0  0  0  0  0  0  0
   40.7430   30.2550   41.1780 O   0  0  0  0  0  0  0  0  0  0  0  0
   40.1630   29.0620   41.5260 C   0  0  0  0  0  0  0  0  0  0  0  0
   39.1740   29.2960   41.9730 H   0  0  0  0  0  0  0  0  0  0  0  0
   40.7070   28.4540   42.2600 H   0  0  0  0  0  0  0  0  0  0  0  0
   39.9230   28.2290   40.2530 C   0  0  0  0  0  0  0  0  0  0  0  0
   40.5670   27.3540   40.3490 H   0  0  0  0  0  0  0  0  0  0  0  0
   40.2750   28.8280   39.4180 H   0  0  0  0  0  0  0  0  0  0  0  0
   38.0270   30.2340   38.9130 Cl  0  0  0  0  0  0  0  0  0  0  0  0
   37.5270   28.6910   39.5750 C   0  0  0  0  0  0  0  0  0  0  0  0
   38.4850   27.8810   40.1430 C   0  0  0  0  0  0  0  0  0  0  0  0
   38.1010   26.6450   40.6740 C   0  0  0  0  0  0  0  0  0  0  0  0
   38.8390   25.9900   41.1230 H   0  0  0  0  0  0  0  0  0  0  0  0
   36.7900   26.2190   40.6420 C   0  0  0  0  0  3  0  0  0  0  0  0
   35.8680   27.0550   40.0670 C   0  0  0  0  0  0  0  0  0  0  0  0
   34.1940   26.4900   40.0390 Cl  0  0  0  0  0  0  0  0  0  0  0  0
   36.1940   28.2940   39.5260 C   0  0  0  0  0  0  0  0  0  0  0  0
   35.4230   28.9320   39.0720 H   0  0  0  0  0  0  0  0  0  0  0  0
  1  2  1  0  0  0  0
  3  7  1  0  0  0  0
  3  1  1  0  0  0  0
  4  3  1  0  0  0  0
  5  3  1  0  0  0  0
  6  7  2  0  0  0  0
  6 11  1  0  0  0  0
  7  8  1  0  0  0  0
  8 12  1  0  0  0  0
  8  9  2  0  0  0  0
  9 13  1  0  0  0  0
 10  9  1  0  0  0  0
 10 14  1  0  0  0  0
 11 10  2  0  0  0  0
 15 11  1  0  0  0  0
 16 22  1  0  0  0  0
 16 17  1  0  0  0  0
 17 23  1  0  0  0  0
 18 17  2  0  0  0  0
 18  6  1  0  0  0  0
 19 18  1  0  0  0  0
 20 21  1  0  0  0  0
 20 19  2  0  0  0  0
 21 16  2  0  0  0  0
 24 20  1  0  0  0  0
 25  1  1  0  0  0  0
 25 28  1  0  0  0  0
 26 25  1  0  0  0  0
 27 26  1  0  0  0  0
 28 29  1  0  0  0  0
 30 31  1  0  0  0  0
 30 25  1  0  0  0  0
 31 32  1  0  0  0  0
 31 33  1  0  0  0  0
 34 35  1  0  0  0  0
 34 31  1  0  0  0  0
 36 34  1  0  0  0  0
 37 38  1  0  0  0  0
 38 39  1  0  0  0  0
 39 34  1  0  0  0  0
 39 40  2  0  0  0  0
 40 41  1  0  0  0  0
 42 40  1  0  0  0  0
 43 42  2  0  0  0  0
 44 43  1  0  0  0  0
 45 38  2  0  0  0  0
 45 43  1  0  0  0  0
 46 45  1  0  0  0  0
M  END
>  <minimizedAffinity>
-5.55061483

>  <minimizedRMSD>
2.3785851

$$$$
