
 OpenBabel03242517293D

 41 43  0  0  1  0  0  0  0  0999 V2000
   40.1950   28.1680   37.0870 C   0  0  0  0  0  0  0  0  0  0  0  0
   41.4820   28.7110   36.8670 C   0  0  0  0  0  0  0  0  0  0  0  0
   41.7310   29.9990   37.3590 C   0  0  0  0  0  0  0  0  0  0  0  0
   40.7400   30.6550   38.0130 N   0  0  0  0  0  0  0  0  0  0  0  0
   39.5250   30.1130   38.2070 C   0  0  0  0  0  0  0  0  0  0  0  0
   39.2790   28.8730   37.7350 N   0  0  0  0  0  0  0  0  0  0  0  0
   38.5470   30.8550   38.8930 N   0  0  0  0  0  0  0  0  0  0  0  0
   38.1490   32.1350   38.4000 C   0  0  0  0  0  0  0  0  0  0  0  0
   37.3880   32.9470   39.4040 C   0  0  0  0  0  0  0  0  0  0  0  0
   36.6050   32.2310   40.3530 N   0  0  0  0  0  0  0  0  0  0  0  0
   36.5620   30.8240   40.1200 C   0  0  0  0  0  0  0  0  0  0  0  0
   37.9570   30.2880   40.1080 C   0  0  2  0  0  0  0  0  0  0  0  0
   39.8690   27.1910   36.7620 H   0  0  0  0  0  0  0  0  0  0  0  0
   42.1830   28.0940   36.3380 H   0  0  0  0  0  0  0  0  0  0  0  0
   42.7050   30.4040   37.1930 H   0  0  0  0  0  0  0  0  0  0  0  0
   37.5300   32.0460   37.4750 H   0  0  0  0  0  0  0  0  0  0  0  0
   39.0530   32.7330   38.1060 H   0  0  0  0  0  0  0  0  0  0  0  0
   38.1300   33.5540   39.9990 H   0  0  0  0  0  0  0  0  0  0  0  0
   36.7570   33.6970   38.8810 H   0  0  0  0  0  0  0  0  0  0  0  0
   36.8710   32.3960   41.3450 H   0  0  0  0  0  0  0  0  0  0  0  0
   36.0540   30.5210   39.2040 H   0  0  0  0  0  0  0  0  0  0  0  0
   36.0360   30.3630   40.9940 H   0  0  0  0  0  0  0  0  0  0  0  0
   37.9750   29.1850   39.9870 H   0  0  0  0  0  0  0  0  0  0  0  0
   38.7300   30.6560   41.3280 C   0  0  0  0  0  0  0  0  0  0  0  0
   38.1890   31.3830   41.9340 H   0  0  0  0  0  0  0  0  0  0  0  0
   39.7240   31.0570   41.0490 H   0  0  0  0  0  0  0  0  0  0  0  0
   38.8740   29.4220   42.1720 C   0  0  0  0  0  3  0  0  0  0  0  0
   37.8410   28.8970   42.8260 C   0  0  0  0  0  3  0  0  0  0  0  0
   37.9230   27.6760   43.6800 C   0  0  0  0  0  0  0  0  0  0  0  0
   37.0630   27.6030   44.3810 H   0  0  0  0  0  0  0  0  0  0  0  0
   38.8250   27.7830   44.3140 H   0  0  0  0  0  0  0  0  0  0  0  0
   40.6130   26.3200   43.6790 Cl  0  0  0  0  0  0  0  0  0  0  0  0
   39.2510   25.7180   42.7700 C   0  0  0  0  0  0  0  0  0  0  0  0
   38.0800   26.4480   42.8690 C   0  0  0  0  0  0  0  0  0  0  0  0
   36.9960   25.9510   42.1320 C   0  0  0  0  0  0  0  0  0  0  0  0
   36.0670   26.5360   42.2130 H   0  0  0  0  0  0  0  0  0  0  0  0
   36.9980   24.8330   41.3440 C   0  0  0  0  0  3  0  0  0  0  0  0
   38.2010   24.1430   41.2860 C   0  0  0  0  0  0  0  0  0  0  0  0
   38.2880   22.7140   40.3090 Cl  0  0  0  0  0  0  0  0  0  0  0  0
   39.3040   24.5800   41.9870 C   0  0  0  0  0  0  0  0  0  0  0  0
   40.2490   24.0580   41.9540 H   0  0  0  0  0  0  0  0  0  0  0  0
  1  6  1  0  0  0  0
  2  1  2  0  0  0  0
  2  3  1  0  0  0  0
  3  4  2  0  0  0  0
  4  5  1  0  0  0  0
  5  7  1  0  0  0  0
  6  5  2  0  0  0  0
  7 12  1  0  0  0  0
  8  7  1  0  0  0  0
  8  9  1  0  0  0  0
  9 18  1  0  0  0  0
  9 10  1  0  0  0  0
 10 20  1  0  0  0  0
 11 10  1  0  0  0  0
 11 22  1  0  0  0  0
 12 23  1  6  0  0  0
 12 11  1  0  0  0  0
 12 24  1  0  0  0  0
 13  1  1  0  0  0  0
 14  2  1  0  0  0  0
 15  3  1  0  0  0  0
 16  8  1  0  0  0  0
 17  8  1  0  0  0  0
 19  9  1  0  0  0  0
 21 11  1  0  0  0  0
 24 25  1  0  0  0  0
 24 27  1  0  0  0  0
 26 24  1  0  0  0  0
 27 28  2  0  0  0  0
 28 29  1  0  0  0  0
 29 31  1  0  0  0  0
 29 30  1  0  0  0  0
 33 34  1  0  0  0  0
 33 32  1  0  0  0  0
 34 29  1  0  0  0  0
 35 36  1  0  0  0  0
 35 34  2  0  0  0  0
 37 35  1  0  0  0  0
 38 37  2  0  0  0  0
 38 40  1  0  0  0  0
 39 38  1  0  0  0  0
 40 33  2  0  0  0  0
 41 40  1  0  0  0  0
M  END
>  <minimizedAffinity>
-5.93167973

$$$$

 OpenBabel03242517293D

 41 43  0  0  1  0  0  0  0  0999 V2000
   38.8280   28.4440   37.0980 C   0  0  0  0  0  0  0  0  0  0  0  0
   39.6920   27.5980   37.8290 C   0  0  0  0  0  0  0  0  0  0  0  0
   40.1720   28.0730   39.0570 C   0  0  0  0  0  0  0  0  0  0  0  0
   39.7880   29.3040   39.4800 N   0  0  0  0  0  0  0  0  0  0  0  0
   38.9630   30.0860   38.7620 C   0  0  0  0  0  0  0  0  0  0  0  0
   38.4990   29.6340   37.5780 N   0  0  0  0  0  0  0  0  0  0  0  0
   38.6110   31.3510   39.2650 N   0  0  0  0  0  0  0  0  0  0  0  0
   39.6300   32.3080   39.5630 C   0  0  0  0  0  0  0  0  0  0  0  0
   39.1460   33.4440   40.4120 C   0  0  0  0  0  0  0  0  0  0  0  0
   37.7810   33.8210   40.2690 N   0  0  0  0  0  0  0  0  0  0  0  0
   37.0980   33.1280   39.2240 C   0  0  0  0  0  0  0  0  0  0  0  0
   37.1940   31.6570   39.4720 C   0  0  2  0  0  0  0  0  0  0  0  0
   38.3880   28.2050   36.1400 H   0  0  0  0  0  0  0  0  0  0  0  0
   39.9220   26.6460   37.3910 H   0  0  0  0  0  0  0  0  0  0  0  0
   40.8230   27.4310   39.6070 H   0  0  0  0  0  0  0  0  0  0  0  0
   40.0840   32.7280   38.6340 H   0  0  0  0  0  0  0  0  0  0  0  0
   40.4710   31.8140   40.1190 H   0  0  0  0  0  0  0  0  0  0  0  0
   39.2840   33.1570   41.4930 H   0  0  0  0  0  0  0  0  0  0  0  0
   39.8010   34.3290   40.2630 H   0  0  0  0  0  0  0  0  0  0  0  0
   37.2180   33.7480   41.1400 H   0  0  0  0  0  0  0  0  0  0  0  0
   37.4500   33.3460   38.2160 H   0  0  0  0  0  0  0  0  0  0  0  0
   36.0170   33.4080   39.2980 H   0  0  0  0  0  0  0  0  0  0  0  0
   36.6270   31.0740   38.7160 H   0  0  0  0  0  0  0  0  0  0  0  0
   36.7310   31.2670   40.8340 C   0  0  0  0  0  0  0  0  0  0  0  0
   35.7450   31.6800   41.0490 H   0  0  0  0  0  0  0  0  0  0  0  0
   37.4590   31.6010   41.5990 H   0  0  0  0  0  0  0  0  0  0  0  0
   36.5820   29.7730   40.8600 C   0  0  0  0  0  3  0  0  0  0  0  0
   36.8370   29.0650   41.9580 C   0  0  0  0  0  3  0  0  0  0  0  0
   36.7090   27.5800   42.0450 C   0  0  0  0  0  0  0  0  0  0  0  0
   36.2200   27.1540   41.1420 H   0  0  0  0  0  0  0  0  0  0  0  0
   36.0290   27.3630   42.8910 H   0  0  0  0  0  0  0  0  0  0  0  0
   36.8620   24.5790   41.8400 Cl  0  0  0  0  0  0  0  0  0  0  0  0
   38.2330   25.5680   42.2740 C   0  0  0  0  0  0  0  0  0  0  0  0
   38.0090   26.9320   42.3280 C   0  0  0  0  0  0  0  0  0  0  0  0
   39.1200   27.7120   42.6790 C   0  0  0  0  0  0  0  0  0  0  0  0
   38.9360   28.7960   42.7210 H   0  0  0  0  0  0  0  0  0  0  0  0
   40.3750   27.2500   42.9650 C   0  0  0  0  0  3  0  0  0  0  0  0
   40.5370   25.8730   42.8930 C   0  0  0  0  0  0  0  0  0  0  0  0
   42.0980   25.2050   43.2410 Cl  0  0  0  0  0  0  0  0  0  0  0  0
   39.4840   25.0510   42.5540 C   0  0  0  0  0  0  0  0  0  0  0  0
   39.5890   23.9780   42.4940 H   0  0  0  0  0  0  0  0  0  0  0  0
  1  6  2  0  0  0  0
  1  2  1  0  0  0  0
  2  3  2  0  0  0  0
  3  4  1  0  0  0  0
  3 15  1  0  0  0  0
  5  7  1  0  0  0  0
  5  4  2  0  0  0  0
  6  5  1  0  0  0  0
  7 12  1  0  0  0  0
  7  8  1  0  0  0  0
  8 17  1  0  0  0  0
  8  9  1  0  0  0  0
  9 18  1  0  0  0  0
 10  9  1  0  0  0  0
 10 20  1  0  0  0  0
 11 22  1  0  0  0  0
 11 12  1  0  0  0  0
 11 10  1  0  0  0  0
 12 23  1  6  0  0  0
 12 24  1  0  0  0  0
 13  1  1  0  0  0  0
 14  2  1  0  0  0  0
 16  8  1  0  0  0  0
 19  9  1  0  0  0  0
 21 11  1  0  0  0  0
 24 27  1  0  0  0  0
 24 25  1  0  0  0  0
 24 26  1  0  0  0  0
 27 28  2  0  0  0  0
 28 29  1  0  0  0  0
 29 34  1  0  0  0  0
 29 31  1  0  0  0  0
 30 29  1  0  0  0  0
 32 33  1  0  0  0  0
 33 34  2  0  0  0  0
 33 40  1  0  0  0  0
 34 35  1  0  0  0  0
 35 36  1  0  0  0  0
 35 37  2  0  0  0  0
 38 37  1  0  0  0  0
 38 39  1  0  0  0  0
 40 38  2  0  0  0  0
 41 40  1  0  0  0  0
M  END
>  <minimizedAffinity>
-5.77276945

$$$$

 OpenBabel03242517293D

 41 43  0  0  1  0  0  0  0  0999 V2000
   38.1750   28.5140   38.4680 C   0  0  0  0  0  0  0  0  0  0  0  0
   36.8950   28.8630   37.9810 C   0  0  0  0  0  0  0  0  0  0  0  0
   35.8690   27.9200   38.1320 C   0  0  0  0  0  0  0  0  0  0  0  0
   36.1490   26.7360   38.7300 N   0  0  0  0  0  0  0  0  0  0  0  0
   37.3770   26.4310   39.1840 C   0  0  0  0  0  0  0  0  0  0  0  0
   38.3690   27.3350   39.0410 N   0  0  0  0  0  0  0  0  0  0  0  0
   37.5910   25.1820   39.7920 N   0  0  0  0  0  0  0  0  0  0  0  0
   37.3120   23.9810   39.0690 C   0  0  0  0  0  0  0  0  0  0  0  0
   37.2410   22.7660   39.9440 C   0  0  0  0  0  0  0  0  0  0  0  0
   38.0480   22.7660   41.1160 N   0  0  0  0  0  0  0  0  0  0  0  0
   38.9170   23.8930   41.2170 C   0  0  0  0  0  0  0  0  0  0  0  0
   38.1000   25.1450   41.1650 C   0  0  2  0  0  0  0  0  0  0  0  0
   39.0530   29.1420   38.4160 H   0  0  0  0  0  0  0  0  0  0  0  0
   36.7970   29.8310   37.5280 H   0  0  0  0  0  0  0  0  0  0  0  0
   34.9030   28.1890   37.7650 H   0  0  0  0  0  0  0  0  0  0  0  0
   38.0680   23.7980   38.2690 H   0  0  0  0  0  0  0  0  0  0  0  0
   36.3240   24.0690   38.5430 H   0  0  0  0  0  0  0  0  0  0  0  0
   36.1750   22.6470   40.2920 H   0  0  0  0  0  0  0  0  0  0  0  0
   37.4490   21.8570   39.3400 H   0  0  0  0  0  0  0  0  0  0  0  0
   37.5180   22.6730   42.0060 H   0  0  0  0  0  0  0  0  0  0  0  0
   39.7000   23.9450   40.4610 H   0  0  0  0  0  0  0  0  0  0  0  0
   39.3930   23.8500   42.2290 H   0  0  0  0  0  0  0  0  0  0  0  0
   38.7260   26.0520   41.2980 H   0  0  0  0  0  0  0  0  0  0  0  0
   37.0000   25.1610   42.1700 C   0  0  0  0  0  0  0  0  0  0  0  0
   37.1860   24.4470   42.9710 H   0  0  0  0  0  0  0  0  0  0  0  0
   36.0290   24.9420   41.6820 H   0  0  0  0  0  0  0  0  0  0  0  0
   36.9780   26.5210   42.8070 C   0  0  0  0  0  3  0  0  0  0  0  0
   38.0050   27.3590   42.7010 C   0  0  0  0  0  3  0  0  0  0  0  0
   38.0420   28.7200   43.3130 C   0  0  0  0  0  0  0  0  0  0  0  0
   38.9500   28.8670   43.9380 H   0  0  0  0  0  0  0  0  0  0  0  0
   37.1810   28.7880   44.0060 H   0  0  0  0  0  0  0  0  0  0  0  0
   40.4860   30.3180   42.5730 Cl  0  0  0  0  0  0  0  0  0  0  0  0
   38.9200   30.5980   41.8550 C   0  0  0  0  0  0  0  0  0  0  0  0
   37.8930   29.7850   42.2960 C   0  0  0  0  0  0  0  0  0  0  0  0
   36.6410   30.0230   41.7100 C   0  0  0  0  0  0  0  0  0  0  0  0
   35.8260   29.3740   42.0650 H   0  0  0  0  0  0  0  0  0  0  0  0
   36.3590   30.9680   40.7630 C   0  0  0  0  0  3  0  0  0  0  0  0
   37.4320   31.7520   40.3600 C   0  0  0  0  0  0  0  0  0  0  0  0
   37.1580   32.9750   39.1620 Cl  0  0  0  0  0  0  0  0  0  0  0  0
   38.6870   31.5680   40.8980 C   0  0  0  0  0  0  0  0  0  0  0  0
   39.5330   32.1690   40.6000 H   0  0  0  0  0  0  0  0  0  0  0  0
  1  6  1  0  0  0  0
  2  3  1  0  0  0  0
  2  1  2  0  0  0  0
  3  4  2  0  0  0  0
  4  5  1  0  0  0  0
  5  7  1  0  0  0  0
  6  5  2  0  0  0  0
  7 12  1  0  0  0  0
  8  7  1  0  0  0  0
  8  9  1  0  0  0  0
  9 18  1  0  0  0  0
  9 10  1  0  0  0  0
 10 11  1  0  0  0  0
 10 20  1  0  0  0  0
 11 22  1  0  0  0  0
 12 11  1  0  0  0  0
 12 23  1  1  0  0  0
 12 24  1  0  0  0  0
 13  1  1  0  0  0  0
 14  2  1  0  0  0  0
 15  3  1  0  0  0  0
 16  8  1  0  0  0  0
 17  8  1  0  0  0  0
 19  9  1  0  0  0  0
 21 11  1  0  0  0  0
 24 27  1  0  0  0  0
 24 25  1  0  0  0  0
 26 24  1  0  0  0  0
 28 27  2  0  0  0  0
 28 29  1  0  0  0  0
 29 30  1  0  0  0  0
 29 31  1  0  0  0  0
 33 34  1  0  0  0  0
 33 32  1  0  0  0  0
 34 29  1  0  0  0  0
 35 36  1  0  0  0  0
 35 34  2  0  0  0  0
 37 35  1  0  0  0  0
 38 37  2  0  0  0  0
 38 40  1  0  0  0  0
 39 38  1  0  0  0  0
 40 33  2  0  0  0  0
 41 40  1  0  0  0  0
M  END
>  <minimizedAffinity>
-5.76429224

$$$$

 OpenBabel03242517293D

 41 43  0  0  1  0  0  0  0  0999 V2000
   37.3460   32.8510   39.2590 C   0  0  0  0  0  0  0  0  0  0  0  0
   37.1270   31.7640   38.3810 C   0  0  0  0  0  0  0  0  0  0  0  0
   38.2560   31.1370   37.8370 C   0  0  0  0  0  0  0  0  0  0  0  0
   39.4870   31.5950   38.1750 N   0  0  0  0  0  0  0  0  0  0  0  0
   39.6640   32.6310   39.0130 C   0  0  0  0  0  0  0  0  0  0  0  0
   38.5810   33.2390   39.5390 N   0  0  0  0  0  0  0  0  0  0  0  0
   40.9720   33.0500   39.3150 N   0  0  0  0  0  0  0  0  0  0  0  0
   41.8500   33.4550   38.2630 C   0  0  0  0  0  0  0  0  0  0  0  0
   43.2870   33.5240   38.6840 C   0  0  0  0  0  0  0  0  0  0  0  0
   43.5470   33.8490   40.0450 N   0  0  0  0  0  0  0  0  0  0  0  0
   42.3770   34.1910   40.7890 C   0  0  0  0  0  0  0  0  0  0  0  0
   41.4030   33.0590   40.7150 C   0  0  2  0  0  0  0  0  0  0  0  0
   36.5690   33.4230   39.7460 H   0  0  0  0  0  0  0  0  0  0  0  0
   36.1060   31.4930   38.1920 H   0  0  0  0  0  0  0  0  0  0  0  0
   38.0860   30.3160   37.1760 H   0  0  0  0  0  0  0  0  0  0  0  0
   41.5570   34.4470   37.8410 H   0  0  0  0  0  0  0  0  0  0  0  0
   41.7890   32.7290   37.4090 H   0  0  0  0  0  0  0  0  0  0  0  0
   43.7540   32.5140   38.5050 H   0  0  0  0  0  0  0  0  0  0  0  0
   43.8410   34.2190   38.0170 H   0  0  0  0  0  0  0  0  0  0  0  0
   44.0740   33.1220   40.5700 H   0  0  0  0  0  0  0  0  0  0  0  0
   41.8820   35.1110   40.4770 H   0  0  0  0  0  0  0  0  0  0  0  0
   42.6880   34.2930   41.8590 H   0  0  0  0  0  0  0  0  0  0  0  0
   40.4980   33.2530   41.3260 H   0  0  0  0  0  0  0  0  0  0  0  0
   41.9980   31.7560   41.1250 C   0  0  0  0  0  0  0  0  0  0  0  0
   43.0140   31.8840   41.4980 H   0  0  0  0  0  0  0  0  0  0  0  0
   41.9910   31.0440   40.2750 H   0  0  0  0  0  0  0  0  0  0  0  0
   41.1880   31.2200   42.2710 C   0  0  0  0  0  3  0  0  0  0  0  0
   39.9900   30.6710   42.0840 C   0  0  0  0  0  3  0  0  0  0  0  0
   39.1400   30.1240   43.1810 C   0  0  0  0  0  0  0  0  0  0  0  0
   38.3690   30.8550   43.5100 H   0  0  0  0  0  0  0  0  0  0  0  0
   39.8010   29.9640   44.0560 H   0  0  0  0  0  0  0  0  0  0  0  0
   36.5880   30.1350   41.5800 Cl  0  0  0  0  0  0  0  0  0  0  0  0
   37.3800   28.6650   42.0870 C   0  0  0  0  0  0  0  0  0  0  0  0
   38.5440   28.8190   42.8170 C   0  0  0  0  0  0  0  0  0  0  0  0
   39.1670   27.6280   43.2170 C   0  0  0  0  0  0  0  0  0  0  0  0
   40.0930   27.7560   43.7990 H   0  0  0  0  0  0  0  0  0  0  0  0
   38.7310   26.3590   42.9520 C   0  0  0  0  0  3  0  0  0  0  0  0
   37.5580   26.2700   42.2150 C   0  0  0  0  0  0  0  0  0  0  0  0
   36.9380   24.6960   41.8360 Cl  0  0  0  0  0  0  0  0  0  0  0  0
   36.8980   27.4030   41.7920 C   0  0  0  0  0  0  0  0  0  0  0  0
   35.9840   27.3550   41.2190 H   0  0  0  0  0  0  0  0  0  0  0  0
  1  6  1  0  0  0  0
  1 13  1  0  0  0  0
  2  1  2  0  0  0  0
  3  4  2  0  0  0  0
  3  2  1  0  0  0  0
  4  5  1  0  0  0  0
  5  7  1  0  0  0  0
  5  6  2  0  0  0  0
  7 12  1  0  0  0  0
  8  9  1  0  0  0  0
  8  7  1  0  0  0  0
  9 10  1  0  0  0  0
 10 20  1  0  0  0  0
 10 11  1  0  0  0  0
 11 22  1  0  0  0  0
 12 11  1  0  0  0  0
 12 24  1  0  0  0  0
 12 23  1  1  0  0  0
 14  2  1  0  0  0  0
 15  3  1  0  0  0  0
 16  8  1  0  0  0  0
 17  8  1  0  0  0  0
 18  9  1  0  0  0  0
 19  9  1  0  0  0  0
 21 11  1  0  0  0  0
 24 25  1  0  0  0  0
 24 27  1  0  0  0  0
 26 24  1  0  0  0  0
 28 27  2  0  0  0  0
 28 29  1  0  0  0  0
 29 30  1  0  0  0  0
 29 31  1  0  0  0  0
 32 33  1  0  0  0  0
 33 34  1  0  0  0  0
 34 29  1  0  0  0  0
 34 35  2  0  0  0  0
 35 36  1  0  0  0  0
 37 35  1  0  0  0  0
 38 37  2  0  0  0  0
 39 38  1  0  0  0  0
 40 33  2  0  0  0  0
 40 38  1  0  0  0  0
 41 40  1  0  0  0  0
M  END
>  <minimizedAffinity>
-5.7229228

$$$$

 OpenBabel03242517293D

 41 43  0  0  1  0  0  0  0  0999 V2000
   37.1440   27.8010   43.4060 C   0  0  0  0  0  0  0  0  0  0  0  0
   38.3480   28.5320   43.2810 C   0  0  0  0  0  0  0  0  0  0  0  0
   39.3220   28.0240   42.4110 C   0  0  0  0  0  0  0  0  0  0  0  0
   39.0670   26.8740   41.7390 N   0  0  0  0  0  0  0  0  0  0  0  0
   37.9120   26.2000   41.8790 C   0  0  0  0  0  0  0  0  0  0  0  0
   36.9710   26.6830   42.7160 N   0  0  0  0  0  0  0  0  0  0  0  0
   37.7210   25.0130   41.1500 N   0  0  0  0  0  0  0  0  0  0  0  0
   38.6370   23.9270   41.3050 C   0  0  0  0  0  0  0  0  0  0  0  0
   38.5200   22.8950   40.2240 C   0  0  0  0  0  0  0  0  0  0  0  0
   37.2350   22.7160   39.6380 N   0  0  0  0  0  0  0  0  0  0  0  0
   36.2040   23.4730   40.2700 C   0  0  0  0  0  0  0  0  0  0  0  0
   36.5750   24.9210   40.2430 C   0  0  2  0  0  0  0  0  0  0  0  0
   36.3130   28.0760   44.0400 H   0  0  0  0  0  0  0  0  0  0  0  0
   38.4320   29.4290   43.8630 H   0  0  0  0  0  0  0  0  0  0  0  0
   40.2290   28.5800   42.3180 H   0  0  0  0  0  0  0  0  0  0  0  0
   38.5130   23.4220   42.2920 H   0  0  0  0  0  0  0  0  0  0  0  0
   39.6930   24.3090   41.2870 H   0  0  0  0  0  0  0  0  0  0  0  0
   39.2130   23.1870   39.3850 H   0  0  0  0  0  0  0  0  0  0  0  0
   38.9080   21.9210   40.5920 H   0  0  0  0  0  0  0  0  0  0  0  0
   37.1990   22.8920   38.6140 H   0  0  0  0  0  0  0  0  0  0  0  0
   35.9750   23.1810   41.2950 H   0  0  0  0  0  0  0  0  0  0  0  0
   35.2820   23.3540   39.6460 H   0  0  0  0  0  0  0  0  0  0  0  0
   35.7750   25.5600   40.6720 H   0  0  0  0  0  0  0  0  0  0  0  0
   36.9050   25.4090   38.8740 C   0  0  0  0  0  0  0  0  0  0  0  0
   36.6170   24.6810   38.1150 H   0  0  0  0  0  0  0  0  0  0  0  0
   37.9870   25.6340   38.7950 H   0  0  0  0  0  0  0  0  0  0  0  0
   36.0880   26.6410   38.6140 C   0  0  0  0  0  3  0  0  0  0  0  0
   36.6210   27.7320   38.0690 C   0  0  0  0  0  3  0  0  0  0  0  0
   35.8610   28.9850   37.7880 C   0  0  0  0  0  0  0  0  0  0  0  0
   34.7780   28.8700   38.0100 H   0  0  0  0  0  0  0  0  0  0  0  0
   35.9310   29.1690   36.6970 H   0  0  0  0  0  0  0  0  0  0  0  0
   35.2560   29.3290   40.7180 Cl  0  0  0  0  0  0  0  0  0  0  0  0
   36.2600   30.4410   39.8230 C   0  0  0  0  0  0  0  0  0  0  0  0
   36.4480   30.1520   38.4850 C   0  0  0  0  0  0  0  0  0  0  0  0
   37.2560   31.0550   37.7800 C   0  0  0  0  0  0  0  0  0  0  0  0
   37.4010   30.8210   36.7140 H   0  0  0  0  0  0  0  0  0  0  0  0
   37.8600   32.1700   38.2930 C   0  0  0  0  0  3  0  0  0  0  0  0
   37.6350   32.4050   39.6430 C   0  0  0  0  0  0  0  0  0  0  0  0
   38.3650   33.7990   40.3710 Cl  0  0  0  0  0  0  0  0  0  0  0  0
   36.8500   31.5550   40.3900 C   0  0  0  0  0  0  0  0  0  0  0  0
   36.6610   31.7220   41.4400 H   0  0  0  0  0  0  0  0  0  0  0  0
  1 13  1  0  0  0  0
  2  1  1  0  0  0  0
  2 14  1  0  0  0  0
  3  2  2  0  0  0  0
  4  5  2  0  0  0  0
  4  3  1  0  0  0  0
  5  6  1  0  0  0  0
  6  1  2  0  0  0  0
  7  8  1  0  0  0  0
  7  5  1  0  0  0  0
  8 16  1  0  0  0  0
  9 19  1  0  0  0  0
  9  8  1  0  0  0  0
 10  9  1  0  0  0  0
 10 11  1  0  0  0  0
 11 21  1  0  0  0  0
 12 11  1  0  0  0  0
 12 23  1  1  0  0  0
 12  7  1  0  0  0  0
 15  3  1  0  0  0  0
 17  8  1  0  0  0  0
 18  9  1  0  0  0  0
 20 10  1  0  0  0  0
 22 11  1  0  0  0  0
 24 12  1  0  0  0  0
 25 24  1  0  0  0  0
 26 24  1  0  0  0  0
 27 24  1  0  0  0  0
 28 27  2  0  0  0  0
 29 30  1  0  0  0  0
 29 28  1  0  0  0  0
 29 34  1  0  0  0  0
 31 29  1  0  0  0  0
 33 40  1  0  0  0  0
 33 32  1  0  0  0  0
 34 33  2  0  0  0  0
 35 37  2  0  0  0  0
 35 34  1  0  0  0  0
 36 35  1  0  0  0  0
 37 38  1  0  0  0  0
 38 39  1  0  0  0  0
 38 40  2  0  0  0  0
 40 41  1  0  0  0  0
M  END
>  <minimizedAffinity>
-5.71694326

$$$$

 OpenBabel03242517293D

 41 43  0  0  1  0  0  0  0  0999 V2000
   36.5120   29.9450   37.8000 C   0  0  0  0  0  0  0  0  0  0  0  0
   37.2130   28.9050   37.1470 C   0  0  0  0  0  0  0  0  0  0  0  0
   38.6110   28.9070   37.2510 C   0  0  0  0  0  0  0  0  0  0  0  0
   39.2150   29.8910   37.9620 N   0  0  0  0  0  0  0  0  0  0  0  0
   38.5210   30.8670   38.5730 C   0  0  0  0  0  0  0  0  0  0  0  0
   37.1760   30.8710   38.4770 N   0  0  0  0  0  0  0  0  0  0  0  0
   39.2190   31.8540   39.2910 N   0  0  0  0  0  0  0  0  0  0  0  0
   40.2030   32.6530   38.6320 C   0  0  0  0  0  0  0  0  0  0  0  0
   41.0980   33.3920   39.5800 C   0  0  0  0  0  0  0  0  0  0  0  0
   40.5390   33.7720   40.8330 N   0  0  0  0  0  0  0  0  0  0  0  0
   39.1440   33.4970   40.9490 C   0  0  0  0  0  0  0  0  0  0  0  0
   38.9130   32.0380   40.7120 C   0  0  2  0  0  0  0  0  0  0  0  0
   35.4380   30.0650   37.8020 H   0  0  0  0  0  0  0  0  0  0  0  0
   36.6240   28.1830   36.6170 H   0  0  0  0  0  0  0  0  0  0  0  0
   39.1360   28.1190   36.7580 H   0  0  0  0  0  0  0  0  0  0  0  0
   39.7350   33.3920   37.9380 H   0  0  0  0  0  0  0  0  0  0  0  0
   40.8590   32.0050   37.9930 H   0  0  0  0  0  0  0  0  0  0  0  0
   41.9820   32.7320   39.8140 H   0  0  0  0  0  0  0  0  0  0  0  0
   41.5300   34.2820   39.0730 H   0  0  0  0  0  0  0  0  0  0  0  0
   41.0270   33.3750   41.6620 H   0  0  0  0  0  0  0  0  0  0  0  0
   38.5010   34.0740   40.2840 H   0  0  0  0  0  0  0  0  0  0  0  0
   38.8550   33.7110   42.0080 H   0  0  0  0  0  0  0  0  0  0  0  0
   37.8470   31.7620   40.8480 H   0  0  0  0  0  0  0  0  0  0  0  0
   39.7550   31.1700   41.5820 C   0  0  0  0  0  0  0  0  0  0  0  0
   40.2780   31.7560   42.3380 H   0  0  0  0  0  0  0  0  0  0  0  0
   40.4830   30.6010   40.9700 H   0  0  0  0  0  0  0  0  0  0  0  0
   38.8430   30.2360   42.3240 C   0  0  0  0  0  3  0  0  0  0  0  0
   39.2800   29.0860   42.8290 C   0  0  0  0  0  3  0  0  0  0  0  0
   38.4220   28.1170   43.5730 C   0  0  0  0  0  0  0  0  0  0  0  0
   37.4510   28.5700   43.8700 H   0  0  0  0  0  0  0  0  0  0  0  0
   38.9480   27.8790   44.5190 H   0  0  0  0  0  0  0  0  0  0  0  0
   36.1400   27.9590   41.6140 Cl  0  0  0  0  0  0  0  0  0  0  0  0
   37.2400   26.6340   41.8930 C   0  0  0  0  0  0  0  0  0  0  0  0
   38.2390   26.8550   42.8230 C   0  0  0  0  0  0  0  0  0  0  0  0
   39.1140   25.7800   43.0360 C   0  0  0  0  0  0  0  0  0  0  0  0
   39.9060   25.9610   43.7780 H   0  0  0  0  0  0  0  0  0  0  0  0
   39.0640   24.5620   42.4160 C   0  0  0  0  0  3  0  0  0  0  0  0
   38.0400   24.4020   41.4930 C   0  0  0  0  0  0  0  0  0  0  0  0
   37.9060   22.8860   40.6620 Cl  0  0  0  0  0  0  0  0  0  0  0  0
   37.1470   25.4200   41.2390 C   0  0  0  0  0  0  0  0  0  0  0  0
   36.3430   25.3140   40.5260 H   0  0  0  0  0  0  0  0  0  0  0  0
  1 13  1  0  0  0  0
  1  6  1  0  0  0  0
  2  3  1  0  0  0  0
  2  1  2  0  0  0  0
  3  4  2  0  0  0  0
  4  5  1  0  0  0  0
  5  7  1  0  0  0  0
  6  5  2  0  0  0  0
  7 12  1  0  0  0  0
  8  7  1  0  0  0  0
  8  9  1  0  0  0  0
  9 18  1  0  0  0  0
  9 10  1  0  0  0  0
 10 11  1  0  0  0  0
 10 20  1  0  0  0  0
 11 22  1  0  0  0  0
 12 23  1  1  0  0  0
 12 11  1  0  0  0  0
 12 24  1  0  0  0  0
 14  2  1  0  0  0  0
 15  3  1  0  0  0  0
 16  8  1  0  0  0  0
 17  8  1  0  0  0  0
 19  9  1  0  0  0  0
 21 11  1  0  0  0  0
 24 27  1  0  0  0  0
 24 25  1  0  0  0  0
 26 24  1  0  0  0  0
 27 28  2  0  0  0  0
 28 29  1  0  0  0  0
 29 30  1  0  0  0  0
 29 31  1  0  0  0  0
 32 33  1  0  0  0  0
 33 34  1  0  0  0  0
 34 35  2  0  0  0  0
 34 29  1  0  0  0  0
 35 36  1  0  0  0  0
 37 35  1  0  0  0  0
 38 37  2  0  0  0  0
 39 38  1  0  0  0  0
 40 38  1  0  0  0  0
 40 33  2  0  0  0  0
 41 40  1  0  0  0  0
M  END
>  <minimizedAffinity>
-5.69974232

$$$$

 OpenBabel03242517293D

 41 43  0  0  1  0  0  0  0  0999 V2000
   40.4240   27.9540   40.5800 C   0  0  0  0  0  0  0  0  0  0  0  0
   40.2410   27.7460   41.9660 C   0  0  0  0  0  0  0  0  0  0  0  0
   40.1010   28.8830   42.7740 C   0  0  0  0  0  0  0  0  0  0  0  0
   40.1450   30.1090   42.1970 N   0  0  0  0  0  0  0  0  0  0  0  0
   40.3200   30.2750   40.8740 C   0  0  0  0  0  0  0  0  0  0  0  0
   40.4570   29.1850   40.0910 N   0  0  0  0  0  0  0  0  0  0  0  0
   40.3570   31.5780   40.3480 N   0  0  0  0  0  0  0  0  0  0  0  0
   41.3290   32.5110   40.8240 C   0  0  0  0  0  0  0  0  0  0  0  0
   41.0230   33.9300   40.4490 C   0  0  0  0  0  0  0  0  0  0  0  0
   40.3180   34.1370   39.2290 N   0  0  0  0  0  0  0  0  0  0  0  0
   40.1160   32.9450   38.4710 C   0  0  0  0  0  0  0  0  0  0  0  0
   39.3880   31.9480   39.3140 C   0  0  2  0  0  0  0  0  0  0  0  0
   40.5460   27.1710   39.8440 H   0  0  0  0  0  0  0  0  0  0  0  0
   40.2220   26.7290   42.3040 H   0  0  0  0  0  0  0  0  0  0  0  0
   39.9610   28.7220   43.8210 H   0  0  0  0  0  0  0  0  0  0  0  0
   42.3540   32.2610   40.4580 H   0  0  0  0  0  0  0  0  0  0  0  0
   41.3860   32.4700   41.9450 H   0  0  0  0  0  0  0  0  0  0  0  0
   40.3860   34.3780   41.2630 H   0  0  0  0  0  0  0  0  0  0  0  0
   41.9590   34.5290   40.4520 H   0  0  0  0  0  0  0  0  0  0  0  0
   39.4050   34.6230   39.3360 H   0  0  0  0  0  0  0  0  0  0  0  0
   41.0240   32.4870   38.0770 H   0  0  0  0  0  0  0  0  0  0  0  0
   39.4450   33.2110   37.6160 H   0  0  0  0  0  0  0  0  0  0  0  0
   39.1550   31.0220   38.7480 H   0  0  0  0  0  0  0  0  0  0  0  0
   38.1290   32.4910   39.8960 C   0  0  0  0  0  0  0  0  0  0  0  0
   37.7820   33.3640   39.3440 H   0  0  0  0  0  0  0  0  0  0  0  0
   38.2780   32.7510   40.9640 H   0  0  0  0  0  0  0  0  0  0  0  0
   37.0630   31.4440   39.7510 C   0  0  0  0  0  3  0  0  0  0  0  0
   36.7030   30.6660   40.7690 C   0  0  0  0  0  3  0  0  0  0  0  0
   35.6530   29.6090   40.6850 C   0  0  0  0  0  0  0  0  0  0  0  0
   35.1330   29.6210   39.7020 H   0  0  0  0  0  0  0  0  0  0  0  0
   34.8820   29.8560   41.4410 H   0  0  0  0  0  0  0  0  0  0  0  0
   36.1940   27.7170   38.4040 Cl  0  0  0  0  0  0  0  0  0  0  0  0
   36.4910   27.2970   40.0710 C   0  0  0  0  0  0  0  0  0  0  0  0
   36.1940   28.2700   41.0080 C   0  0  0  0  0  0  0  0  0  0  0  0
   36.4380   27.9160   42.3430 C   0  0  0  0  0  0  0  0  0  0  0  0
   36.1980   28.6930   43.0850 H   0  0  0  0  0  0  0  0  0  0  0  0
   36.9330   26.7210   42.7850 C   0  0  0  0  0  3  0  0  0  0  0  0
   37.2130   25.7860   41.7970 C   0  0  0  0  0  0  0  0  0  0  0  0
   37.8450   24.2440   42.2740 Cl  0  0  0  0  0  0  0  0  0  0  0  0
   36.9950   26.0720   40.4670 C   0  0  0  0  0  0  0  0  0  0  0  0
   37.2050   25.3590   39.6850 H   0  0  0  0  0  0  0  0  0  0  0  0
  1  2  1  0  0  0  0
  2 14  1  0  0  0  0
  2  3  2  0  0  0  0
  3 15  1  0  0  0  0
  4  3  1  0  0  0  0
  5  4  2  0  0  0  0
  6  1  2  0  0  0  0
  6  5  1  0  0  0  0
  7  8  1  0  0  0  0
  7  5  1  0  0  0  0
  8 17  1  0  0  0  0
  9 19  1  0  0  0  0
  9  8  1  0  0  0  0
  9 18  1  0  0  0  0
 10 20  1  0  0  0  0
 10  9  1  0  0  0  0
 11 10  1  0  0  0  0
 11 12  1  0  0  0  0
 12 23  1  6  0  0  0
 12 24  1  0  0  0  0
 12  7  1  0  0  0  0
 13  1  1  0  0  0  0
 16  8  1  0  0  0  0
 21 11  1  0  0  0  0
 22 11  1  0  0  0  0
 24 26  1  0  0  0  0
 25 24  1  0  0  0  0
 27 24  1  0  0  0  0
 27 28  2  0  0  0  0
 29 28  1  0  0  0  0
 29 34  1  0  0  0  0
 29 31  1  0  0  0  0
 30 29  1  0  0  0  0
 32 33  1  0  0  0  0
 33 40  2  0  0  0  0
 33 34  1  0  0  0  0
 34 35  2  0  0  0  0
 35 37  1  0  0  0  0
 35 36  1  0  0  0  0
 38 39  1  0  0  0  0
 38 37  2  0  0  0  0
 40 38  1  0  0  0  0
 41 40  1  0  0  0  0
M  END
>  <minimizedAffinity>
-5.59009743

$$$$

 OpenBabel03242517293D

 41 43  0  0  1  0  0  0  0  0999 V2000
   37.6270   28.3030   38.2000 C   0  0  0  0  0  0  0  0  0  0  0  0
   36.3070   28.4180   37.7080 C   0  0  0  0  0  0  0  0  0  0  0  0
   35.4380   27.3430   37.9350 C   0  0  0  0  0  0  0  0  0  0  0  0
   35.8980   26.2580   38.6080 N   0  0  0  0  0  0  0  0  0  0  0  0
   37.1600   26.1770   39.0640 C   0  0  0  0  0  0  0  0  0  0  0  0
   38.0010   27.2100   38.8480 N   0  0  0  0  0  0  0  0  0  0  0  0
   37.5650   25.0200   39.7520 N   0  0  0  0  0  0  0  0  0  0  0  0
   37.4720   23.7440   39.1150 C   0  0  0  0  0  0  0  0  0  0  0  0
   37.5900   22.5950   40.0700 C   0  0  0  0  0  0  0  0  0  0  0  0
   38.3910   22.7980   41.2290 N   0  0  0  0  0  0  0  0  0  0  0  0
   39.0770   24.0500   41.2430 C   0  0  0  0  0  0  0  0  0  0  0  0
   38.0780   25.1550   41.1170 C   0  0  2  0  0  0  0  0  0  0  0  0
   38.3980   29.0540   38.0940 H   0  0  0  0  0  0  0  0  0  0  0  0
   36.0600   29.3270   37.1930 H   0  0  0  0  0  0  0  0  0  0  0  0
   34.4410   27.4340   37.5640 H   0  0  0  0  0  0  0  0  0  0  0  0
   38.2450   23.6240   38.3190 H   0  0  0  0  0  0  0  0  0  0  0  0
   36.4800   23.6440   38.5970 H   0  0  0  0  0  0  0  0  0  0  0  0
   36.5570   22.3380   40.4400 H   0  0  0  0  0  0  0  0  0  0  0  0
   37.9340   21.6890   39.5260 H   0  0  0  0  0  0  0  0  0  0  0  0
   37.8840   22.6860   42.1300 H   0  0  0  0  0  0  0  0  0  0  0  0
   39.8410   24.1690   40.4750 H   0  0  0  0  0  0  0  0  0  0  0  0
   39.5570   24.1490   42.2490 H   0  0  0  0  0  0  0  0  0  0  0  0
   38.5570   26.1540   41.1810 H   0  0  0  0  0  0  0  0  0  0  0  0
   36.9910   25.0710   42.1330 C   0  0  0  0  0  0  0  0  0  0  0  0
   37.2930   24.4640   42.9870 H   0  0  0  0  0  0  0  0  0  0  0  0
   36.0690   24.6560   41.6790 H   0  0  0  0  0  0  0  0  0  0  0  0
   36.7450   26.4550   42.6610 C   0  0  0  0  0  3  0  0  0  0  0  0
   37.7460   27.2910   42.9260 C   0  0  0  0  0  3  0  0  0  0  0  0
   37.5650   28.6760   43.4520 C   0  0  0  0  0  0  0  0  0  0  0  0
   37.9660   28.7810   44.4840 H   0  0  0  0  0  0  0  0  0  0  0  0
   36.4740   28.8530   43.5300 H   0  0  0  0  0  0  0  0  0  0  0  0
   35.8750   29.5600   41.1210 Cl  0  0  0  0  0  0  0  0  0  0  0  0
   37.4720   30.1930   41.4250 C   0  0  0  0  0  0  0  0  0  0  0  0
   38.1270   29.6910   42.5340 C   0  0  0  0  0  0  0  0  0  0  0  0
   39.4100   30.2090   42.7630 C   0  0  0  0  0  0  0  0  0  0  0  0
   39.9270   29.8050   43.6470 H   0  0  0  0  0  0  0  0  0  0  0  0
   40.0510   31.1470   42.0010 C   0  0  0  0  0  3  0  0  0  0  0  0
   39.3420   31.6130   40.9030 C   0  0  0  0  0  0  0  0  0  0  0  0
   40.0840   32.8030   39.8850 Cl  0  0  0  0  0  0  0  0  0  0  0  0
   38.0770   31.1430   40.6230 C   0  0  0  0  0  0  0  0  0  0  0  0
   37.5110   31.4920   39.7730 H   0  0  0  0  0  0  0  0  0  0  0  0
  1  6  1  0  0  0  0
  2  3  1  0  0  0  0
  2  1  2  0  0  0  0
  3  4  2  0  0  0  0
  4  5  1  0  0  0  0
  5  7  1  0  0  0  0
  6  5  2  0  0  0  0
  7 12  1  0  0  0  0
  8  7  1  0  0  0  0
  8  9  1  0  0  0  0
  9 18  1  0  0  0  0
  9 10  1  0  0  0  0
 10 11  1  0  0  0  0
 10 20  1  0  0  0  0
 11 22  1  0  0  0  0
 12 23  1  1  0  0  0
 12 11  1  0  0  0  0
 12 24  1  0  0  0  0
 13  1  1  0  0  0  0
 14  2  1  0  0  0  0
 15  3  1  0  0  0  0
 16  8  1  0  0  0  0
 17  8  1  0  0  0  0
 19  9  1  0  0  0  0
 21 11  1  0  0  0  0
 24 27  1  0  0  0  0
 24 25  1  0  0  0  0
 26 24  1  0  0  0  0
 27 28  2  0  0  0  0
 28 29  1  0  0  0  0
 29 31  1  0  0  0  0
 29 30  1  0  0  0  0
 32 33  1  0  0  0  0
 33 34  1  0  0  0  0
 34 35  2  0  0  0  0
 34 29  1  0  0  0  0
 35 36  1  0  0  0  0
 37 35  1  0  0  0  0
 38 37  2  0  0  0  0
 39 38  1  0  0  0  0
 40 38  1  0  0  0  0
 40 33  2  0  0  0  0
 41 40  1  0  0  0  0
M  END
>  <minimizedAffinity>
-5.50852489

$$$$

 OpenBabel03242517293D

 41 43  0  0  1  0  0  0  0  0999 V2000
   35.8660   28.2460   39.7370 C   0  0  0  0  0  0  0  0  0  0  0  0
   36.3180   27.3090   38.7800 C   0  0  0  0  0  0  0  0  0  0  0  0
   37.5410   27.5730   38.1480 C   0  0  0  0  0  0  0  0  0  0  0  0
   38.2220   28.6980   38.4800 N   0  0  0  0  0  0  0  0  0  0  0  0
   37.7660   29.5710   39.3950 C   0  0  0  0  0  0  0  0  0  0  0  0
   36.5890   29.3230   40.0060 N   0  0  0  0  0  0  0  0  0  0  0  0
   38.5280   30.7170   39.6860 N   0  0  0  0  0  0  0  0  0  0  0  0
   38.8600   31.6340   38.6420 C   0  0  0  0  0  0  0  0  0  0  0  0
   39.9530   32.5890   39.0180 C   0  0  0  0  0  0  0  0  0  0  0  0
   40.0530   32.9460   40.3920 N   0  0  0  0  0  0  0  0  0  0  0  0
   38.9970   32.4290   41.2010 C   0  0  0  0  0  0  0  0  0  0  0  0
   38.9640   30.9410   41.0660 C   0  0  2  0  0  0  0  0  0  0  0  0
   34.9440   28.1670   40.2960 H   0  0  0  0  0  0  0  0  0  0  0  0
   35.6920   26.4560   38.6040 H   0  0  0  0  0  0  0  0  0  0  0  0
   37.8800   26.8620   37.4270 H   0  0  0  0  0  0  0  0  0  0  0  0
   37.9710   32.2250   38.3150 H   0  0  0  0  0  0  0  0  0  0  0  0
   39.2070   31.0740   37.7330 H   0  0  0  0  0  0  0  0  0  0  0  0
   40.9390   32.1200   38.7400 H   0  0  0  0  0  0  0  0  0  0  0  0
   39.8830   33.5050   38.3930 H   0  0  0  0  0  0  0  0  0  0  0  0
   40.9620   32.7040   40.8360 H   0  0  0  0  0  0  0  0  0  0  0  0
   38.0080   32.8310   40.9840 H   0  0  0  0  0  0  0  0  0  0  0  0
   39.2560   32.6610   42.2650 H   0  0  0  0  0  0  0  0  0  0  0  0
   38.1940   30.4840   41.7220 H   0  0  0  0  0  0  0  0  0  0  0  0
   40.2810   30.3040   41.3460 C   0  0  0  0  0  0  0  0  0  0  0  0
   40.9490   30.9890   41.8690 H   0  0  0  0  0  0  0  0  0  0  0  0
   40.7510   29.9590   40.4030 H   0  0  0  0  0  0  0  0  0  0  0  0
   40.0460   29.1470   42.2740 C   0  0  0  0  0  3  0  0  0  0  0  0
   38.8330   28.8580   42.7380 C   0  0  0  0  0  3  0  0  0  0  0  0
   38.5370   27.7240   43.6620 C   0  0  0  0  0  0  0  0  0  0  0  0
   37.6390   27.9230   44.2870 H   0  0  0  0  0  0  0  0  0  0  0  0
   39.3890   27.6500   44.3670 H   0  0  0  0  0  0  0  0  0  0  0  0
   40.9320   25.8960   43.6800 Cl  0  0  0  0  0  0  0  0  0  0  0  0
   39.4440   25.4980   42.8580 C   0  0  0  0  0  0  0  0  0  0  0  0
   38.4330   26.4370   42.9380 C   0  0  0  0  0  0  0  0  0  0  0  0
   37.2450   26.1020   42.2720 C   0  0  0  0  0  0  0  0  0  0  0  0
   36.4430   26.8530   42.3380 H   0  0  0  0  0  0  0  0  0  0  0  0
   37.0090   24.9540   41.5680 C   0  0  0  0  0  3  0  0  0  0  0  0
   38.0620   24.0500   41.5250 C   0  0  0  0  0  0  0  0  0  0  0  0
   37.8440   22.5680   40.6530 Cl  0  0  0  0  0  0  0  0  0  0  0  0
   39.2550   24.3200   42.1590 C   0  0  0  0  0  0  0  0  0  0  0  0
   40.0860   23.6320   42.1360 H   0  0  0  0  0  0  0  0  0  0  0  0
  1  6  1  0  0  0  0
  1 13  1  0  0  0  0
  2  1  2  0  0  0  0
  3  4  2  0  0  0  0
  3  2  1  0  0  0  0
  4  5  1  0  0  0  0
  5  7  1  0  0  0  0
  5  6  2  0  0  0  0
  7 12  1  0  0  0  0
  8  9  1  0  0  0  0
  8  7  1  0  0  0  0
  9 10  1  0  0  0  0
 10 20  1  0  0  0  0
 10 11  1  0  0  0  0
 11 22  1  0  0  0  0
 12 11  1  0  0  0  0
 12 24  1  0  0  0  0
 12 23  1  1  0  0  0
 14  2  1  0  0  0  0
 15  3  1  0  0  0  0
 16  8  1  0  0  0  0
 17  8  1  0  0  0  0
 18  9  1  0  0  0  0
 19  9  1  0  0  0  0
 21 11  1  0  0  0  0
 24 25  1  0  0  0  0
 24 27  1  0  0  0  0
 26 24  1  0  0  0  0
 27 28  2  0  0  0  0
 28 29  1  0  0  0  0
 29 30  1  0  0  0  0
 29 31  1  0  0  0  0
 33 34  1  0  0  0  0
 33 32  1  0  0  0  0
 34 29  1  0  0  0  0
 35 36  1  0  0  0  0
 35 34  2  0  0  0  0
 37 35  1  0  0  0  0
 38 37  2  0  0  0  0
 38 40  1  0  0  0  0
 39 38  1  0  0  0  0
 40 33  2  0  0  0  0
 41 40  1  0  0  0  0
M  END
>  <minimizedAffinity>
-5.4032855

$$$$
