
 OpenBabel03242511403D

 25 26  0  0  0  0  0  0  0  0999 V2000
   38.4470   27.4100   43.6600 C   0  0  0  0  0  0  0  0  0  0  0  0
   38.6020   27.2290   44.7410 H   0  0  0  0  0  0  0  0  0  0  0  0
   39.3790   27.9560   43.3350 H   0  0  0  0  0  0  0  0  0  0  0  0
   40.9350   25.5780   43.3960 Cl  0  0  0  0  0  0  0  0  0  0  0  0
   39.4150   25.2190   42.6740 C   0  0  0  0  0  0  0  0  0  0  0  0
   38.4370   26.1580   42.9090 C   0  0  0  0  0  0  0  0  0  0  0  0
   37.1740   25.9170   42.3430 C   0  0  0  0  0  0  0  0  0  0  0  0
   36.2840   26.5600   42.4290 H   0  0  0  0  0  0  0  0  0  0  0  0
   36.9760   24.7630   41.5870 C   0  0  0  0  0  3  0  0  0  0  0  0
   37.9610   23.8390   41.3630 C   0  0  0  0  0  0  0  0  0  0  0  0
   37.7100   22.3890   40.4140 Cl  0  0  0  0  0  0  0  0  0  0  0  0
   39.1910   24.0960   41.9290 C   0  0  0  0  0  0  0  0  0  0  0  0
   40.0350   23.4310   41.8130 H   0  0  0  0  0  0  0  0  0  0  0  0
   37.3020   28.3400   43.4720 C   0  0  0  0  0  0  0  0  0  0  0  0
   36.9960   28.8520   44.4070 H   0  0  0  0  0  0  0  0  0  0  0  0
   36.4750   27.9390   42.8660 H   0  0  0  0  0  0  0  0  0  0  0  0
   39.4460   30.9850   41.9690 C   0  0  0  0  0  0  0  0  0  0  0  0
   38.5960   31.5420   40.9860 C   0  0  0  0  0  0  0  0  0  0  0  0
   37.3300   30.9830   40.8860 C   0  0  0  0  0  0  0  0  0  0  0  0
   36.9700   29.9690   41.6990 N   0  0  0  0  0  0  0  0  0  0  0  0
   37.8350   29.4710   42.6320 C   0  0  0  0  0  0  0  0  0  0  0  0
   39.0790   29.9700   42.7800 N   0  0  0  0  0  0  0  0  0  0  0  0
   40.4560   31.3310   42.1480 H   0  0  0  0  0  0  0  0  0  0  0  0
   39.0060   32.3540   40.3960 H   0  0  0  0  0  0  0  0  0  0  0  0
   36.6880   31.4030   40.1430 H   0  0  0  0  0  0  0  0  0  0  0  0
  1  2  1  0  0  0  0
  3  1  1  0  0  0  0
  5  6  1  0  0  0  0
  5  4  1  0  0  0  0
  6  1  1  0  0  0  0
  7  8  1  0  0  0  0
  7  6  2  0  0  0  0
  9  7  1  0  0  0  0
 10  9  2  0  0  0  0
 10 12  1  0  0  0  0
 11 10  1  0  0  0  0
 12  5  2  0  0  0  0
 13 12  1  0  0  0  0
 14  1  1  0  0  0  0
 14 15  1  0  0  0  0
 16 14  1  0  0  0  0
 17 23  1  0  0  0  0
 17 22  1  0  0  0  0
 18 17  2  0  0  0  0
 19 18  1  0  0  0  0
 19 20  2  0  0  0  0
 20 21  1  0  0  0  0
 21 22  2  0  0  0  0
 21 14  1  0  0  0  0
 24 18  1  0  0  0  0
 25 19  1  0  0  0  0
M  END
>  <minimizedAffinity>
-4.81389713

$$$$

 OpenBabel03242511403D

 25 26  0  0  0  0  0  0  0  0999 V2000
   38.7300   29.9740   42.8290 C   0  0  0  0  0  0  0  0  0  0  0  0
   37.6960   30.3270   42.6440 H   0  0  0  0  0  0  0  0  0  0  0  0
   38.9450   30.2950   43.8880 H   0  0  0  0  0  0  0  0  0  0  0  0
   36.3620   28.1650   41.9700 Cl  0  0  0  0  0  0  0  0  0  0  0  0
   37.8800   27.5500   42.4950 C   0  0  0  0  0  0  0  0  0  0  0  0
   38.8000   28.5160   42.8330 C   0  0  0  0  0  0  0  0  0  0  0  0
   40.0590   28.0720   43.2700 C   0  0  0  0  0  0  0  0  0  0  0  0
   40.9060   28.7040   43.5770 H   0  0  0  0  0  0  0  0  0  0  0  0
   40.3110   26.7020   43.3380 C   0  0  0  0  0  3  0  0  0  0  0  0
   39.3840   25.7540   42.9990 C   0  0  0  0  0  0  0  0  0  0  0  0
   39.7020   24.0340   43.0860 Cl  0  0  0  0  0  0  0  0  0  0  0  0
   38.1560   26.2140   42.5730 C   0  0  0  0  0  0  0  0  0  0  0  0
   37.3550   25.5500   42.2820 H   0  0  0  0  0  0  0  0  0  0  0  0
   39.6700   30.7110   41.9440 C   0  0  0  0  0  0  0  0  0  0  0  0
   40.1720   30.0610   41.1990 H   0  0  0  0  0  0  0  0  0  0  0  0
   40.3300   31.4250   42.4620 H   0  0  0  0  0  0  0  0  0  0  0  0
   37.0330   32.0250   39.6700 C   0  0  0  0  0  0  0  0  0  0  0  0
   37.3710   33.3950   39.5730 C   0  0  0  0  0  0  0  0  0  0  0  0
   38.4850   33.8010   40.2920 C   0  0  0  0  0  0  0  0  0  0  0  0
   39.1790   32.9090   41.0290 N   0  0  0  0  0  0  0  0  0  0  0  0
   38.8050   31.5960   41.0840 C   0  0  0  0  0  0  0  0  0  0  0  0
   37.7320   31.1380   40.4090 N   0  0  0  0  0  0  0  0  0  0  0  0
   36.1880   31.5830   39.1580 H   0  0  0  0  0  0  0  0  0  0  0  0
   36.7310   34.0070   38.9480 H   0  0  0  0  0  0  0  0  0  0  0  0
   38.7400   34.8350   40.2200 H   0  0  0  0  0  0  0  0  0  0  0  0
  1  6  1  0  0  0  0
  1  3  1  0  0  0  0
  2  1  1  0  0  0  0
  4  5  1  0  0  0  0
  5 12  2  0  0  0  0
  5  6  1  0  0  0  0
  6  7  2  0  0  0  0
  7  9  1  0  0  0  0
  7  8  1  0  0  0  0
 10 11  1  0  0  0  0
 10  9  2  0  0  0  0
 12 10  1  0  0  0  0
 13 12  1  0  0  0  0
 14 16  1  0  0  0  0
 14  1  1  0  0  0  0
 15 14  1  0  0  0  0
 17 22  1  0  0  0  0
 18 17  2  0  0  0  0
 18 19  1  0  0  0  0
 19 20  2  0  0  0  0
 20 21  1  0  0  0  0
 21 14  1  0  0  0  0
 22 21  2  0  0  0  0
 23 17  1  0  0  0  0
 24 18  1  0  0  0  0
 25 19  1  0  0  0  0
M  END
>  <minimizedAffinity>
-4.7494874

$$$$

 OpenBabel03242511403D

 25 26  0  0  0  0  0  0  0  0999 V2000
   39.2820   30.4130   42.6440 C   0  0  0  0  0  0  0  0  0  0  0  0
   38.4630   31.1190   42.8830 H   0  0  0  0  0  0  0  0  0  0  0  0
   39.9910   30.5080   43.5160 H   0  0  0  0  0  0  0  0  0  0  0  0
   41.1290   28.0090   43.3000 Cl  0  0  0  0  0  0  0  0  0  0  0  0
   39.4580   27.8440   42.9230 C   0  0  0  0  0  0  0  0  0  0  0  0
   38.8130   29.0300   42.6620 C   0  0  0  0  0  0  0  0  0  0  0  0
   37.4460   28.9560   42.3470 C   0  0  0  0  0  0  0  0  0  0  0  0
   36.7810   29.8010   42.1120 H   0  0  0  0  0  0  0  0  0  0  0  0
   36.8220   27.7100   42.3160 C   0  0  0  0  0  3  0  0  0  0  0  0
   37.4800   26.5380   42.5780 C   0  0  0  0  0  0  0  0  0  0  0  0
   36.6940   24.9740   42.5390 Cl  0  0  0  0  0  0  0  0  0  0  0  0
   38.8200   26.6360   42.8850 C   0  0  0  0  0  0  0  0  0  0  0  0
   39.4300   25.7730   43.1080 H   0  0  0  0  0  0  0  0  0  0  0  0
   40.0050   30.8840   41.4330 C   0  0  0  0  0  0  0  0  0  0  0  0
   40.0870   30.1100   40.6430 H   0  0  0  0  0  0  0  0  0  0  0  0
   40.9310   31.4440   41.6370 H   0  0  0  0  0  0  0  0  0  0  0  0
   38.3630   34.0620   40.4070 C   0  0  0  0  0  0  0  0  0  0  0  0
   37.3460   33.6100   39.5350 C   0  0  0  0  0  0  0  0  0  0  0  0
   37.2720   32.2380   39.3420 C   0  0  0  0  0  0  0  0  0  0  0  0
   38.1410   31.4180   39.9680 N   0  0  0  0  0  0  0  0  0  0  0  0
   39.1050   31.9120   40.8010 C   0  0  0  0  0  0  0  0  0  0  0  0
   39.2290   33.2350   41.0310 N   0  0  0  0  0  0  0  0  0  0  0  0
   38.5260   35.1060   40.6410 H   0  0  0  0  0  0  0  0  0  0  0  0
   36.7130   34.3720   39.0940 H   0  0  0  0  0  0  0  0  0  0  0  0
   36.5040   31.8970   38.6830 H   0  0  0  0  0  0  0  0  0  0  0  0
  1  6  1  0  0  0  0
  1  2  1  0  0  0  0
  1  3  1  0  0  0  0
  5  4  1  0  0  0  0
  6  5  2  0  0  0  0
  7  6  1  0  0  0  0
  8  7  1  0  0  0  0
  9  7  2  0  0  0  0
  9 10  1  0  0  0  0
 10 12  2  0  0  0  0
 11 10  1  0  0  0  0
 12  5  1  0  0  0  0
 12 13  1  0  0  0  0
 14 16  1  0  0  0  0
 14  1  1  0  0  0  0
 15 14  1  0  0  0  0
 17 23  1  0  0  0  0
 17 22  1  0  0  0  0
 18 17  2  0  0  0  0
 19 18  1  0  0  0  0
 19 20  2  0  0  0  0
 20 21  1  0  0  0  0
 21 22  2  0  0  0  0
 21 14  1  0  0  0  0
 24 18  1  0  0  0  0
 25 19  1  0  0  0  0
M  END
>  <minimizedAffinity>
-4.72667646

$$$$

 OpenBabel03242511403D

 25 26  0  0  0  0  0  0  0  0999 V2000
   37.6800   28.8840   43.2730 C   0  0  0  0  0  0  0  0  0  0  0  0
   38.6860   28.6810   43.6900 H   0  0  0  0  0  0  0  0  0  0  0  0
   37.1370   29.4120   44.1100 H   0  0  0  0  0  0  0  0  0  0  0  0
   40.2300   30.5150   42.5980 Cl  0  0  0  0  0  0  0  0  0  0  0  0
   38.7590   30.6500   41.7160 C   0  0  0  0  0  0  0  0  0  0  0  0
   37.7440   29.8420   42.1730 C   0  0  0  0  0  0  0  0  0  0  0  0
   36.5180   29.9100   41.4910 C   0  0  0  0  0  0  0  0  0  0  0  0
   35.6070   29.3370   41.7220 H   0  0  0  0  0  0  0  0  0  0  0  0
   36.3910   30.7760   40.4060 C   0  0  0  0  0  3  0  0  0  0  0  0
   37.4110   31.5740   39.9640 C   0  0  0  0  0  0  0  0  0  0  0  0
   37.2500   32.6610   38.6000 Cl  0  0  0  0  0  0  0  0  0  0  0  0
   38.6050   31.4890   40.6490 C   0  0  0  0  0  0  0  0  0  0  0  0
   39.4720   32.0760   40.3820 H   0  0  0  0  0  0  0  0  0  0  0  0
   36.9760   27.5970   43.0330 C   0  0  0  0  0  0  0  0  0  0  0  0
   36.4930   27.5420   42.0360 H   0  0  0  0  0  0  0  0  0  0  0  0
   36.3570   27.2450   43.8730 H   0  0  0  0  0  0  0  0  0  0  0  0
   38.9790   24.5800   42.1780 C   0  0  0  0  0  0  0  0  0  0  0  0
   40.1700   24.7890   42.9100 C   0  0  0  0  0  0  0  0  0  0  0  0
   40.2290   25.9540   43.6620 C   0  0  0  0  0  0  0  0  0  0  0  0
   39.1870   26.8110   43.6650 N   0  0  0  0  0  0  0  0  0  0  0  0
   38.0600   26.5560   42.9360 C   0  0  0  0  0  0  0  0  0  0  0  0
   37.9400   25.4420   42.1860 N   0  0  0  0  0  0  0  0  0  0  0  0
   38.8090   23.7110   41.5540 H   0  0  0  0  0  0  0  0  0  0  0  0
   40.9330   24.0230   42.8220 H   0  0  0  0  0  0  0  0  0  0  0  0
   41.1280   26.1120   44.2140 H   0  0  0  0  0  0  0  0  0  0  0  0
  1  2  1  0  0  0  0
  1  3  1  0  0  0  0
  5  6  1  0  0  0  0
  5  4  1  0  0  0  0
  6  1  1  0  0  0  0
  7  8  1  0  0  0  0
  7  6  2  0  0  0  0
  9  7  1  0  0  0  0
 10  9  2  0  0  0  0
 10 12  1  0  0  0  0
 11 10  1  0  0  0  0
 12  5  2  0  0  0  0
 13 12  1  0  0  0  0
 14  1  1  0  0  0  0
 14 16  1  0  0  0  0
 15 14  1  0  0  0  0
 17 22  2  0  0  0  0
 17 18  1  0  0  0  0
 18 19  2  0  0  0  0
 19 20  1  0  0  0  0
 19 25  1  0  0  0  0
 21 14  1  0  0  0  0
 21 20  2  0  0  0  0
 22 21  1  0  0  0  0
 23 17  1  0  0  0  0
 24 18  1  0  0  0  0
M  END
>  <minimizedAffinity>
-4.7204237

$$$$

 OpenBabel03242511403D

 25 26  0  0  0  0  0  0  0  0999 V2000
   37.1360   26.5420   42.5200 C   0  0  0  0  0  0  0  0  0  0  0  0
   36.8640   26.5400   41.4470 H   0  0  0  0  0  0  0  0  0  0  0  0
   36.5010   25.7230   42.9670 H   0  0  0  0  0  0  0  0  0  0  0  0
   38.2360   23.8170   41.5290 Cl  0  0  0  0  0  0  0  0  0  0  0  0
   39.1950   24.9780   42.3610 C   0  0  0  0  0  0  0  0  0  0  0  0
   38.5210   26.1230   42.7180 C   0  0  0  0  0  0  0  0  0  0  0  0
   39.2540   27.1080   43.4010 C   0  0  0  0  0  0  0  0  0  0  0  0
   38.8740   28.0770   43.7580 H   0  0  0  0  0  0  0  0  0  0  0  0
   40.6010   26.8810   43.6800 C   0  0  0  0  0  3  0  0  0  0  0  0
   41.2560   25.7350   43.3180 C   0  0  0  0  0  0  0  0  0  0  0  0
   42.9480   25.4520   43.6690 Cl  0  0  0  0  0  0  0  0  0  0  0  0
   40.5160   24.7840   42.6480 C   0  0  0  0  0  0  0  0  0  0  0  0
   40.9370   23.8450   42.3190 H   0  0  0  0  0  0  0  0  0  0  0  0
   36.7040   27.8220   43.1390 C   0  0  0  0  0  0  0  0  0  0  0  0
   37.4810   28.2820   43.7830 H   0  0  0  0  0  0  0  0  0  0  0  0
   35.6890   27.8100   43.5660 H   0  0  0  0  0  0  0  0  0  0  0  0
   37.1890   30.6970   40.8250 C   0  0  0  0  0  0  0  0  0  0  0  0
   36.2080   30.4580   39.8340 C   0  0  0  0  0  0  0  0  0  0  0  0
   35.4290   29.3230   40.0080 C   0  0  0  0  0  0  0  0  0  0  0  0
   35.6280   28.5210   41.0740 N   0  0  0  0  0  0  0  0  0  0  0  0
   36.5920   28.8020   42.0000 C   0  0  0  0  0  0  0  0  0  0  0  0
   37.3820   29.8900   41.8890 N   0  0  0  0  0  0  0  0  0  0  0  0
   37.8590   31.5460   40.8050 H   0  0  0  0  0  0  0  0  0  0  0  0
   36.1510   31.1790   39.0270 H   0  0  0  0  0  0  0  0  0  0  0  0
   34.6890   29.1420   39.2600 H   0  0  0  0  0  0  0  0  0  0  0  0
  1  6  1  0  0  0  0
  1  3  1  0  0  0  0
  1 14  1  0  0  0  0
  2  1  1  0  0  0  0
  4  5  1  0  0  0  0
  5 12  2  0  0  0  0
  5  6  1  0  0  0  0
  6  7  2  0  0  0  0
  7  9  1  0  0  0  0
  7  8  1  0  0  0  0
 10 11  1  0  0  0  0
 10  9  2  0  0  0  0
 12 10  1  0  0  0  0
 13 12  1  0  0  0  0
 14 16  1  0  0  0  0
 14 15  1  0  0  0  0
 17 22  1  0  0  0  0
 18 19  1  0  0  0  0
 18 17  2  0  0  0  0
 19 20  2  0  0  0  0
 20 21  1  0  0  0  0
 21 14  1  0  0  0  0
 22 21  2  0  0  0  0
 23 17  1  0  0  0  0
 24 18  1  0  0  0  0
 25 19  1  0  0  0  0
M  END
>  <minimizedAffinity>
-4.70646524

$$$$

 OpenBabel03242511403D

 25 26  0  0  0  0  0  0  0  0999 V2000
   36.0710   28.5790   41.3540 C   0  0  0  0  0  0  0  0  0  0  0  0
   35.0850   28.3940   41.8240 H   0  0  0  0  0  0  0  0  0  0  0  0
   36.3660   29.6020   41.7260 H   0  0  0  0  0  0  0  0  0  0  0  0
   38.3970   29.4870   43.1920 Cl  0  0  0  0  0  0  0  0  0  0  0  0
   38.1760   27.8590   42.6800 C   0  0  0  0  0  0  0  0  0  0  0  0
   37.0840   27.6610   41.8670 C   0  0  0  0  0  0  0  0  0  0  0  0
   36.8530   26.3510   41.4170 C   0  0  0  0  0  0  0  0  0  0  0  0
   36.0320   26.0170   40.7640 H   0  0  0  0  0  0  0  0  0  0  0  0
   37.7240   25.3340   41.8080 C   0  0  0  0  0  3  0  0  0  0  0  0
   38.8070   25.5490   42.6170 C   0  0  0  0  0  0  0  0  0  0  0  0
   39.9000   24.2720   43.1080 Cl  0  0  0  0  0  0  0  0  0  0  0  0
   39.0120   26.8430   43.0470 C   0  0  0  0  0  0  0  0  0  0  0  0
   39.8370   27.1190   43.6880 H   0  0  0  0  0  0  0  0  0  0  0  0
   35.9060   28.6760   39.8800 C   0  0  0  0  0  0  0  0  0  0  0  0
   34.8470   28.7630   39.5620 H   0  0  0  0  0  0  0  0  0  0  0  0
   36.5110   27.9620   39.2980 H   0  0  0  0  0  0  0  0  0  0  0  0
   37.3860   31.5410   38.0230 C   0  0  0  0  0  0  0  0  0  0  0  0
   37.5000   32.5290   39.0280 C   0  0  0  0  0  0  0  0  0  0  0  0
   37.0630   32.1640   40.2940 C   0  0  0  0  0  0  0  0  0  0  0  0
   36.5650   30.9290   40.5090 N   0  0  0  0  0  0  0  0  0  0  0  0
   36.4800   30.0150   39.4970 C   0  0  0  0  0  0  0  0  0  0  0  0
   36.8880   30.3070   38.2460 N   0  0  0  0  0  0  0  0  0  0  0  0
   37.6910   31.7000   36.9960 H   0  0  0  0  0  0  0  0  0  0  0  0
   37.9160   33.4820   38.7250 H   0  0  0  0  0  0  0  0  0  0  0  0
   37.1480   32.9100   41.0530 H   0  0  0  0  0  0  0  0  0  0  0  0
  1  3  1  0  0  0  0
  1  2  1  0  0  0  0
  1  6  1  0  0  0  0
  5 12  1  0  0  0  0
  5  4  1  0  0  0  0
  6  5  2  0  0  0  0
  7  9  2  0  0  0  0
  7  6  1  0  0  0  0
  8  7  1  0  0  0  0
  9 10  1  0  0  0  0
 10 12  2  0  0  0  0
 10 11  1  0  0  0  0
 12 13  1  0  0  0  0
 14  1  1  0  0  0  0
 15 14  1  0  0  0  0
 16 14  1  0  0  0  0
 17 22  2  0  0  0  0
 17 18  1  0  0  0  0
 18 19  2  0  0  0  0
 19 20  1  0  0  0  0
 19 25  1  0  0  0  0
 21 14  1  0  0  0  0
 21 20  2  0  0  0  0
 22 21  1  0  0  0  0
 23 17  1  0  0  0  0
 24 18  1  0  0  0  0
M  END
>  <minimizedAffinity>
-4.69775009

$$$$

 OpenBabel03242511403D

 25 26  0  0  0  0  0  0  0  0999 V2000
   36.2340   29.7860   41.0220 C   0  0  0  0  0  0  0  0  0  0  0  0
   35.1890   29.9850   41.3310 H   0  0  0  0  0  0  0  0  0  0  0  0
   36.8560   30.3460   41.7790 H   0  0  0  0  0  0  0  0  0  0  0  0
   37.3250   28.6160   43.6790 Cl  0  0  0  0  0  0  0  0  0  0  0  0
   37.0680   27.6720   42.2640 C   0  0  0  0  0  0  0  0  0  0  0  0
   36.5780   28.3770   41.1890 C   0  0  0  0  0  0  0  0  0  0  0  0
   36.3490   27.6570   40.0050 C   0  0  0  0  0  0  0  0  0  0  0  0
   35.9630   28.0610   39.0570 H   0  0  0  0  0  0  0  0  0  0  0  0
   36.6220   26.2900   39.9770 C   0  0  0  0  0  3  0  0  0  0  0  0
   37.1090   25.6040   41.0560 C   0  0  0  0  0  0  0  0  0  0  0  0
   37.4510   23.8860   41.0190 Cl  0  0  0  0  0  0  0  0  0  0  0  0
   37.3260   26.3310   42.2070 C   0  0  0  0  0  0  0  0  0  0  0  0
   37.7080   25.8860   43.1140 H   0  0  0  0  0  0  0  0  0  0  0  0
   36.4860   30.4090   39.6960 C   0  0  0  0  0  0  0  0  0  0  0  0
   35.5700   30.8190   39.2240 H   0  0  0  0  0  0  0  0  0  0  0  0
   37.1360   29.8250   39.0260 H   0  0  0  0  0  0  0  0  0  0  0  0
   37.7940   33.8920   39.7880 C   0  0  0  0  0  0  0  0  0  0  0  0
   38.9220   33.7700   40.6320 C   0  0  0  0  0  0  0  0  0  0  0  0
   39.1780   32.5010   41.1290 C   0  0  0  0  0  0  0  0  0  0  0  0
   38.3740   31.4690   40.8010 N   0  0  0  0  0  0  0  0  0  0  0  0
   37.2960   31.6470   39.9790 C   0  0  0  0  0  0  0  0  0  0  0  0
   36.9930   32.8550   39.4630 N   0  0  0  0  0  0  0  0  0  0  0  0
   37.4870   34.8270   39.3360 H   0  0  0  0  0  0  0  0  0  0  0  0
   39.4860   34.6770   40.8190 H   0  0  0  0  0  0  0  0  0  0  0  0
   40.0290   32.4090   41.7670 H   0  0  0  0  0  0  0  0  0  0  0  0
  1  6  1  0  0  0  0
  1  2  1  0  0  0  0
  1  3  1  0  0  0  0
  5  4  1  0  0  0  0
  6  5  2  0  0  0  0
  7  6  1  0  0  0  0
  8  7  1  0  0  0  0
  9  7  2  0  0  0  0
  9 10  1  0  0  0  0
 10 12  2  0  0  0  0
 11 10  1  0  0  0  0
 12  5  1  0  0  0  0
 12 13  1  0  0  0  0
 14 21  1  0  0  0  0
 14  1  1  0  0  0  0
 15 14  1  0  0  0  0
 16 14  1  0  0  0  0
 17 18  1  0  0  0  0
 18 24  1  0  0  0  0
 18 19  2  0  0  0  0
 19 25  1  0  0  0  0
 20 19  1  0  0  0  0
 21 20  2  0  0  0  0
 22 17  2  0  0  0  0
 22 21  1  0  0  0  0
 23 17  1  0  0  0  0
M  END
>  <minimizedAffinity>
-4.67974329

$$$$

 OpenBabel03242511403D

 25 26  0  0  0  0  0  0  0  0999 V2000
   36.7210   28.1210   42.1670 C   0  0  0  0  0  0  0  0  0  0  0  0
   37.2940   28.0900   43.1140 H   0  0  0  0  0  0  0  0  0  0  0  0
   35.6430   28.0810   42.4960 H   0  0  0  0  0  0  0  0  0  0  0  0
   34.6390   29.2510   40.1660 Cl  0  0  0  0  0  0  0  0  0  0  0  0
   36.0930   30.0720   40.5840 C   0  0  0  0  0  0  0  0  0  0  0  0
   36.8840   29.4040   41.4900 C   0  0  0  0  0  0  0  0  0  0  0  0
   38.0850   30.0260   41.8680 C   0  0  0  0  0  0  0  0  0  0  0  0
   38.8320   29.6350   42.5760 H   0  0  0  0  0  0  0  0  0  0  0  0
   38.4110   31.2660   41.3190 C   0  0  0  0  0  3  0  0  0  0  0  0
   37.6110   31.9170   40.4190 C   0  0  0  0  0  0  0  0  0  0  0  0
   38.0210   33.4750   39.7310 Cl  0  0  0  0  0  0  0  0  0  0  0  0
   36.4380   31.2870   40.0630 C   0  0  0  0  0  0  0  0  0  0  0  0
   35.7380   31.7140   39.3610 H   0  0  0  0  0  0  0  0  0  0  0  0
   36.9900   26.8850   41.3850 C   0  0  0  0  0  0  0  0  0  0  0  0
   37.4270   27.0850   40.3860 H   0  0  0  0  0  0  0  0  0  0  0  0
   36.1760   26.1420   41.4000 H   0  0  0  0  0  0  0  0  0  0  0  0
   39.7950   26.0390   43.6790 C   0  0  0  0  0  0  0  0  0  0  0  0
   40.1270   24.7230   43.2820 C   0  0  0  0  0  0  0  0  0  0  0  0
   39.3720   24.1900   42.2460 C   0  0  0  0  0  0  0  0  0  0  0  0
   38.3880   24.9190   41.6800 N   0  0  0  0  0  0  0  0  0  0  0  0
   38.1130   26.1870   42.1070 C   0  0  0  0  0  0  0  0  0  0  0  0
   38.8100   26.7620   43.1080 N   0  0  0  0  0  0  0  0  0  0  0  0
   40.3080   26.5670   44.4740 H   0  0  0  0  0  0  0  0  0  0  0  0
   40.9390   24.2460   43.8180 H   0  0  0  0  0  0  0  0  0  0  0  0
   39.6220   23.1970   41.9460 H   0  0  0  0  0  0  0  0  0  0  0  0
  1  3  1  0  0  0  0
  1  2  1  0  0  0  0
  4  5  1  0  0  0  0
  5  6  1  0  0  0  0
  6  7  2  0  0  0  0
  6  1  1  0  0  0  0
  7  8  1  0  0  0  0
  9  7  1  0  0  0  0
 10  9  2  0  0  0  0
 11 10  1  0  0  0  0
 12 10  1  0  0  0  0
 12  5  2  0  0  0  0
 13 12  1  0  0  0  0
 14 16  1  0  0  0  0
 14 21  1  0  0  0  0
 14  1  1  0  0  0  0
 15 14  1  0  0  0  0
 17 23  1  0  0  0  0
 18 17  1  0  0  0  0
 18 24  1  0  0  0  0
 19 18  2  0  0  0  0
 20 21  2  0  0  0  0
 20 19  1  0  0  0  0
 21 22  1  0  0  0  0
 22 17  2  0  0  0  0
 25 19  1  0  0  0  0
M  END
>  <minimizedAffinity>
-4.53261614

$$$$

 OpenBabel03242511403D

 25 26  0  0  0  0  0  0  0  0999 V2000
   35.7040   28.8270   41.0320 C   0  0  0  0  0  0  0  0  0  0  0  0
   34.6940   28.6990   41.4680 H   0  0  0  0  0  0  0  0  0  0  0  0
   36.1510   29.6800   41.6200 H   0  0  0  0  0  0  0  0  0  0  0  0
   37.2790   28.4690   43.6790 Cl  0  0  0  0  0  0  0  0  0  0  0  0
   37.3190   27.3270   42.3930 C   0  0  0  0  0  0  0  0  0  0  0  0
   36.5510   27.6700   41.3030 C   0  0  0  0  0  0  0  0  0  0  0  0
   36.5460   26.7740   40.2210 C   0  0  0  0  0  0  0  0  0  0  0  0
   35.9920   26.8910   39.2770 H   0  0  0  0  0  0  0  0  0  0  0  0
   37.3020   25.6060   40.3010 C   0  0  0  0  0  3  0  0  0  0  0  0
   38.0600   25.2810   41.3930 C   0  0  0  0  0  0  0  0  0  0  0  0
   39.0090   23.8120   41.4930 Cl  0  0  0  0  0  0  0  0  0  0  0  0
   38.0490   26.1740   42.4430 C   0  0  0  0  0  0  0  0  0  0  0  0
   38.6130   26.0130   43.3500 H   0  0  0  0  0  0  0  0  0  0  0  0
   35.5800   29.2810   39.6210 C   0  0  0  0  0  0  0  0  0  0  0  0
   34.5620   29.6340   39.3620 H   0  0  0  0  0  0  0  0  0  0  0  0
   36.0470   28.6140   38.8790 H   0  0  0  0  0  0  0  0  0  0  0  0
   37.4500   32.4040   40.3950 C   0  0  0  0  0  0  0  0  0  0  0  0
   37.9210   32.7990   39.1210 C   0  0  0  0  0  0  0  0  0  0  0  0
   37.5750   31.9760   38.0600 C   0  0  0  0  0  0  0  0  0  0  0  0
   36.8310   30.8710   38.2740 N   0  0  0  0  0  0  0  0  0  0  0  0
   36.4030   30.5390   39.5280 C   0  0  0  0  0  0  0  0  0  0  0  0
   36.7050   31.2980   40.6010 N   0  0  0  0  0  0  0  0  0  0  0  0
   37.6500   32.9600   41.3020 H   0  0  0  0  0  0  0  0  0  0  0  0
   38.5100   33.7080   39.0840 H   0  0  0  0  0  0  0  0  0  0  0  0
   37.9310   32.2740   37.0990 H   0  0  0  0  0  0  0  0  0  0  0  0
  1  6  1  0  0  0  0
  1  2  1  0  0  0  0
  1  3  1  0  0  0  0
  5 12  1  0  0  0  0
  5  4  1  0  0  0  0
  6  5  2  0  0  0  0
  7  9  2  0  0  0  0
  7  6  1  0  0  0  0
  8  7  1  0  0  0  0
  9 10  1  0  0  0  0
 10 11  1  0  0  0  0
 10 12  2  0  0  0  0
 12 13  1  0  0  0  0
 14  1  1  0  0  0  0
 15 14  1  0  0  0  0
 16 14  1  0  0  0  0
 17 22  1  0  0  0  0
 17 23  1  0  0  0  0
 18 17  2  0  0  0  0
 19 20  2  0  0  0  0
 19 18  1  0  0  0  0
 20 21  1  0  0  0  0
 21 14  1  0  0  0  0
 21 22  2  0  0  0  0
 24 18  1  0  0  0  0
 25 19  1  0  0  0  0
M  END
>  <minimizedAffinity>
-4.53012848

$$$$
