
 OpenBabel03252501353D

 26 27  0  0  0  0  0  0  0  0999 V2000
   44.4020   34.8650   41.9840 C   0  0  0  0  0  0  0  0  0  0  0  0
   44.1890   33.6570   42.3350 O   0  0  0  0  0  0  0  0  0  0  0  0
   45.3410   35.5290   42.8310 N   0  0  0  0  0  0  0  0  0  0  0  0
   45.6110   36.5000   42.6530 H   0  0  0  0  0  0  0  0  0  0  0  0
   45.7620   34.6040   43.8720 C   0  0  0  0  0  0  0  0  0  0  0  0
   45.2240   34.5570   45.1340 C   0  0  0  0  0  0  0  0  0  0  0  0
   45.7580   33.6010   45.9890 C   0  0  0  0  0  0  0  0  0  0  0  0
   46.7440   32.8080   45.5270 N   0  0  0  0  0  0  0  0  0  0  0  0
   47.2420   32.8900   44.2770 C   0  0  0  0  0  0  0  0  0  0  0  0
   46.7420   33.8130   43.4160 N   0  0  0  0  0  0  0  0  0  0  0  0
   45.3420   33.5560   46.9810 H   0  0  0  0  0  0  0  0  0  0  0  0
   48.0360   32.2160   43.9760 H   0  0  0  0  0  0  0  0  0  0  0  0
   44.1940   35.4670   45.4420 N   0  0  0  0  0  0  0  0  0  0  0  0
   44.2260   36.4770   45.7090 H   0  0  0  0  0  0  0  0  0  0  0  0
   43.2390   35.0520   45.3930 H   0  0  0  0  0  0  0  0  0  0  0  0
   43.8000   35.5070   40.8910 O   0  0  0  0  0  0  0  0  0  0  0  0
   43.6730   33.6730   38.5870 Cl  0  0  0  0  0  0  0  0  0  0  0  0
   42.3220   34.3260   39.4900 C   0  0  0  0  0  0  0  0  0  0  0  0
   42.4850   35.1910   40.5700 C   0  0  0  0  0  0  0  0  0  0  0  0
   41.3880   35.6660   41.2330 C   0  0  0  0  0  0  0  0  0  0  0  0
   41.5440   36.3350   42.0670 H   0  0  0  0  0  0  0  0  0  0  0  0
   40.0900   35.3370   40.8970 C   0  0  0  0  0  0  0  0  0  0  0  0
   39.9010   34.4720   39.8180 C   0  0  0  0  0  0  0  0  0  0  0  0
   38.2920   33.9880   39.3030 Cl  0  0  0  0  0  0  0  0  0  0  0  0
   41.0200   34.0040   39.1620 C   0  0  0  0  0  0  0  0  0  0  0  0
   40.8450   33.3250   38.3170 H   0  0  0  0  0  0  0  0  0  0  0  0
  1  2  2  0  0  0  0
  1  3  1  0  0  0  0
  3  5  1  0  0  0  0
  4  3  1  0  0  0  0
  5  6  1  0  0  0  0
  6 13  1  0  0  0  0
  6  7  2  0  0  0  0
  7 11  1  0  0  0  0
  8  7  1  0  0  0  0
  9  8  2  0  0  0  0
 10  5  2  0  0  0  0
 10  9  1  0  0  0  0
 12  9  1  0  0  0  0
 13 14  1  0  0  0  0
 15 13  1  0  0  0  0
 16  1  1  0  0  0  0
 17 18  1  0  0  0  0
 18 19  1  0  0  0  0
 19 16  1  0  0  0  0
 19 20  2  0  0  0  0
 20 21  1  0  0  0  0
 22 20  1  0  0  0  0
 23 22  2  0  0  0  0
 24 23  1  0  0  0  0
 25 18  2  0  0  0  0
 25 23  1  0  0  0  0
 26 25  1  0  0  0  0
M  END
>  <minimizedAffinity>
-5.76934004

>  <minimizedRMSD>
1.04732728

$$$$
