
 OpenBabel03252506373D

 45 48  0  0  1  0  0  0  0  0999 V2000
   44.5040   35.5760   45.1140 C   0  0  0  0  0  0  0  0  0  0  0  0
   45.1370   35.5360   43.8660 C   0  0  0  0  0  0  0  0  0  0  0  0
   46.0350   34.5570   43.6110 C   0  0  0  0  0  0  0  0  0  0  0  0
   46.2680   33.6580   44.5980 N   0  0  0  0  0  0  0  0  0  0  0  0
   45.6670   33.7000   45.7770 C   0  0  0  0  0  0  0  0  0  0  0  0
   44.7790   34.6520   46.0550 N   0  0  0  0  0  0  0  0  0  0  0  0
   45.9930   32.6970   46.7550 N   0  0  0  0  0  0  0  0  0  0  0  0
   45.2650   32.4810   47.9550 C   0  0  0  0  0  0  0  0  0  0  0  0
   46.3500   32.1260   48.9570 C   0  0  0  0  0  0  0  0  0  0  0  0
   47.6180   31.9970   48.1730 C   0  0  0  0  0  0  0  0  0  0  0  0
   47.0990   31.7680   46.7530 C   0  0  1  0  0  0  0  0  0  0  0  0
   43.7970   36.3580   45.2970 H   0  0  0  0  0  0  0  0  0  0  0  0
   46.5370   34.5040   42.6590 H   0  0  0  0  0  0  0  0  0  0  0  0
   44.4220   31.8770   48.0560 H   0  0  0  0  0  0  0  0  0  0  0  0
   44.9390   33.5140   48.3060 H   0  0  0  0  0  0  0  0  0  0  0  0
   46.3860   32.7550   49.8410 H   0  0  0  0  0  0  0  0  0  0  0  0
   46.1130   31.0810   49.3170 H   0  0  0  0  0  0  0  0  0  0  0  0
   48.2280   31.1550   48.5370 H   0  0  0  0  0  0  0  0  0  0  0  0
   48.1380   32.9760   48.2450 H   0  0  0  0  0  0  0  0  0  0  0  0
   47.9030   32.0450   46.0330 H   0  0  0  0  0  0  0  0  0  0  0  0
   44.7900   36.5590   42.9140 N   0  0  0  0  0  0  0  0  0  0  0  0
   44.8380   37.5580   43.1790 H   0  0  0  0  0  0  0  0  0  0  0  0
   44.5130   36.1090   42.0190 H   0  0  0  0  0  0  0  0  0  0  0  0
   46.5550   30.0820   46.6020 S   0  0  0  0  0  0  0  0  0  0  0  0
   46.0240   30.0950   43.3090 O   0  0  0  0  0  0  0  0  0  0  0  0
   45.2240   29.7750   44.2030 C   0  0  0  0  0  0  0  0  0  0  0  0
   45.0990   29.7970   45.6810 C   0  0  1  0  0  0  0  0  0  0  0  0
   44.4040   28.4860   45.9520 C   0  0  0  0  0  0  0  0  0  0  0  0
   43.2340   28.6690   44.9820 C   0  0  0  0  0  0  0  0  0  0  0  0
   43.9680   29.1770   43.8290 N   0  0  0  0  0  0  0  0  0  0  0  0
   44.2460   30.5190   45.7940 H   0  0  0  0  0  0  0  0  0  0  0  0
   45.0110   27.6140   45.6310 H   0  0  0  0  0  0  0  0  0  0  0  0
   44.0600   28.4500   46.9870 H   0  0  0  0  0  0  0  0  0  0  0  0
   42.7110   27.7290   44.7970 H   0  0  0  0  0  0  0  0  0  0  0  0
   42.5560   29.4440   45.3960 H   0  0  0  0  0  0  0  0  0  0  0  0
   43.0040   31.6390   42.3310 Cl  0  0  0  0  0  0  0  0  0  0  0  0
   42.8500   29.9940   41.7540 C   0  0  0  0  0  0  0  0  0  0  0  0
   43.3340   29.0010   42.5440 C   0  0  0  0  0  0  0  0  0  0  0  0
   43.2150   27.7030   42.0910 C   0  0  0  0  0  0  0  0  0  0  0  0
   43.5860   26.8520   42.6840 H   0  0  0  0  0  0  0  0  0  0  0  0
   42.6340   27.3360   40.8810 C   0  0  0  0  0  3  0  0  0  0  0  0
   42.1410   28.3710   40.0790 C   0  0  0  0  0  0  0  0  0  0  0  0
   41.3970   27.9900   38.5420 Cl  0  0  0  0  0  0  0  0  0  0  0  0
   42.2700   29.6580   40.5480 C   0  0  0  0  0  0  0  0  0  0  0  0
   41.8820   30.4650   39.9150 H   0  0  0  0  0  0  0  0  0  0  0  0
  1 12  1  0  0  0  0
  1  6  1  0  0  0  0
  2  1  2  0  0  0  0
  3  2  1  0  0  0  0
  3  4  2  0  0  0  0
  4  5  1  0  0  0  0
  5  6  2  0  0  0  0
  5  7  1  0  0  0  0
  7  8  1  0  0  0  0
  8 14  1  0  0  0  0
  8 15  1  0  0  0  0
  8  9  1  0  0  0  0
  9 17  1  0  0  0  0
  9 16  1  0  0  0  0
 10 19  1  0  0  0  0
 10 18  1  0  0  0  0
 10  9  1  0  0  0  0
 11 20  1  6  0  0  0
 11  7  1  0  0  0  0
 11 10  1  0  0  0  0
 13  3  1  0  0  0  0
 21 22  1  0  0  0  0
 21  2  1  0  0  0  0
 23 21  1  0  0  0  0
 24 11  1  0  0  0  0
 25 26  2  0  0  0  0
 26 27  1  0  0  0  0
 27 31  1  1  0  0  0
 27 28  1  0  0  0  0
 27 24  1  0  0  0  0
 28 33  1  0  0  0  0
 29 35  1  0  0  0  0
 29 28  1  0  0  0  0
 30 26  1  0  0  0  0
 30 29  1  0  0  0  0
 32 28  1  0  0  0  0
 34 29  1  0  0  0  0
 37 36  1  0  0  0  0
 37 38  1  0  0  0  0
 38 30  1  0  0  0  0
 39 38  2  0  0  0  0
 39 40  1  0  0  0  0
 41 39  1  0  0  0  0
 42 44  1  0  0  0  0
 42 41  2  0  0  0  0
 43 42  1  0  0  0  0
 44 37  2  0  0  0  0
 45 44  1  0  0  0  0
M  END
>  <minimizedAffinity>
-5.28951979

>  <minimizedRMSD>
0.522192001

$$$$
