REMARK  Name = 
REMARK  8 active torsions:
REMARK  status: ('A' for Active; 'I' for Inactive)
REMARK    1  A    between atoms: C_3  and  C_7
REMARK    2  A    between atoms: C_5  and  O_12
REMARK    3  A    between atoms: C_7  and  C_8
REMARK    4  A    between atoms: C_8  and  C_9
REMARK    5  A    between atoms: C_10  and  C_11
REMARK    6  A    between atoms: O_12  and  C_14
REMARK    7  A    between atoms: C_13  and  S_19
REMARK    8  A    between atoms: S_19  and  C_39
REMARK                            x       y       z     vdW  Elec       q    Type
REMARK                         _______ _______ _______ _____ _____    ______ ____
ROOT
ATOM      1  C   UNL     1      45.430  30.179  47.225  0.00  0.00    +0.000 A 
ATOM      2  C   UNL     1      46.065  31.228  46.642  0.00  0.00    +0.000 A 
ATOM      3  C   UNL     1      46.370  32.337  47.410  0.00  0.00    +0.000 A 
ATOM      4  C   UNL     1      46.055  32.422  48.750  0.00  0.00    +0.000 A 
ATOM      5  C   UNL     1      45.407  31.348  49.348  0.00  0.00    +0.000 A 
ATOM      6  C   UNL     1      45.103  30.240  48.574  0.00  0.00    +0.000 A 
ATOM      7  H   UNL     1      46.872  33.214  47.024  0.00  0.00    +0.000 HD
ATOM      8  H   UNL     1      46.278  33.272  49.379  0.00  0.00    +0.000 HD
ATOM      9  H   UNL     1      45.109  31.290  50.381  0.00  0.00    +0.000 HD
ATOM     10  H   UNL     1      44.593  29.348  48.961  0.00  0.00    +0.000 HD
ENDROOT
BRANCH   1  11
ATOM     11  S   UNL     1      45.015  28.848  46.199  0.00  0.00    +0.000 S 
ATOM     12  O   UNL     1      43.519  28.775  45.964  0.00  0.00    +0.000 OA
ATOM     13  O   UNL     1      45.363  27.581  46.980  0.00  0.00    +0.000 OA
BRANCH  11  16
ATOM     14 CL   UNL     1      48.226  28.501  46.024  0.00  0.00    +0.000 Cl
ATOM     15  C   UNL     1      47.240  28.493  44.572  0.00  0.00    +0.000 A 
ATOM     16  C   UNL     1      45.891  28.739  44.718  0.00  0.00    +0.000 A 
ATOM     17  C   UNL     1      45.234  28.811  43.485  0.00  0.00    +0.000 A 
ATOM     18  H   UNL     1      44.158  29.005  43.484  0.00  0.00    +0.000 HD
ATOM     19  C   UNL     1      45.827  28.658  42.248  0.00  0.00    +0.000 A 
ATOM     20  C   UNL     1      47.184  28.412  42.224  0.00  0.00    +0.000 A 
ATOM     21 CL   UNL     1      47.991  28.206  40.684  0.00  0.00    +0.000 Cl
ATOM     22  C   UNL     1      47.928  28.323  43.390  0.00  0.00    +0.000 A 
ATOM     23  H   UNL     1      48.991  28.131  43.366  0.00  0.00    +0.000 HD
ENDBRANCH  11  16
ENDBRANCH   1  11
BRANCH   2  24
ATOM     24  O   UNL     1      46.473  31.343  45.326  0.00  0.00    +0.000 OA
BRANCH  24  29
ATOM     25  C   UNL     1      45.306  34.279  43.748  0.00  0.00    +0.000 A 
ATOM     26  C   UNL     1      46.476  34.763  43.122  0.00  0.00    +0.000 A 
ATOM     27  C   UNL     1      47.651  34.070  43.255  0.00  0.00    +0.000 A 
ATOM     28  N   UNL     1      47.594  32.957  43.988  0.00  0.00    +0.000 NA
ATOM     29  C   UNL     1      46.517  32.493  44.576  0.00  0.00    +0.000 A 
ATOM     30  N   UNL     1      45.357  33.160  44.456  0.00  0.00    +0.000 NA
ATOM     31  H   UNL     1      44.369  34.815  43.653  0.00  0.00    +0.000 HD
ATOM     32  H   UNL     1      46.332  35.674  42.569  0.00  0.00    +0.000 HD
BRANCH  27  33
ATOM     33  C   UNL     1      48.906  34.489  42.625  0.00  0.00    +0.000 C 
ATOM     34  H   UNL     1      49.613  34.756  43.437  0.00  0.00    +0.000 HD
ATOM     35  H   UNL     1      49.364  33.673  42.007  0.00  0.00    +0.000 HD
BRANCH  33  36
ATOM     36  C   UNL     1      48.748  35.668  41.712  0.00  0.00    +0.000 C 
ATOM     37  H   UNL     1      49.763  36.183  41.713  0.00  0.00    +0.000 HD
ATOM     38  H   UNL     1      48.063  36.435  42.070  0.00  0.00    +0.000 HD
BRANCH  36  39
ATOM     39  C   UNL     1      48.502  35.302  40.316  0.00  0.00    +0.000 C 
ATOM     40  C   UNL     1      48.281  34.249  39.538  0.00  0.00    +0.000 C 
BRANCH  40  41
ATOM     41  C   UNL     1      48.164  34.264  38.025  0.00  0.00    +0.000 C 
ATOM     42  H   UNL     1      47.076  34.225  37.811  0.00  0.00    +0.000 HD
ATOM     43  H   UNL     1      48.613  35.220  37.667  0.00  0.00    +0.000 HD
ATOM     44  H   UNL     1      48.734  33.423  37.635  0.00  0.00    +0.000 HD
ENDBRANCH  40  41
ENDBRANCH  36  39
ENDBRANCH  33  36
ENDBRANCH  27  33
ENDBRANCH  24  29
ENDBRANCH   2  24
TORSDOF 8
