
     RDKit          3D

 35 37  0  0  0  0  0  0  0  0999 V2000
   44.4856   35.7471   45.0038 C   0  0  0  0  0  0  0  0  0  0  0  0
   45.1194   35.7136   43.7530 C   0  0  0  0  0  0  0  0  0  0  0  0
   46.0118   34.7183   43.4885 C   0  0  0  0  0  0  0  0  0  0  0  0
   46.2245   33.8138   44.4789 N   0  0  0  0  0  0  0  0  0  0  0  0
   45.6228   33.8503   45.6589 C   0  0  0  0  0  0  0  0  0  0  0  0
   44.7505   34.8100   45.9383 N   0  0  0  0  0  0  0  0  0  0  0  0
   45.9333   32.8395   46.6157 N   0  0  0  0  0  0  0  0  0  0  0  0
   45.1568   32.5686   47.8118 C   0  0  0  0  0  0  0  0  0  0  0  0
   46.2548   32.2342   48.8100 C   0  0  0  0  0  0  0  0  0  0  0  0
   47.5235   32.0650   48.0384 C   0  0  0  0  0  0  0  0  0  0  0  0
   47.0383   31.9067   46.6045 C   0  0  1  0  0  0  0  0  0  0  0  0
   44.7715   36.7559   42.8233 N   0  0  0  0  0  0  0  0  0  0  0  0
   46.4892   30.2011   46.3861 S   0  0  0  0  0  0  0  0  0  0  0  0
   43.7686   36.5569   45.2003 H   0  0  0  0  0  0  0  0  0  0  0  0
   46.4952   34.6866   42.5441 H   0  0  0  0  0  0  0  0  0  0  0  0
   44.4813   31.7161   47.6357 H   0  0  0  0  0  0  0  0  0  0  0  0
   44.6554   33.4785   48.1513 H   0  0  0  0  0  0  0  0  0  0  0  0
   46.3148   32.9636   49.6394 H   0  0  0  0  0  0  0  0  0  0  0  0
   45.9774   31.2342   49.2541 H   0  0  0  0  0  0  0  0  0  0  0  0
   48.1755   31.2518   48.3765 H   0  0  0  0  0  0  0  0  0  0  0  0
   48.0969   33.0282   48.0634 H   0  0  0  0  0  0  0  0  0  0  0  0
   47.7869   32.2235   45.8707 H   0  0  0  0  0  0  0  0  0  0  0  0
   44.8025   37.7533   43.1038 H   0  0  0  0  0  0  0  0  0  0  0  0
   44.5039   36.3728   41.8931 H   0  0  0  0  0  0  0  0  0  0  0  0
   49.0650   31.5372   45.3281 Cl  0  0  0  0  0  0  0  0  0  0  0  0
   49.0929   29.8666   45.9041 C   0  0  0  0  0  0  0  0  0  0  0  0
   47.9744   29.1926   46.3963 C   0  0  0  0  0  0  0  0  0  0  0  0
   48.1009   27.8870   46.8224 C   0  0  0  0  0  0  0  0  0  0  0  0
   47.1776   27.4589   47.1840 H   0  0  0  0  0  0  0  0  0  0  0  0
   49.3227   27.2715   46.7561 C   0  0  0  0  0  0  0  0  0  0  0  0
   50.4342   27.9310   46.2706 C   0  0  0  0  0  0  0  0  0  0  0  0
   51.9906   27.1307   46.1917 Cl  0  0  0  0  0  0  0  0  0  0  0  0
   50.3268   29.2515   45.8349 C   0  0  0  0  0  0  0  0  0  0  0  0
   51.2200   29.7599   45.4522 H   0  0  0  0  0  0  0  0  0  0  0  0
   49.3754   26.2342   47.1057 H   0  0  0  0  0  0  0  0  0  0  0  0
  1  6  2  0
  2  1  1  0
  3  2  2  0
  3  4  1  0
  4  5  2  0
  5  6  1  0
  5  7  1  0
  7 11  1  0
  7  8  1  0
  8  9  1  0
 10  9  1  0
 11 10  1  0
 12  2  1  0
 13 11  1  0
  1 14  1  0
  3 15  1  0
  8 16  1  0
  8 17  1  0
  9 18  1  0
  9 19  1  0
 10 20  1  0
 10 21  1  0
 11 22  1  6
 12 23  1  0
 12 24  1  0
 25 26  1  0
 26 27  2  0
 27 28  1  0
 28 29  1  0
 28 30  2  0
 30 31  1  0
 31 32  1  0
 31 33  2  0
 33 34  1  0
 33 26  1  0
 30 35  1  0
 13 27  1  0
M  ISO  8  14  14  15  14  16  13  17  13  18  13  19  13  20  13  21  13
M  ISO  3  22  13  29  16  34  15
M  END
>  <DihAtoms>  (1) 
10,12,26,25

>  <DihDeg>  (1) 
-90.0019866540024

$$$$
