
 OpenBabel03252502363D

 25 26  0  0  1  0  0  0  0  0999 V2000
   46.2740   35.1480   42.2280 C   0  0  1  0  0  0  0  0  0  0  0  0
   45.8750   36.1800   42.2990 H   0  0  0  0  0  0  0  0  0  0  0  0
   43.2770   35.6090   41.6360 Cl  0  0  0  0  0  0  0  0  0  0  0  0
   44.3050   34.5280   40.7560 C   0  0  0  0  0  0  0  0  0  0  0  0
   45.6260   34.4110   41.1160 C   0  0  0  0  0  0  0  0  0  0  0  0
   46.3270   33.5060   40.3190 C   0  0  0  0  0  0  0  0  0  0  0  0
   47.3860   33.3280   40.5080 H   0  0  0  0  0  0  0  0  0  0  0  0
   45.8210   32.7840   39.2800 C   0  0  0  0  0  3  0  0  0  0  0  0
   44.4760   32.9560   38.9740 C   0  0  0  0  0  0  0  0  0  0  0  0
   43.7680   32.0580   37.6540 Cl  0  0  0  0  0  0  0  0  0  0  0  0
   43.7200   33.8350   39.7210 C   0  0  0  0  0  0  0  0  0  0  0  0
   42.6700   33.9510   39.4630 H   0  0  0  0  0  0  0  0  0  0  0  0
   45.2060   34.9730   44.4470 C   0  0  0  0  0  0  0  0  0  0  0  0
   46.1650   34.5290   43.5400 C   0  0  0  0  0  0  0  0  0  0  0  0
   47.0080   33.4660   43.9560 C   0  0  0  0  0  0  0  0  0  0  0  0
   46.8270   32.9530   45.2000 N   0  0  0  0  0  0  0  0  0  0  0  0
   45.8770   33.4330   46.0270 C   0  0  0  0  0  0  0  0  0  0  0  0
   45.0670   34.4340   45.6640 N   0  0  0  0  0  0  0  0  0  0  0  0
   44.5100   35.7760   44.2480 H   0  0  0  0  0  0  0  0  0  0  0  0
   47.7670   33.0870   43.2850 H   0  0  0  0  0  0  0  0  0  0  0  0
   45.8240   32.9520   46.9850 H   0  0  0  0  0  0  0  0  0  0  0  0
   47.7470   35.2550   41.8870 C   0  0  0  0  0  0  0  0  0  0  0  0
   48.2600   35.9920   42.5710 H   0  0  0  0  0  0  0  0  0  0  0  0
   48.2700   34.2810   41.9500 H   0  0  0  0  0  0  0  0  0  0  0  0
   47.8320   35.7290   40.8810 H   0  0  0  0  0  0  0  0  0  0  0  0
  1  2  1  1  0  0  0
  1 14  1  0  0  0  0
  4  5  1  0  0  0  0
  4  3  1  0  0  0  0
  5  1  1  0  0  0  0
  6  7  1  0  0  0  0
  6  5  2  0  0  0  0
  8  6  1  0  0  0  0
  9  8  2  0  0  0  0
  9 11  1  0  0  0  0
 10  9  1  0  0  0  0
 11  4  2  0  0  0  0
 12 11  1  0  0  0  0
 13 18  1  0  0  0  0
 14 15  1  0  0  0  0
 14 13  2  0  0  0  0
 15 16  2  0  0  0  0
 16 17  1  0  0  0  0
 17 21  1  0  0  0  0
 18 17  2  0  0  0  0
 19 13  1  0  0  0  0
 20 15  1  0  0  0  0
 22 24  1  0  0  0  0
 22  1  1  0  0  0  0
 22 23  1  0  0  0  0
 25 22  1  0  0  0  0
M  END
>  <minimizedAffinity>
-4.58606768

>  <minimizedRMSD>
1.11425877

$$$$
