
     RDKit          3D

 22 23  0  0  0  0  0  0  0  0999 V2000
   44.5803   36.0013   44.4816 C   0  0  0  0  0  0  0  0  0  0  0  0
   45.3269   35.9009   43.2954 C   0  0  0  0  0  0  0  0  0  0  0  0
   46.2260   34.8292   43.1618 C   0  0  0  0  0  0  0  0  0  0  0  0
   46.3033   33.9653   44.2014 N   0  0  0  0  0  0  0  0  0  0  0  0
   45.5819   34.0793   45.3246 C   0  0  0  0  0  0  0  0  0  0  0  0
   44.7035   35.1141   45.4717 N   0  0  0  0  0  0  0  0  0  0  0  0
   46.9573   34.7843   41.9272 C   0  0  0  0  0  0  0  0  0  0  0  0
   48.0518   35.4097   41.7544 O   0  0  0  0  0  0  0  0  0  0  0  0
   43.8946   36.8278   44.5708 H   0  0  0  0  0  0  0  0  0  0  0  0
   45.1730   36.6553   42.5406 H   0  0  0  0  0  0  0  0  0  0  0  0
   45.7207   33.3262   46.1044 H   0  0  0  0  0  0  0  0  0  0  0  0
   44.7414   35.9800   40.1985 Cl  0  0  0  0  0  0  0  0  0  0  0  0
   45.6639   34.5332   39.8241 C   0  0  0  0  0  0  0  0  0  0  0  0
   46.6521   34.0750   40.6816 C   0  0  0  0  0  0  0  0  0  0  0  0
   47.2987   32.9251   40.2627 C   0  0  0  0  0  0  0  0  0  0  0  0
   48.0862   32.5213   40.9015 H   0  0  0  0  0  0  0  0  0  0  0  0
   46.9747   32.2931   39.0798 C   0  0  0  0  0  0  0  0  0  0  0  0
   45.9911   32.7807   38.2629 C   0  0  0  0  0  0  0  0  0  0  0  0
   45.6328   31.9232   36.7719 Cl  0  0  0  0  0  0  0  0  0  0  0  0
   45.3266   33.9144   38.6380 C   0  0  0  0  0  0  0  0  0  0  0  0
   44.5514   34.2862   37.9797 H   0  0  0  0  0  0  0  0  0  0  0  0
   47.5239   31.3984   38.8184 H   0  0  0  0  0  0  0  0  0  0  0  0
  1  6  2  0
  2  1  1  0
  3  2  2  0
  3  4  1  0
  4  5  2  0
  5  6  1  0
  7  3  1  0
  8  7  2  0
  1  9  1  0
  2 10  1  0
  5 11  1  0
 12 13  1  0
 13 14  2  0
 14 15  1  0
 15 16  1  0
 15 17  2  0
 17 18  1  0
 18 19  1  0
 18 20  2  0
 20 21  1  0
 20 13  1  0
 17 22  1  0
  7 14  1  0
M  ISO  5   9  14  10  14  11  14  16  16  21  15
M  END
>  <DihAtoms>  (1) 
2,6,13,12

>  <DihDeg>  (1) 
-45.00340542686451

$$$$
