
 OpenBabel03242515173D

 38 40  0  0  0  0  0  0  0  0999 V2000
   45.4190   30.5570   47.2570 C   0  0  0  0  0  0  0  0  0  0  0  0
   45.2090   29.9470   46.0410 C   0  0  0  0  0  0  0  0  0  0  0  0
   44.8970   28.6200   46.2930 C   0  0  0  0  0  0  0  0  0  0  0  0
   44.9200   28.4460   47.6060 N   0  0  0  0  0  0  0  0  0  0  0  0
   45.2350   29.6160   48.1680 N   0  0  0  0  0  0  0  0  0  0  0  0
   45.3060   30.5230   45.1300 H   0  0  0  0  0  0  0  0  0  0  0  0
   46.9150   26.3640   45.1930 Cl  0  0  0  0  0  0  0  0  0  0  0  0
   45.4140   26.8510   44.4430 C   0  0  0  0  0  0  0  0  0  0  0  0
   44.6900   27.7900   45.1270 C   0  0  0  0  0  0  0  0  0  0  0  0
   43.4640   28.0660   44.4950 C   0  0  0  0  0  0  0  0  0  0  0  0
   42.7290   28.7920   44.8830 H   0  0  0  0  0  0  0  0  0  0  0  0
   43.0160   27.4860   43.3280 C   0  0  0  0  0  0  0  0  0  0  0  0
   43.8010   26.5560   42.6990 C   0  0  0  0  0  0  0  0  0  0  0  0
   43.4110   25.7140   41.2170 Cl  0  0  0  0  0  0  0  0  0  0  0  0
   45.0040   26.2510   43.2790 C   0  0  0  0  0  0  0  0  0  0  0  0
   45.6800   25.5290   42.8450 H   0  0  0  0  0  0  0  0  0  0  0  0
   44.6830   27.1950   48.3260 C   0  0  0  0  0  0  0  0  0  0  0  0
   44.2960   27.4990   49.6500 F   0  0  0  0  0  0  0  0  0  0  0  0
   45.8010   26.4070   48.3180 F   0  0  0  0  0  0  0  0  0  0  0  0
   43.6320   26.5430   47.7700 F   0  0  0  0  0  0  0  0  0  0  0  0
   45.7700   31.9480   47.5470 C   0  0  0  0  0  0  0  0  0  0  0  0
   46.2030   32.0600   48.5750 H   0  0  0  0  0  0  0  0  0  0  0  0
   44.7980   32.5200   47.5570 H   0  0  0  0  0  0  0  0  0  0  0  0
   46.6850   32.5260   46.5070 C   0  0  0  0  0  0  0  0  0  0  0  0
   47.0690   31.6970   45.9270 H   0  0  0  0  0  0  0  0  0  0  0  0
   47.5780   32.9650   47.0330 H   0  0  0  0  0  0  0  0  0  0  0  0
   44.6110   35.3280   45.1850 C   0  0  0  0  0  0  0  0  0  0  0  0
   45.1100   35.4250   43.8710 C   0  0  0  0  0  0  0  0  0  0  0  0
   46.1100   34.5440   43.5140 C   0  0  0  0  0  0  0  0  0  0  0  0
   46.5130   33.6760   44.4530 N   0  0  0  0  0  0  0  0  0  0  0  0
   46.0390   33.5890   45.6930 C   0  0  0  0  0  0  0  0  0  0  0  0
   45.0820   34.4260   46.0460 N   0  0  0  0  0  0  0  0  0  0  0  0
   43.8320   36.0070   45.4820 H   0  0  0  0  0  0  0  0  0  0  0  0
   44.7010   36.1720   43.1980 H   0  0  0  0  0  0  0  0  0  0  0  0
   46.6260   34.6520   42.1500 C   0  0  0  0  0  0  0  0  0  0  0  0
   47.3940   33.5240   41.8570 F   0  0  0  0  0  0  0  0  0  0  0  0
   47.5340   35.7080   42.1650 F   0  0  0  0  0  0  0  0  0  0  0  0
   45.6400   34.8070   41.2220 F   0  0  0  0  0  0  0  0  0  0  0  0
  1 21  1  0  0  0  0
  1  5  2  0  0  0  0
  2  3  2  0  0  0  0
  2  1  1  0  0  0  0
  3  4  1  0  0  0  0
  4  5  1  0  0  0  0
  4 17  1  0  0  0  0
  6  2  1  0  0  0  0
  8  9  1  0  0  0  0
  8  7  1  0  0  0  0
  9  3  1  0  0  0  0
 10 11  1  0  0  0  0
 10  9  2  0  0  0  0
 12 10  1  0  0  0  0
 13 15  1  0  0  0  0
 13 12  2  0  0  0  0
 14 13  1  0  0  0  0
 15  8  2  0  0  0  0
 16 15  1  0  0  0  0
 17 18  1  0  0  0  0
 19 17  1  0  0  0  0
 20 17  1  0  0  0  0
 21 23  1  0  0  0  0
 21 22  1  0  0  0  0
 24 26  1  0  0  0  0
 24 21  1  0  0  0  0
 25 24  1  0  0  0  0
 27 33  1  0  0  0  0
 27 32  1  0  0  0  0
 28 27  2  0  0  0  0
 29 28  1  0  0  0  0
 29 30  2  0  0  0  0
 30 31  1  0  0  0  0
 31 32  2  0  0  0  0
 31 24  1  0  0  0  0
 34 28  1  0  0  0  0
 35 37  1  0  0  0  0
 35 29  1  0  0  0  0
 36 35  1  0  0  0  0
 38 35  1  0  0  0  0
M  END
>  <minimizedAffinity>
-5.27244854

>  <minimizedRMSD>
1.00101948

$$$$
