REMARK  Name = 
REMARK  3 active torsions:
REMARK  status: ('A' for Active; 'I' for Inactive)
REMARK    1  A    between atoms: C_1  and  C_11
REMARK    2  A    between atoms: C_5  and  C_7
REMARK    3  A    between atoms: C_13  and  C_22
REMARK                            x       y       z     vdW  Elec       q    Type
REMARK                         _______ _______ _______ _____ _____    ______ ____
ROOT
ATOM      1  C   UNL     1      44.581  35.151  43.871  0.00  0.00    +0.000 C 
ATOM      2  C   UNL     1      44.900  36.600  44.323  0.00  0.00    +0.000 C 
ATOM      3  C   UNL     1      44.973  36.184  42.920  0.00  0.00    +0.000 C 
ATOM      4  H   UNL     1      43.532  34.839  44.018  0.00  0.00    +0.000 HD
ATOM      5  H   UNL     1      43.975  37.126  44.708  0.00  0.00    +0.000 HD
ATOM      6  H   UNL     1      45.699  36.659  45.053  0.00  0.00    +0.000 HD
ATOM      7  H   UNL     1      44.052  36.595  42.336  0.00  0.00    +0.000 HD
ENDROOT
BRANCH   3  10
ATOM      8 CL   UNL     1      45.342  34.212  40.476  0.00  0.00    +0.000 Cl
ATOM      9  C   UNL     1      46.478  35.443  40.968  0.00  0.00    +0.000 A 
ATOM     10  C   UNL     1      46.133  36.207  42.055  0.00  0.00    +0.000 A 
ATOM     11  C   UNL     1      47.133  37.153  42.345  0.00  0.00    +0.000 A 
ATOM     12  H   UNL     1      47.003  37.838  43.186  0.00  0.00    +0.000 HD
ATOM     13  C   UNL     1      48.304  37.295  41.634  0.00  0.00    +0.000 A 
ATOM     14  C   UNL     1      48.567  36.480  40.554  0.00  0.00    +0.000 A 
ATOM     15 CL   UNL     1      50.050  36.694  39.691  0.00  0.00    +0.000 Cl
ATOM     16  C   UNL     1      47.623  35.534  40.221  0.00  0.00    +0.000 A 
ATOM     17  H   UNL     1      47.812  34.893  39.384  0.00  0.00    +0.000 HD
ENDBRANCH   3  10
BRANCH   1  18
ATOM     18  C   UNL     1      45.532  34.129  44.399  0.00  0.00    +0.000 A 
ATOM     19  C   UNL     1      46.490  33.593  43.537  0.00  0.00    +0.000 A 
ATOM     20  C   UNL     1      47.376  32.680  44.059  0.00  0.00    +0.000 A 
ATOM     21  N   UNL     1      47.279  32.347  45.370  0.00  0.00    +0.000 NA
ATOM     22  C   UNL     1      46.344  32.882  46.170  0.00  0.00    +0.000 A 
ATOM     23  N   UNL     1      45.456  33.785  45.684  0.00  0.00    +0.000 NA
ATOM     24  H   UNL     1      46.636  33.789  42.509  0.00  0.00    +0.000 HD
ATOM     25  H   UNL     1      48.160  32.204  43.472  0.00  0.00    +0.000 HD
BRANCH  22  26
ATOM     26  C   UNL     1      46.405  32.390  47.586  0.00  0.00    +0.000 C 
ATOM     27  F   UNL     1      45.376  32.904  48.352  0.00  0.00    +0.000 F 
ATOM     28  F   UNL     1      47.612  32.773  48.174  0.00  0.00    +0.000 F 
ATOM     29  F   UNL     1      46.394  31.000  47.582  0.00  0.00    +0.000 F 
ENDBRANCH  22  26
ENDBRANCH   1  18
TORSDOF 3
