REMARK  Name = 
REMARK  3 active torsions:
REMARK  status: ('A' for Active; 'I' for Inactive)
REMARK    1  A    between atoms: C_2  and  C_7
REMARK    2  A    between atoms: C_7  and  C_8
REMARK    3  A    between atoms: C_7  and  C_18
REMARK                            x       y       z     vdW  Elec       q    Type
REMARK                         _______ _______ _______ _____ _____    ______ ____
ROOT
ATOM      1  C   UNL     1      46.551  34.974  42.012  0.00  0.00    +0.000 C 
ATOM      2  H   UNL     1      46.063  35.948  41.805  0.00  0.00    +0.000 HD
ENDROOT
BRANCH   1   5
ATOM      3 CL   UNL     1      44.409  35.667  39.897  0.00  0.00    +0.000 Cl
ATOM      4  C   UNL     1      45.284  34.174  39.967  0.00  0.00    +0.000 A 
ATOM      5  C   UNL     1      46.216  33.985  40.959  0.00  0.00    +0.000 A 
ATOM      6  C   UNL     1      46.839  32.739  40.887  0.00  0.00    +0.000 A 
ATOM      7  H   UNL     1      47.599  32.473  41.622  0.00  0.00    +0.000 HD
ATOM      8  C   UNL     1      46.599  31.768  39.962  0.00  0.00    +0.000 A 
ATOM      9  C   UNL     1      45.642  32.032  38.988  0.00  0.00    +0.000 A 
ATOM     10 CL   UNL     1      45.289  30.827  37.775  0.00  0.00    +0.000 Cl
ATOM     11  C   UNL     1      44.985  33.244  38.998  0.00  0.00    +0.000 A 
ATOM     12  H   UNL     1      44.240  33.426  38.227  0.00  0.00    +0.000 HD
ENDBRANCH   1   5
BRANCH   1  14
ATOM     13  C   UNL     1      45.186  35.220  44.054  0.00  0.00    +0.000 A 
ATOM     14  C   UNL     1      46.219  34.581  43.372  0.00  0.00    +0.000 A 
ATOM     15  C   UNL     1      46.910  33.550  44.061  0.00  0.00    +0.000 A 
ATOM     16  N   UNL     1      46.524  33.255  45.328  0.00  0.00    +0.000 NA
ATOM     17  C   UNL     1      45.514  33.916  45.928  0.00  0.00    +0.000 A 
ATOM     18  N   UNL     1      44.843  34.892  45.305  0.00  0.00    +0.000 NA
ATOM     19  H   UNL     1      44.590  36.020  43.638  0.00  0.00    +0.000 HD
ATOM     20  H   UNL     1      47.719  33.025  43.571  0.00  0.00    +0.000 HD
ATOM     21  H   UNL     1      45.295  33.599  46.930  0.00  0.00    +0.000 HD
ENDBRANCH   1  14
BRANCH   1  22
ATOM     22  C   UNL     1      48.049  35.197  41.947  0.00  0.00    +0.000 C 
ATOM     23  H   UNL     1      48.343  36.096  42.563  0.00  0.00    +0.000 HD
ATOM     24  H   UNL     1      48.625  34.318  42.296  0.00  0.00    +0.000 HD
ATOM     25  H   UNL     1      48.306  35.498  40.905  0.00  0.00    +0.000 HD
ENDBRANCH   1  22
TORSDOF 3
