
 OpenBabel03242520313D

 42 44  0  0  0  0  0  0  0  0999 V2000
   41.0160   30.3940   39.1160 C   0  0  0  0  0  0  0  0  0  0  0  0
   39.9370   30.5920   40.0220 C   0  0  0  0  0  0  0  0  0  0  0  0
   39.6520   29.5760   40.9240 C   0  0  0  0  0  0  0  0  0  0  0  0
   40.4110   28.4420   40.9040 N   0  0  0  0  0  0  0  0  0  0  0  0
   41.4310   28.2800   40.0310 C   0  0  0  0  0  0  0  0  0  0  0  0
   41.7240   29.2460   39.1520 N   0  0  0  0  0  0  0  0  0  0  0  0
   41.2640   31.1640   38.4010 H   0  0  0  0  0  0  0  0  0  0  0  0
   42.0210   27.3790   40.0260 H   0  0  0  0  0  0  0  0  0  0  0  0
   39.2580   31.8260   39.9040 N   0  0  0  0  0  0  0  0  0  0  0  0
   39.3240   32.8620   40.9210 C   0  0  0  0  0  0  0  0  0  0  0  0
   38.6070   34.0870   40.4280 C   0  0  0  0  0  0  0  0  0  0  0  0
   37.2890   33.8180   39.9610 N   0  0  0  0  0  0  0  0  0  0  0  0
   37.1770   32.7370   39.0330 C   0  0  0  0  0  0  0  0  0  0  0  0
   38.4550   32.0550   38.6980 C   0  0  0  0  0  0  0  0  0  0  0  0
   40.3290   33.0970   41.2540 H   0  0  0  0  0  0  0  0  0  0  0  0
   38.7480   32.4750   41.7940 H   0  0  0  0  0  0  0  0  0  0  0  0
   39.2110   34.5010   39.5770 H   0  0  0  0  0  0  0  0  0  0  0  0
   38.5660   34.8200   41.2400 H   0  0  0  0  0  0  0  0  0  0  0  0
   36.6910   33.6600   40.8150 H   0  0  0  0  0  0  0  0  0  0  0  0
   36.6740   33.0490   38.1020 H   0  0  0  0  0  0  0  0  0  0  0  0
   36.5050   31.9540   39.4820 H   0  0  0  0  0  0  0  0  0  0  0  0
   39.0380   32.7290   38.0400 H   0  0  0  0  0  0  0  0  0  0  0  0
   38.2330   31.0970   38.2030 H   0  0  0  0  0  0  0  0  0  0  0  0
   38.6030   29.8010   41.7860 O   0  0  0  0  0  0  0  0  0  0  0  0
   36.1150   30.6490   41.3890 O   0  0  0  0  0  0  0  0  0  0  0  0
   36.9960   29.3960   41.2840 P   0  0  1  0  0  0  0  0  0  0  0  0
   37.0620   28.8050   39.7410 O   0  0  0  0  0  0  0  0  0  0  0  0
   38.3530   28.9050   37.0930 Cl  0  0  0  0  0  0  0  0  0  0  0  0
   36.6350   28.8900   37.4650 C   0  0  0  0  0  0  0  0  0  0  0  0
   36.0970   28.8420   38.7560 C   0  0  0  0  0  0  0  0  0  0  0  0
   34.7240   28.8350   38.8970 C   0  0  0  0  0  0  0  0  0  0  0  0
   34.3920   28.7970   39.9390 H   0  0  0  0  0  0  0  0  0  0  0  0
   33.8890   28.8770   37.8080 C   0  0  0  0  0  3  0  0  0  0  0  0
   34.4350   28.9250   36.5330 C   0  0  0  0  0  0  0  0  0  0  0  0
   33.3130   28.9750   35.1890 Cl  0  0  0  0  0  0  0  0  0  0  0  0
   35.8070   28.9310   36.3570 C   0  0  0  0  0  0  0  0  0  0  0  0
   36.1450   28.9700   35.3450 H   0  0  0  0  0  0  0  0  0  0  0  0
   36.4240   28.2620   42.3950 O   0  0  0  0  0  0  0  0  0  0  0  0
   37.2680   27.1910   42.5360 C   0  0  0  0  0  0  0  0  0  0  0  0
   38.2930   27.4090   43.4250 F   0  0  0  0  0  0  0  0  0  0  0  0
   37.7710   26.7070   41.3570 F   0  0  0  0  0  0  0  0  0  0  0  0
   36.4700   26.1650   43.0610 F   0  0  0  0  0  0  0  0  0  0  0  0
  1  6  2  0  0  0  0
  1  2  1  0  0  0  0
  2  3  2  0  0  0  0
  3 24  1  0  0  0  0
  4  3  1  0  0  0  0
  5  4  2  0  0  0  0
  6  5  1  0  0  0  0
  7  1  1  0  0  0  0
  8  5  1  0  0  0  0
  9  2  1  0  0  0  0
  9 10  1  0  0  0  0
 10 15  1  0  0  0  0
 10 16  1  0  0  0  0
 11 10  1  0  0  0  0
 11 18  1  0  0  0  0
 12 11  1  0  0  0  0
 12 19  1  0  0  0  0
 13 21  1  0  0  0  0
 13 12  1  0  0  0  0
 14 13  1  0  0  0  0
 14  9  1  0  0  0  0
 17 11  1  0  0  0  0
 20 13  1  0  0  0  0
 22 14  1  0  0  0  0
 23 14  1  0  0  0  0
 26 25  2  1  0  0  0
 26 24  1  0  0  0  0
 26 38  1  0  0  0  0
 27 26  1  0  0  0  0
 28 29  1  0  0  0  0
 29 30  1  0  0  0  0
 30 31  2  0  0  0  0
 30 27  1  0  0  0  0
 31 32  1  0  0  0  0
 33 31  1  0  0  0  0
 34 33  2  0  0  0  0
 35 34  1  0  0  0  0
 36 34  1  0  0  0  0
 36 29  2  0  0  0  0
 37 36  1  0  0  0  0
 38 39  1  0  0  0  0
 39 42  1  0  0  0  0
 39 40  1  0  0  0  0
 41 39  1  0  0  0  0
M  END
>  <minimizedAffinity>
-5.71400642

$$$$

 OpenBabel03242520313D

 42 44  0  0  0  0  0  0  0  0999 V2000
   43.9720   31.5490   41.1840 C   0  0  0  0  0  0  0  0  0  0  0  0
   42.6960   32.0330   40.7850 C   0  0  0  0  0  0  0  0  0  0  0  0
   41.6600   31.9680   41.7060 C   0  0  0  0  0  0  0  0  0  0  0  0
   41.9070   31.4470   42.9430 N   0  0  0  0  0  0  0  0  0  0  0  0
   43.1310   30.9930   43.2960 C   0  0  0  0  0  0  0  0  0  0  0  0
   44.1450   31.0460   42.4240 N   0  0  0  0  0  0  0  0  0  0  0  0
   44.8000   31.5850   40.4920 H   0  0  0  0  0  0  0  0  0  0  0  0
   43.3110   30.5840   44.2750 H   0  0  0  0  0  0  0  0  0  0  0  0
   42.6180   32.5390   39.4670 N   0  0  0  0  0  0  0  0  0  0  0  0
   42.5310   33.9590   39.1720 C   0  0  0  0  0  0  0  0  0  0  0  0
   42.6000   34.1610   37.6850 C   0  0  0  0  0  0  0  0  0  0  0  0
   41.6660   33.3630   36.9640 N   0  0  0  0  0  0  0  0  0  0  0  0
   41.6580   31.9750   37.3040 C   0  0  0  0  0  0  0  0  0  0  0  0
   42.6240   31.5760   38.3610 C   0  0  0  0  0  0  0  0  0  0  0  0
   43.2630   34.5680   39.6900 H   0  0  0  0  0  0  0  0  0  0  0  0
   41.5150   34.2810   39.5000 H   0  0  0  0  0  0  0  0  0  0  0  0
   43.6370   33.8780   37.3630 H   0  0  0  0  0  0  0  0  0  0  0  0
   42.4230   35.2190   37.4660 H   0  0  0  0  0  0  0  0  0  0  0  0
   40.7180   33.8030   37.1060 H   0  0  0  0  0  0  0  0  0  0  0  0
   41.8030   31.3370   36.4160 H   0  0  0  0  0  0  0  0  0  0  0  0
   40.6340   31.7120   37.6900 H   0  0  0  0  0  0  0  0  0  0  0  0
   43.6390   31.5930   37.9180 H   0  0  0  0  0  0  0  0  0  0  0  0
   42.3600   30.5730   38.7300 H   0  0  0  0  0  0  0  0  0  0  0  0
   40.4390   32.4460   41.2870 O   0  0  0  0  0  0  0  0  0  0  0  0
   39.4930   30.5560   39.6750 O   0  0  0  0  0  0  0  0  0  0  0  0
   39.1600   31.3250   40.9610 P   0  0  1  0  0  0  0  0  0  0  0  0
   38.9970   30.3210   42.2660 O   0  0  0  0  0  0  0  0  0  0  0  0
   41.0370   28.1960   42.1650 Cl  0  0  0  0  0  0  0  0  0  0  0  0
   39.2910   28.0230   42.2980 C   0  0  0  0  0  0  0  0  0  0  0  0
   38.3850   29.0880   42.3400 C   0  0  0  0  0  0  0  0  0  0  0  0
   37.0390   28.8020   42.4470 C   0  0  0  0  0  0  0  0  0  0  0  0
   36.4030   29.6920   42.4730 H   0  0  0  0  0  0  0  0  0  0  0  0
   36.5810   27.5080   42.5110 C   0  0  0  0  0  3  0  0  0  0  0  0
   37.4920   26.4610   42.4680 C   0  0  0  0  0  0  0  0  0  0  0  0
   36.8400   24.8380   42.5540 Cl  0  0  0  0  0  0  0  0  0  0  0  0
   38.8470   26.7140   42.3620 C   0  0  0  0  0  0  0  0  0  0  0  0
   39.4790   25.8550   42.3350 H   0  0  0  0  0  0  0  0  0  0  0  0
   37.7790   32.2510   40.6730 O   0  0  0  0  0  0  0  0  0  0  0  0
   37.7200   32.7220   39.3870 C   0  0  0  0  0  0  0  0  0  0  0  0
   37.0870   31.8690   38.5160 F   0  0  0  0  0  0  0  0  0  0  0  0
   38.9290   33.1040   38.8680 F   0  0  0  0  0  0  0  0  0  0  0  0
   36.9500   33.8920   39.4620 F   0  0  0  0  0  0  0  0  0  0  0  0
  1  6  1  0  0  0  0
  2  1  2  0  0  0  0
  2  3  1  0  0  0  0
  3  4  2  0  0  0  0
  4  5  1  0  0  0  0
  5  8  1  0  0  0  0
  6  5  2  0  0  0  0
  7  1  1  0  0  0  0
  9  2  1  0  0  0  0
 10  9  1  0  0  0  0
 10 16  1  0  0  0  0
 10 15  1  0  0  0  0
 11 10  1  0  0  0  0
 12 19  1  0  0  0  0
 12 13  1  0  0  0  0
 12 11  1  0  0  0  0
 13 21  1  0  0  0  0
 13 14  1  0  0  0  0
 14 23  1  0  0  0  0
 14  9  1  0  0  0  0
 17 11  1  0  0  0  0
 18 11  1  0  0  0  0
 20 13  1  0  0  0  0
 22 14  1  0  0  0  0
 24  3  1  0  0  0  0
 26 25  2  6  0  0  0
 26 24  1  0  0  0  0
 26 27  1  0  0  0  0
 27 30  1  0  0  0  0
 28 29  1  0  0  0  0
 29 30  2  0  0  0  0
 29 36  1  0  0  0  0
 30 31  1  0  0  0  0
 31 32  1  0  0  0  0
 31 33  2  0  0  0  0
 34 33  1  0  0  0  0
 34 35  1  0  0  0  0
 36 34  2  0  0  0  0
 37 36  1  0  0  0  0
 38 26  1  0  0  0  0
 39 42  1  0  0  0  0
 39 38  1  0  0  0  0
 40 39  1  0  0  0  0
 41 39  1  0  0  0  0
M  END
>  <minimizedAffinity>
-5.59407711

$$$$

 OpenBabel03242520313D

 42 44  0  0  0  0  0  0  0  0999 V2000
   40.8180   30.1180   38.0650 C   0  0  0  0  0  0  0  0  0  0  0  0
   39.5290   30.1800   38.6640 C   0  0  0  0  0  0  0  0  0  0  0  0
   38.7640   29.0220   38.6800 C   0  0  0  0  0  0  0  0  0  0  0  0
   39.2750   27.8850   38.1250 N   0  0  0  0  0  0  0  0  0  0  0  0
   40.5040   27.8540   37.5620 C   0  0  0  0  0  0  0  0  0  0  0  0
   41.2600   28.9590   37.5350 N   0  0  0  0  0  0  0  0  0  0  0  0
   41.4390   31.0010   38.0360 H   0  0  0  0  0  0  0  0  0  0  0  0
   40.8940   26.9490   37.1280 H   0  0  0  0  0  0  0  0  0  0  0  0
   39.1590   31.4390   39.1900 N   0  0  0  0  0  0  0  0  0  0  0  0
   39.6910   31.9600   40.4380 C   0  0  0  0  0  0  0  0  0  0  0  0
   39.2010   33.3660   40.6360 C   0  0  0  0  0  0  0  0  0  0  0  0
   37.7880   33.4940   40.5120 N   0  0  0  0  0  0  0  0  0  0  0  0
   37.2210   32.9030   39.3410 C   0  0  0  0  0  0  0  0  0  0  0  0
   38.1940   32.2420   38.4310 C   0  0  0  0  0  0  0  0  0  0  0  0
   40.7700   31.8990   40.5230 H   0  0  0  0  0  0  0  0  0  0  0  0
   39.2410   31.3380   41.2480 H   0  0  0  0  0  0  0  0  0  0  0  0
   39.6890   33.9980   39.8470 H   0  0  0  0  0  0  0  0  0  0  0  0
   39.5150   33.7090   41.6280 H   0  0  0  0  0  0  0  0  0  0  0  0
   37.3690   33.0910   41.3920 H   0  0  0  0  0  0  0  0  0  0  0  0
   36.6200   33.6290   38.7690 H   0  0  0  0  0  0  0  0  0  0  0  0
   36.4930   32.1070   39.6630 H   0  0  0  0  0  0  0  0  0  0  0  0
   38.7660   33.0360   37.9110 H   0  0  0  0  0  0  0  0  0  0  0  0
   37.6460   31.6050   37.7200 H   0  0  0  0  0  0  0  0  0  0  0  0
   37.5230   29.1180   39.2670 O   0  0  0  0  0  0  0  0  0  0  0  0
   36.6940   30.0010   41.6340 O   0  0  0  0  0  0  0  0  0  0  0  0
   37.3620   28.7930   40.9600 P   0  0  1  0  0  0  0  0  0  0  0  0
   36.4800   27.4060   41.1460 O   0  0  0  0  0  0  0  0  0  0  0  0
   35.8550   26.3380   38.4710 Cl  0  0  0  0  0  0  0  0  0  0  0  0
   36.6350   25.5150   39.8160 C   0  0  0  0  0  0  0  0  0  0  0  0
   36.8980   26.0950   41.0620 C   0  0  0  0  0  0  0  0  0  0  0  0
   37.5190   25.3270   42.0260 C   0  0  0  0  0  0  0  0  0  0  0  0
   37.6850   25.8580   42.9680 H   0  0  0  0  0  0  0  0  0  0  0  0
   37.8770   24.0230   41.7870 C   0  0  0  0  0  3  0  0  0  0  0  0
   37.6100   23.4600   40.5460 C   0  0  0  0  0  0  0  0  0  0  0  0
   38.0930   21.7930   40.3090 Cl  0  0  0  0  0  0  0  0  0  0  0  0
   36.9900   24.2030   39.5580 C   0  0  0  0  0  0  0  0  0  0  0  0
   36.8210   23.6960   38.6340 H   0  0  0  0  0  0  0  0  0  0  0  0
   38.9300   28.6570   41.5690 O   0  0  0  0  0  0  0  0  0  0  0  0
   38.9910   28.8710   42.9210 C   0  0  0  0  0  0  0  0  0  0  0  0
   37.9980   28.2320   43.6260 F   0  0  0  0  0  0  0  0  0  0  0  0
   39.0420   30.1910   43.2840 F   0  0  0  0  0  0  0  0  0  0  0  0
   40.2140   28.3150   43.3240 F   0  0  0  0  0  0  0  0  0  0  0  0
  1  2  1  0  0  0  0
  2  3  2  0  0  0  0
  2  9  1  0  0  0  0
  3 24  1  0  0  0  0
  4  3  1  0  0  0  0
  5  4  2  0  0  0  0
  6  5  1  0  0  0  0
  6  1  2  0  0  0  0
  7  1  1  0  0  0  0
  8  5  1  0  0  0  0
  9 10  1  0  0  0  0
 10 15  1  0  0  0  0
 10 11  1  0  0  0  0
 10 16  1  0  0  0  0
 11 18  1  0  0  0  0
 12 11  1  0  0  0  0
 12 19  1  0  0  0  0
 13 21  1  0  0  0  0
 13 12  1  0  0  0  0
 14  9  1  0  0  0  0
 14 13  1  0  0  0  0
 17 11  1  0  0  0  0
 20 13  1  0  0  0  0
 22 14  1  0  0  0  0
 23 14  1  0  0  0  0
 24 26  1  0  0  0  0
 26 27  1  0  0  0  0
 26 38  1  0  0  0  0
 26 25  2  1  0  0  0
 28 29  1  0  0  0  0
 29 30  1  0  0  0  0
 30 27  1  0  0  0  0
 30 31  2  0  0  0  0
 31 32  1  0  0  0  0
 33 31  1  0  0  0  0
 34 33  2  0  0  0  0
 35 34  1  0  0  0  0
 36 29  2  0  0  0  0
 36 34  1  0  0  0  0
 37 36  1  0  0  0  0
 38 39  1  0  0  0  0
 39 41  1  0  0  0  0
 39 42  1  0  0  0  0
 39 40  1  0  0  0  0
M  END
>  <minimizedAffinity>
-5.52869463

$$$$

 OpenBabel03242520313D

 42 44  0  0  0  0  0  0  0  0999 V2000
   37.4290   30.8510   37.6690 C   0  0  0  0  0  0  0  0  0  0  0  0
   38.3550   30.8020   38.7470 C   0  0  0  0  0  0  0  0  0  0  0  0
   38.4910   29.6030   39.4320 C   0  0  0  0  0  0  0  0  0  0  0  0
   37.7370   28.5330   39.0480 N   0  0  0  0  0  0  0  0  0  0  0  0
   36.8630   28.6070   38.0180 C   0  0  0  0  0  0  0  0  0  0  0  0
   36.7160   29.7530   37.3420 N   0  0  0  0  0  0  0  0  0  0  0  0
   37.2990   31.7680   37.1140 H   0  0  0  0  0  0  0  0  0  0  0  0
   36.2740   27.7540   37.7260 H   0  0  0  0  0  0  0  0  0  0  0  0
   39.0520   32.0040   39.0100 N   0  0  0  0  0  0  0  0  0  0  0  0
   40.4130   32.2400   38.5590 C   0  0  0  0  0  0  0  0  0  0  0  0
   40.8040   33.6530   38.8840 C   0  0  0  0  0  0  0  0  0  0  0  0
   40.5770   34.0020   40.2460 N   0  0  0  0  0  0  0  0  0  0  0  0
   39.2760   33.6910   40.7480 C   0  0  0  0  0  0  0  0  0  0  0  0
   38.3580   33.0470   39.7720 C   0  0  0  0  0  0  0  0  0  0  0  0
   40.5840   32.0100   37.5140 H   0  0  0  0  0  0  0  0  0  0  0  0
   41.0620   31.5710   39.1740 H   0  0  0  0  0  0  0  0  0  0  0  0
   40.1820   34.3240   38.2330 H   0  0  0  0  0  0  0  0  0  0  0  0
   41.8640   33.7880   38.6430 H   0  0  0  0  0  0  0  0  0  0  0  0
   41.3340   33.5320   40.8100 H   0  0  0  0  0  0  0  0  0  0  0  0
   38.7840   34.5770   41.1830 H   0  0  0  0  0  0  0  0  0  0  0  0
   39.3910   32.9690   41.6040 H   0  0  0  0  0  0  0  0  0  0  0  0
   38.0340   33.8210   39.0480 H   0  0  0  0  0  0  0  0  0  0  0  0
   37.5020   32.6150   40.3140 H   0  0  0  0  0  0  0  0  0  0  0  0
   39.3950   29.5910   40.4690 O   0  0  0  0  0  0  0  0  0  0  0  0
   37.3790   30.2840   42.0570 O   0  0  0  0  0  0  0  0  0  0  0  0
   38.8210   29.7570   42.0950 P   0  0  1  0  0  0  0  0  0  0  0  0
   38.9290   28.2850   42.8410 O   0  0  0  0  0  0  0  0  0  0  0  0
   36.2580   27.2780   43.5720 Cl  0  0  0  0  0  0  0  0  0  0  0  0
   37.4960   26.4790   42.6130 C   0  0  0  0  0  0  0  0  0  0  0  0
   38.7470   27.0260   42.3080 C   0  0  0  0  0  0  0  0  0  0  0  0
   39.6220   26.2830   41.5420 C   0  0  0  0  0  0  0  0  0  0  0  0
   40.5740   26.7860   41.3530 H   0  0  0  0  0  0  0  0  0  0  0  0
   39.2900   25.0320   41.0810 C   0  0  0  0  0  3  0  0  0  0  0  0
   38.0450   24.5000   41.3910 C   0  0  0  0  0  0  0  0  0  0  0  0
   37.6880   22.9020   40.7710 Cl  0  0  0  0  0  0  0  0  0  0  0  0
   37.1460   25.2200   42.1560 C   0  0  0  0  0  0  0  0  0  0  0  0
   36.2120   24.7400   42.3490 H   0  0  0  0  0  0  0  0  0  0  0  0
   39.7880   30.9320   42.8220 O   0  0  0  0  0  0  0  0  0  0  0  0
   41.1250   30.7170   42.6150 C   0  0  0  0  0  0  0  0  0  0  0  0
   41.5800   31.1920   41.4080 F   0  0  0  0  0  0  0  0  0  0  0  0
   41.5210   29.4150   42.7800 F   0  0  0  0  0  0  0  0  0  0  0  0
   41.7730   31.4450   43.6230 F   0  0  0  0  0  0  0  0  0  0  0  0
  1  2  1  0  0  0  0
  2  9  1  0  0  0  0
  2  3  2  0  0  0  0
  3 24  1  0  0  0  0
  4  3  1  0  0  0  0
  5  4  2  0  0  0  0
  6  1  2  0  0  0  0
  6  5  1  0  0  0  0
  7  1  1  0  0  0  0
  8  5  1  0  0  0  0
  9 14  1  0  0  0  0
 10 11  1  0  0  0  0
 10  9  1  0  0  0  0
 10 16  1  0  0  0  0
 11 12  1  0  0  0  0
 12 13  1  0  0  0  0
 12 19  1  0  0  0  0
 13 20  1  0  0  0  0
 13 21  1  0  0  0  0
 14 23  1  0  0  0  0
 14 13  1  0  0  0  0
 15 10  1  0  0  0  0
 17 11  1  0  0  0  0
 18 11  1  0  0  0  0
 22 14  1  0  0  0  0
 24 26  1  0  0  0  0
 26 25  2  6  0  0  0
 26 38  1  0  0  0  0
 26 27  1  0  0  0  0
 29 28  1  0  0  0  0
 30 29  1  0  0  0  0
 30 27  1  0  0  0  0
 31 30  2  0  0  0  0
 32 31  1  0  0  0  0
 33 34  2  0  0  0  0
 33 31  1  0  0  0  0
 34 36  1  0  0  0  0
 35 34  1  0  0  0  0
 36 37  1  0  0  0  0
 36 29  2  0  0  0  0
 39 41  1  0  0  0  0
 39 38  1  0  0  0  0
 39 42  1  0  0  0  0
 40 39  1  0  0  0  0
M  END
>  <minimizedAffinity>
-5.50285339

$$$$

 OpenBabel03242520313D

 42 44  0  0  0  0  0  0  0  0999 V2000
   37.8010   31.8860   38.1830 C   0  0  0  0  0  0  0  0  0  0  0  0
   37.2870   30.6030   38.5190 C   0  0  0  0  0  0  0  0  0  0  0  0
   36.8140   30.4100   39.8100 C   0  0  0  0  0  0  0  0  0  0  0  0
   36.8630   31.4490   40.6930 N   0  0  0  0  0  0  0  0  0  0  0  0
   37.3560   32.6590   40.3470 C   0  0  0  0  0  0  0  0  0  0  0  0
   37.8170   32.8680   39.1080 N   0  0  0  0  0  0  0  0  0  0  0  0
   38.1760   32.0700   37.1880 H   0  0  0  0  0  0  0  0  0  0  0  0
   37.3880   33.4690   41.0550 H   0  0  0  0  0  0  0  0  0  0  0  0
   37.3140   29.6420   37.4810 N   0  0  0  0  0  0  0  0  0  0  0  0
   38.4750   28.8150   37.2020 C   0  0  0  0  0  0  0  0  0  0  0  0
   38.1270   27.8160   36.1360 C   0  0  0  0  0  0  0  0  0  0  0  0
   37.5460   28.4070   34.9780 N   0  0  0  0  0  0  0  0  0  0  0  0
   36.4620   29.3040   35.2270 C   0  0  0  0  0  0  0  0  0  0  0  0
   36.1080   29.4870   36.6600 C   0  0  0  0  0  0  0  0  0  0  0  0
   38.9000   28.3340   38.0760 H   0  0  0  0  0  0  0  0  0  0  0  0
   39.2440   29.4990   36.7720 H   0  0  0  0  0  0  0  0  0  0  0  0
   37.3860   27.1020   36.5850 H   0  0  0  0  0  0  0  0  0  0  0  0
   39.0350   27.2730   35.8550 H   0  0  0  0  0  0  0  0  0  0  0  0
   38.3300   28.8790   34.4540 H   0  0  0  0  0  0  0  0  0  0  0  0
   35.5600   29.0210   34.6610 H   0  0  0  0  0  0  0  0  0  0  0  0
   36.7480   30.3200   34.8370 H   0  0  0  0  0  0  0  0  0  0  0  0
   35.5950   28.5670   37.0030 H   0  0  0  0  0  0  0  0  0  0  0  0
   35.4640   30.3730   36.7610 H   0  0  0  0  0  0  0  0  0  0  0  0
   36.3250   29.1570   40.1000 O   0  0  0  0  0  0  0  0  0  0  0  0
   36.3140   27.8450   42.4120 O   0  0  0  0  0  0  0  0  0  0  0  0
   37.2010   28.1400   41.1940 P   0  0  1  0  0  0  0  0  0  0  0  0
   37.6390   26.7610   40.3910 O   0  0  0  0  0  0  0  0  0  0  0  0
   37.3870   24.4350   42.1830 Cl  0  0  0  0  0  0  0  0  0  0  0  0
   36.6670   24.6680   40.5950 C   0  0  0  0  0  0  0  0  0  0  0  0
   36.8350   25.8080   39.8020 C   0  0  0  0  0  0  0  0  0  0  0  0
   36.2080   25.8530   38.5730 C   0  0  0  0  0  0  0  0  0  0  0  0
   36.3940   26.7790   38.0210 H   0  0  0  0  0  0  0  0  0  0  0  0
   35.4330   24.8130   38.1220 C   0  0  0  0  0  3  0  0  0  0  0  0
   35.2740   23.6870   38.9200 C   0  0  0  0  0  0  0  0  0  0  0  0
   34.2730   22.3980   38.2840 Cl  0  0  0  0  0  0  0  0  0  0  0  0
   35.8880   23.6110   40.1570 C   0  0  0  0  0  0  0  0  0  0  0  0
   35.7170   22.7130   40.7060 H   0  0  0  0  0  0  0  0  0  0  0  0
   38.5270   29.0400   41.7200 O   0  0  0  0  0  0  0  0  0  0  0  0
   39.4780   28.2680   42.3350 C   0  0  0  0  0  0  0  0  0  0  0  0
   40.2300   27.5190   41.4630 F   0  0  0  0  0  0  0  0  0  0  0  0
   38.9940   27.4660   43.3370 F   0  0  0  0  0  0  0  0  0  0  0  0
   40.3420   29.1800   42.9580 F   0  0  0  0  0  0  0  0  0  0  0  0
  1  2  2  0  0  0  0
  1  6  1  0  0  0  0
  2  3  1  0  0  0  0
  3 24  1  0  0  0  0
  3  4  2  0  0  0  0
  5  4  1  0  0  0  0
  5  8  1  0  0  0  0
  6  5  2  0  0  0  0
  7  1  1  0  0  0  0
  9  2  1  0  0  0  0
 10  9  1  0  0  0  0
 10 15  1  0  0  0  0
 11 17  1  0  0  0  0
 11 10  1  0  0  0  0
 12 13  1  0  0  0  0
 12 11  1  0  0  0  0
 13 14  1  0  0  0  0
 14 23  1  0  0  0  0
 14 22  1  0  0  0  0
 14  9  1  0  0  0  0
 16 10  1  0  0  0  0
 18 11  1  0  0  0  0
 19 12  1  0  0  0  0
 20 13  1  0  0  0  0
 21 13  1  0  0  0  0
 24 26  1  0  0  0  0
 26 38  1  0  0  0  0
 26 25  2  1  0  0  0
 27 26  1  0  0  0  0
 29 28  1  0  0  0  0
 30 27  1  0  0  0  0
 30 29  2  0  0  0  0
 31 30  1  0  0  0  0
 32 31  1  0  0  0  0
 33 31  2  0  0  0  0
 33 34  1  0  0  0  0
 34 36  2  0  0  0  0
 35 34  1  0  0  0  0
 36 29  1  0  0  0  0
 36 37  1  0  0  0  0
 38 39  1  0  0  0  0
 39 42  1  0  0  0  0
 39 41  1  0  0  0  0
 40 39  1  0  0  0  0
M  END
>  <minimizedAffinity>
-5.44746637

$$$$

 OpenBabel03242520313D

 42 44  0  0  0  0  0  0  0  0999 V2000
   39.1040   25.4550   40.5040 C   0  0  0  0  0  0  0  0  0  0  0  0
   39.1080   26.8670   40.6770 C   0  0  0  0  0  0  0  0  0  0  0  0
   39.7630   27.6360   39.7250 C   0  0  0  0  0  0  0  0  0  0  0  0
   40.3710   27.0110   38.6750 N   0  0  0  0  0  0  0  0  0  0  0  0
   40.3510   25.6660   38.5350 C   0  0  0  0  0  0  0  0  0  0  0  0
   39.7250   24.9050   39.4410 N   0  0  0  0  0  0  0  0  0  0  0  0
   38.6030   24.8280   41.2260 H   0  0  0  0  0  0  0  0  0  0  0  0
   40.8350   25.1870   37.7010 H   0  0  0  0  0  0  0  0  0  0  0  0
   38.4300   27.3450   41.8220 N   0  0  0  0  0  0  0  0  0  0  0  0
   37.0260   27.0740   42.0780 C   0  0  0  0  0  0  0  0  0  0  0  0
   36.6570   27.6060   43.4330 C   0  0  0  0  0  0  0  0  0  0  0  0
   37.0260   28.9680   43.6230 N   0  0  0  0  0  0  0  0  0  0  0  0
   38.3770   29.2890   43.2850 C   0  0  0  0  0  0  0  0  0  0  0  0
   39.1910   28.1500   42.7830 C   0  0  0  0  0  0  0  0  0  0  0  0
   36.7460   26.0320   41.9700 H   0  0  0  0  0  0  0  0  0  0  0  0
   36.4550   27.6680   41.3250 H   0  0  0  0  0  0  0  0  0  0  0  0
   37.1990   26.9790   44.1900 H   0  0  0  0  0  0  0  0  0  0  0  0
   35.5760   27.4960   43.5700 H   0  0  0  0  0  0  0  0  0  0  0  0
   36.3390   29.5480   43.0710 H   0  0  0  0  0  0  0  0  0  0  0  0
   38.9030   29.7730   44.1240 H   0  0  0  0  0  0  0  0  0  0  0  0
   38.3630   30.0580   42.4630 H   0  0  0  0  0  0  0  0  0  0  0  0
   39.4270   27.4950   43.6450 H   0  0  0  0  0  0  0  0  0  0  0  0
   40.1050   28.5420   42.3100 H   0  0  0  0  0  0  0  0  0  0  0  0
   39.7470   28.9980   39.9230 O   0  0  0  0  0  0  0  0  0  0  0  0
   39.1470   30.3280   37.7010 O   0  0  0  0  0  0  0  0  0  0  0  0
   38.5800   29.9610   39.0800 P   0  0  1  0  0  0  0  0  0  0  0  0
   37.1720   29.1000   38.9690 O   0  0  0  0  0  0  0  0  0  0  0  0
   34.4390   29.0370   40.0690 Cl  0  0  0  0  0  0  0  0  0  0  0  0
   34.9320   29.0300   38.3810 C   0  0  0  0  0  0  0  0  0  0  0  0
   36.2580   29.0620   37.9370 C   0  0  0  0  0  0  0  0  0  0  0  0
   36.4970   29.0530   36.5780 C   0  0  0  0  0  0  0  0  0  0  0  0
   37.5600   29.0790   36.3200 H   0  0  0  0  0  0  0  0  0  0  0  0
   35.4700   29.0120   35.6670 C   0  0  0  0  0  3  0  0  0  0  0  0
   34.1580   28.9810   36.1220 C   0  0  0  0  0  0  0  0  0  0  0  0
   32.8970   28.9310   34.9070 Cl  0  0  0  0  0  0  0  0  0  0  0  0
   33.8850   28.9910   37.4770 C   0  0  0  0  0  0  0  0  0  0  0  0
   32.8520   28.9640   37.7430 H   0  0  0  0  0  0  0  0  0  0  0  0
   38.4080   31.3840   39.9700 O   0  0  0  0  0  0  0  0  0  0  0  0
   37.2080   32.0050   39.7430 C   0  0  0  0  0  0  0  0  0  0  0  0
   36.1650   31.4700   40.4610 F   0  0  0  0  0  0  0  0  0  0  0  0
   36.8610   32.1010   38.4210 F   0  0  0  0  0  0  0  0  0  0  0  0
   37.3890   33.3230   40.1880 F   0  0  0  0  0  0  0  0  0  0  0  0
  1  2  1  0  0  0  0
  1  7  1  0  0  0  0
  2  9  1  0  0  0  0
  3 24  1  0  0  0  0
  3  2  2  0  0  0  0
  4  3  1  0  0  0  0
  5  4  2  0  0  0  0
  5  6  1  0  0  0  0
  6  1  2  0  0  0  0
  8  5  1  0  0  0  0
  9 10  1  0  0  0  0
  9 14  1  0  0  0  0
 10 11  1  0  0  0  0
 11 18  1  0  0  0  0
 11 12  1  0  0  0  0
 11 17  1  0  0  0  0
 13 12  1  0  0  0  0
 13 20  1  0  0  0  0
 14 13  1  0  0  0  0
 14 22  1  0  0  0  0
 15 10  1  0  0  0  0
 16 10  1  0  0  0  0
 19 12  1  0  0  0  0
 21 13  1  0  0  0  0
 23 14  1  0  0  0  0
 26 25  2  6  0  0  0
 26 24  1  0  0  0  0
 26 38  1  0  0  0  0
 27 26  1  0  0  0  0
 29 28  1  0  0  0  0
 30 29  1  0  0  0  0
 30 27  1  0  0  0  0
 31 30  2  0  0  0  0
 32 31  1  0  0  0  0
 33 34  2  0  0  0  0
 33 31  1  0  0  0  0
 34 36  1  0  0  0  0
 35 34  1  0  0  0  0
 36 37  1  0  0  0  0
 36 29  2  0  0  0  0
 39 38  1  0  0  0  0
 39 42  1  0  0  0  0
 39 40  1  0  0  0  0
 41 39  1  0  0  0  0
M  END
>  <minimizedAffinity>
-5.43578959

$$$$

 OpenBabel03242520313D

 42 44  0  0  0  0  0  0  0  0999 V2000
   36.1960   30.2120   37.8730 C   0  0  0  0  0  0  0  0  0  0  0  0
   36.6940   30.5890   39.1510 C   0  0  0  0  0  0  0  0  0  0  0  0
   36.1190   30.0040   40.2710 C   0  0  0  0  0  0  0  0  0  0  0  0
   35.1100   29.1020   40.1000 N   0  0  0  0  0  0  0  0  0  0  0  0
   34.6550   28.7610   38.8730 C   0  0  0  0  0  0  0  0  0  0  0  0
   35.1950   29.3120   37.7790 N   0  0  0  0  0  0  0  0  0  0  0  0
   36.6210   30.6470   36.9820 H   0  0  0  0  0  0  0  0  0  0  0  0
   33.8580   28.0480   38.7540 H   0  0  0  0  0  0  0  0  0  0  0  0
   37.7430   31.5370   39.1440 N   0  0  0  0  0  0  0  0  0  0  0  0
   39.1100   31.1980   38.7850 C   0  0  0  0  0  0  0  0  0  0  0  0
   39.9370   32.4520   38.7480 C   0  0  0  0  0  0  0  0  0  0  0  0
   39.8270   33.2350   39.9320 N   0  0  0  0  0  0  0  0  0  0  0  0
   38.4920   33.5020   40.3670 C   0  0  0  0  0  0  0  0  0  0  0  0
   37.4210   32.9180   39.5170 C   0  0  0  0  0  0  0  0  0  0  0  0
   39.2020   30.6330   37.8650 H   0  0  0  0  0  0  0  0  0  0  0  0
   39.5010   30.5720   39.6210 H   0  0  0  0  0  0  0  0  0  0  0  0
   39.5700   33.0610   37.8790 H   0  0  0  0  0  0  0  0  0  0  0  0
   40.9840   32.1750   38.5870 H   0  0  0  0  0  0  0  0  0  0  0  0
   40.3860   32.7390   40.6760 H   0  0  0  0  0  0  0  0  0  0  0  0
   38.3130   34.5830   40.4910 H   0  0  0  0  0  0  0  0  0  0  0  0
   38.3610   33.0620   41.3950 H   0  0  0  0  0  0  0  0  0  0  0  0
   37.3710   33.5080   38.5800 H   0  0  0  0  0  0  0  0  0  0  0  0
   36.4680   32.9500   40.0680 H   0  0  0  0  0  0  0  0  0  0  0  0
   36.6260   30.3910   41.4900 O   0  0  0  0  0  0  0  0  0  0  0  0
   37.5770   28.8850   43.4640 O   0  0  0  0  0  0  0  0  0  0  0  0
   37.9920   29.5510   42.1440 P   0  0  1  0  0  0  0  0  0  0  0  0
   38.5150   28.4510   41.0250 O   0  0  0  0  0  0  0  0  0  0  0  0
   41.0420   27.0520   40.4390 Cl  0  0  0  0  0  0  0  0  0  0  0  0
   39.4480   26.3560   40.7000 C   0  0  0  0  0  0  0  0  0  0  0  0
   38.2900   27.0920   40.9750 C   0  0  0  0  0  0  0  0  0  0  0  0
   37.1050   26.4090   41.1580 C   0  0  0  0  0  0  0  0  0  0  0  0
   36.2530   27.0620   41.3680 H   0  0  0  0  0  0  0  0  0  0  0  0
   37.0430   25.0390   41.0760 C   0  0  0  0  0  3  0  0  0  0  0  0
   38.2000   24.3210   40.8020 C   0  0  0  0  0  0  0  0  0  0  0  0
   38.0500   22.5780   40.7110 Cl  0  0  0  0  0  0  0  0  0  0  0  0
   39.4040   24.9750   40.6140 C   0  0  0  0  0  0  0  0  0  0  0  0
   40.2440   24.3500   40.4070 H   0  0  0  0  0  0  0  0  0  0  0  0
   39.1490   30.7280   42.4940 O   0  0  0  0  0  0  0  0  0  0  0  0
   40.4270   30.2330   42.4760 C   0  0  0  0  0  0  0  0  0  0  0  0
   40.9850   30.1930   41.2210 F   0  0  0  0  0  0  0  0  0  0  0  0
   40.5700   29.0150   43.0870 F   0  0  0  0  0  0  0  0  0  0  0  0
   41.1790   31.1360   43.2410 F   0  0  0  0  0  0  0  0  0  0  0  0
  1  2  1  0  0  0  0
  2  3  2  0  0  0  0
  3 24  1  0  0  0  0
  4  3  1  0  0  0  0
  5  4  2  0  0  0  0
  6  1  2  0  0  0  0
  6  5  1  0  0  0  0
  7  1  1  0  0  0  0
  8  5  1  0  0  0  0
  9  2  1  0  0  0  0
  9 14  1  0  0  0  0
 10  9  1  0  0  0  0
 10 16  1  0  0  0  0
 11 10  1  0  0  0  0
 11 12  1  0  0  0  0
 12 13  1  0  0  0  0
 12 19  1  0  0  0  0
 13 20  1  0  0  0  0
 13 21  1  0  0  0  0
 14 23  1  0  0  0  0
 14 13  1  0  0  0  0
 15 10  1  0  0  0  0
 17 11  1  0  0  0  0
 18 11  1  0  0  0  0
 22 14  1  0  0  0  0
 24 26  1  0  0  0  0
 26 38  1  0  0  0  0
 26 25  2  1  0  0  0
 27 26  1  0  0  0  0
 28 29  1  0  0  0  0
 29 30  1  0  0  0  0
 30 27  1  0  0  0  0
 30 31  2  0  0  0  0
 31 32  1  0  0  0  0
 33 31  1  0  0  0  0
 34 33  2  0  0  0  0
 35 34  1  0  0  0  0
 36 29  2  0  0  0  0
 36 34  1  0  0  0  0
 37 36  1  0  0  0  0
 39 38  1  0  0  0  0
 39 41  1  0  0  0  0
 39 42  1  0  0  0  0
 40 39  1  0  0  0  0
M  END
>  <minimizedAffinity>
-5.43398666

$$$$

 OpenBabel03242520313D

 42 44  0  0  0  0  0  0  0  0999 V2000
   36.3290   26.7690   37.1280 C   0  0  0  0  0  0  0  0  0  0  0  0
   36.9470   27.3640   38.2630 C   0  0  0  0  0  0  0  0  0  0  0  0
   36.9140   28.7480   38.3690 C   0  0  0  0  0  0  0  0  0  0  0  0
   36.2970   29.4710   37.3890 N   0  0  0  0  0  0  0  0  0  0  0  0
   35.7170   28.8790   36.3210 C   0  0  0  0  0  0  0  0  0  0  0  0
   35.7370   27.5460   36.1980 N   0  0  0  0  0  0  0  0  0  0  0  0
   36.3370   25.6950   37.0150 H   0  0  0  0  0  0  0  0  0  0  0  0
   35.2340   29.4620   35.5560 H   0  0  0  0  0  0  0  0  0  0  0  0
   37.5400   26.4650   39.1790 N   0  0  0  0  0  0  0  0  0  0  0  0
   38.9110   26.0010   39.0520 C   0  0  0  0  0  0  0  0  0  0  0  0
   39.2660   25.1710   40.2530 C   0  0  0  0  0  0  0  0  0  0  0  0
   38.3260   24.1350   40.5200 N   0  0  0  0  0  0  0  0  0  0  0  0
   36.9580   24.5430   40.5520 C   0  0  0  0  0  0  0  0  0  0  0  0
   36.7230   25.9900   40.3000 C   0  0  0  0  0  0  0  0  0  0  0  0
   39.6360   26.7900   38.8850 H   0  0  0  0  0  0  0  0  0  0  0  0
   38.9260   25.3210   38.1680 H   0  0  0  0  0  0  0  0  0  0  0  0
   39.2940   25.8660   41.1350 H   0  0  0  0  0  0  0  0  0  0  0  0
   40.2590   24.7360   40.0970 H   0  0  0  0  0  0  0  0  0  0  0  0
   38.4910   23.3840   39.7970 H   0  0  0  0  0  0  0  0  0  0  0  0
   36.4680   24.2530   41.4960 H   0  0  0  0  0  0  0  0  0  0  0  0
   36.4030   23.9840   39.7480 H   0  0  0  0  0  0  0  0  0  0  0  0
   37.0450   26.5490   41.2000 H   0  0  0  0  0  0  0  0  0  0  0  0
   35.6550   26.1480   40.0840 H   0  0  0  0  0  0  0  0  0  0  0  0
   37.5210   29.2900   39.4780 O   0  0  0  0  0  0  0  0  0  0  0  0
   35.1680   29.2660   40.7160 O   0  0  0  0  0  0  0  0  0  0  0  0
   36.5380   29.9600   40.7370 P   0  0  1  0  0  0  0  0  0  0  0  0
   37.3220   29.7540   42.1790 O   0  0  0  0  0  0  0  0  0  0  0  0
   36.3800   27.3980   43.6800 Cl  0  0  0  0  0  0  0  0  0  0  0  0
   38.0230   27.7910   43.1910 C   0  0  0  0  0  0  0  0  0  0  0  0
   38.3910   28.9360   42.4760 C   0  0  0  0  0  0  0  0  0  0  0  0
   39.7230   29.1130   42.1590 C   0  0  0  0  0  0  0  0  0  0  0  0
   39.9210   30.0330   41.6010 H   0  0  0  0  0  0  0  0  0  0  0  0
   40.6790   28.1990   42.5300 C   0  0  0  0  0  3  0  0  0  0  0  0
   40.2990   27.0670   43.2390 C   0  0  0  0  0  0  0  0  0  0  0  0
   41.5690   25.9430   43.6790 Cl  0  0  0  0  0  0  0  0  0  0  0  0
   38.9730   26.8590   43.5710 C   0  0  0  0  0  0  0  0  0  0  0  0
   38.7660   25.9660   44.1170 H   0  0  0  0  0  0  0  0  0  0  0  0
   36.3060   31.5840   40.3450 O   0  0  0  0  0  0  0  0  0  0  0  0
   37.4810   32.2310   40.0630 C   0  0  0  0  0  0  0  0  0  0  0  0
   38.0390   31.8640   38.8620 F   0  0  0  0  0  0  0  0  0  0  0  0
   38.4230   32.1520   41.0560 F   0  0  0  0  0  0  0  0  0  0  0  0
   37.1380   33.5870   39.9690 F   0  0  0  0  0  0  0  0  0  0  0  0
  1  2  1  0  0  0  0
  2  3  2  0  0  0  0
  2  9  1  0  0  0  0
  3 24  1  0  0  0  0
  4  3  1  0  0  0  0
  5  4  2  0  0  0  0
  6  5  1  0  0  0  0
  6  1  2  0  0  0  0
  7  1  1  0  0  0  0
  8  5  1  0  0  0  0
  9 14  1  0  0  0  0
 10  9  1  0  0  0  0
 10 11  1  0  0  0  0
 11 12  1  0  0  0  0
 11 17  1  0  0  0  0
 12 13  1  0  0  0  0
 13 20  1  0  0  0  0
 14 13  1  0  0  0  0
 14 22  1  0  0  0  0
 15 10  1  0  0  0  0
 16 10  1  0  0  0  0
 18 11  1  0  0  0  0
 19 12  1  0  0  0  0
 21 13  1  0  0  0  0
 23 14  1  0  0  0  0
 24 26  1  0  0  0  0
 26 25  2  1  0  0  0
 26 27  1  0  0  0  0
 27 30  1  0  0  0  0
 29 36  1  0  0  0  0
 29 28  1  0  0  0  0
 30 29  2  0  0  0  0
 31 30  1  0  0  0  0
 31 33  2  0  0  0  0
 32 31  1  0  0  0  0
 33 34  1  0  0  0  0
 34 36  2  0  0  0  0
 34 35  1  0  0  0  0
 36 37  1  0  0  0  0
 38 26  1  0  0  0  0
 39 38  1  0  0  0  0
 39 41  1  0  0  0  0
 40 39  1  0  0  0  0
 42 39  1  0  0  0  0
M  END
>  <minimizedAffinity>
-5.40462637

$$$$

 OpenBabel03242520313D

 42 44  0  0  0  0  0  0  0  0999 V2000
   42.5850   29.5420   36.7170 C   0  0  0  0  0  0  0  0  0  0  0  0
   41.9650   30.2990   37.7490 C   0  0  0  0  0  0  0  0  0  0  0  0
   41.0480   29.6520   38.5660 C   0  0  0  0  0  0  0  0  0  0  0  0
   40.7820   28.3310   38.3460 N   0  0  0  0  0  0  0  0  0  0  0  0
   41.3870   27.6360   37.3560 C   0  0  0  0  0  0  0  0  0  0  0  0
   42.2750   28.2390   36.5560 N   0  0  0  0  0  0  0  0  0  0  0  0
   43.3030   30.0150   36.0640 H   0  0  0  0  0  0  0  0  0  0  0  0
   41.1680   26.5950   37.1950 H   0  0  0  0  0  0  0  0  0  0  0  0
   42.3560   31.6550   37.8350 N   0  0  0  0  0  0  0  0  0  0  0  0
   41.5670   32.7390   37.2760 C   0  0  0  0  0  0  0  0  0  0  0  0
   42.1910   34.0520   37.6570 C   0  0  0  0  0  0  0  0  0  0  0  0
   43.5790   34.1270   37.3470 N   0  0  0  0  0  0  0  0  0  0  0  0
   44.3670   33.0240   37.7970 C   0  0  0  0  0  0  0  0  0  0  0  0
   43.6160   31.9630   38.5190 C   0  0  0  0  0  0  0  0  0  0  0  0
   40.5160   32.7080   37.5390 H   0  0  0  0  0  0  0  0  0  0  0  0
   41.6530   32.6440   36.1680 H   0  0  0  0  0  0  0  0  0  0  0  0
   42.0650   34.1660   38.7660 H   0  0  0  0  0  0  0  0  0  0  0  0
   41.6560   34.8560   37.1420 H   0  0  0  0  0  0  0  0  0  0  0  0
   43.6490   34.2540   36.3020 H   0  0  0  0  0  0  0  0  0  0  0  0
   45.2170   33.3560   38.4160 H   0  0  0  0  0  0  0  0  0  0  0  0
   44.8320   32.5310   36.8980 H   0  0  0  0  0  0  0  0  0  0  0  0
   43.3560   32.3530   39.5230 H   0  0  0  0  0  0  0  0  0  0  0  0
   44.2430   31.0600   38.5850 H   0  0  0  0  0  0  0  0  0  0  0  0
   40.4670   30.4130   39.5550 O   0  0  0  0  0  0  0  0  0  0  0  0
   38.4150   30.7110   37.8910 O   0  0  0  0  0  0  0  0  0  0  0  0
   38.8470   30.9860   39.3380 P   0  0  1  0  0  0  0  0  0  0  0  0
   37.8710   30.2280   40.4380 O   0  0  0  0  0  0  0  0  0  0  0  0
   38.4110   29.3690   43.2050 Cl  0  0  0  0  0  0  0  0  0  0  0  0
   37.8260   28.3990   41.8590 C   0  0  0  0  0  0  0  0  0  0  0  0
   37.5930   28.8830   40.5680 C   0  0  0  0  0  0  0  0  0  0  0  0
   37.1320   28.0040   39.6090 C   0  0  0  0  0  0  0  0  0  0  0  0
   36.9780   28.4670   38.6290 H   0  0  0  0  0  0  0  0  0  0  0  0
   36.9010   26.6810   39.8970 C   0  0  0  0  0  3  0  0  0  0  0  0
   37.1360   26.2140   41.1830 C   0  0  0  0  0  0  0  0  0  0  0  0
   36.8210   24.5170   41.4810 Cl  0  0  0  0  0  0  0  0  0  0  0  0
   37.5970   27.0690   42.1670 C   0  0  0  0  0  0  0  0  0  0  0  0
   37.7530   26.6310   43.1280 H   0  0  0  0  0  0  0  0  0  0  0  0
   38.9020   32.6580   39.5570 O   0  0  0  0  0  0  0  0  0  0  0  0
   39.4840   33.0150   40.7460 C   0  0  0  0  0  0  0  0  0  0  0  0
   40.8090   33.3610   40.6300 F   0  0  0  0  0  0  0  0  0  0  0  0
   39.3290   32.0960   41.7500 F   0  0  0  0  0  0  0  0  0  0  0  0
   38.7870   34.1590   41.1630 F   0  0  0  0  0  0  0  0  0  0  0  0
  1  2  1  0  0  0  0
  2  9  1  0  0  0  0
  2  3  2  0  0  0  0
  3 24  1  0  0  0  0
  4  3  1  0  0  0  0
  5  4  2  0  0  0  0
  6  1  2  0  0  0  0
  6  5  1  0  0  0  0
  7  1  1  0  0  0  0
  8  5  1  0  0  0  0
  9 14  1  0  0  0  0
 10 15  1  0  0  0  0
 10 11  1  0  0  0  0
 10  9  1  0  0  0  0
 11 17  1  0  0  0  0
 12 11  1  0  0  0  0
 12 13  1  0  0  0  0
 13 20  1  0  0  0  0
 13 14  1  0  0  0  0
 14 23  1  0  0  0  0
 14 22  1  0  0  0  0
 16 10  1  0  0  0  0
 18 11  1  0  0  0  0
 19 12  1  0  0  0  0
 21 13  1  0  0  0  0
 26 25  2  6  0  0  0
 26 24  1  0  0  0  0
 26 38  1  0  0  0  0
 26 27  1  0  0  0  0
 27 30  1  0  0  0  0
 29 36  1  0  0  0  0
 29 28  1  0  0  0  0
 30 29  2  0  0  0  0
 31 33  2  0  0  0  0
 31 30  1  0  0  0  0
 32 31  1  0  0  0  0
 33 34  1  0  0  0  0
 34 35  1  0  0  0  0
 34 36  2  0  0  0  0
 36 37  1  0  0  0  0
 38 39  1  0  0  0  0
 39 42  1  0  0  0  0
 39 41  1  0  0  0  0
 40 39  1  0  0  0  0
M  END
>  <minimizedAffinity>
-5.29037523

$$$$
