
 OpenBabel03252500103D

 32 34  0  0  0  0  0  0  0  0999 V2000
   45.4390   31.8650   40.7800 Cl  0  0  0  0  0  0  0  0  0  0  0  0
   46.6190   33.0230   40.2330 C   0  0  0  0  0  0  0  0  0  0  0  0
   47.1990   33.9020   41.1150 C   0  0  0  0  0  0  0  0  0  0  0  0
   48.1410   34.8380   40.7230 C   0  0  0  0  0  0  0  0  0  0  0  0
   48.4700   34.8400   39.3740 C   0  0  0  0  0  0  0  0  0  0  0  0
   47.8950   33.9660   38.4880 C   0  0  0  0  0  0  0  0  0  0  0  0
   46.9830   33.0670   38.9000 C   0  0  0  0  0  0  0  0  0  0  0  0
   48.5920   35.5270   41.4300 H   0  0  0  0  0  0  0  0  0  0  0  0
   49.2050   35.5670   39.0580 H   0  0  0  0  0  0  0  0  0  0  0  0
   48.1510   33.9660   37.4370 H   0  0  0  0  0  0  0  0  0  0  0  0
   44.1660   33.6610   37.9750 Cl  0  0  0  0  0  0  0  0  0  0  0  0
   45.0600   32.2380   37.4700 C   0  0  0  0  0  0  0  0  0  0  0  0
   46.3380   32.1060   37.9790 C   0  0  0  0  0  0  0  0  0  0  0  0
   47.1390   31.0130   37.6450 C   0  0  0  0  0  0  0  0  0  0  0  0
   48.1450   30.8490   38.0060 H   0  0  0  0  0  0  0  0  0  0  0  0
   46.6510   30.0310   36.7830 C   0  0  0  0  0  0  0  0  0  0  0  0
   45.3740   30.1800   36.2860 C   0  0  0  0  0  0  0  0  0  0  0  0
   44.7380   28.9520   35.1960 Cl  0  0  0  0  0  0  0  0  0  0  0  0
   44.5740   31.2630   36.6140 C   0  0  0  0  0  0  0  0  0  0  0  0
   43.5690   31.4050   36.2390 H   0  0  0  0  0  0  0  0  0  0  0  0
   46.9560   32.8740   44.6540 C   0  0  0  0  0  0  0  0  0  0  0  0
   46.0370   33.8130   45.1820 C   0  0  0  0  0  0  0  0  0  0  0  0
   45.5260   34.7680   44.3200 C   0  0  0  0  0  0  0  0  0  0  0  0
   45.9150   34.7800   43.0080 N   0  0  0  0  0  0  0  0  0  0  0  0
   46.8080   33.8530   42.5370 C   0  0  0  0  0  0  0  0  0  0  0  0
   47.3130   32.9200   43.3540 N   0  0  0  0  0  0  0  0  0  0  0  0
   47.3370   32.1410   45.3500 H   0  0  0  0  0  0  0  0  0  0  0  0
   45.6950   33.8570   46.1900 H   0  0  0  0  0  0  0  0  0  0  0  0
   44.5400   35.8220   44.7610 C   0  0  0  0  0  0  0  0  0  0  0  0
   45.0170   37.0780   44.5040 F   0  0  0  0  0  0  0  0  0  0  0  0
   43.3540   35.6450   44.0490 F   0  0  0  0  0  0  0  0  0  0  0  0
   44.3230   35.6220   46.1010 F   0  0  0  0  0  0  0  0  0  0  0  0
  2  1  1  0  0  0  0
  2  3  1  0  0  0  0
  3 25  1  0  0  0  0
  4  3  2  0  0  0  0
  4  8  1  0  0  0  0
  5  4  1  0  0  0  0
  6  7  1  0  0  0  0
  6  5  2  0  0  0  0
  7  2  2  0  0  0  0
  9  5  1  0  0  0  0
 10  6  1  0  0  0  0
 12 11  1  0  0  0  0
 12 13  1  0  0  0  0
 13  7  1  0  0  0  0
 14 13  2  0  0  0  0
 14 15  1  0  0  0  0
 16 14  1  0  0  0  0
 17 19  1  0  0  0  0
 17 16  2  0  0  0  0
 18 17  1  0  0  0  0
 19 12  2  0  0  0  0
 20 19  1  0  0  0  0
 21 22  1  0  0  0  0
 21 27  1  0  0  0  0
 22 28  1  0  0  0  0
 23 29  1  0  0  0  0
 23 22  2  0  0  0  0
 24 23  1  0  0  0  0
 25 24  2  0  0  0  0
 25 26  1  0  0  0  0
 26 21  2  0  0  0  0
 29 32  1  0  0  0  0
 30 29  1  0  0  0  0
 31 29  1  0  0  0  0
M  END
>  <minimizedAffinity>
-5.48086262

>  <minimizedRMSD>
1.60572231

$$$$
