
 OpenBabel03242523433D

 25 26  0  0  1  0  0  0  0  0999 V2000
   35.9650   29.0000   41.0970 C   0  0  1  0  0  0  0  0  0  0  0  0
   35.3580   29.0960   42.0190 H   0  0  0  0  0  0  0  0  0  0  0  0
   36.4600   27.3760   43.6770 Cl  0  0  0  0  0  0  0  0  0  0  0  0
   36.8430   26.8340   42.0780 C   0  0  0  0  0  0  0  0  0  0  0  0
   36.5730   27.6500   41.0070 C   0  0  0  0  0  0  0  0  0  0  0  0
   36.9330   27.0800   39.7860 C   0  0  0  0  0  0  0  0  0  0  0  0
   36.7670   27.6340   38.8620 H   0  0  0  0  0  0  0  0  0  0  0  0
   37.4960   25.8530   39.6020 C   0  0  0  0  0  3  0  0  0  0  0  0
   37.7400   25.0830   40.7340 C   0  0  0  0  0  0  0  0  0  0  0  0
   38.4590   23.5010   40.5650 Cl  0  0  0  0  0  0  0  0  0  0  0  0
   37.4090   25.5830   41.9750 C   0  0  0  0  0  0  0  0  0  0  0  0
   37.6100   24.9630   42.8450 H   0  0  0  0  0  0  0  0  0  0  0  0
   36.5600   31.2850   40.3770 C   0  0  0  0  0  0  0  0  0  0  0  0
   36.8990   30.1140   41.0500 C   0  0  0  0  0  0  0  0  0  0  0  0
   38.1730   30.0710   41.6740 C   0  0  0  0  0  0  0  0  0  0  0  0
   38.9720   31.1630   41.5760 N   0  0  0  0  0  0  0  0  0  0  0  0
   38.5790   32.2650   40.9070 C   0  0  0  0  0  0  0  0  0  0  0  0
   37.3840   32.3370   40.3090 N   0  0  0  0  0  0  0  0  0  0  0  0
   35.6220   31.4370   39.8610 H   0  0  0  0  0  0  0  0  0  0  0  0
   38.4790   29.1820   42.2100 H   0  0  0  0  0  0  0  0  0  0  0  0
   39.2920   33.0680   40.8940 H   0  0  0  0  0  0  0  0  0  0  0  0
   35.0210   29.1380   39.9180 C   0  0  0  0  0  0  0  0  0  0  0  0
   34.3600   30.0440   40.0440 H   0  0  0  0  0  0  0  0  0  0  0  0
   35.5560   29.2140   38.9520 H   0  0  0  0  0  0  0  0  0  0  0  0
   34.3050   28.2840   39.9520 H   0  0  0  0  0  0  0  0  0  0  0  0
  1  2  1  1  0  0  0
  4  3  1  0  0  0  0
  5  1  1  0  0  0  0
  5  4  2  0  0  0  0
  6  5  1  0  0  0  0
  7  6  1  0  0  0  0
  8  6  2  0  0  0  0
  8  9  1  0  0  0  0
  9 11  2  0  0  0  0
 10  9  1  0  0  0  0
 11  4  1  0  0  0  0
 11 12  1  0  0  0  0
 13 14  1  0  0  0  0
 14  1  1  0  0  0  0
 14 15  2  0  0  0  0
 15 20  1  0  0  0  0
 16 15  1  0  0  0  0
 17 16  2  0  0  0  0
 18 13  2  0  0  0  0
 18 17  1  0  0  0  0
 19 13  1  0  0  0  0
 21 17  1  0  0  0  0
 22 25  1  0  0  0  0
 22 23  1  0  0  0  0
 22  1  1  0  0  0  0
 24 22  1  0  0  0  0
M  END
>  <minimizedAffinity>
-4.8299222

$$$$

 OpenBabel03242523433D

 25 26  0  0  1  0  0  0  0  0999 V2000
   37.8300   27.4130   43.3020 C   0  0  1  0  0  0  0  0  0  0  0  0
   38.4120   27.3670   44.2450 H   0  0  0  0  0  0  0  0  0  0  0  0
   40.3300   25.6370   43.6800 Cl  0  0  0  0  0  0  0  0  0  0  0  0
   39.0010   25.2660   42.6340 C   0  0  0  0  0  0  0  0  0  0  0  0
   37.9430   26.1380   42.5530 C   0  0  0  0  0  0  0  0  0  0  0  0
   36.9500   25.7060   41.6730 C   0  0  0  0  0  0  0  0  0  0  0  0
   36.0580   26.3160   41.5250 H   0  0  0  0  0  0  0  0  0  0  0  0
   36.9630   24.5560   40.9430 C   0  0  0  0  0  3  0  0  0  0  0  0
   38.0670   23.7230   41.0770 C   0  0  0  0  0  0  0  0  0  0  0  0
   38.1430   22.2340   40.1670 Cl  0  0  0  0  0  0  0  0  0  0  0  0
   39.0880   24.0870   41.9290 C   0  0  0  0  0  0  0  0  0  0  0  0
   39.9410   23.4190   42.0170 H   0  0  0  0  0  0  0  0  0  0  0  0
   37.2980   29.3430   41.8580 C   0  0  0  0  0  0  0  0  0  0  0  0
   38.2370   28.6060   42.5770 C   0  0  0  0  0  0  0  0  0  0  0  0
   39.5770   29.0740   42.5630 C   0  0  0  0  0  0  0  0  0  0  0  0
   39.8560   30.1990   41.8580 N   0  0  0  0  0  0  0  0  0  0  0  0
   38.8960   30.8640   41.1840 C   0  0  0  0  0  0  0  0  0  0  0  0
   37.6240   30.4480   41.1780 N   0  0  0  0  0  0  0  0  0  0  0  0
   36.2500   29.0870   41.7900 H   0  0  0  0  0  0  0  0  0  0  0  0
   40.3400   28.5340   43.1080 H   0  0  0  0  0  0  0  0  0  0  0  0
   39.2310   31.7400   40.6620 H   0  0  0  0  0  0  0  0  0  0  0  0
   36.3710   27.5750   43.6800 C   0  0  0  0  0  0  0  0  0  0  0  0
   36.2480   28.4020   44.4380 H   0  0  0  0  0  0  0  0  0  0  0  0
   35.7270   27.7900   42.8050 H   0  0  0  0  0  0  0  0  0  0  0  0
   36.0570   26.6610   44.2350 H   0  0  0  0  0  0  0  0  0  0  0  0
  1 22  1  0  0  0  0
  1  2  1  1  0  0  0
  4  3  1  0  0  0  0
  5  4  1  0  0  0  0
  5  1  1  0  0  0  0
  6  5  2  0  0  0  0
  7  6  1  0  0  0  0
  8  9  2  0  0  0  0
  8  6  1  0  0  0  0
  9 11  1  0  0  0  0
 10  9  1  0  0  0  0
 11 12  1  0  0  0  0
 11  4  2  0  0  0  0
 13 14  1  0  0  0  0
 14  1  1  0  0  0  0
 15 14  2  0  0  0  0
 15 20  1  0  0  0  0
 16 15  1  0  0  0  0
 17 16  2  0  0  0  0
 18 17  1  0  0  0  0
 18 13  2  0  0  0  0
 19 13  1  0  0  0  0
 21 17  1  0  0  0  0
 22 25  1  0  0  0  0
 22 23  1  0  0  0  0
 24 22  1  0  0  0  0
M  END
>  <minimizedAffinity>
-4.79099083

$$$$

 OpenBabel03242523433D

 25 26  0  0  1  0  0  0  0  0999 V2000
   36.6080   27.7820   42.1800 C   0  0  1  0  0  0  0  0  0  0  0  0
   35.5240   27.6130   42.0180 H   0  0  0  0  0  0  0  0  0  0  0  0
   39.4580   28.8230   42.7580 Cl  0  0  0  0  0  0  0  0  0  0  0  0
   38.2410   29.6990   41.8920 C   0  0  0  0  0  0  0  0  0  0  0  0
   37.0080   29.1260   41.6990 C   0  0  0  0  0  0  0  0  0  0  0  0
   36.1340   29.9470   40.9860 C   0  0  0  0  0  0  0  0  0  0  0  0
   35.1230   29.6000   40.7690 H   0  0  0  0  0  0  0  0  0  0  0  0
   36.4080   31.1930   40.5050 C   0  0  0  0  0  3  0  0  0  0  0  0
   37.6780   31.7070   40.7400 C   0  0  0  0  0  0  0  0  0  0  0  0
   38.0890   33.2970   40.1490 Cl  0  0  0  0  0  0  0  0  0  0  0  0
   38.5940   30.9500   41.4390 C   0  0  0  0  0  0  0  0  0  0  0  0
   39.5800   31.3740   41.6110 H   0  0  0  0  0  0  0  0  0  0  0  0
   37.4300   26.5380   40.2120 C   0  0  0  0  0  0  0  0  0  0  0  0
   37.3320   26.6640   41.5960 C   0  0  0  0  0  0  0  0  0  0  0  0
   37.9640   25.6660   42.3840 C   0  0  0  0  0  0  0  0  0  0  0  0
   38.6170   24.6630   41.7450 N   0  0  0  0  0  0  0  0  0  0  0  0
   38.6720   24.6040   40.4000 C   0  0  0  0  0  0  0  0  0  0  0  0
   38.0870   25.5290   39.6300 N   0  0  0  0  0  0  0  0  0  0  0  0
   36.9900   27.2310   39.5090 H   0  0  0  0  0  0  0  0  0  0  0  0
   37.9150   25.7230   43.4630 H   0  0  0  0  0  0  0  0  0  0  0  0
   39.2150   23.7670   40.0030 H   0  0  0  0  0  0  0  0  0  0  0  0
   36.8500   27.7590   43.6760 C   0  0  0  0  0  0  0  0  0  0  0  0
   36.3630   26.8540   44.1430 H   0  0  0  0  0  0  0  0  0  0  0  0
   37.9270   27.7600   43.9330 H   0  0  0  0  0  0  0  0  0  0  0  0
   36.2960   28.6160   44.1260 H   0  0  0  0  0  0  0  0  0  0  0  0
  1  2  1  6  0  0  0
  1 22  1  0  0  0  0
  4  3  1  0  0  0  0
  5  4  1  0  0  0  0
  5  1  1  0  0  0  0
  6  5  2  0  0  0  0
  7  6  1  0  0  0  0
  8  9  2  0  0  0  0
  8  6  1  0  0  0  0
  9 11  1  0  0  0  0
 10  9  1  0  0  0  0
 11 12  1  0  0  0  0
 11  4  2  0  0  0  0
 13 14  1  0  0  0  0
 14  1  1  0  0  0  0
 14 15  2  0  0  0  0
 15 20  1  0  0  0  0
 16 15  1  0  0  0  0
 17 16  2  0  0  0  0
 18 13  2  0  0  0  0
 18 17  1  0  0  0  0
 19 13  1  0  0  0  0
 21 17  1  0  0  0  0
 22 24  1  0  0  0  0
 22 25  1  0  0  0  0
 22 23  1  0  0  0  0
M  END
>  <minimizedAffinity>
-4.73197603

$$$$

 OpenBabel03242523433D

 25 26  0  0  1  0  0  0  0  0999 V2000
   36.9250   27.0400   42.3190 C   0  0  1  0  0  0  0  0  0  0  0  0
   36.1810   26.2920   41.9760 H   0  0  0  0  0  0  0  0  0  0  0  0
   36.3030   26.6670   39.3160 Cl  0  0  0  0  0  0  0  0  0  0  0  0
   36.6830   28.1800   40.0680 C   0  0  0  0  0  0  0  0  0  0  0  0
   36.9410   28.2160   41.4170 C   0  0  0  0  0  0  0  0  0  0  0  0
   37.2300   29.5000   41.8790 C   0  0  0  0  0  0  0  0  0  0  0  0
   37.4520   29.6560   42.9360 H   0  0  0  0  0  0  0  0  0  0  0  0
   37.2710   30.6380   41.1310 C   0  0  0  0  0  3  0  0  0  0  0  0
   37.0000   30.5230   39.7720 C   0  0  0  0  0  0  0  0  0  0  0  0
   37.0350   31.9450   38.7600 Cl  0  0  0  0  0  0  0  0  0  0  0  0
   36.7050   29.2830   39.2460 C   0  0  0  0  0  0  0  0  0  0  0  0
   36.4970   29.2190   38.1800 H   0  0  0  0  0  0  0  0  0  0  0  0
   39.0900   26.7890   43.4780 C   0  0  0  0  0  0  0  0  0  0  0  0
   38.2000   26.3630   42.4940 C   0  0  0  0  0  0  0  0  0  0  0  0
   38.5970   25.2600   41.6940 C   0  0  0  0  0  0  0  0  0  0  0  0
   39.8070   24.6950   41.9360 N   0  0  0  0  0  0  0  0  0  0  0  0
   40.6190   25.1600   42.9060 C   0  0  0  0  0  0  0  0  0  0  0  0
   40.2730   26.1970   43.6770 N   0  0  0  0  0  0  0  0  0  0  0  0
   38.9030   27.6180   44.1460 H   0  0  0  0  0  0  0  0  0  0  0  0
   37.9380   24.8940   40.9180 H   0  0  0  0  0  0  0  0  0  0  0  0
   41.5510   24.6360   43.0080 H   0  0  0  0  0  0  0  0  0  0  0  0
   36.4720   27.5330   43.6790 C   0  0  0  0  0  0  0  0  0  0  0  0
   36.2220   26.6640   44.3540 H   0  0  0  0  0  0  0  0  0  0  0  0
   37.2330   28.1660   44.1760 H   0  0  0  0  0  0  0  0  0  0  0  0
   35.4950   28.0530   43.5480 H   0  0  0  0  0  0  0  0  0  0  0  0
  1  2  1  6  0  0  0
  1 14  1  0  0  0  0
  1 22  1  0  0  0  0
  3  4  1  0  0  0  0
  4  5  1  0  0  0  0
  5  6  2  0  0  0  0
  5  1  1  0  0  0  0
  6  7  1  0  0  0  0
  8  6  1  0  0  0  0
  9  8  2  0  0  0  0
 10  9  1  0  0  0  0
 11  9  1  0  0  0  0
 11  4  2  0  0  0  0
 12 11  1  0  0  0  0
 13 18  1  0  0  0  0
 13 19  1  0  0  0  0
 14 13  2  0  0  0  0
 15 16  2  0  0  0  0
 15 14  1  0  0  0  0
 16 17  1  0  0  0  0
 17 21  1  0  0  0  0
 17 18  2  0  0  0  0
 20 15  1  0  0  0  0
 22 24  1  0  0  0  0
 22 23  1  0  0  0  0
 25 22  1  0  0  0  0
M  END
>  <minimizedAffinity>
-4.66688919

$$$$

 OpenBabel03242523433D

 25 26  0  0  1  0  0  0  0  0999 V2000
   36.1150   29.3680   40.6310 C   0  0  1  0  0  0  0  0  0  0  0  0
   35.9720   29.9190   41.5830 H   0  0  0  0  0  0  0  0  0  0  0  0
   37.2410   28.6140   43.4070 Cl  0  0  0  0  0  0  0  0  0  0  0  0
   37.0640   27.5170   42.0790 C   0  0  0  0  0  0  0  0  0  0  0  0
   36.5480   27.9740   40.8910 C   0  0  0  0  0  0  0  0  0  0  0  0
   36.4650   26.9790   39.9170 C   0  0  0  0  0  0  0  0  0  0  0  0
   36.0690   27.2220   38.9300 H   0  0  0  0  0  0  0  0  0  0  0  0
   36.8360   25.6760   40.0600 C   0  0  0  0  0  3  0  0  0  0  0  0
   37.3510   25.2860   41.2920 C   0  0  0  0  0  0  0  0  0  0  0  0
   37.8440   23.6300   41.5380 Cl  0  0  0  0  0  0  0  0  0  0  0  0
   37.4620   26.2180   42.3020 C   0  0  0  0  0  0  0  0  0  0  0  0
   37.8680   25.8890   43.2560 H   0  0  0  0  0  0  0  0  0  0  0  0
   36.6110   30.4870   38.4870 C   0  0  0  0  0  0  0  0  0  0  0  0
   36.9980   30.1530   39.7820 C   0  0  0  0  0  0  0  0  0  0  0  0
   38.2700   30.6110   40.2170 C   0  0  0  0  0  0  0  0  0  0  0  0
   39.0200   31.3380   39.3520 N   0  0  0  0  0  0  0  0  0  0  0  0
   38.5810   31.6240   38.1090 C   0  0  0  0  0  0  0  0  0  0  0  0
   37.3880   31.2080   37.6700 N   0  0  0  0  0  0  0  0  0  0  0  0
   35.6700   30.1940   38.0420 H   0  0  0  0  0  0  0  0  0  0  0  0
   38.6120   30.3760   41.2160 H   0  0  0  0  0  0  0  0  0  0  0  0
   39.2570   32.2060   37.5120 H   0  0  0  0  0  0  0  0  0  0  0  0
   34.7650   29.2900   39.9470 C   0  0  0  0  0  0  0  0  0  0  0  0
   34.2750   30.3070   39.9200 H   0  0  0  0  0  0  0  0  0  0  0  0
   34.8340   28.8970   38.9140 H   0  0  0  0  0  0  0  0  0  0  0  0
   34.0860   28.6890   40.5950 H   0  0  0  0  0  0  0  0  0  0  0  0
  1  5  1  0  0  0  0
  1  2  1  1  0  0  0
  4 11  1  0  0  0  0
  4  3  1  0  0  0  0
  5  4  2  0  0  0  0
  6  8  2  0  0  0  0
  6  5  1  0  0  0  0
  7  6  1  0  0  0  0
  8  9  1  0  0  0  0
  9 10  1  0  0  0  0
  9 11  2  0  0  0  0
 11 12  1  0  0  0  0
 13 14  1  0  0  0  0
 14 15  2  0  0  0  0
 14  1  1  0  0  0  0
 15 20  1  0  0  0  0
 16 15  1  0  0  0  0
 17 16  2  0  0  0  0
 18 17  1  0  0  0  0
 18 13  2  0  0  0  0
 19 13  1  0  0  0  0
 21 17  1  0  0  0  0
 22 25  1  0  0  0  0
 22  1  1  0  0  0  0
 23 22  1  0  0  0  0
 24 22  1  0  0  0  0
M  END
>  <minimizedAffinity>
-4.61295176

$$$$

 OpenBabel03242523433D

 25 26  0  0  1  0  0  0  0  0999 V2000
   35.8240   29.5530   40.8120 C   0  0  1  0  0  0  0  0  0  0  0  0
   35.3720   30.0300   41.7050 H   0  0  0  0  0  0  0  0  0  0  0  0
   36.7070   27.6440   38.5480 Cl  0  0  0  0  0  0  0  0  0  0  0  0
   36.7990   27.2840   40.2390 C   0  0  0  0  0  0  0  0  0  0  0  0
   36.3740   28.2180   41.1520 C   0  0  0  0  0  0  0  0  0  0  0  0
   36.5100   27.7880   42.4720 C   0  0  0  0  0  0  0  0  0  0  0  0
   36.2060   28.4450   43.2870 H   0  0  0  0  0  0  0  0  0  0  0  0
   37.0010   26.5860   42.8830 C   0  0  0  0  0  3  0  0  0  0  0  0
   37.4110   25.6900   41.9020 C   0  0  0  0  0  0  0  0  0  0  0  0
   38.0500   24.1330   42.3650 Cl  0  0  0  0  0  0  0  0  0  0  0  0
   37.3060   26.0490   40.5750 C   0  0  0  0  0  0  0  0  0  0  0  0
   37.6330   25.3310   39.8260 H   0  0  0  0  0  0  0  0  0  0  0  0
   37.9330   30.8320   40.9060 C   0  0  0  0  0  0  0  0  0  0  0  0
   36.7670   30.4910   40.2250 C   0  0  0  0  0  0  0  0  0  0  0  0
   36.5580   31.0930   38.9560 C   0  0  0  0  0  0  0  0  0  0  0  0
   37.4980   31.9550   38.4930 N   0  0  0  0  0  0  0  0  0  0  0  0
   38.6050   32.2400   39.2080 C   0  0  0  0  0  0  0  0  0  0  0  0
   38.8310   31.6880   40.4060 N   0  0  0  0  0  0  0  0  0  0  0  0
   38.2010   30.4420   41.8780 H   0  0  0  0  0  0  0  0  0  0  0  0
   35.6670   30.8580   38.3900 H   0  0  0  0  0  0  0  0  0  0  0  0
   39.2800   32.9350   38.7440 H   0  0  0  0  0  0  0  0  0  0  0  0
   34.7100   29.3270   39.8080 C   0  0  0  0  0  0  0  0  0  0  0  0
   34.1010   30.2680   39.6740 H   0  0  0  0  0  0  0  0  0  0  0  0
   35.0870   29.0000   38.8200 H   0  0  0  0  0  0  0  0  0  0  0  0
   33.9850   28.6080   40.2560 H   0  0  0  0  0  0  0  0  0  0  0  0
  1  5  1  0  0  0  0
  1  2  1  1  0  0  0
  3  4  1  0  0  0  0
  4 11  2  0  0  0  0
  4  5  1  0  0  0  0
  5  6  2  0  0  0  0
  6  8  1  0  0  0  0
  6  7  1  0  0  0  0
  9 10  1  0  0  0  0
  9  8  2  0  0  0  0
 11  9  1  0  0  0  0
 12 11  1  0  0  0  0
 13 19  1  0  0  0  0
 14  1  1  0  0  0  0
 14 13  2  0  0  0  0
 15 14  1  0  0  0  0
 16 15  2  0  0  0  0
 16 17  1  0  0  0  0
 17 18  2  0  0  0  0
 18 13  1  0  0  0  0
 20 15  1  0  0  0  0
 21 17  1  0  0  0  0
 22 25  1  0  0  0  0
 22  1  1  0  0  0  0
 23 22  1  0  0  0  0
 24 22  1  0  0  0  0
M  END
>  <minimizedAffinity>
-4.61073732

$$$$

 OpenBabel03242523433D

 25 26  0  0  1  0  0  0  0  0999 V2000
   37.4750   27.0340   42.4980 C   0  0  1  0  0  0  0  0  0  0  0  0
   37.3700   25.9400   42.6490 H   0  0  0  0  0  0  0  0  0  0  0  0
   37.6280   25.3150   39.9350 Cl  0  0  0  0  0  0  0  0  0  0  0  0
   36.7370   26.7920   40.0850 C   0  0  0  0  0  0  0  0  0  0  0  0
   36.7460   27.4670   41.2810 C   0  0  0  0  0  0  0  0  0  0  0  0
   35.9860   28.6360   41.2500 C   0  0  0  0  0  0  0  0  0  0  0  0
   35.9160   29.2580   42.1430 H   0  0  0  0  0  0  0  0  0  0  0  0
   35.2850   29.1160   40.1850 C   0  0  0  0  0  3  0  0  0  0  0  0
   35.3230   28.3790   39.0070 C   0  0  0  0  0  0  0  0  0  0  0  0
   34.4450   28.9400   37.6060 Cl  0  0  0  0  0  0  0  0  0  0  0  0
   36.0550   27.2110   38.9640 C   0  0  0  0  0  0  0  0  0  0  0  0
   36.0710   26.6530   38.0320 H   0  0  0  0  0  0  0  0  0  0  0  0
   39.3010   28.6930   42.5810 C   0  0  0  0  0  0  0  0  0  0  0  0
   38.8910   27.3620   42.5330 C   0  0  0  0  0  0  0  0  0  0  0  0
   39.9070   26.3710   42.5240 C   0  0  0  0  0  0  0  0  0  0  0  0
   41.2010   26.7780   42.5610 N   0  0  0  0  0  0  0  0  0  0  0  0
   41.5260   28.0860   42.6060 C   0  0  0  0  0  0  0  0  0  0  0  0
   40.5920   29.0440   42.6170 N   0  0  0  0  0  0  0  0  0  0  0  0
   38.6240   29.5350   42.5890 H   0  0  0  0  0  0  0  0  0  0  0  0
   39.6360   25.3240   42.4880 H   0  0  0  0  0  0  0  0  0  0  0  0
   42.5790   28.2910   42.6330 H   0  0  0  0  0  0  0  0  0  0  0  0
   36.8110   27.7190   43.6760 C   0  0  0  0  0  0  0  0  0  0  0  0
   37.1650   27.2660   44.6480 H   0  0  0  0  0  0  0  0  0  0  0  0
   37.0020   28.8090   43.6970 H   0  0  0  0  0  0  0  0  0  0  0  0
   35.7250   27.4690   43.6510 H   0  0  0  0  0  0  0  0  0  0  0  0
  1 14  1  0  0  0  0
  1  2  1  1  0  0  0
  1 22  1  0  0  0  0
  3  4  1  0  0  0  0
  4  5  1  0  0  0  0
  5  1  1  0  0  0  0
  6  5  2  0  0  0  0
  6  7  1  0  0  0  0
  8  6  1  0  0  0  0
  9  8  2  0  0  0  0
 10  9  1  0  0  0  0
 11  9  1  0  0  0  0
 11  4  2  0  0  0  0
 12 11  1  0  0  0  0
 13 19  1  0  0  0  0
 13 18  1  0  0  0  0
 14 13  2  0  0  0  0
 15 14  1  0  0  0  0
 15 16  2  0  0  0  0
 16 17  1  0  0  0  0
 17 18  2  0  0  0  0
 17 21  1  0  0  0  0
 20 15  1  0  0  0  0
 22 24  1  0  0  0  0
 22 23  1  0  0  0  0
 25 22  1  0  0  0  0
M  END
>  <minimizedAffinity>
-4.41309357

$$$$

 OpenBabel03242523433D

 25 26  0  0  1  0  0  0  0  0999 V2000
   35.8390   29.4710   40.6050 C   0  0  1  0  0  0  0  0  0  0  0  0
   34.7790   29.2960   40.8770 H   0  0  0  0  0  0  0  0  0  0  0  0
   38.5730   30.2230   39.3780 Cl  0  0  0  0  0  0  0  0  0  0  0  0
   37.1760   29.7520   38.4700 C   0  0  0  0  0  0  0  0  0  0  0  0
   36.0150   29.4400   39.1330 C   0  0  0  0  0  0  0  0  0  0  0  0
   34.9780   29.0790   38.2710 C   0  0  0  0  0  0  0  0  0  0  0  0
   34.0050   28.8090   38.6820 H   0  0  0  0  0  0  0  0  0  0  0  0
   35.0420   29.0220   36.9110 C   0  0  0  0  0  3  0  0  0  0  0  0
   36.2510   29.3530   36.3100 C   0  0  0  0  0  0  0  0  0  0  0  0
   36.3960   29.2980   34.5710 Cl  0  0  0  0  0  0  0  0  0  0  0  0
   37.3200   29.7190   37.1010 C   0  0  0  0  0  0  0  0  0  0  0  0
   38.2550   29.9730   36.6080 H   0  0  0  0  0  0  0  0  0  0  0  0
   37.3260   28.9530   42.5060 C   0  0  0  0  0  0  0  0  0  0  0  0
   36.6600   28.5350   41.3560 C   0  0  0  0  0  0  0  0  0  0  0  0
   36.8230   27.1790   40.9690 C   0  0  0  0  0  0  0  0  0  0  0  0
   37.6090   26.3830   41.7380 N   0  0  0  0  0  0  0  0  0  0  0  0
   38.2250   26.8550   42.8400 C   0  0  0  0  0  0  0  0  0  0  0  0
   38.0910   28.1280   43.2300 N   0  0  0  0  0  0  0  0  0  0  0  0
   37.2830   29.9590   42.8980 H   0  0  0  0  0  0  0  0  0  0  0  0
   36.3240   26.8090   40.0840 H   0  0  0  0  0  0  0  0  0  0  0  0
   38.8210   26.1370   43.3700 H   0  0  0  0  0  0  0  0  0  0  0  0
   36.1970   30.8720   41.0620 C   0  0  0  0  0  0  0  0  0  0  0  0
   35.8750   31.0340   42.1320 H   0  0  0  0  0  0  0  0  0  0  0  0
   37.2810   31.0820   40.9770 H   0  0  0  0  0  0  0  0  0  0  0  0
   35.5690   31.5910   40.4870 H   0  0  0  0  0  0  0  0  0  0  0  0
  1  2  1  1  0  0  0
  1 22  1  0  0  0  0
  1 14  1  0  0  0  0
  4  5  1  0  0  0  0
  4  3  1  0  0  0  0
  5  1  1  0  0  0  0
  6  7  1  0  0  0  0
  6  5  2  0  0  0  0
  8  6  1  0  0  0  0
  9  8  2  0  0  0  0
  9 11  1  0  0  0  0
 10  9  1  0  0  0  0
 11  4  2  0  0  0  0
 12 11  1  0  0  0  0
 13 19  1  0  0  0  0
 13 18  1  0  0  0  0
 14 13  2  0  0  0  0
 15 14  1  0  0  0  0
 15 16  2  0  0  0  0
 16 17  1  0  0  0  0
 17 18  2  0  0  0  0
 17 21  1  0  0  0  0
 20 15  1  0  0  0  0
 22 23  1  0  0  0  0
 24 22  1  0  0  0  0
 25 22  1  0  0  0  0
M  END
>  <minimizedAffinity>
-4.39952374

$$$$

 OpenBabel03242523433D

 25 26  0  0  1  0  0  0  0  0999 V2000
   38.3720   25.2650   42.5550 C   0  0  1  0  0  0  0  0  0  0  0  0
   37.5270   25.0310   43.2340 H   0  0  0  0  0  0  0  0  0  0  0  0
   36.3150   27.2770   43.6800 Cl  0  0  0  0  0  0  0  0  0  0  0  0
   37.8940   27.6930   43.1030 C   0  0  0  0  0  0  0  0  0  0  0  0
   38.7190   26.7050   42.6260 C   0  0  0  0  0  0  0  0  0  0  0  0
   39.9560   27.1900   42.1990 C   0  0  0  0  0  0  0  0  0  0  0  0
   40.6980   26.4980   41.7990 H   0  0  0  0  0  0  0  0  0  0  0  0
   40.3650   28.4890   42.2220 C   0  0  0  0  0  3  0  0  0  0  0  0
   39.4740   29.4340   42.7190 C   0  0  0  0  0  0  0  0  0  0  0  0
   39.9410   31.1150   42.7760 Cl  0  0  0  0  0  0  0  0  0  0  0  0
   38.2340   29.0260   43.1600 C   0  0  0  0  0  0  0  0  0  0  0  0
   37.5540   29.7830   43.5430 H   0  0  0  0  0  0  0  0  0  0  0  0
   36.8940   25.2070   40.5790 C   0  0  0  0  0  0  0  0  0  0  0  0
   38.0420   24.7620   41.2310 C   0  0  0  0  0  0  0  0  0  0  0  0
   38.8500   23.8160   40.5480 C   0  0  0  0  0  0  0  0  0  0  0  0
   38.4580   23.4100   39.3140 N   0  0  0  0  0  0  0  0  0  0  0  0
   37.3330   23.8830   38.7420 C   0  0  0  0  0  0  0  0  0  0  0  0
   36.5500   24.7750   39.3600 N   0  0  0  0  0  0  0  0  0  0  0  0
   36.1990   25.9220   40.9960 H   0  0  0  0  0  0  0  0  0  0  0  0
   39.7520   23.4430   41.0150 H   0  0  0  0  0  0  0  0  0  0  0  0
   37.1210   23.4920   37.7650 H   0  0  0  0  0  0  0  0  0  0  0  0
   39.5780   24.4950   43.0550 C   0  0  0  0  0  0  0  0  0  0  0  0
   39.3100   23.4140   43.2400 H   0  0  0  0  0  0  0  0  0  0  0  0
   40.4320   24.5380   42.3510 H   0  0  0  0  0  0  0  0  0  0  0  0
   39.8340   24.8790   44.0700 H   0  0  0  0  0  0  0  0  0  0  0  0
  1  5  1  0  0  0  0
  1 22  1  0  0  0  0
  1  2  1  1  0  0  0
  4 11  1  0  0  0  0
  4  3  1  0  0  0  0
  5  4  2  0  0  0  0
  6  8  2  0  0  0  0
  6  5  1  0  0  0  0
  7  6  1  0  0  0  0
  8  9  1  0  0  0  0
  9 10  1  0  0  0  0
  9 11  2  0  0  0  0
 11 12  1  0  0  0  0
 13 19  1  0  0  0  0
 13 14  1  0  0  0  0
 14  1  1  0  0  0  0
 15 20  1  0  0  0  0
 15 14  2  0  0  0  0
 16 15  1  0  0  0  0
 17 16  2  0  0  0  0
 17 18  1  0  0  0  0
 18 13  2  0  0  0  0
 21 17  1  0  0  0  0
 22 23  1  0  0  0  0
 22 25  1  0  0  0  0
 24 22  1  0  0  0  0
M  END
>  <minimizedAffinity>
-4.39135695

$$$$
