
 OpenBabel03252500513D

 36 38  0  0  0  0  0  0  0  0999 V2000
   45.0760   34.8960   42.1430 C   0  0  0  0  0  0  0  0  0  0  0  0
   45.8970   34.7560   41.2150 O   0  0  0  0  0  0  0  0  0  0  0  0
   44.9930   34.8770   44.5940 C   0  0  0  0  0  0  0  0  0  0  0  0
   45.3560   34.2570   43.4230 C   0  0  0  0  0  0  0  0  0  0  0  0
   45.9950   33.0040   43.4400 C   0  0  0  0  0  0  0  0  0  0  0  0
   46.2430   32.4260   44.6600 N   0  0  0  0  0  0  0  0  0  0  0  0
   45.8780   33.0540   45.7920 C   0  0  0  0  0  0  0  0  0  0  0  0
   45.2630   34.2590   45.7540 N   0  0  0  0  0  0  0  0  0  0  0  0
   44.5090   35.8250   44.5960 H   0  0  0  0  0  0  0  0  0  0  0  0
   46.2820   32.5140   42.5210 H   0  0  0  0  0  0  0  0  0  0  0  0
   46.1420   32.4340   47.0800 C   0  0  0  0  0  0  0  0  0  0  0  0
   47.3880   32.1220   47.5090 C   0  0  0  0  0  0  0  0  0  0  0  0
   47.6590   31.5410   48.7120 C   0  0  0  0  0  0  0  0  0  0  0  0
   46.5880   31.2720   49.5080 N   0  0  0  0  0  0  0  0  0  0  0  0
   45.3640   31.5770   49.0930 C   0  0  0  0  0  0  0  0  0  0  0  0
   45.0850   32.1490   47.9090 N   0  0  0  0  0  0  0  0  0  0  0  0
   48.1860   32.3730   46.8060 H   0  0  0  0  0  0  0  0  0  0  0  0
   48.6880   31.3210   48.9850 H   0  0  0  0  0  0  0  0  0  0  0  0
   44.4690   31.3860   49.6860 H   0  0  0  0  0  0  0  0  0  0  0  0
   44.0380   35.6700   41.6990 O   0  0  0  0  0  0  0  0  0  0  0  0
   43.1880   35.2880   40.6840 C   0  0  0  0  0  0  0  0  0  0  0  0
   43.2880   34.2960   40.2510 H   0  0  0  0  0  0  0  0  0  0  0  0
   43.4410   35.9780   39.8200 H   0  0  0  0  0  0  0  0  0  0  0  0
   41.7280   35.6220   40.9630 C   0  0  0  0  0  0  0  0  0  0  0  0
   41.4900   35.1600   41.9460 H   0  0  0  0  0  0  0  0  0  0  0  0
   41.6140   36.7250   41.1060 H   0  0  0  0  0  0  0  0  0  0  0  0
   39.7390   33.7320   42.0390 Cl  0  0  0  0  0  0  0  0  0  0  0  0
   39.8590   34.2160   40.3660 C   0  0  0  0  0  0  0  0  0  0  0  0
   40.8220   35.1130   39.9200 C   0  0  0  0  0  0  0  0  0  0  0  0
   40.8600   35.4520   38.5810 C   0  0  0  0  0  0  0  0  0  0  0  0
   41.6060   36.1400   38.2720 H   0  0  0  0  0  0  0  0  0  0  0  0
   39.9380   34.8840   37.7370 C   0  0  0  0  0  3  0  0  0  0  0  0
   38.9480   33.9780   38.1260 C   0  0  0  0  0  0  0  0  0  0  0  0
   37.8060   33.2960   36.9920 Cl  0  0  0  0  0  0  0  0  0  0  0  0
   38.9490   33.6690   39.4770 C   0  0  0  0  0  0  0  0  0  0  0  0
   38.1920   32.9600   39.8420 H   0  0  0  0  0  0  0  0  0  0  0  0
  1  4  1  0  0  0  0
  2  1  2  0  0  0  0
  3  9  1  0  0  0  0
  3  8  1  0  0  0  0
  4  5  1  0  0  0  0
  4  3  2  0  0  0  0
  5  6  2  0  0  0  0
  6  7  1  0  0  0  0
  7 11  1  0  0  0  0
  8  7  2  0  0  0  0
 10  5  1  0  0  0  0
 11 12  2  0  0  0  0
 11 16  1  0  0  0  0
 12 13  1  0  0  0  0
 13 18  1  0  0  0  0
 13 14  2  0  0  0  0
 15 14  1  0  0  0  0
 15 19  1  0  0  0  0
 16 15  2  0  0  0  0
 17 12  1  0  0  0  0
 20  1  1  0  0  0  0
 21 24  1  0  0  0  0
 21 20  1  0  0  0  0
 22 21  1  0  0  0  0
 23 21  1  0  0  0  0
 24 26  1  0  0  0  0
 24 25  1  0  0  0  0
 28 27  1  0  0  0  0
 29 28  1  0  0  0  0
 29 24  1  0  0  0  0
 30 29  2  0  0  0  0
 31 30  1  0  0  0  0
 32 33  2  0  0  0  0
 32 30  1  0  0  0  0
 33 35  1  0  0  0  0
 34 33  1  0  0  0  0
 35 36  1  0  0  0  0
 35 28  2  0  0  0  0
M  END
>  <minimizedAffinity>
-6.59238005

>  <minimizedRMSD>
1.04096663

$$$$
