
 OpenBabel03242517283D

 41 43  0  0  1  0  0  0  0  0999 V2000
   44.9980   34.6250   44.9310 C   0  0  0  0  0  0  0  0  0  0  0  0
   45.9070   34.5950   43.8490 C   0  0  0  0  0  0  0  0  0  0  0  0
   47.0200   33.7520   43.9660 C   0  0  0  0  0  0  0  0  0  0  0  0
   47.1690   33.0140   45.0950 N   0  0  0  0  0  0  0  0  0  0  0  0
   46.2860   33.0630   46.1080 C   0  0  0  0  0  0  0  0  0  0  0  0
   45.2130   33.8740   46.0020 N   0  0  0  0  0  0  0  0  0  0  0  0
   46.5090   32.2700   47.2470 N   0  0  0  0  0  0  0  0  0  0  0  0
   47.7190   32.4180   47.9920 C   0  0  0  0  0  0  0  0  0  0  0  0
   47.9740   31.2850   48.9400 C   0  0  0  0  0  0  0  0  0  0  0  0
   46.8340   30.6280   49.4830 N   0  0  0  0  0  0  0  0  0  0  0  0
   45.5940   31.2430   49.1330 C   0  0  0  0  0  0  0  0  0  0  0  0
   45.4820   31.3030   47.6430 C   0  0  2  0  0  0  0  0  0  0  0  0
   44.1020   35.2290   44.9740 H   0  0  0  0  0  0  0  0  0  0  0  0
   45.6800   35.2230   43.0100 H   0  0  0  0  0  0  0  0  0  0  0  0
   47.7030   33.7310   43.1460 H   0  0  0  0  0  0  0  0  0  0  0  0
   47.7320   33.3730   48.5710 H   0  0  0  0  0  0  0  0  0  0  0  0
   48.5970   32.4710   47.2950 H   0  0  0  0  0  0  0  0  0  0  0  0
   48.5630   30.4960   48.3920 H   0  0  0  0  0  0  0  0  0  0  0  0
   48.6410   31.6250   49.7610 H   0  0  0  0  0  0  0  0  0  0  0  0
   46.7750   29.6130   49.2640 H   0  0  0  0  0  0  0  0  0  0  0  0
   45.4380   32.2400   49.5450 H   0  0  0  0  0  0  0  0  0  0  0  0
   44.7800   30.5690   49.5000 H   0  0  0  0  0  0  0  0  0  0  0  0
   44.5070   31.7220   47.3200 H   0  0  0  0  0  0  0  0  0  0  0  0
   45.6820   29.9770   46.9930 C   0  0  0  0  0  0  0  0  0  0  0  0
   46.7070   29.6260   47.1180 H   0  0  0  0  0  0  0  0  0  0  0  0
   45.4280   30.0340   45.9160 H   0  0  0  0  0  0  0  0  0  0  0  0
   44.8020   28.9830   47.6930 C   0  0  0  0  0  0  0  0  0  0  0  0
   45.1480   27.7030   47.8080 C   0  0  0  0  0  0  0  0  0  0  0  0
   44.3160   26.6690   48.4910 C   0  0  0  0  0  0  0  0  0  0  0  0
   43.5400   27.1270   49.1420 H   0  0  0  0  0  0  0  0  0  0  0  0
   44.9880   26.1060   49.1680 H   0  0  0  0  0  0  0  0  0  0  0  0
   45.9590   24.2620   47.7270 Cl  0  0  0  0  0  0  0  0  0  0  0  0
   44.3650   24.5610   47.0840 C   0  0  0  0  0  0  0  0  0  0  0  0
   43.7330   25.7080   47.5280 C   0  0  0  0  0  0  0  0  0  0  0  0
   42.4530   25.9340   47.0010 C   0  0  0  0  0  0  0  0  0  0  0  0
   41.9550   26.8490   47.3560 H   0  0  0  0  0  0  0  0  0  0  0  0
   41.7940   25.1350   46.1070 C   0  0  0  0  0  0  0  0  0  0  0  0
   42.4800   23.9990   45.7010 C   0  0  0  0  0  0  0  0  0  0  0  0
   41.7140   22.9320   44.5690 Cl  0  0  0  0  0  0  0  0  0  0  0  0
   43.7410   23.7200   46.1820 C   0  0  0  0  0  0  0  0  0  0  0  0
   44.2900   22.8430   45.8760 H   0  0  0  0  0  0  0  0  0  0  0  0
  1 13  1  0  0  0  0
  1  6  1  0  0  0  0
  2  3  1  0  0  0  0
  2  1  2  0  0  0  0
  3  4  2  0  0  0  0
  4  5  1  0  0  0  0
  5  7  1  0  0  0  0
  6  5  2  0  0  0  0
  7 12  1  0  0  0  0
  7  8  1  0  0  0  0
  8 16  1  0  0  0  0
  8  9  1  0  0  0  0
  9 10  1  0  0  0  0
  9 19  1  0  0  0  0
 11 10  1  0  0  0  0
 11 22  1  0  0  0  0
 11 21  1  0  0  0  0
 12 23  1  6  0  0  0
 12 11  1  0  0  0  0
 14  2  1  0  0  0  0
 15  3  1  0  0  0  0
 17  8  1  0  0  0  0
 18  9  1  0  0  0  0
 20 10  1  0  0  0  0
 24 25  1  0  0  0  0
 24 12  1  0  0  0  0
 24 27  1  0  0  0  0
 26 24  1  0  0  0  0
 27 28  2  0  0  0  0
 28 29  1  0  0  0  0
 29 30  1  0  0  0  0
 29 31  1  0  0  0  0
 33 34  1  0  0  0  0
 33 32  1  0  0  0  0
 34 29  1  0  0  0  0
 35 36  1  0  0  0  0
 35 34  2  0  0  0  0
 37 35  1  0  0  0  0
 38 37  2  0  0  0  0
 38 40  1  0  0  0  0
 39 38  1  0  0  0  0
 40 33  2  0  0  0  0
 41 40  1  0  0  0  0
M  END
>  <minimizedAffinity>
-5.88666868

>  <minimizedRMSD>
0.225729883

$$$$
