
 OpenBabel03252506343D

 34 36  0  0  1  0  0  0  0  0999 V2000
   44.4670   35.9290   45.0110 C   0  0  0  0  0  0  0  0  0  0  0  0
   45.0510   35.8860   43.7370 C   0  0  0  0  0  0  0  0  0  0  0  0
   45.8810   34.8500   43.4240 C   0  0  0  0  0  0  0  0  0  0  0  0
   46.0820   33.9190   44.3900 N   0  0  0  0  0  0  0  0  0  0  0  0
   45.5280   33.9650   45.5930 C   0  0  0  0  0  0  0  0  0  0  0  0
   44.7180   34.9630   45.9200 N   0  0  0  0  0  0  0  0  0  0  0  0
   45.8210   32.9240   46.5220 N   0  0  0  0  0  0  0  0  0  0  0  0
   45.0770   32.6720   47.7420 C   0  0  0  0  0  0  0  0  0  0  0  0
   46.1930   32.2640   48.6920 C   0  0  0  0  0  0  0  0  0  0  0  0
   47.4210   32.0440   47.8700 C   0  0  0  0  0  0  0  0  0  0  0  0
   46.8750   31.9360   46.4540 C   0  0  1  0  0  0  0  0  0  0  0  0
   43.8010   36.7710   45.2470 H   0  0  0  0  0  0  0  0  0  0  0  0
   46.3260   34.8110   42.4600 H   0  0  0  0  0  0  0  0  0  0  0  0
   44.3520   31.8580   47.5780 H   0  0  0  0  0  0  0  0  0  0  0  0
   44.6360   33.5990   48.1140 H   0  0  0  0  0  0  0  0  0  0  0  0
   46.3210   32.9750   49.5290 H   0  0  0  0  0  0  0  0  0  0  0  0
   45.8800   31.2720   49.1300 H   0  0  0  0  0  0  0  0  0  0  0  0
   48.0420   31.1930   48.1710 H   0  0  0  0  0  0  0  0  0  0  0  0
   48.0440   32.9760   47.8880 H   0  0  0  0  0  0  0  0  0  0  0  0
   47.6120   32.2270   45.6970 H   0  0  0  0  0  0  0  0  0  0  0  0
   44.7240   36.9600   42.8370 N   0  0  0  0  0  0  0  0  0  0  0  0
   44.8170   37.9490   43.1320 H   0  0  0  0  0  0  0  0  0  0  0  0
   44.4020   36.6080   41.9120 H   0  0  0  0  0  0  0  0  0  0  0  0
   46.2310   30.2640   46.2290 S   0  0  0  0  0  0  0  0  0  0  0  0
   45.5110   27.7070   47.8050 Cl  0  0  0  0  0  0  0  0  0  0  0  0
   47.1820   28.0220   47.3200 C   0  0  0  0  0  0  0  0  0  0  0  0
   47.5870   29.1510   46.6070 C   0  0  0  0  0  0  0  0  0  0  0  0
   48.9170   29.3030   46.2760 C   0  0  0  0  0  0  0  0  0  0  0  0
   49.1250   30.2090   45.7270 H   0  0  0  0  0  0  0  0  0  0  0  0
   49.8200   28.3440   46.6510 C   0  0  0  0  0  0  0  0  0  0  0  0
   49.4260   27.2240   47.3560 C   0  0  0  0  0  0  0  0  0  0  0  0
   50.5920   26.0040   47.8290 Cl  0  0  0  0  0  0  0  0  0  0  0  0
   48.0860   27.0500   47.7010 C   0  0  0  0  0  0  0  0  0  0  0  0
   47.7920   26.1550   48.2610 H   0  0  0  0  0  0  0  0  0  0  0  0
  1 12  1  0  0  0  0
  1  6  1  0  0  0  0
  2  1  2  0  0  0  0
  3  2  1  0  0  0  0
  3  4  2  0  0  0  0
  4  5  1  0  0  0  0
  5  6  2  0  0  0  0
  5  7  1  0  0  0  0
  7  8  1  0  0  0  0
  8 15  1  0  0  0  0
  8  9  1  0  0  0  0
  9 17  1  0  0  0  0
  9 16  1  0  0  0  0
 10 19  1  0  0  0  0
 10 18  1  0  0  0  0
 10  9  1  0  0  0  0
 11 20  1  6  0  0  0
 11  7  1  0  0  0  0
 11 10  1  0  0  0  0
 13  3  1  0  0  0  0
 14  8  1  0  0  0  0
 21 22  1  0  0  0  0
 21  2  1  0  0  0  0
 23 21  1  0  0  0  0
 24 11  1  0  0  0  0
 24 27  1  0  0  0  0
 26 33  1  0  0  0  0
 26 25  1  0  0  0  0
 27 26  2  0  0  0  0
 28 27  1  0  0  0  0
 28 30  2  0  0  0  0
 29 28  1  0  0  0  0
 30 31  1  0  0  0  0
 31 33  2  0  0  0  0
 31 32  1  0  0  0  0
 33 34  1  0  0  0  0
M  END
>  <minimizedAffinity>
-5.40045452

>  <minimizedRMSD>
0.649013758

$$$$
