REMARK  Name = 
REMARK  6 active torsions:
REMARK  status: ('A' for Active; 'I' for Inactive)
REMARK    1  A    between atoms: C_2  and  C_13
REMARK    2  A    between atoms: C_5  and  C_7
REMARK    3  A    between atoms: C_13  and  O_15
REMARK    4  A    between atoms: O_15  and  C_16
REMARK    5  A    between atoms: C_16  and  C_17
REMARK    6  A    between atoms: C_17  and  C_29
REMARK                            x       y       z     vdW  Elec       q    Type
REMARK                         _______ _______ _______ _____ _____    ______ ____
ROOT
ATOM      1  C   UNL     1      44.623  34.927  42.068  0.00  0.00    +0.000 C 
ATOM      2  O   UNL     1      45.316  34.682  41.061  0.00  0.00    +0.000 OA
ENDROOT
BRANCH   1   4
ATOM      3  C   UNL     1      44.912  35.036  44.501  0.00  0.00    +0.000 A 
ATOM      4  C   UNL     1      44.997  34.312  43.337  0.00  0.00    +0.000 A 
ATOM      5  C   UNL     1      45.439  32.977  43.349  0.00  0.00    +0.000 A 
ATOM      6  N   UNL     1      45.781  32.425  44.559  0.00  0.00    +0.000 NA
ATOM      7  C   UNL     1      45.689  33.155  45.685  0.00  0.00    +0.000 A 
ATOM      8  N   UNL     1      45.261  34.438  45.651  0.00  0.00    +0.000 NA
ATOM      9  H   UNL     1      44.579  36.047  44.506  0.00  0.00    +0.000 HD
ATOM     10  H   UNL     1      45.507  32.405  42.435  0.00  0.00    +0.000 HD
BRANCH   7  11
ATOM     11  C   UNL     1      46.052  32.563  46.962  0.00  0.00    +0.000 A 
ATOM     12  C   UNL     1      47.327  32.257  47.300  0.00  0.00    +0.000 A 
ATOM     13  C   UNL     1      47.689  31.702  48.491  0.00  0.00    +0.000 A 
ATOM     14  N   UNL     1      46.683  31.453  49.373  0.00  0.00    +0.000 NA
ATOM     15  C   UNL     1      45.431  31.751  49.047  0.00  0.00    +0.000 A 
ATOM     16  N   UNL     1      45.061  32.298  47.876  0.00  0.00    +0.000 NA
ATOM     17  H   UNL     1      48.068  32.491  46.532  0.00  0.00    +0.000 HD
ATOM     18  H   UNL     1      48.736  31.485  48.688  0.00  0.00    +0.000 HD
ATOM     19  H   UNL     1      44.584  31.575  49.711  0.00  0.00    +0.000 HD
ENDBRANCH   7  11
ENDBRANCH   1   4
BRANCH   1  20
ATOM     20  O   UNL     1      43.608  35.772  41.709  0.00  0.00    +0.000 OA
BRANCH  20  21
ATOM     21  C   UNL     1      42.535  35.382  40.938  0.00  0.00    +0.000 C 
ATOM     22  H   UNL     1      42.619  34.492  40.320  0.00  0.00    +0.000 HD
ATOM     23  H   UNL     1      42.407  36.217  40.180  0.00  0.00    +0.000 HD
BRANCH  21  24
ATOM     24  C   UNL     1      41.211  35.407  41.691  0.00  0.00    +0.000 C 
ATOM     25  H   UNL     1      41.336  34.718  42.554  0.00  0.00    +0.000 HD
ATOM     26  H   UNL     1      41.046  36.422  42.130  0.00  0.00    +0.000 HD
BRANCH  24  29
ATOM     27 CL   UNL     1      38.804  34.825  43.288  0.00  0.00    +0.000 Cl
ATOM     28  C   UNL     1      38.908  34.698  41.550  0.00  0.00    +0.000 A 
ATOM     29  C   UNL     1      40.076  34.987  40.853  0.00  0.00    +0.000 A 
ATOM     30  C   UNL     1      40.088  34.865  39.477  0.00  0.00    +0.000 A 
ATOM     31  H   UNL     1      40.994  35.093  38.974  0.00  0.00    +0.000 HD
ATOM     32  C   UNL     1      38.938  34.459  38.847  0.00  0.00    +0.000 A 
ATOM     33  C   UNL     1      37.736  34.155  39.492  0.00  0.00    +0.000 A 
ATOM     34 CL   UNL     1      36.310  33.644  38.620  0.00  0.00    +0.000 Cl
ATOM     35  C   UNL     1      37.772  34.292  40.870  0.00  0.00    +0.000 A 
ATOM     36  H   UNL     1      36.855  34.066  41.433  0.00  0.00    +0.000 HD
ENDBRANCH  24  29
ENDBRANCH  21  24
ENDBRANCH  20  21
ENDBRANCH   1  20
TORSDOF 6
