REMARK  Name = 
REMARK  3 active torsions:
REMARK  status: ('A' for Active; 'I' for Inactive)
REMARK    1  A    between atoms: C_2  and  N_12
REMARK    2  A    between atoms: C_11  and  S_13
REMARK    3  A    between atoms: S_13  and  C_27
REMARK                            x       y       z     vdW  Elec       q    Type
REMARK                         _______ _______ _______ _____ _____    ______ ____
ROOT
ATOM      1  C   UNL     1      44.486  35.747  45.004  0.00  0.00    +0.000 A 
ATOM      2  C   UNL     1      45.119  35.714  43.753  0.00  0.00    +0.000 A 
ATOM      3  C   UNL     1      46.012  34.718  43.489  0.00  0.00    +0.000 A 
ATOM      4  N   UNL     1      46.224  33.814  44.479  0.00  0.00    +0.000 NA
ATOM      5  C   UNL     1      45.623  33.850  45.659  0.00  0.00    +0.000 A 
ATOM      6  N   UNL     1      44.751  34.810  45.938  0.00  0.00    +0.000 NA
ATOM      7  N   UNL     1      45.933  32.840  46.616  0.00  0.00    +0.000 N 
ATOM      8  C   UNL     1      45.157  32.569  47.812  0.00  0.00    +0.000 C 
ATOM      9  C   UNL     1      46.255  32.234  48.810  0.00  0.00    +0.000 C 
ATOM     10  C   UNL     1      47.523  32.065  48.038  0.00  0.00    +0.000 C 
ATOM     11  C   UNL     1      47.038  31.907  46.605  0.00  0.00    +0.000 C 
ATOM     12  H   UNL     1      43.769  36.557  45.200  0.00  0.00    +0.000 HD
ATOM     13  H   UNL     1      46.495  34.687  42.544  0.00  0.00    +0.000 HD
ATOM     14  H   UNL     1      44.481  31.716  47.636  0.00  0.00    +0.000 HD
ATOM     15  H   UNL     1      44.655  33.478  48.151  0.00  0.00    +0.000 HD
ATOM     16  H   UNL     1      46.315  32.964  49.639  0.00  0.00    +0.000 HD
ATOM     17  H   UNL     1      45.977  31.234  49.254  0.00  0.00    +0.000 HD
ATOM     18  H   UNL     1      48.175  31.252  48.377  0.00  0.00    +0.000 HD
ATOM     19  H   UNL     1      48.097  33.028  48.063  0.00  0.00    +0.000 HD
ATOM     20  H   UNL     1      47.787  32.224  45.871  0.00  0.00    +0.000 HD
ENDROOT
BRANCH   2  21
ATOM     21  N   UNL     1      44.772  36.756  42.823  0.00  0.00    +0.000 N 
ATOM     22  H   UNL     1      44.803  37.753  43.104  0.00  0.00    +0.000 HD
ATOM     23  H   UNL     1      44.504  36.373  41.893  0.00  0.00    +0.000 HD
ENDBRANCH   2  21
BRANCH  11  24
ATOM     24  S   UNL     1      46.489  30.201  46.386  0.00  0.00    +0.000 S 
BRANCH  24  27
ATOM     25 CL   UNL     1      47.415  29.146  49.137  0.00  0.00    +0.000 Cl
ATOM     26  C   UNL     1      48.326  28.756  47.674  0.00  0.00    +0.000 A 
ATOM     27  C   UNL     1      47.974  29.193  46.396  0.00  0.00    +0.000 A 
ATOM     28  C   UNL     1      48.753  28.832  45.317  0.00  0.00    +0.000 A 
ATOM     29  H   UNL     1      48.394  29.222  44.375  0.00  0.00    +0.000 HD
ATOM     30  C   UNL     1      49.861  28.051  45.515  0.00  0.00    +0.000 A 
ATOM     31  C   UNL     1      50.216  27.614  46.775  0.00  0.00    +0.000 A 
ATOM     32 CL   UNL     1      51.635  26.615  47.013  0.00  0.00    +0.000 Cl
ATOM     33  C   UNL     1      49.441  27.968  47.880  0.00  0.00    +0.000 A 
ATOM     34  H   UNL     1      49.738  27.612  48.874  0.00  0.00    +0.000 HD
ENDBRANCH  24  27
ENDBRANCH  11  24
TORSDOF 3
