
 OpenBabel03242515393D

 37 40  0  0  0  0  0  0  0  0999 V2000
   44.1520   34.7090   40.9460 C   0  0  0  0  0  0  0  0  0  0  0  0
   44.1510   33.6590   40.0440 C   0  0  0  0  0  0  0  0  0  0  0  0
   45.3630   33.0130   39.8070 C   0  0  0  0  0  0  0  0  0  0  0  0
   46.4650   33.4560   40.4740 N   0  0  0  0  0  0  0  0  0  0  0  0
   46.4320   34.4720   41.3350 C   0  0  0  0  0  0  0  0  0  0  0  0
   45.2770   35.0740   41.5510 N   0  0  0  0  0  0  0  0  0  0  0  0
   43.2440   33.3640   39.5550 H   0  0  0  0  0  0  0  0  0  0  0  0
   46.7050   33.6780   37.2550 Cl  0  0  0  0  0  0  0  0  0  0  0  0
   46.0700   32.0850   37.6680 C   0  0  0  0  0  0  0  0  0  0  0  0
   45.4680   31.9110   38.8900 C   0  0  0  0  0  0  0  0  0  0  0  0
   45.0030   30.6350   39.1210 C   0  0  0  0  0  0  0  0  0  0  0  0
   44.5180   30.4210   40.0600 H   0  0  0  0  0  0  0  0  0  0  0  0
   45.1340   29.6010   38.1890 C   0  0  0  0  0  3  0  0  0  0  0  0
   45.7580   29.8610   36.9740 C   0  0  0  0  0  0  0  0  0  0  0  0
   45.8930   28.5320   35.8490 Cl  0  0  0  0  0  0  0  0  0  0  0  0
   46.2370   31.1310   36.7060 C   0  0  0  0  0  0  0  0  0  0  0  0
   46.7220   31.3210   35.7540 H   0  0  0  0  0  0  0  0  0  0  0  0
   42.5610   35.5240   41.2280 S   0  0  0  0  0  0  0  0  0  0  0  0
   40.5180   34.7920   39.6250 C   0  0  0  0  0  0  0  0  0  0  0  0
   41.2190   34.4310   40.7790 C   0  0  0  0  0  0  0  0  0  0  0  0
   40.8730   33.3010   41.4960 C   0  0  0  0  0  0  0  0  0  0  0  0
   39.8250   32.4860   41.1080 C   0  0  0  0  0  0  0  0  0  0  0  0
   39.1190   32.8540   39.9430 C   0  0  0  0  0  0  0  0  0  0  0  0
   39.4590   33.9870   39.2130 C   0  0  0  0  0  0  0  0  0  0  0  0
   38.1110   31.8750   39.7580 O   0  0  0  0  0  0  0  0  0  0  0  0
   38.0010   31.2010   40.9860 C   0  0  0  0  0  0  0  0  0  0  0  0
   39.2670   31.3240   41.6160 O   0  0  0  0  0  0  0  0  0  0  0  0
   40.7540   35.6610   39.0390 H   0  0  0  0  0  0  0  0  0  0  0  0
   41.4510   33.0740   42.3780 H   0  0  0  0  0  0  0  0  0  0  0  0
   38.9250   34.2680   38.3310 H   0  0  0  0  0  0  0  0  0  0  0  0
   37.6640   30.1600   40.8960 H   0  0  0  0  0  0  0  0  0  0  0  0
   37.2930   31.8000   41.6190 H   0  0  0  0  0  0  0  0  0  0  0  0
   47.5250   34.9350   42.0170 O   0  0  0  0  0  0  0  0  0  0  0  0
   48.7050   35.2340   41.3330 C   0  0  0  0  0  0  0  0  0  0  0  0
   49.6960   34.3180   41.5590 F   0  0  0  0  0  0  0  0  0  0  0  0
   48.3390   35.3170   39.9800 F   0  0  0  0  0  0  0  0  0  0  0  0
   49.1530   36.4620   41.7960 F   0  0  0  0  0  0  0  0  0  0  0  0
  1 18  1  0  0  0  0
  1  6  1  0  0  0  0
  2  1  2  0  0  0  0
  3  2  1  0  0  0  0
  3  4  2  0  0  0  0
  4  5  1  0  0  0  0
  5  6  2  0  0  0  0
  5 33  1  0  0  0  0
  7  2  1  0  0  0  0
  8  9  1  0  0  0  0
  9 10  1  0  0  0  0
 10 11  2  0  0  0  0
 10  3  1  0  0  0  0
 11 12  1  0  0  0  0
 13 11  1  0  0  0  0
 14 13  2  0  0  0  0
 15 14  1  0  0  0  0
 16 14  1  0  0  0  0
 16  9  2  0  0  0  0
 17 16  1  0  0  0  0
 19 20  1  0  0  0  0
 20 18  1  0  0  0  0
 20 21  2  0  0  0  0
 21 29  1  0  0  0  0
 22 21  1  0  0  0  0
 22 27  1  0  0  0  0
 23 22  2  0  0  0  0
 24 19  2  0  0  0  0
 24 23  1  0  0  0  0
 25 23  1  0  0  0  0
 25 26  1  0  0  0  0
 26 27  1  0  0  0  0
 26 32  1  0  0  0  0
 28 19  1  0  0  0  0
 30 24  1  0  0  0  0
 31 26  1  0  0  0  0
 34 35  1  0  0  0  0
 34 37  1  0  0  0  0
 34 33  1  0  0  0  0
 36 34  1  0  0  0  0
M  END
>  <minimizedAffinity>
-5.93794823

>  <minimizedRMSD>
0.807299793

$$$$
