REMARK  Name = 
REMARK  2 active torsions:
REMARK  status: ('A' for Active; 'I' for Inactive)
REMARK    1  A    between atoms: C_3  and  N_7
REMARK    2  A    between atoms: C_12  and  C_27
REMARK                            x       y       z     vdW  Elec       q    Type
REMARK                         _______ _______ _______ _____ _____    ______ ____
ROOT
ATOM      1  N   UNL     1      46.876  34.587  42.278  0.00  0.00    +0.000 N 
ATOM      2  C   UNL     1      48.334  34.685  42.315  0.00  0.00    +0.000 C 
ATOM      3  C   UNL     1      48.695  35.477  41.039  0.00  0.00    +0.000 C 
ATOM      4  C   UNL     1      48.348  34.683  39.819  0.00  0.00    +0.000 C 
ATOM      5  C   UNL     1      47.081  33.925  39.922  0.00  0.00    +0.000 C 
ATOM      6  C   UNL     1      46.196  34.300  41.056  0.00  0.00    +0.000 C 
ATOM      7  H   UNL     1      48.685  35.315  43.139  0.00  0.00    +0.000 HD
ATOM      8  H   UNL     1      48.747  33.670  42.294  0.00  0.00    +0.000 HD
ATOM      9  H   UNL     1      48.062  36.389  41.063  0.00  0.00    +0.000 HD
ATOM     10  H   UNL     1      49.750  35.761  41.040  0.00  0.00    +0.000 HD
ATOM     11  H   UNL     1      49.248  34.069  39.572  0.00  0.00    +0.000 HD
ATOM     12  H   UNL     1      48.260  35.398  38.952  0.00  0.00    +0.000 HD
ATOM     13  H   UNL     1      47.353  32.834  39.937  0.00  0.00    +0.000 HD
ATOM     14  H   UNL     1      46.443  34.007  38.994  0.00  0.00    +0.000 HD
ATOM     15  H   UNL     1      45.757  35.304  40.743  0.00  0.00    +0.000 HD
ENDROOT
BRANCH   6  18
ATOM     16 CL   UNL     1      43.513  35.371  42.132  0.00  0.00    +0.000 Cl
ATOM     17  C   UNL     1      43.790  33.728  41.591  0.00  0.00    +0.000 A 
ATOM     18  C   UNL     1      45.050  33.385  41.148  0.00  0.00    +0.000 A 
ATOM     19  C   UNL     1      45.113  32.038  40.771  0.00  0.00    +0.000 A 
ATOM     20  H   UNL     1      46.078  31.658  40.401  0.00  0.00    +0.000 HD
ATOM     21  C   UNL     1      44.099  31.138  40.813  0.00  0.00    +0.000 A 
ATOM     22  C   UNL     1      42.879  31.570  41.268  0.00  0.00    +0.000 A 
ATOM     23 CL   UNL     1      41.561  30.422  41.328  0.00  0.00    +0.000 Cl
ATOM     24  C   UNL     1      42.709  32.874  41.664  0.00  0.00    +0.000 A 
ATOM     25  H   UNL     1      41.745  33.205  42.021  0.00  0.00    +0.000 HD
ENDBRANCH   6  18
BRANCH   1  28
ATOM     26  C   UNL     1      44.475  35.922  44.800  0.00  0.00    +0.000 A 
ATOM     27  C   UNL     1      45.188  35.828  43.602  0.00  0.00    +0.000 A 
ATOM     28  C   UNL     1      46.102  34.778  43.444  0.00  0.00    +0.000 A 
ATOM     29  N   UNL     1      46.218  33.925  44.491  0.00  0.00    +0.000 NA
ATOM     30  C   UNL     1      45.529  34.021  45.643  0.00  0.00    +0.000 A 
ATOM     31  N   UNL     1      44.655  35.028  45.790  0.00  0.00    +0.000 NA
ATOM     32  H   UNL     1      43.793  36.737  44.874  0.00  0.00    +0.000 HD
ATOM     33  H   UNL     1      45.092  36.506  42.779  0.00  0.00    +0.000 HD
ATOM     34  H   UNL     1      45.694  33.282  46.427  0.00  0.00    +0.000 HD
ENDBRANCH   1  28
TORSDOF 2
