
 OpenBabel03242522233D

 29 31  0  0  0  0  0  0  0  0999 V2000
   44.5810   36.1220   44.2290 C   0  0  0  0  0  0  0  0  0  0  0  0
   45.2590   35.9650   43.0120 C   0  0  0  0  0  0  0  0  0  0  0  0
   46.1360   34.8980   42.8100 C   0  0  0  0  0  0  0  0  0  0  0  0
   46.2850   34.0400   43.8410 N   0  0  0  0  0  0  0  0  0  0  0  0
   45.6330   34.1930   45.0070 C   0  0  0  0  0  0  0  0  0  0  0  0
   44.7940   35.2220   45.1910 N   0  0  0  0  0  0  0  0  0  0  0  0
   43.9400   36.9820   44.2530 H   0  0  0  0  0  0  0  0  0  0  0  0
   45.1550   36.6430   42.1680 H   0  0  0  0  0  0  0  0  0  0  0  0
   44.7070   33.1600   40.9190 Cl  0  0  0  0  0  0  0  0  0  0  0  0
   46.2610   33.9120   40.5850 C   0  0  0  0  0  0  0  0  0  0  0  0
   46.8510   34.7170   41.5510 C   0  0  0  0  0  0  0  0  0  0  0  0
   48.0630   35.2820   41.2460 C   0  0  0  0  0  0  0  0  0  0  0  0
   48.6850   35.0640   40.0230 C   0  0  0  0  0  0  0  0  0  0  0  0
   48.0360   34.2430   39.0980 C   0  0  0  0  0  0  0  0  0  0  0  0
   48.8090   33.9620   37.5590 Cl  0  0  0  0  0  0  0  0  0  0  0  0
   46.8160   33.6520   39.3570 C   0  0  0  0  0  0  0  0  0  0  0  0
   48.5310   35.9110   41.9910 H   0  0  0  0  0  0  0  0  0  0  0  0
   49.6420   35.5110   39.7880 H   0  0  0  0  0  0  0  0  0  0  0  0
   46.3290   33.0190   38.6280 H   0  0  0  0  0  0  0  0  0  0  0  0
   47.5380   31.9710   44.3610 Cl  0  0  0  0  0  0  0  0  0  0  0  0
   46.7020   32.1610   45.8910 C   0  0  0  0  0  0  0  0  0  0  0  0
   45.8440   33.2240   46.0790 C   0  0  0  0  0  0  0  0  0  0  0  0
   45.1580   33.4110   47.2840 C   0  0  0  0  0  0  0  0  0  0  0  0
   44.4770   34.2320   47.4730 H   0  0  0  0  0  0  0  0  0  0  0  0
   45.3300   32.5120   48.3350 C   0  0  0  0  0  0  0  0  0  0  0  0
   46.1970   31.4660   48.0970 C   0  0  0  0  0  0  0  0  0  0  0  0
   46.4640   30.2930   49.3730 Cl  0  0  0  0  0  0  0  0  0  0  0  0
   46.8920   31.2460   46.9260 C   0  0  0  0  0  0  0  0  0  0  0  0
   47.5590   30.4040   46.8020 H   0  0  0  0  0  0  0  0  0  0  0  0
  1  7  1  0  0  0  0
  1  6  1  0  0  0  0
  2  1  2  0  0  0  0
  3  2  1  0  0  0  0
  3  4  2  0  0  0  0
  4  5  1  0  0  0  0
  5  6  2  0  0  0  0
  5 22  1  0  0  0  0
  8  2  1  0  0  0  0
 10  9  1  0  0  0  0
 10 11  1  0  0  0  0
 11  3  1  0  0  0  0
 12 11  2  0  0  0  0
 12 17  1  0  0  0  0
 13 12  1  0  0  0  0
 14 16  1  0  0  0  0
 14 13  2  0  0  0  0
 15 14  1  0  0  0  0
 16 10  2  0  0  0  0
 18 13  1  0  0  0  0
 19 16  1  0  0  0  0
 20 21  1  0  0  0  0
 21 22  2  0  0  0  0
 21 28  1  0  0  0  0
 22 23  1  0  0  0  0
 23 24  1  0  0  0  0
 23 25  2  0  0  0  0
 26 25  1  0  0  0  0
 26 27  1  0  0  0  0
 28 26  2  0  0  0  0
 29 28  1  0  0  0  0
M  END
>  <minimizedAffinity>
-6.25284433

>  <minimizedRMSD>
0.766594231

$$$$
