
 OpenBabel03242520513D

 23 24  0  0  0  0  0  0  0  0999 V2000
   44.5090   36.1300   43.9670 C   0  0  0  0  0  0  0  0  0  0  0  0
   45.4040   36.1780   42.8880 C   0  0  0  0  0  0  0  0  0  0  0  0
   46.4440   35.2690   42.8280 C   0  0  0  0  0  0  0  0  0  0  0  0
   46.5580   34.3590   43.8230 N   0  0  0  0  0  0  0  0  0  0  0  0
   45.6770   34.3330   44.8590 C   0  0  0  0  0  0  0  0  0  0  0  0
   44.6710   35.2150   44.9140 N   0  0  0  0  0  0  0  0  0  0  0  0
   43.7360   36.8860   43.9110 H   0  0  0  0  0  0  0  0  0  0  0  0
   45.3350   36.8830   42.0950 H   0  0  0  0  0  0  0  0  0  0  0  0
   47.4420   31.9400   44.2920 Cl  0  0  0  0  0  0  0  0  0  0  0  0
   46.5800   32.2160   45.7960 C   0  0  0  0  0  0  0  0  0  0  0  0
   45.8060   33.3500   45.9280 C   0  0  0  0  0  0  0  0  0  0  0  0
   45.1650   33.5000   47.1240 C   0  0  0  0  0  0  0  0  0  0  0  0
   44.5460   34.3860   47.2570 H   0  0  0  0  0  0  0  0  0  0  0  0
   45.2670   32.5910   48.1500 C   0  0  0  0  0  0  0  0  0  0  0  0
   46.0580   31.4730   47.9580 C   0  0  0  0  0  0  0  0  0  0  0  0
   46.2280   30.2740   49.2350 Cl  0  0  0  0  0  0  0  0  0  0  0  0
   46.7420   31.2510   46.7700 C   0  0  0  0  0  0  0  0  0  0  0  0
   47.3660   30.3760   46.6070 H   0  0  0  0  0  0  0  0  0  0  0  0
   47.4030   35.1860   41.8370 O   0  0  0  0  0  0  0  0  0  0  0  0
   47.1290   34.2710   40.7610 C   0  0  0  0  0  0  0  0  0  0  0  0
   45.7940   34.3130   40.4270 F   0  0  0  0  0  0  0  0  0  0  0  0
   47.8850   34.6820   39.6510 F   0  0  0  0  0  0  0  0  0  0  0  0
   47.5370   32.9790   41.1070 F   0  0  0  0  0  0  0  0  0  0  0  0
  1  6  1  0  0  0  0
  2  1  2  0  0  0  0
  3  2  1  0  0  0  0
  3  4  2  0  0  0  0
  4  5  1  0  0  0  0
  5  6  2  0  0  0  0
  5 11  1  0  0  0  0
  7  1  1  0  0  0  0
  8  2  1  0  0  0  0
  9 10  1  0  0  0  0
 10 11  2  0  0  0  0
 10 17  1  0  0  0  0
 11 12  1  0  0  0  0
 12 13  1  0  0  0  0
 12 14  2  0  0  0  0
 15 14  1  0  0  0  0
 15 16  1  0  0  0  0
 17 15  2  0  0  0  0
 18 17  1  0  0  0  0
 19  3  1  0  0  0  0
 20 23  1  0  0  0  0
 20 19  1  0  0  0  0
 21 20  1  0  0  0  0
 22 20  1  0  0  0  0
M  END
>  <minimizedAffinity>
-5.03881741

>  <minimizedRMSD>
0.492211282

$$$$
