
     RDKit          3D

 30 32  0  0  0  0  0  0  0  0999 V2000
   45.9700   35.4044   42.6472 C   0  0  0  0  0  0  0  0  0  0  0  0
   46.7239   34.1938   42.7206 C   0  0  0  0  0  0  0  0  0  0  0  0
   46.6336   33.4391   43.8748 C   0  0  0  0  0  0  0  0  0  0  0  0
   45.8351   33.8932   44.8680 N   0  0  0  0  0  0  0  0  0  0  0  0
   45.1212   35.0547   44.7784 C   0  0  0  0  0  0  0  0  0  0  0  0
   45.1826   35.8295   43.6551 N   0  0  0  0  0  0  0  0  0  0  0  0
   47.5843   33.7927   41.5730 C   0  0  1  0  0  0  0  0  0  0  0  0
   48.0616   34.7455   40.5986 C   0  0  0  0  0  0  0  0  0  0  0  0
   49.0428   34.2486   41.5927 C   0  0  1  0  0  0  0  0  0  0  0  0
   49.5209   35.1074   42.6977 C   0  0  0  0  0  0  0  0  0  0  0  0
   45.9965   36.0388   41.7725 H   0  0  0  0  0  0  0  0  0  0  0  0
   47.1851   32.5189   43.9727 H   0  0  0  0  0  0  0  0  0  0  0  0
   44.5631   35.1956   45.7004 H   0  0  0  0  0  0  0  0  0  0  0  0
   47.5237   32.6893   41.3943 H   0  0  0  0  0  0  0  0  0  0  0  0
   47.6773   35.7931   40.6675 H   0  0  0  0  0  0  0  0  0  0  0  0
   48.1100   34.3784   39.5370 H   0  0  0  0  0  0  0  0  0  0  0  0
   49.8079   33.5609   41.1508 H   0  0  0  0  0  0  0  0  0  0  0  0
   49.3878   34.5753   43.6618 H   0  0  0  0  0  0  0  0  0  0  0  0
   48.9144   36.0388   42.7745 H   0  0  0  0  0  0  0  0  0  0  0  0
   51.5318   32.7840   42.5624 Cl  0  0  0  0  0  0  0  0  0  0  0  0
   51.9550   34.4703   42.4547 C   0  0  0  0  0  0  0  0  0  0  0  0
   50.9717   35.4323   42.5258 C   0  0  0  0  0  0  0  0  0  0  0  0
   51.3511   36.7728   42.4341 C   0  0  0  0  0  0  0  0  0  0  0  0
   50.5542   37.5125   42.4932 H   0  0  0  0  0  0  0  0  0  0  0  0
   52.6710   37.1390   42.2765 C   0  0  0  0  0  0  0  0  0  0  0  0
   53.6434   36.1399   42.2082 C   0  0  0  0  0  0  0  0  0  0  0  0
   55.3045   36.6893   42.0072 Cl  0  0  0  0  0  0  0  0  0  0  0  0
   53.2907   34.8105   42.2965 C   0  0  0  0  0  0  0  0  0  0  0  0
   54.0742   34.0802   42.2385 H   0  0  0  0  0  0  0  0  0  0  0  0
   52.8791   38.2146   42.2132 H   0  0  0  0  0  0  0  0  0  0  0  0
  1  2  2  0
  1  6  1  0
  2  3  1  0
  3  4  2  0
  5  4  1  0
  6  5  2  0
  7  9  1  0
  7  2  1  0
  8  7  1  0
  8  9  1  0
  9 10  1  0
  1 11  1  0
  3 12  1  0
  5 13  1  0
  7 14  1  6
  8 15  1  0
  8 16  1  0
  9 17  1  6
 10 18  1  0
 10 19  1  0
 20 21  1  0
 21 22  2  0
 22 23  1  0
 23 24  1  0
 23 25  2  0
 25 26  1  0
 26 27  1  0
 26 28  2  0
 28 29  1  0
 28 21  1  0
 25 30  1  0
 10 22  1  0
M  ISO  8  11  14  12  14  13  14  14  13  15  13  16  13  17  13  18   8
M  ISO  3  19   8  24  16  29  15
M  END
>  <DihAtoms>  (1) 
8,9,21,20

>  <DihDeg>  (1) 
76.25847678146

$$$$
