
     RDKit          3D

 33 36  0  0  0  0  0  0  0  0999 V2000
   47.2237   31.3685   45.0876 C   0  0  0  0  0  0  0  0  0  0  0  0
   46.8771   32.7060   45.0982 C   0  0  0  0  0  0  0  0  0  0  0  0
   46.2716   33.3268   46.1840 C   0  0  0  0  0  0  0  0  0  0  0  0
   46.0005   32.5547   47.3234 C   0  0  0  0  0  0  0  0  0  0  0  0
   45.4345   32.8088   48.5414 N   0  0  0  0  0  0  0  0  0  0  0  0
   45.4365   31.6532   49.2552 C   0  0  0  0  0  0  0  0  0  0  0  0
   45.9987   30.7088   48.4759 N   0  0  0  0  0  0  0  0  0  0  0  0
   46.3544   31.2290   47.2877 C   0  0  0  0  0  0  0  0  0  0  0  0
   46.9511   30.6088   46.2229 C   0  0  0  0  0  0  0  0  0  0  0  0
   46.5102   35.2132   42.4246 C   0  0  0  0  0  0  0  0  0  0  0  0
   47.7175   35.0539   41.7088 C   0  0  0  0  0  0  0  0  0  0  0  0
   48.6500   34.0859   42.1495 C   0  0  0  0  0  0  0  0  0  0  0  0
   48.3138   33.3573   43.2576 N   0  0  0  0  0  0  0  0  0  0  0  0
   47.1491   33.5323   43.9231 C   0  0  0  0  0  0  0  0  0  0  0  0
   46.2764   34.4449   43.5030 N   0  0  0  0  0  0  0  0  0  0  0  0
   47.6963   30.9431   44.2033 H   0  0  0  0  0  0  0  0  0  0  0  0
   46.0050   34.3583   46.1906 H   0  0  0  0  0  0  0  0  0  0  0  0
   45.0764   33.7483   48.8276 H   0  0  0  0  0  0  0  0  0  0  0  0
   45.0377   31.6277   50.2406 H   0  0  0  0  0  0  0  0  0  0  0  0
   45.8402   35.9621   42.0453 H   0  0  0  0  0  0  0  0  0  0  0  0
   48.0088   35.6151   40.8310 H   0  0  0  0  0  0  0  0  0  0  0  0
   49.5853   33.8927   41.6769 H   0  0  0  0  0  0  0  0  0  0  0  0
   49.8578   29.9950   45.8023 Cl  0  0  0  0  0  0  0  0  0  0  0  0
   48.6348   28.7406   45.9976 C   0  0  0  0  0  0  0  0  0  0  0  0
   47.3275   29.1994   46.1845 C   0  0  0  0  0  0  0  0  0  0  0  0
   46.3508   28.2251   46.3401 C   0  0  0  0  0  0  0  0  0  0  0  0
   45.3240   28.5462   46.4874 H   0  0  0  0  0  0  0  0  0  0  0  0
   46.5952   26.8632   46.3205 C   0  0  0  0  0  0  0  0  0  0  0  0
   47.8898   26.4718   46.1347 C   0  0  0  0  0  0  0  0  0  0  0  0
   48.2736   24.7739   46.0986 Cl  0  0  0  0  0  0  0  0  0  0  0  0
   48.8936   27.3873   45.9758 C   0  0  0  0  0  0  0  0  0  0  0  0
   49.9367   27.1162   45.8254 H   0  0  0  0  0  0  0  0  0  0  0  0
   45.7856   26.1729   46.4482 H   0  0  0  0  0  0  0  0  0  0  0  0
  1  2  2  0
  1  9  1  0
  2  3  1  0
  3  4  2  0
  4  5  1  0
  5  6  1  0
  7  6  2  0
  8  4  1  0
  8  7  1  0
  9  8  2  0
 10 15  2  0
 11 12  2  0
 11 10  1  0
 12 13  1  0
 13 14  2  0
 14  2  1  0
 15 14  1  0
  1 16  1  0
  3 17  1  0
  5 18  1  0
  6 19  1  0
 10 20  1  0
 11 21  1  0
 12 22  1  0
 23 24  1  0
 24 25  2  0
 25 26  1  0
 26 27  1  0
 26 28  2  0
 28 29  1  0
 29 30  1  0
 29 31  2  0
 31 32  1  0
 31 24  1  0
 28 33  1  0
  9 25  1  0
M  ISO  8  16  14  17  14  18   9  19  14  20  14  21  14  22  14  27  16
M  ISO  1  32  15
M  END
>  <DihAtoms>  (1) 
0,8,24,23

>  <DihDeg>  (1) 
89.99916558269379

$$$$
