
 OpenBabel03242519403D

 28 29  0  0  0  0  0  0  0  0999 V2000
   38.1680   29.6770   39.9100 O   0  0  0  0  0  0  0  0  0  0  0  0
   37.4690   30.4820   41.0110 P   0  0  2  0  0  0  0  0  0  0  0  0
   37.9490   32.1250   40.8730 O   0  0  0  0  0  0  0  0  0  0  0  0
   41.5920   32.4980   40.8980 C   0  0  0  0  0  0  0  0  0  0  0  0
   40.2930   32.1740   41.3390 C   0  0  0  0  0  0  0  0  0  0  0  0
   39.2380   32.4350   40.4630 C   0  0  0  0  0  0  0  0  0  0  0  0
   39.5040   32.9780   39.2510 N   0  0  0  0  0  0  0  0  0  0  0  0
   40.7770   33.2770   38.8650 C   0  0  0  0  0  0  0  0  0  0  0  0
   41.8090   33.0370   39.6860 N   0  0  0  0  0  0  0  0  0  0  0  0
   42.4050   32.2920   41.5850 H   0  0  0  0  0  0  0  0  0  0  0  0
   40.1390   31.7390   42.3220 H   0  0  0  0  0  0  0  0  0  0  0  0
   40.8680   33.7100   37.8710 H   0  0  0  0  0  0  0  0  0  0  0  0
   37.8110   29.9320   42.5350 O   0  0  0  0  0  0  0  0  0  0  0  0
   36.5690   27.5080   43.6590 Cl  0  0  0  0  0  0  0  0  0  0  0  0
   38.2850   27.7080   43.3160 C   0  0  0  0  0  0  0  0  0  0  0  0
   38.7210   28.9160   42.7840 C   0  0  0  0  0  0  0  0  0  0  0  0
   40.0680   29.0040   42.5430 C   0  0  0  0  0  0  0  0  0  0  0  0
   40.4660   29.9360   42.1220 H   0  0  0  0  0  0  0  0  0  0  0  0
   40.9730   27.9930   42.7900 C   0  0  0  0  0  3  0  0  0  0  0  0
   40.4570   26.8180   43.3210 C   0  0  0  0  0  0  0  0  0  0  0  0
   41.5070   25.4630   43.6790 Cl  0  0  0  0  0  0  0  0  0  0  0  0
   39.1020   26.6240   43.6060 C   0  0  0  0  0  0  0  0  0  0  0  0
   38.7230   25.7150   44.0130 H   0  0  0  0  0  0  0  0  0  0  0  0
   35.8110   30.4250   40.6940 O   0  0  0  0  0  0  0  0  0  0  0  0
   35.4120   29.2120   40.1700 C   0  0  0  0  0  0  0  0  0  0  0  0
   36.1380   28.1340   40.6590 F   0  0  0  0  0  0  0  0  0  0  0  0
   34.0460   29.0600   40.3280 F   0  0  0  0  0  0  0  0  0  0  0  0
   35.6750   29.2680   38.7960 F   0  0  0  0  0  0  0  0  0  0  0  0
  2  1  2  6  0  0  0
  2 13  1  0  0  0  0
  3  2  1  0  0  0  0
  4  5  1  0  0  0  0
  4 10  1  0  0  0  0
  5 11  1  0  0  0  0
  6  3  1  0  0  0  0
  6  5  2  0  0  0  0
  7  6  1  0  0  0  0
  8  7  2  0  0  0  0
  8  9  1  0  0  0  0
  9  4  2  0  0  0  0
 12  8  1  0  0  0  0
 13 16  1  0  0  0  0
 15 22  1  0  0  0  0
 15 14  1  0  0  0  0
 16 15  2  0  0  0  0
 17 16  1  0  0  0  0
 17 19  2  0  0  0  0
 18 17  1  0  0  0  0
 19 20  1  0  0  0  0
 20 22  2  0  0  0  0
 20 21  1  0  0  0  0
 22 23  1  0  0  0  0
 24  2  1  0  0  0  0
 25 27  1  0  0  0  0
 25 26  1  0  0  0  0
 25 24  1  0  0  0  0
 28 25  1  0  0  0  0
M  END
>  <minimizedAffinity>
-5.18708944

$$$$

 OpenBabel03242519403D

 28 29  0  0  0  0  0  0  0  0999 V2000
   37.3430   28.8960   39.1940 O   0  0  0  0  0  0  0  0  0  0  0  0
   36.5000   29.8690   40.0250 P   0  0  2  0  0  0  0  0  0  0  0  0
   36.5950   31.4250   39.3050 O   0  0  0  0  0  0  0  0  0  0  0  0
   39.0320   33.9790   40.2790 C   0  0  0  0  0  0  0  0  0  0  0  0
   37.8200   33.2620   40.2210 C   0  0  0  0  0  0  0  0  0  0  0  0
   37.7770   32.1490   39.3810 C   0  0  0  0  0  0  0  0  0  0  0  0
   38.8810   31.8130   38.6720 N   0  0  0  0  0  0  0  0  0  0  0  0
   40.0330   32.5360   38.7580 C   0  0  0  0  0  0  0  0  0  0  0  0
   40.1030   33.6090   39.5570 N   0  0  0  0  0  0  0  0  0  0  0  0
   39.0560   34.8430   40.9340 H   0  0  0  0  0  0  0  0  0  0  0  0
   36.9660   33.5780   40.8140 H   0  0  0  0  0  0  0  0  0  0  0  0
   40.8530   32.1710   38.1420 H   0  0  0  0  0  0  0  0  0  0  0  0
   36.9820   29.9600   41.6070 O   0  0  0  0  0  0  0  0  0  0  0  0
   36.5670   27.4720   43.1300 Cl  0  0  0  0  0  0  0  0  0  0  0  0
   38.1290   28.2200   42.8070 C   0  0  0  0  0  0  0  0  0  0  0  0
   38.1620   29.3990   42.0690 C   0  0  0  0  0  0  0  0  0  0  0  0
   39.4090   29.9260   41.8550 C   0  0  0  0  0  0  0  0  0  0  0  0
   39.4930   30.8560   41.2780 H   0  0  0  0  0  0  0  0  0  0  0  0
   40.5830   29.3680   42.3150 C   0  0  0  0  0  3  0  0  0  0  0  0
   40.4640   28.1900   43.0430 C   0  0  0  0  0  0  0  0  0  0  0  0
   41.8830   27.3860   43.6800 Cl  0  0  0  0  0  0  0  0  0  0  0  0
   39.2420   27.5690   43.3190 C   0  0  0  0  0  0  0  0  0  0  0  0
   39.1690   26.6660   43.8780 H   0  0  0  0  0  0  0  0  0  0  0  0
   34.8920   29.3660   39.9000 O   0  0  0  0  0  0  0  0  0  0  0  0
   34.5760   28.9060   38.6390 C   0  0  0  0  0  0  0  0  0  0  0  0
   35.0820   29.7000   37.6180 F   0  0  0  0  0  0  0  0  0  0  0  0
   34.9400   27.5760   38.5190 F   0  0  0  0  0  0  0  0  0  0  0  0
   33.1820   28.9740   38.5300 F   0  0  0  0  0  0  0  0  0  0  0  0
  2  1  2  6  0  0  0
  2 13  1  0  0  0  0
  3  6  1  0  0  0  0
  3  2  1  0  0  0  0
  4 10  1  0  0  0  0
  5  4  1  0  0  0  0
  5 11  1  0  0  0  0
  6  5  2  0  0  0  0
  7  8  2  0  0  0  0
  7  6  1  0  0  0  0
  8  9  1  0  0  0  0
  9  4  2  0  0  0  0
 12  8  1  0  0  0  0
 13 16  1  0  0  0  0
 15 14  1  0  0  0  0
 15 22  1  0  0  0  0
 16 15  2  0  0  0  0
 17 16  1  0  0  0  0
 17 19  2  0  0  0  0
 18 17  1  0  0  0  0
 19 20  1  0  0  0  0
 20 22  2  0  0  0  0
 20 21  1  0  0  0  0
 22 23  1  0  0  0  0
 24  2  1  0  0  0  0
 25 24  1  0  0  0  0
 26 25  1  0  0  0  0
 27 25  1  0  0  0  0
 28 25  1  0  0  0  0
M  END
>  <minimizedAffinity>
-5.13602352

$$$$

 OpenBabel03242519403D

 28 29  0  0  0  0  0  0  0  0999 V2000
   37.3470   29.1290   39.4180 O   0  0  0  0  0  0  0  0  0  0  0  0
   36.1650   29.3960   40.3540 P   0  0  2  0  0  0  0  0  0  0  0  0
   36.4150   30.9070   41.1320 O   0  0  0  0  0  0  0  0  0  0  0  0
   38.5720   33.4890   39.6880 C   0  0  0  0  0  0  0  0  0  0  0  0
   37.4100   32.7450   39.9730 C   0  0  0  0  0  0  0  0  0  0  0  0
   37.5450   31.6560   40.8360 C   0  0  0  0  0  0  0  0  0  0  0  0
   38.7640   31.3680   41.3510 N   0  0  0  0  0  0  0  0  0  0  0  0
   39.8630   32.1150   41.0470 C   0  0  0  0  0  0  0  0  0  0  0  0
   39.7620   33.1660   40.2230 N   0  0  0  0  0  0  0  0  0  0  0  0
   38.4580   34.3330   39.0170 H   0  0  0  0  0  0  0  0  0  0  0  0
   36.4570   33.0230   39.5310 H   0  0  0  0  0  0  0  0  0  0  0  0
   40.7880   31.7880   41.5200 H   0  0  0  0  0  0  0  0  0  0  0  0
   35.9590   28.2130   41.4950 O   0  0  0  0  0  0  0  0  0  0  0  0
   37.7470   29.0610   43.6780 Cl  0  0  0  0  0  0  0  0  0  0  0  0
   37.8560   27.5340   42.8060 C   0  0  0  0  0  0  0  0  0  0  0  0
   36.9350   27.2770   41.7960 C   0  0  0  0  0  0  0  0  0  0  0  0
   37.0780   26.0720   41.1590 C   0  0  0  0  0  0  0  0  0  0  0  0
   36.3770   25.8170   40.3540 H   0  0  0  0  0  0  0  0  0  0  0  0
   38.0500   25.1400   41.4590 C   0  0  0  0  0  3  0  0  0  0  0  0
   38.9310   25.4730   42.4810 C   0  0  0  0  0  0  0  0  0  0  0  0
   40.2070   24.3720   42.9530 Cl  0  0  0  0  0  0  0  0  0  0  0  0
   38.8740   26.6740   43.1930 C   0  0  0  0  0  0  0  0  0  0  0  0
   39.5570   26.9130   43.9750 H   0  0  0  0  0  0  0  0  0  0  0  0
   34.7910   29.5630   39.3860 O   0  0  0  0  0  0  0  0  0  0  0  0
   34.7820   28.6850   38.3210 C   0  0  0  0  0  0  0  0  0  0  0  0
   35.4400   29.1720   37.1990 F   0  0  0  0  0  0  0  0  0  0  0  0
   35.2500   27.4490   38.7280 F   0  0  0  0  0  0  0  0  0  0  0  0
   33.4410   28.5280   37.9480 F   0  0  0  0  0  0  0  0  0  0  0  0
  2  1  2  6  0  0  0
  2  3  1  0  0  0  0
  2 13  1  0  0  0  0
  4  5  2  0  0  0  0
  4  9  1  0  0  0  0
  5  6  1  0  0  0  0
  6  3  1  0  0  0  0
  6  7  2  0  0  0  0
  8  7  1  0  0  0  0
  8 12  1  0  0  0  0
  9  8  2  0  0  0  0
 10  4  1  0  0  0  0
 11  5  1  0  0  0  0
 13 16  1  0  0  0  0
 15 22  1  0  0  0  0
 15 14  1  0  0  0  0
 16 15  2  0  0  0  0
 17 19  2  0  0  0  0
 17 16  1  0  0  0  0
 18 17  1  0  0  0  0
 19 20  1  0  0  0  0
 20 21  1  0  0  0  0
 20 22  2  0  0  0  0
 22 23  1  0  0  0  0
 24  2  1  0  0  0  0
 25 27  1  0  0  0  0
 25 24  1  0  0  0  0
 26 25  1  0  0  0  0
 28 25  1  0  0  0  0
M  END
>  <minimizedAffinity>
-5.11826801

$$$$

 OpenBabel03242519403D

 28 29  0  0  0  0  0  0  0  0999 V2000
   38.8700   29.5460   40.0430 O   0  0  0  0  0  0  0  0  0  0  0  0
   38.4630   29.6760   41.5140 P   0  0  2  0  0  0  0  0  0  0  0  0
   39.2230   31.0700   42.1690 O   0  0  0  0  0  0  0  0  0  0  0  0
   39.0540   34.0060   39.9890 C   0  0  0  0  0  0  0  0  0  0  0  0
   38.6310   32.9660   40.8410 C   0  0  0  0  0  0  0  0  0  0  0  0
   39.6130   32.1020   41.3280 C   0  0  0  0  0  0  0  0  0  0  0  0
   40.9030   32.2970   40.9660 N   0  0  0  0  0  0  0  0  0  0  0  0
   41.2680   33.3160   40.1380 C   0  0  0  0  0  0  0  0  0  0  0  0
   40.3470   34.1610   39.6560 N   0  0  0  0  0  0  0  0  0  0  0  0
   38.2850   34.6730   39.6150 H   0  0  0  0  0  0  0  0  0  0  0  0
   37.5810   32.8590   41.0980 H   0  0  0  0  0  0  0  0  0  0  0  0
   42.3320   33.3720   39.9170 H   0  0  0  0  0  0  0  0  0  0  0  0
   38.8660   28.3480   42.4190 O   0  0  0  0  0  0  0  0  0  0  0  0
   36.3640   27.2170   43.4870 Cl  0  0  0  0  0  0  0  0  0  0  0  0
   37.4880   26.3780   42.4210 C   0  0  0  0  0  0  0  0  0  0  0  0
   38.6310   27.0490   41.9990 C   0  0  0  0  0  0  0  0  0  0  0  0
   39.4620   26.3380   41.1720 C   0  0  0  0  0  0  0  0  0  0  0  0
   40.3790   26.8190   40.8100 H   0  0  0  0  0  0  0  0  0  0  0  0
   39.2280   25.0450   40.7540 C   0  0  0  0  0  3  0  0  0  0  0  0
   38.0630   24.4460   41.2190 C   0  0  0  0  0  0  0  0  0  0  0  0
   37.6560   22.8070   40.7580 Cl  0  0  0  0  0  0  0  0  0  0  0  0
   37.1500   25.0800   42.0650 C   0  0  0  0  0  0  0  0  0  0  0  0
   36.2600   24.6070   42.4130 H   0  0  0  0  0  0  0  0  0  0  0  0
   36.7990   29.9600   41.5470 O   0  0  0  0  0  0  0  0  0  0  0  0
   36.1540   29.4720   40.4290 C   0  0  0  0  0  0  0  0  0  0  0  0
   36.7550   28.3380   39.8960 F   0  0  0  0  0  0  0  0  0  0  0  0
   34.8100   29.2910   40.7040 F   0  0  0  0  0  0  0  0  0  0  0  0
   36.2560   30.4640   39.4470 F   0  0  0  0  0  0  0  0  0  0  0  0
  2  1  2  6  0  0  0
  2 24  1  0  0  0  0
  2  3  1  0  0  0  0
  2 13  1  0  0  0  0
  4  5  1  0  0  0  0
  5 11  1  0  0  0  0
  5  6  2  0  0  0  0
  6  3  1  0  0  0  0
  7  6  1  0  0  0  0
  8  7  2  0  0  0  0
  9  4  2  0  0  0  0
  9  8  1  0  0  0  0
 10  4  1  0  0  0  0
 12  8  1  0  0  0  0
 15 14  1  0  0  0  0
 16 13  1  0  0  0  0
 16 15  2  0  0  0  0
 17 16  1  0  0  0  0
 18 17  1  0  0  0  0
 19 17  2  0  0  0  0
 19 20  1  0  0  0  0
 20 22  2  0  0  0  0
 21 20  1  0  0  0  0
 22 23  1  0  0  0  0
 22 15  1  0  0  0  0
 25 27  1  0  0  0  0
 25 24  1  0  0  0  0
 26 25  1  0  0  0  0
 28 25  1  0  0  0  0
M  END
>  <minimizedAffinity>
-5.05613852

$$$$

 OpenBabel03242519403D

 28 29  0  0  0  0  0  0  0  0999 V2000
   38.9290   29.9880   39.9790 O   0  0  0  0  0  0  0  0  0  0  0  0
   37.7530   30.8210   40.4970 P   0  0  2  0  0  0  0  0  0  0  0  0
   37.0790   30.0260   41.8620 O   0  0  0  0  0  0  0  0  0  0  0  0
   37.4010   26.3870   42.1010 C   0  0  0  0  0  0  0  0  0  0  0  0
   36.9060   27.6470   41.7110 C   0  0  0  0  0  0  0  0  0  0  0  0
   37.5480   28.7730   42.2300 C   0  0  0  0  0  0  0  0  0  0  0  0
   38.5960   28.6070   43.0710 N   0  0  0  0  0  0  0  0  0  0  0  0
   39.0420   27.3670   43.4220 C   0  0  0  0  0  0  0  0  0  0  0  0
   38.4460   26.2700   42.9380 N   0  0  0  0  0  0  0  0  0  0  0  0
   36.8970   25.5180   41.6930 H   0  0  0  0  0  0  0  0  0  0  0  0
   36.0610   27.7200   41.0330 H   0  0  0  0  0  0  0  0  0  0  0  0
   39.8910   27.3590   44.1030 H   0  0  0  0  0  0  0  0  0  0  0  0
   36.5740   31.0590   39.3580 O   0  0  0  0  0  0  0  0  0  0  0  0
   34.3470   29.1780   39.7920 Cl  0  0  0  0  0  0  0  0  0  0  0  0
   35.3540   29.2500   38.3480 C   0  0  0  0  0  0  0  0  0  0  0  0
   36.3700   30.1970   38.2910 C   0  0  0  0  0  0  0  0  0  0  0  0
   37.1140   30.1980   37.1400 C   0  0  0  0  0  0  0  0  0  0  0  0
   37.9300   30.9260   37.0420 H   0  0  0  0  0  0  0  0  0  0  0  0
   36.9110   29.3410   36.0780 C   0  0  0  0  0  3  0  0  0  0  0  0
   35.8760   28.4250   36.2130 C   0  0  0  0  0  0  0  0  0  0  0  0
   35.5200   27.2840   34.9330 Cl  0  0  0  0  0  0  0  0  0  0  0  0
   35.0580   28.3390   37.3440 C   0  0  0  0  0  0  0  0  0  0  0  0
   34.2670   27.6300   37.4310 H   0  0  0  0  0  0  0  0  0  0  0  0
   38.3850   32.2890   41.0430 O   0  0  0  0  0  0  0  0  0  0  0  0
   38.4970   33.2270   40.0380 C   0  0  0  0  0  0  0  0  0  0  0  0
   38.9850   32.7040   38.8470 F   0  0  0  0  0  0  0  0  0  0  0  0
   37.2940   33.8930   39.8810 F   0  0  0  0  0  0  0  0  0  0  0  0
   39.4450   34.1610   40.4700 F   0  0  0  0  0  0  0  0  0  0  0  0
  2  1  2  6  0  0  0
  2 24  1  0  0  0  0
  2  3  1  0  0  0  0
  3  6  1  0  0  0  0
  4  9  1  0  0  0  0
  5  4  2  0  0  0  0
  5  6  1  0  0  0  0
  6  7  2  0  0  0  0
  7  8  1  0  0  0  0
  8 12  1  0  0  0  0
  9  8  2  0  0  0  0
 10  4  1  0  0  0  0
 11  5  1  0  0  0  0
 13  2  1  0  0  0  0
 15 14  1  0  0  0  0
 16 15  1  0  0  0  0
 16 13  1  0  0  0  0
 17 16  2  0  0  0  0
 18 17  1  0  0  0  0
 19 20  2  0  0  0  0
 19 17  1  0  0  0  0
 20 22  1  0  0  0  0
 21 20  1  0  0  0  0
 22 23  1  0  0  0  0
 22 15  2  0  0  0  0
 25 28  1  0  0  0  0
 25 24  1  0  0  0  0
 26 25  1  0  0  0  0
 27 25  1  0  0  0  0
M  END
>  <minimizedAffinity>
-4.95169592

$$$$

 OpenBabel03242519403D

 28 29  0  0  0  0  0  0  0  0999 V2000
   39.5850   29.7780   40.2600 O   0  0  0  0  0  0  0  0  0  0  0  0
   38.7970   30.7580   41.1350 P   0  0  2  0  0  0  0  0  0  0  0  0
   38.3480   29.9550   42.5850 O   0  0  0  0  0  0  0  0  0  0  0  0
   37.9150   26.3200   42.5360 C   0  0  0  0  0  0  0  0  0  0  0  0
   37.6200   27.6880   42.3740 C   0  0  0  0  0  0  0  0  0  0  0  0
   38.6130   28.6010   42.7340 C   0  0  0  0  0  0  0  0  0  0  0  0
   39.7920   28.1400   43.2150 N   0  0  0  0  0  0  0  0  0  0  0  0
   40.0340   26.8060   43.3550 C   0  0  0  0  0  0  0  0  0  0  0  0
   39.1000   25.9080   43.0170 N   0  0  0  0  0  0  0  0  0  0  0  0
   37.1380   25.6180   42.2530 H   0  0  0  0  0  0  0  0  0  0  0  0
   36.6560   28.0000   41.9820 H   0  0  0  0  0  0  0  0  0  0  0  0
   41.0170   26.5560   43.7520 H   0  0  0  0  0  0  0  0  0  0  0  0
   37.4430   31.3520   40.3880 O   0  0  0  0  0  0  0  0  0  0  0  0
   37.8560   31.2520   37.4720 Cl  0  0  0  0  0  0  0  0  0  0  0  0
   36.5930   30.3970   38.3530 C   0  0  0  0  0  0  0  0  0  0  0  0
   36.5270   30.5440   39.7340 C   0  0  0  0  0  0  0  0  0  0  0  0
   35.5200   29.8510   40.3550 C   0  0  0  0  0  0  0  0  0  0  0  0
   35.4230   29.9320   41.4450 H   0  0  0  0  0  0  0  0  0  0  0  0
   34.6080   29.0470   39.7040 C   0  0  0  0  0  3  0  0  0  0  0  0
   34.7420   28.9520   38.3240 C   0  0  0  0  0  0  0  0  0  0  0  0
   33.6450   27.9620   37.3860 Cl  0  0  0  0  0  0  0  0  0  0  0  0
   35.7320   29.6170   37.5930 C   0  0  0  0  0  0  0  0  0  0  0  0
   35.8210   29.5320   36.5350 H   0  0  0  0  0  0  0  0  0  0  0  0
   39.8560   32.0010   41.5680 O   0  0  0  0  0  0  0  0  0  0  0  0
   39.8290   33.0560   40.6790 C   0  0  0  0  0  0  0  0  0  0  0  0
   39.8980   32.6600   39.3500 F   0  0  0  0  0  0  0  0  0  0  0  0
   38.7380   33.8650   40.9450 F   0  0  0  0  0  0  0  0  0  0  0  0
   40.9840   33.8090   40.9220 F   0  0  0  0  0  0  0  0  0  0  0  0
  2  1  2  6  0  0  0
  2 24  1  0  0  0  0
  2  3  1  0  0  0  0
  3  6  1  0  0  0  0
  4  9  1  0  0  0  0
  5  4  2  0  0  0  0
  5  6  1  0  0  0  0
  6  7  2  0  0  0  0
  7  8  1  0  0  0  0
  8 12  1  0  0  0  0
  9  8  2  0  0  0  0
 10  4  1  0  0  0  0
 11  5  1  0  0  0  0
 13  2  1  0  0  0  0
 14 15  1  0  0  0  0
 15 16  1  0  0  0  0
 16 17  2  0  0  0  0
 16 13  1  0  0  0  0
 17 18  1  0  0  0  0
 19 17  1  0  0  0  0
 20 19  2  0  0  0  0
 21 20  1  0  0  0  0
 22 20  1  0  0  0  0
 22 15  2  0  0  0  0
 23 22  1  0  0  0  0
 25 28  1  0  0  0  0
 25 27  1  0  0  0  0
 25 24  1  0  0  0  0
 26 25  1  0  0  0  0
M  END
>  <minimizedAffinity>
-4.94637489

$$$$

 OpenBabel03242519403D

 28 29  0  0  0  0  0  0  0  0999 V2000
   38.3900   29.7330   39.7660 O   0  0  0  0  0  0  0  0  0  0  0  0
   37.3180   30.0680   40.8080 P   0  0  2  0  0  0  0  0  0  0  0  0
   38.0980   30.4460   42.2900 O   0  0  0  0  0  0  0  0  0  0  0  0
   41.2260   28.6140   42.8100 C   0  0  0  0  0  0  0  0  0  0  0  0
   39.8460   28.8570   42.6550 C   0  0  0  0  0  0  0  0  0  0  0  0
   39.4510   30.1790   42.4450 C   0  0  0  0  0  0  0  0  0  0  0  0
   40.3930   31.1510   42.4010 N   0  0  0  0  0  0  0  0  0  0  0  0
   41.7180   30.8700   42.5560 C   0  0  0  0  0  0  0  0  0  0  0  0
   42.1250   29.6100   42.7580 N   0  0  0  0  0  0  0  0  0  0  0  0
   41.5230   27.5840   42.9720 H   0  0  0  0  0  0  0  0  0  0  0  0
   39.1350   28.0370   42.6990 H   0  0  0  0  0  0  0  0  0  0  0  0
   42.3810   31.7320   42.5010 H   0  0  0  0  0  0  0  0  0  0  0  0
   36.2380   28.8360   41.0490 O   0  0  0  0  0  0  0  0  0  0  0  0
   36.6730   27.5760   43.6770 Cl  0  0  0  0  0  0  0  0  0  0  0  0
   36.8270   26.7660   42.1200 C   0  0  0  0  0  0  0  0  0  0  0  0
   36.5880   27.4980   40.9620 C   0  0  0  0  0  0  0  0  0  0  0  0
   36.7250   26.8060   39.7870 C   0  0  0  0  0  0  0  0  0  0  0  0
   36.5480   27.3350   38.8420 H   0  0  0  0  0  0  0  0  0  0  0  0
   37.0730   25.4740   39.7010 C   0  0  0  0  0  3  0  0  0  0  0  0
   37.2940   24.8140   40.9030 C   0  0  0  0  0  0  0  0  0  0  0  0
   37.7410   23.1210   40.9240 Cl  0  0  0  0  0  0  0  0  0  0  0  0
   37.1820   25.4250   42.1550 C   0  0  0  0  0  0  0  0  0  0  0  0
   37.3540   24.9030   43.0690 H   0  0  0  0  0  0  0  0  0  0  0  0
   36.5410   31.4740   40.2870 O   0  0  0  0  0  0  0  0  0  0  0  0
   37.3540   32.2750   39.5120 C   0  0  0  0  0  0  0  0  0  0  0  0
   38.6380   32.4180   40.0230 F   0  0  0  0  0  0  0  0  0  0  0  0
   37.3410   31.8290   38.2020 F   0  0  0  0  0  0  0  0  0  0  0  0
   36.7850   33.5540   39.5300 F   0  0  0  0  0  0  0  0  0  0  0  0
  2  1  2  6  0  0  0
  2 13  1  0  0  0  0
  2  3  1  0  0  0  0
  3  6  1  0  0  0  0
  4 10  1  0  0  0  0
  5 11  1  0  0  0  0
  5  4  2  0  0  0  0
  6  5  1  0  0  0  0
  7  6  2  0  0  0  0
  7  8  1  0  0  0  0
  8  9  2  0  0  0  0
  9  4  1  0  0  0  0
 12  8  1  0  0  0  0
 15 22  1  0  0  0  0
 15 14  1  0  0  0  0
 16 13  1  0  0  0  0
 16 15  2  0  0  0  0
 17 16  1  0  0  0  0
 18 17  1  0  0  0  0
 19 17  2  0  0  0  0
 19 20  1  0  0  0  0
 20 21  1  0  0  0  0
 20 22  2  0  0  0  0
 22 23  1  0  0  0  0
 24  2  1  0  0  0  0
 25 28  1  0  0  0  0
 25 26  1  0  0  0  0
 25 24  1  0  0  0  0
 27 25  1  0  0  0  0
M  END
>  <minimizedAffinity>
-4.93977976

$$$$

 OpenBabel03242519403D

 28 29  0  0  0  0  0  0  0  0999 V2000
   39.8530   30.0770   39.1960 O   0  0  0  0  0  0  0  0  0  0  0  0
   39.4620   31.2380   40.1160 P   0  0  2  0  0  0  0  0  0  0  0  0
   40.8720   32.1490   40.4750 O   0  0  0  0  0  0  0  0  0  0  0  0
   43.6240   32.3440   38.0670 C   0  0  0  0  0  0  0  0  0  0  0  0
   42.8190   31.8610   39.1190 C   0  0  0  0  0  0  0  0  0  0  0  0
   41.6820   32.6020   39.4430 C   0  0  0  0  0  0  0  0  0  0  0  0
   41.4070   33.7310   38.7460 N   0  0  0  0  0  0  0  0  0  0  0  0
   42.2140   34.1610   37.7350 C   0  0  0  0  0  0  0  0  0  0  0  0
   43.3120   33.4690   37.4030 N   0  0  0  0  0  0  0  0  0  0  0  0
   44.5050   31.7620   37.8220 H   0  0  0  0  0  0  0  0  0  0  0  0
   43.0880   30.9480   39.6430 H   0  0  0  0  0  0  0  0  0  0  0  0
   41.8930   35.0800   37.2490 H   0  0  0  0  0  0  0  0  0  0  0  0
   38.7510   30.7380   41.5260 O   0  0  0  0  0  0  0  0  0  0  0  0
   40.6480   28.9460   42.8950 Cl  0  0  0  0  0  0  0  0  0  0  0  0
   39.0380   28.4940   42.3420 C   0  0  0  0  0  0  0  0  0  0  0  0
   38.2570   29.4560   41.7090 C   0  0  0  0  0  0  0  0  0  0  0  0
   37.0170   29.0370   41.3040 C   0  0  0  0  0  0  0  0  0  0  0  0
   36.3590   29.7560   40.8000 H   0  0  0  0  0  0  0  0  0  0  0  0
   36.5250   27.7610   41.4870 C   0  0  0  0  0  3  0  0  0  0  0  0
   37.3660   26.8600   42.1280 C   0  0  0  0  0  0  0  0  0  0  0  0
   36.8550   25.2110   42.4170 Cl  0  0  0  0  0  0  0  0  0  0  0  0
   38.6490   27.1840   42.5800 C   0  0  0  0  0  0  0  0  0  0  0  0
   39.2820   26.4800   43.0700 H   0  0  0  0  0  0  0  0  0  0  0  0
   38.4340   32.2470   39.2340 O   0  0  0  0  0  0  0  0  0  0  0  0
   37.6990   33.0920   40.0390 C   0  0  0  0  0  0  0  0  0  0  0  0
   38.4430   33.6640   41.0640 F   0  0  0  0  0  0  0  0  0  0  0  0
   37.0420   34.0280   39.2610 F   0  0  0  0  0  0  0  0  0  0  0  0
   36.7260   32.3000   40.6610 F   0  0  0  0  0  0  0  0  0  0  0  0
  2  1  2  6  0  0  0
  2  3  1  0  0  0  0
  2 13  1  0  0  0  0
  4  5  1  0  0  0  0
  5  6  2  0  0  0  0
  5 11  1  0  0  0  0
  6  3  1  0  0  0  0
  7  6  1  0  0  0  0
  8  7  2  0  0  0  0
  9  8  1  0  0  0  0
  9  4  2  0  0  0  0
 10  4  1  0  0  0  0
 12  8  1  0  0  0  0
 13 16  1  0  0  0  0
 15 22  1  0  0  0  0
 15 14  1  0  0  0  0
 16 15  2  0  0  0  0
 17 19  2  0  0  0  0
 17 16  1  0  0  0  0
 18 17  1  0  0  0  0
 19 20  1  0  0  0  0
 20 21  1  0  0  0  0
 20 22  2  0  0  0  0
 22 23  1  0  0  0  0
 24 25  1  0  0  0  0
 24  2  1  0  0  0  0
 25 28  1  0  0  0  0
 25 26  1  0  0  0  0
 27 25  1  0  0  0  0
M  END
>  <minimizedAffinity>
-4.89224339

$$$$

 OpenBabel03242519403D

 28 29  0  0  0  0  0  0  0  0999 V2000
   36.9510   33.0010   39.2310 O   0  0  0  0  0  0  0  0  0  0  0  0
   37.7090   31.9720   40.0760 P   0  0  2  0  0  0  0  0  0  0  0  0
   36.5770   31.1310   41.0570 O   0  0  0  0  0  0  0  0  0  0  0  0
   36.6100   27.5270   41.6970 C   0  0  0  0  0  0  0  0  0  0  0  0
   36.2480   28.7650   41.1310 C   0  0  0  0  0  0  0  0  0  0  0  0
   36.9150   29.8990   41.5980 C   0  0  0  0  0  0  0  0  0  0  0  0
   37.8610   29.7610   42.5570 N   0  0  0  0  0  0  0  0  0  0  0  0
   38.1790   28.5420   43.0770 C   0  0  0  0  0  0  0  0  0  0  0  0
   37.5560   27.4370   42.6470 N   0  0  0  0  0  0  0  0  0  0  0  0
   36.0860   26.6510   41.3280 H   0  0  0  0  0  0  0  0  0  0  0  0
   35.4810   28.8160   40.3630 H   0  0  0  0  0  0  0  0  0  0  0  0
   38.9540   28.5550   43.8420 H   0  0  0  0  0  0  0  0  0  0  0  0
   38.8750   32.6510   41.0360 O   0  0  0  0  0  0  0  0  0  0  0  0
   41.0200   31.2240   42.4660 Cl  0  0  0  0  0  0  0  0  0  0  0  0
   41.2610   32.3720   41.1510 C   0  0  0  0  0  0  0  0  0  0  0  0
   40.1440   32.9660   40.5740 C   0  0  0  0  0  0  0  0  0  0  0  0
   40.4030   33.8480   39.5570 C   0  0  0  0  0  0  0  0  0  0  0  0
   39.5570   34.3460   39.0650 H   0  0  0  0  0  0  0  0  0  0  0  0
   41.6650   34.1610   39.0960 C   0  0  0  0  0  3  0  0  0  0  0  0
   42.7270   33.5240   39.7250 C   0  0  0  0  0  0  0  0  0  0  0  0
   44.3770   33.8390   39.2300 Cl  0  0  0  0  0  0  0  0  0  0  0  0
   42.5740   32.6090   40.7710 C   0  0  0  0  0  0  0  0  0  0  0  0
   43.4000   32.1290   41.2430 H   0  0  0  0  0  0  0  0  0  0  0  0
   38.3710   30.8420   39.0090 O   0  0  0  0  0  0  0  0  0  0  0  0
   37.5530   30.5900   37.9280 C   0  0  0  0  0  0  0  0  0  0  0  0
   36.2040   30.5340   38.2560 F   0  0  0  0  0  0  0  0  0  0  0  0
   37.8240   31.4910   36.9130 F   0  0  0  0  0  0  0  0  0  0  0  0
   37.8930   29.3140   37.4630 F   0  0  0  0  0  0  0  0  0  0  0  0
  2  1  2  6  0  0  0
  2 13  1  0  0  0  0
  2  3  1  0  0  0  0
  3  6  1  0  0  0  0
  4  9  1  0  0  0  0
  5  6  1  0  0  0  0
  5  4  2  0  0  0  0
  6  7  2  0  0  0  0
  7  8  1  0  0  0  0
  8 12  1  0  0  0  0
  9  8  2  0  0  0  0
 10  4  1  0  0  0  0
 11  5  1  0  0  0  0
 15 14  1  0  0  0  0
 16 13  1  0  0  0  0
 16 15  2  0  0  0  0
 17 16  1  0  0  0  0
 18 17  1  0  0  0  0
 19 17  2  0  0  0  0
 19 20  1  0  0  0  0
 20 22  2  0  0  0  0
 21 20  1  0  0  0  0
 22 15  1  0  0  0  0
 22 23  1  0  0  0  0
 24  2  1  0  0  0  0
 25 26  1  0  0  0  0
 25 24  1  0  0  0  0
 27 25  1  0  0  0  0
 28 25  1  0  0  0  0
M  END
>  <minimizedAffinity>
-4.88481951

$$$$
