
 OpenBabel03252506033D

 29 31  0  0  0  0  0  0  0  0999 V2000
   37.3120   33.8150   39.4910 Cl  0  0  0  0  0  0  0  0  0  0  0  0
   37.6310   32.1730   39.9380 C   0  0  0  0  0  0  0  0  0  0  0  0
   38.9140   31.7180   40.0170 C   0  0  0  0  0  0  0  0  0  0  0  0
   39.0810   30.3880   40.3830 C   0  0  0  0  0  0  0  0  0  0  0  0
   38.0390   29.5250   40.6620 C   0  0  0  0  0  0  0  0  0  0  0  0
   36.7620   30.0180   40.5720 C   0  0  0  0  0  0  0  0  0  0  0  0
   35.4920   28.8670   40.9400 Cl  0  0  0  0  0  0  0  0  0  0  0  0
   36.5630   31.3260   40.2140 C   0  0  0  0  0  0  0  0  0  0  0  0
   40.1300   30.0620   40.4350 H   0  0  0  0  0  0  0  0  0  0  0  0
   35.5380   31.6590   40.1590 H   0  0  0  0  0  0  0  0  0  0  0  0
   38.0760   29.2030   43.5780 Cl  0  0  0  0  0  0  0  0  0  0  0  0
   38.4770   27.9690   42.3960 C   0  0  0  0  0  0  0  0  0  0  0  0
   38.4500   28.1560   41.0290 C   0  0  0  0  0  0  0  0  0  0  0  0
   38.7810   27.1280   40.1690 C   0  0  0  0  0  0  0  0  0  0  0  0
   38.7240   27.3870   39.1150 H   0  0  0  0  0  0  0  0  0  0  0  0
   39.1390   25.9170   40.7070 C   0  0  0  0  0  3  0  0  0  0  0  0
   39.1710   25.7190   42.0620 C   0  0  0  0  0  0  0  0  0  0  0  0
   39.6480   24.1150   42.6180 Cl  0  0  0  0  0  0  0  0  0  0  0  0
   38.8430   26.7350   42.9400 C   0  0  0  0  0  0  0  0  0  0  0  0
   38.8810   26.5340   44.0040 H   0  0  0  0  0  0  0  0  0  0  0  0
   41.5680   33.4290   38.1580 C   0  0  0  0  0  0  0  0  0  0  0  0
   42.2300   34.1610   39.1430 C   0  0  0  0  0  0  0  0  0  0  0  0
   41.7610   34.0670   40.4650 C   0  0  0  0  0  0  0  0  0  0  0  0
   40.6860   33.2690   40.7160 N   0  0  0  0  0  0  0  0  0  0  0  0
   40.0720   32.5760   39.7350 C   0  0  0  0  0  0  0  0  0  0  0  0
   40.5120   32.6570   38.4600 N   0  0  0  0  0  0  0  0  0  0  0  0
   41.9560   33.5250   37.1530 H   0  0  0  0  0  0  0  0  0  0  0  0
   43.0760   34.8030   39.0100 H   0  0  0  0  0  0  0  0  0  0  0  0
   42.1520   34.5620   41.3410 H   0  0  0  0  0  0  0  0  0  0  0  0
  1  2  1  0  0  0  0
  2  3  2  0  0  0  0
  2  8  1  0  0  0  0
  3  4  1  0  0  0  0
  4  9  1  0  0  0  0
  4  5  2  0  0  0  0
  5 13  1  0  0  0  0
  6  5  1  0  0  0  0
  6  7  1  0  0  0  0
  8  6  2  0  0  0  0
 10  8  1  0  0  0  0
 12 19  1  0  0  0  0
 12 11  1  0  0  0  0
 13 12  2  0  0  0  0
 14 16  2  0  0  0  0
 14 13  1  0  0  0  0
 15 14  1  0  0  0  0
 16 17  1  0  0  0  0
 17 18  1  0  0  0  0
 17 19  2  0  0  0  0
 19 20  1  0  0  0  0
 21 26  2  0  0  0  0
 21 22  1  0  0  0  0
 22 23  2  0  0  0  0
 23 24  1  0  0  0  0
 23 29  1  0  0  0  0
 25  3  1  0  0  0  0
 25 24  2  0  0  0  0
 26 25  1  0  0  0  0
 27 21  1  0  0  0  0
 28 22  1  0  0  0  0
M  END
>  <minimizedAffinity>
-5.59358025

$$$$

 OpenBabel03252506033D

 29 31  0  0  0  0  0  0  0  0999 V2000
   42.5950   34.1310   37.2640 Cl  0  0  0  0  0  0  0  0  0  0  0  0
   41.6420   33.1650   38.3380 C   0  0  0  0  0  0  0  0  0  0  0  0
   41.8260   31.8160   38.3970 C   0  0  0  0  0  0  0  0  0  0  0  0
   41.0190   31.1170   39.2870 C   0  0  0  0  0  0  0  0  0  0  0  0
   40.0650   31.7050   40.0940 C   0  0  0  0  0  0  0  0  0  0  0  0
   39.9080   33.0650   40.0070 C   0  0  0  0  0  0  0  0  0  0  0  0
   38.6790   33.7420   41.0600 Cl  0  0  0  0  0  0  0  0  0  0  0  0
   40.6880   33.7850   39.1400 C   0  0  0  0  0  0  0  0  0  0  0  0
   41.1990   30.0320   39.3030 H   0  0  0  0  0  0  0  0  0  0  0  0
   40.5220   34.8510   39.1130 H   0  0  0  0  0  0  0  0  0  0  0  0
   37.6510   30.7290   38.7400 Cl  0  0  0  0  0  0  0  0  0  0  0  0
   38.1810   30.2900   40.3550 C   0  0  0  0  0  0  0  0  0  0  0  0
   39.3240   30.7690   40.9610 C   0  0  0  0  0  0  0  0  0  0  0  0
   39.6670   30.3690   42.2370 C   0  0  0  0  0  0  0  0  0  0  0  0
   40.5860   30.8090   42.6150 H   0  0  0  0  0  0  0  0  0  0  0  0
   38.8430   29.4840   42.8870 C   0  0  0  0  0  3  0  0  0  0  0  0
   37.7050   29.0010   42.2960 C   0  0  0  0  0  0  0  0  0  0  0  0
   36.7380   27.8710   43.2430 Cl  0  0  0  0  0  0  0  0  0  0  0  0
   37.3440   29.3890   41.0200 C   0  0  0  0  0  0  0  0  0  0  0  0
   36.4370   28.9820   40.5910 H   0  0  0  0  0  0  0  0  0  0  0  0
   43.3080   29.9980   35.5830 C   0  0  0  0  0  0  0  0  0  0  0  0
   44.6310   29.8120   35.9810 C   0  0  0  0  0  0  0  0  0  0  0  0
   45.0220   30.3160   37.2340 C   0  0  0  0  0  0  0  0  0  0  0  0
   44.0920   30.9600   37.9930 N   0  0  0  0  0  0  0  0  0  0  0  0
   42.8200   31.1200   37.5710 C   0  0  0  0  0  0  0  0  0  0  0  0
   42.4300   30.6400   36.3700 N   0  0  0  0  0  0  0  0  0  0  0  0
   43.0420   29.5970   34.6140 H   0  0  0  0  0  0  0  0  0  0  0  0
   45.4060   29.3170   35.4330 H   0  0  0  0  0  0  0  0  0  0  0  0
   45.9980   30.2610   37.6920 H   0  0  0  0  0  0  0  0  0  0  0  0
  1  2  1  0  0  0  0
  2  3  2  0  0  0  0
  2  8  1  0  0  0  0
  3  4  1  0  0  0  0
  4  9  1  0  0  0  0
  4  5  2  0  0  0  0
  5 13  1  0  0  0  0
  6  5  1  0  0  0  0
  6  7  1  0  0  0  0
  8  6  2  0  0  0  0
 10  8  1  0  0  0  0
 11 12  1  0  0  0  0
 12 13  2  0  0  0  0
 12 19  1  0  0  0  0
 13 14  1  0  0  0  0
 14 15  1  0  0  0  0
 14 16  2  0  0  0  0
 17 16  1  0  0  0  0
 17 18  1  0  0  0  0
 19 17  2  0  0  0  0
 20 19  1  0  0  0  0
 21 22  2  0  0  0  0
 21 26  1  0  0  0  0
 22 23  1  0  0  0  0
 23 29  1  0  0  0  0
 23 24  2  0  0  0  0
 25 24  1  0  0  0  0
 25  3  1  0  0  0  0
 26 25  2  0  0  0  0
 27 21  1  0  0  0  0
 28 22  1  0  0  0  0
M  END
>  <minimizedAffinity>
-5.19254637

$$$$

 OpenBabel03252506033D

 29 31  0  0  0  0  0  0  0  0999 V2000
   42.5570   34.1400   37.2730 Cl  0  0  0  0  0  0  0  0  0  0  0  0
   41.5460   33.1820   38.3000 C   0  0  0  0  0  0  0  0  0  0  0  0
   41.6750   31.8250   38.3220 C   0  0  0  0  0  0  0  0  0  0  0  0
   40.8240   31.1330   39.1750 C   0  0  0  0  0  0  0  0  0  0  0  0
   39.8770   31.7350   39.9810 C   0  0  0  0  0  0  0  0  0  0  0  0
   39.7760   33.1020   39.9320 C   0  0  0  0  0  0  0  0  0  0  0  0
   38.5540   33.7970   40.9810 Cl  0  0  0  0  0  0  0  0  0  0  0  0
   40.6000   33.8150   39.1020 C   0  0  0  0  0  0  0  0  0  0  0  0
   40.9600   30.0420   39.1620 H   0  0  0  0  0  0  0  0  0  0  0  0
   40.4770   34.8870   39.1040 H   0  0  0  0  0  0  0  0  0  0  0  0
   41.2060   31.2380   42.5490 Cl  0  0  0  0  0  0  0  0  0  0  0  0
   39.6800   30.5490   42.0240 C   0  0  0  0  0  0  0  0  0  0  0  0
   39.0830   30.8050   40.8060 C   0  0  0  0  0  0  0  0  0  0  0  0
   37.8780   30.2190   40.4730 C   0  0  0  0  0  0  0  0  0  0  0  0
   37.5000   30.4920   39.4910 H   0  0  0  0  0  0  0  0  0  0  0  0
   37.2890   29.3750   41.3830 C   0  0  0  0  0  3  0  0  0  0  0  0
   37.8720   29.1130   42.5940 C   0  0  0  0  0  0  0  0  0  0  0  0
   37.0090   28.0110   43.6670 Cl  0  0  0  0  0  0  0  0  0  0  0  0
   39.0780   29.6890   42.9470 C   0  0  0  0  0  0  0  0  0  0  0  0
   39.5030   29.4530   43.9150 H   0  0  0  0  0  0  0  0  0  0  0  0
   44.8630   30.4030   37.2110 C   0  0  0  0  0  0  0  0  0  0  0  0
   44.5410   29.8010   35.9950 C   0  0  0  0  0  0  0  0  0  0  0  0
   43.2110   29.8850   35.5480 C   0  0  0  0  0  0  0  0  0  0  0  0
   42.3060   30.5450   36.3230 N   0  0  0  0  0  0  0  0  0  0  0  0
   42.6570   31.1150   37.4940 C   0  0  0  0  0  0  0  0  0  0  0  0
   43.9330   31.0430   37.9360 N   0  0  0  0  0  0  0  0  0  0  0  0
   45.8950   30.3200   37.5230 H   0  0  0  0  0  0  0  0  0  0  0  0
   45.2030   29.2700   35.3430 H   0  0  0  0  0  0  0  0  0  0  0  0
   42.7930   29.4780   34.6390 H   0  0  0  0  0  0  0  0  0  0  0  0
  1  2  1  0  0  0  0
  2  3  2  0  0  0  0
  2  8  1  0  0  0  0
  3  4  1  0  0  0  0
  4  5  2  0  0  0  0
  5 13  1  0  0  0  0
  6  5  1  0  0  0  0
  6  7  1  0  0  0  0
  8 10  1  0  0  0  0
  8  6  2  0  0  0  0
  9  4  1  0  0  0  0
 12 11  1  0  0  0  0
 12 19  1  0  0  0  0
 13 12  2  0  0  0  0
 14 13  1  0  0  0  0
 14 16  2  0  0  0  0
 15 14  1  0  0  0  0
 16 17  1  0  0  0  0
 17 19  2  0  0  0  0
 17 18  1  0  0  0  0
 19 20  1  0  0  0  0
 21 27  1  0  0  0  0
 21 26  1  0  0  0  0
 22 21  2  0  0  0  0
 23 22  1  0  0  0  0
 23 24  2  0  0  0  0
 24 25  1  0  0  0  0
 25 26  2  0  0  0  0
 25  3  1  0  0  0  0
 28 22  1  0  0  0  0
 29 23  1  0  0  0  0
M  END
>  <minimizedAffinity>
-5.17322063

$$$$

 OpenBabel03252506033D

 29 31  0  0  0  0  0  0  0  0999 V2000
   36.5850   23.8770   41.0460 Cl  0  0  0  0  0  0  0  0  0  0  0  0
   36.9750   25.5630   41.0100 C   0  0  0  0  0  0  0  0  0  0  0  0
   37.2270   26.1870   39.8240 C   0  0  0  0  0  0  0  0  0  0  0  0
   37.5310   27.5410   39.8860 C   0  0  0  0  0  0  0  0  0  0  0  0
   37.5910   28.2690   41.0580 C   0  0  0  0  0  0  0  0  0  0  0  0
   37.3310   27.6080   42.2320 C   0  0  0  0  0  0  0  0  0  0  0  0
   37.4240   28.5950   43.6790 Cl  0  0  0  0  0  0  0  0  0  0  0  0
   37.0270   26.2720   42.2070 C   0  0  0  0  0  0  0  0  0  0  0  0
   37.7280   28.0050   38.9090 H   0  0  0  0  0  0  0  0  0  0  0  0
   36.8320   25.8040   43.1590 H   0  0  0  0  0  0  0  0  0  0  0  0
   35.2160   29.8210   40.3080 Cl  0  0  0  0  0  0  0  0  0  0  0  0
   36.8370   30.4550   40.5330 C   0  0  0  0  0  0  0  0  0  0  0  0
   37.9330   29.6940   40.8870 C   0  0  0  0  0  0  0  0  0  0  0  0
   39.1750   30.2760   41.0440 C   0  0  0  0  0  0  0  0  0  0  0  0
   39.9640   29.5830   41.3240 H   0  0  0  0  0  0  0  0  0  0  0  0
   39.2920   31.6290   40.8400 C   0  0  0  0  0  3  0  0  0  0  0  0
   38.2120   32.3940   40.4880 C   0  0  0  0  0  0  0  0  0  0  0  0
   38.5040   34.1180   40.2560 Cl  0  0  0  0  0  0  0  0  0  0  0  0
   36.9600   31.8310   40.3260 C   0  0  0  0  0  0  0  0  0  0  0  0
   36.1340   32.4740   40.0470 H   0  0  0  0  0  0  0  0  0  0  0  0
   35.9420   24.8600   36.6600 C   0  0  0  0  0  0  0  0  0  0  0  0
   37.0350   24.1780   36.1300 C   0  0  0  0  0  0  0  0  0  0  0  0
   38.2320   24.1700   36.8670 C   0  0  0  0  0  0  0  0  0  0  0  0
   38.2630   24.8300   38.0590 N   0  0  0  0  0  0  0  0  0  0  0  0
   37.1830   25.4800   38.5380 C   0  0  0  0  0  0  0  0  0  0  0  0
   36.0260   25.4950   37.8400 N   0  0  0  0  0  0  0  0  0  0  0  0
   35.0380   24.8450   36.0660 H   0  0  0  0  0  0  0  0  0  0  0  0
   37.0750   23.6430   35.2030 H   0  0  0  0  0  0  0  0  0  0  0  0
   39.1650   23.6950   36.6060 H   0  0  0  0  0  0  0  0  0  0  0  0
  2  1  1  0  0  0  0
  2  8  1  0  0  0  0
  3  4  1  0  0  0  0
  3  2  2  0  0  0  0
  4  5  2  0  0  0  0
  5  6  1  0  0  0  0
  6  7  1  0  0  0  0
  8  6  2  0  0  0  0
  8 10  1  0  0  0  0
  9  4  1  0  0  0  0
 11 12  1  0  0  0  0
 12 13  1  0  0  0  0
 13 14  2  0  0  0  0
 13  5  1  0  0  0  0
 14 15  1  0  0  0  0
 16 14  1  0  0  0  0
 17 16  2  0  0  0  0
 18 17  1  0  0  0  0
 19 17  1  0  0  0  0
 19 12  2  0  0  0  0
 20 19  1  0  0  0  0
 21 26  1  0  0  0  0
 22 21  2  0  0  0  0
 22 23  1  0  0  0  0
 23 24  2  0  0  0  0
 24 25  1  0  0  0  0
 25  3  1  0  0  0  0
 26 25  2  0  0  0  0
 27 21  1  0  0  0  0
 28 22  1  0  0  0  0
 29 23  1  0  0  0  0
M  END
>  <minimizedAffinity>
-5.0970726

$$$$

 OpenBabel03252506033D

 29 31  0  0  0  0  0  0  0  0999 V2000
   39.9430   34.1400   39.6870 Cl  0  0  0  0  0  0  0  0  0  0  0  0
   39.3410   32.5420   39.9630 C   0  0  0  0  0  0  0  0  0  0  0  0
   40.1680   31.4640   39.8490 C   0  0  0  0  0  0  0  0  0  0  0  0
   39.6020   30.2180   40.0880 C   0  0  0  0  0  0  0  0  0  0  0  0
   38.2780   30.0200   40.4270 C   0  0  0  0  0  0  0  0  0  0  0  0
   37.4750   31.1280   40.5320 C   0  0  0  0  0  0  0  0  0  0  0  0
   35.8070   30.8010   40.9650 Cl  0  0  0  0  0  0  0  0  0  0  0  0
   38.0020   32.3720   40.3030 C   0  0  0  0  0  0  0  0  0  0  0  0
   40.3030   29.3770   39.9860 H   0  0  0  0  0  0  0  0  0  0  0  0
   37.3250   33.2070   40.4000 H   0  0  0  0  0  0  0  0  0  0  0  0
   38.4330   29.3150   43.2710 Cl  0  0  0  0  0  0  0  0  0  0  0  0
   37.9560   28.2440   41.9640 C   0  0  0  0  0  0  0  0  0  0  0  0
   37.8940   28.6100   40.6350 C   0  0  0  0  0  0  0  0  0  0  0  0
   37.5070   27.7030   39.6690 C   0  0  0  0  0  0  0  0  0  0  0  0
   37.4940   28.0990   38.6580 H   0  0  0  0  0  0  0  0  0  0  0  0
   37.1860   26.4270   40.0650 C   0  0  0  0  0  3  0  0  0  0  0  0
   37.2440   26.0510   41.3810 C   0  0  0  0  0  0  0  0  0  0  0  0
   36.8050   24.3840   41.7490 Cl  0  0  0  0  0  0  0  0  0  0  0  0
   37.6290   26.9450   42.3620 C   0  0  0  0  0  0  0  0  0  0  0  0
   37.6600   26.6050   43.3900 H   0  0  0  0  0  0  0  0  0  0  0  0
   43.7880   31.8990   40.2090 C   0  0  0  0  0  0  0  0  0  0  0  0
   44.2500   31.8470   38.8950 C   0  0  0  0  0  0  0  0  0  0  0  0
   43.3080   31.6610   37.8690 C   0  0  0  0  0  0  0  0  0  0  0  0
   41.9940   31.5400   38.2090 N   0  0  0  0  0  0  0  0  0  0  0  0
   41.5860   31.5950   39.4930 C   0  0  0  0  0  0  0  0  0  0  0  0
   42.4810   31.7740   40.4900 N   0  0  0  0  0  0  0  0  0  0  0  0
   44.5400   32.0430   40.9730 H   0  0  0  0  0  0  0  0  0  0  0  0
   45.2640   31.9350   38.5640 H   0  0  0  0  0  0  0  0  0  0  0  0
   43.4920   31.5980   36.8070 H   0  0  0  0  0  0  0  0  0  0  0  0
  1  2  1  0  0  0  0
  2  8  1  0  0  0  0
  3  2  2  0  0  0  0
  3  4  1  0  0  0  0
  4  5  2  0  0  0  0
  5  6  1  0  0  0  0
  5 13  1  0  0  0  0
  6  7  1  0  0  0  0
  8 10  1  0  0  0  0
  8  6  2  0  0  0  0
  9  4  1  0  0  0  0
 12 19  1  0  0  0  0
 12 11  1  0  0  0  0
 13 12  2  0  0  0  0
 14 16  2  0  0  0  0
 14 13  1  0  0  0  0
 15 14  1  0  0  0  0
 16 17  1  0  0  0  0
 17 18  1  0  0  0  0
 17 19  2  0  0  0  0
 19 20  1  0  0  0  0
 21 26  1  0  0  0  0
 21 27  1  0  0  0  0
 22 21  2  0  0  0  0
 23 24  2  0  0  0  0
 23 22  1  0  0  0  0
 24 25  1  0  0  0  0
 25  3  1  0  0  0  0
 25 26  2  0  0  0  0
 28 22  1  0  0  0  0
 29 23  1  0  0  0  0
M  END
>  <minimizedAffinity>
-5.04382372

$$$$

 OpenBabel03252506033D

 29 31  0  0  0  0  0  0  0  0999 V2000
   38.0170   33.6910   39.9260 Cl  0  0  0  0  0  0  0  0  0  0  0  0
   37.8490   31.9880   40.1900 C   0  0  0  0  0  0  0  0  0  0  0  0
   38.9530   31.2050   40.3550 C   0  0  0  0  0  0  0  0  0  0  0  0
   38.7270   29.8490   40.5620 C   0  0  0  0  0  0  0  0  0  0  0  0
   37.4740   29.2700   40.6060 C   0  0  0  0  0  0  0  0  0  0  0  0
   36.3870   30.0900   40.4360 C   0  0  0  0  0  0  0  0  0  0  0  0
   34.8300   29.2860   40.5050 Cl  0  0  0  0  0  0  0  0  0  0  0  0
   36.5740   31.4320   40.2300 C   0  0  0  0  0  0  0  0  0  0  0  0
   39.6430   29.2540   40.6910 H   0  0  0  0  0  0  0  0  0  0  0  0
   35.6840   32.0280   40.1020 H   0  0  0  0  0  0  0  0  0  0  0  0
   37.6320   27.8190   38.0610 Cl  0  0  0  0  0  0  0  0  0  0  0  0
   37.5460   27.0980   39.6590 C   0  0  0  0  0  0  0  0  0  0  0  0
   37.4720   27.8130   40.8380 C   0  0  0  0  0  0  0  0  0  0  0  0
   37.4080   27.1640   42.0540 C   0  0  0  0  0  0  0  0  0  0  0  0
   37.3530   27.8250   42.9150 H   0  0  0  0  0  0  0  0  0  0  0  0
   37.4180   25.7900   42.0620 C   0  0  0  0  0  3  0  0  0  0  0  0
   37.4910   25.0700   40.9000 C   0  0  0  0  0  0  0  0  0  0  0  0
   37.4960   23.3130   41.0550 Cl  0  0  0  0  0  0  0  0  0  0  0  0
   37.5560   25.7000   39.6720 C   0  0  0  0  0  0  0  0  0  0  0  0
   37.6120   25.0920   38.7780 H   0  0  0  0  0  0  0  0  0  0  0  0
   42.1720   32.3610   39.0440 C   0  0  0  0  0  0  0  0  0  0  0  0
   42.8620   32.7570   40.1890 C   0  0  0  0  0  0  0  0  0  0  0  0
   42.2160   32.6240   41.4300 C   0  0  0  0  0  0  0  0  0  0  0  0
   40.9500   32.1200   41.4520 N   0  0  0  0  0  0  0  0  0  0  0  0
   40.3160   31.7480   40.3210 C   0  0  0  0  0  0  0  0  0  0  0  0
   40.9260   31.8690   39.1200 N   0  0  0  0  0  0  0  0  0  0  0  0
   42.7000   32.4760   38.1070 H   0  0  0  0  0  0  0  0  0  0  0  0
   43.8530   33.1590   40.2380 H   0  0  0  0  0  0  0  0  0  0  0  0
   42.6010   32.8800   42.4050 H   0  0  0  0  0  0  0  0  0  0  0  0
  1  2  1  0  0  0  0
  2  8  2  0  0  0  0
  2  3  1  0  0  0  0
  3  4  2  0  0  0  0
  4  5  1  0  0  0  0
  4  9  1  0  0  0  0
  5 13  1  0  0  0  0
  6  7  1  0  0  0  0
  6  5  2  0  0  0  0
  8  6  1  0  0  0  0
 10  8  1  0  0  0  0
 11 12  1  0  0  0  0
 12 19  2  0  0  0  0
 12 13  1  0  0  0  0
 13 14  2  0  0  0  0
 14 16  1  0  0  0  0
 14 15  1  0  0  0  0
 17 18  1  0  0  0  0
 17 16  2  0  0  0  0
 19 17  1  0  0  0  0
 20 19  1  0  0  0  0
 21 26  2  0  0  0  0
 21 22  1  0  0  0  0
 22 28  1  0  0  0  0
 22 23  2  0  0  0  0
 23 24  1  0  0  0  0
 23 29  1  0  0  0  0
 25  3  1  0  0  0  0
 25 24  2  0  0  0  0
 26 25  1  0  0  0  0
 27 21  1  0  0  0  0
M  END
>  <minimizedAffinity>
-5.03663301

$$$$

 OpenBabel03252506033D

 29 31  0  0  0  0  0  0  0  0999 V2000
   31.5020   27.5410   35.2010 Cl  0  0  0  0  0  0  0  0  0  0  0  0
   32.7080   27.9130   36.3850 C   0  0  0  0  0  0  0  0  0  0  0  0
   32.6310   29.0660   37.1090 C   0  0  0  0  0  0  0  0  0  0  0  0
   33.6400   29.2850   38.0380 C   0  0  0  0  0  0  0  0  0  0  0  0
   34.6910   28.4170   38.2600 C   0  0  0  0  0  0  0  0  0  0  0  0
   34.7360   27.2670   37.5140 C   0  0  0  0  0  0  0  0  0  0  0  0
   36.0970   26.2130   37.8490 Cl  0  0  0  0  0  0  0  0  0  0  0  0
   33.7560   27.0190   36.5880 C   0  0  0  0  0  0  0  0  0  0  0  0
   33.5410   30.2250   38.6000 H   0  0  0  0  0  0  0  0  0  0  0  0
   33.8410   26.1000   36.0300 H   0  0  0  0  0  0  0  0  0  0  0  0
   36.8320   30.0370   37.0740 Cl  0  0  0  0  0  0  0  0  0  0  0  0
   36.6700   29.6190   38.7710 C   0  0  0  0  0  0  0  0  0  0  0  0
   35.6480   28.8530   39.2950 C   0  0  0  0  0  0  0  0  0  0  0  0
   35.5980   28.5720   40.6460 C   0  0  0  0  0  0  0  0  0  0  0  0
   34.7500   27.9620   40.9470 H   0  0  0  0  0  0  0  0  0  0  0  0
   36.5890   29.0730   41.4540 C   0  0  0  0  0  3  0  0  0  0  0  0
   37.6080   29.8340   40.9460 C   0  0  0  0  0  0  0  0  0  0  0  0
   38.8140   30.4130   42.0950 Cl  0  0  0  0  0  0  0  0  0  0  0  0
   37.6770   30.1270   39.5970 C   0  0  0  0  0  0  0  0  0  0  0  0
   38.5000   30.7320   39.2390 H   0  0  0  0  0  0  0  0  0  0  0  0
   29.5920   31.0030   37.7710 C   0  0  0  0  0  0  0  0  0  0  0  0
   29.4880   31.8300   36.6530 C   0  0  0  0  0  0  0  0  0  0  0  0
   30.4730   31.7210   35.6560 C   0  0  0  0  0  0  0  0  0  0  0  0
   31.4780   30.8180   35.8320 N   0  0  0  0  0  0  0  0  0  0  0  0
   31.5440   30.0360   36.9290 C   0  0  0  0  0  0  0  0  0  0  0  0
   30.6040   30.1290   37.8960 N   0  0  0  0  0  0  0  0  0  0  0  0
   28.8180   31.1130   38.5180 H   0  0  0  0  0  0  0  0  0  0  0  0
   28.7270   32.5560   36.4570 H   0  0  0  0  0  0  0  0  0  0  0  0
   30.5440   32.2800   34.7350 H   0  0  0  0  0  0  0  0  0  0  0  0
  1  2  1  0  0  0  0
  2  8  2  0  0  0  0
  2  3  1  0  0  0  0
  3  4  2  0  0  0  0
  4  5  1  0  0  0  0
  4  9  1  0  0  0  0
  5 13  1  0  0  0  0
  6  7  1  0  0  0  0
  6  5  2  0  0  0  0
  8  6  1  0  0  0  0
 10  8  1  0  0  0  0
 11 12  1  0  0  0  0
 12 13  2  0  0  0  0
 12 19  1  0  0  0  0
 13 14  1  0  0  0  0
 14 15  1  0  0  0  0
 14 16  2  0  0  0  0
 17 16  1  0  0  0  0
 17 18  1  0  0  0  0
 19 17  2  0  0  0  0
 20 19  1  0  0  0  0
 21 26  1  0  0  0  0
 21 27  1  0  0  0  0
 22 21  2  0  0  0  0
 23 24  2  0  0  0  0
 23 22  1  0  0  0  0
 24 25  1  0  0  0  0
 25  3  1  0  0  0  0
 25 26  2  0  0  0  0
 28 22  1  0  0  0  0
 29 23  1  0  0  0  0
M  END
>  <minimizedAffinity>
-4.98151779

$$$$

 OpenBabel03252506033D

 29 31  0  0  0  0  0  0  0  0999 V2000
   35.2340   28.5970   39.7010 Cl  0  0  0  0  0  0  0  0  0  0  0  0
   36.6370   29.5260   39.2950 C   0  0  0  0  0  0  0  0  0  0  0  0
   37.7350   29.5050   40.1030 C   0  0  0  0  0  0  0  0  0  0  0  0
   38.8170   30.2790   39.7020 C   0  0  0  0  0  0  0  0  0  0  0  0
   38.8360   31.0500   38.5560 C   0  0  0  0  0  0  0  0  0  0  0  0
   37.7140   31.0460   37.7670 C   0  0  0  0  0  0  0  0  0  0  0  0
   37.8090   32.0460   36.3300 Cl  0  0  0  0  0  0  0  0  0  0  0  0
   36.6290   30.2930   38.1330 C   0  0  0  0  0  0  0  0  0  0  0  0
   39.6810   30.2340   40.3810 H   0  0  0  0  0  0  0  0  0  0  0  0
   35.7730   30.3280   37.4760 H   0  0  0  0  0  0  0  0  0  0  0  0
   40.7870   29.3710   37.1470 Cl  0  0  0  0  0  0  0  0  0  0  0  0
   41.0330   31.0300   37.6650 C   0  0  0  0  0  0  0  0  0  0  0  0
   40.0910   31.7910   38.3270 C   0  0  0  0  0  0  0  0  0  0  0  0
   40.3680   33.0920   38.6990 C   0  0  0  0  0  0  0  0  0  0  0  0
   39.5550   33.5960   39.2130 H   0  0  0  0  0  0  0  0  0  0  0  0
   41.6040   33.6080   38.3940 C   0  0  0  0  0  3  0  0  0  0  0  0
   42.5470   32.8620   37.7380 C   0  0  0  0  0  0  0  0  0  0  0  0
   44.0910   33.6490   37.4100 Cl  0  0  0  0  0  0  0  0  0  0  0  0
   42.2900   31.5590   37.3570 C   0  0  0  0  0  0  0  0  0  0  0  0
   43.0640   31.0060   36.8400 H   0  0  0  0  0  0  0  0  0  0  0  0
   38.2500   26.6590   42.3520 C   0  0  0  0  0  0  0  0  0  0  0  0
   37.9120   27.1730   43.6030 C   0  0  0  0  0  0  0  0  0  0  0  0
   37.4990   28.5150   43.6780 C   0  0  0  0  0  0  0  0  0  0  0  0
   37.4530   29.2440   42.5280 N   0  0  0  0  0  0  0  0  0  0  0  0
   37.7890   28.7110   41.3360 C   0  0  0  0  0  0  0  0  0  0  0  0
   38.1870   27.4220   41.2490 N   0  0  0  0  0  0  0  0  0  0  0  0
   38.5630   25.6240   42.3320 H   0  0  0  0  0  0  0  0  0  0  0  0
   37.9270   26.6540   44.5390 H   0  0  0  0  0  0  0  0  0  0  0  0
   37.2040   29.0670   44.5580 H   0  0  0  0  0  0  0  0  0  0  0  0
  2  1  1  0  0  0  0
  2  3  1  0  0  0  0
  3 25  1  0  0  0  0
  4  3  2  0  0  0  0
  4  9  1  0  0  0  0
  5  4  1  0  0  0  0
  6  8  1  0  0  0  0
  6  5  2  0  0  0  0
  7  6  1  0  0  0  0
  8  2  2  0  0  0  0
 10  8  1  0  0  0  0
 11 12  1  0  0  0  0
 12 13  1  0  0  0  0
 13  5  1  0  0  0  0
 13 14  2  0  0  0  0
 14 15  1  0  0  0  0
 16 14  1  0  0  0  0
 17 16  2  0  0  0  0
 18 17  1  0  0  0  0
 19 12  2  0  0  0  0
 19 17  1  0  0  0  0
 20 19  1  0  0  0  0
 21 22  1  0  0  0  0
 22 23  2  0  0  0  0
 22 28  1  0  0  0  0
 23 29  1  0  0  0  0
 24 23  1  0  0  0  0
 25 24  2  0  0  0  0
 26 25  1  0  0  0  0
 26 21  2  0  0  0  0
 27 21  1  0  0  0  0
M  END
>  <minimizedAffinity>
-4.93609238

$$$$

 OpenBabel03252506033D

 29 31  0  0  0  0  0  0  0  0999 V2000
   34.9830   28.3770   38.9650 Cl  0  0  0  0  0  0  0  0  0  0  0  0
   36.4530   27.7770   39.6540 C   0  0  0  0  0  0  0  0  0  0  0  0
   37.5010   28.6190   39.8830 C   0  0  0  0  0  0  0  0  0  0  0  0
   38.6420   28.0540   40.4390 C   0  0  0  0  0  0  0  0  0  0  0  0
   38.7660   26.7170   40.7620 C   0  0  0  0  0  0  0  0  0  0  0  0
   37.6910   25.9010   40.5180 C   0  0  0  0  0  0  0  0  0  0  0  0
   37.9210   24.2170   40.9540 Cl  0  0  0  0  0  0  0  0  0  0  0  0
   36.5500   26.4250   39.9700 C   0  0  0  0  0  0  0  0  0  0  0  0
   39.4620   28.7670   40.6070 H   0  0  0  0  0  0  0  0  0  0  0  0
   35.7360   25.7370   39.8000 H   0  0  0  0  0  0  0  0  0  0  0  0
   38.7570   27.1050   43.6710 Cl  0  0  0  0  0  0  0  0  0  0  0  0
   40.1000   26.5080   42.7110 C   0  0  0  0  0  0  0  0  0  0  0  0
   40.0690   26.3380   41.3420 C   0  0  0  0  0  0  0  0  0  0  0  0
   41.1730   25.8600   40.6640 C   0  0  0  0  0  0  0  0  0  0  0  0
   41.0360   25.7660   39.5900 H   0  0  0  0  0  0  0  0  0  0  0  0
   42.3020   25.5600   41.3870 C   0  0  0  0  0  3  0  0  0  0  0  0
   42.3450   25.7250   42.7460 C   0  0  0  0  0  0  0  0  0  0  0  0
   43.8570   25.3010   43.5480 Cl  0  0  0  0  0  0  0  0  0  0  0  0
   41.2510   26.2010   43.4430 C   0  0  0  0  0  0  0  0  0  0  0  0
   41.3290   26.3160   44.5160 H   0  0  0  0  0  0  0  0  0  0  0  0
   37.2460   32.2450   40.3390 C   0  0  0  0  0  0  0  0  0  0  0  0
   37.3290   32.7400   39.0380 C   0  0  0  0  0  0  0  0  0  0  0  0
   37.4740   31.8170   37.9880 C   0  0  0  0  0  0  0  0  0  0  0  0
   37.5270   30.4900   38.2930 N   0  0  0  0  0  0  0  0  0  0  0  0
   37.4430   30.0510   39.5650 C   0  0  0  0  0  0  0  0  0  0  0  0
   37.3030   30.9270   40.5850 N   0  0  0  0  0  0  0  0  0  0  0  0
   37.1340   32.9830   41.1220 H   0  0  0  0  0  0  0  0  0  0  0  0
   37.2940   33.7660   38.7350 H   0  0  0  0  0  0  0  0  0  0  0  0
   37.5540   32.0260   36.9320 H   0  0  0  0  0  0  0  0  0  0  0  0
  1  2  1  0  0  0  0
  2  3  2  0  0  0  0
  2  8  1  0  0  0  0
  3  4  1  0  0  0  0
  4  9  1  0  0  0  0
  4  5  2  0  0  0  0
  5 13  1  0  0  0  0
  6  5  1  0  0  0  0
  6  7  1  0  0  0  0
  8  6  2  0  0  0  0
 10  8  1  0  0  0  0
 12 19  1  0  0  0  0
 12 11  1  0  0  0  0
 13 12  2  0  0  0  0
 14 13  1  0  0  0  0
 14 16  2  0  0  0  0
 15 14  1  0  0  0  0
 16 17  1  0  0  0  0
 17 19  2  0  0  0  0
 17 18  1  0  0  0  0
 19 20  1  0  0  0  0
 21 26  1  0  0  0  0
 21 27  1  0  0  0  0
 22 21  2  0  0  0  0
 23 24  2  0  0  0  0
 23 22  1  0  0  0  0
 24 25  1  0  0  0  0
 25  3  1  0  0  0  0
 25 26  2  0  0  0  0
 28 22  1  0  0  0  0
 29 23  1  0  0  0  0
M  END
>  <minimizedAffinity>
-4.9181819

$$$$
