
 OpenBabel03252506353D

 34 36  0  0  1  0  0  0  0  0999 V2000
   43.1780   33.6510   38.9920 C   0  0  0  0  0  0  0  0  0  0  0  0
   42.2900   33.5680   37.9100 C   0  0  0  0  0  0  0  0  0  0  0  0
   41.2250   32.7200   37.9920 C   0  0  0  0  0  0  0  0  0  0  0  0
   41.1030   32.0060   39.1400 N   0  0  0  0  0  0  0  0  0  0  0  0
   41.9460   32.0890   40.1590 C   0  0  0  0  0  0  0  0  0  0  0  0
   42.9890   32.9070   40.1010 N   0  0  0  0  0  0  0  0  0  0  0  0
   41.7070   31.2850   41.3110 N   0  0  0  0  0  0  0  0  0  0  0  0
   42.3480   31.4770   42.5990 C   0  0  0  0  0  0  0  0  0  0  0  0
   42.5420   30.0380   43.0530 C   0  0  0  0  0  0  0  0  0  0  0  0
   41.7490   29.1690   42.1310 C   0  0  0  0  0  0  0  0  0  0  0  0
   40.8160   30.1540   41.4430 C   0  0  1  0  0  0  0  0  0  0  0  0
   44.0310   34.3400   38.9080 H   0  0  0  0  0  0  0  0  0  0  0  0
   40.5480   32.6510   37.1760 H   0  0  0  0  0  0  0  0  0  0  0  0
   41.6780   32.0380   43.2720 H   0  0  0  0  0  0  0  0  0  0  0  0
   43.3340   31.9280   42.4680 H   0  0  0  0  0  0  0  0  0  0  0  0
   43.6080   29.7590   43.1440 H   0  0  0  0  0  0  0  0  0  0  0  0
   42.0820   29.9710   44.0820 H   0  0  0  0  0  0  0  0  0  0  0  0
   41.2330   28.3270   42.6060 H   0  0  0  0  0  0  0  0  0  0  0  0
   42.4260   28.7760   41.3280 H   0  0  0  0  0  0  0  0  0  0  0  0
   40.5000   29.8100   40.4520 H   0  0  0  0  0  0  0  0  0  0  0  0
   42.5750   34.3990   36.7710 N   0  0  0  0  0  0  0  0  0  0  0  0
   43.5150   34.4020   36.3350 H   0  0  0  0  0  0  0  0  0  0  0  0
   41.7450   34.9560   36.4790 H   0  0  0  0  0  0  0  0  0  0  0  0
   39.4410   30.4950   42.5620 S   0  0  0  0  0  0  0  0  0  0  0  0
   37.8310   27.9270   43.1590 Cl  0  0  0  0  0  0  0  0  0  0  0  0
   37.2750   29.0700   41.9300 C   0  0  0  0  0  0  0  0  0  0  0  0
   37.9440   30.2500   41.6030 C   0  0  0  0  0  0  0  0  0  0  0  0
   37.4250   31.0760   40.6290 C   0  0  0  0  0  0  0  0  0  0  0  0
   38.0180   31.9610   40.4520 H   0  0  0  0  0  0  0  0  0  0  0  0
   36.2620   30.7270   39.9960 C   0  0  0  0  0  3  0  0  0  0  0  0
   35.5940   29.5610   40.3140 C   0  0  0  0  0  0  0  0  0  0  0  0
   34.1060   29.1260   39.4970 Cl  0  0  0  0  0  0  0  0  0  0  0  0
   36.1010   28.7120   41.2970 C   0  0  0  0  0  0  0  0  0  0  0  0
   35.5570   27.7900   41.5370 H   0  0  0  0  0  0  0  0  0  0  0  0
  1  6  1  0  0  0  0
  2  3  1  0  0  0  0
  2  1  2  0  0  0  0
  3  4  2  0  0  0  0
  4  5  1  0  0  0  0
  5  7  1  0  0  0  0
  6  5  2  0  0  0  0
  7 11  1  0  0  0  0
  7  8  1  0  0  0  0
  8  9  1  0  0  0  0
  8 14  1  0  0  0  0
  9 16  1  0  0  0  0
  9 17  1  0  0  0  0
 10 18  1  0  0  0  0
 10  9  1  0  0  0  0
 11 20  1  6  0  0  0
 11 10  1  0  0  0  0
 11 24  1  0  0  0  0
 12  1  1  0  0  0  0
 13  3  1  0  0  0  0
 15  8  1  0  0  0  0
 19 10  1  0  0  0  0
 21  2  1  0  0  0  0
 22 21  1  0  0  0  0
 23 21  1  0  0  0  0
 26 25  1  0  0  0  0
 27 26  1  0  0  0  0
 27 24  1  0  0  0  0
 28 27  2  0  0  0  0
 29 28  1  0  0  0  0
 30 31  2  0  0  0  0
 30 28  1  0  0  0  0
 31 33  1  0  0  0  0
 32 31  1  0  0  0  0
 33 34  1  0  0  0  0
 33 26  2  0  0  0  0
M  END
>  <minimizedAffinity>
-5.76277018

$$$$

 OpenBabel03252506353D

 34 36  0  0  1  0  0  0  0  0999 V2000
   41.5650   34.0310   38.8510 C   0  0  0  0  0  0  0  0  0  0  0  0
   41.9640   33.5310   37.6030 C   0  0  0  0  0  0  0  0  0  0  0  0
   41.6700   32.2380   37.2840 C   0  0  0  0  0  0  0  0  0  0  0  0
   41.0000   31.5190   38.2190 N   0  0  0  0  0  0  0  0  0  0  0  0
   40.6260   31.9970   39.3970 C   0  0  0  0  0  0  0  0  0  0  0  0
   40.9010   33.2510   39.7290 N   0  0  0  0  0  0  0  0  0  0  0  0
   39.9260   31.1380   40.2940 N   0  0  0  0  0  0  0  0  0  0  0  0
   39.2000   31.5840   41.4680 C   0  0  0  0  0  0  0  0  0  0  0  0
   39.5010   30.4610   42.4490 C   0  0  0  0  0  0  0  0  0  0  0  0
   40.1260   29.3470   41.6740 C   0  0  0  0  0  0  0  0  0  0  0  0
   39.7930   29.6990   40.2320 C   0  0  1  0  0  0  0  0  0  0  0  0
   41.8100   35.0760   39.0920 H   0  0  0  0  0  0  0  0  0  0  0  0
   41.9690   31.8530   36.3410 H   0  0  0  0  0  0  0  0  0  0  0  0
   38.1240   31.6580   41.2390 H   0  0  0  0  0  0  0  0  0  0  0  0
   39.6410   32.5040   41.8580 H   0  0  0  0  0  0  0  0  0  0  0  0
   40.0910   30.8020   43.3200 H   0  0  0  0  0  0  0  0  0  0  0  0
   38.5000   30.1060   42.8320 H   0  0  0  0  0  0  0  0  0  0  0  0
   39.8140   28.3380   41.9670 H   0  0  0  0  0  0  0  0  0  0  0  0
   41.2410   29.4240   41.7580 H   0  0  0  0  0  0  0  0  0  0  0  0
   40.5180   29.2870   39.5210 H   0  0  0  0  0  0  0  0  0  0  0  0
   42.6670   34.4380   36.7350 N   0  0  0  0  0  0  0  0  0  0  0  0
   43.4880   34.9720   37.0750 H   0  0  0  0  0  0  0  0  0  0  0  0
   42.2480   34.4680   35.7830 H   0  0  0  0  0  0  0  0  0  0  0  0
   38.0920   29.1840   39.9100 S   0  0  0  0  0  0  0  0  0  0  0  0
   36.4710   27.9940   42.2540 Cl  0  0  0  0  0  0  0  0  0  0  0  0
   37.3260   26.9350   41.1250 C   0  0  0  0  0  0  0  0  0  0  0  0
   38.0780   27.3940   40.0430 C   0  0  0  0  0  0  0  0  0  0  0  0
   38.7080   26.4840   39.2200 C   0  0  0  0  0  0  0  0  0  0  0  0
   39.2630   26.9420   38.4150 H   0  0  0  0  0  0  0  0  0  0  0  0
   38.5860   25.1450   39.4760 C   0  0  0  0  0  3  0  0  0  0  0  0
   37.8430   24.6830   40.5450 C   0  0  0  0  0  0  0  0  0  0  0  0
   37.6950   22.9650   40.8610 Cl  0  0  0  0  0  0  0  0  0  0  0  0
   37.1980   25.5860   41.3900 C   0  0  0  0  0  0  0  0  0  0  0  0
   36.6130   25.2010   42.2330 H   0  0  0  0  0  0  0  0  0  0  0  0
  1 12  1  0  0  0  0
  1  6  1  0  0  0  0
  2  1  2  0  0  0  0
  3  2  1  0  0  0  0
  3  4  2  0  0  0  0
  4  5  1  0  0  0  0
  5  6  2  0  0  0  0
  5  7  1  0  0  0  0
  7  8  1  0  0  0  0
  8 15  1  0  0  0  0
  8  9  1  0  0  0  0
  9 17  1  0  0  0  0
  9 16  1  0  0  0  0
 10 19  1  0  0  0  0
 10 18  1  0  0  0  0
 10  9  1  0  0  0  0
 11 20  1  6  0  0  0
 11  7  1  0  0  0  0
 11 10  1  0  0  0  0
 13  3  1  0  0  0  0
 14  8  1  0  0  0  0
 21 22  1  0  0  0  0
 21  2  1  0  0  0  0
 23 21  1  0  0  0  0
 24 27  1  0  0  0  0
 24 11  1  0  0  0  0
 26 33  1  0  0  0  0
 26 25  1  0  0  0  0
 27 26  2  0  0  0  0
 28 30  2  0  0  0  0
 28 27  1  0  0  0  0
 29 28  1  0  0  0  0
 30 31  1  0  0  0  0
 31 32  1  0  0  0  0
 31 33  2  0  0  0  0
 33 34  1  0  0  0  0
M  END
>  <minimizedAffinity>
-5.56092501

$$$$

 OpenBabel03252506353D

 34 36  0  0  1  0  0  0  0  0999 V2000
   42.7090   26.5280   42.0010 C   0  0  0  0  0  0  0  0  0  0  0  0
   42.3590   25.8070   43.1520 C   0  0  0  0  0  0  0  0  0  0  0  0
   41.2610   26.1890   43.8640 C   0  0  0  0  0  0  0  0  0  0  0  0
   40.5750   27.2610   43.3940 N   0  0  0  0  0  0  0  0  0  0  0  0
   40.9090   27.9380   42.3050 C   0  0  0  0  0  0  0  0  0  0  0  0
   41.9740   27.5850   41.5970 N   0  0  0  0  0  0  0  0  0  0  0  0
   40.1040   29.0480   41.9150 N   0  0  0  0  0  0  0  0  0  0  0  0
   40.1580   29.6910   40.6150 C   0  0  0  0  0  0  0  0  0  0  0  0
   39.9550   31.1500   40.9960 C   0  0  0  0  0  0  0  0  0  0  0  0
   39.5240   31.1820   42.4260 C   0  0  0  0  0  0  0  0  0  0  0  0
   39.1040   29.7450   42.6940 C   0  0  1  0  0  0  0  0  0  0  0  0
   43.5970   26.2060   41.4390 H   0  0  0  0  0  0  0  0  0  0  0  0
   40.9910   25.6480   44.7370 H   0  0  0  0  0  0  0  0  0  0  0  0
   39.3440   29.3120   39.9750 H   0  0  0  0  0  0  0  0  0  0  0  0
   41.1550   29.5880   40.1830 H   0  0  0  0  0  0  0  0  0  0  0  0
   40.8380   31.7770   40.7670 H   0  0  0  0  0  0  0  0  0  0  0  0
   39.0980   31.5210   40.3610 H   0  0  0  0  0  0  0  0  0  0  0  0
   38.7520   31.9210   42.6680 H   0  0  0  0  0  0  0  0  0  0  0  0
   40.4210   31.3660   43.0740 H   0  0  0  0  0  0  0  0  0  0  0  0
   39.1960   29.4710   43.7510 H   0  0  0  0  0  0  0  0  0  0  0  0
   43.2040   24.6960   43.5030 N   0  0  0  0  0  0  0  0  0  0  0  0
   44.2320   24.8090   43.5680 H   0  0  0  0  0  0  0  0  0  0  0  0
   42.6550   23.8270   43.6670 H   0  0  0  0  0  0  0  0  0  0  0  0
   37.4410   29.5160   42.0310 S   0  0  0  0  0  0  0  0  0  0  0  0
   37.0690   28.6370   39.0930 Cl  0  0  0  0  0  0  0  0  0  0  0  0
   37.0930   27.4380   40.3920 C   0  0  0  0  0  0  0  0  0  0  0  0
   37.2560   27.7540   41.7420 C   0  0  0  0  0  0  0  0  0  0  0  0
   37.2610   26.7430   42.6790 C   0  0  0  0  0  0  0  0  0  0  0  0
   37.3930   27.0930   43.6920 H   0  0  0  0  0  0  0  0  0  0  0  0
   37.1060   25.4440   42.2720 C   0  0  0  0  0  3  0  0  0  0  0  0
   36.9440   25.1240   40.9390 C   0  0  0  0  0  0  0  0  0  0  0  0
   36.7470   23.4580   40.4330 Cl  0  0  0  0  0  0  0  0  0  0  0  0
   36.9360   26.1310   39.9750 C   0  0  0  0  0  0  0  0  0  0  0  0
   36.8070   25.8580   38.9210 H   0  0  0  0  0  0  0  0  0  0  0  0
  1  2  1  0  0  0  0
  2 21  1  0  0  0  0
  2  3  2  0  0  0  0
  3 13  1  0  0  0  0
  4  3  1  0  0  0  0
  5  4  2  0  0  0  0
  6  1  2  0  0  0  0
  6  5  1  0  0  0  0
  7  5  1  0  0  0  0
  7 11  1  0  0  0  0
  8  9  1  0  0  0  0
  8  7  1  0  0  0  0
  9 10  1  0  0  0  0
 10 18  1  0  0  0  0
 10 11  1  0  0  0  0
 10 19  1  0  0  0  0
 11 20  1  1  0  0  0
 12  1  1  0  0  0  0
 14  8  1  0  0  0  0
 15  8  1  0  0  0  0
 16  9  1  0  0  0  0
 17  9  1  0  0  0  0
 21 22  1  0  0  0  0
 21 23  1  0  0  0  0
 24 11  1  0  0  0  0
 25 26  1  0  0  0  0
 26 27  1  0  0  0  0
 27 24  1  0  0  0  0
 27 28  2  0  0  0  0
 28 29  1  0  0  0  0
 30 28  1  0  0  0  0
 31 30  2  0  0  0  0
 32 31  1  0  0  0  0
 33 26  2  0  0  0  0
 33 31  1  0  0  0  0
 34 33  1  0  0  0  0
M  END
>  <minimizedAffinity>
-5.38788176

$$$$

 OpenBabel03252506353D

 34 36  0  0  1  0  0  0  0  0999 V2000
   38.5960   27.7870   36.5210 C   0  0  0  0  0  0  0  0  0  0  0  0
   37.4410   28.4830   36.1380 C   0  0  0  0  0  0  0  0  0  0  0  0
   36.4700   28.7160   37.0670 C   0  0  0  0  0  0  0  0  0  0  0  0
   36.7020   28.2470   38.3190 N   0  0  0  0  0  0  0  0  0  0  0  0
   37.7960   27.5890   38.6750 C   0  0  0  0  0  0  0  0  0  0  0  0
   38.7530   27.3510   37.7880 N   0  0  0  0  0  0  0  0  0  0  0  0
   37.9200   27.1470   40.0240 N   0  0  0  0  0  0  0  0  0  0  0  0
   39.1550   26.6910   40.6340 C   0  0  0  0  0  0  0  0  0  0  0  0
   38.6510   25.5630   41.5210 C   0  0  0  0  0  0  0  0  0  0  0  0
   37.1610   25.6580   41.5590 C   0  0  0  0  0  0  0  0  0  0  0  0
   36.8890   27.0590   41.0350 C   0  0  1  0  0  0  0  0  0  0  0  0
   39.3690   27.6080   35.7590 H   0  0  0  0  0  0  0  0  0  0  0  0
   35.5930   29.2430   36.7840 H   0  0  0  0  0  0  0  0  0  0  0  0
   39.6100   27.5080   41.2190 H   0  0  0  0  0  0  0  0  0  0  0  0
   39.8140   26.2600   39.8770 H   0  0  0  0  0  0  0  0  0  0  0  0
   39.0420   24.5740   41.2160 H   0  0  0  0  0  0  0  0  0  0  0  0
   39.0450   25.7820   42.5560 H   0  0  0  0  0  0  0  0  0  0  0  0
   36.7010   25.4530   42.5330 H   0  0  0  0  0  0  0  0  0  0  0  0
   36.7300   24.9560   40.7980 H   0  0  0  0  0  0  0  0  0  0  0  0
   35.9010   27.1490   40.5690 H   0  0  0  0  0  0  0  0  0  0  0  0
   37.3640   28.9080   34.7650 N   0  0  0  0  0  0  0  0  0  0  0  0
   37.5340   28.2400   33.9910 H   0  0  0  0  0  0  0  0  0  0  0  0
   37.1290   29.9190   34.6840 H   0  0  0  0  0  0  0  0  0  0  0  0
   37.1580   28.2240   42.3870 S   0  0  0  0  0  0  0  0  0  0  0  0
   39.9480   29.5290   42.6160 Cl  0  0  0  0  0  0  0  0  0  0  0  0
   38.6350   30.3610   41.7730 C   0  0  0  0  0  0  0  0  0  0  0  0
   37.3490   29.8380   41.6260 C   0  0  0  0  0  0  0  0  0  0  0  0
   36.3940   30.5670   40.9490 C   0  0  0  0  0  0  0  0  0  0  0  0
   35.4350   30.0750   40.8930 H   0  0  0  0  0  0  0  0  0  0  0  0
   36.7210   31.7920   40.4300 C   0  0  0  0  0  3  0  0  0  0  0  0
   37.9910   32.3150   40.5700 C   0  0  0  0  0  0  0  0  0  0  0  0
   38.3970   33.8830   39.9010 Cl  0  0  0  0  0  0  0  0  0  0  0  0
   38.9720   31.5940   41.2520 C   0  0  0  0  0  0  0  0  0  0  0  0
   39.9750   32.0250   41.3530 H   0  0  0  0  0  0  0  0  0  0  0  0
  1  6  1  0  0  0  0
  2  1  2  0  0  0  0
  2  3  1  0  0  0  0
  3  4  2  0  0  0  0
  4  5  1  0  0  0  0
  5  7  1  0  0  0  0
  6  5  2  0  0  0  0
  7  8  1  0  0  0  0
  7 11  1  0  0  0  0
  8 14  1  0  0  0  0
  8  9  1  0  0  0  0
  9 10  1  0  0  0  0
  9 17  1  0  0  0  0
 10 18  1  0  0  0  0
 11 20  1  6  0  0  0
 11 10  1  0  0  0  0
 11 24  1  0  0  0  0
 12  1  1  0  0  0  0
 13  3  1  0  0  0  0
 15  8  1  0  0  0  0
 16  9  1  0  0  0  0
 19 10  1  0  0  0  0
 21  2  1  0  0  0  0
 22 21  1  0  0  0  0
 23 21  1  0  0  0  0
 26 25  1  0  0  0  0
 27 26  1  0  0  0  0
 27 24  1  0  0  0  0
 28 27  2  0  0  0  0
 29 28  1  0  0  0  0
 30 31  2  0  0  0  0
 30 28  1  0  0  0  0
 31 33  1  0  0  0  0
 32 31  1  0  0  0  0
 33 34  1  0  0  0  0
 33 26  2  0  0  0  0
M  END
>  <minimizedAffinity>
-5.35343695

$$$$

 OpenBabel03252506353D

 34 36  0  0  1  0  0  0  0  0999 V2000
   37.2780   29.8320   36.8710 C   0  0  0  0  0  0  0  0  0  0  0  0
   37.9940   28.6320   36.7580 C   0  0  0  0  0  0  0  0  0  0  0  0
   38.9140   28.3170   37.7140 C   0  0  0  0  0  0  0  0  0  0  0  0
   39.0690   29.2100   38.7250 N   0  0  0  0  0  0  0  0  0  0  0  0
   38.3890   30.3420   38.8270 C   0  0  0  0  0  0  0  0  0  0  0  0
   37.4890   30.6680   37.9090 N   0  0  0  0  0  0  0  0  0  0  0  0
   38.6450   31.1960   39.9390 N   0  0  0  0  0  0  0  0  0  0  0  0
   37.7930   32.2970   40.3490 C   0  0  0  0  0  0  0  0  0  0  0  0
   38.8250   33.3230   40.7920 C   0  0  0  0  0  0  0  0  0  0  0  0
   40.1440   32.6260   40.8670 C   0  0  0  0  0  0  0  0  0  0  0  0
   39.7590   31.1540   40.8610 C   0  0  1  0  0  0  0  0  0  0  0  0
   36.5400   30.0700   36.0920 H   0  0  0  0  0  0  0  0  0  0  0  0
   39.4600   27.4100   37.6350 H   0  0  0  0  0  0  0  0  0  0  0  0
   37.1400   31.9790   41.1780 H   0  0  0  0  0  0  0  0  0  0  0  0
   37.2590   32.7030   39.4860 H   0  0  0  0  0  0  0  0  0  0  0  0
   38.8200   34.2320   40.1620 H   0  0  0  0  0  0  0  0  0  0  0  0
   38.5280   33.6300   41.8380 H   0  0  0  0  0  0  0  0  0  0  0  0
   40.7800   32.9130   41.7110 H   0  0  0  0  0  0  0  0  0  0  0  0
   40.7040   32.8000   39.9110 H   0  0  0  0  0  0  0  0  0  0  0  0
   40.5520   30.5140   40.4590 H   0  0  0  0  0  0  0  0  0  0  0  0
   37.6990   27.8050   35.6170 N   0  0  0  0  0  0  0  0  0  0  0  0
   37.7000   28.2000   34.6590 H   0  0  0  0  0  0  0  0  0  0  0  0
   37.4990   26.8220   35.8920 H   0  0  0  0  0  0  0  0  0  0  0  0
   39.2450   30.7040   42.5320 S   0  0  0  0  0  0  0  0  0  0  0  0
   41.0000   28.2310   43.1170 Cl  0  0  0  0  0  0  0  0  0  0  0  0
   39.3000   28.0400   42.6730 C   0  0  0  0  0  0  0  0  0  0  0  0
   38.4420   29.1050   42.3950 C   0  0  0  0  0  0  0  0  0  0  0  0
   37.1300   28.8490   42.0580 C   0  0  0  0  0  0  0  0  0  0  0  0
   36.5520   29.7400   41.8620 H   0  0  0  0  0  0  0  0  0  0  0  0
   36.6870   27.5540   42.0020 C   0  0  0  0  0  3  0  0  0  0  0  0
   37.5290   26.4950   42.2770 C   0  0  0  0  0  0  0  0  0  0  0  0
   36.9490   24.8430   42.2010 Cl  0  0  0  0  0  0  0  0  0  0  0  0
   38.8600   26.7320   42.6190 C   0  0  0  0  0  0  0  0  0  0  0  0
   39.5150   25.8790   42.8340 H   0  0  0  0  0  0  0  0  0  0  0  0
  1  6  1  0  0  0  0
  2  1  2  0  0  0  0
  2  3  1  0  0  0  0
  3  4  2  0  0  0  0
  4  5  1  0  0  0  0
  5  7  1  0  0  0  0
  6  5  2  0  0  0  0
  7  8  1  0  0  0  0
  7 11  1  0  0  0  0
  8  9  1  0  0  0  0
  8 14  1  0  0  0  0
  9 10  1  0  0  0  0
  9 17  1  0  0  0  0
 10 18  1  0  0  0  0
 11 20  1  6  0  0  0
 11 10  1  0  0  0  0
 11 24  1  0  0  0  0
 12  1  1  0  0  0  0
 13  3  1  0  0  0  0
 15  8  1  0  0  0  0
 16  9  1  0  0  0  0
 19 10  1  0  0  0  0
 21 23  1  0  0  0  0
 21  2  1  0  0  0  0
 22 21  1  0  0  0  0
 26 25  1  0  0  0  0
 27 24  1  0  0  0  0
 27 26  2  0  0  0  0
 28 27  1  0  0  0  0
 29 28  1  0  0  0  0
 30 28  2  0  0  0  0
 30 31  1  0  0  0  0
 31 33  2  0  0  0  0
 32 31  1  0  0  0  0
 33 26  1  0  0  0  0
 33 34  1  0  0  0  0
M  END
>  <minimizedAffinity>
-5.27951908

$$$$

 OpenBabel03252506353D

 34 36  0  0  1  0  0  0  0  0999 V2000
   37.1290   30.3400   36.4460 C   0  0  0  0  0  0  0  0  0  0  0  0
   37.6250   29.0470   36.2230 C   0  0  0  0  0  0  0  0  0  0  0  0
   38.3530   28.4400   37.2040 C   0  0  0  0  0  0  0  0  0  0  0  0
   38.5440   29.1480   38.3460 N   0  0  0  0  0  0  0  0  0  0  0  0
   38.0730   30.3690   38.5500 C   0  0  0  0  0  0  0  0  0  0  0  0
   37.3630   30.9800   37.6100 N   0  0  0  0  0  0  0  0  0  0  0  0
   38.3440   31.0080   39.7950 N   0  0  0  0  0  0  0  0  0  0  0  0
   37.6620   32.1930   40.2820 C   0  0  0  0  0  0  0  0  0  0  0  0
   38.8020   32.9330   40.9660 C   0  0  0  0  0  0  0  0  0  0  0  0
   39.9550   31.9870   41.0590 C   0  0  0  0  0  0  0  0  0  0  0  0
   39.3140   30.6320   40.8000 C   0  0  1  0  0  0  0  0  0  0  0  0
   36.5440   30.8140   35.6450 H   0  0  0  0  0  0  0  0  0  0  0  0
   38.7320   27.4610   37.0420 H   0  0  0  0  0  0  0  0  0  0  0  0
   36.8680   31.9050   40.9910 H   0  0  0  0  0  0  0  0  0  0  0  0
   37.3170   32.8020   39.4430 H   0  0  0  0  0  0  0  0  0  0  0  0
   39.0370   33.8980   40.4790 H   0  0  0  0  0  0  0  0  0  0  0  0
   38.4430   33.1550   42.0130 H   0  0  0  0  0  0  0  0  0  0  0  0
   40.5280   32.0350   41.9920 H   0  0  0  0  0  0  0  0  0  0  0  0
   40.6470   32.1690   40.1960 H   0  0  0  0  0  0  0  0  0  0  0  0
   40.0210   29.9060   40.3840 H   0  0  0  0  0  0  0  0  0  0  0  0
   37.3240   28.4470   34.9510 N   0  0  0  0  0  0  0  0  0  0  0  0
   37.5100   28.9520   34.0660 H   0  0  0  0  0  0  0  0  0  0  0  0
   36.9180   27.4940   35.0570 H   0  0  0  0  0  0  0  0  0  0  0  0
   38.5320   30.0820   42.3320 S   0  0  0  0  0  0  0  0  0  0  0  0
   35.9700   28.8440   41.1290 Cl  0  0  0  0  0  0  0  0  0  0  0  0
   37.2880   27.8090   41.6940 C   0  0  0  0  0  0  0  0  0  0  0  0
   38.4750   28.2900   42.2480 C   0  0  0  0  0  0  0  0  0  0  0  0
   39.4420   27.3970   42.6580 C   0  0  0  0  0  0  0  0  0  0  0  0
   40.3200   27.8720   43.0720 H   0  0  0  0  0  0  0  0  0  0  0  0
   39.2250   26.0530   42.5160 C   0  0  0  0  0  3  0  0  0  0  0  0
   38.0530   25.5690   41.9680 C   0  0  0  0  0  0  0  0  0  0  0  0
   37.7880   23.8460   41.7920 Cl  0  0  0  0  0  0  0  0  0  0  0  0
   37.0610   26.4540   41.5470 C   0  0  0  0  0  0  0  0  0  0  0  0
   36.1380   26.0530   41.1150 H   0  0  0  0  0  0  0  0  0  0  0  0
  1  6  1  0  0  0  0
  2  1  2  0  0  0  0
  2  3  1  0  0  0  0
  3  4  2  0  0  0  0
  4  5  1  0  0  0  0
  5  7  1  0  0  0  0
  6  5  2  0  0  0  0
  7  8  1  0  0  0  0
  7 11  1  0  0  0  0
  8  9  1  0  0  0  0
  8 14  1  0  0  0  0
  9 10  1  0  0  0  0
  9 17  1  0  0  0  0
 10 18  1  0  0  0  0
 11 20  1  6  0  0  0
 11 10  1  0  0  0  0
 11 24  1  0  0  0  0
 12  1  1  0  0  0  0
 13  3  1  0  0  0  0
 15  8  1  0  0  0  0
 16  9  1  0  0  0  0
 19 10  1  0  0  0  0
 21 23  1  0  0  0  0
 21  2  1  0  0  0  0
 22 21  1  0  0  0  0
 25 26  1  0  0  0  0
 26 27  1  0  0  0  0
 27 24  1  0  0  0  0
 27 28  2  0  0  0  0
 28 29  1  0  0  0  0
 30 28  1  0  0  0  0
 31 30  2  0  0  0  0
 32 31  1  0  0  0  0
 33 26  2  0  0  0  0
 33 31  1  0  0  0  0
 34 33  1  0  0  0  0
M  END
>  <minimizedAffinity>
-5.2473793

$$$$

 OpenBabel03252506353D

 34 36  0  0  1  0  0  0  0  0999 V2000
   38.8350   27.9170   36.4450 C   0  0  0  0  0  0  0  0  0  0  0  0
   37.5610   28.3430   36.0440 C   0  0  0  0  0  0  0  0  0  0  0  0
   36.5370   28.3090   36.9450 C   0  0  0  0  0  0  0  0  0  0  0  0
   36.8370   27.8560   38.1880 N   0  0  0  0  0  0  0  0  0  0  0  0
   38.0430   27.4550   38.5620 C   0  0  0  0  0  0  0  0  0  0  0  0
   39.0540   27.4790   37.7030 N   0  0  0  0  0  0  0  0  0  0  0  0
   38.2290   27.0000   39.9000 N   0  0  0  0  0  0  0  0  0  0  0  0
   39.5190   26.8170   40.5390 C   0  0  0  0  0  0  0  0  0  0  0  0
   39.2660   25.5690   41.3700 C   0  0  0  0  0  0  0  0  0  0  0  0
   37.7930   25.3160   41.3580 C   0  0  0  0  0  0  0  0  0  0  0  0
   37.2190   26.6370   40.8690 C   0  0  1  0  0  0  0  0  0  0  0  0
   39.6480   27.9510   35.7070 H   0  0  0  0  0  0  0  0  0  0  0  0
   35.5700   28.6300   36.6480 H   0  0  0  0  0  0  0  0  0  0  0  0
   39.7560   27.6930   41.1650 H   0  0  0  0  0  0  0  0  0  0  0  0
   40.2810   26.5790   39.7920 H   0  0  0  0  0  0  0  0  0  0  0  0
   39.8830   24.7090   41.0480 H   0  0  0  0  0  0  0  0  0  0  0  0
   39.5690   25.8310   42.4260 H   0  0  0  0  0  0  0  0  0  0  0  0
   37.3670   24.9720   42.3080 H   0  0  0  0  0  0  0  0  0  0  0  0
   37.5580   24.5650   40.5590 H   0  0  0  0  0  0  0  0  0  0  0  0
   36.2510   26.5150   40.3720 H   0  0  0  0  0  0  0  0  0  0  0  0
   37.4260   28.7930   34.6840 N   0  0  0  0  0  0  0  0  0  0  0  0
   37.7670   28.2130   33.8950 H   0  0  0  0  0  0  0  0  0  0  0  0
   36.9650   29.7240   34.6270 H   0  0  0  0  0  0  0  0  0  0  0  0
   37.1740   27.7780   42.2680 S   0  0  0  0  0  0  0  0  0  0  0  0
   34.8360   29.0310   40.6850 Cl  0  0  0  0  0  0  0  0  0  0  0  0
   36.3560   29.9100   40.8870 C   0  0  0  0  0  0  0  0  0  0  0  0
   37.4570   29.4140   41.5870 C   0  0  0  0  0  0  0  0  0  0  0  0
   38.5980   30.1810   41.6870 C   0  0  0  0  0  0  0  0  0  0  0  0
   39.3900   29.7070   42.2480 H   0  0  0  0  0  0  0  0  0  0  0  0
   38.6350   31.4170   41.0990 C   0  0  0  0  0  3  0  0  0  0  0  0
   37.5500   31.9150   40.4060 C   0  0  0  0  0  0  0  0  0  0  0  0
   37.6110   33.4990   39.6580 Cl  0  0  0  0  0  0  0  0  0  0  0  0
   36.3860   31.1560   40.2920 C   0  0  0  0  0  0  0  0  0  0  0  0
   35.5340   31.5670   39.7370 H   0  0  0  0  0  0  0  0  0  0  0  0
  1  6  1  0  0  0  0
  2  1  2  0  0  0  0
  2  3  1  0  0  0  0
  3  4  2  0  0  0  0
  4  5  1  0  0  0  0
  5  7  1  0  0  0  0
  6  5  2  0  0  0  0
  7  8  1  0  0  0  0
  7 11  1  0  0  0  0
  8 14  1  0  0  0  0
  8  9  1  0  0  0  0
  9 17  1  0  0  0  0
 10  9  1  0  0  0  0
 10 18  1  0  0  0  0
 11 20  1  6  0  0  0
 11 10  1  0  0  0  0
 11 24  1  0  0  0  0
 12  1  1  0  0  0  0
 13  3  1  0  0  0  0
 15  8  1  0  0  0  0
 16  9  1  0  0  0  0
 19 10  1  0  0  0  0
 21  2  1  0  0  0  0
 22 21  1  0  0  0  0
 23 21  1  0  0  0  0
 25 26  1  0  0  0  0
 26 27  1  0  0  0  0
 27 28  2  0  0  0  0
 27 24  1  0  0  0  0
 28 29  1  0  0  0  0
 30 28  1  0  0  0  0
 31 30  2  0  0  0  0
 32 31  1  0  0  0  0
 33 31  1  0  0  0  0
 33 26  2  0  0  0  0
 34 33  1  0  0  0  0
M  END
>  <minimizedAffinity>
-5.19581127

$$$$

 OpenBabel03252506353D

 34 36  0  0  1  0  0  0  0  0999 V2000
   41.1740   29.2500   37.5150 C   0  0  0  0  0  0  0  0  0  0  0  0
   41.7710   28.4980   38.5370 C   0  0  0  0  0  0  0  0  0  0  0  0
   41.2270   28.5310   39.7880 C   0  0  0  0  0  0  0  0  0  0  0  0
   40.1250   29.3060   39.9500 N   0  0  0  0  0  0  0  0  0  0  0  0
   39.5650   30.0140   38.9810 C   0  0  0  0  0  0  0  0  0  0  0  0
   40.0770   29.9970   37.7570 N   0  0  0  0  0  0  0  0  0  0  0  0
   38.4070   30.7900   39.2810 N   0  0  0  0  0  0  0  0  0  0  0  0
   37.5190   31.3670   38.2880 C   0  0  0  0  0  0  0  0  0  0  0  0
   37.1670   32.6960   38.9400 C   0  0  0  0  0  0  0  0  0  0  0  0
   37.6480   32.6400   40.3540 C   0  0  0  0  0  0  0  0  0  0  0  0
   37.8880   31.1550   40.5800 C   0  0  1  0  0  0  0  0  0  0  0  0
   41.6250   29.2110   36.5130 H   0  0  0  0  0  0  0  0  0  0  0  0
   41.6740   27.9650   40.5660 H   0  0  0  0  0  0  0  0  0  0  0  0
   36.6350   30.7220   38.1550 H   0  0  0  0  0  0  0  0  0  0  0  0
   38.0670   31.5750   37.3660 H   0  0  0  0  0  0  0  0  0  0  0  0
   37.5350   33.5650   38.3630 H   0  0  0  0  0  0  0  0  0  0  0  0
   36.0400   32.7460   38.9530 H   0  0  0  0  0  0  0  0  0  0  0  0
   36.9830   33.0990   41.0950 H   0  0  0  0  0  0  0  0  0  0  0  0
   38.6560   33.1270   40.4170 H   0  0  0  0  0  0  0  0  0  0  0  0
   38.6430   30.9650   41.3510 H   0  0  0  0  0  0  0  0  0  0  0  0
   42.9370   27.7330   38.1830 N   0  0  0  0  0  0  0  0  0  0  0  0
   43.7320   28.1730   37.6850 H   0  0  0  0  0  0  0  0  0  0  0  0
   42.8560   26.7400   38.4850 H   0  0  0  0  0  0  0  0  0  0  0  0
   36.2950   30.3770   40.9220 S   0  0  0  0  0  0  0  0  0  0  0  0
   36.0700   28.1890   38.7540 Cl  0  0  0  0  0  0  0  0  0  0  0  0
   36.5360   27.7700   40.4070 C   0  0  0  0  0  0  0  0  0  0  0  0
   36.6600   28.6980   41.4410 C   0  0  0  0  0  0  0  0  0  0  0  0
   37.0300   28.2680   42.6980 C   0  0  0  0  0  0  0  0  0  0  0  0
   37.0970   29.0640   43.4240 H   0  0  0  0  0  0  0  0  0  0  0  0
   37.2710   26.9370   42.9120 C   0  0  0  0  0  3  0  0  0  0  0  0
   37.1510   26.0130   41.8940 C   0  0  0  0  0  0  0  0  0  0  0  0
   37.4620   24.3120   42.1830 Cl  0  0  0  0  0  0  0  0  0  0  0  0
   36.7770   26.4260   40.6160 C   0  0  0  0  0  0  0  0  0  0  0  0
   36.6860   25.6780   39.8200 H   0  0  0  0  0  0  0  0  0  0  0  0
  1  6  2  0  0  0  0
  1  2  1  0  0  0  0
  2  3  2  0  0  0  0
  3  4  1  0  0  0  0
  3 13  1  0  0  0  0
  5  7  1  0  0  0  0
  5  4  2  0  0  0  0
  6  5  1  0  0  0  0
  7 11  1  0  0  0  0
  8  9  1  0  0  0  0
  8  7  1  0  0  0  0
  9 17  1  0  0  0  0
  9 10  1  0  0  0  0
 10 19  1  0  0  0  0
 10 11  1  0  0  0  0
 10 18  1  0  0  0  0
 11 24  1  0  0  0  0
 11 20  1  1  0  0  0
 12  1  1  0  0  0  0
 14  8  1  0  0  0  0
 15  8  1  0  0  0  0
 16  9  1  0  0  0  0
 21 23  1  0  0  0  0
 21  2  1  0  0  0  0
 22 21  1  0  0  0  0
 24 27  1  0  0  0  0
 25 26  1  0  0  0  0
 26 33  2  0  0  0  0
 26 27  1  0  0  0  0
 27 28  2  0  0  0  0
 28 30  1  0  0  0  0
 28 29  1  0  0  0  0
 31 32  1  0  0  0  0
 31 30  2  0  0  0  0
 33 31  1  0  0  0  0
 34 33  1  0  0  0  0
M  END
>  <minimizedAffinity>
-5.11145878

$$$$

 OpenBabel03252506353D

 34 36  0  0  1  0  0  0  0  0999 V2000
   40.1490   31.3310   37.3760 C   0  0  0  0  0  0  0  0  0  0  0  0
   40.5030   32.5530   37.9650 C   0  0  0  0  0  0  0  0  0  0  0  0
   39.9740   32.8810   39.1780 C   0  0  0  0  0  0  0  0  0  0  0  0
   39.1270   31.9790   39.7350 N   0  0  0  0  0  0  0  0  0  0  0  0
   38.7960   30.8250   39.1740 C   0  0  0  0  0  0  0  0  0  0  0  0
   39.2980   30.4860   37.9940 N   0  0  0  0  0  0  0  0  0  0  0  0
   37.8930   29.9630   39.8630 N   0  0  0  0  0  0  0  0  0  0  0  0
   37.6720   28.5670   39.5340 C   0  0  0  0  0  0  0  0  0  0  0  0
   36.1770   28.4360   39.7840 C   0  0  0  0  0  0  0  0  0  0  0  0
   35.7340   29.6720   40.4970 C   0  0  0  0  0  0  0  0  0  0  0  0
   37.0400   30.2770   40.9880 C   0  0  1  0  0  0  0  0  0  0  0  0
   40.5840   31.0830   36.3970 H   0  0  0  0  0  0  0  0  0  0  0  0
   40.2370   33.8050   39.6300 H   0  0  0  0  0  0  0  0  0  0  0  0
   38.2630   27.9240   40.2070 H   0  0  0  0  0  0  0  0  0  0  0  0
   37.8550   28.3950   38.4720 H   0  0  0  0  0  0  0  0  0  0  0  0
   35.6090   28.2080   38.8630 H   0  0  0  0  0  0  0  0  0  0  0  0
   36.0550   27.5610   40.4870 H   0  0  0  0  0  0  0  0  0  0  0  0
   34.9920   29.5180   41.2890 H   0  0  0  0  0  0  0  0  0  0  0  0
   35.3220   30.3980   39.7480 H   0  0  0  0  0  0  0  0  0  0  0  0
   36.9780   31.3630   41.1180 H   0  0  0  0  0  0  0  0  0  0  0  0
   41.4160   33.3870   37.2290 N   0  0  0  0  0  0  0  0  0  0  0  0
   41.2430   33.6190   36.2340 H   0  0  0  0  0  0  0  0  0  0  0  0
   42.2190   33.6950   37.8160 H   0  0  0  0  0  0  0  0  0  0  0  0
   37.5350   29.3970   42.4850 S   0  0  0  0  0  0  0  0  0  0  0  0
   39.3310   26.8910   42.6620 Cl  0  0  0  0  0  0  0  0  0  0  0  0
   40.0380   28.5100   42.7510 C   0  0  0  0  0  0  0  0  0  0  0  0
   39.2950   29.6890   42.6780 C   0  0  0  0  0  0  0  0  0  0  0  0
   39.9430   30.9040   42.7560 C   0  0  0  0  0  0  0  0  0  0  0  0
   39.2790   31.7530   42.6900 H   0  0  0  0  0  0  0  0  0  0  0  0
   41.3040   30.9350   42.9040 C   0  0  0  0  0  3  0  0  0  0  0  0
   42.0450   29.7730   42.9760 C   0  0  0  0  0  0  0  0  0  0  0  0
   43.7870   29.8280   43.1650 Cl  0  0  0  0  0  0  0  0  0  0  0  0
   41.4100   28.5330   42.8990 C   0  0  0  0  0  0  0  0  0  0  0  0
   42.0150   27.6210   42.9580 H   0  0  0  0  0  0  0  0  0  0  0  0
  1  2  2  0  0  0  0
  1  6  1  0  0  0  0
  2  3  1  0  0  0  0
  3 13  1  0  0  0  0
  3  4  2  0  0  0  0
  5  4  1  0  0  0  0
  5  7  1  0  0  0  0
  6  5  2  0  0  0  0
  7 11  1  0  0  0  0
  8  9  1  0  0  0  0
  8  7  1  0  0  0  0
  8 14  1  0  0  0  0
  9 17  1  0  0  0  0
  9 10  1  0  0  0  0
 10 11  1  0  0  0  0
 10 18  1  0  0  0  0
 11 20  1  1  0  0  0
 11 24  1  0  0  0  0
 12  1  1  0  0  0  0
 15  8  1  0  0  0  0
 16  9  1  0  0  0  0
 19 10  1  0  0  0  0
 21 23  1  0  0  0  0
 21  2  1  0  0  0  0
 22 21  1  0  0  0  0
 24 27  1  0  0  0  0
 25 26  1  0  0  0  0
 26 33  1  0  0  0  0
 27 26  2  0  0  0  0
 27 28  1  0  0  0  0
 28 30  2  0  0  0  0
 29 28  1  0  0  0  0
 30 31  1  0  0  0  0
 31 32  1  0  0  0  0
 33 34  1  0  0  0  0
 33 31  2  0  0  0  0
M  END
>  <minimizedAffinity>
-5.07507706

$$$$
