
 OpenBabel03252505403D

 29 31  0  0  1  0  0  0  0  0999 V2000
   44.8360   34.4440   43.3890 C   0  0  1  0  0  0  0  0  0  0  0  0
   45.5460   35.8150   43.2340 C   0  0  0  0  0  0  0  0  0  0  0  0
   45.1840   34.9860   42.0810 C   0  0  1  0  0  0  0  0  0  0  0  0
   43.8150   34.4950   43.8060 H   0  0  0  0  0  0  0  0  0  0  0  0
   44.8720   36.6670   43.5490 H   0  0  0  0  0  0  0  0  0  0  0  0
   46.4950   35.8720   43.7550 H   0  0  0  0  0  0  0  0  0  0  0  0
   44.2520   35.4360   41.5460 H   0  0  0  0  0  0  0  0  0  0  0  0
   48.2810   35.6200   41.9790 Cl  0  0  0  0  0  0  0  0  0  0  0  0
   47.4210   34.5780   40.8740 C   0  0  0  0  0  0  0  0  0  0  0  0
   46.0750   34.4220   41.0890 C   0  0  0  0  0  0  0  0  0  0  0  0
   45.5070   33.5640   40.1290 C   0  0  0  0  0  0  0  0  0  0  0  0
   44.4380   33.3420   40.1690 H   0  0  0  0  0  0  0  0  0  0  0  0
   46.2070   32.9610   39.1090 C   0  0  0  0  0  3  0  0  0  0  0  0
   47.5610   33.1760   38.9700 C   0  0  0  0  0  0  0  0  0  0  0  0
   48.3990   32.3960   37.6740 Cl  0  0  0  0  0  0  0  0  0  0  0  0
   48.1730   34.0080   39.8820 C   0  0  0  0  0  0  0  0  0  0  0  0
   49.2260   34.1850   39.7870 H   0  0  0  0  0  0  0  0  0  0  0  0
   45.6590   33.4130   44.0860 C   0  0  0  0  0  0  0  0  0  0  0  0
   46.4080   32.5180   43.3200 C   0  0  0  0  0  0  0  0  0  0  0  0
   47.1840   31.6010   43.9880 C   0  0  0  0  0  0  0  0  0  0  0  0
   47.1860   31.6080   45.3450 N   0  0  0  0  0  0  0  0  0  0  0  0
   46.4520   32.4820   46.0500 C   0  0  0  0  0  0  0  0  0  0  0  0
   45.6760   33.3990   45.4190 N   0  0  0  0  0  0  0  0  0  0  0  0
   46.4640   32.4380   42.2670 H   0  0  0  0  0  0  0  0  0  0  0  0
   47.8040   30.8620   43.4850 H   0  0  0  0  0  0  0  0  0  0  0  0
   46.5940   32.3320   47.5360 C   0  0  0  0  0  0  0  0  0  0  0  0
   45.5430   32.9200   48.2140 F   0  0  0  0  0  0  0  0  0  0  0  0
   47.7770   32.9360   47.9670 F   0  0  0  0  0  0  0  0  0  0  0  0
   46.7090   30.9810   47.8440 F   0  0  0  0  0  0  0  0  0  0  0  0
  1  4  1  1  0  0  0
  1 18  1  0  0  0  0
  2  1  1  0  0  0  0
  2  5  1  0  0  0  0
  2  6  1  0  0  0  0
  3  7  1  6  0  0  0
  3  2  1  0  0  0  0
  3  1  1  0  0  0  0
  9 10  1  0  0  0  0
  9  8  1  0  0  0  0
 10  3  1  0  0  0  0
 11 12  1  0  0  0  0
 11 10  2  0  0  0  0
 13 11  1  0  0  0  0
 14 13  2  0  0  0  0
 14 16  1  0  0  0  0
 15 14  1  0  0  0  0
 16  9  2  0  0  0  0
 17 16  1  0  0  0  0
 18 23  1  0  0  0  0
 19 20  1  0  0  0  0
 19 18  2  0  0  0  0
 20 21  2  0  0  0  0
 21 22  1  0  0  0  0
 22 26  1  0  0  0  0
 23 22  2  0  0  0  0
 24 19  1  0  0  0  0
 25 20  1  0  0  0  0
 26 29  1  0  0  0  0
 26 28  1  0  0  0  0
 26 27  1  0  0  0  0
M  END
>  <minimizedAffinity>
-5.36200428

>  <minimizedRMSD>
1.98136044

$$$$
