
     RDKit          3D

 35 37  0  0  0  0  0  0  0  0999 V2000
   44.4753   35.9225   44.8002 C   0  0  0  0  0  0  0  0  0  0  0  0
   45.1885   35.8277   43.6023 C   0  0  0  0  0  0  0  0  0  0  0  0
   46.1015   34.7784   43.4445 C   0  0  0  0  0  0  0  0  0  0  0  0
   46.2179   33.9252   44.4909 N   0  0  0  0  0  0  0  0  0  0  0  0
   45.5287   34.0206   45.6430 C   0  0  0  0  0  0  0  0  0  0  0  0
   44.6547   35.0278   45.7902 N   0  0  0  0  0  0  0  0  0  0  0  0
   46.8759   34.5870   42.2782 N   0  0  0  0  0  0  0  0  0  0  0  0
   48.3336   34.6851   42.3154 C   0  0  0  0  0  0  0  0  0  0  0  0
   48.6948   35.4769   41.0387 C   0  0  0  0  0  0  0  0  0  0  0  0
   48.3481   34.6834   39.8195 C   0  0  0  0  0  0  0  0  0  0  0  0
   47.0813   33.9250   39.9216 C   0  0  0  0  0  0  0  0  0  0  0  0
   46.1959   34.3003   41.0563 C   0  0  1  0  0  0  0  0  0  0  0  0
   43.7927   36.7368   44.8739 H   0  0  0  0  0  0  0  0  0  0  0  0
   45.0916   36.5056   42.7790 H   0  0  0  0  0  0  0  0  0  0  0  0
   45.6944   33.2823   46.4266 H   0  0  0  0  0  0  0  0  0  0  0  0
   48.6847   35.3151   43.1387 H   0  0  0  0  0  0  0  0  0  0  0  0
   48.7467   33.6703   42.2935 H   0  0  0  0  0  0  0  0  0  0  0  0
   48.0615   36.3887   41.0626 H   0  0  0  0  0  0  0  0  0  0  0  0
   49.7497   35.7610   41.0398 H   0  0  0  0  0  0  0  0  0  0  0  0
   49.2478   34.0690   39.5715 H   0  0  0  0  0  0  0  0  0  0  0  0
   48.2602   35.3978   38.9517 H   0  0  0  0  0  0  0  0  0  0  0  0
   47.3530   32.8336   39.9367 H   0  0  0  0  0  0  0  0  0  0  0  0
   46.4428   34.0073   38.9936 H   0  0  0  0  0  0  0  0  0  0  0  0
   45.7572   35.3042   40.7430 H   0  0  0  0  0  0  0  0  0  0  0  0
   43.5128   35.3713   42.1318 Cl  0  0  0  0  0  0  0  0  0  0  0  0
   43.7901   33.7282   41.5911 C   0  0  0  0  0  0  0  0  0  0  0  0
   45.0495   33.3847   41.1481 C   0  0  0  0  0  0  0  0  0  0  0  0
   45.1130   32.0377   40.7710 C   0  0  0  0  0  0  0  0  0  0  0  0
   46.0777   31.6580   40.4011 H   0  0  0  0  0  0  0  0  0  0  0  0
   44.0989   31.1376   40.8132 C   0  0  0  0  0  0  0  0  0  0  0  0
   42.8787   31.5702   41.2683 C   0  0  0  0  0  0  0  0  0  0  0  0
   41.5611   30.4216   41.3283 Cl  0  0  0  0  0  0  0  0  0  0  0  0
   42.7088   32.8743   41.6639 C   0  0  0  0  0  0  0  0  0  0  0  0
   41.7446   33.2050   42.0206 H   0  0  0  0  0  0  0  0  0  0  0  0
   44.2439   30.1131   40.4994 H   0  0  0  0  0  0  0  0  0  0  0  0
  1  6  2  0
  2  1  1  0
  3  2  2  0
  3  4  1  0
  4  5  2  0
  5  6  1  0
  7  8  1  0
  7  3  1  0
  9  8  1  0
 10 11  1  0
 10  9  1  0
 11 12  1  0
 12  7  1  0
  1 13  1  0
  2 14  1  0
  5 15  1  0
  8 16  1  0
  8 17  1  0
  9 18  1  0
  9 19  1  0
 10 20  1  0
 10 21  1  0
 11 22  1  0
 11 23  1  0
 12 24  1  6
 25 26  1  0
 26 27  2  0
 27 28  1  0
 28 29  1  0
 28 30  2  0
 30 31  1  0
 31 32  1  0
 31 33  2  0
 33 34  1  0
 33 26  1  0
 30 35  1  0
 12 27  1  0
M  ISO  8  13  14  14  14  15  14  16  13  17  13  18  13  19  13  20  13
M  ISO  6  21  13  22  13  23  13  24  13  29  16  34  15
M  END
>  <DihAtoms>  (1) 
10,11,26,25

>  <DihDeg>  (1) 
77.05033984776125

$$$$
