
 OpenBabel03252508463D

 46 48  0  0  0  0  0  0  0  0999 V2000
   42.7000   31.3620   42.6400 N   0  0  0  0  0  0  0  0  0  0  0  0
   42.9610   31.6540   43.6200 H   0  0  0  0  0  0  0  0  0  0  0  0
   42.9880   32.4060   41.7060 C   0  0  0  0  0  0  0  0  0  0  0  0
   43.4850   31.9710   40.8170 H   0  0  0  0  0  0  0  0  0  0  0  0
   42.0560   32.8960   41.3280 H   0  0  0  0  0  0  0  0  0  0  0  0
   43.6510   34.8170   41.9180 C   0  0  0  0  0  0  0  0  0  0  0  0
   43.8840   33.4750   42.2400 C   0  0  0  0  0  0  0  0  0  0  0  0
   44.9530   33.1750   43.0580 C   0  0  0  0  0  0  0  0  0  0  0  0
   45.7610   34.1640   43.5370 C   0  0  0  0  0  0  0  0  0  0  0  0
   45.5510   35.4920   43.2330 C   0  0  0  0  0  0  0  0  0  0  0  0
   44.4670   35.7620   42.4090 C   0  0  0  0  0  0  0  0  0  0  0  0
   45.0870   32.1220   43.2750 H   0  0  0  0  0  0  0  0  0  0  0  0
   46.5790   33.8470   44.1700 H   0  0  0  0  0  0  0  0  0  0  0  0
   46.2110   36.2450   43.6320 H   0  0  0  0  0  0  0  0  0  0  0  0
   44.2680   36.7940   42.1470 H   0  0  0  0  0  0  0  0  0  0  0  0
   40.2220   35.6460   40.5770 C   0  0  0  0  0  0  0  0  0  0  0  0
   41.2460   35.4140   41.5180 C   0  0  0  0  0  0  0  0  0  0  0  0
   42.5140   35.0800   41.0550 C   0  0  0  0  0  0  0  0  0  0  0  0
   42.6800   34.9990   39.7010 N   0  0  0  0  0  0  0  0  0  0  0  0
   41.6790   35.2270   38.8150 C   0  0  0  0  0  0  0  0  0  0  0  0
   40.4610   35.5480   39.2680 N   0  0  0  0  0  0  0  0  0  0  0  0
   39.3030   35.8900   41.0690 H   0  0  0  0  0  0  0  0  0  0  0  0
   41.1510   35.4670   42.5740 H   0  0  0  0  0  0  0  0  0  0  0  0
   41.7970   35.1640   37.7550 H   0  0  0  0  0  0  0  0  0  0  0  0
   41.0290   30.9600   42.6870 S   0  0  0  0  0  0  0  0  0  0  0  0
   40.1750   32.1810   42.4310 O   0  0  0  0  0  0  0  0  0  0  0  0
   40.0570   32.5870   41.5240 H   0  0  0  0  0  0  0  0  0  0  0  0
   40.6610   30.3120   43.9660 O   0  0  0  0  0  0  0  0  0  0  0  0
   41.1690   30.2350   44.8080 H   0  0  0  0  0  0  0  0  0  0  0  0
   40.7720   29.8560   41.4430 O   0  0  0  0  0  0  0  0  0  0  0  0
   40.2080   28.7160   41.9590 C   0  0  0  0  0  0  0  0  0  0  0  0
   39.3370   28.4630   41.3190 H   0  0  0  0  0  0  0  0  0  0  0  0
   39.8360   28.7830   42.9900 H   0  0  0  0  0  0  0  0  0  0  0  0
   41.2230   27.5620   41.8590 C   0  0  0  0  0  0  0  0  0  0  0  0
   42.1700   27.9730   42.2090 H   0  0  0  0  0  0  0  0  0  0  0  0
   41.3180   27.3220   40.8040 H   0  0  0  0  0  0  0  0  0  0  0  0
   39.4210   25.4670   40.5270 Cl  0  0  0  0  0  0  0  0  0  0  0  0
   39.9380   25.4070   42.1980 C   0  0  0  0  0  0  0  0  0  0  0  0
   40.7550   26.4100   42.6680 C   0  0  0  0  0  0  0  0  0  0  0  0
   41.1800   26.3740   44.0020 C   0  0  0  0  0  0  0  0  0  0  0  0
   41.8240   27.1510   44.3910 H   0  0  0  0  0  0  0  0  0  0  0  0
   40.7980   25.3580   44.8540 C   0  0  0  0  0  3  0  0  0  0  0  0
   39.9830   24.3780   44.3460 C   0  0  0  0  0  0  0  0  0  0  0  0
   39.5060   23.0910   45.4570 Cl  0  0  0  0  0  0  0  0  0  0  0  0
   39.5330   24.3670   43.0310 C   0  0  0  0  0  0  0  0  0  0  0  0
   38.8820   23.5610   42.6640 H   0  0  0  0  0  0  0  0  0  0  0  0
  1 25  1  0  0  0  0
  1  2  1  0  0  0  0
  3  7  1  0  0  0  0
  3  1  1  0  0  0  0
  4  3  1  0  0  0  0
  5  3  1  0  0  0  0
  6  7  2  0  0  0  0
  6 11  1  0  0  0  0
  7  8  1  0  0  0  0
  8 12  1  0  0  0  0
  8  9  2  0  0  0  0
  9 13  1  0  0  0  0
 10  9  1  0  0  0  0
 10 14  1  0  0  0  0
 11 10  2  0  0  0  0
 15 11  1  0  0  0  0
 16 22  1  0  0  0  0
 16 17  1  0  0  0  0
 17 23  1  0  0  0  0
 18 17  2  0  0  0  0
 18  6  1  0  0  0  0
 19 18  1  0  0  0  0
 20 21  1  0  0  0  0
 20 19  2  0  0  0  0
 21 16  2  0  0  0  0
 24 20  1  0  0  0  0
 25 28  1  0  0  0  0
 26 25  1  0  0  0  0
 27 26  1  0  0  0  0
 28 29  1  0  0  0  0
 30 31  1  0  0  0  0
 30 25  1  0  0  0  0
 31 33  1  0  0  0  0
 32 31  1  0  0  0  0
 34 31  1  0  0  0  0
 34 35  1  0  0  0  0
 34 39  1  0  0  0  0
 36 34  1  0  0  0  0
 37 38  1  0  0  0  0
 38 39  2  0  0  0  0
 38 45  1  0  0  0  0
 39 40  1  0  0  0  0
 40 41  1  0  0  0  0
 40 42  2  0  0  0  0
 43 42  1  0  0  0  0
 43 44  1  0  0  0  0
 45 43  2  0  0  0  0
 46 45  1  0  0  0  0
M  END
>  <minimizedAffinity>
-5.22046947

>  <minimizedRMSD>
0.99990505

$$$$
