
 OpenBabel03252506343D

 34 36  0  0  1  0  0  0  0  0999 V2000
   44.3940   35.7030   44.9500 C   0  0  0  0  0  0  0  0  0  0  0  0
   45.0980   35.7430   43.7380 C   0  0  0  0  0  0  0  0  0  0  0  0
   46.0920   34.8350   43.5200 C   0  0  0  0  0  0  0  0  0  0  0  0
   46.3280   33.9420   44.5150 N   0  0  0  0  0  0  0  0  0  0  0  0
   45.6600   33.9100   45.6580 C   0  0  0  0  0  0  0  0  0  0  0  0
   44.6890   34.7840   45.8920 N   0  0  0  0  0  0  0  0  0  0  0  0
   46.0050   32.9210   46.6250 N   0  0  0  0  0  0  0  0  0  0  0  0
   45.1900   32.5670   47.7720 C   0  0  0  0  0  0  0  0  0  0  0  0
   46.2550   32.3210   48.8300 C   0  0  0  0  0  0  0  0  0  0  0  0
   47.5750   32.2770   48.1320 C   0  0  0  0  0  0  0  0  0  0  0  0
   47.1900   32.0930   46.6720 C   0  0  1  0  0  0  0  0  0  0  0  0
   43.5960   36.4430   45.1090 H   0  0  0  0  0  0  0  0  0  0  0  0
   46.6290   34.8590   42.6040 H   0  0  0  0  0  0  0  0  0  0  0  0
   44.6060   31.6580   47.5510 H   0  0  0  0  0  0  0  0  0  0  0  0
   44.5880   33.4230   48.0870 H   0  0  0  0  0  0  0  0  0  0  0  0
   46.2000   33.0440   49.6660 H   0  0  0  0  0  0  0  0  0  0  0  0
   46.0440   31.2950   49.2510 H   0  0  0  0  0  0  0  0  0  0  0  0
   48.2780   31.5230   48.5040 H   0  0  0  0  0  0  0  0  0  0  0  0
   48.0560   33.2880   48.1970 H   0  0  0  0  0  0  0  0  0  0  0  0
   47.9470   32.4850   45.9850 H   0  0  0  0  0  0  0  0  0  0  0  0
   44.7120   36.7590   42.7960 N   0  0  0  0  0  0  0  0  0  0  0  0
   44.6350   37.7520   43.0840 H   0  0  0  0  0  0  0  0  0  0  0  0
   44.5340   36.3650   41.8490 H   0  0  0  0  0  0  0  0  0  0  0  0
   46.8120   30.3460   46.4110 S   0  0  0  0  0  0  0  0  0  0  0  0
   48.8700   28.9420   48.2370 Cl  0  0  0  0  0  0  0  0  0  0  0  0
   49.1300   29.0250   46.4910 C   0  0  0  0  0  0  0  0  0  0  0  0
   48.2490   29.6400   45.6000 C   0  0  0  0  0  0  0  0  0  0  0  0
   48.5440   29.6510   44.2520 C   0  0  0  0  0  0  0  0  0  0  0  0
   47.8000   30.1520   43.6510 H   0  0  0  0  0  0  0  0  0  0  0  0
   49.6960   29.0570   43.8090 C   0  0  0  0  0  3  0  0  0  0  0  0
   50.5720   28.4460   44.6850 C   0  0  0  0  0  0  0  0  0  0  0  0
   52.0420   27.6910   44.1040 Cl  0  0  0  0  0  0  0  0  0  0  0  0
   50.2920   28.4240   46.0510 C   0  0  0  0  0  0  0  0  0  0  0  0
   50.9990   27.9350   46.7310 H   0  0  0  0  0  0  0  0  0  0  0  0
  1 12  1  0  0  0  0
  1  6  1  0  0  0  0
  2  1  2  0  0  0  0
  3  2  1  0  0  0  0
  3  4  2  0  0  0  0
  4  5  1  0  0  0  0
  5  6  2  0  0  0  0
  5  7  1  0  0  0  0
  7 11  1  0  0  0  0
  7  8  1  0  0  0  0
  8 15  1  0  0  0  0
  8  9  1  0  0  0  0
  9 17  1  0  0  0  0
  9 16  1  0  0  0  0
 10 19  1  0  0  0  0
 10 18  1  0  0  0  0
 10  9  1  0  0  0  0
 11 20  1  6  0  0  0
 11 10  1  0  0  0  0
 13  3  1  0  0  0  0
 14  8  1  0  0  0  0
 21 22  1  0  0  0  0
 21  2  1  0  0  0  0
 23 21  1  0  0  0  0
 24 11  1  0  0  0  0
 26 25  1  0  0  0  0
 27 24  1  0  0  0  0
 27 26  2  0  0  0  0
 28 27  1  0  0  0  0
 29 28  1  0  0  0  0
 30 28  2  0  0  0  0
 30 31  1  0  0  0  0
 31 33  2  0  0  0  0
 32 31  1  0  0  0  0
 33 26  1  0  0  0  0
 33 34  1  0  0  0  0
M  END
>  <minimizedAffinity>
-5.16770887

>  <minimizedRMSD>
1.20392382

$$$$
