
     RDKit          3D

 51 55  0  0  0  0  0  0  0  0999 V2000
   45.7494   33.1245   46.2279 C   0  0  0  0  0  0  0  0  0  0  0  0
   45.9119   31.9349   45.8260 C   0  0  0  0  0  0  0  0  0  0  0  0
   44.5440   36.1460   44.4926 C   0  0  0  0  0  0  0  0  0  0  0  0
   45.2144   36.0994   43.2789 C   0  0  0  0  0  0  0  0  0  0  0  0
   46.0528   35.0359   43.0892 C   0  0  0  0  0  0  0  0  0  0  0  0
   46.1896   34.0993   44.0668 N   0  0  0  0  0  0  0  0  0  0  0  0
   45.5219   34.1777   45.2339 C   0  0  0  0  0  0  0  0  0  0  0  0
   44.7112   35.2058   45.4168 N   0  0  0  0  0  0  0  0  0  0  0  0
   46.8219   34.8540   41.8676 C   0  0  0  0  0  0  0  0  0  0  0  0
   48.0532   35.4081   41.6391 C   0  0  0  0  0  0  0  0  0  0  0  0
   48.7712   35.2263   40.4710 C   0  0  0  0  0  0  0  0  0  0  0  0
   48.2485   34.4541   39.4679 C   0  0  0  0  0  0  0  0  0  0  0  0
   47.0194   33.8748   39.6423 C   0  0  0  0  0  0  0  0  0  0  0  0
   46.3427   34.0875   40.8279 C   0  0  0  0  0  0  0  0  0  0  0  0
   46.0926   30.8929   46.9078 C   0  0  0  0  0  0  0  0  0  0  0  0
   45.8933   31.4991   48.2562 C   0  0  1  0  0  0  0  0  0  0  0  0
   45.7133   30.5329   49.3757 C   0  0  0  0  0  0  0  0  0  0  0  0
   46.9262   31.3377   49.2996 C   0  0  1  0  0  0  0  0  0  0  0  0
   48.2395   30.7420   48.9029 C   0  0  2  0  0  0  0  0  0  0  0  0
   49.1768   30.4977   50.1137 C   0  0  0  0  0  0  0  0  0  0  0  0
   49.5032   31.5574   49.1564 C   0  0  2  0  0  0  0  0  0  0  0  0
   45.7541   33.6027   47.1966 H   0  0  0  0  0  0  0  0  0  0  0  0
   45.9000   31.6241   44.7914 H   0  0  0  0  0  0  0  0  0  0  0  0
   43.8654   36.9771   44.6854 H   0  0  0  0  0  0  0  0  0  0  0  0
   45.1069   36.8389   42.5064 H   0  0  0  0  0  0  0  0  0  0  0  0
   48.4850   36.0306   42.4367 H   0  0  0  0  0  0  0  0  0  0  0  0
   49.7425   35.7238   40.4142 H   0  0  0  0  0  0  0  0  0  0  0  0
   48.8954   34.3767   38.5927 H   0  0  0  0  0  0  0  0  0  0  0  0
   46.6426   33.2746   38.8299 H   0  0  0  0  0  0  0  0  0  0  0  0
   45.3812   33.5932   40.8799 H   0  0  0  0  0  0  0  0  0  0  0  0
   45.3309   30.0739   46.7584 H   0  0  0  0  0  0  0  0  0  0  0  0
   47.0534   30.4444   46.6991 H   0  0  0  0  0  0  0  0  0  0  0  0
   45.0723   32.2740   48.3090 H   0  0  0  0  0  0  0  0  0  0  0  0
   45.0045   30.7105   50.2083 H   0  0  0  0  0  0  0  0  0  0  0  0
   45.7904   29.4465   49.1431 H   0  0  0  0  0  0  0  0  0  0  0  0
   47.0191   32.1744   50.0233 H   0  0  0  0  0  0  0  0  0  0  0  0
   48.2797   29.8724   48.2134 H   0  0  0  0  0  0  0  0  0  0  0  0
   49.8025   29.6111   50.1490 H   0  0  0  0  0  0  0  0  0  0  0  0
   48.8476   30.8386   51.1106 H   0  0  0  0  0  0  0  0  0  0  0  0
   50.3169   31.3353   48.4287 H   0  0  0  0  0  0  0  0  0  0  0  0
   48.1268   33.0011   46.9523 Cl  0  0  0  0  0  0  0  0  0  0  0  0
   48.6180   33.7637   48.4722 C   0  0  0  0  0  0  0  0  0  0  0  0
   49.2535   32.9881   49.4270 C   0  0  0  0  0  0  0  0  0  0  0  0
   49.6248   33.6120   50.6030 C   0  0  0  0  0  0  0  0  0  0  0  0
   50.1225   33.0453   51.3741 H   0  0  0  0  0  0  0  0  0  0  0  0
   49.3797   34.9564   50.8342 C   0  0  0  0  0  0  0  0  0  0  0  0
   48.7434   35.6907   49.8538 C   0  0  0  0  0  0  0  0  0  0  0  0
   48.3993   37.4094   50.0819 Cl  0  0  0  0  0  0  0  0  0  0  0  0
   48.3501   35.1217   48.6607 C   0  0  0  0  0  0  0  0  0  0  0  0
   47.8538   35.7202   47.9107 H   0  0  0  0  0  0  0  0  0  0  0  0
   49.6540   35.4639   51.7297 H   0  0  0  0  0  0  0  0  0  0  0  0
  2  1  2  0
  2 15  1  0
  3  8  2  0
  4  3  1  0
  5  4  2  0
  5  6  1  0
  6  7  2  0
  7  8  1  0
  7  1  1  0
  9  5  1  0
 10  9  2  0
 11 10  1  0
 12 13  1  0
 12 11  2  0
 13 14  2  0
 14  9  1  0
 15 16  1  0
 16 18  1  0
 16 17  1  0
 18 17  1  0
 19 21  1  0
 19 18  1  0
 19 20  1  0
 21 20  1  0
  1 22  1  0
  2 23  1  0
  3 24  1  0
  4 25  1  0
 10 26  1  0
 11 27  1  0
 12 28  1  0
 13 29  1  0
 14 30  1  0
 15 31  1  0
 15 32  1  0
 16 33  1  6
 17 34  1  0
 17 35  1  0
 18 36  1  1
 19 37  1  6
 20 38  1  0
 20 39  1  0
 21 40  1  6
 41 42  1  0
 42 43  2  0
 43 44  1  0
 44 45  1  0
 44 46  2  0
 46 47  1  0
 47 48  1  0
 47 49  2  0
 49 50  1  0
 49 42  1  0
 46 51  1  0
 21 43  1  0
M  ISO  8  24  14  25  14  26  14  27  14  28  14  29  14  30  14  31   8
M  ISO  8  32   8  33  13  34  13  35  13  36  13  37  13  38  13  39  13
M  ISO  3  40  13  45  16  50  15
M  END
>  <DihAtoms>  (1) 
18,20,42,41

>  <DihDeg>  (1) 
-89.99965174150988

$$$$
