
 OpenBabel03242523403D

 38 42  0  0  1  0  0  0  0  0999 V2000
   37.0000   31.7910   40.1080 C   0  0  2  0  0  0  0  0  0  0  0  0
   37.1920   33.0500   40.1130 N   0  0  2  0  0  4  0  0  0  0  0  0
   37.2890   34.1490   39.5190 C   0  0  0  0  0  0  0  0  0  0  0  0
   38.5780   34.1600   40.0010 N   0  0  0  0  0  0  0  0  0  0  0  0
   39.2020   32.9500   39.7870 C   0  0  2  0  0  3  0  0  0  0  0  0
   40.6040   33.0190   39.5460 C   0  0  0  0  0  0  0  0  0  0  0  0
   41.2250   31.8660   39.2620 C   0  0  0  0  0  0  0  0  0  0  0  0
   40.6150   30.6610   39.1920 C   0  0  0  0  0  0  0  0  0  0  0  0
   39.2440   30.7370   39.4520 C   0  0  0  0  0  0  0  0  0  0  0  0
   38.3940   31.7940   39.7660 C   0  0  1  0  0  0  0  0  0  0  0  0
   37.1550   31.5140   41.2790 H   0  0  0  0  0  0  0  0  0  0  0  0
   36.4640   33.3890   40.8820 H   0  0  0  0  0  0  0  0  0  0  0  0
   36.7960   35.1390   39.7790 H   0  0  0  0  0  0  0  0  0  0  0  0
   37.2530   34.1740   38.4090 H   0  0  0  0  0  0  0  0  0  0  0  0
   39.0370   35.0030   40.4770 H   0  0  0  0  0  0  0  0  0  0  0  0
   41.1590   33.9310   39.5860 H   0  0  0  0  0  0  0  0  0  0  0  0
   42.3130   31.9290   39.0770 H   0  0  0  0  0  0  0  0  0  0  0  0
   41.1480   29.7670   38.9610 H   0  0  0  0  0  0  0  0  0  0  0  0
   38.8890   29.7120   39.3570 H   0  0  0  0  0  0  0  0  0  0  0  0
   36.0480   28.4230   38.9170 C   0  0  0  0  0  0  0  0  0  0  0  0
   36.1990   27.7680   40.1590 C   0  0  0  0  0  0  0  0  0  0  0  0
   36.5770   28.5370   41.2400 C   0  0  0  0  0  0  0  0  0  0  0  0
   36.7720   29.8610   41.0140 N   0  0  0  0  0  0  0  0  0  0  0  0
   36.6210   30.4770   39.8010 C   0  0  0  0  0  0  0  0  0  0  0  0
   36.2740   29.7040   38.8680 N   0  0  0  0  0  0  0  0  0  0  0  0
   35.7530   27.9050   38.0060 H   0  0  0  0  0  0  0  0  0  0  0  0
   36.0060   26.7060   40.1630 H   0  0  0  0  0  0  0  0  0  0  0  0
   36.7460   27.7340   42.7800 S   0  0  0  0  0  0  0  0  0  0  0  0
   37.3030   24.7280   42.2700 Cl  0  0  0  0  0  0  0  0  0  0  0  0
   38.6430   25.7650   42.7180 C   0  0  0  0  0  0  0  0  0  0  0  0
   38.4200   27.1190   42.9520 C   0  0  0  0  0  0  0  0  0  0  0  0
   39.5200   27.9000   43.3060 C   0  0  0  0  0  0  0  0  0  0  0  0
   39.3140   28.9610   43.4840 H   0  0  0  0  0  0  0  0  0  0  0  0
   40.7720   27.3230   43.4110 C   0  0  0  0  0  3  0  0  0  0  0  0
   40.9670   25.9760   43.1730 C   0  0  0  0  0  0  0  0  0  0  0  0
   42.5520   25.2430   43.3060 Cl  0  0  0  0  0  0  0  0  0  0  0  0
   39.9020   25.1710   42.8210 C   0  0  0  0  0  0  0  0  0  0  0  0
   40.0140   24.1010   42.6240 H   0  0  0  0  0  0  0  0  0  0  0  0
  1  2  1  0  0  0  0
  1 11  1  1  0  0  0
  2 12  1  1  0  0  0
  3 13  1  0  0  0  0
  3  4  1  0  0  0  0
  3  2  1  0  0  0  0
  4 15  1  0  0  0  0
  5  6  1  6  0  0  0
  5  4  1  0  0  0  0
  6 16  1  0  0  0  0
  7  6  2  0  0  0  0
  8  7  1  0  0  0  0
  8  9  2  0  0  0  0
 10  9  1  6  0  0  0
 10  5  1  0  0  0  0
 10  1  1  0  0  0  0
 10  2  1  0  0  0  0
 14  3  1  0  0  0  0
 17  7  1  0  0  0  0
 18  8  1  0  0  0  0
 19  9  1  0  0  0  0
 20 21  1  0  0  0  0
 21 27  1  0  0  0  0
 21 22  2  0  0  0  0
 22 28  1  0  0  0  0
 23 22  1  0  0  0  0
 24  1  1  0  0  0  0
 24 23  2  0  0  0  0
 25 20  2  0  0  0  0
 25 24  1  0  0  0  0
 26 20  1  0  0  0  0
 28 31  1  0  0  0  0
 29 30  1  0  0  0  0
 30 37  2  0  0  0  0
 30 31  1  0  0  0  0
 31 32  2  0  0  0  0
 32 34  1  0  0  0  0
 32 33  1  0  0  0  0
 35 36  1  0  0  0  0
 35 34  2  0  0  0  0
 37 35  1  0  0  0  0
 38 37  1  0  0  0  0
M  END
>  <minimizedAffinity>
-6.44557333

$$$$

 OpenBabel03242523403D

 38 42  0  0  1  0  0  0  0  0999 V2000
   37.9360   29.5890   42.3060 C   0  0  2  0  0  0  0  0  0  0  0  0
   36.7180   29.6880   41.9480 N   0  0  2  0  0  4  0  0  0  0  0  0
   35.7820   29.4380   41.1540 C   0  0  0  0  0  0  0  0  0  0  0  0
   35.7280   30.8010   40.9750 N   0  0  0  0  0  0  0  0  0  0  0  0
   36.9850   31.3280   40.7680 C   0  0  2  0  0  3  0  0  0  0  0  0
   37.0380   32.4570   39.9020 C   0  0  0  0  0  0  0  0  0  0  0  0
   38.2540   32.9460   39.6230 C   0  0  0  0  0  0  0  0  0  0  0  0
   39.4140   32.4440   40.1040 C   0  0  0  0  0  0  0  0  0  0  0  0
   39.2160   31.3420   40.9400 C   0  0  0  0  0  0  0  0  0  0  0  0
   38.0760   30.6690   41.3710 C   0  0  1  0  0  0  0  0  0  0  0  0
   37.9570   30.2790   43.3040 H   0  0  0  0  0  0  0  0  0  0  0  0
   36.1830   29.3740   42.8720 H   0  0  0  0  0  0  0  0  0  0  0  0
   34.7360   29.0610   41.3900 H   0  0  0  0  0  0  0  0  0  0  0  0
   35.9990   28.8960   40.2090 H   0  0  0  0  0  0  0  0  0  0  0  0
   34.8240   31.3760   40.9920 H   0  0  0  0  0  0  0  0  0  0  0  0
   36.1680   32.9150   39.4830 H   0  0  0  0  0  0  0  0  0  0  0  0
   38.2860   33.8230   38.9510 H   0  0  0  0  0  0  0  0  0  0  0  0
   40.3620   32.8640   39.8540 H   0  0  0  0  0  0  0  0  0  0  0  0
   40.2190   31.0440   41.2430 H   0  0  0  0  0  0  0  0  0  0  0  0
   41.5180   28.9120   42.9180 C   0  0  0  0  0  0  0  0  0  0  0  0
   41.4050   27.5070   42.9830 C   0  0  0  0  0  0  0  0  0  0  0  0
   40.1520   26.9620   42.7920 C   0  0  0  0  0  0  0  0  0  0  0  0
   39.1340   27.8290   42.5580 N   0  0  0  0  0  0  0  0  0  0  0  0
   39.2650   29.1900   42.5000 C   0  0  0  0  0  0  0  0  0  0  0  0
   40.4410   29.6050   42.6840 N   0  0  0  0  0  0  0  0  0  0  0  0
   42.4630   29.4370   43.0550 H   0  0  0  0  0  0  0  0  0  0  0  0
   42.3170   26.9640   43.1800 H   0  0  0  0  0  0  0  0  0  0  0  0
   40.0110   25.2230   42.8520 S   0  0  0  0  0  0  0  0  0  0  0  0
   40.7490   24.7680   39.8760 Cl  0  0  0  0  0  0  0  0  0  0  0  0
   39.0940   24.4920   40.3820 C   0  0  0  0  0  0  0  0  0  0  0  0
   38.7360   24.6880   41.7130 C   0  0  0  0  0  0  0  0  0  0  0  0
   37.4070   24.4550   42.0630 C   0  0  0  0  0  0  0  0  0  0  0  0
   37.1550   24.6180   43.1160 H   0  0  0  0  0  0  0  0  0  0  0  0
   36.5010   24.0430   41.1020 C   0  0  0  0  0  3  0  0  0  0  0  0
   36.8820   23.8550   39.7880 C   0  0  0  0  0  0  0  0  0  0  0  0
   35.7360   23.3330   38.5690 Cl  0  0  0  0  0  0  0  0  0  0  0  0
   38.1890   24.0760   39.4030 C   0  0  0  0  0  0  0  0  0  0  0  0
   38.5300   23.9390   38.3740 H   0  0  0  0  0  0  0  0  0  0  0  0
  1 24  1  0  0  0  0
  1 11  1  1  0  0  0
  2  1  1  0  0  0  0
  2 12  1  1  0  0  0
  3 13  1  0  0  0  0
  3  2  1  0  0  0  0
  4 15  1  0  0  0  0
  4  3  1  0  0  0  0
  5  6  1  6  0  0  0
  5  4  1  0  0  0  0
  5 10  1  0  0  0  0
  7  6  2  0  0  0  0
  7  8  1  0  0  0  0
  8  9  2  0  0  0  0
  9 19  1  0  0  0  0
 10  9  1  6  0  0  0
 10  2  1  0  0  0  0
 10  1  1  0  0  0  0
 14  3  1  0  0  0  0
 16  6  1  0  0  0  0
 17  7  1  0  0  0  0
 18  8  1  0  0  0  0
 20 21  1  0  0  0  0
 20 26  1  0  0  0  0
 21 27  1  0  0  0  0
 22 28  1  0  0  0  0
 22 21  2  0  0  0  0
 23 22  1  0  0  0  0
 24 23  2  0  0  0  0
 24 25  1  0  0  0  0
 25 20  2  0  0  0  0
 29 30  1  0  0  0  0
 30 31  1  0  0  0  0
 31 32  2  0  0  0  0
 31 28  1  0  0  0  0
 32 33  1  0  0  0  0
 34 32  1  0  0  0  0
 35 34  2  0  0  0  0
 36 35  1  0  0  0  0
 37 35  1  0  0  0  0
 37 30  2  0  0  0  0
 38 37  1  0  0  0  0
M  END
>  <minimizedAffinity>
-6.37899446

$$$$

 OpenBabel03242523403D

 38 42  0  0  1  0  0  0  0  0999 V2000
   38.0210   28.3270   42.4430 C   0  0  2  0  0  0  0  0  0  0  0  0
   39.1260   28.1410   43.0490 N   0  0  2  0  0  4  0  0  0  0  0  0
   40.3690   27.9860   43.0450 C   0  0  0  0  0  0  0  0  0  0  0  0
   40.0980   26.7560   43.5980 N   0  0  0  0  0  0  0  0  0  0  0  0
   39.0950   26.1080   42.9090 C   0  0  2  0  0  3  0  0  0  0  0  0
   39.2030   24.6890   42.8620 C   0  0  0  0  0  0  0  0  0  0  0  0
   38.2840   24.0370   42.1380 C   0  0  0  0  0  0  0  0  0  0  0  0
   37.2770   24.6310   41.4590 C   0  0  0  0  0  0  0  0  0  0  0  0
   37.2870   26.0220   41.5920 C   0  0  0  0  0  0  0  0  0  0  0  0
   38.1170   26.9050   42.2770 C   0  0  1  0  0  0  0  0  0  0  0  0
   37.2280   28.2960   43.3600 H   0  0  0  0  0  0  0  0  0  0  0  0
   39.1050   28.9480   43.8140 H   0  0  0  0  0  0  0  0  0  0  0  0
   41.1490   28.5080   43.6860 H   0  0  0  0  0  0  0  0  0  0  0  0
   40.9050   27.9040   42.0750 H   0  0  0  0  0  0  0  0  0  0  0  0
   40.6040   26.3530   44.4520 H   0  0  0  0  0  0  0  0  0  0  0  0
   39.9670   24.1440   43.3740 H   0  0  0  0  0  0  0  0  0  0  0  0
   38.3750   22.9350   42.1080 H   0  0  0  0  0  0  0  0  0  0  0  0
   36.5670   24.0730   40.8920 H   0  0  0  0  0  0  0  0  0  0  0  0
   36.4390   26.3610   40.9980 H   0  0  0  0  0  0  0  0  0  0  0  0
   35.1100   29.1280   40.3100 C   0  0  0  0  0  0  0  0  0  0  0  0
   35.8240   29.8580   39.3360 C   0  0  0  0  0  0  0  0  0  0  0  0
   37.1880   29.9710   39.5020 C   0  0  0  0  0  0  0  0  0  0  0  0
   37.7270   29.3690   40.5920 N   0  0  0  0  0  0  0  0  0  0  0  0
   37.0160   28.6660   41.5270 C   0  0  0  0  0  0  0  0  0  0  0  0
   35.7780   28.6100   41.3000 N   0  0  0  0  0  0  0  0  0  0  0  0
   34.0310   28.9810   40.2690 H   0  0  0  0  0  0  0  0  0  0  0  0
   35.2390   30.2750   38.5300 H   0  0  0  0  0  0  0  0  0  0  0  0
   38.0770   30.8570   38.2880 S   0  0  0  0  0  0  0  0  0  0  0  0
   37.5390   33.5610   39.7030 Cl  0  0  0  0  0  0  0  0  0  0  0  0
   39.1750   32.9340   39.6890 C   0  0  0  0  0  0  0  0  0  0  0  0
   39.4430   31.7200   39.0600 C   0  0  0  0  0  0  0  0  0  0  0  0
   40.7620   31.2660   39.0770 C   0  0  0  0  0  0  0  0  0  0  0  0
   40.9420   30.3090   38.5760 H   0  0  0  0  0  0  0  0  0  0  0  0
   41.7430   32.0120   39.7030 C   0  0  0  0  0  3  0  0  0  0  0  0
   41.4500   33.2130   40.3200 C   0  0  0  0  0  0  0  0  0  0  0  0
   42.6910   34.1610   41.1130 Cl  0  0  0  0  0  0  0  0  0  0  0  0
   40.1560   33.6970   40.3240 C   0  0  0  0  0  0  0  0  0  0  0  0
   39.8830   34.6420   40.8000 H   0  0  0  0  0  0  0  0  0  0  0  0
  1  2  1  0  0  0  0
  1 11  1  1  0  0  0
  2 12  1  1  0  0  0
  3  2  1  0  0  0  0
  3  4  1  0  0  0  0
  3 13  1  0  0  0  0
  4 15  1  0  0  0  0
  5  6  1  6  0  0  0
  5  4  1  0  0  0  0
  6 16  1  0  0  0  0
  7  6  2  0  0  0  0
  8  9  2  0  0  0  0
  8  7  1  0  0  0  0
 10  9  1  6  0  0  0
 10  1  1  0  0  0  0
 10  5  1  0  0  0  0
 10  2  1  0  0  0  0
 14  3  1  0  0  0  0
 17  7  1  0  0  0  0
 18  8  1  0  0  0  0
 19  9  1  0  0  0  0
 20 25  1  0  0  0  0
 21 22  1  0  0  0  0
 21 20  2  0  0  0  0
 22 23  2  0  0  0  0
 23 24  1  0  0  0  0
 24  1  1  0  0  0  0
 25 24  2  0  0  0  0
 26 20  1  0  0  0  0
 27 21  1  0  0  0  0
 28 31  1  0  0  0  0
 28 22  1  0  0  0  0
 30 29  1  0  0  0  0
 30 37  1  0  0  0  0
 31 32  1  0  0  0  0
 31 30  2  0  0  0  0
 32 34  2  0  0  0  0
 33 32  1  0  0  0  0
 34 35  1  0  0  0  0
 35 37  2  0  0  0  0
 35 36  1  0  0  0  0
 37 38  1  0  0  0  0
M  END
>  <minimizedAffinity>
-6.26326752

$$$$

 OpenBabel03242523403D

 38 42  0  0  1  0  0  0  0  0999 V2000
   36.9210   28.5150   42.2500 C   0  0  2  0  0  0  0  0  0  0  0  0
   35.9120   28.9880   41.6330 N   0  0  2  0  0  4  0  0  0  0  0  0
   35.2470   29.1630   40.5850 C   0  0  0  0  0  0  0  0  0  0  0  0
   35.4800   30.5020   40.8030 N   0  0  0  0  0  0  0  0  0  0  0  0
   36.8070   30.7380   41.0930 C   0  0  2  0  0  3  0  0  0  0  0  0
   37.3180   31.9870   40.6370 C   0  0  0  0  0  0  0  0  0  0  0  0
   38.6230   32.2130   40.8390 C   0  0  0  0  0  0  0  0  0  0  0  0
   39.4710   31.3460   41.4370 C   0  0  0  0  0  0  0  0  0  0  0  0
   38.8390   30.1650   41.8350 C   0  0  0  0  0  0  0  0  0  0  0  0
   37.5260   29.7120   41.7400 C   0  0  1  0  0  0  0  0  0  0  0  0
   36.7390   28.9310   43.3750 H   0  0  0  0  0  0  0  0  0  0  0  0
   35.0680   28.6120   42.2530 H   0  0  0  0  0  0  0  0  0  0  0  0
   34.1330   29.0100   40.4210 H   0  0  0  0  0  0  0  0  0  0  0  0
   35.6590   28.8160   39.6140 H   0  0  0  0  0  0  0  0  0  0  0  0
   34.7260   31.2610   40.7510 H   0  0  0  0  0  0  0  0  0  0  0  0
   36.7130   32.7270   40.1590 H   0  0  0  0  0  0  0  0  0  0  0  0
   39.0110   33.1860   40.4830 H   0  0  0  0  0  0  0  0  0  0  0  0
   40.5050   31.5670   41.5750 H   0  0  0  0  0  0  0  0  0  0  0  0
   39.6310   29.5700   42.2870 H   0  0  0  0  0  0  0  0  0  0  0  0
   39.8210   26.7230   43.6790 C   0  0  0  0  0  0  0  0  0  0  0  0
   39.9000   25.7290   42.6800 C   0  0  0  0  0  0  0  0  0  0  0  0
   38.9910   25.7960   41.6450 C   0  0  0  0  0  0  0  0  0  0  0  0
   38.0960   26.8150   41.6780 N   0  0  0  0  0  0  0  0  0  0  0  0
   38.0350   27.7690   42.6580 C   0  0  0  0  0  0  0  0  0  0  0  0
   38.9000   27.6360   43.5650 N   0  0  0  0  0  0  0  0  0  0  0  0
   40.4930   26.7570   44.5360 H   0  0  0  0  0  0  0  0  0  0  0  0
   40.6740   24.9870   42.8080 H   0  0  0  0  0  0  0  0  0  0  0  0
   39.0990   24.5790   40.3980 S   0  0  0  0  0  0  0  0  0  0  0  0
   38.2930   26.2960   37.9470 Cl  0  0  0  0  0  0  0  0  0  0  0  0
   37.1480   25.1210   38.5600 C   0  0  0  0  0  0  0  0  0  0  0  0
   37.4850   24.3360   39.6600 C   0  0  0  0  0  0  0  0  0  0  0  0
   36.5370   23.4170   40.1090 C   0  0  0  0  0  0  0  0  0  0  0  0
   36.8310   22.8140   40.9750 H   0  0  0  0  0  0  0  0  0  0  0  0
   35.3180   23.3100   39.4650 C   0  0  0  0  0  3  0  0  0  0  0  0
   35.0080   24.1000   38.3750 C   0  0  0  0  0  0  0  0  0  0  0  0
   33.4650   23.9670   37.5580 Cl  0  0  0  0  0  0  0  0  0  0  0  0
   35.9200   25.0220   37.9010 C   0  0  0  0  0  0  0  0  0  0  0  0
   35.7140   25.6660   37.0430 H   0  0  0  0  0  0  0  0  0  0  0  0
  1 24  1  0  0  0  0
  1 11  1  1  0  0  0
  2 10  1  0  0  0  0
  2  1  1  0  0  0  0
  2 12  1  1  0  0  0
  3  4  1  0  0  0  0
  3  2  1  0  0  0  0
  4  5  1  0  0  0  0
  5  6  1  6  0  0  0
  5 10  1  0  0  0  0
  6  7  2  0  0  0  0
  7  8  1  0  0  0  0
  8 18  1  0  0  0  0
  8  9  2  0  0  0  0
  9 19  1  0  0  0  0
 10  9  1  6  0  0  0
 10  1  1  0  0  0  0
 13  3  1  0  0  0  0
 14  3  1  0  0  0  0
 15  4  1  0  0  0  0
 16  6  1  0  0  0  0
 17  7  1  0  0  0  0
 20 26  1  0  0  0  0
 21 27  1  0  0  0  0
 21 20  2  0  0  0  0
 22 23  2  0  0  0  0
 22 21  1  0  0  0  0
 23 24  1  0  0  0  0
 24 25  2  0  0  0  0
 25 20  1  0  0  0  0
 28 22  1  0  0  0  0
 29 30  1  0  0  0  0
 30 31  1  0  0  0  0
 31 32  2  0  0  0  0
 31 28  1  0  0  0  0
 32 33  1  0  0  0  0
 34 32  1  0  0  0  0
 35 34  2  0  0  0  0
 36 35  1  0  0  0  0
 37 35  1  0  0  0  0
 37 30  2  0  0  0  0
 38 37  1  0  0  0  0
M  END
>  <minimizedAffinity>
-6.19915342

$$$$

 OpenBabel03242523403D

 38 42  0  0  1  0  0  0  0  0999 V2000
   39.3360   30.6570   38.0910 C   0  0  2  0  0  0  0  0  0  0  0  0
   40.2870   30.3090   37.3170 N   0  0  2  0  0  4  0  0  0  0  0  0
   41.4180   29.8070   37.1230 C   0  0  0  0  0  0  0  0  0  0  0  0
   41.7550   31.0500   36.6370 N   0  0  0  0  0  0  0  0  0  0  0  0
   41.3340   32.0500   37.4870 C   0  0  2  0  0  3  0  0  0  0  0  0
   42.1680   33.2030   37.5340 C   0  0  0  0  0  0  0  0  0  0  0  0
   41.8240   34.1610   38.4060 C   0  0  0  0  0  0  0  0  0  0  0  0
   40.7540   34.1030   39.2300 C   0  0  0  0  0  0  0  0  0  0  0  0
   40.0240   32.9210   39.0790 C   0  0  0  0  0  0  0  0  0  0  0  0
   40.1770   31.8080   38.2580 C   0  0  1  0  0  0  0  0  0  0  0  0
   38.5620   31.1750   37.3130 H   0  0  0  0  0  0  0  0  0  0  0  0
   39.7490   29.7030   36.5550 H   0  0  0  0  0  0  0  0  0  0  0  0
   41.7220   29.0240   36.3580 H   0  0  0  0  0  0  0  0  0  0  0  0
   42.0400   29.5120   37.9940 H   0  0  0  0  0  0  0  0  0  0  0  0
   42.2790   31.2160   35.7180 H   0  0  0  0  0  0  0  0  0  0  0  0
   43.0290   33.3270   36.9130 H   0  0  0  0  0  0  0  0  0  0  0  0
   42.4770   35.0530   38.4350 H   0  0  0  0  0  0  0  0  0  0  0  0
   40.5190   34.8880   39.9110 H   0  0  0  0  0  0  0  0  0  0  0  0
   39.2100   33.0080   39.7970 H   0  0  0  0  0  0  0  0  0  0  0  0
   36.7060   31.1920   40.6320 C   0  0  0  0  0  0  0  0  0  0  0  0
   37.2200   30.2880   41.5850 C   0  0  0  0  0  0  0  0  0  0  0  0
   38.3910   29.6310   41.2690 C   0  0  0  0  0  0  0  0  0  0  0  0
   38.9480   29.9130   40.0640 N   0  0  0  0  0  0  0  0  0  0  0  0
   38.4310   30.7930   39.1520 C   0  0  0  0  0  0  0  0  0  0  0  0
   37.3620   31.3510   39.5190 N   0  0  0  0  0  0  0  0  0  0  0  0
   35.7890   31.7590   40.7880 H   0  0  0  0  0  0  0  0  0  0  0  0
   36.6500   30.1800   42.4950 H   0  0  0  0  0  0  0  0  0  0  0  0
   39.0410   28.5260   42.4540 S   0  0  0  0  0  0  0  0  0  0  0  0
   36.4360   27.0920   43.3240 Cl  0  0  0  0  0  0  0  0  0  0  0  0
   37.5790   26.2190   42.3220 C   0  0  0  0  0  0  0  0  0  0  0  0
   38.7570   26.8410   41.9170 C   0  0  0  0  0  0  0  0  0  0  0  0
   39.6330   26.1030   41.1220 C   0  0  0  0  0  0  0  0  0  0  0  0
   40.5500   26.6180   40.8190 H   0  0  0  0  0  0  0  0  0  0  0  0
   39.3150   24.8050   40.7640 C   0  0  0  0  0  3  0  0  0  0  0  0
   38.1390   24.2110   41.1790 C   0  0  0  0  0  0  0  0  0  0  0  0
   37.7350   22.5680   40.7280 Cl  0  0  0  0  0  0  0  0  0  0  0  0
   37.2470   24.9100   41.9680 C   0  0  0  0  0  0  0  0  0  0  0  0
   36.3060   24.4770   42.3170 H   0  0  0  0  0  0  0  0  0  0  0  0
  1 11  1  6  0  0  0
  1 10  1  0  0  0  0
  1 24  1  0  0  0  0
  2 12  1  6  0  0  0
  2  1  1  0  0  0  0
  2 10  1  0  0  0  0
  3  2  1  0  0  0  0
  3 14  1  0  0  0  0
  4  3  1  0  0  0  0
  4  5  1  0  0  0  0
  5  6  1  1  0  0  0
  5 10  1  0  0  0  0
  6  7  2  0  0  0  0
  7 17  1  0  0  0  0
  7  8  1  0  0  0  0
  8 18  1  0  0  0  0
  9  8  2  0  0  0  0
  9 19  1  0  0  0  0
 10  9  1  1  0  0  0
 13  3  1  0  0  0  0
 15  4  1  0  0  0  0
 16  6  1  0  0  0  0
 20 26  1  0  0  0  0
 20 21  1  0  0  0  0
 21 27  1  0  0  0  0
 22 21  2  0  0  0  0
 22 28  1  0  0  0  0
 23 22  1  0  0  0  0
 24 25  1  0  0  0  0
 24 23  2  0  0  0  0
 25 20  2  0  0  0  0
 30 29  1  0  0  0  0
 31 30  2  0  0  0  0
 31 28  1  0  0  0  0
 32 31  1  0  0  0  0
 33 32  1  0  0  0  0
 34 32  2  0  0  0  0
 34 35  1  0  0  0  0
 35 37  2  0  0  0  0
 36 35  1  0  0  0  0
 37 38  1  0  0  0  0
 37 30  1  0  0  0  0
M  END
>  <minimizedAffinity>
-6.18353176

$$$$

 OpenBabel03242523403D

 38 42  0  0  1  0  0  0  0  0999 V2000
   40.8590   33.0030   38.8300 C   0  0  2  0  0  0  0  0  0  0  0  0
   41.8500   33.5580   38.2530 N   0  0  2  0  0  4  0  0  0  0  0  0
   42.3580   34.1600   37.2790 C   0  0  0  0  0  0  0  0  0  0  0  0
   43.1830   33.0630   37.1840 N   0  0  0  0  0  0  0  0  0  0  0  0
   42.4640   31.8890   37.2570 C   0  0  2  0  0  3  0  0  0  0  0  0
   42.9850   30.8060   36.4930 C   0  0  0  0  0  0  0  0  0  0  0  0
   42.2680   29.6740   36.4850 C   0  0  0  0  0  0  0  0  0  0  0  0
   41.1010   29.4980   37.1440 C   0  0  0  0  0  0  0  0  0  0  0  0
   40.7080   30.6360   37.8530 C   0  0  0  0  0  0  0  0  0  0  0  0
   41.2740   31.8980   38.0130 C   0  0  1  0  0  0  0  0  0  0  0  0
   41.3650   32.6010   39.8570 H   0  0  0  0  0  0  0  0  0  0  0  0
   42.2000   34.2670   39.0340 H   0  0  0  0  0  0  0  0  0  0  0  0
   43.0000   35.0980   37.2850 H   0  0  0  0  0  0  0  0  0  0  0  0
   41.7550   34.3160   36.3600 H   0  0  0  0  0  0  0  0  0  0  0  0
   44.2470   33.1160   37.0650 H   0  0  0  0  0  0  0  0  0  0  0  0
   43.9020   30.8630   35.9470 H   0  0  0  0  0  0  0  0  0  0  0  0
   42.6810   28.8380   35.8900 H   0  0  0  0  0  0  0  0  0  0  0  0
   40.5610   28.5790   37.1090 H   0  0  0  0  0  0  0  0  0  0  0  0
   39.7660   30.3560   38.3220 H   0  0  0  0  0  0  0  0  0  0  0  0
   37.3700   32.0280   39.5680 C   0  0  0  0  0  0  0  0  0  0  0  0
   37.6530   31.3080   40.7490 C   0  0  0  0  0  0  0  0  0  0  0  0
   38.9690   31.2600   41.1610 C   0  0  0  0  0  0  0  0  0  0  0  0
   39.8790   31.9090   40.3920 N   0  0  0  0  0  0  0  0  0  0  0  0
   39.5830   32.6000   39.2480 C   0  0  0  0  0  0  0  0  0  0  0  0
   38.3600   32.5970   38.9430 N   0  0  0  0  0  0  0  0  0  0  0  0
   36.3650   32.1260   39.1600 H   0  0  0  0  0  0  0  0  0  0  0  0
   36.8090   30.8480   41.2400 H   0  0  0  0  0  0  0  0  0  0  0  0
   39.3200   30.3870   42.6320 S   0  0  0  0  0  0  0  0  0  0  0  0
   40.4380   28.2100   40.7310 Cl  0  0  0  0  0  0  0  0  0  0  0  0
   39.0420   27.8250   41.7170 C   0  0  0  0  0  0  0  0  0  0  0  0
   38.5200   28.7850   42.5800 C   0  0  0  0  0  0  0  0  0  0  0  0
   37.4080   28.4280   43.3420 C   0  0  0  0  0  0  0  0  0  0  0  0
   37.0200   29.2030   44.0110 H   0  0  0  0  0  0  0  0  0  0  0  0
   36.8670   27.1600   43.2250 C   0  0  0  0  0  3  0  0  0  0  0  0
   37.4050   26.2260   42.3610 C   0  0  0  0  0  0  0  0  0  0  0  0
   36.7220   24.6200   42.2110 Cl  0  0  0  0  0  0  0  0  0  0  0  0
   38.5050   26.5420   41.5900 C   0  0  0  0  0  0  0  0  0  0  0  0
   38.9600   25.8320   40.8950 H   0  0  0  0  0  0  0  0  0  0  0  0
  1 24  1  0  0  0  0
  1 11  1  1  0  0  0
  2  1  1  0  0  0  0
  2 12  1  1  0  0  0
  3 13  1  0  0  0  0
  3  2  1  0  0  0  0
  4  5  1  0  0  0  0
  4  3  1  0  0  0  0
  5  6  1  6  0  0  0
  5 10  1  0  0  0  0
  7  6  2  0  0  0  0
  7  8  1  0  0  0  0
  8  9  2  0  0  0  0
  9 19  1  0  0  0  0
 10  9  1  6  0  0  0
 10  2  1  0  0  0  0
 10  1  1  0  0  0  0
 14  3  1  0  0  0  0
 15  4  1  0  0  0  0
 16  6  1  0  0  0  0
 17  7  1  0  0  0  0
 18  8  1  0  0  0  0
 20 21  1  0  0  0  0
 21 22  2  0  0  0  0
 21 27  1  0  0  0  0
 22 28  1  0  0  0  0
 23 22  1  0  0  0  0
 24 23  2  0  0  0  0
 25 24  1  0  0  0  0
 25 20  2  0  0  0  0
 26 20  1  0  0  0  0
 29 30  1  0  0  0  0
 30 31  1  0  0  0  0
 31 28  1  0  0  0  0
 31 32  2  0  0  0  0
 32 33  1  0  0  0  0
 34 32  1  0  0  0  0
 35 34  2  0  0  0  0
 36 35  1  0  0  0  0
 37 30  2  0  0  0  0
 37 35  1  0  0  0  0
 38 37  1  0  0  0  0
M  END
>  <minimizedAffinity>
-6.13679218

$$$$

 OpenBabel03242523403D

 38 42  0  0  1  0  0  0  0  0999 V2000
   36.4880   29.1070   41.1690 C   0  0  2  0  0  0  0  0  0  0  0  0
   36.7970   28.9620   42.3960 N   0  0  2  0  0  4  0  0  0  0  0  0
   37.6460   28.8590   43.3110 C   0  0  0  0  0  0  0  0  0  0  0  0
   37.1000   27.6130   43.5160 N   0  0  0  0  0  0  0  0  0  0  0  0
   36.9510   26.9310   42.3280 C   0  0  2  0  0  3  0  0  0  0  0  0
   37.1100   25.5180   42.4110 C   0  0  0  0  0  0  0  0  0  0  0  0
   37.0430   24.8350   41.2600 C   0  0  0  0  0  0  0  0  0  0  0  0
   36.8400   25.3930   40.0450 C   0  0  0  0  0  0  0  0  0  0  0  0
   36.7000   26.7820   40.1080 C   0  0  0  0  0  0  0  0  0  0  0  0
   36.7260   27.6920   41.1610 C   0  0  1  0  0  0  0  0  0  0  0  0
   35.2780   29.0340   41.2080 H   0  0  0  0  0  0  0  0  0  0  0  0
   36.1910   29.7600   42.8790 H   0  0  0  0  0  0  0  0  0  0  0  0
   37.6840   29.4070   44.3060 H   0  0  0  0  0  0  0  0  0  0  0  0
   38.7250   28.8100   43.0500 H   0  0  0  0  0  0  0  0  0  0  0  0
   36.8280   27.2240   44.4770 H   0  0  0  0  0  0  0  0  0  0  0  0
   37.2700   25.0010   43.3320 H   0  0  0  0  0  0  0  0  0  0  0  0
   37.1660   23.7380   41.3340 H   0  0  0  0  0  0  0  0  0  0  0  0
   36.7970   24.8110   39.1530 H   0  0  0  0  0  0  0  0  0  0  0  0
   36.5510   27.0900   39.0750 H   0  0  0  0  0  0  0  0  0  0  0  0
   36.0670   29.7760   37.5580 C   0  0  0  0  0  0  0  0  0  0  0  0
   37.1810   30.6330   37.4250 C   0  0  0  0  0  0  0  0  0  0  0  0
   37.9440   30.8610   38.5510 C   0  0  0  0  0  0  0  0  0  0  0  0
   37.5550   30.2400   39.6930 N   0  0  0  0  0  0  0  0  0  0  0  0
   36.4700   29.4120   39.8010 C   0  0  0  0  0  0  0  0  0  0  0  0
   35.8280   29.2570   38.7270 N   0  0  0  0  0  0  0  0  0  0  0  0
   35.4040   29.5330   36.7280 H   0  0  0  0  0  0  0  0  0  0  0  0
   37.3480   31.0480   36.4420 H   0  0  0  0  0  0  0  0  0  0  0  0
   39.3330   31.9050   38.3860 S   0  0  0  0  0  0  0  0  0  0  0  0
   41.8200   33.4370   37.3510 Cl  0  0  0  0  0  0  0  0  0  0  0  0
   41.8010   31.6900   37.2280 C   0  0  0  0  0  0  0  0  0  0  0  0
   40.6960   30.9770   37.6860 C   0  0  0  0  0  0  0  0  0  0  0  0
   40.7310   29.5880   37.5640 C   0  0  0  0  0  0  0  0  0  0  0  0
   39.8490   29.0550   37.9320 H   0  0  0  0  0  0  0  0  0  0  0  0
   41.8360   28.9700   37.0060 C   0  0  0  0  0  3  0  0  0  0  0  0
   42.9200   29.7010   36.5600 C   0  0  0  0  0  0  0  0  0  0  0  0
   44.3200   28.9210   35.8530 Cl  0  0  0  0  0  0  0  0  0  0  0  0
   42.9220   31.0780   36.6630 C   0  0  0  0  0  0  0  0  0  0  0  0
   43.7600   31.6920   36.3220 H   0  0  0  0  0  0  0  0  0  0  0  0
  1 11  1  1  0  0  0
  1  2  1  0  0  0  0
  2 12  1  1  0  0  0
  2  3  1  0  0  0  0
  3  4  1  0  0  0  0
  3 13  1  0  0  0  0
  4 15  1  0  0  0  0
  5  6  1  6  0  0  0
  5  4  1  0  0  0  0
  6 16  1  0  0  0  0
  7 17  1  0  0  0  0
  7  6  2  0  0  0  0
  8  9  2  0  0  0  0
  8  7  1  0  0  0  0
 10  9  1  6  0  0  0
 10  1  1  0  0  0  0
 10  5  1  0  0  0  0
 10  2  1  0  0  0  0
 14  3  1  0  0  0  0
 18  8  1  0  0  0  0
 19  9  1  0  0  0  0
 20 25  1  0  0  0  0
 21 20  2  0  0  0  0
 21 22  1  0  0  0  0
 22 23  2  0  0  0  0
 23 24  1  0  0  0  0
 24  1  1  0  0  0  0
 25 24  2  0  0  0  0
 26 20  1  0  0  0  0
 27 21  1  0  0  0  0
 28 22  1  0  0  0  0
 30 29  1  0  0  0  0
 30 31  1  0  0  0  0
 31 28  1  0  0  0  0
 32 31  2  0  0  0  0
 32 33  1  0  0  0  0
 34 32  1  0  0  0  0
 35 37  1  0  0  0  0
 35 34  2  0  0  0  0
 36 35  1  0  0  0  0
 37 30  2  0  0  0  0
 38 37  1  0  0  0  0
M  END
>  <minimizedAffinity>
-6.12498188

$$$$

 OpenBabel03242523403D

 38 42  0  0  1  0  0  0  0  0999 V2000
   36.4850   31.0170   40.6170 C   0  0  2  0  0  0  0  0  0  0  0  0
   35.5860   30.1240   40.7460 N   0  0  2  0  0  4  0  0  0  0  0  0
   35.2360   28.9340   40.9250 C   0  0  0  0  0  0  0  0  0  0  0  0
   34.6550   29.0440   39.6830 N   0  0  0  0  0  0  0  0  0  0  0  0
   35.5210   29.6140   38.7740 C   0  0  2  0  0  3  0  0  0  0  0  0
   35.3900   29.1520   37.4330 C   0  0  0  0  0  0  0  0  0  0  0  0
   36.2660   29.6340   36.5410 C   0  0  0  0  0  0  0  0  0  0  0  0
   37.2510   30.5150   36.8290 C   0  0  0  0  0  0  0  0  0  0  0  0
   37.2630   30.8850   38.1760 C   0  0  0  0  0  0  0  0  0  0  0  0
   36.4730   30.5310   39.2660 C   0  0  1  0  0  0  0  0  0  0  0  0
   35.8200   32.0080   40.4030 H   0  0  0  0  0  0  0  0  0  0  0  0
   34.9430   30.5630   41.5400 H   0  0  0  0  0  0  0  0  0  0  0  0
   34.4640   28.5260   41.6520 H   0  0  0  0  0  0  0  0  0  0  0  0
   36.0100   28.1380   40.9600 H   0  0  0  0  0  0  0  0  0  0  0  0
   33.6590   28.7240   39.4520 H   0  0  0  0  0  0  0  0  0  0  0  0
   34.6370   28.4600   37.1240 H   0  0  0  0  0  0  0  0  0  0  0  0
   36.1570   29.2710   35.5020 H   0  0  0  0  0  0  0  0  0  0  0  0
   37.9290   30.8720   36.0870 H   0  0  0  0  0  0  0  0  0  0  0  0
   38.0960   31.5810   38.2620 H   0  0  0  0  0  0  0  0  0  0  0  0
   39.3800   33.3140   40.7040 C   0  0  0  0  0  0  0  0  0  0  0  0
   40.3320   32.3540   41.1120 C   0  0  0  0  0  0  0  0  0  0  0  0
   39.8910   31.0580   41.2840 C   0  0  0  0  0  0  0  0  0  0  0  0
   38.5770   30.8190   41.0460 N   0  0  0  0  0  0  0  0  0  0  0  0
   37.6700   31.7650   40.6520 C   0  0  0  0  0  0  0  0  0  0  0  0
   38.1530   32.9210   40.5170 N   0  0  0  0  0  0  0  0  0  0  0  0
   39.6280   34.3620   40.5410 H   0  0  0  0  0  0  0  0  0  0  0  0
   41.3380   32.7140   41.2590 H   0  0  0  0  0  0  0  0  0  0  0  0
   41.0690   29.8650   41.7680 S   0  0  0  0  0  0  0  0  0  0  0  0
   40.4070   28.0810   39.3220 Cl  0  0  0  0  0  0  0  0  0  0  0  0
   39.9650   27.5110   40.9190 C   0  0  0  0  0  0  0  0  0  0  0  0
   40.2510   28.2930   42.0350 C   0  0  0  0  0  0  0  0  0  0  0  0
   39.8780   27.7940   43.2820 C   0  0  0  0  0  0  0  0  0  0  0  0
   40.1160   28.4310   44.1410 H   0  0  0  0  0  0  0  0  0  0  0  0
   39.2490   26.5660   43.3760 C   0  0  0  0  0  3  0  0  0  0  0  0
   38.9770   25.8090   42.2530 C   0  0  0  0  0  0  0  0  0  0  0  0
   38.1810   24.2540   42.3690 Cl  0  0  0  0  0  0  0  0  0  0  0  0
   39.3310   26.2700   41.0000 C   0  0  0  0  0  0  0  0  0  0  0  0
   39.1330   25.7020   40.0870 H   0  0  0  0  0  0  0  0  0  0  0  0
  1 11  1  6  0  0  0
  1 24  1  0  0  0  0
  1  2  1  0  0  0  0
  2  3  1  0  0  0  0
  2 12  1  6  0  0  0
  3 14  1  0  0  0  0
  3 13  1  0  0  0  0
  4  3  1  0  0  0  0
  5  6  1  1  0  0  0
  5 10  1  0  0  0  0
  5  4  1  0  0  0  0
  7  8  1  0  0  0  0
  7  6  2  0  0  0  0
  8  9  2  0  0  0  0
  9 19  1  0  0  0  0
 10  9  1  1  0  0  0
 10  1  1  0  0  0  0
 10  2  1  0  0  0  0
 15  4  1  0  0  0  0
 16  6  1  0  0  0  0
 17  7  1  0  0  0  0
 18  8  1  0  0  0  0
 20 21  1  0  0  0  0
 21 27  1  0  0  0  0
 21 22  2  0  0  0  0
 22 28  1  0  0  0  0
 23 22  1  0  0  0  0
 24 23  2  0  0  0  0
 25 24  1  0  0  0  0
 25 20  2  0  0  0  0
 26 20  1  0  0  0  0
 28 31  1  0  0  0  0
 29 30  1  0  0  0  0
 30 37  2  0  0  0  0
 30 31  1  0  0  0  0
 31 32  2  0  0  0  0
 32 34  1  0  0  0  0
 32 33  1  0  0  0  0
 35 36  1  0  0  0  0
 35 34  2  0  0  0  0
 37 35  1  0  0  0  0
 38 37  1  0  0  0  0
M  END
>  <minimizedAffinity>
-6.07076836

$$$$

 OpenBabel03242523403D

 38 42  0  0  1  0  0  0  0  0999 V2000
   37.1170   31.3700   40.9670 C   0  0  2  0  0  0  0  0  0  0  0  0
   36.9950   32.3500   40.1630 N   0  0  2  0  0  4  0  0  0  0  0  0
   37.0530   32.8420   39.0120 C   0  0  0  0  0  0  0  0  0  0  0  0
   38.0190   33.6660   39.5410 N   0  0  0  0  0  0  0  0  0  0  0  0
   38.9400   32.9490   40.2750 C   0  0  2  0  0  3  0  0  0  0  0  0
   40.2700   33.4570   40.2500 C   0  0  0  0  0  0  0  0  0  0  0  0
   41.2020   32.7410   40.8940 C   0  0  0  0  0  0  0  0  0  0  0  0
   40.9640   31.5860   41.5540 C   0  0  0  0  0  0  0  0  0  0  0  0
   39.6200   31.2040   41.5010 C   0  0  0  0  0  0  0  0  0  0  0  0
   38.4940   31.7720   40.9110 C   0  0  1  0  0  0  0  0  0  0  0  0
   36.8740   31.8940   42.0340 H   0  0  0  0  0  0  0  0  0  0  0  0
   35.9710   32.7140   40.4010 H   0  0  0  0  0  0  0  0  0  0  0  0
   36.2820   33.4830   38.4780 H   0  0  0  0  0  0  0  0  0  0  0  0
   37.4380   32.2230   38.1740 H   0  0  0  0  0  0  0  0  0  0  0  0
   38.0520   34.7270   39.3980 H   0  0  0  0  0  0  0  0  0  0  0  0
   40.5400   34.3650   39.7540 H   0  0  0  0  0  0  0  0  0  0  0  0
   42.2320   33.1440   40.8700 H   0  0  0  0  0  0  0  0  0  0  0  0
   41.7370   31.0460   42.0520 H   0  0  0  0  0  0  0  0  0  0  0  0
   39.5780   30.2700   42.0590 H   0  0  0  0  0  0  0  0  0  0  0  0
   37.3360   28.2120   42.8760 C   0  0  0  0  0  0  0  0  0  0  0  0
   36.9790   27.3580   41.8100 C   0  0  0  0  0  0  0  0  0  0  0  0
   36.7320   27.9420   40.5850 C   0  0  0  0  0  0  0  0  0  0  0  0
   36.8550   29.2910   40.5110 N   0  0  0  0  0  0  0  0  0  0  0  0
   37.2020   30.1020   41.5580 C   0  0  0  0  0  0  0  0  0  0  0  0
   37.4100   29.4900   42.6400 N   0  0  0  0  0  0  0  0  0  0  0  0
   37.5510   27.8480   43.8800 H   0  0  0  0  0  0  0  0  0  0  0  0
   36.9250   26.3050   42.0410 H   0  0  0  0  0  0  0  0  0  0  0  0
   36.3090   26.8870   39.2600 S   0  0  0  0  0  0  0  0  0  0  0  0
   33.9450   28.6900   38.3890 Cl  0  0  0  0  0  0  0  0  0  0  0  0
   35.3510   28.5920   37.3490 C   0  0  0  0  0  0  0  0  0  0  0  0
   36.4280   27.7890   37.7170 C   0  0  0  0  0  0  0  0  0  0  0  0
   37.5230   27.7460   36.8540 C   0  0  0  0  0  0  0  0  0  0  0  0
   38.3530   27.1060   37.1700 H   0  0  0  0  0  0  0  0  0  0  0  0
   37.5110   28.4840   35.6850 C   0  0  0  0  0  3  0  0  0  0  0  0
   36.4300   29.2730   35.3420 C   0  0  0  0  0  0  0  0  0  0  0  0
   36.4130   30.2080   33.8620 Cl  0  0  0  0  0  0  0  0  0  0  0  0
   35.3280   29.3420   36.1710 C   0  0  0  0  0  0  0  0  0  0  0  0
   34.4530   29.9540   35.9370 H   0  0  0  0  0  0  0  0  0  0  0  0
  1 24  1  0  0  0  0
  1 11  1  1  0  0  0
  2 12  1  1  0  0  0
  2 10  1  0  0  0  0
  2  1  1  0  0  0  0
  3  4  1  0  0  0  0
  3  2  1  0  0  0  0
  4  5  1  0  0  0  0
  5  6  1  6  0  0  0
  5 10  1  0  0  0  0
  6  7  2  0  0  0  0
  7  8  1  0  0  0  0
  8 18  1  0  0  0  0
  9  8  2  0  0  0  0
  9 19  1  0  0  0  0
 10  1  1  0  0  0  0
 10  9  1  6  0  0  0
 13  3  1  0  0  0  0
 14  3  1  0  0  0  0
 15  4  1  0  0  0  0
 16  6  1  0  0  0  0
 17  7  1  0  0  0  0
 20 26  1  0  0  0  0
 21 27  1  0  0  0  0
 21 20  2  0  0  0  0
 22 21  1  0  0  0  0
 23 22  2  0  0  0  0
 23 24  1  0  0  0  0
 24 25  2  0  0  0  0
 25 20  1  0  0  0  0
 28 22  1  0  0  0  0
 30 31  1  0  0  0  0
 30 29  1  0  0  0  0
 31 28  1  0  0  0  0
 32 33  1  0  0  0  0
 32 31  2  0  0  0  0
 34 32  1  0  0  0  0
 35 34  2  0  0  0  0
 35 37  1  0  0  0  0
 36 35  1  0  0  0  0
 37 30  2  0  0  0  0
 38 37  1  0  0  0  0
M  END
>  <minimizedAffinity>
-6.03500938

$$$$
