
 OpenBabel03252506533D

 32 35  0  0  0  0  0  0  0  0999 V2000
   37.9150   29.3150   40.1110 C   0  0  0  0  0  0  0  0  0  0  0  0
   38.6760   29.7370   41.1830 C   0  0  0  0  0  0  0  0  0  0  0  0
   38.8640   31.0770   41.5030 C   0  0  0  0  0  0  0  0  0  0  0  0
   38.2500   32.0440   40.6940 C   0  0  0  0  0  0  0  0  0  0  0  0
   38.2090   33.4100   40.6960 N   0  0  0  0  0  0  0  0  0  0  0  0
   37.4400   33.8100   39.6500 C   0  0  0  0  0  0  0  0  0  0  0  0
   37.0210   32.6950   39.0200 N   0  0  0  0  0  0  0  0  0  0  0  0
   37.5000   31.5990   39.6340 C   0  0  0  0  0  0  0  0  0  0  0  0
   37.3090   30.2820   39.3120 C   0  0  0  0  0  0  0  0  0  0  0  0
   37.8080   28.2490   39.9140 H   0  0  0  0  0  0  0  0  0  0  0  0
   39.4510   31.4010   42.3300 H   0  0  0  0  0  0  0  0  0  0  0  0
   38.7000   34.0030   41.4040 H   0  0  0  0  0  0  0  0  0  0  0  0
   37.2750   34.8450   39.4670 H   0  0  0  0  0  0  0  0  0  0  0  0
   34.5360   29.3190   39.9300 Cl  0  0  0  0  0  0  0  0  0  0  0  0
   35.2030   29.3260   38.2980 C   0  0  0  0  0  0  0  0  0  0  0  0
   36.5110   29.8070   38.1850 C   0  0  0  0  0  0  0  0  0  0  0  0
   37.0530   29.8210   36.9080 C   0  0  0  0  0  0  0  0  0  0  0  0
   38.0680   30.1880   36.7850 H   0  0  0  0  0  0  0  0  0  0  0  0
   36.3870   29.3950   35.7720 C   0  0  0  0  0  3  0  0  0  0  0  0
   35.1130   28.9350   35.9400 C   0  0  0  0  0  0  0  0  0  0  0  0
   34.2130   28.3820   34.5560 Cl  0  0  0  0  0  0  0  0  0  0  0  0
   34.5270   28.8990   37.1760 C   0  0  0  0  0  0  0  0  0  0  0  0
   33.5150   28.5390   37.3510 H   0  0  0  0  0  0  0  0  0  0  0  0
   41.2680   27.7480   42.8840 C   0  0  0  0  0  0  0  0  0  0  0  0
   40.4900   26.8720   43.6740 C   0  0  0  0  0  0  0  0  0  0  0  0
   39.0800   26.9710   43.6170 C   0  0  0  0  0  0  0  0  0  0  0  0
   38.5560   27.9240   42.7860 N   0  0  0  0  0  0  0  0  0  0  0  0
   39.3270   28.7490   42.0410 C   0  0  0  0  0  0  0  0  0  0  0  0
   40.6530   28.6510   42.1000 N   0  0  0  0  0  0  0  0  0  0  0  0
   42.3320   27.6270   42.9670 H   0  0  0  0  0  0  0  0  0  0  0  0
   40.8770   26.1100   44.3370 H   0  0  0  0  0  0  0  0  0  0  0  0
   38.4120   26.3560   44.1730 H   0  0  0  0  0  0  0  0  0  0  0  0
  1  2  1  0  0  0  0
  2  3  2  0  0  0  0
  2 28  1  0  0  0  0
  3 11  1  0  0  0  0
  4  5  1  0  0  0  0
  4  3  1  0  0  0  0
  5 12  1  0  0  0  0
  6  5  1  0  0  0  0
  7  8  1  0  0  0  0
  7  6  2  0  0  0  0
  8  4  2  0  0  0  0
  9  8  1  0  0  0  0
  9  1  2  0  0  0  0
 10  1  1  0  0  0  0
 13  6  1  0  0  0  0
 15 14  1  0  0  0  0
 16 15  1  0  0  0  0
 16  9  1  0  0  0  0
 17 16  2  0  0  0  0
 18 17  1  0  0  0  0
 19 20  2  0  0  0  0
 19 17  1  0  0  0  0
 20 22  1  0  0  0  0
 21 20  1  0  0  0  0
 22 23  1  0  0  0  0
 22 15  2  0  0  0  0
 24 30  1  0  0  0  0
 24 25  1  0  0  0  0
 25 31  1  0  0  0  0
 26 25  2  0  0  0  0
 26 32  1  0  0  0  0
 27 26  1  0  0  0  0
 28 29  1  0  0  0  0
 28 27  2  0  0  0  0
 29 24  2  0  0  0  0
M  END
>  <minimizedAffinity>
-5.85946512

$$$$

 OpenBabel03252506533D

 32 35  0  0  0  0  0  0  0  0999 V2000
   36.7210   25.4860   40.1670 C   0  0  0  0  0  0  0  0  0  0  0  0
   36.7770   24.1070   40.2210 C   0  0  0  0  0  0  0  0  0  0  0  0
   37.6380   23.4130   41.0630 C   0  0  0  0  0  0  0  0  0  0  0  0
   38.4900   24.1520   41.8960 C   0  0  0  0  0  0  0  0  0  0  0  0
   39.4410   23.8300   42.8240 N   0  0  0  0  0  0  0  0  0  0  0  0
   39.9500   24.9870   43.3230 C   0  0  0  0  0  0  0  0  0  0  0  0
   39.3150   25.9980   42.7020 N   0  0  0  0  0  0  0  0  0  0  0  0
   38.4160   25.5210   41.8230 C   0  0  0  0  0  0  0  0  0  0  0  0
   37.5710   26.2130   40.9980 C   0  0  0  0  0  0  0  0  0  0  0  0
   36.0230   25.9690   39.4840 H   0  0  0  0  0  0  0  0  0  0  0  0
   37.6810   22.3500   41.1040 H   0  0  0  0  0  0  0  0  0  0  0  0
   39.6960   22.8480   43.0740 H   0  0  0  0  0  0  0  0  0  0  0  0
   40.7110   24.9640   44.0670 H   0  0  0  0  0  0  0  0  0  0  0  0
   36.2570   27.6210   43.2990 Cl  0  0  0  0  0  0  0  0  0  0  0  0
   36.9110   28.4760   41.9030 C   0  0  0  0  0  0  0  0  0  0  0  0
   37.4900   27.6690   40.9190 C   0  0  0  0  0  0  0  0  0  0  0  0
   38.0110   28.3260   39.8130 C   0  0  0  0  0  0  0  0  0  0  0  0
   38.4680   27.7280   39.0290 H   0  0  0  0  0  0  0  0  0  0  0  0
   37.9880   29.6980   39.6360 C   0  0  0  0  0  3  0  0  0  0  0  0
   37.4110   30.4370   40.6280 C   0  0  0  0  0  0  0  0  0  0  0  0
   37.3460   32.1700   40.4750 Cl  0  0  0  0  0  0  0  0  0  0  0  0
   36.8820   29.8450   41.7410 C   0  0  0  0  0  0  0  0  0  0  0  0
   36.4130   30.3990   42.5520 H   0  0  0  0  0  0  0  0  0  0  0  0
   35.5220   22.1240   37.3830 C   0  0  0  0  0  0  0  0  0  0  0  0
   34.2030   21.8280   37.7960 C   0  0  0  0  0  0  0  0  0  0  0  0
   33.7550   22.3120   39.0470 C   0  0  0  0  0  0  0  0  0  0  0  0
   34.6420   23.0460   39.7850 N   0  0  0  0  0  0  0  0  0  0  0  0
   35.8990   23.3140   39.3630 C   0  0  0  0  0  0  0  0  0  0  0  0
   36.3150   22.8550   38.1850 N   0  0  0  0  0  0  0  0  0  0  0  0
   35.8080   21.7310   36.4250 H   0  0  0  0  0  0  0  0  0  0  0  0
   33.4810   21.2510   37.2340 H   0  0  0  0  0  0  0  0  0  0  0  0
   32.7810   22.1410   39.4430 H   0  0  0  0  0  0  0  0  0  0  0  0
  1  2  2  0  0  0  0
  1  9  1  0  0  0  0
  2  3  1  0  0  0  0
  3 11  1  0  0  0  0
  3  4  2  0  0  0  0
  4  5  1  0  0  0  0
  5 12  1  0  0  0  0
  5  6  1  0  0  0  0
  6 13  1  0  0  0  0
  7  6  2  0  0  0  0
  8  4  1  0  0  0  0
  8  7  1  0  0  0  0
  9  8  2  0  0  0  0
 10  1  1  0  0  0  0
 15 14  1  0  0  0  0
 16  9  1  0  0  0  0
 16 15  2  0  0  0  0
 17 16  1  0  0  0  0
 18 17  1  0  0  0  0
 19 17  2  0  0  0  0
 19 20  1  0  0  0  0
 20 22  2  0  0  0  0
 21 20  1  0  0  0  0
 22 15  1  0  0  0  0
 22 23  1  0  0  0  0
 24 25  2  0  0  0  0
 24 29  1  0  0  0  0
 25 26  1  0  0  0  0
 26 32  1  0  0  0  0
 26 27  2  0  0  0  0
 28 27  1  0  0  0  0
 28  2  1  0  0  0  0
 29 28  2  0  0  0  0
 30 24  1  0  0  0  0
 31 25  1  0  0  0  0
M  END
>  <minimizedAffinity>
-5.68060017

$$$$

 OpenBabel03252506533D

 32 35  0  0  0  0  0  0  0  0999 V2000
   37.0410   30.1940   38.6740 C   0  0  0  0  0  0  0  0  0  0  0  0
   35.9230   29.3990   38.8380 C   0  0  0  0  0  0  0  0  0  0  0  0
   35.5990   28.7810   40.0400 C   0  0  0  0  0  0  0  0  0  0  0  0
   36.4510   28.9760   41.1360 C   0  0  0  0  0  0  0  0  0  0  0  0
   36.4590   28.5440   42.4340 N   0  0  0  0  0  0  0  0  0  0  0  0
   37.5550   29.0650   43.0440 C   0  0  0  0  0  0  0  0  0  0  0  0
   38.2050   29.8040   42.1240 N   0  0  0  0  0  0  0  0  0  0  0  0
   37.5560   29.7690   40.9470 C   0  0  0  0  0  0  0  0  0  0  0  0
   37.8820   30.3830   39.7680 C   0  0  0  0  0  0  0  0  0  0  0  0
   37.2380   30.6500   37.7030 H   0  0  0  0  0  0  0  0  0  0  0  0
   34.7370   28.1690   40.1660 H   0  0  0  0  0  0  0  0  0  0  0  0
   35.7240   27.9220   42.8400 H   0  0  0  0  0  0  0  0  0  0  0  0
   37.7540   28.8530   44.0670 H   0  0  0  0  0  0  0  0  0  0  0  0
   37.4430   33.3490   39.8470 Cl  0  0  0  0  0  0  0  0  0  0  0  0
   39.0270   32.6250   39.5710 C   0  0  0  0  0  0  0  0  0  0  0  0
   39.0560   31.2270   39.5650 C   0  0  0  0  0  0  0  0  0  0  0  0
   40.2940   30.6390   39.3500 C   0  0  0  0  0  0  0  0  0  0  0  0
   40.3520   29.5540   39.3380 H   0  0  0  0  0  0  0  0  0  0  0  0
   41.4690   31.3420   39.1470 C   0  0  0  0  0  3  0  0  0  0  0  0
   41.3820   32.7040   39.1640 C   0  0  0  0  0  0  0  0  0  0  0  0
   42.8190   33.6560   38.9150 Cl  0  0  0  0  0  0  0  0  0  0  0  0
   40.1880   33.3390   39.3720 C   0  0  0  0  0  0  0  0  0  0  0  0
   40.0780   34.4210   39.3910 H   0  0  0  0  0  0  0  0  0  0  0  0
   32.8810   28.7250   36.8740 C   0  0  0  0  0  0  0  0  0  0  0  0
   33.3720   28.7800   35.5500 C   0  0  0  0  0  0  0  0  0  0  0  0
   34.7440   29.0490   35.3410 C   0  0  0  0  0  0  0  0  0  0  0  0
   35.5180   29.2400   36.4540 N   0  0  0  0  0  0  0  0  0  0  0  0
   35.0200   29.1810   37.7100 C   0  0  0  0  0  0  0  0  0  0  0  0
   33.7260   28.9280   37.9000 N   0  0  0  0  0  0  0  0  0  0  0  0
   31.8320   28.5170   36.9730 H   0  0  0  0  0  0  0  0  0  0  0  0
   32.7840   28.6320   34.6530 H   0  0  0  0  0  0  0  0  0  0  0  0
   35.2060   29.1090   34.3830 H   0  0  0  0  0  0  0  0  0  0  0  0
  1  2  2  0  0  0  0
  1  9  1  0  0  0  0
  2  3  1  0  0  0  0
  3 11  1  0  0  0  0
  3  4  2  0  0  0  0
  4  5  1  0  0  0  0
  5 12  1  0  0  0  0
  5  6  1  0  0  0  0
  6 13  1  0  0  0  0
  7  6  2  0  0  0  0
  8  4  1  0  0  0  0
  8  7  1  0  0  0  0
  9  8  2  0  0  0  0
 10  1  1  0  0  0  0
 15 14  1  0  0  0  0
 16 15  1  0  0  0  0
 16  9  1  0  0  0  0
 17 16  2  0  0  0  0
 18 17  1  0  0  0  0
 19 20  2  0  0  0  0
 19 17  1  0  0  0  0
 20 22  1  0  0  0  0
 21 20  1  0  0  0  0
 22 23  1  0  0  0  0
 22 15  2  0  0  0  0
 24 30  1  0  0  0  0
 24 29  1  0  0  0  0
 25 24  2  0  0  0  0
 26 25  1  0  0  0  0
 26 27  2  0  0  0  0
 27 28  1  0  0  0  0
 28 29  2  0  0  0  0
 28  2  1  0  0  0  0
 31 25  1  0  0  0  0
 32 26  1  0  0  0  0
M  END
>  <minimizedAffinity>
-5.59357977

$$$$

 OpenBabel03252506533D

 32 35  0  0  0  0  0  0  0  0999 V2000
   37.5370   28.8160   40.5060 C   0  0  0  0  0  0  0  0  0  0  0  0
   38.5060   29.1390   41.4360 C   0  0  0  0  0  0  0  0  0  0  0  0
   38.9240   30.4420   41.6780 C   0  0  0  0  0  0  0  0  0  0  0  0
   38.3320   31.4760   40.9390 C   0  0  0  0  0  0  0  0  0  0  0  0
   38.4810   32.8350   40.9020 N   0  0  0  0  0  0  0  0  0  0  0  0
   37.6220   33.3260   39.9700 C   0  0  0  0  0  0  0  0  0  0  0  0
   36.9610   32.2750   39.4490 N   0  0  0  0  0  0  0  0  0  0  0  0
   37.3730   31.1290   40.0210 C   0  0  0  0  0  0  0  0  0  0  0  0
   36.9540   29.8490   39.7760 C   0  0  0  0  0  0  0  0  0  0  0  0
   37.2550   27.7730   40.3640 H   0  0  0  0  0  0  0  0  0  0  0  0
   39.6710   30.6900   42.3960 H   0  0  0  0  0  0  0  0  0  0  0  0
   39.1530   33.3600   41.5060 H   0  0  0  0  0  0  0  0  0  0  0  0
   37.5760   34.3720   39.7800 H   0  0  0  0  0  0  0  0  0  0  0  0
   37.8420   29.6000   36.9210 Cl  0  0  0  0  0  0  0  0  0  0  0  0
   36.1780   29.3200   37.4320 C   0  0  0  0  0  0  0  0  0  0  0  0
   35.9340   29.4780   38.7990 C   0  0  0  0  0  0  0  0  0  0  0  0
   34.6300   29.2600   39.2210 C   0  0  0  0  0  0  0  0  0  0  0  0
   34.4060   29.3750   40.2780 H   0  0  0  0  0  0  0  0  0  0  0  0
   33.5870   28.9060   38.3830 C   0  0  0  0  0  3  0  0  0  0  0  0
   33.8820   28.7650   37.0580 C   0  0  0  0  0  0  0  0  0  0  0  0
   32.6200   28.3200   35.9430 Cl  0  0  0  0  0  0  0  0  0  0  0  0
   35.1500   28.9650   36.5860 C   0  0  0  0  0  0  0  0  0  0  0  0
   35.4240   28.8640   35.5380 H   0  0  0  0  0  0  0  0  0  0  0  0
   40.8170   27.3520   43.6790 C   0  0  0  0  0  0  0  0  0  0  0  0
   40.2800   26.0450   43.6690 C   0  0  0  0  0  0  0  0  0  0  0  0
   39.1280   25.7870   42.8910 C   0  0  0  0  0  0  0  0  0  0  0  0
   38.6020   26.8370   42.1890 N   0  0  0  0  0  0  0  0  0  0  0  0
   39.1380   28.0780   42.2190 C   0  0  0  0  0  0  0  0  0  0  0  0
   40.2230   28.3150   42.9540 N   0  0  0  0  0  0  0  0  0  0  0  0
   41.6920   27.4900   44.2870 H   0  0  0  0  0  0  0  0  0  0  0  0
   40.6750   25.1970   44.2120 H   0  0  0  0  0  0  0  0  0  0  0  0
   38.6520   24.8360   42.8190 H   0  0  0  0  0  0  0  0  0  0  0  0
  1  2  1  0  0  0  0
  2  3  2  0  0  0  0
  2 28  1  0  0  0  0
  3 11  1  0  0  0  0
  4  3  1  0  0  0  0
  5  4  1  0  0  0  0
  5 12  1  0  0  0  0
  6  5  1  0  0  0  0
  7  6  2  0  0  0  0
  7  8  1  0  0  0  0
  8  4  2  0  0  0  0
  9  8  1  0  0  0  0
  9  1  2  0  0  0  0
 10  1  1  0  0  0  0
 13  6  1  0  0  0  0
 14 15  1  0  0  0  0
 15 16  1  0  0  0  0
 16 17  2  0  0  0  0
 16  9  1  0  0  0  0
 17 18  1  0  0  0  0
 19 17  1  0  0  0  0
 20 19  2  0  0  0  0
 21 20  1  0  0  0  0
 22 20  1  0  0  0  0
 22 15  2  0  0  0  0
 23 22  1  0  0  0  0
 24 30  1  0  0  0  0
 25 24  1  0  0  0  0
 25 31  1  0  0  0  0
 26 25  2  0  0  0  0
 27 28  2  0  0  0  0
 27 26  1  0  0  0  0
 28 29  1  0  0  0  0
 29 24  2  0  0  0  0
 32 26  1  0  0  0  0
M  END
>  <minimizedAffinity>
-5.57808542

$$$$

 OpenBabel03252506533D

 32 35  0  0  0  0  0  0  0  0999 V2000
   37.0390   30.1500   39.1810 C   0  0  0  0  0  0  0  0  0  0  0  0
   35.9530   29.2960   39.2060 C   0  0  0  0  0  0  0  0  0  0  0  0
   35.5960   28.5510   40.3230 C   0  0  0  0  0  0  0  0  0  0  0  0
   36.3790   28.6730   41.4790 C   0  0  0  0  0  0  0  0  0  0  0  0
   36.3400   28.1170   42.7280 N   0  0  0  0  0  0  0  0  0  0  0  0
   37.3770   28.6210   43.4460 C   0  0  0  0  0  0  0  0  0  0  0  0
   38.0380   29.4730   42.6390 N   0  0  0  0  0  0  0  0  0  0  0  0
   37.4530   29.5260   41.4300 C   0  0  0  0  0  0  0  0  0  0  0  0
   37.8120   30.2650   40.3340 C   0  0  0  0  0  0  0  0  0  0  0  0
   37.2650   30.7060   38.2720 H   0  0  0  0  0  0  0  0  0  0  0  0
   34.7580   27.8930   40.3410 H   0  0  0  0  0  0  0  0  0  0  0  0
   35.6150   27.4280   43.0310 H   0  0  0  0  0  0  0  0  0  0  0  0
   37.5320   28.3180   44.4540 H   0  0  0  0  0  0  0  0  0  0  0  0
   40.4560   29.0700   39.5730 Cl  0  0  0  0  0  0  0  0  0  0  0  0
   40.2530   30.7820   39.9430 C   0  0  0  0  0  0  0  0  0  0  0  0
   38.9540   31.1740   40.2790 C   0  0  0  0  0  0  0  0  0  0  0  0
   38.7740   32.5180   40.5720 C   0  0  0  0  0  0  0  0  0  0  0  0
   37.7760   32.8570   40.8380 H   0  0  0  0  0  0  0  0  0  0  0  0
   39.7830   33.4650   40.5510 C   0  0  0  0  0  3  0  0  0  0  0  0
   41.0320   33.0260   40.2160 C   0  0  0  0  0  0  0  0  0  0  0  0
   42.3520   34.1600   40.1680 Cl  0  0  0  0  0  0  0  0  0  0  0  0
   41.2680   31.7130   39.9160 C   0  0  0  0  0  0  0  0  0  0  0  0
   42.2480   31.3250   39.6460 H   0  0  0  0  0  0  0  0  0  0  0  0
   33.0340   28.7780   37.0200 C   0  0  0  0  0  0  0  0  0  0  0  0
   33.6090   28.8910   35.7340 C   0  0  0  0  0  0  0  0  0  0  0  0
   34.9970   29.1440   35.6280 C   0  0  0  0  0  0  0  0  0  0  0  0
   35.6990   29.2650   36.7950 N   0  0  0  0  0  0  0  0  0  0  0  0
   35.1200   29.1520   38.0130 C   0  0  0  0  0  0  0  0  0  0  0  0
   33.8140   28.9140   38.1060 N   0  0  0  0  0  0  0  0  0  0  0  0
   31.9770   28.5860   37.0410 H   0  0  0  0  0  0  0  0  0  0  0  0
   33.0790   28.7990   34.7960 H   0  0  0  0  0  0  0  0  0  0  0  0
   35.5200   29.2440   34.7050 H   0  0  0  0  0  0  0  0  0  0  0  0
  1  2  2  0  0  0  0
  1  9  1  0  0  0  0
  2  3  1  0  0  0  0
  3 11  1  0  0  0  0
  3  4  2  0  0  0  0
  4  5  1  0  0  0  0
  5 12  1  0  0  0  0
  5  6  1  0  0  0  0
  6 13  1  0  0  0  0
  7  6  2  0  0  0  0
  8  4  1  0  0  0  0
  8  7  1  0  0  0  0
  9  8  2  0  0  0  0
 10  1  1  0  0  0  0
 14 15  1  0  0  0  0
 15 16  1  0  0  0  0
 16  9  1  0  0  0  0
 16 17  2  0  0  0  0
 17 18  1  0  0  0  0
 19 17  1  0  0  0  0
 20 19  2  0  0  0  0
 21 20  1  0  0  0  0
 22 15  2  0  0  0  0
 22 20  1  0  0  0  0
 23 22  1  0  0  0  0
 24 30  1  0  0  0  0
 24 29  1  0  0  0  0
 25 24  2  0  0  0  0
 26 25  1  0  0  0  0
 26 27  2  0  0  0  0
 27 28  1  0  0  0  0
 28 29  2  0  0  0  0
 28  2  1  0  0  0  0
 31 25  1  0  0  0  0
 32 26  1  0  0  0  0
M  END
>  <minimizedAffinity>
-5.53642035

$$$$

 OpenBabel03252506533D

 32 35  0  0  0  0  0  0  0  0999 V2000
   40.6010   30.2490   38.8120 C   0  0  0  0  0  0  0  0  0  0  0  0
   41.2920   31.2470   38.1520 C   0  0  0  0  0  0  0  0  0  0  0  0
   41.0140   32.5990   38.3130 C   0  0  0  0  0  0  0  0  0  0  0  0
   39.9800   32.9640   39.1880 C   0  0  0  0  0  0  0  0  0  0  0  0
   39.4370   34.1530   39.5870 N   0  0  0  0  0  0  0  0  0  0  0  0
   38.4400   33.8840   40.4700 C   0  0  0  0  0  0  0  0  0  0  0  0
   38.3800   32.5450   40.6020 N   0  0  0  0  0  0  0  0  0  0  0  0
   39.3090   31.9540   39.8310 C   0  0  0  0  0  0  0  0  0  0  0  0
   39.5760   30.6200   39.6790 C   0  0  0  0  0  0  0  0  0  0  0  0
   40.8690   29.2070   38.6410 H   0  0  0  0  0  0  0  0  0  0  0  0
   41.5470   33.3680   37.8040 H   0  0  0  0  0  0  0  0  0  0  0  0
   39.7670   35.0840   39.2450 H   0  0  0  0  0  0  0  0  0  0  0  0
   37.8800   34.6760   40.9080 H   0  0  0  0  0  0  0  0  0  0  0  0
   37.0050   29.6990   38.4380 Cl  0  0  0  0  0  0  0  0  0  0  0  0
   37.6550   28.9990   39.9190 C   0  0  0  0  0  0  0  0  0  0  0  0
   38.8640   29.5440   40.3620 C   0  0  0  0  0  0  0  0  0  0  0  0
   39.3910   29.0040   41.5270 C   0  0  0  0  0  0  0  0  0  0  0  0
   40.3300   29.4060   41.8990 H   0  0  0  0  0  0  0  0  0  0  0  0
   38.8010   27.9850   42.2540 C   0  0  0  0  0  3  0  0  0  0  0  0
   37.6220   27.4900   41.7750 C   0  0  0  0  0  0  0  0  0  0  0  0
   36.8210   26.2060   42.6360 Cl  0  0  0  0  0  0  0  0  0  0  0  0
   37.0560   27.9820   40.6310 C   0  0  0  0  0  0  0  0  0  0  0  0
   36.1180   27.6160   40.2190 H   0  0  0  0  0  0  0  0  0  0  0  0
   44.5110   31.2780   36.3630 C   0  0  0  0  0  0  0  0  0  0  0  0
   44.3690   30.1760   35.4890 C   0  0  0  0  0  0  0  0  0  0  0  0
   43.1670   29.4310   35.5210 C   0  0  0  0  0  0  0  0  0  0  0  0
   42.2080   29.8330   36.4100 N   0  0  0  0  0  0  0  0  0  0  0  0
   42.3730   30.8930   37.2340 C   0  0  0  0  0  0  0  0  0  0  0  0
   43.5070   31.5900   37.2000 N   0  0  0  0  0  0  0  0  0  0  0  0
   45.4440   31.8070   36.2950 H   0  0  0  0  0  0  0  0  0  0  0  0
   45.1090   29.8370   34.7770 H   0  0  0  0  0  0  0  0  0  0  0  0
   42.9670   28.5870   34.9020 H   0  0  0  0  0  0  0  0  0  0  0  0
  1  9  1  0  0  0  0
  2  3  1  0  0  0  0
  2  1  2  0  0  0  0
  3  4  2  0  0  0  0
  4  5  1  0  0  0  0
  4  8  1  0  0  0  0
  5  6  1  0  0  0  0
  6  7  2  0  0  0  0
  6 13  1  0  0  0  0
  8  7  1  0  0  0  0
  9  8  2  0  0  0  0
  9 16  1  0  0  0  0
 10  1  1  0  0  0  0
 11  3  1  0  0  0  0
 12  5  1  0  0  0  0
 14 15  1  0  0  0  0
 15 16  2  0  0  0  0
 15 22  1  0  0  0  0
 16 17  1  0  0  0  0
 17 18  1  0  0  0  0
 17 19  2  0  0  0  0
 20 19  1  0  0  0  0
 20 21  1  0  0  0  0
 22 20  2  0  0  0  0
 23 22  1  0  0  0  0
 24 29  1  0  0  0  0
 25 26  1  0  0  0  0
 25 24  2  0  0  0  0
 26 27  2  0  0  0  0
 27 28  1  0  0  0  0
 28  2  1  0  0  0  0
 29 28  2  0  0  0  0
 30 24  1  0  0  0  0
 31 25  1  0  0  0  0
 32 26  1  0  0  0  0
M  END
>  <minimizedAffinity>
-5.42115259

$$$$

 OpenBabel03252506533D

 32 35  0  0  0  0  0  0  0  0999 V2000
   38.2070   29.4150   39.6390 C   0  0  0  0  0  0  0  0  0  0  0  0
   38.6900   30.3970   40.4820 C   0  0  0  0  0  0  0  0  0  0  0  0
   38.4880   30.3870   41.8570 C   0  0  0  0  0  0  0  0  0  0  0  0
   37.7570   29.3270   42.4120 C   0  0  0  0  0  0  0  0  0  0  0  0
   37.3670   28.9900   43.6790 N   0  0  0  0  0  0  0  0  0  0  0  0
   36.6640   27.8290   43.6070 C   0  0  0  0  0  0  0  0  0  0  0  0
   36.6280   27.4690   42.3100 N   0  0  0  0  0  0  0  0  0  0  0  0
   37.2870   28.3640   41.5540 C   0  0  0  0  0  0  0  0  0  0  0  0
   37.4820   28.3660   40.1980 C   0  0  0  0  0  0  0  0  0  0  0  0
   38.4010   29.4830   38.5690 H   0  0  0  0  0  0  0  0  0  0  0  0
   38.8610   31.1450   42.5060 H   0  0  0  0  0  0  0  0  0  0  0  0
   37.5960   29.5590   44.5250 H   0  0  0  0  0  0  0  0  0  0  0  0
   36.2660   27.3860   44.4880 H   0  0  0  0  0  0  0  0  0  0  0  0
   34.8040   28.8640   38.9410 Cl  0  0  0  0  0  0  0  0  0  0  0  0
   35.7580   27.4180   38.6150 C   0  0  0  0  0  0  0  0  0  0  0  0
   36.9830   27.3430   39.2840 C   0  0  0  0  0  0  0  0  0  0  0  0
   37.7490   26.2110   39.0390 C   0  0  0  0  0  0  0  0  0  0  0  0
   38.7070   26.1210   39.5430 H   0  0  0  0  0  0  0  0  0  0  0  0
   37.3740   25.1820   38.1930 C   0  0  0  0  0  3  0  0  0  0  0  0
   36.1680   25.3080   37.5660 C   0  0  0  0  0  0  0  0  0  0  0  0
   35.6300   24.0530   36.4860 Cl  0  0  0  0  0  0  0  0  0  0  0  0
   35.3720   26.4010   37.7680 C   0  0  0  0  0  0  0  0  0  0  0  0
   34.4040   26.5380   37.2890 H   0  0  0  0  0  0  0  0  0  0  0  0
   40.4290   33.6280   40.1630 C   0  0  0  0  0  0  0  0  0  0  0  0
   40.8990   33.5760   38.8310 C   0  0  0  0  0  0  0  0  0  0  0  0
   40.6150   32.4300   38.0520 C   0  0  0  0  0  0  0  0  0  0  0  0
   39.8920   31.4340   38.6500 N   0  0  0  0  0  0  0  0  0  0  0  0
   39.4560   31.5130   39.9280 C   0  0  0  0  0  0  0  0  0  0  0  0
   39.7270   32.5940   40.6560 N   0  0  0  0  0  0  0  0  0  0  0  0
   40.6740   34.5220   40.7070 H   0  0  0  0  0  0  0  0  0  0  0  0
   41.4710   34.3470   38.3330 H   0  0  0  0  0  0  0  0  0  0  0  0
   40.9250   32.2980   37.0420 H   0  0  0  0  0  0  0  0  0  0  0  0
  1  9  2  0  0  0  0
  1  2  1  0  0  0  0
  2  3  2  0  0  0  0
  3  4  1  0  0  0  0
  3 11  1  0  0  0  0
  4  5  1  0  0  0  0
  5 12  1  0  0  0  0
  6  5  1  0  0  0  0
  6 13  1  0  0  0  0
  7  6  2  0  0  0  0
  8  7  1  0  0  0  0
  8  4  2  0  0  0  0
  9  8  1  0  0  0  0
 10  1  1  0  0  0  0
 15 14  1  0  0  0  0
 15 16  1  0  0  0  0
 16  9  1  0  0  0  0
 17 16  2  0  0  0  0
 17 18  1  0  0  0  0
 19 17  1  0  0  0  0
 20 22  1  0  0  0  0
 20 19  2  0  0  0  0
 21 20  1  0  0  0  0
 22 15  2  0  0  0  0
 23 22  1  0  0  0  0
 24 29  1  0  0  0  0
 24 30  1  0  0  0  0
 25 24  2  0  0  0  0
 26 27  2  0  0  0  0
 26 25  1  0  0  0  0
 27 28  1  0  0  0  0
 28  2  1  0  0  0  0
 28 29  2  0  0  0  0
 31 25  1  0  0  0  0
 32 26  1  0  0  0  0
M  END
>  <minimizedAffinity>
-5.30043983

$$$$

 OpenBabel03252506533D

 32 35  0  0  0  0  0  0  0  0999 V2000
   36.8850   26.9550   40.0470 C   0  0  0  0  0  0  0  0  0  0  0  0
   36.9020   25.6040   40.3340 C   0  0  0  0  0  0  0  0  0  0  0  0
   37.6400   25.0560   41.3760 C   0  0  0  0  0  0  0  0  0  0  0  0
   38.4050   25.9200   42.1720 C   0  0  0  0  0  0  0  0  0  0  0  0
   39.2320   25.7520   43.2480 N   0  0  0  0  0  0  0  0  0  0  0  0
   39.7060   26.9730   43.6080 C   0  0  0  0  0  0  0  0  0  0  0  0
   39.1730   27.8700   42.7560 N   0  0  0  0  0  0  0  0  0  0  0  0
   38.3740   27.2570   41.8660 C   0  0  0  0  0  0  0  0  0  0  0  0
   37.6490   27.8060   40.8420 C   0  0  0  0  0  0  0  0  0  0  0  0
   36.2850   27.3200   39.2140 H   0  0  0  0  0  0  0  0  0  0  0  0
   37.6510   24.0140   41.5960 H   0  0  0  0  0  0  0  0  0  0  0  0
   39.4320   24.8240   43.6850 H   0  0  0  0  0  0  0  0  0  0  0  0
   40.3730   27.0710   44.4310 H   0  0  0  0  0  0  0  0  0  0  0  0
   39.8640   28.8520   39.1100 Cl  0  0  0  0  0  0  0  0  0  0  0  0
   38.5660   29.8750   39.7220 C   0  0  0  0  0  0  0  0  0  0  0  0
   37.6130   29.2290   40.5160 C   0  0  0  0  0  0  0  0  0  0  0  0
   36.5830   30.0190   41.0060 C   0  0  0  0  0  0  0  0  0  0  0  0
   35.8260   29.5480   41.6270 H   0  0  0  0  0  0  0  0  0  0  0  0
   36.4520   31.3740   40.7600 C   0  0  0  0  0  3  0  0  0  0  0  0
   37.4100   31.9540   39.9790 C   0  0  0  0  0  0  0  0  0  0  0  0
   37.3110   33.6560   39.6260 Cl  0  0  0  0  0  0  0  0  0  0  0  0
   38.4480   31.2250   39.4670 C   0  0  0  0  0  0  0  0  0  0  0  0
   39.2310   31.6500   38.8420 H   0  0  0  0  0  0  0  0  0  0  0  0
   35.0270   22.6270   39.2430 C   0  0  0  0  0  0  0  0  0  0  0  0
   34.6270   22.9960   37.9380 C   0  0  0  0  0  0  0  0  0  0  0  0
   35.0050   24.2660   37.4430 C   0  0  0  0  0  0  0  0  0  0  0  0
   35.7440   25.0640   38.2730 N   0  0  0  0  0  0  0  0  0  0  0  0
   36.1120   24.6820   39.5180 C   0  0  0  0  0  0  0  0  0  0  0  0
   35.7530   23.4860   39.9790 N   0  0  0  0  0  0  0  0  0  0  0  0
   34.7120   21.6520   39.5660 H   0  0  0  0  0  0  0  0  0  0  0  0
   34.0450   22.3870   37.2610 H   0  0  0  0  0  0  0  0  0  0  0  0
   34.7530   24.6330   36.4750 H   0  0  0  0  0  0  0  0  0  0  0  0
  1  2  2  0  0  0  0
  1  9  1  0  0  0  0
  2  3  1  0  0  0  0
  3 11  1  0  0  0  0
  3  4  2  0  0  0  0
  4  5  1  0  0  0  0
  5  6  1  0  0  0  0
  5 12  1  0  0  0  0
  6 13  1  0  0  0  0
  7  6  2  0  0  0  0
  8  4  1  0  0  0  0
  8  7  1  0  0  0  0
  9  8  2  0  0  0  0
 10  1  1  0  0  0  0
 14 15  1  0  0  0  0
 15 16  1  0  0  0  0
 16  9  1  0  0  0  0
 16 17  2  0  0  0  0
 17 18  1  0  0  0  0
 19 17  1  0  0  0  0
 20 19  2  0  0  0  0
 21 20  1  0  0  0  0
 22 15  2  0  0  0  0
 22 20  1  0  0  0  0
 23 22  1  0  0  0  0
 24 30  1  0  0  0  0
 24 29  1  0  0  0  0
 25 24  2  0  0  0  0
 26 25  1  0  0  0  0
 26 27  2  0  0  0  0
 27 28  1  0  0  0  0
 28 29  2  0  0  0  0
 28  2  1  0  0  0  0
 31 25  1  0  0  0  0
 32 26  1  0  0  0  0
M  END
>  <minimizedAffinity>
-5.29123545

$$$$

 OpenBabel03252506533D

 32 35  0  0  0  0  0  0  0  0999 V2000
   40.0980   29.4010   38.6530 C   0  0  0  0  0  0  0  0  0  0  0  0
   40.6060   30.4720   37.9440 C   0  0  0  0  0  0  0  0  0  0  0  0
   40.0260   31.7350   37.9540 C   0  0  0  0  0  0  0  0  0  0  0  0
   38.8680   31.9260   38.7210 C   0  0  0  0  0  0  0  0  0  0  0  0
   38.0460   32.9910   38.9670 N   0  0  0  0  0  0  0  0  0  0  0  0
   37.0610   32.5760   39.8060 C   0  0  0  0  0  0  0  0  0  0  0  0
   37.2840   31.2730   40.0640 N   0  0  0  0  0  0  0  0  0  0  0  0
   38.3820   30.8460   39.4150 C   0  0  0  0  0  0  0  0  0  0  0  0
   38.9470   29.5990   39.4120 C   0  0  0  0  0  0  0  0  0  0  0  0
   40.6010   28.4350   38.6010 H   0  0  0  0  0  0  0  0  0  0  0  0
   40.4190   32.5600   37.4080 H   0  0  0  0  0  0  0  0  0  0  0  0
   38.1920   33.9410   38.5580 H   0  0  0  0  0  0  0  0  0  0  0  0
   36.3070   33.2540   40.1280 H   0  0  0  0  0  0  0  0  0  0  0  0
   39.8290   29.3170   42.2650 Cl  0  0  0  0  0  0  0  0  0  0  0  0
   38.7430   28.1700   41.4840 C   0  0  0  0  0  0  0  0  0  0  0  0
   38.4320   28.4490   40.1490 C   0  0  0  0  0  0  0  0  0  0  0  0
   37.5770   27.5570   39.5180 C   0  0  0  0  0  0  0  0  0  0  0  0
   37.3150   27.7440   38.4800 H   0  0  0  0  0  0  0  0  0  0  0  0
   37.0310   26.4370   40.1200 C   0  0  0  0  0  3  0  0  0  0  0  0
   37.3690   26.2140   41.4240 C   0  0  0  0  0  0  0  0  0  0  0  0
   36.7200   24.8240   42.2490 Cl  0  0  0  0  0  0  0  0  0  0  0  0
   38.2060   27.0590   42.0980 C   0  0  0  0  0  0  0  0  0  0  0  0
   38.5000   26.9150   43.1360 H   0  0  0  0  0  0  0  0  0  0  0  0
   43.1230   29.0090   35.6870 C   0  0  0  0  0  0  0  0  0  0  0  0
   44.0990   30.0300   35.6390 C   0  0  0  0  0  0  0  0  0  0  0  0
   43.8850   31.2140   36.3830 C   0  0  0  0  0  0  0  0  0  0  0  0
   42.7290   31.2920   37.1110 N   0  0  0  0  0  0  0  0  0  0  0  0
   41.8130   30.2980   37.1370 C   0  0  0  0  0  0  0  0  0  0  0  0
   42.0190   29.1860   36.4340 N   0  0  0  0  0  0  0  0  0  0  0  0
   43.3370   28.1340   35.1030 H   0  0  0  0  0  0  0  0  0  0  0  0
   45.0200   29.9950   35.0740 H   0  0  0  0  0  0  0  0  0  0  0  0
   44.5620   32.0360   36.4110 H   0  0  0  0  0  0  0  0  0  0  0  0
  1  9  1  0  0  0  0
  2  3  1  0  0  0  0
  2  1  2  0  0  0  0
  3  4  2  0  0  0  0
  4  5  1  0  0  0  0
  4  8  1  0  0  0  0
  5  6  1  0  0  0  0
  6  7  2  0  0  0  0
  6 13  1  0  0  0  0
  8  7  1  0  0  0  0
  9  8  2  0  0  0  0
  9 16  1  0  0  0  0
 10  1  1  0  0  0  0
 11  3  1  0  0  0  0
 12  5  1  0  0  0  0
 15 22  1  0  0  0  0
 15 14  1  0  0  0  0
 16 15  2  0  0  0  0
 17 19  2  0  0  0  0
 17 16  1  0  0  0  0
 18 17  1  0  0  0  0
 19 20  1  0  0  0  0
 20 22  2  0  0  0  0
 20 21  1  0  0  0  0
 22 23  1  0  0  0  0
 24 29  1  0  0  0  0
 25 24  2  0  0  0  0
 25 26  1  0  0  0  0
 26 32  1  0  0  0  0
 26 27  2  0  0  0  0
 27 28  1  0  0  0  0
 28  2  1  0  0  0  0
 29 28  2  0  0  0  0
 30 24  1  0  0  0  0
 31 25  1  0  0  0  0
M  END
>  <minimizedAffinity>
-5.24447536

$$$$
