
 OpenBabel03252506523D

 32 35  0  0  0  0  0  0  0  0999 V2000
   47.2120   31.3680   45.1070 C   0  0  0  0  0  0  0  0  0  0  0  0
   46.8830   32.7100   45.0900 C   0  0  0  0  0  0  0  0  0  0  0  0
   46.2760   33.3570   46.1600 C   0  0  0  0  0  0  0  0  0  0  0  0
   45.9850   32.6080   47.3100 C   0  0  0  0  0  0  0  0  0  0  0  0
   45.4100   32.8910   48.5180 N   0  0  0  0  0  0  0  0  0  0  0  0
   45.3920   31.7470   49.2510 C   0  0  0  0  0  0  0  0  0  0  0  0
   45.9480   30.7830   48.4940 N   0  0  0  0  0  0  0  0  0  0  0  0
   46.3210   31.2780   47.3000 C   0  0  0  0  0  0  0  0  0  0  0  0
   46.9190   30.6320   46.2520 C   0  0  0  0  0  0  0  0  0  0  0  0
   47.6870   30.9210   44.2330 H   0  0  0  0  0  0  0  0  0  0  0  0
   46.0220   34.3910   46.1470 H   0  0  0  0  0  0  0  0  0  0  0  0
   45.0620   33.8390   48.7850 H   0  0  0  0  0  0  0  0  0  0  0  0
   44.9840   31.7440   50.2340 H   0  0  0  0  0  0  0  0  0  0  0  0
   44.7420   28.6890   45.5530 Cl  0  0  0  0  0  0  0  0  0  0  0  0
   46.3870   28.1840   45.9380 C   0  0  0  0  0  0  0  0  0  0  0  0
   47.2780   29.2160   46.2410 C   0  0  0  0  0  0  0  0  0  0  0  0
   48.5780   28.8370   46.5460 C   0  0  0  0  0  0  0  0  0  0  0  0
   49.2970   29.6150   46.7870 H   0  0  0  0  0  0  0  0  0  0  0  0
   49.0250   27.5280   46.5660 C   0  0  0  0  0  3  0  0  0  0  0  0
   48.1130   26.5600   46.2620 C   0  0  0  0  0  0  0  0  0  0  0  0
   48.6050   24.8900   46.2670 Cl  0  0  0  0  0  0  0  0  0  0  0  0
   46.8190   26.8740   45.9540 C   0  0  0  0  0  0  0  0  0  0  0  0
   46.0620   26.1330   45.7060 H   0  0  0  0  0  0  0  0  0  0  0  0
   46.5790   35.1850   42.3800 C   0  0  0  0  0  0  0  0  0  0  0  0
   47.7840   34.9870   41.6690 C   0  0  0  0  0  0  0  0  0  0  0  0
   48.6930   34.0050   42.1260 C   0  0  0  0  0  0  0  0  0  0  0  0
   48.3380   33.3000   43.2440 N   0  0  0  0  0  0  0  0  0  0  0  0
   47.1760   33.5120   43.9040 C   0  0  0  0  0  0  0  0  0  0  0  0
   46.3250   34.4380   43.4690 N   0  0  0  0  0  0  0  0  0  0  0  0
   45.9270   35.9430   41.9880 H   0  0  0  0  0  0  0  0  0  0  0  0
   48.0900   35.5280   40.7840 H   0  0  0  0  0  0  0  0  0  0  0  0
   49.6240   33.7830   41.6580 H   0  0  0  0  0  0  0  0  0  0  0  0
  1  9  1  0  0  0  0
  2  1  2  0  0  0  0
  2  3  1  0  0  0  0
  3  4  2  0  0  0  0
  4  5  1  0  0  0  0
  5 12  1  0  0  0  0
  5  6  1  0  0  0  0
  6 13  1  0  0  0  0
  7  6  2  0  0  0  0
  8  4  1  0  0  0  0
  8  7  1  0  0  0  0
  9  8  2  0  0  0  0
 10  1  1  0  0  0  0
 11  3  1  0  0  0  0
 14 15  1  0  0  0  0
 15 22  2  0  0  0  0
 15 16  1  0  0  0  0
 16  9  1  0  0  0  0
 16 17  2  0  0  0  0
 17 19  1  0  0  0  0
 17 18  1  0  0  0  0
 20 21  1  0  0  0  0
 20 19  2  0  0  0  0
 22 20  1  0  0  0  0
 23 22  1  0  0  0  0
 24 29  1  0  0  0  0
 25 26  1  0  0  0  0
 25 24  2  0  0  0  0
 26 27  2  0  0  0  0
 27 28  1  0  0  0  0
 28  2  1  0  0  0  0
 29 28  2  0  0  0  0
 30 24  1  0  0  0  0
 31 25  1  0  0  0  0
 32 26  1  0  0  0  0
M  END
>  <minimizedAffinity>
-5.40066433

>  <minimizedRMSD>
0.129827544

$$$$
