
     RDKit          3D

 23 24  0  0  0  0  0  0  0  0999 V2000
   44.5707   35.9977   44.4940 C   0  0  0  0  0  0  0  0  0  0  0  0
   45.3020   35.9277   43.2947 C   0  0  0  0  0  0  0  0  0  0  0  0
   46.1996   34.8539   43.1669 C   0  0  0  0  0  0  0  0  0  0  0  0
   46.2995   33.9663   44.1977 N   0  0  0  0  0  0  0  0  0  0  0  0
   45.5689   34.0842   45.3307 C   0  0  0  0  0  0  0  0  0  0  0  0
   44.7032   35.1062   45.4726 N   0  0  0  0  0  0  0  0  0  0  0  0
   46.9581   34.7790   41.9264 C   0  0  0  0  0  0  0  0  0  0  0  0
   43.8774   36.8448   44.5687 H   0  0  0  0  0  0  0  0  0  0  0  0
   45.1965   36.6501   42.4987 H   0  0  0  0  0  0  0  0  0  0  0  0
   45.7288   33.3190   46.0886 H   0  0  0  0  0  0  0  0  0  0  0  0
   47.2158   33.7024   41.7356 H   0  0  0  0  0  0  0  0  0  0  0  0
   46.3197   35.1393   41.0932 H   0  0  0  0  0  0  0  0  0  0  0  0
   47.9063   35.5222   44.6291 Cl  0  0  0  0  0  0  0  0  0  0  0  0
   48.8070   35.8987   43.1621 C   0  0  0  0  0  0  0  0  0  0  0  0
   48.2514   35.4935   41.9478 C   0  0  0  0  0  0  0  0  0  0  0  0
   48.9691   35.7941   40.7861 C   0  0  0  0  0  0  0  0  0  0  0  0
   48.5478   35.4832   39.8206 H   0  0  0  0  0  0  0  0  0  0  0  0
   50.1791   36.4624   40.8033 C   0  0  0  0  0  0  0  0  0  0  0  0
   50.7199   36.8606   42.0304 C   0  0  0  0  0  0  0  0  0  0  0  0
   52.2544   37.7112   42.0915 Cl  0  0  0  0  0  0  0  0  0  0  0  0
   50.0212   36.5709   43.1997 C   0  0  0  0  0  0  0  0  0  0  0  0
   50.4390   36.8799   44.1637 H   0  0  0  0  0  0  0  0  0  0  0  0
   50.7227   36.6884   39.9015 H   0  0  0  0  0  0  0  0  0  0  0  0
  1  6  2  0
  2  1  1  0
  3  2  2  0
  3  4  1  0
  4  5  2  0
  5  6  1  0
  7  3  1  0
  1  8  1  0
  2  9  1  0
  5 10  1  0
  7 11  1  0
  7 12  1  0
 13 14  1  0
 14 15  2  0
 15 16  1  0
 16 17  1  0
 16 18  2  0
 18 19  1  0
 19 20  1  0
 19 21  2  0
 21 22  1  0
 21 14  1  0
 18 23  1  0
  7 15  1  0
M  ISO  7   8  14   9  14  10  14  11   8  12   8  17  16  22  15
M  END
>  <DihAtoms>  (1) 
2,6,14,13

>  <DihDeg>  (1) 
-179.99945811774205

$$$$
