
 OpenBabel03252508463D

 46 48  0  0  0  0  0  0  0  0999 V2000
   42.6910   31.3970   42.6070 N   0  0  0  0  0  0  0  0  0  0  0  0
   42.9570   31.6780   43.5890 H   0  0  0  0  0  0  0  0  0  0  0  0
   42.9930   32.4430   41.6810 C   0  0  0  0  0  0  0  0  0  0  0  0
   43.4950   32.0090   40.7940 H   0  0  0  0  0  0  0  0  0  0  0  0
   42.0660   32.9390   41.2970 H   0  0  0  0  0  0  0  0  0  0  0  0
   43.6640   34.8500   41.9100 C   0  0  0  0  0  0  0  0  0  0  0  0
   43.8890   33.5050   42.2270 C   0  0  0  0  0  0  0  0  0  0  0  0
   44.9510   33.1970   43.0500 C   0  0  0  0  0  0  0  0  0  0  0  0
   45.7590   34.1800   43.5410 C   0  0  0  0  0  0  0  0  0  0  0  0
   45.5570   35.5100   43.2420 C   0  0  0  0  0  0  0  0  0  0  0  0
   44.4800   35.7890   42.4120 C   0  0  0  0  0  0  0  0  0  0  0  0
   45.0790   32.1420   43.2630 H   0  0  0  0  0  0  0  0  0  0  0  0
   46.5720   33.8550   44.1780 H   0  0  0  0  0  0  0  0  0  0  0  0
   46.2180   36.2570   43.6500 H   0  0  0  0  0  0  0  0  0  0  0  0
   44.2880   36.8230   42.1540 H   0  0  0  0  0  0  0  0  0  0  0  0
   40.2550   35.7280   40.5490 C   0  0  0  0  0  0  0  0  0  0  0  0
   41.2730   35.4900   41.4950 C   0  0  0  0  0  0  0  0  0  0  0  0
   42.5350   35.1230   41.0400 C   0  0  0  0  0  0  0  0  0  0  0  0
   42.7010   35.0160   39.6880 N   0  0  0  0  0  0  0  0  0  0  0  0
   41.7060   35.2500   38.7970 C   0  0  0  0  0  0  0  0  0  0  0  0
   40.4950   35.6030   39.2420 N   0  0  0  0  0  0  0  0  0  0  0  0
   39.3410   35.9990   41.0350 H   0  0  0  0  0  0  0  0  0  0  0  0
   41.1770   35.5620   42.5510 H   0  0  0  0  0  0  0  0  0  0  0  0
   41.8250   35.1680   37.7390 H   0  0  0  0  0  0  0  0  0  0  0  0
   41.0150   31.0190   42.6550 S   0  0  0  0  0  0  0  0  0  0  0  0
   40.1770   32.2620   42.4630 O   0  0  0  0  0  0  0  0  0  0  0  0
   40.0560   32.7100   41.5760 H   0  0  0  0  0  0  0  0  0  0  0  0
   40.6490   30.3190   43.9080 O   0  0  0  0  0  0  0  0  0  0  0  0
   41.1640   30.1980   44.7400 H   0  0  0  0  0  0  0  0  0  0  0  0
   40.7280   29.9740   41.3660 O   0  0  0  0  0  0  0  0  0  0  0  0
   39.9880   28.9060   41.8050 C   0  0  0  0  0  0  0  0  0  0  0  0
   38.9180   29.1880   41.7120 H   0  0  0  0  0  0  0  0  0  0  0  0
   40.1470   28.6010   42.8480 H   0  0  0  0  0  0  0  0  0  0  0  0
   40.2430   27.7020   40.8790 C   0  0  0  0  0  0  0  0  0  0  0  0
   41.3230   27.5490   40.8880 H   0  0  0  0  0  0  0  0  0  0  0  0
   39.9450   28.0090   39.8810 H   0  0  0  0  0  0  0  0  0  0  0  0
   37.4070   27.2330   39.8070 Cl  0  0  0  0  0  0  0  0  0  0  0  0
   38.2070   26.2020   40.9760 C   0  0  0  0  0  0  0  0  0  0  0  0
   39.4860   26.5230   41.3670 C   0  0  0  0  0  0  0  0  0  0  0  0
   40.1380   25.7070   42.2980 C   0  0  0  0  0  0  0  0  0  0  0  0
   41.1470   25.9400   42.6160 H   0  0  0  0  0  0  0  0  0  0  0  0
   39.5300   24.5890   42.8320 C   0  0  0  0  0  3  0  0  0  0  0  0
   38.2540   24.3050   42.4160 C   0  0  0  0  0  0  0  0  0  0  0  0
   37.4960   22.8710   43.1150 Cl  0  0  0  0  0  0  0  0  0  0  0  0
   37.5620   25.0820   41.4950 C   0  0  0  0  0  0  0  0  0  0  0  0
   36.5400   24.8160   41.1870 H   0  0  0  0  0  0  0  0  0  0  0  0
  1 25  1  0  0  0  0
  1  2  1  0  0  0  0
  3  7  1  0  0  0  0
  3  1  1  0  0  0  0
  4  3  1  0  0  0  0
  5  3  1  0  0  0  0
  6  7  2  0  0  0  0
  6 11  1  0  0  0  0
  7  8  1  0  0  0  0
  8 12  1  0  0  0  0
  8  9  2  0  0  0  0
  9 13  1  0  0  0  0
 10  9  1  0  0  0  0
 10 14  1  0  0  0  0
 11 10  2  0  0  0  0
 15 11  1  0  0  0  0
 16 22  1  0  0  0  0
 16 17  1  0  0  0  0
 17 23  1  0  0  0  0
 18 17  2  0  0  0  0
 18  6  1  0  0  0  0
 19 18  1  0  0  0  0
 20 21  1  0  0  0  0
 20 19  2  0  0  0  0
 21 16  2  0  0  0  0
 24 20  1  0  0  0  0
 25 28  1  0  0  0  0
 26 25  1  0  0  0  0
 27 26  1  0  0  0  0
 28 29  1  0  0  0  0
 30 31  1  0  0  0  0
 30 25  1  0  0  0  0
 31 33  1  0  0  0  0
 32 31  1  0  0  0  0
 34 35  1  0  0  0  0
 34 39  1  0  0  0  0
 34 31  1  0  0  0  0
 36 34  1  0  0  0  0
 37 38  1  0  0  0  0
 38 39  2  0  0  0  0
 38 45  1  0  0  0  0
 39 40  1  0  0  0  0
 40 41  1  0  0  0  0
 40 42  2  0  0  0  0
 43 42  1  0  0  0  0
 43 44  1  0  0  0  0
 45 43  2  0  0  0  0
 46 45  1  0  0  0  0
M  END
>  <minimizedAffinity>
-5.23400831

>  <minimizedRMSD>
0.815931559

$$$$
