
     RDKit          3D

 44 46  0  0  0  0  0  0  0  0999 V2000
   44.9977   34.6414   44.9339 C   0  0  0  0  0  0  0  0  0  0  0  0
   45.8957   34.6024   43.8432 C   0  0  0  0  0  0  0  0  0  0  0  0
   47.0074   33.7547   43.9527 C   0  0  0  0  0  0  0  0  0  0  0  0
   47.1653   33.0234   45.0835 N   0  0  0  0  0  0  0  0  0  0  0  0
   46.2928   33.0814   46.1063 C   0  0  0  0  0  0  0  0  0  0  0  0
   45.2216   33.8953   46.0057 N   0  0  0  0  0  0  0  0  0  0  0  0
   46.5252   32.2930   47.2466 N   0  0  0  0  0  0  0  0  0  0  0  0
   47.7428   32.4409   47.9792 C   0  0  0  0  0  0  0  0  0  0  0  0
   48.0041   31.3116   48.9296 C   0  0  0  0  0  0  0  0  0  0  0  0
   46.8666   30.6618   49.4876 N   0  0  0  0  0  0  0  0  0  0  0  0
   45.6259   31.2790   49.1477 C   0  0  0  0  0  0  0  0  0  0  0  0
   45.4990   31.3322   47.6588 C   0  0  2  0  0  0  0  0  0  0  0  0
   45.6877   30.0022   47.0139 C   0  0  0  0  0  0  0  0  0  0  0  0
   44.8473   29.0045   47.7577 C   0  0  0  0  0  0  0  0  0  0  0  0
   45.1596   27.7116   47.7901 C   0  0  0  0  0  0  0  0  0  0  0  0
   44.3643   26.6746   48.5096 C   0  0  0  0  0  0  0  0  0  0  0  0
   44.1055   35.2484   44.9834 H   0  0  0  0  0  0  0  0  0  0  0  0
   45.6628   35.2259   43.0015 H   0  0  0  0  0  0  0  0  0  0  0  0
   47.6818   33.7271   43.1264 H   0  0  0  0  0  0  0  0  0  0  0  0
   47.7648   33.3989   48.5517 H   0  0  0  0  0  0  0  0  0  0  0  0
   48.6144   32.4875   47.2723 H   0  0  0  0  0  0  0  0  0  0  0  0
   48.5851   30.5185   48.3798 H   0  0  0  0  0  0  0  0  0  0  0  0
   48.6808   31.6539   49.7423 H   0  0  0  0  0  0  0  0  0  0  0  0
   46.8033   29.6460   49.2755 H   0  0  0  0  0  0  0  0  0  0  0  0
   45.4779   32.2795   49.5562 H   0  0  0  0  0  0  0  0  0  0  0  0
   44.8132   30.6099   49.5272 H   0  0  0  0  0  0  0  0  0  0  0  0
   44.5221   31.7522   47.3425 H   0  0  0  0  0  0  0  0  0  0  0  0
   46.7202   29.6635   47.1016 H   0  0  0  0  0  0  0  0  0  0  0  0
   45.3911   30.0446   45.9471 H   0  0  0  0  0  0  0  0  0  0  0  0
   43.9381   29.2174   48.3205 H   0  0  0  0  0  0  0  0  0  0  0  0
   46.0428   27.3400   47.2718 H   0  0  0  0  0  0  0  0  0  0  0  0
   43.5369   27.1256   49.1007 H   0  0  0  0  0  0  0  0  0  0  0  0
   45.0415   26.2004   49.2474 H   0  0  0  0  0  0  0  0  0  0  0  0
   45.0339   26.9297   45.5840 Cl  0  0  0  0  0  0  0  0  0  0  0  0
   44.1044   25.6006   46.2295 C   0  0  0  0  0  0  0  0  0  0  0  0
   43.8768   25.6197   47.5927 C   0  0  0  0  0  0  0  0  0  0  0  0
   43.1281   24.5458   48.0959 C   0  0  0  0  0  0  0  0  0  0  0  0
   42.9498   24.5663   49.1812 H   0  0  0  0  0  0  0  0  0  0  0  0
   42.6176   23.5071   47.3679 C   0  0  0  0  0  0  0  0  0  0  0  0
   42.8798   23.5435   46.0047 C   0  0  0  0  0  0  0  0  0  0  0  0
   42.2671   22.2624   45.0109 Cl  0  0  0  0  0  0  0  0  0  0  0  0
   43.6093   24.5716   45.4498 C   0  0  0  0  0  0  0  0  0  0  0  0
   43.8227   24.6192   44.3925 H   0  0  0  0  0  0  0  0  0  0  0  0
   42.0493   22.7314   47.8814 H   0  0  0  0  0  0  0  0  0  0  0  0
  1  6  2  0
  2  3  2  0
  2  1  1  0
  3  4  1  0
  4  5  2  0
  5  7  1  0
  6  5  1  0
  7 12  1  0
  7  8  1  0
  8  9  1  0
  9 10  1  0
 11 10  1  0
 12 11  1  0
 13 12  1  0
 13 14  1  0
 14 15  2  0
 15 16  1  0
  1 17  1  0
  2 18  1  0
  3 19  1  0
  8 20  1  0
  8 21  1  0
  9 22  1  0
  9 23  1  0
 10 24  1  0
 11 25  1  0
 11 26  1  0
 12 27  1  1
 13 28  1  0
 13 29  1  0
 14 30  1  0
 15 31  1  0
 16 32  1  0
 16 33  1  0
 34 35  1  0
 35 36  2  0
 36 37  1  0
 37 38  1  0
 37 39  2  0
 39 40  1  0
 40 41  1  0
 40 42  2  0
 42 43  1  0
 42 35  1  0
 39 44  1  0
 16 36  1  0
M  ISO  8  17  14  18  14  19  14  20  13  21  13  22  13  23  13  24   5
M  ISO  8  25  13  26  13  27  13  28   8  29   8  32   8  33   8  38  16
M  ISO  1  43  15
M  END
>  <DihAtoms>  (1) 
14,15,35,34

>  <DihDeg>  (1) 
-76.09682927980883

$$$$
