
 OpenBabel03242518353D

 36 39  0  0  1  0  0  0  0  0999 V2000
   47.4160   33.7820   39.6720 C   0  0  0  0  0  0  0  0  0  0  0  0
   48.3370   34.6050   39.0280 C   0  0  0  0  0  0  0  0  0  0  0  0
   48.2790   34.3560   37.6660 C   0  0  0  0  0  0  0  0  0  0  0  0
   47.3170   33.3870   37.5510 C   0  0  0  0  0  0  0  0  0  0  0  0
   46.8230   33.0620   38.7300 O   0  0  0  0  0  0  0  0  0  0  0  0
   48.9610   35.3030   39.6070 H   0  0  0  0  0  0  0  0  0  0  0  0
   48.8920   34.8620   36.9340 H   0  0  0  0  0  0  0  0  0  0  0  0
   46.8840   32.7860   36.2790 C   0  0  2  0  0  0  0  0  0  0  0  0
   46.4220   31.3830   36.2520 C   0  0  0  0  0  0  0  0  0  0  0  0
   47.8010   31.6450   35.7870 C   0  0  1  0  0  0  0  0  0  0  0  0
   46.5120   33.4640   35.4840 H   0  0  0  0  0  0  0  0  0  0  0  0
   45.6620   31.0490   35.5360 H   0  0  0  0  0  0  0  0  0  0  0  0
   46.3820   30.7910   37.2190 H   0  0  0  0  0  0  0  0  0  0  0  0
   48.6730   31.3850   36.4540 H   0  0  0  0  0  0  0  0  0  0  0  0
   46.9650   29.4120   33.7140 Cl  0  0  0  0  0  0  0  0  0  0  0  0
   47.8290   30.8660   33.2970 C   0  0  0  0  0  0  0  0  0  0  0  0
   48.1080   31.6930   34.3470 C   0  0  0  0  0  0  0  0  0  0  0  0
   48.8180   32.8660   34.0630 C   0  0  0  0  0  0  0  0  0  0  0  0
   49.1380   33.6530   34.7650 H   0  0  0  0  0  0  0  0  0  0  0  0
   49.2240   33.1760   32.7590 C   0  0  0  0  0  0  0  0  0  0  0  0
   48.9300   32.3270   31.7130 C   0  0  0  0  0  0  0  0  0  0  0  0
   49.4040   32.6490   30.0590 Cl  0  0  0  0  0  0  0  0  0  0  0  0
   48.2310   31.1790   32.0180 C   0  0  0  0  0  0  0  0  0  0  0  0
   47.9560   30.4530   31.2590 H   0  0  0  0  0  0  0  0  0  0  0  0
   47.0870   33.6490   41.0370 O   0  0  0  0  0  0  0  0  0  0  0  0
   47.3080   34.7380   41.9130 C   0  0  0  0  0  0  0  0  0  0  0  0
   48.2280   35.5280   41.6050 O   0  0  0  0  0  0  0  0  0  0  0  0
   46.4450   34.8000   43.0530 C   0  0  0  0  0  0  0  0  0  0  0  0
   45.5660   35.8470   43.0430 C   0  0  0  0  0  0  0  0  0  0  0  0
   44.6870   35.9790   44.1180 C   0  0  0  0  0  0  0  0  0  0  0  0
   44.7530   35.0650   45.1140 N   0  0  0  0  0  0  0  0  0  0  0  0
   45.6240   34.0580   45.0890 C   0  0  0  0  0  0  0  0  0  0  0  0
   46.4630   33.9390   44.0510 N   0  0  0  0  0  0  0  0  0  0  0  0
   45.4900   36.6000   42.2540 H   0  0  0  0  0  0  0  0  0  0  0  0
   43.9690   36.7910   44.1630 H   0  0  0  0  0  0  0  0  0  0  0  0
   45.5980   33.3800   45.9310 H   0  0  0  0  0  0  0  0  0  0  0  0
  1 25  1  0  0  0  0
  2  6  1  0  0  0  0
  2  1  2  0  0  0  0
  3  2  1  0  0  0  0
  4  3  2  0  0  0  0
  4  5  1  0  0  0  0
  5  1  1  0  0  0  0
  7  3  1  0  0  0  0
  8 11  1  6  0  0  0
  8  4  1  0  0  0  0
  9  8  1  0  0  0  0
  9 13  1  0  0  0  0
 10  9  1  0  0  0  0
 10  8  1  0  0  0  0
 10 14  1  1  0  0  0
 12  9  1  0  0  0  0
 16 15  1  0  0  0  0
 16 17  1  0  0  0  0
 17 10  1  0  0  0  0
 18 17  2  0  0  0  0
 18 19  1  0  0  0  0
 20 18  1  0  0  0  0
 21 23  1  0  0  0  0
 21 20  2  0  0  0  0
 22 21  1  0  0  0  0
 23 16  2  0  0  0  0
 24 23  1  0  0  0  0
 25 26  1  0  0  0  0
 26 28  1  0  0  0  0
 27 26  2  0  0  0  0
 28 33  1  0  0  0  0
 29 28  2  0  0  0  0
 29 30  1  0  0  0  0
 30 35  1  0  0  0  0
 30 31  2  0  0  0  0
 32 31  1  0  0  0  0
 32 36  1  0  0  0  0
 33 32  2  0  0  0  0
 34 29  1  0  0  0  0
M  END
>  <minimizedAffinity>
-6.13048697

>  <minimizedRMSD>
1.55054009

$$$$
