
 OpenBabel03252508463D

 46 48  0  0  0  0  0  0  0  0999 V2000
   42.6830   31.4170   42.5940 N   0  0  0  0  0  0  0  0  0  0  0  0
   42.9490   31.6950   43.5760 H   0  0  0  0  0  0  0  0  0  0  0  0
   42.9950   32.4590   41.6670 C   0  0  0  0  0  0  0  0  0  0  0  0
   43.5020   32.0230   40.7850 H   0  0  0  0  0  0  0  0  0  0  0  0
   42.0730   32.9590   41.2760 H   0  0  0  0  0  0  0  0  0  0  0  0
   43.6670   34.8660   41.9050 C   0  0  0  0  0  0  0  0  0  0  0  0
   43.8900   33.5190   42.2190 C   0  0  0  0  0  0  0  0  0  0  0  0
   44.9500   33.2080   43.0430 C   0  0  0  0  0  0  0  0  0  0  0  0
   45.7590   34.1890   43.5380 C   0  0  0  0  0  0  0  0  0  0  0  0
   45.5580   35.5200   43.2430 C   0  0  0  0  0  0  0  0  0  0  0  0
   44.4830   35.8020   42.4120 C   0  0  0  0  0  0  0  0  0  0  0  0
   45.0770   32.1520   43.2530 H   0  0  0  0  0  0  0  0  0  0  0  0
   46.5700   33.8620   44.1760 H   0  0  0  0  0  0  0  0  0  0  0  0
   46.2180   36.2660   43.6540 H   0  0  0  0  0  0  0  0  0  0  0  0
   44.2920   36.8370   42.1560 H   0  0  0  0  0  0  0  0  0  0  0  0
   40.2640   35.7570   40.5400 C   0  0  0  0  0  0  0  0  0  0  0  0
   41.2790   35.5160   41.4870 C   0  0  0  0  0  0  0  0  0  0  0  0
   42.5400   35.1420   41.0340 C   0  0  0  0  0  0  0  0  0  0  0  0
   42.7070   35.0310   39.6820 N   0  0  0  0  0  0  0  0  0  0  0  0
   41.7150   35.2680   38.7900 C   0  0  0  0  0  0  0  0  0  0  0  0
   40.5040   35.6280   39.2330 N   0  0  0  0  0  0  0  0  0  0  0  0
   39.3500   36.0330   41.0240 H   0  0  0  0  0  0  0  0  0  0  0  0
   41.1830   35.5910   42.5420 H   0  0  0  0  0  0  0  0  0  0  0  0
   41.8340   35.1830   37.7320 H   0  0  0  0  0  0  0  0  0  0  0  0
   41.0030   31.0530   42.6380 S   0  0  0  0  0  0  0  0  0  0  0  0
   40.1760   32.3080   42.4790 O   0  0  0  0  0  0  0  0  0  0  0  0
   40.0560   32.7780   41.6030 H   0  0  0  0  0  0  0  0  0  0  0  0
   40.6350   30.3260   43.8750 O   0  0  0  0  0  0  0  0  0  0  0  0
   41.1510   30.1800   44.7020 H   0  0  0  0  0  0  0  0  0  0  0  0
   40.7020   30.0420   41.3260 O   0  0  0  0  0  0  0  0  0  0  0  0
   40.1270   28.8790   41.7720 C   0  0  0  0  0  0  0  0  0  0  0  0
   39.2440   28.6820   41.1290 H   0  0  0  0  0  0  0  0  0  0  0  0
   39.7710   28.8810   42.8100 H   0  0  0  0  0  0  0  0  0  0  0  0
   41.1220   27.7190   41.5780 C   0  0  0  0  0  0  0  0  0  0  0  0
   42.1020   28.1290   41.8260 H   0  0  0  0  0  0  0  0  0  0  0  0
   41.1080   27.4700   40.5210 H   0  0  0  0  0  0  0  0  0  0  0  0
   39.3200   25.5340   40.3990 Cl  0  0  0  0  0  0  0  0  0  0  0  0
   39.9270   25.5360   42.0410 C   0  0  0  0  0  0  0  0  0  0  0  0
   40.7350   26.5760   42.4410 C   0  0  0  0  0  0  0  0  0  0  0  0
   41.2300   26.5890   43.7500 C   0  0  0  0  0  0  0  0  0  0  0  0
   41.8700   27.3960   44.0830 H   0  0  0  0  0  0  0  0  0  0  0  0
   40.9270   25.5860   44.6470 C   0  0  0  0  0  3  0  0  0  0  0  0
   40.1180   24.5690   44.2100 C   0  0  0  0  0  0  0  0  0  0  0  0
   39.7430   23.2980   45.3780 Cl  0  0  0  0  0  0  0  0  0  0  0  0
   39.6000   24.5080   42.9220 C   0  0  0  0  0  0  0  0  0  0  0  0
   38.9570   23.6710   42.6110 H   0  0  0  0  0  0  0  0  0  0  0  0
  1 25  1  0  0  0  0
  1  2  1  0  0  0  0
  3  7  1  0  0  0  0
  3  1  1  0  0  0  0
  4  3  1  0  0  0  0
  5  3  1  0  0  0  0
  6  7  2  0  0  0  0
  6 11  1  0  0  0  0
  7  8  1  0  0  0  0
  8 12  1  0  0  0  0
  8  9  2  0  0  0  0
  9 13  1  0  0  0  0
 10  9  1  0  0  0  0
 10 14  1  0  0  0  0
 11 10  2  0  0  0  0
 15 11  1  0  0  0  0
 16 22  1  0  0  0  0
 16 17  1  0  0  0  0
 17 23  1  0  0  0  0
 18 17  2  0  0  0  0
 18  6  1  0  0  0  0
 19 18  1  0  0  0  0
 20 21  1  0  0  0  0
 20 19  2  0  0  0  0
 21 16  2  0  0  0  0
 24 20  1  0  0  0  0
 25 28  1  0  0  0  0
 26 25  1  0  0  0  0
 27 26  1  0  0  0  0
 28 29  1  0  0  0  0
 30 31  1  0  0  0  0
 30 25  1  0  0  0  0
 31 33  1  0  0  0  0
 32 31  1  0  0  0  0
 34 31  1  0  0  0  0
 34 35  1  0  0  0  0
 34 39  1  0  0  0  0
 36 34  1  0  0  0  0
 37 38  1  0  0  0  0
 38 39  2  0  0  0  0
 38 45  1  0  0  0  0
 39 40  1  0  0  0  0
 40 41  1  0  0  0  0
 40 42  2  0  0  0  0
 43 42  1  0  0  0  0
 43 44  1  0  0  0  0
 45 43  2  0  0  0  0
 46 45  1  0  0  0  0
M  END
>  <minimizedAffinity>
-5.19371557

>  <minimizedRMSD>
1.00553215

$$$$
