
 OpenBabel03242510283D

 19 20  0  0  0  0  0  0  0  0999 V2000
   36.6420   30.9910   39.5410 Cl  0  0  0  0  0  0  0  0  0  0  0  0
   37.3480   30.2490   40.9710 C   0  0  0  0  0  0  0  0  0  0  0  0
   38.5450   30.7210   41.4720 C   0  0  0  0  0  0  0  0  0  0  0  0
   39.0600   30.1080   42.5950 C   0  0  0  0  0  0  0  0  0  0  0  0
   39.9890   30.4660   42.9940 H   0  0  0  0  0  0  0  0  0  0  0  0
   38.4060   29.0540   43.2060 C   0  0  0  0  0  3  0  0  0  0  0  0
   37.2010   28.6210   42.6550 C   0  0  0  0  0  0  0  0  0  0  0  0
   36.3660   27.2870   43.4210 Cl  0  0  0  0  0  0  0  0  0  0  0  0
   36.6440   29.2010   41.5340 C   0  0  0  0  0  0  0  0  0  0  0  0
   35.7040   28.8360   41.1320 H   0  0  0  0  0  0  0  0  0  0  0  0
   40.7500   32.7230   39.1340 C   0  0  0  0  0  0  0  0  0  0  0  0
   40.1560   31.6420   39.8020 C   0  0  0  0  0  0  0  0  0  0  0  0
   39.1730   31.8380   40.7690 C   0  0  0  0  0  0  0  0  0  0  0  0
   38.8320   33.1290   41.0190 N   0  0  0  0  0  0  0  0  0  0  0  0
   39.4060   34.1590   40.3760 C   0  0  0  0  0  0  0  0  0  0  0  0
   40.3490   33.9580   39.4500 N   0  0  0  0  0  0  0  0  0  0  0  0
   41.5100   32.5290   38.3900 H   0  0  0  0  0  0  0  0  0  0  0  0
   40.4850   30.6690   39.5410 H   0  0  0  0  0  0  0  0  0  0  0  0
   39.0550   35.1650   40.6570 H   0  0  0  0  0  0  0  0  0  0  0  0
  1  2  1  0  0  0  0
  2  3  2  0  0  0  0
  2  9  1  0  0  0  0
  3  4  1  0  0  0  0
  4  5  1  0  0  0  0
  4  6  2  0  0  0  0
  7  6  1  0  0  0  0
  7  8  1  0  0  0  0
  9  7  2  0  0  0  0
 10  9  1  0  0  0  0
 11 16  2  0  0  0  0
 11 12  1  0  0  0  0
 12 13  2  0  0  0  0
 13 14  1  0  0  0  0
 13  3  1  0  0  0  0
 15 19  1  0  0  0  0
 15 14  2  0  0  0  0
 16 15  1  0  0  0  0
 17 11  1  0  0  0  0
 18 12  1  0  0  0  0
M  END
>  <minimizedAffinity>
-4.53880835

$$$$

 OpenBabel03242510283D

 19 20  0  0  0  0  0  0  0  0999 V2000
   38.5510   28.5740   38.9980 Cl  0  0  0  0  0  0  0  0  0  0  0  0
   37.8970   28.0920   40.5580 C   0  0  0  0  0  0  0  0  0  0  0  0
   37.6520   29.0460   41.5250 C   0  0  0  0  0  0  0  0  0  0  0  0
   37.1390   28.6220   42.7340 C   0  0  0  0  0  0  0  0  0  0  0  0
   36.9440   29.3540   43.4930 H   0  0  0  0  0  0  0  0  0  0  0  0
   36.8760   27.2870   42.9760 C   0  0  0  0  0  3  0  0  0  0  0  0
   37.1430   26.3690   41.9620 C   0  0  0  0  0  0  0  0  0  0  0  0
   36.8130   24.6760   42.2600 Cl  0  0  0  0  0  0  0  0  0  0  0  0
   37.6560   26.7430   40.7360 C   0  0  0  0  0  0  0  0  0  0  0  0
   37.8520   26.0000   39.9700 H   0  0  0  0  0  0  0  0  0  0  0  0
   37.3400   32.5930   40.2370 C   0  0  0  0  0  0  0  0  0  0  0  0
   37.0340   31.2610   40.5530 C   0  0  0  0  0  0  0  0  0  0  0  0
   37.9570   30.4350   41.1900 C   0  0  0  0  0  0  0  0  0  0  0  0
   39.1580   30.9990   41.4840 N   0  0  0  0  0  0  0  0  0  0  0  0
   39.4440   32.2760   41.1790 C   0  0  0  0  0  0  0  0  0  0  0  0
   38.5490   33.0580   40.5660 N   0  0  0  0  0  0  0  0  0  0  0  0
   36.5970   33.2010   39.7420 H   0  0  0  0  0  0  0  0  0  0  0  0
   36.0730   30.9070   40.2850 H   0  0  0  0  0  0  0  0  0  0  0  0
   40.4480   32.6310   41.4620 H   0  0  0  0  0  0  0  0  0  0  0  0
  1  2  1  0  0  0  0
  2  9  2  0  0  0  0
  2  3  1  0  0  0  0
  3  4  2  0  0  0  0
  4  6  1  0  0  0  0
  4  5  1  0  0  0  0
  7  8  1  0  0  0  0
  7  6  2  0  0  0  0
  9  7  1  0  0  0  0
 10  9  1  0  0  0  0
 11 12  2  0  0  0  0
 11 16  1  0  0  0  0
 12 13  1  0  0  0  0
 13 14  2  0  0  0  0
 13  3  1  0  0  0  0
 15 19  1  0  0  0  0
 15 14  1  0  0  0  0
 16 15  2  0  0  0  0
 17 11  1  0  0  0  0
 18 12  1  0  0  0  0
M  END
>  <minimizedAffinity>
-4.3092494

$$$$

 OpenBabel03242510283D

 19 20  0  0  0  0  0  0  0  0999 V2000
   40.8760   30.4430   42.5190 Cl  0  0  0  0  0  0  0  0  0  0  0  0
   39.1950   30.0620   42.1690 C   0  0  0  0  0  0  0  0  0  0  0  0
   38.5160   30.7730   41.2000 C   0  0  0  0  0  0  0  0  0  0  0  0
   37.1990   30.4400   40.9590 C   0  0  0  0  0  0  0  0  0  0  0  0
   36.6600   30.9850   40.2090 H   0  0  0  0  0  0  0  0  0  0  0  0
   36.5720   29.4280   41.6620 C   0  0  0  0  0  3  0  0  0  0  0  0
   37.3080   28.7440   42.6280 C   0  0  0  0  0  0  0  0  0  0  0  0
   36.5230   27.4610   43.5230 Cl  0  0  0  0  0  0  0  0  0  0  0  0
   38.6280   29.0390   42.9050 C   0  0  0  0  0  0  0  0  0  0  0  0
   39.1690   28.4860   43.6660 H   0  0  0  0  0  0  0  0  0  0  0  0
   39.9020   34.1610   40.2310 C   0  0  0  0  0  0  0  0  0  0  0  0
   39.1930   33.1590   40.9090 C   0  0  0  0  0  0  0  0  0  0  0  0
   39.2490   31.8270   40.5030 C   0  0  0  0  0  0  0  0  0  0  0  0
   40.0280   31.5670   39.4210 N   0  0  0  0  0  0  0  0  0  0  0  0
   40.7050   32.5330   38.7760 C   0  0  0  0  0  0  0  0  0  0  0  0
   40.6410   33.8070   39.1760 N   0  0  0  0  0  0  0  0  0  0  0  0
   39.8320   35.1820   40.5770 H   0  0  0  0  0  0  0  0  0  0  0  0
   38.6110   33.4550   41.7430 H   0  0  0  0  0  0  0  0  0  0  0  0
   41.3060   32.2110   37.9100 H   0  0  0  0  0  0  0  0  0  0  0  0
  2  1  1  0  0  0  0
  2  9  1  0  0  0  0
  3  2  2  0  0  0  0
  4  3  1  0  0  0  0
  4  6  2  0  0  0  0
  5  4  1  0  0  0  0
  6  7  1  0  0  0  0
  7  9  2  0  0  0  0
  7  8  1  0  0  0  0
  9 10  1  0  0  0  0
 11 17  1  0  0  0  0
 11 12  1  0  0  0  0
 12 18  1  0  0  0  0
 13 12  2  0  0  0  0
 13  3  1  0  0  0  0
 14 13  1  0  0  0  0
 15 16  1  0  0  0  0
 15 14  2  0  0  0  0
 16 11  2  0  0  0  0
 19 15  1  0  0  0  0
M  END
>  <minimizedAffinity>
-4.12521648

$$$$

 OpenBabel03242510283D

 19 20  0  0  0  0  0  0  0  0999 V2000
   35.8370   28.9600   41.0230 Cl  0  0  0  0  0  0  0  0  0  0  0  0
   37.0810   30.1950   40.8740 C   0  0  0  0  0  0  0  0  0  0  0  0
   38.3700   29.9250   41.2870 C   0  0  0  0  0  0  0  0  0  0  0  0
   39.3130   30.9240   41.1520 C   0  0  0  0  0  0  0  0  0  0  0  0
   40.3180   30.7270   41.4690 H   0  0  0  0  0  0  0  0  0  0  0  0
   38.9850   32.1580   40.6210 C   0  0  0  0  0  3  0  0  0  0  0  0
   37.6670   32.3720   40.2210 C   0  0  0  0  0  0  0  0  0  0  0  0
   37.2420   33.9310   39.5470 Cl  0  0  0  0  0  0  0  0  0  0  0  0
   36.6880   31.4060   40.3350 C   0  0  0  0  0  0  0  0  0  0  0  0
   35.6710   31.6090   40.0130 H   0  0  0  0  0  0  0  0  0  0  0  0
   39.2520   26.2540   41.5720 C   0  0  0  0  0  0  0  0  0  0  0  0
   39.0000   27.5240   41.0300 C   0  0  0  0  0  0  0  0  0  0  0  0
   38.6350   28.5980   41.8380 C   0  0  0  0  0  0  0  0  0  0  0  0
   38.5420   28.3390   43.1680 N   0  0  0  0  0  0  0  0  0  0  0  0
   38.7840   27.1210   43.6800 C   0  0  0  0  0  0  0  0  0  0  0  0
   39.1330   26.0970   42.8930 N   0  0  0  0  0  0  0  0  0  0  0  0
   39.5320   25.4460   40.9110 H   0  0  0  0  0  0  0  0  0  0  0  0
   39.0970   27.6320   39.9810 H   0  0  0  0  0  0  0  0  0  0  0  0
   38.6790   27.0210   44.7720 H   0  0  0  0  0  0  0  0  0  0  0  0
  2  1  1  0  0  0  0
  2  3  1  0  0  0  0
  3 13  1  0  0  0  0
  4  3  2  0  0  0  0
  4  5  1  0  0  0  0
  6  4  1  0  0  0  0
  7  9  1  0  0  0  0
  7  6  2  0  0  0  0
  8  7  1  0  0  0  0
  9  2  2  0  0  0  0
 10  9  1  0  0  0  0
 11 16  1  0  0  0  0
 12 11  2  0  0  0  0
 12 13  1  0  0  0  0
 13 14  2  0  0  0  0
 14 15  1  0  0  0  0
 15 19  1  0  0  0  0
 16 15  2  0  0  0  0
 17 11  1  0  0  0  0
 18 12  1  0  0  0  0
M  END
>  <minimizedAffinity>
-4.06296539

$$$$

 OpenBabel03242510283D

 19 20  0  0  0  0  0  0  0  0999 V2000
   37.7930   26.7330   39.4110 Cl  0  0  0  0  0  0  0  0  0  0  0  0
   36.2890   27.6070   39.1460 C   0  0  0  0  0  0  0  0  0  0  0  0
   35.8260   28.4840   40.1060 C   0  0  0  0  0  0  0  0  0  0  0  0
   34.6420   29.1470   39.8550 C   0  0  0  0  0  0  0  0  0  0  0  0
   34.2710   29.8320   40.5920 H   0  0  0  0  0  0  0  0  0  0  0  0
   33.9370   28.9450   38.6830 C   0  0  0  0  0  3  0  0  0  0  0  0
   34.4540   28.0470   37.7510 C   0  0  0  0  0  0  0  0  0  0  0  0
   33.5680   27.7840   36.2640 Cl  0  0  0  0  0  0  0  0  0  0  0  0
   35.6340   27.3600   37.9540 C   0  0  0  0  0  0  0  0  0  0  0  0
   36.0060   26.6670   37.2060 H   0  0  0  0  0  0  0  0  0  0  0  0
   37.2270   27.9900   43.5880 C   0  0  0  0  0  0  0  0  0  0  0  0
   36.4490   27.8280   42.4320 C   0  0  0  0  0  0  0  0  0  0  0  0
   36.6290   28.6420   41.3160 C   0  0  0  0  0  0  0  0  0  0  0  0
   37.5970   29.5900   41.4190 N   0  0  0  0  0  0  0  0  0  0  0  0
   38.3380   29.7390   42.5290 C   0  0  0  0  0  0  0  0  0  0  0  0
   38.1550   28.9520   43.5940 N   0  0  0  0  0  0  0  0  0  0  0  0
   37.0570   27.3390   44.4330 H   0  0  0  0  0  0  0  0  0  0  0  0
   35.7180   27.0620   42.4420 H   0  0  0  0  0  0  0  0  0  0  0  0
   39.0940   30.5400   42.5060 H   0  0  0  0  0  0  0  0  0  0  0  0
  2  1  1  0  0  0  0
  2  3  1  0  0  0  0
  3 13  1  0  0  0  0
  4  3  2  0  0  0  0
  4  5  1  0  0  0  0
  6  4  1  0  0  0  0
  7  9  1  0  0  0  0
  7  6  2  0  0  0  0
  8  7  1  0  0  0  0
  9  2  2  0  0  0  0
 10  9  1  0  0  0  0
 11 16  1  0  0  0  0
 11 17  1  0  0  0  0
 12 18  1  0  0  0  0
 12 11  2  0  0  0  0
 13 14  2  0  0  0  0
 13 12  1  0  0  0  0
 14 15  1  0  0  0  0
 15 16  2  0  0  0  0
 19 15  1  0  0  0  0
M  END
>  <minimizedAffinity>
-4.03818369

$$$$

 OpenBabel03242510283D

 19 20  0  0  0  0  0  0  0  0999 V2000
   38.6820   29.6490   43.0390 Cl  0  0  0  0  0  0  0  0  0  0  0  0
   37.9470   28.4750   41.9550 C   0  0  0  0  0  0  0  0  0  0  0  0
   37.6280   28.8390   40.6620 C   0  0  0  0  0  0  0  0  0  0  0  0
   37.0540   27.8850   39.8470 C   0  0  0  0  0  0  0  0  0  0  0  0
   36.8010   28.1550   38.8410 H   0  0  0  0  0  0  0  0  0  0  0  0
   36.8020   26.6040   40.3030 C   0  0  0  0  0  3  0  0  0  0  0  0
   37.1460   26.2950   41.6190 C   0  0  0  0  0  0  0  0  0  0  0  0
   36.8310   24.6760   42.2050 Cl  0  0  0  0  0  0  0  0  0  0  0  0
   37.7230   27.2130   42.4720 C   0  0  0  0  0  0  0  0  0  0  0  0
   37.9770   26.9360   43.4910 H   0  0  0  0  0  0  0  0  0  0  0  0
   39.3950   31.8740   39.2490 C   0  0  0  0  0  0  0  0  0  0  0  0
   39.1230   30.5520   39.6320 C   0  0  0  0  0  0  0  0  0  0  0  0
   37.9260   30.2100   40.2580 C   0  0  0  0  0  0  0  0  0  0  0  0
   37.0510   31.2290   40.4680 N   0  0  0  0  0  0  0  0  0  0  0  0
   37.3200   32.4920   40.0980 C   0  0  0  0  0  0  0  0  0  0  0  0
   38.4720   32.8070   39.4990 N   0  0  0  0  0  0  0  0  0  0  0  0
   40.3360   32.0990   38.7660 H   0  0  0  0  0  0  0  0  0  0  0  0
   39.8640   29.8240   39.4280 H   0  0  0  0  0  0  0  0  0  0  0  0
   36.5400   33.2400   40.3180 H   0  0  0  0  0  0  0  0  0  0  0  0
  2  9  1  0  0  0  0
  2  1  1  0  0  0  0
  3  2  2  0  0  0  0
  4  6  2  0  0  0  0
  4  3  1  0  0  0  0
  5  4  1  0  0  0  0
  6  7  1  0  0  0  0
  7  8  1  0  0  0  0
  7  9  2  0  0  0  0
  9 10  1  0  0  0  0
 11 16  2  0  0  0  0
 11 12  1  0  0  0  0
 12 13  2  0  0  0  0
 13 14  1  0  0  0  0
 13  3  1  0  0  0  0
 15 19  1  0  0  0  0
 15 14  2  0  0  0  0
 16 15  1  0  0  0  0
 17 11  1  0  0  0  0
 18 12  1  0  0  0  0
M  END
>  <minimizedAffinity>
-4.01162434

$$$$

 OpenBabel03242510283D

 19 20  0  0  0  0  0  0  0  0999 V2000
   41.0580   30.1880   40.4780 Cl  0  0  0  0  0  0  0  0  0  0  0  0
   39.8750   29.4140   41.5240 C   0  0  0  0  0  0  0  0  0  0  0  0
   38.6480   30.0110   41.7340 C   0  0  0  0  0  0  0  0  0  0  0  0
   37.7510   29.3680   42.5620 C   0  0  0  0  0  0  0  0  0  0  0  0
   36.7950   29.8210   42.7330 H   0  0  0  0  0  0  0  0  0  0  0  0
   38.0630   28.1640   43.1670 C   0  0  0  0  0  3  0  0  0  0  0  0
   39.3180   27.6090   42.9170 C   0  0  0  0  0  0  0  0  0  0  0  0
   39.7220   26.0850   43.6780 Cl  0  0  0  0  0  0  0  0  0  0  0  0
   40.2490   28.2130   42.0970 C   0  0  0  0  0  0  0  0  0  0  0  0
   41.2160   27.7510   41.9270 H   0  0  0  0  0  0  0  0  0  0  0  0
   37.2760   32.6140   39.3520 C   0  0  0  0  0  0  0  0  0  0  0  0
   37.5090   31.3870   39.9900 C   0  0  0  0  0  0  0  0  0  0  0  0
   38.3960   31.2820   41.0590 C   0  0  0  0  0  0  0  0  0  0  0  0
   39.0110   32.4330   41.4390 N   0  0  0  0  0  0  0  0  0  0  0  0
   38.7830   33.6040   40.8220 C   0  0  0  0  0  0  0  0  0  0  0  0
   37.9300   33.6910   39.7960 N   0  0  0  0  0  0  0  0  0  0  0  0
   36.5810   32.6540   38.5250 H   0  0  0  0  0  0  0  0  0  0  0  0
   36.9840   30.5420   39.6260 H   0  0  0  0  0  0  0  0  0  0  0  0
   39.3360   34.4750   41.2100 H   0  0  0  0  0  0  0  0  0  0  0  0
  1  2  1  0  0  0  0
  2  3  2  0  0  0  0
  2  9  1  0  0  0  0
  3  4  1  0  0  0  0
  4  5  1  0  0  0  0
  4  6  2  0  0  0  0
  7  6  1  0  0  0  0
  7  8  1  0  0  0  0
  9  7  2  0  0  0  0
 10  9  1  0  0  0  0
 11 16  2  0  0  0  0
 11 12  1  0  0  0  0
 12 13  2  0  0  0  0
 13 14  1  0  0  0  0
 13  3  1  0  0  0  0
 15 19  1  0  0  0  0
 15 14  2  0  0  0  0
 16 15  1  0  0  0  0
 17 11  1  0  0  0  0
 18 12  1  0  0  0  0
M  END
>  <minimizedAffinity>
-4.00991106

$$$$

 OpenBabel03242510283D

 19 20  0  0  0  0  0  0  0  0999 V2000
   38.9810   28.0610   39.3150 Cl  0  0  0  0  0  0  0  0  0  0  0  0
   38.9680   27.6440   41.0250 C   0  0  0  0  0  0  0  0  0  0  0  0
   38.6170   28.5960   41.9610 C   0  0  0  0  0  0  0  0  0  0  0  0
   38.6210   28.2240   43.2900 C   0  0  0  0  0  0  0  0  0  0  0  0
   38.3500   28.9540   44.0280 H   0  0  0  0  0  0  0  0  0  0  0  0
   38.9630   26.9420   43.6790 C   0  0  0  0  0  3  0  0  0  0  0  0
   39.3080   26.0250   42.6880 C   0  0  0  0  0  0  0  0  0  0  0  0
   39.7430   24.3990   43.1710 Cl  0  0  0  0  0  0  0  0  0  0  0  0
   39.3200   26.3470   41.3460 C   0  0  0  0  0  0  0  0  0  0  0  0
   39.5950   25.6060   40.6030 H   0  0  0  0  0  0  0  0  0  0  0  0
   38.8600   32.2260   40.9130 C   0  0  0  0  0  0  0  0  0  0  0  0
   39.2080   30.9520   41.3880 C   0  0  0  0  0  0  0  0  0  0  0  0
   38.2690   29.9270   41.4690 C   0  0  0  0  0  0  0  0  0  0  0  0
   37.0100   30.2370   41.0620 N   0  0  0  0  0  0  0  0  0  0  0  0
   36.6840   31.4580   40.6090 C   0  0  0  0  0  0  0  0  0  0  0  0
   37.5950   32.4350   40.5370 N   0  0  0  0  0  0  0  0  0  0  0  0
   39.6170   32.9950   40.8660 H   0  0  0  0  0  0  0  0  0  0  0  0
   40.2140   30.8020   41.6840 H   0  0  0  0  0  0  0  0  0  0  0  0
   35.6340   31.6010   40.3050 H   0  0  0  0  0  0  0  0  0  0  0  0
  1  2  1  0  0  0  0
  2  9  2  0  0  0  0
  2  3  1  0  0  0  0
  3  4  2  0  0  0  0
  4  6  1  0  0  0  0
  4  5  1  0  0  0  0
  7  8  1  0  0  0  0
  7  6  2  0  0  0  0
  9  7  1  0  0  0  0
 10  9  1  0  0  0  0
 11 12  1  0  0  0  0
 12 13  2  0  0  0  0
 12 18  1  0  0  0  0
 13  3  1  0  0  0  0
 14 13  1  0  0  0  0
 15 14  2  0  0  0  0
 16 15  1  0  0  0  0
 16 11  2  0  0  0  0
 17 11  1  0  0  0  0
 19 15  1  0  0  0  0
M  END
>  <minimizedAffinity>
-3.98788333

$$$$

 OpenBabel03242510283D

 19 20  0  0  0  0  0  0  0  0999 V2000
   36.1630   27.2010   39.4440 Cl  0  0  0  0  0  0  0  0  0  0  0  0
   36.6840   25.6060   39.9730 C   0  0  0  0  0  0  0  0  0  0  0  0
   37.3770   25.4670   41.1580 C   0  0  0  0  0  0  0  0  0  0  0  0
   37.7650   24.1980   41.5330 C   0  0  0  0  0  0  0  0  0  0  0  0
   38.3040   24.0760   42.4520 H   0  0  0  0  0  0  0  0  0  0  0  0
   37.4750   23.0950   40.7520 C   0  0  0  0  0  3  0  0  0  0  0  0
   36.7720   23.2970   39.5650 C   0  0  0  0  0  0  0  0  0  0  0  0
   36.3990   21.9060   38.5690 Cl  0  0  0  0  0  0  0  0  0  0  0  0
   36.3610   24.5460   39.1470 C   0  0  0  0  0  0  0  0  0  0  0  0
   35.8160   24.6650   38.2150 H   0  0  0  0  0  0  0  0  0  0  0  0
   37.0510   28.2980   43.6520 C   0  0  0  0  0  0  0  0  0  0  0  0
   36.7820   27.1300   42.9220 C   0  0  0  0  0  0  0  0  0  0  0  0
   37.6450   26.6810   41.9260 C   0  0  0  0  0  0  0  0  0  0  0  0
   38.7520   27.4390   41.7100 N   0  0  0  0  0  0  0  0  0  0  0  0
   39.0030   28.5560   42.4130 C   0  0  0  0  0  0  0  0  0  0  0  0
   38.1660   28.9770   43.3670 N   0  0  0  0  0  0  0  0  0  0  0  0
   36.3570   28.6130   44.4170 H   0  0  0  0  0  0  0  0  0  0  0  0
   35.8940   26.6030   43.1590 H   0  0  0  0  0  0  0  0  0  0  0  0
   39.9300   29.0950   42.1560 H   0  0  0  0  0  0  0  0  0  0  0  0
  1  2  1  0  0  0  0
  2  3  1  0  0  0  0
  3  4  2  0  0  0  0
  3 13  1  0  0  0  0
  4  5  1  0  0  0  0
  6  4  1  0  0  0  0
  7  6  2  0  0  0  0
  8  7  1  0  0  0  0
  9  7  1  0  0  0  0
  9  2  2  0  0  0  0
 10  9  1  0  0  0  0
 11 17  1  0  0  0  0
 12 18  1  0  0  0  0
 12 11  2  0  0  0  0
 13 12  1  0  0  0  0
 14 13  2  0  0  0  0
 14 15  1  0  0  0  0
 15 16  2  0  0  0  0
 16 11  1  0  0  0  0
 19 15  1  0  0  0  0
M  END
>  <minimizedAffinity>
-3.97209191

$$$$
