
 OpenBabel03242516303D

 47 51  0  0  0  0  0  0  0  0999 V2000
   37.4930   30.8110   39.1820 C   0  0  0  0  0  0  0  0  0  0  0  0
   37.5850   31.4350   37.9580 N   0  0  0  0  0  0  0  0  0  0  0  0
   37.3280   30.8300   36.8050 C   0  0  0  0  0  0  0  0  0  0  0  0
   36.9610   29.5470   36.8540 N   0  0  0  0  0  0  0  0  0  0  0  0
   36.8480   28.8690   37.9980 C   0  0  0  0  0  0  0  0  0  0  0  0
   36.4510   27.5390   38.0410 C   0  0  0  0  0  0  0  0  0  0  0  0
   36.3340   26.8760   39.2270 C   0  0  0  0  0  0  0  0  0  0  0  0
   36.6050   27.5100   40.3990 C   0  0  0  0  0  0  0  0  0  0  0  0
   37.0080   28.8490   40.4090 C   0  0  0  0  0  0  0  0  0  0  0  0
   37.1200   29.5030   39.2150 C   0  0  0  0  0  0  0  0  0  0  0  0
   37.4340   31.4260   35.9080 H   0  0  0  0  0  0  0  0  0  0  0  0
   36.2550   27.1020   37.0780 H   0  0  0  0  0  0  0  0  0  0  0  0
   36.0180   25.8480   39.1320 H   0  0  0  0  0  0  0  0  0  0  0  0
   36.4710   26.8570   41.2470 H   0  0  0  0  0  0  0  0  0  0  0  0
   37.3240   29.4220   41.7280 C   0  0  0  0  0  0  0  0  0  0  0  0
   37.7890   30.4010   41.7390 H   0  0  0  0  0  0  0  0  0  0  0  0
   36.5480   29.2010   42.4930 H   0  0  0  0  0  0  0  0  0  0  0  0
   36.5980   27.5350   43.9630 Cl  0  0  0  0  0  0  0  0  0  0  0  0
   38.2580   27.7580   43.3970 C   0  0  0  0  0  0  0  0  0  0  0  0
   38.4750   28.6540   42.3650 C   0  0  0  0  0  0  0  0  0  0  0  0
   39.8020   28.7500   42.0040 C   0  0  0  0  0  0  0  0  0  0  0  0
   40.0270   29.4410   41.1980 H   0  0  0  0  0  0  0  0  0  0  0  0
   40.8520   28.0630   42.5640 C   0  0  0  0  0  3  0  0  0  0  0  0
   40.5230   27.1920   43.5910 C   0  0  0  0  0  0  0  0  0  0  0  0
   41.8530   26.3050   44.3160 Cl  0  0  0  0  0  0  0  0  0  0  0  0
   39.2300   27.0350   44.0110 C   0  0  0  0  0  0  0  0  0  0  0  0
   39.0320   26.3410   44.8160 H   0  0  0  0  0  0  0  0  0  0  0  0
   37.7910   31.6620   40.6550 S   0  0  0  0  0  0  0  0  0  0  0  0
   40.8440   34.2260   40.3520 C   0  0  0  0  0  0  0  0  0  0  0  0
   40.0820   33.0890   40.5140 C   0  0  0  0  0  0  0  0  0  0  0  0
   38.7170   33.1310   40.4180 C   0  0  0  0  0  0  0  0  0  0  0  0
   38.0800   34.3210   40.1550 C   0  0  0  0  0  0  0  0  0  0  0  0
   38.7870   35.4740   39.9870 C   0  0  0  0  0  0  0  0  0  0  0  0
   40.1640   35.4010   40.0900 C   0  0  0  0  0  0  0  0  0  0  0  0
   40.6090   32.1650   40.7180 H   0  0  0  0  0  0  0  0  0  0  0  0
   37.0010   34.3110   40.0860 H   0  0  0  0  0  0  0  0  0  0  0  0
   38.3260   36.4360   39.7790 H   0  0  0  0  0  0  0  0  0  0  0  0
   40.8240   36.2720   39.9720 H   0  0  0  0  0  0  0  0  0  0  0  0
   44.1960   34.7440   41.7310 C   0  0  0  0  0  0  0  0  0  0  0  0
   45.0370   34.0770   40.7920 C   0  0  0  0  0  0  0  0  0  0  0  0
   44.4450   33.4570   39.6960 C   0  0  0  0  0  0  0  0  0  0  0  0
   43.0840   33.4940   39.5350 N   0  0  0  0  0  0  0  0  0  0  0  0
   42.3120   34.1470   40.4630 C   0  0  0  0  0  0  0  0  0  0  0  0
   42.8570   34.7670   41.5480 N   0  0  0  0  0  0  0  0  0  0  0  0
   44.6850   35.2140   42.5660 H   0  0  0  0  0  0  0  0  0  0  0  0
   46.1070   34.0680   40.9500 H   0  0  0  0  0  0  0  0  0  0  0  0
   45.0520   32.9450   38.9690 H   0  0  0  0  0  0  0  0  0  0  0  0
  1 10  1  0  0  0  0
  1 28  1  0  0  0  0
  2  1  2  0  0  0  0
  3  4  2  0  0  0  0
  3  2  1  0  0  0  0
  4  5  1  0  0  0  0
  5  6  2  0  0  0  0
  5 10  1  0  0  0  0
  6  7  1  0  0  0  0
  7  8  2  0  0  0  0
  8  9  1  0  0  0  0
  8 14  1  0  0  0  0
  9 15  1  0  0  0  0
 10  9  2  0  0  0  0
 11  3  1  0  0  0  0
 12  6  1  0  0  0  0
 13  7  1  0  0  0  0
 15 16  1  0  0  0  0
 15 20  1  0  0  0  0
 15 17  1  0  0  0  0
 19 18  1  0  0  0  0
 19 26  1  0  0  0  0
 20 19  2  0  0  0  0
 21 20  1  0  0  0  0
 21 23  2  0  0  0  0
 22 21  1  0  0  0  0
 23 24  1  0  0  0  0
 24 26  2  0  0  0  0
 24 25  1  0  0  0  0
 26 27  1  0  0  0  0
 29 43  1  0  0  0  0
 29 30  1  0  0  0  0
 30 35  1  0  0  0  0
 31 30  2  0  0  0  0
 31 28  1  0  0  0  0
 32 31  1  0  0  0  0
 33 34  1  0  0  0  0
 33 32  2  0  0  0  0
 34 29  2  0  0  0  0
 36 32  1  0  0  0  0
 37 33  1  0  0  0  0
 38 34  1  0  0  0  0
 39 45  1  0  0  0  0
 40 46  1  0  0  0  0
 40 39  2  0  0  0  0
 41 40  1  0  0  0  0
 42 41  2  0  0  0  0
 42 43  1  0  0  0  0
 43 44  2  0  0  0  0
 44 39  1  0  0  0  0
 47 41  1  0  0  0  0
M  END
>  <minimizedAffinity>
-7.29066181

$$$$

 OpenBabel03242516303D

 47 51  0  0  0  0  0  0  0  0999 V2000
   35.6360   29.2440   39.1360 C   0  0  0  0  0  0  0  0  0  0  0  0
   34.9290   28.1740   38.6340 N   0  0  0  0  0  0  0  0  0  0  0  0
   34.8310   27.9010   37.3390 C   0  0  0  0  0  0  0  0  0  0  0  0
   35.4600   28.7190   36.4910 N   0  0  0  0  0  0  0  0  0  0  0  0
   36.1670   29.7770   36.8940 C   0  0  0  0  0  0  0  0  0  0  0  0
   36.8300   30.6140   36.0070 C   0  0  0  0  0  0  0  0  0  0  0  0
   37.5540   31.6810   36.4500 C   0  0  0  0  0  0  0  0  0  0  0  0
   37.6400   31.9480   37.7810 C   0  0  0  0  0  0  0  0  0  0  0  0
   36.9900   31.1360   38.7140 C   0  0  0  0  0  0  0  0  0  0  0  0
   36.2700   30.0680   38.2590 C   0  0  0  0  0  0  0  0  0  0  0  0
   34.2470   27.0320   37.0670 H   0  0  0  0  0  0  0  0  0  0  0  0
   36.7170   30.3430   34.9710 H   0  0  0  0  0  0  0  0  0  0  0  0
   38.0240   32.2560   35.6660 H   0  0  0  0  0  0  0  0  0  0  0  0
   38.2410   32.8230   37.9750 H   0  0  0  0  0  0  0  0  0  0  0  0
   37.1080   31.5450   40.1240 C   0  0  0  0  0  0  0  0  0  0  0  0
   36.3180   32.1710   40.5210 H   0  0  0  0  0  0  0  0  0  0  0  0
   37.5190   30.7420   40.7750 H   0  0  0  0  0  0  0  0  0  0  0  0
   39.8280   30.3950   40.7300 Cl  0  0  0  0  0  0  0  0  0  0  0  0
   39.5370   32.1310   40.5570 C   0  0  0  0  0  0  0  0  0  0  0  0
   38.2460   32.5460   40.2810 C   0  0  0  0  0  0  0  0  0  0  0  0
   38.1320   33.9150   40.1670 C   0  0  0  0  0  0  0  0  0  0  0  0
   37.1390   34.2940   39.9510 H   0  0  0  0  0  0  0  0  0  0  0  0
   39.1470   34.8320   40.3000 C   0  0  0  0  0  3  0  0  0  0  0  0
   40.4000   34.3090   40.5770 C   0  0  0  0  0  0  0  0  0  0  0  0
   41.7080   35.4670   40.7490 Cl  0  0  0  0  0  0  0  0  0  0  0  0
   40.6010   32.9600   40.7050 C   0  0  0  0  0  0  0  0  0  0  0  0
   41.6010   32.6090   40.9210 H   0  0  0  0  0  0  0  0  0  0  0  0
   35.7710   29.5220   40.8350 S   0  0  0  0  0  0  0  0  0  0  0  0
   37.8450   26.1930   41.6160 C   0  0  0  0  0  0  0  0  0  0  0  0
   37.0700   27.1580   41.0080 C   0  0  0  0  0  0  0  0  0  0  0  0
   36.7800   28.3370   41.6400 C   0  0  0  0  0  0  0  0  0  0  0  0
   37.2630   28.5770   42.9060 C   0  0  0  0  0  0  0  0  0  0  0  0
   38.0320   27.6560   43.5510 C   0  0  0  0  0  0  0  0  0  0  0  0
   38.3080   26.4750   42.8880 C   0  0  0  0  0  0  0  0  0  0  0  0
   36.7050   26.9440   40.0110 H   0  0  0  0  0  0  0  0  0  0  0  0
   37.0110   29.5200   43.3710 H   0  0  0  0  0  0  0  0  0  0  0  0
   38.4330   27.8040   44.5500 H   0  0  0  0  0  0  0  0  0  0  0  0
   38.9180   25.6690   43.3200 H   0  0  0  0  0  0  0  0  0  0  0  0
   39.2130   23.9520   39.0650 C   0  0  0  0  0  0  0  0  0  0  0  0
   38.7600   22.6680   39.4880 C   0  0  0  0  0  0  0  0  0  0  0  0
   37.9900   22.5840   40.6430 C   0  0  0  0  0  0  0  0  0  0  0  0
   37.6810   23.7190   41.3500 N   0  0  0  0  0  0  0  0  0  0  0  0
   38.1380   24.9350   40.9070 C   0  0  0  0  0  0  0  0  0  0  0  0
   38.8950   25.0550   39.7790 N   0  0  0  0  0  0  0  0  0  0  0  0
   39.8060   23.9820   38.1680 H   0  0  0  0  0  0  0  0  0  0  0  0
   39.0220   21.7940   38.9060 H   0  0  0  0  0  0  0  0  0  0  0  0
   37.6320   21.6290   40.9890 H   0  0  0  0  0  0  0  0  0  0  0  0
  1 28  1  0  0  0  0
  2  1  1  0  0  0  0
  3  2  2  0  0  0  0
  4  5  2  0  0  0  0
  4  3  1  0  0  0  0
  5 10  1  0  0  0  0
  6  7  2  0  0  0  0
  6  5  1  0  0  0  0
  7  8  1  0  0  0  0
  8 14  1  0  0  0  0
  8  9  2  0  0  0  0
  9 15  1  0  0  0  0
 10  9  1  0  0  0  0
 10  1  2  0  0  0  0
 11  3  1  0  0  0  0
 12  6  1  0  0  0  0
 13  7  1  0  0  0  0
 15 20  1  0  0  0  0
 15 16  1  0  0  0  0
 15 17  1  0  0  0  0
 19 26  1  0  0  0  0
 19 18  1  0  0  0  0
 20 19  2  0  0  0  0
 21 20  1  0  0  0  0
 21 23  2  0  0  0  0
 22 21  1  0  0  0  0
 23 24  1  0  0  0  0
 24 26  2  0  0  0  0
 24 25  1  0  0  0  0
 26 27  1  0  0  0  0
 28 31  1  0  0  0  0
 29 34  1  0  0  0  0
 30 29  2  0  0  0  0
 30 31  1  0  0  0  0
 31 32  2  0  0  0  0
 32 36  1  0  0  0  0
 32 33  1  0  0  0  0
 33 37  1  0  0  0  0
 34 38  1  0  0  0  0
 34 33  2  0  0  0  0
 35 30  1  0  0  0  0
 39 40  2  0  0  0  0
 39 44  1  0  0  0  0
 40 41  1  0  0  0  0
 41 47  1  0  0  0  0
 41 42  2  0  0  0  0
 43 42  1  0  0  0  0
 43 29  1  0  0  0  0
 44 43  2  0  0  0  0
 45 39  1  0  0  0  0
 46 40  1  0  0  0  0
M  END
>  <minimizedAffinity>
-6.88678455

$$$$

 OpenBabel03242516303D

 47 51  0  0  0  0  0  0  0  0999 V2000
   38.1470   29.8240   40.7280 C   0  0  0  0  0  0  0  0  0  0  0  0
   38.5320   30.2520   41.9790 N   0  0  0  0  0  0  0  0  0  0  0  0
   38.4980   29.4850   43.0610 C   0  0  0  0  0  0  0  0  0  0  0  0
   38.0630   28.2310   42.9100 N   0  0  0  0  0  0  0  0  0  0  0  0
   37.6710   27.7370   41.7330 C   0  0  0  0  0  0  0  0  0  0  0  0
   37.2350   26.4280   41.5820 C   0  0  0  0  0  0  0  0  0  0  0  0
   36.8520   25.9480   40.3640 C   0  0  0  0  0  0  0  0  0  0  0  0
   36.8900   26.7510   39.2660 C   0  0  0  0  0  0  0  0  0  0  0  0
   37.3220   28.0760   39.3670 C   0  0  0  0  0  0  0  0  0  0  0  0
   37.7050   28.5450   40.5910 C   0  0  0  0  0  0  0  0  0  0  0  0
   38.8270   29.9350   43.9880 H   0  0  0  0  0  0  0  0  0  0  0  0
   37.2290   25.8530   42.4910 H   0  0  0  0  0  0  0  0  0  0  0  0
   36.5330   24.9170   40.3730 H   0  0  0  0  0  0  0  0  0  0  0  0
   36.5540   26.2320   38.3810 H   0  0  0  0  0  0  0  0  0  0  0  0
   37.2760   28.8690   38.1270 C   0  0  0  0  0  0  0  0  0  0  0  0
   37.4030   29.9410   38.2250 H   0  0  0  0  0  0  0  0  0  0  0  0
   37.7650   28.3590   37.2680 H   0  0  0  0  0  0  0  0  0  0  0  0
   36.9960   28.6770   35.1320 Cl  0  0  0  0  0  0  0  0  0  0  0  0
   35.6070   28.8070   36.2190 C   0  0  0  0  0  0  0  0  0  0  0  0
   35.8550   28.8930   37.5780 C   0  0  0  0  0  0  0  0  0  0  0  0
   34.7040   28.9910   38.3310 C   0  0  0  0  0  0  0  0  0  0  0  0
   34.8420   29.0610   39.4050 H   0  0  0  0  0  0  0  0  0  0  0  0
   33.4160   29.0080   37.8540 C   0  0  0  0  0  3  0  0  0  0  0  0
   33.2810   28.9180   36.4770 C   0  0  0  0  0  0  0  0  0  0  0  0
   31.6410   28.9380   35.8510 Cl  0  0  0  0  0  0  0  0  0  0  0  0
   34.3720   28.8160   35.6560 C   0  0  0  0  0  0  0  0  0  0  0  0
   34.2060   28.7490   34.5890 H   0  0  0  0  0  0  0  0  0  0  0  0
   38.2610   30.8520   39.3450 S   0  0  0  0  0  0  0  0  0  0  0  0
   40.7380   33.8670   40.2190 C   0  0  0  0  0  0  0  0  0  0  0  0
   40.2200   32.6310   39.8960 C   0  0  0  0  0  0  0  0  0  0  0  0
   38.8730   32.4480   39.7320 C   0  0  0  0  0  0  0  0  0  0  0  0
   38.0090   33.5070   39.8900 C   0  0  0  0  0  0  0  0  0  0  0  0
   38.4710   34.7480   40.2090 C   0  0  0  0  0  0  0  0  0  0  0  0
   39.8350   34.9020   40.3680 C   0  0  0  0  0  0  0  0  0  0  0  0
   40.9220   31.8150   39.7760 H   0  0  0  0  0  0  0  0  0  0  0  0
   36.9530   33.3200   39.7520 H   0  0  0  0  0  0  0  0  0  0  0  0
   37.8250   35.6120   40.3440 H   0  0  0  0  0  0  0  0  0  0  0  0
   40.3070   35.8610   40.6260 H   0  0  0  0  0  0  0  0  0  0  0  0
   44.3090   33.6660   39.4360 C   0  0  0  0  0  0  0  0  0  0  0  0
   44.9230   34.2690   40.5730 C   0  0  0  0  0  0  0  0  0  0  0  0
   44.1050   34.7380   41.5970 C   0  0  0  0  0  0  0  0  0  0  0  0
   42.7420   34.6160   41.5010 N   0  0  0  0  0  0  0  0  0  0  0  0
   42.1940   34.0290   40.3880 C   0  0  0  0  0  0  0  0  0  0  0  0
   42.9640   33.5580   39.3660 N   0  0  0  0  0  0  0  0  0  0  0  0
   44.9700   33.3140   38.6630 H   0  0  0  0  0  0  0  0  0  0  0  0
   46.0010   34.3470   40.6150 H   0  0  0  0  0  0  0  0  0  0  0  0
   44.5370   35.1980   42.4690 H   0  0  0  0  0  0  0  0  0  0  0  0
  1  2  1  0  0  0  0
  2  3  2  0  0  0  0
  3 11  1  0  0  0  0
  4  3  1  0  0  0  0
  5  4  2  0  0  0  0
  6  5  1  0  0  0  0
  6 12  1  0  0  0  0
  7 13  1  0  0  0  0
  7  6  2  0  0  0  0
  8  9  2  0  0  0  0
  8  7  1  0  0  0  0
  9 10  1  0  0  0  0
 10  1  2  0  0  0  0
 10  5  1  0  0  0  0
 14  8  1  0  0  0  0
 15 16  1  0  0  0  0
 15  9  1  0  0  0  0
 17 15  1  0  0  0  0
 18 19  1  0  0  0  0
 19 20  1  0  0  0  0
 20 15  1  0  0  0  0
 20 21  2  0  0  0  0
 21 22  1  0  0  0  0
 23 21  1  0  0  0  0
 24 23  2  0  0  0  0
 25 24  1  0  0  0  0
 26 19  2  0  0  0  0
 26 24  1  0  0  0  0
 27 26  1  0  0  0  0
 28 31  1  0  0  0  0
 28  1  1  0  0  0  0
 29 34  1  0  0  0  0
 29 43  1  0  0  0  0
 30 29  2  0  0  0  0
 31 32  2  0  0  0  0
 31 30  1  0  0  0  0
 32 33  1  0  0  0  0
 33 37  1  0  0  0  0
 33 34  2  0  0  0  0
 34 38  1  0  0  0  0
 35 30  1  0  0  0  0
 36 32  1  0  0  0  0
 39 40  1  0  0  0  0
 40 46  1  0  0  0  0
 40 41  2  0  0  0  0
 41 47  1  0  0  0  0
 42 41  1  0  0  0  0
 43 42  2  0  0  0  0
 44 39  2  0  0  0  0
 44 43  1  0  0  0  0
 45 39  1  0  0  0  0
M  END
>  <minimizedAffinity>
-6.78060818

$$$$

 OpenBabel03242516303D

 47 51  0  0  0  0  0  0  0  0999 V2000
   36.5910   27.1950   39.0680 C   0  0  0  0  0  0  0  0  0  0  0  0
   36.5880   25.8180   39.0360 N   0  0  0  0  0  0  0  0  0  0  0  0
   36.7860   25.0580   40.1060 C   0  0  0  0  0  0  0  0  0  0  0  0
   36.9980   25.6810   41.2680 N   0  0  0  0  0  0  0  0  0  0  0  0
   37.0180   27.0100   41.3860 C   0  0  0  0  0  0  0  0  0  0  0  0
   37.2250   27.6490   42.6010 C   0  0  0  0  0  0  0  0  0  0  0  0
   37.2270   29.0100   42.6920 C   0  0  0  0  0  0  0  0  0  0  0  0
   37.0260   29.7720   41.5840 C   0  0  0  0  0  0  0  0  0  0  0  0
   36.8130   29.1770   40.3370 C   0  0  0  0  0  0  0  0  0  0  0  0
   36.8110   27.8130   40.2590 C   0  0  0  0  0  0  0  0  0  0  0  0
   36.7600   23.9880   39.9540 H   0  0  0  0  0  0  0  0  0  0  0  0
   37.3780   26.9830   43.4330 H   0  0  0  0  0  0  0  0  0  0  0  0
   37.3980   29.3880   43.6880 H   0  0  0  0  0  0  0  0  0  0  0  0
   37.0600   30.8270   41.8130 H   0  0  0  0  0  0  0  0  0  0  0  0
   36.6570   30.0960   39.1980 C   0  0  0  0  0  0  0  0  0  0  0  0
   37.0450   29.7630   38.2420 H   0  0  0  0  0  0  0  0  0  0  0  0
   35.6860   30.6390   39.2090 H   0  0  0  0  0  0  0  0  0  0  0  0
   39.5600   29.6760   38.5040 Cl  0  0  0  0  0  0  0  0  0  0  0  0
   38.9250   31.2230   39.0790 C   0  0  0  0  0  0  0  0  0  0  0  0
   37.5750   31.3000   39.3710 C   0  0  0  0  0  0  0  0  0  0  0  0
   37.1880   32.5480   39.8090 C   0  0  0  0  0  0  0  0  0  0  0  0
   36.1360   32.6630   40.0530 H   0  0  0  0  0  0  0  0  0  0  0  0
   37.9990   33.6460   39.9670 C   0  0  0  0  0  3  0  0  0  0  0  0
   39.3350   33.4590   39.6470 C   0  0  0  0  0  0  0  0  0  0  0  0
   40.3850   34.8520   39.8420 Cl  0  0  0  0  0  0  0  0  0  0  0  0
   39.8030   32.2510   39.2020 C   0  0  0  0  0  0  0  0  0  0  0  0
   40.8550   32.1640   38.9680 H   0  0  0  0  0  0  0  0  0  0  0  0
   36.2770   28.1330   37.6520 S   0  0  0  0  0  0  0  0  0  0  0  0
   32.4570   28.8110   36.6830 C   0  0  0  0  0  0  0  0  0  0  0  0
   33.7520   28.9480   37.1350 C   0  0  0  0  0  0  0  0  0  0  0  0
   34.6480   27.9180   37.0410 C   0  0  0  0  0  0  0  0  0  0  0  0
   34.2650   26.7190   36.4870 C   0  0  0  0  0  0  0  0  0  0  0  0
   32.9970   26.5320   36.0260 C   0  0  0  0  0  0  0  0  0  0  0  0
   32.1130   27.5890   36.1350 C   0  0  0  0  0  0  0  0  0  0  0  0
   34.0280   29.9030   37.5660 H   0  0  0  0  0  0  0  0  0  0  0  0
   35.0030   25.9310   36.4310 H   0  0  0  0  0  0  0  0  0  0  0  0
   32.6510   25.6020   35.5820 H   0  0  0  0  0  0  0  0  0  0  0  0
   31.0700   27.5410   35.7940 H   0  0  0  0  0  0  0  0  0  0  0  0
   30.6020   31.8210   35.7320 C   0  0  0  0  0  0  0  0  0  0  0  0
   29.8020   32.0830   36.8840 C   0  0  0  0  0  0  0  0  0  0  0  0
   29.9080   31.2260   37.9740 C   0  0  0  0  0  0  0  0  0  0  0  0
   30.7650   30.1560   37.9290 N   0  0  0  0  0  0  0  0  0  0  0  0
   31.5160   29.9400   36.8000 C   0  0  0  0  0  0  0  0  0  0  0  0
   31.4400   30.7600   35.7140 N   0  0  0  0  0  0  0  0  0  0  0  0
   30.4970   32.5030   34.9070 H   0  0  0  0  0  0  0  0  0  0  0  0
   29.1380   32.9380   36.8840 H   0  0  0  0  0  0  0  0  0  0  0  0
   29.3180   31.3960   38.8580 H   0  0  0  0  0  0  0  0  0  0  0  0
  1 10  1  0  0  0  0
  2  1  2  0  0  0  0
  2  3  1  0  0  0  0
  3  4  2  0  0  0  0
  4  5  1  0  0  0  0
  5  6  1  0  0  0  0
  6  7  2  0  0  0  0
  6 12  1  0  0  0  0
  7 13  1  0  0  0  0
  8 14  1  0  0  0  0
  8  7  1  0  0  0  0
  9  8  2  0  0  0  0
 10  9  1  0  0  0  0
 10  5  2  0  0  0  0
 11  3  1  0  0  0  0
 15 17  1  0  0  0  0
 15 20  1  0  0  0  0
 15  9  1  0  0  0  0
 16 15  1  0  0  0  0
 18 19  1  0  0  0  0
 19 26  2  0  0  0  0
 19 20  1  0  0  0  0
 20 21  2  0  0  0  0
 21 23  1  0  0  0  0
 21 22  1  0  0  0  0
 24 25  1  0  0  0  0
 24 23  2  0  0  0  0
 26 24  1  0  0  0  0
 27 26  1  0  0  0  0
 28  1  1  0  0  0  0
 29 43  1  0  0  0  0
 29 30  1  0  0  0  0
 30 35  1  0  0  0  0
 31 30  2  0  0  0  0
 31 28  1  0  0  0  0
 32 31  1  0  0  0  0
 33 34  1  0  0  0  0
 33 32  2  0  0  0  0
 34 29  2  0  0  0  0
 36 32  1  0  0  0  0
 37 33  1  0  0  0  0
 38 34  1  0  0  0  0
 39 40  1  0  0  0  0
 40 46  1  0  0  0  0
 40 41  2  0  0  0  0
 41 47  1  0  0  0  0
 42 41  1  0  0  0  0
 43 42  2  0  0  0  0
 44 39  2  0  0  0  0
 44 43  1  0  0  0  0
 45 39  1  0  0  0  0
M  END
>  <minimizedAffinity>
-6.75078106

$$$$

 OpenBabel03242516303D

 47 51  0  0  0  0  0  0  0  0999 V2000
   39.0510   30.3790   42.0250 C   0  0  0  0  0  0  0  0  0  0  0  0
   40.1880   30.0170   42.7140 N   0  0  0  0  0  0  0  0  0  0  0  0
   41.3220   30.7050   42.6730 C   0  0  0  0  0  0  0  0  0  0  0  0
   41.3430   31.8070   41.9180 N   0  0  0  0  0  0  0  0  0  0  0  0
   40.2870   32.2280   41.2190 C   0  0  0  0  0  0  0  0  0  0  0  0
   40.3130   33.3820   40.4490 C   0  0  0  0  0  0  0  0  0  0  0  0
   39.2130   33.7930   39.7550 C   0  0  0  0  0  0  0  0  0  0  0  0
   38.0600   33.0730   39.8060 C   0  0  0  0  0  0  0  0  0  0  0  0
   37.9830   31.9040   40.5670 C   0  0  0  0  0  0  0  0  0  0  0  0
   39.0910   31.5030   41.2600 C   0  0  0  0  0  0  0  0  0  0  0  0
   42.1460   30.3200   43.2580 H   0  0  0  0  0  0  0  0  0  0  0  0
   41.2570   33.8990   40.4550 H   0  0  0  0  0  0  0  0  0  0  0  0
   39.3560   34.7040   39.1940 H   0  0  0  0  0  0  0  0  0  0  0  0
   37.2830   33.5200   39.2050 H   0  0  0  0  0  0  0  0  0  0  0  0
   36.7040   31.1760   40.5110 C   0  0  0  0  0  0  0  0  0  0  0  0
   36.6260   30.2740   41.1080 H   0  0  0  0  0  0  0  0  0  0  0  0
   35.8220   31.8520   40.4640 H   0  0  0  0  0  0  0  0  0  0  0  0
   34.4130   29.2380   40.2260 Cl  0  0  0  0  0  0  0  0  0  0  0  0
   35.5200   29.6160   38.9010 C   0  0  0  0  0  0  0  0  0  0  0  0
   36.5390   30.5190   39.1460 C   0  0  0  0  0  0  0  0  0  0  0  0
   37.3410   30.7400   38.0470 C   0  0  0  0  0  0  0  0  0  0  0  0
   38.1570   31.4420   38.1860 H   0  0  0  0  0  0  0  0  0  0  0  0
   37.2050   30.1620   36.8080 C   0  0  0  0  0  3  0  0  0  0  0  0
   36.1510   29.2720   36.6710 C   0  0  0  0  0  0  0  0  0  0  0  0
   35.9620   28.5250   35.0930 Cl  0  0  0  0  0  0  0  0  0  0  0  0
   35.3060   28.9960   37.7120 C   0  0  0  0  0  0  0  0  0  0  0  0
   34.5010   28.2930   37.5470 H   0  0  0  0  0  0  0  0  0  0  0  0
   37.5870   29.4730   42.1560 S   0  0  0  0  0  0  0  0  0  0  0  0
   37.2750   25.6860   40.9090 C   0  0  0  0  0  0  0  0  0  0  0  0
   37.1190   27.0480   41.0570 C   0  0  0  0  0  0  0  0  0  0  0  0
   37.8390   27.7460   41.9890 C   0  0  0  0  0  0  0  0  0  0  0  0
   38.7370   27.0910   42.8000 C   0  0  0  0  0  0  0  0  0  0  0  0
   38.9280   25.7470   42.6940 C   0  0  0  0  0  0  0  0  0  0  0  0
   38.1870   25.0680   41.7440 C   0  0  0  0  0  0  0  0  0  0  0  0
   36.4070   27.5390   40.4060 H   0  0  0  0  0  0  0  0  0  0  0  0
   39.2850   27.6790   43.5230 H   0  0  0  0  0  0  0  0  0  0  0  0
   39.6250   25.1890   43.3130 H   0  0  0  0  0  0  0  0  0  0  0  0
   38.2660   23.9840   41.5800 H   0  0  0  0  0  0  0  0  0  0  0  0
   35.5040   22.9150   39.3010 C   0  0  0  0  0  0  0  0  0  0  0  0
   35.0200   23.5000   38.0930 C   0  0  0  0  0  0  0  0  0  0  0  0
   35.3070   24.8380   37.8430 C   0  0  0  0  0  0  0  0  0  0  0  0
   36.0390   25.5660   38.7460 N   0  0  0  0  0  0  0  0  0  0  0  0
   36.4840   24.9640   39.8960 C   0  0  0  0  0  0  0  0  0  0  0  0
   36.2230   23.6550   40.1740 N   0  0  0  0  0  0  0  0  0  0  0  0
   35.2640   21.8790   39.4630 H   0  0  0  0  0  0  0  0  0  0  0  0
   34.4470   22.8950   37.4030 H   0  0  0  0  0  0  0  0  0  0  0  0
   34.9570   25.3090   36.9410 H   0  0  0  0  0  0  0  0  0  0  0  0
  1 28  1  0  0  0  0
  1  2  1  0  0  0  0
  3  2  2  0  0  0  0
  3 11  1  0  0  0  0
  4  3  1  0  0  0  0
  5 10  1  0  0  0  0
  5  4  2  0  0  0  0
  6 12  1  0  0  0  0
  6  5  1  0  0  0  0
  7  8  1  0  0  0  0
  7  6  2  0  0  0  0
  8  9  2  0  0  0  0
  9 10  1  0  0  0  0
 10  1  2  0  0  0  0
 13  7  1  0  0  0  0
 14  8  1  0  0  0  0
 15  9  1  0  0  0  0
 15 16  1  0  0  0  0
 17 15  1  0  0  0  0
 19 20  1  0  0  0  0
 19 18  1  0  0  0  0
 20 15  1  0  0  0  0
 21 22  1  0  0  0  0
 21 20  2  0  0  0  0
 23 21  1  0  0  0  0
 24 23  2  0  0  0  0
 24 26  1  0  0  0  0
 25 24  1  0  0  0  0
 26 19  2  0  0  0  0
 27 26  1  0  0  0  0
 29 30  2  0  0  0  0
 29 34  1  0  0  0  0
 30 31  1  0  0  0  0
 31 28  1  0  0  0  0
 31 32  2  0  0  0  0
 32 36  1  0  0  0  0
 33 32  1  0  0  0  0
 33 37  1  0  0  0  0
 34 33  2  0  0  0  0
 35 30  1  0  0  0  0
 38 34  1  0  0  0  0
 39 45  1  0  0  0  0
 39 44  1  0  0  0  0
 40 39  2  0  0  0  0
 41 40  1  0  0  0  0
 41 42  2  0  0  0  0
 42 43  1  0  0  0  0
 43 44  2  0  0  0  0
 43 29  1  0  0  0  0
 46 40  1  0  0  0  0
 47 41  1  0  0  0  0
M  END
>  <minimizedAffinity>
-6.74427223

$$$$

 OpenBabel03242516303D

 47 51  0  0  0  0  0  0  0  0999 V2000
   38.3520   29.9190   42.1650 C   0  0  0  0  0  0  0  0  0  0  0  0
   39.4950   30.2520   42.8580 N   0  0  0  0  0  0  0  0  0  0  0  0
   40.3080   31.2390   42.5030 C   0  0  0  0  0  0  0  0  0  0  0  0
   39.9830   31.9370   41.4110 N   0  0  0  0  0  0  0  0  0  0  0  0
   38.8940   31.6800   40.6830 C   0  0  0  0  0  0  0  0  0  0  0  0
   38.5570   32.4200   39.5580 C   0  0  0  0  0  0  0  0  0  0  0  0
   37.4300   32.1410   38.8420 C   0  0  0  0  0  0  0  0  0  0  0  0
   36.6110   31.1230   39.2190 C   0  0  0  0  0  0  0  0  0  0  0  0
   36.9070   30.3490   40.3440 C   0  0  0  0  0  0  0  0  0  0  0  0
   38.0370   30.6390   41.0550 C   0  0  0  0  0  0  0  0  0  0  0  0
   41.1750   31.4040   43.1270 H   0  0  0  0  0  0  0  0  0  0  0  0
   39.2510   33.2070   39.3190 H   0  0  0  0  0  0  0  0  0  0  0  0
   37.2750   32.7850   37.9890 H   0  0  0  0  0  0  0  0  0  0  0  0
   35.7660   31.0230   38.5540 H   0  0  0  0  0  0  0  0  0  0  0  0
   35.9790   29.2420   40.6330 C   0  0  0  0  0  0  0  0  0  0  0  0
   36.3110   28.4980   41.3470 H   0  0  0  0  0  0  0  0  0  0  0  0
   34.9160   29.5660   40.6670 H   0  0  0  0  0  0  0  0  0  0  0  0
   33.3810   29.3110   39.1070 Cl  0  0  0  0  0  0  0  0  0  0  0  0
   34.7350   28.2710   38.6480 C   0  0  0  0  0  0  0  0  0  0  0  0
   35.8800   28.3190   39.4250 C   0  0  0  0  0  0  0  0  0  0  0  0
   36.8700   27.4700   38.9790 C   0  0  0  0  0  0  0  0  0  0  0  0
   37.7910   27.4690   39.5530 H   0  0  0  0  0  0  0  0  0  0  0  0
   36.8000   26.6350   37.8900 C   0  0  0  0  0  3  0  0  0  0  0  0
   35.6080   26.6640   37.1830 C   0  0  0  0  0  0  0  0  0  0  0  0
   35.5030   25.6040   35.7880 Cl  0  0  0  0  0  0  0  0  0  0  0  0
   34.5740   27.4800   37.5570 C   0  0  0  0  0  0  0  0  0  0  0  0
   33.6670   27.4610   36.9680 H   0  0  0  0  0  0  0  0  0  0  0  0
   37.3030   28.6570   42.7040 S   0  0  0  0  0  0  0  0  0  0  0  0
   38.1740   24.8480   41.8550 C   0  0  0  0  0  0  0  0  0  0  0  0
   37.6050   26.1030   41.8710 C   0  0  0  0  0  0  0  0  0  0  0  0
   38.0760   27.0840   42.7030 C   0  0  0  0  0  0  0  0  0  0  0  0
   39.1340   26.8260   43.5430 C   0  0  0  0  0  0  0  0  0  0  0  0
   39.7310   25.6020   43.5660 C   0  0  0  0  0  0  0  0  0  0  0  0
   39.2340   24.6320   42.7150 C   0  0  0  0  0  0  0  0  0  0  0  0
   36.7750   26.2800   41.1990 H   0  0  0  0  0  0  0  0  0  0  0  0
   39.4750   27.6280   44.1840 H   0  0  0  0  0  0  0  0  0  0  0  0
   40.5680   25.3550   44.2130 H   0  0  0  0  0  0  0  0  0  0  0  0
   39.6450   23.6140   42.6580 H   0  0  0  0  0  0  0  0  0  0  0  0
   35.8340   23.1600   39.6010 C   0  0  0  0  0  0  0  0  0  0  0  0
   36.5340   21.9700   39.2420 C   0  0  0  0  0  0  0  0  0  0  0  0
   37.8010   21.7590   39.7780 C   0  0  0  0  0  0  0  0  0  0  0  0
   38.3520   22.6830   40.6290 N   0  0  0  0  0  0  0  0  0  0  0  0
   37.6430   23.8150   40.9480 C   0  0  0  0  0  0  0  0  0  0  0  0
   36.3990   24.0540   40.4420 N   0  0  0  0  0  0  0  0  0  0  0  0
   34.8570   23.2920   39.1700 H   0  0  0  0  0  0  0  0  0  0  0  0
   36.0680   21.2630   38.5690 H   0  0  0  0  0  0  0  0  0  0  0  0
   38.3550   20.8710   39.5270 H   0  0  0  0  0  0  0  0  0  0  0  0
  1 28  1  0  0  0  0
  1  2  1  0  0  0  0
  3  2  2  0  0  0  0
  3 11  1  0  0  0  0
  4  3  1  0  0  0  0
  5 10  1  0  0  0  0
  5  4  2  0  0  0  0
  6  5  1  0  0  0  0
  7  8  1  0  0  0  0
  7  6  2  0  0  0  0
  8  9  2  0  0  0  0
  9 15  1  0  0  0  0
  9 10  1  0  0  0  0
 10  1  2  0  0  0  0
 12  6  1  0  0  0  0
 13  7  1  0  0  0  0
 14  8  1  0  0  0  0
 15 17  1  0  0  0  0
 15 16  1  0  0  0  0
 19 18  1  0  0  0  0
 19 20  1  0  0  0  0
 20 15  1  0  0  0  0
 21 20  2  0  0  0  0
 21 22  1  0  0  0  0
 23 21  1  0  0  0  0
 24 26  1  0  0  0  0
 24 23  2  0  0  0  0
 25 24  1  0  0  0  0
 26 19  2  0  0  0  0
 27 26  1  0  0  0  0
 29 30  2  0  0  0  0
 29 34  1  0  0  0  0
 30 31  1  0  0  0  0
 31 28  1  0  0  0  0
 31 32  2  0  0  0  0
 32 33  1  0  0  0  0
 32 36  1  0  0  0  0
 33 37  1  0  0  0  0
 34 33  2  0  0  0  0
 35 30  1  0  0  0  0
 38 34  1  0  0  0  0
 39 44  1  0  0  0  0
 40 39  2  0  0  0  0
 40 41  1  0  0  0  0
 41 42  2  0  0  0  0
 42 43  1  0  0  0  0
 43 29  1  0  0  0  0
 44 43  2  0  0  0  0
 45 39  1  0  0  0  0
 46 40  1  0  0  0  0
 47 41  1  0  0  0  0
M  END
>  <minimizedAffinity>
-6.72520781

$$$$

 OpenBabel03242516303D

 47 51  0  0  0  0  0  0  0  0999 V2000
   39.0380   31.9520   40.9520 C   0  0  0  0  0  0  0  0  0  0  0  0
   39.6630   33.0830   40.4770 N   0  0  0  0  0  0  0  0  0  0  0  0
   40.9470   33.3540   40.6800 C   0  0  0  0  0  0  0  0  0  0  0  0
   41.6550   32.4690   41.3850 N   0  0  0  0  0  0  0  0  0  0  0  0
   41.1270   31.3480   41.8820 C   0  0  0  0  0  0  0  0  0  0  0  0
   41.8740   30.4260   42.6020 C   0  0  0  0  0  0  0  0  0  0  0  0
   41.3090   29.2830   43.0870 C   0  0  0  0  0  0  0  0  0  0  0  0
   39.9910   29.0250   42.8720 C   0  0  0  0  0  0  0  0  0  0  0  0
   39.1960   29.9210   42.1530 C   0  0  0  0  0  0  0  0  0  0  0  0
   39.7740   31.0610   41.6710 C   0  0  0  0  0  0  0  0  0  0  0  0
   41.3230   34.2750   40.2550 H   0  0  0  0  0  0  0  0  0  0  0  0
   42.9070   30.6970   42.7340 H   0  0  0  0  0  0  0  0  0  0  0  0
   41.9900   28.6460   43.6300 H   0  0  0  0  0  0  0  0  0  0  0  0
   39.6900   28.0890   43.3190 H   0  0  0  0  0  0  0  0  0  0  0  0
   37.7720   29.5670   42.0230 C   0  0  0  0  0  0  0  0  0  0  0  0
   37.1740   29.6020   42.9260 H   0  0  0  0  0  0  0  0  0  0  0  0
   37.3190   29.9370   41.0780 H   0  0  0  0  0  0  0  0  0  0  0  0
   36.6820   27.9000   44.2850 Cl  0  0  0  0  0  0  0  0  0  0  0  0
   37.1380   27.2130   42.7200 C   0  0  0  0  0  0  0  0  0  0  0  0
   37.6310   28.0740   41.7550 C   0  0  0  0  0  0  0  0  0  0  0  0
   37.9540   27.4350   40.5770 C   0  0  0  0  0  0  0  0  0  0  0  0
   38.3460   28.0660   39.7860 H   0  0  0  0  0  0  0  0  0  0  0  0
   37.8280   26.0920   40.3160 C   0  0  0  0  0  3  0  0  0  0  0  0
   37.3250   25.3210   41.3520 C   0  0  0  0  0  0  0  0  0  0  0  0
   37.1580   23.6020   41.0340 Cl  0  0  0  0  0  0  0  0  0  0  0  0
   36.9780   25.8750   42.5550 C   0  0  0  0  0  0  0  0  0  0  0  0
   36.5910   25.2250   43.3270 H   0  0  0  0  0  0  0  0  0  0  0  0
   37.3760   31.6270   40.6140 S   0  0  0  0  0  0  0  0  0  0  0  0
   36.1100   29.5100   37.4660 C   0  0  0  0  0  0  0  0  0  0  0  0
   36.3270   29.9810   38.7430 C   0  0  0  0  0  0  0  0  0  0  0  0
   37.1110   31.0810   38.9700 C   0  0  0  0  0  0  0  0  0  0  0  0
   37.6980   31.7380   37.9130 C   0  0  0  0  0  0  0  0  0  0  0  0
   37.5160   31.3130   36.6320 C   0  0  0  0  0  0  0  0  0  0  0  0
   36.7200   30.2000   36.4350 C   0  0  0  0  0  0  0  0  0  0  0  0
   35.8520   29.4460   39.5560 H   0  0  0  0  0  0  0  0  0  0  0  0
   38.3100   32.6020   38.1350 H   0  0  0  0  0  0  0  0  0  0  0  0
   37.9610   31.8010   35.7690 H   0  0  0  0  0  0  0  0  0  0  0  0
   36.5110   29.7770   35.4420 H   0  0  0  0  0  0  0  0  0  0  0  0
   33.1620   27.5400   36.5550 C   0  0  0  0  0  0  0  0  0  0  0  0
   33.5740   26.2020   36.8210 C   0  0  0  0  0  0  0  0  0  0  0  0
   34.8590   25.9890   37.3110 C   0  0  0  0  0  0  0  0  0  0  0  0
   35.6990   27.0510   37.5280 N   0  0  0  0  0  0  0  0  0  0  0  0
   35.2610   28.3240   37.2570 C   0  0  0  0  0  0  0  0  0  0  0  0
   34.0090   28.5700   36.7770 N   0  0  0  0  0  0  0  0  0  0  0  0
   32.1630   27.6700   36.1770 H   0  0  0  0  0  0  0  0  0  0  0  0
   32.8850   25.3880   36.6390 H   0  0  0  0  0  0  0  0  0  0  0  0
   35.2000   24.9900   37.5220 H   0  0  0  0  0  0  0  0  0  0  0  0
  1 10  1  0  0  0  0
  2  3  1  0  0  0  0
  2  1  2  0  0  0  0
  3  4  2  0  0  0  0
  4  5  1  0  0  0  0
  5  6  1  0  0  0  0
  6 12  1  0  0  0  0
  6  7  2  0  0  0  0
  7 13  1  0  0  0  0
  8  7  1  0  0  0  0
  8 14  1  0  0  0  0
  9  8  2  0  0  0  0
 10  5  2  0  0  0  0
 10  9  1  0  0  0  0
 11  3  1  0  0  0  0
 15  9  1  0  0  0  0
 15 16  1  0  0  0  0
 17 15  1  0  0  0  0
 19 18  1  0  0  0  0
 20 15  1  0  0  0  0
 20 19  2  0  0  0  0
 21 20  1  0  0  0  0
 22 21  1  0  0  0  0
 23 21  2  0  0  0  0
 23 24  1  0  0  0  0
 24 26  2  0  0  0  0
 25 24  1  0  0  0  0
 26 19  1  0  0  0  0
 26 27  1  0  0  0  0
 28  1  1  0  0  0  0
 29 30  1  0  0  0  0
 30 31  2  0  0  0  0
 30 35  1  0  0  0  0
 31 28  1  0  0  0  0
 32 36  1  0  0  0  0
 32 31  1  0  0  0  0
 33 32  2  0  0  0  0
 34 33  1  0  0  0  0
 34 29  2  0  0  0  0
 37 33  1  0  0  0  0
 38 34  1  0  0  0  0
 39 44  2  0  0  0  0
 39 40  1  0  0  0  0
 40 41  2  0  0  0  0
 41 47  1  0  0  0  0
 41 42  1  0  0  0  0
 43 29  1  0  0  0  0
 43 42  2  0  0  0  0
 44 43  1  0  0  0  0
 45 39  1  0  0  0  0
 46 40  1  0  0  0  0
M  END
>  <minimizedAffinity>
-6.67790222

$$$$

 OpenBabel03242516303D

 47 51  0  0  0  0  0  0  0  0999 V2000
   36.6760   29.8250   38.4440 C   0  0  0  0  0  0  0  0  0  0  0  0
   36.6290   30.2750   37.1430 N   0  0  0  0  0  0  0  0  0  0  0  0
   36.5420   29.4720   36.0900 C   0  0  0  0  0  0  0  0  0  0  0  0
   36.4980   28.1580   36.3240 N   0  0  0  0  0  0  0  0  0  0  0  0
   36.5380   27.6390   37.5530 C   0  0  0  0  0  0  0  0  0  0  0  0
   36.4770   26.2720   37.7880 C   0  0  0  0  0  0  0  0  0  0  0  0
   36.5090   25.7720   39.0570 C   0  0  0  0  0  0  0  0  0  0  0  0
   36.6030   26.6100   40.1230 C   0  0  0  0  0  0  0  0  0  0  0  0
   36.6670   27.9940   39.9400 C   0  0  0  0  0  0  0  0  0  0  0  0
   36.6320   28.4830   38.6640 C   0  0  0  0  0  0  0  0  0  0  0  0
   36.5120   29.9450   35.1180 H   0  0  0  0  0  0  0  0  0  0  0  0
   36.4060   25.6700   36.8990 H   0  0  0  0  0  0  0  0  0  0  0  0
   36.4540   24.6950   39.1110 H   0  0  0  0  0  0  0  0  0  0  0  0
   36.6210   26.0680   41.0570 H   0  0  0  0  0  0  0  0  0  0  0  0
   36.8170   28.8050   41.1600 C   0  0  0  0  0  0  0  0  0  0  0  0
   37.1170   29.8380   41.0280 H   0  0  0  0  0  0  0  0  0  0  0  0
   36.0480   28.5750   41.9290 H   0  0  0  0  0  0  0  0  0  0  0  0
   36.2860   27.3070   43.7210 Cl  0  0  0  0  0  0  0  0  0  0  0  0
   37.9170   27.6470   43.1290 C   0  0  0  0  0  0  0  0  0  0  0  0
   38.0420   28.3460   41.9410 C   0  0  0  0  0  0  0  0  0  0  0  0
   39.3540   28.5550   41.5730 C   0  0  0  0  0  0  0  0  0  0  0  0
   39.5080   29.1000   40.6480 H   0  0  0  0  0  0  0  0  0  0  0  0
   40.4700   28.1450   42.2620 C   0  0  0  0  0  3  0  0  0  0  0  0
   40.2310   27.4540   43.4400 C   0  0  0  0  0  0  0  0  0  0  0  0
   41.6470   26.9210   44.3310 Cl  0  0  0  0  0  0  0  0  0  0  0  0
   38.9590   27.2010   43.8770 C   0  0  0  0  0  0  0  0  0  0  0  0
   38.8330   26.6570   44.8030 H   0  0  0  0  0  0  0  0  0  0  0  0
   36.7390   30.9190   39.7780 S   0  0  0  0  0  0  0  0  0  0  0  0
   40.2880   32.5410   38.9030 C   0  0  0  0  0  0  0  0  0  0  0  0
   39.2090   31.6880   38.9930 C   0  0  0  0  0  0  0  0  0  0  0  0
   38.0750   32.0480   39.6700 C   0  0  0  0  0  0  0  0  0  0  0  0
   37.9960   33.2810   40.2760 C   0  0  0  0  0  0  0  0  0  0  0  0
   39.0340   34.1610   40.2160 C   0  0  0  0  0  0  0  0  0  0  0  0
   40.1660   33.7690   39.5260 C   0  0  0  0  0  0  0  0  0  0  0  0
   39.2960   30.7240   38.5060 H   0  0  0  0  0  0  0  0  0  0  0  0
   37.0830   33.5270   40.8010 H   0  0  0  0  0  0  0  0  0  0  0  0
   39.0150   35.1430   40.6810 H   0  0  0  0  0  0  0  0  0  0  0  0
   41.0570   34.4030   39.4200 H   0  0  0  0  0  0  0  0  0  0  0  0
   43.7960   32.4670   37.8580 C   0  0  0  0  0  0  0  0  0  0  0  0
   43.8160   31.4400   36.8700 C   0  0  0  0  0  0  0  0  0  0  0  0
   42.6260   30.7830   36.5720 C   0  0  0  0  0  0  0  0  0  0  0  0
   41.4680   31.1260   37.2210 N   0  0  0  0  0  0  0  0  0  0  0  0
   41.4930   32.1210   38.1670 C   0  0  0  0  0  0  0  0  0  0  0  0
   42.6410   32.7870   38.4840 N   0  0  0  0  0  0  0  0  0  0  0  0
   44.7320   32.9550   38.0650 H   0  0  0  0  0  0  0  0  0  0  0  0
   44.7480   31.1960   36.3770 H   0  0  0  0  0  0  0  0  0  0  0  0
   42.6080   30.0030   35.8300 H   0  0  0  0  0  0  0  0  0  0  0  0
  1 10  1  0  0  0  0
  1 28  1  0  0  0  0
  2  1  2  0  0  0  0
  3  4  2  0  0  0  0
  3  2  1  0  0  0  0
  4  5  1  0  0  0  0
  5  6  2  0  0  0  0
  5 10  1  0  0  0  0
  6  7  1  0  0  0  0
  7 13  1  0  0  0  0
  7  8  2  0  0  0  0
  8 14  1  0  0  0  0
  9  8  1  0  0  0  0
  9 15  1  0  0  0  0
 10  9  2  0  0  0  0
 11  3  1  0  0  0  0
 12  6  1  0  0  0  0
 15 17  1  0  0  0  0
 15 20  1  0  0  0  0
 16 15  1  0  0  0  0
 19 18  1  0  0  0  0
 19 26  1  0  0  0  0
 20 19  2  0  0  0  0
 21 20  1  0  0  0  0
 21 23  2  0  0  0  0
 22 21  1  0  0  0  0
 23 24  1  0  0  0  0
 24 26  2  0  0  0  0
 24 25  1  0  0  0  0
 26 27  1  0  0  0  0
 29 30  2  0  0  0  0
 29 34  1  0  0  0  0
 30 31  1  0  0  0  0
 31 28  1  0  0  0  0
 31 32  2  0  0  0  0
 32 36  1  0  0  0  0
 33 32  1  0  0  0  0
 33 37  1  0  0  0  0
 34 33  2  0  0  0  0
 35 30  1  0  0  0  0
 38 34  1  0  0  0  0
 39 45  1  0  0  0  0
 39 44  1  0  0  0  0
 40 39  2  0  0  0  0
 41 40  1  0  0  0  0
 41 42  2  0  0  0  0
 42 43  1  0  0  0  0
 43 44  2  0  0  0  0
 43 29  1  0  0  0  0
 46 40  1  0  0  0  0
 47 41  1  0  0  0  0
M  END
>  <minimizedAffinity>
-6.67421627

$$$$

 OpenBabel03242516303D

 47 51  0  0  0  0  0  0  0  0999 V2000
   38.7580   26.8930   42.8980 C   0  0  0  0  0  0  0  0  0  0  0  0
   39.6520   26.2620   43.7350 N   0  0  0  0  0  0  0  0  0  0  0  0
   39.9130   24.9620   43.6840 C   0  0  0  0  0  0  0  0  0  0  0  0
   39.2650   24.2420   42.7650 N   0  0  0  0  0  0  0  0  0  0  0  0
   38.3830   24.7750   41.9170 C   0  0  0  0  0  0  0  0  0  0  0  0
   37.7240   24.0220   40.9540 C   0  0  0  0  0  0  0  0  0  0  0  0
   36.8360   24.5980   40.0930 C   0  0  0  0  0  0  0  0  0  0  0  0
   36.5790   25.9310   40.1630 C   0  0  0  0  0  0  0  0  0  0  0  0
   37.2160   26.7330   41.1130 C   0  0  0  0  0  0  0  0  0  0  0  0
   38.1050   26.1450   41.9690 C   0  0  0  0  0  0  0  0  0  0  0  0
   40.6360   24.5820   44.3940 H   0  0  0  0  0  0  0  0  0  0  0  0
   37.9750   22.9760   40.9590 H   0  0  0  0  0  0  0  0  0  0  0  0
   36.3890   23.9110   39.3910 H   0  0  0  0  0  0  0  0  0  0  0  0
   35.8550   26.2370   39.4220 H   0  0  0  0  0  0  0  0  0  0  0  0
   36.8260   28.1530   41.1330 C   0  0  0  0  0  0  0  0  0  0  0  0
   35.7850   28.3730   41.3410 H   0  0  0  0  0  0  0  0  0  0  0  0
   37.6020   28.8090   41.5850 H   0  0  0  0  0  0  0  0  0  0  0  0
   34.1900   29.0530   39.9810 Cl  0  0  0  0  0  0  0  0  0  0  0  0
   35.7150   29.1690   39.0930 C   0  0  0  0  0  0  0  0  0  0  0  0
   36.8650   28.7220   39.7200 C   0  0  0  0  0  0  0  0  0  0  0  0
   37.9930   28.8580   38.9400 C   0  0  0  0  0  0  0  0  0  0  0  0
   38.9240   28.5220   39.3850 H   0  0  0  0  0  0  0  0  0  0  0  0
   38.0480   29.3740   37.6670 C   0  0  0  0  0  3  0  0  0  0  0  0
   36.8390   29.7910   37.1330 C   0  0  0  0  0  0  0  0  0  0  0  0
   36.8920   30.4530   35.5080 Cl  0  0  0  0  0  0  0  0  0  0  0  0
   35.6710   29.6920   37.8410 C   0  0  0  0  0  0  0  0  0  0  0  0
   34.7580   30.0340   37.3740 H   0  0  0  0  0  0  0  0  0  0  0  0
   38.4960   28.5980   42.9760 S   0  0  0  0  0  0  0  0  0  0  0  0
   40.5470   31.5540   41.2300 C   0  0  0  0  0  0  0  0  0  0  0  0
   39.5570   30.8030   41.8280 C   0  0  0  0  0  0  0  0  0  0  0  0
   39.7940   29.5210   42.2430 C   0  0  0  0  0  0  0  0  0  0  0  0
   41.0370   28.9570   42.0690 C   0  0  0  0  0  0  0  0  0  0  0  0
   42.0490   29.6560   41.4830 C   0  0  0  0  0  0  0  0  0  0  0  0
   41.7800   30.9490   41.0730 C   0  0  0  0  0  0  0  0  0  0  0  0
   38.5890   31.2710   41.9540 H   0  0  0  0  0  0  0  0  0  0  0  0
   41.1830   27.9420   42.4110 H   0  0  0  0  0  0  0  0  0  0  0  0
   43.0450   29.2510   41.3240 H   0  0  0  0  0  0  0  0  0  0  0  0
   42.5270   31.5960   40.5910 H   0  0  0  0  0  0  0  0  0  0  0  0
   38.5850   34.5310   40.3970 C   0  0  0  0  0  0  0  0  0  0  0  0
   39.5800   35.4720   40.0010 C   0  0  0  0  0  0  0  0  0  0  0  0
   40.9140   35.0760   40.0240 C   0  0  0  0  0  0  0  0  0  0  0  0
   41.2490   33.8060   40.4200 N   0  0  0  0  0  0  0  0  0  0  0  0
   40.2590   32.9320   40.7930 C   0  0  0  0  0  0  0  0  0  0  0  0
   38.9420   33.2850   40.7830 N   0  0  0  0  0  0  0  0  0  0  0  0
   37.5640   34.8680   40.3680 H   0  0  0  0  0  0  0  0  0  0  0  0
   39.2790   36.4650   39.6940 H   0  0  0  0  0  0  0  0  0  0  0  0
   41.6890   35.7630   39.7310 H   0  0  0  0  0  0  0  0  0  0  0  0
  1 28  1  0  0  0  0
  1  2  1  0  0  0  0
  3  2  2  0  0  0  0
  3 11  1  0  0  0  0
  4  3  1  0  0  0  0
  5 10  1  0  0  0  0
  5  4  2  0  0  0  0
  6 12  1  0  0  0  0
  6  5  1  0  0  0  0
  7  8  1  0  0  0  0
  7  6  2  0  0  0  0
  8  9  2  0  0  0  0
  9 15  1  0  0  0  0
  9 10  1  0  0  0  0
 10  1  2  0  0  0  0
 13  7  1  0  0  0  0
 14  8  1  0  0  0  0
 15 16  1  0  0  0  0
 15 17  1  0  0  0  0
 19 20  1  0  0  0  0
 19 18  1  0  0  0  0
 20 15  1  0  0  0  0
 21 22  1  0  0  0  0
 21 20  2  0  0  0  0
 23 21  1  0  0  0  0
 24 23  2  0  0  0  0
 24 26  1  0  0  0  0
 25 24  1  0  0  0  0
 26 19  2  0  0  0  0
 27 26  1  0  0  0  0
 29 30  1  0  0  0  0
 30 35  1  0  0  0  0
 30 31  2  0  0  0  0
 31 28  1  0  0  0  0
 32 31  1  0  0  0  0
 32 36  1  0  0  0  0
 33 32  2  0  0  0  0
 34 29  2  0  0  0  0
 34 33  1  0  0  0  0
 37 33  1  0  0  0  0
 38 34  1  0  0  0  0
 39 44  1  0  0  0  0
 40 41  1  0  0  0  0
 40 39  2  0  0  0  0
 41 42  2  0  0  0  0
 42 43  1  0  0  0  0
 43 29  1  0  0  0  0
 44 43  2  0  0  0  0
 45 39  1  0  0  0  0
 46 40  1  0  0  0  0
 47 41  1  0  0  0  0
M  END
>  <minimizedAffinity>
-6.65830851

$$$$
