
 OpenBabel03252502593D

 23 24  0  0  0  0  0  0  0  0999 V2000
   43.8570   34.4450   40.4550 C   0  0  0  0  0  0  0  0  0  0  0  0
   44.6800   34.5690   39.7220 H   0  0  0  0  0  0  0  0  0  0  0  0
   43.9400   33.4680   40.9680 H   0  0  0  0  0  0  0  0  0  0  0  0
   41.9330   32.4240   41.4130 Cl  0  0  0  0  0  0  0  0  0  0  0  0
   41.6210   33.5300   40.0710 C   0  0  0  0  0  0  0  0  0  0  0  0
   42.5860   34.4520   39.6870 C   0  0  0  0  0  0  0  0  0  0  0  0
   42.2450   35.2820   38.6170 C   0  0  0  0  0  0  0  0  0  0  0  0
   43.0210   35.9860   38.3460 H   0  0  0  0  0  0  0  0  0  0  0  0
   41.0180   35.1530   38.0170 C   0  0  0  0  0  0  0  0  0  0  0  0
   40.0830   34.2260   38.4250 C   0  0  0  0  0  0  0  0  0  0  0  0
   38.5380   34.0930   37.6400 Cl  0  0  0  0  0  0  0  0  0  0  0  0
   40.3810   33.3890   39.4780 C   0  0  0  0  0  0  0  0  0  0  0  0
   39.6640   32.6690   39.7990 H   0  0  0  0  0  0  0  0  0  0  0  0
   43.8550   35.7210   41.7310 S   0  0  0  0  0  0  0  0  0  0  0  0
   44.3360   35.7320   44.4700 C   0  0  0  0  0  0  0  0  0  0  0  0
   44.4790   35.0070   43.2720 C   0  0  0  0  0  0  0  0  0  0  0  0
   45.0940   33.7490   43.2530 C   0  0  0  0  0  0  0  0  0  0  0  0
   45.5360   33.2890   44.4570 N   0  0  0  0  0  0  0  0  0  0  0  0
   45.3820   34.0040   45.5700 C   0  0  0  0  0  0  0  0  0  0  0  0
   44.8040   35.1960   45.6210 N   0  0  0  0  0  0  0  0  0  0  0  0
   43.8470   36.6980   44.4000 H   0  0  0  0  0  0  0  0  0  0  0  0
   45.1730   33.2450   42.3000 H   0  0  0  0  0  0  0  0  0  0  0  0
   45.7550   33.5850   46.5170 H   0  0  0  0  0  0  0  0  0  0  0  0
  1  3  1  0  0  0  0
  1 14  1  0  0  0  0
  2  1  1  0  0  0  0
  5  4  1  0  0  0  0
  6  5  1  0  0  0  0
  6  1  1  0  0  0  0
  7  6  2  0  0  0  0
  8  7  1  0  0  0  0
  9 10  2  0  0  0  0
  9  7  1  0  0  0  0
 10 12  1  0  0  0  0
 11 10  1  0  0  0  0
 12 13  1  0  0  0  0
 12  5  2  0  0  0  0
 14 16  1  0  0  0  0
 15 20  1  0  0  0  0
 16 15  2  0  0  0  0
 17 16  1  0  0  0  0
 17 18  2  0  0  0  0
 18 19  1  0  0  0  0
 19 20  2  0  0  0  0
 19 23  1  0  0  0  0
 21 15  1  0  0  0  0
 22 17  1  0  0  0  0
M  END
>  <minimizedAffinity>
-4.69634199

>  <minimizedRMSD>
2.1557281

$$$$
