
 OpenBabel03252505403D

 29 31  0  0  1  0  0  0  0  0999 V2000
   46.2890   29.1190   47.5360 C   0  0  1  0  0  0  0  0  0  0  0  0
   45.4310   30.0990   48.3780 C   0  0  0  0  0  0  0  0  0  0  0  0
   45.4990   30.1750   46.9160 C   0  0  1  0  0  0  0  0  0  0  0  0
   45.9600   28.0660   47.5700 H   0  0  0  0  0  0  0  0  0  0  0  0
   44.5640   29.5670   48.8750 H   0  0  0  0  0  0  0  0  0  0  0  0
   46.0030   30.6550   49.1110 H   0  0  0  0  0  0  0  0  0  0  0  0
   44.5180   29.7540   46.4500 H   0  0  0  0  0  0  0  0  0  0  0  0
   45.0240   33.1980   47.7120 Cl  0  0  0  0  0  0  0  0  0  0  0  0
   45.8540   32.6440   46.2800 C   0  0  0  0  0  0  0  0  0  0  0  0
   45.9670   31.2860   46.1150 C   0  0  0  0  0  0  0  0  0  0  0  0
   46.6510   30.9780   44.9250 C   0  0  0  0  0  0  0  0  0  0  0  0
   46.8190   29.9320   44.6530 H   0  0  0  0  0  0  0  0  0  0  0  0
   47.1440   31.9130   44.0420 C   0  0  0  0  0  3  0  0  0  0  0  0
   46.9840   33.2590   44.2910 C   0  0  0  0  0  0  0  0  0  0  0  0
   47.6190   34.3970   43.1550 Cl  0  0  0  0  0  0  0  0  0  0  0  0
   46.3200   33.6220   45.4440 C   0  0  0  0  0  0  0  0  0  0  0  0
   46.1890   34.6650   45.6520 H   0  0  0  0  0  0  0  0  0  0  0  0
   47.7570   29.2380   47.7800 C   0  0  0  0  0  0  0  0  0  0  0  0
   48.6180   28.3310   47.1590 C   0  0  0  0  0  0  0  0  0  0  0  0
   49.9670   28.4860   47.3730 C   0  0  0  0  0  0  0  0  0  0  0  0
   50.3940   29.5000   48.1660 N   0  0  0  0  0  0  0  0  0  0  0  0
   49.5370   30.3530   48.7480 C   0  0  0  0  0  0  0  0  0  0  0  0
   48.2010   30.2260   48.5570 N   0  0  0  0  0  0  0  0  0  0  0  0
   48.3760   27.5150   46.5330 H   0  0  0  0  0  0  0  0  0  0  0  0
   50.7210   27.8330   46.9360 H   0  0  0  0  0  0  0  0  0  0  0  0
   50.2050   31.4070   49.5820 C   0  0  0  0  0  0  0  0  0  0  0  0
   51.5660   31.4600   49.3480 F   0  0  0  0  0  0  0  0  0  0  0  0
   50.0120   31.1380   50.9380 F   0  0  0  0  0  0  0  0  0  0  0  0
   49.5960   32.6320   49.3340 F   0  0  0  0  0  0  0  0  0  0  0  0
  1  4  1  6  0  0  0
  1 18  1  0  0  0  0
  1  2  1  0  0  0  0
  2  5  1  0  0  0  0
  2  6  1  0  0  0  0
  3  7  1  6  0  0  0
  3  1  1  0  0  0  0
  3  2  1  0  0  0  0
  9  8  1  0  0  0  0
 10  9  1  0  0  0  0
 10  3  1  0  0  0  0
 11 10  2  0  0  0  0
 12 11  1  0  0  0  0
 13 14  2  0  0  0  0
 13 11  1  0  0  0  0
 14 16  1  0  0  0  0
 15 14  1  0  0  0  0
 16 17  1  0  0  0  0
 16  9  2  0  0  0  0
 18 23  1  0  0  0  0
 19 20  1  0  0  0  0
 19 18  2  0  0  0  0
 20 21  2  0  0  0  0
 21 22  1  0  0  0  0
 22 26  1  0  0  0  0
 23 22  2  0  0  0  0
 24 19  1  0  0  0  0
 25 20  1  0  0  0  0
 26 28  1  0  0  0  0
 27 26  1  0  0  0  0
 29 26  1  0  0  0  0
M  END
>  <minimizedAffinity>
-4.70273495

>  <minimizedRMSD>
5.98372936

$$$$
