
 OpenBabel03242517193D

 40 42  0  0  0  0  0  0  0  0999 V2000
   44.1220   35.6070   42.3800 C   0  0  0  0  0  0  0  0  0  0  0  0
   43.8420   35.0220   41.1240 C   0  0  0  0  0  0  0  0  0  0  0  0
   44.7560   34.1190   40.6230 C   0  0  0  0  0  0  0  0  0  0  0  0
   45.8620   33.8540   41.3690 N   0  0  0  0  0  0  0  0  0  0  0  0
   46.1020   34.4280   42.5640 C   0  0  0  0  0  0  0  0  0  0  0  0
   45.2230   35.3000   43.0540 N   0  0  0  0  0  0  0  0  0  0  0  0
   43.4300   36.3200   42.8090 H   0  0  0  0  0  0  0  0  0  0  0  0
   44.5790   33.6510   39.6670 H   0  0  0  0  0  0  0  0  0  0  0  0
   47.3020   34.1310   43.3610 C   0  0  0  0  0  0  0  0  0  0  0  0
   47.7650   35.0900   43.6900 H   0  0  0  0  0  0  0  0  0  0  0  0
   48.0460   33.6310   42.7390 H   0  0  0  0  0  0  0  0  0  0  0  0
   46.9380   33.3950   44.6120 C   0  0  0  0  0  0  0  0  0  0  0  0
   45.8650   33.4980   44.8080 H   0  0  0  0  0  0  0  0  0  0  0  0
   47.4700   33.9360   45.4490 H   0  0  0  0  0  0  0  0  0  0  0  0
   46.3910   31.7810   47.1610 Cl  0  0  0  0  0  0  0  0  0  0  0  0
   47.2150   31.1550   45.7520 C   0  0  0  0  0  0  0  0  0  0  0  0
   47.3840   32.0040   44.6850 C   0  0  0  0  0  0  0  0  0  0  0  0
   48.0430   31.5040   43.5580 C   0  0  0  0  0  0  0  0  0  0  0  0
   48.2040   32.1450   42.6790 H   0  0  0  0  0  0  0  0  0  0  0  0
   48.4930   30.1970   43.5560 C   0  0  0  0  0  0  0  0  0  0  0  0
   48.3020   29.3780   44.6500 C   0  0  0  0  0  0  0  0  0  0  0  0
   48.9060   27.7440   44.5510 Cl  0  0  0  0  0  0  0  0  0  0  0  0
   47.6460   29.8440   45.7950 C   0  0  0  0  0  0  0  0  0  0  0  0
   47.5000   29.1990   46.6480 H   0  0  0  0  0  0  0  0  0  0  0  0
   42.6180   35.3750   40.3950 C   0  0  0  0  0  0  0  0  0  0  0  0
   41.4800   35.6970   40.9670 C   0  0  0  0  0  0  0  0  0  0  0  0
   40.2500   36.0530   40.2090 C   0  0  0  0  0  0  0  0  0  0  0  0
   39.5130   36.5840   40.8480 H   0  0  0  0  0  0  0  0  0  0  0  0
   40.5540   36.7600   39.4120 H   0  0  0  0  0  0  0  0  0  0  0  0
   40.3100   35.5010   37.4610 F   0  0  0  0  0  0  0  0  0  0  0  0
   39.6650   34.6420   38.2690 C   0  0  0  0  0  0  0  0  0  0  0  0
   39.6130   34.8790   39.6300 C   0  0  0  0  0  0  0  0  0  0  0  0
   38.9260   33.9280   40.3440 C   0  0  0  0  0  0  0  0  0  0  0  0
   38.3040   32.7970   39.8440 C   0  0  0  0  0  0  0  0  0  0  0  0
   38.4080   32.6410   38.4680 C   0  0  0  0  0  0  0  0  0  0  0  0
   39.0760   33.5350   37.6530 C   0  0  0  0  0  0  0  0  0  0  0  0
   38.8510   34.0610   41.4240 H   0  0  0  0  0  0  0  0  0  0  0  0
   37.7850   32.0940   40.4460 H   0  0  0  0  0  0  0  0  0  0  0  0
   37.9600   31.7870   37.9530 H   0  0  0  0  0  0  0  0  0  0  0  0
   39.1480   33.4000   36.5920 H   0  0  0  0  0  0  0  0  0  0  0  0
  1  7  1  0  0  0  0
  1  6  1  0  0  0  0
  2  1  2  0  0  0  0
  3  2  1  0  0  0  0
  3  4  2  0  0  0  0
  4  5  1  0  0  0  0
  5  6  2  0  0  0  0
  5  9  1  0  0  0  0
  8  3  1  0  0  0  0
  9 10  1  0  0  0  0
  9 12  1  0  0  0  0
 11  9  1  0  0  0  0
 12 17  1  0  0  0  0
 12 13  1  0  0  0  0
 12 14  1  0  0  0  0
 16 23  1  0  0  0  0
 16 15  1  0  0  0  0
 17 16  2  0  0  0  0
 18 17  1  0  0  0  0
 19 18  1  0  0  0  0
 20 18  2  0  0  0  0
 20 21  1  0  0  0  0
 21 23  2  0  0  0  0
 22 21  1  0  0  0  0
 23 24  1  0  0  0  0
 25 26  2  0  0  0  0
 25  2  1  0  0  0  0
 27 28  1  0  0  0  0
 27 26  1  0  0  0  0
 29 27  1  0  0  0  0
 30 31  1  0  0  0  0
 31 32  1  0  0  0  0
 32 27  1  0  0  0  0
 32 33  2  0  0  0  0
 33 37  1  0  0  0  0
 34 33  1  0  0  0  0
 34 38  1  0  0  0  0
 35 34  2  0  0  0  0
 36 31  2  0  0  0  0
 36 35  1  0  0  0  0
 39 35  1  0  0  0  0
 40 36  1  0  0  0  0
M  END
>  <minimizedAffinity>
-6.19292641

>  <minimizedRMSD>
2.81071329

$$$$
