
 OpenBabel03242517283D

 41 43  0  0  1  0  0  0  0  0999 V2000
   45.0040   34.6000   44.9490 C   0  0  0  0  0  0  0  0  0  0  0  0
   45.9140   34.5710   43.8680 C   0  0  0  0  0  0  0  0  0  0  0  0
   47.0230   33.7220   43.9810 C   0  0  0  0  0  0  0  0  0  0  0  0
   47.1680   32.9780   45.1060 N   0  0  0  0  0  0  0  0  0  0  0  0
   46.2840   33.0260   46.1190 C   0  0  0  0  0  0  0  0  0  0  0  0
   45.2150   33.8420   46.0160 N   0  0  0  0  0  0  0  0  0  0  0  0
   46.5030   32.2250   47.2540 N   0  0  0  0  0  0  0  0  0  0  0  0
   47.7130   32.3640   48.0010 C   0  0  0  0  0  0  0  0  0  0  0  0
   47.9620   31.2250   48.9420 C   0  0  0  0  0  0  0  0  0  0  0  0
   46.8180   30.5700   49.4810 N   0  0  0  0  0  0  0  0  0  0  0  0
   45.5820   31.1920   49.1330 C   0  0  0  0  0  0  0  0  0  0  0  0
   45.4710   31.2610   47.6440 C   0  0  2  0  0  0  0  0  0  0  0  0
   44.1110   35.2070   44.9950 H   0  0  0  0  0  0  0  0  0  0  0  0
   45.6910   35.2050   43.0310 H   0  0  0  0  0  0  0  0  0  0  0  0
   47.7070   33.7020   43.1620 H   0  0  0  0  0  0  0  0  0  0  0  0
   47.7290   33.3160   48.5840 H   0  0  0  0  0  0  0  0  0  0  0  0
   48.5920   32.4170   47.3040 H   0  0  0  0  0  0  0  0  0  0  0  0
   48.5480   30.4360   48.3900 H   0  0  0  0  0  0  0  0  0  0  0  0
   48.6300   31.5570   49.7660 H   0  0  0  0  0  0  0  0  0  0  0  0
   46.7550   29.5560   49.2570 H   0  0  0  0  0  0  0  0  0  0  0  0
   45.4300   32.1870   49.5510 H   0  0  0  0  0  0  0  0  0  0  0  0
   44.7640   30.5200   49.4960 H   0  0  0  0  0  0  0  0  0  0  0  0
   44.4980   31.6850   47.3210 H   0  0  0  0  0  0  0  0  0  0  0  0
   45.6660   29.9380   46.9870 C   0  0  0  0  0  0  0  0  0  0  0  0
   46.6970   29.5970   47.0830 H   0  0  0  0  0  0  0  0  0  0  0  0
   45.3810   29.9930   45.9170 H   0  0  0  0  0  0  0  0  0  0  0  0
   44.8160   28.9340   47.7100 C   0  0  0  0  0  3  0  0  0  0  0  0
   45.0570   27.6270   47.6310 C   0  0  0  0  0  3  0  0  0  0  0  0
   44.2470   26.5830   48.3250 C   0  0  0  0  0  0  0  0  0  0  0  0
   43.5900   27.0220   49.1070 H   0  0  0  0  0  0  0  0  0  0  0  0
   44.9590   25.9240   48.8600 H   0  0  0  0  0  0  0  0  0  0  0  0
   45.5330   24.0460   47.3310 Cl  0  0  0  0  0  0  0  0  0  0  0  0
   43.9440   24.5630   46.8260 C   0  0  0  0  0  0  0  0  0  0  0  0
   43.4870   25.7490   47.3670 C   0  0  0  0  0  0  0  0  0  0  0  0
   42.2090   26.1510   46.9510 C   0  0  0  0  0  0  0  0  0  0  0  0
   41.8500   27.0960   47.3850 H   0  0  0  0  0  0  0  0  0  0  0  0
   41.3980   25.4820   46.0760 C   0  0  0  0  0  3  0  0  0  0  0  0
   41.9130   24.2980   45.5660 C   0  0  0  0  0  0  0  0  0  0  0  0
   40.9470   23.3900   44.4490 Cl  0  0  0  0  0  0  0  0  0  0  0  0
   43.1620   23.8500   45.9360 C   0  0  0  0  0  0  0  0  0  0  0  0
   43.5800   22.9310   45.5500 H   0  0  0  0  0  0  0  0  0  0  0  0
  1 13  1  0  0  0  0
  1  6  1  0  0  0  0
  2  3  1  0  0  0  0
  2  1  2  0  0  0  0
  3  4  2  0  0  0  0
  4  5  1  0  0  0  0
  5  7  1  0  0  0  0
  6  5  2  0  0  0  0
  7 12  1  0  0  0  0
  7  8  1  0  0  0  0
  8 16  1  0  0  0  0
  8  9  1  0  0  0  0
  9 10  1  0  0  0  0
  9 19  1  0  0  0  0
 11 10  1  0  0  0  0
 11 22  1  0  0  0  0
 11 21  1  0  0  0  0
 12 23  1  6  0  0  0
 12 11  1  0  0  0  0
 14  2  1  0  0  0  0
 15  3  1  0  0  0  0
 17  8  1  0  0  0  0
 18  9  1  0  0  0  0
 20 10  1  0  0  0  0
 24 25  1  0  0  0  0
 24 12  1  0  0  0  0
 24 27  1  0  0  0  0
 26 24  1  0  0  0  0
 28 27  2  0  0  0  0
 28 29  1  0  0  0  0
 29 31  1  0  0  0  0
 29 30  1  0  0  0  0
 33 32  1  0  0  0  0
 33 34  1  0  0  0  0
 34 29  1  0  0  0  0
 35 34  2  0  0  0  0
 35 36  1  0  0  0  0
 37 35  1  0  0  0  0
 38 40  1  0  0  0  0
 38 37  2  0  0  0  0
 39 38  1  0  0  0  0
 40 33  2  0  0  0  0
 41 40  1  0  0  0  0
M  END
>  <minimizedAffinity>
-5.86806822

>  <minimizedRMSD>
1.14104867

$$$$
