
     RDKit          3D

 47 49  0  0  0  0  0  0  0  0999 V2000
   43.6515   34.9621   41.8796 C   0  0  0  0  0  0  0  0  0  0  0  0
   43.9101   33.6202   42.1847 C   0  0  0  0  0  0  0  0  0  0  0  0
   44.9782   33.3322   43.0075 C   0  0  0  0  0  0  0  0  0  0  0  0
   45.7599   34.3307   43.5091 C   0  0  0  0  0  0  0  0  0  0  0  0
   45.5242   35.6583   43.2220 C   0  0  0  0  0  0  0  0  0  0  0  0
   44.4424   35.9175   42.3919 C   0  0  0  0  0  0  0  0  0  0  0  0
   40.2343   35.8047   40.5173 C   0  0  0  0  0  0  0  0  0  0  0  0
   41.2570   35.5899   41.4631 C   0  0  0  0  0  0  0  0  0  0  0  0
   42.5172   35.2131   41.0096 C   0  0  0  0  0  0  0  0  0  0  0  0
   42.6763   35.0755   39.6601 N   0  0  0  0  0  0  0  0  0  0  0  0
   41.6771   35.2876   38.7694 C   0  0  0  0  0  0  0  0  0  0  0  0
   40.4672   35.6503   39.2120 N   0  0  0  0  0  0  0  0  0  0  0  0
   43.0430   32.5404   41.6265 C   0  0  0  0  0  0  0  0  0  0  0  0
   42.7081   31.5150   42.5654 N   0  0  0  0  0  0  0  0  0  0  0  0
   41.0291   31.1442   42.5671 S   0  0  0  0  0  0  0  0  0  0  0  0
   40.1997   32.4023   42.4487 O   0  0  0  0  0  0  0  0  0  0  0  0
   40.6449   30.3637   43.7664 O   0  0  0  0  0  0  0  0  0  0  0  0
   40.7527   30.1901   41.2084 O   0  0  0  0  0  0  0  0  0  0  0  0
   40.0798   29.0544   41.5808 C   0  0  0  0  0  0  0  0  0  0  0  0
   40.9421   27.8238   41.2414 C   0  0  0  0  0  0  0  0  0  0  0  0
   45.1327   32.2785   43.2105 H   0  0  0  0  0  0  0  0  0  0  0  0
   46.5788   34.0222   44.1454 H   0  0  0  0  0  0  0  0  0  0  0  0
   46.1637   36.4189   43.6377 H   0  0  0  0  0  0  0  0  0  0  0  0
   44.2228   36.9480   42.1430 H   0  0  0  0  0  0  0  0  0  0  0  0
   39.3225   36.0855   41.0012 H   0  0  0  0  0  0  0  0  0  0  0  0
   41.1668   35.6859   42.5175 H   0  0  0  0  0  0  0  0  0  0  0  0
   41.7896   35.1814   37.7116 H   0  0  0  0  0  0  0  0  0  0  0  0
   43.5845   32.0886   40.7728 H   0  0  0  0  0  0  0  0  0  0  0  0
   42.1314   33.0218   41.1925 H   0  0  0  0  0  0  0  0  0  0  0  0
   42.9435   31.8152   43.5490 H   0  0  0  0  0  0  0  0  0  0  0  0
   40.0922   32.9088   41.5930 H   0  0  0  0  0  0  0  0  0  0  0  0
   41.1486   30.1838   44.5937 H   0  0  0  0  0  0  0  0  0  0  0  0
   39.1555   29.0041   40.9677 H   0  0  0  0  0  0  0  0  0  0  0  0
   39.7676   28.9977   42.6317 H   0  0  0  0  0  0  0  0  0  0  0  0
   41.8792   27.9638   41.7811 H   0  0  0  0  0  0  0  0  0  0  0  0
   41.1456   27.8719   40.1755 H   0  0  0  0  0  0  0  0  0  0  0  0
   41.5545   25.2323   39.7179 Cl  0  0  0  0  0  0  0  0  0  0  0  0
   40.3991   25.3601   41.0274 C   0  0  0  0  0  0  0  0  0  0  0  0
   40.2260   26.5847   41.6321 C   0  0  0  0  0  0  0  0  0  0  0  0
   39.3085   26.7016   42.6824 C   0  0  0  0  0  0  0  0  0  0  0  0
   39.1597   27.6552   43.1733 H   0  0  0  0  0  0  0  0  0  0  0  0
   38.5740   25.6204   43.1244 C   0  0  0  0  0  0  0  0  0  0  0  0
   38.7762   24.4188   42.4945 C   0  0  0  0  0  0  0  0  0  0  0  0
   37.8224   23.0509   43.0768 Cl  0  0  0  0  0  0  0  0  0  0  0  0
   39.6741   24.2483   41.4480 C   0  0  0  0  0  0  0  0  0  0  0  0
   39.8066   23.2654   40.9725 H   0  0  0  0  0  0  0  0  0  0  0  0
   37.8798   25.7731   43.9353 H   0  0  0  0  0  0  0  0  0  0  0  0
  1  2  1  0
  1  6  2  0
  2  3  2  0
  3  4  1  0
  5  4  2  0
  6  5  1  0
  7  8  2  0
  9  8  1  0
  9  1  1  0
 10  9  2  0
 11 12  2  0
 11 10  1  0
 12  7  1  0
 13  2  1  0
 13 14  1  0
 15 14  1  0
 15 17  1  0
 16 15  1  0
 18 19  1  0
 18 15  1  0
 20 19  1  0
  3 21  1  0
  4 22  1  0
  5 23  1  0
  6 24  1  0
  7 25  1  0
  8 26  1  0
 11 27  1  0
 13 28  1  0
 13 29  1  0
 14 30  1  0
 16 31  1  0
 17 32  1  0
 19 33  1  0
 19 34  1  0
 20 35  1  0
 20 36  1  0
 37 38  1  0
 38 39  2  0
 39 40  1  0
 40 41  1  0
 40 42  2  0
 42 43  1  0
 43 44  1  0
 43 45  2  0
 45 46  1  0
 45 38  1  0
 42 47  1  0
 20 39  1  0
M  ISO  8  21  14  22  14  23  14  24  14  25  14  26  14  27  14  28   8
M  ISO  8  29   8  30   5  31   3  32   3  33   8  34   8  35   8  36   8
M  ISO  2  41  16  46  15
M  END
>  <DihAtoms>  (1) 
18,19,38,37

>  <DihDeg>  (1) 
77.18846079900996

$$$$
