
 OpenBabel03252509293D

 22 23  0  0  0  0  0  0  0  0999 V2000
   46.5130   33.3090   41.7640 C   0  0  0  0  0  0  0  0  0  0  0  0
   47.2400   34.0710   42.1550 H   0  0  0  0  0  0  0  0  0  0  0  0
   46.4040   32.5060   42.5220 H   0  0  0  0  0  0  0  0  0  0  0  0
   48.4100   35.1620   40.4520 Cl  0  0  0  0  0  0  0  0  0  0  0  0
   48.0380   33.5640   39.8110 C   0  0  0  0  0  0  0  0  0  0  0  0
   47.1240   32.7850   40.5250 C   0  0  0  0  0  0  0  0  0  0  0  0
   46.8330   31.5170   40.0130 C   0  0  0  0  0  0  0  0  0  0  0  0
   46.1160   30.8890   40.5610 H   0  0  0  0  0  0  0  0  0  0  0  0
   47.4030   31.0250   38.8550 C   0  0  0  0  0  3  0  0  0  0  0  0
   48.3160   31.8210   38.1540 C   0  0  0  0  0  0  0  0  0  0  0  0
   49.0610   31.2290   36.6790 Cl  0  0  0  0  0  0  0  0  0  0  0  0
   48.6210   33.0870   38.6460 C   0  0  0  0  0  0  0  0  0  0  0  0
   49.3340   33.7150   38.1010 H   0  0  0  0  0  0  0  0  0  0  0  0
   42.9710   33.8320   40.7840 C   0  0  0  0  0  0  0  0  0  0  0  0
   44.2150   33.2010   40.9610 C   0  0  0  0  0  0  0  0  0  0  0  0
   45.2240   33.9600   41.5780 C   0  0  0  0  0  0  0  0  0  0  0  0
   44.9340   35.2380   41.9580 N   0  0  0  0  0  0  0  0  0  0  0  0
   43.7150   35.7940   41.7610 C   0  0  0  0  0  0  0  0  0  0  0  0
   42.7350   35.0830   41.1720 N   0  0  0  0  0  0  0  0  0  0  0  0
   42.2010   33.2180   40.3000 H   0  0  0  0  0  0  0  0  0  0  0  0
   44.4100   32.1860   40.6480 H   0  0  0  0  0  0  0  0  0  0  0  0
   43.5940   36.8210   42.1030 H   0  0  0  0  0  0  0  0  0  0  0  0
  1  2  1  0  0  0  0
  1  3  1  0  0  0  0
  5  4  1  0  0  0  0
  5  6  1  0  0  0  0
  6  1  1  0  0  0  0
  7  6  2  0  0  0  0
  7  8  1  0  0  0  0
  9  7  1  0  0  0  0
 10 12  1  0  0  0  0
 10  9  2  0  0  0  0
 11 10  1  0  0  0  0
 12  5  2  0  0  0  0
 13 12  1  0  0  0  0
 14 15  2  0  0  0  0
 14 19  1  0  0  0  0
 15 16  1  0  0  0  0
 16  1  1  0  0  0  0
 16 17  2  0  0  0  0
 18 17  1  0  0  0  0
 18 22  1  0  0  0  0
 19 18  2  0  0  0  0
 20 14  1  0  0  0  0
 21 15  1  0  0  0  0
M  END
>  <minimizedAffinity>
-2.9605093

>  <minimizedRMSD>
4.84136295

$$$$
