
     RDKit          3D

 37 39  0  0  0  0  0  0  0  0999 V2000
   44.9118   35.0361   44.5014 C   0  0  0  0  0  0  0  0  0  0  0  0
   44.9967   34.3124   43.3371 C   0  0  0  0  0  0  0  0  0  0  0  0
   45.4391   32.9770   43.3490 C   0  0  0  0  0  0  0  0  0  0  0  0
   45.7812   32.4249   44.5593 N   0  0  0  0  0  0  0  0  0  0  0  0
   45.6890   33.1548   45.6850 C   0  0  0  0  0  0  0  0  0  0  0  0
   45.2613   34.4376   45.6513 N   0  0  0  0  0  0  0  0  0  0  0  0
   46.0521   32.5633   46.9617 C   0  0  0  0  0  0  0  0  0  0  0  0
   47.3269   32.2569   47.3000 C   0  0  0  0  0  0  0  0  0  0  0  0
   47.6890   31.7022   48.4908 C   0  0  0  0  0  0  0  0  0  0  0  0
   46.6827   31.4529   49.3733 N   0  0  0  0  0  0  0  0  0  0  0  0
   45.4313   31.7512   49.0469 C   0  0  0  0  0  0  0  0  0  0  0  0
   45.0614   32.2984   47.8760 N   0  0  0  0  0  0  0  0  0  0  0  0
   44.6226   34.9267   42.0676 C   0  0  0  0  0  0  0  0  0  0  0  0
   45.3156   34.6824   41.0608 O   0  0  0  0  0  0  0  0  0  0  0  0
   43.6080   35.7720   41.7085 O   0  0  0  0  0  0  0  0  0  0  0  0
   42.5350   35.3821   40.9382 C   0  0  0  0  0  0  0  0  0  0  0  0
   41.2113   35.4070   41.6910 C   0  0  0  0  0  0  0  0  0  0  0  0
   44.5787   36.0471   44.5059 H   0  0  0  0  0  0  0  0  0  0  0  0
   45.5070   32.4054   42.4353 H   0  0  0  0  0  0  0  0  0  0  0  0
   48.0680   32.4911   46.5325 H   0  0  0  0  0  0  0  0  0  0  0  0
   48.7365   31.4849   48.6878 H   0  0  0  0  0  0  0  0  0  0  0  0
   44.5840   31.5753   49.7106 H   0  0  0  0  0  0  0  0  0  0  0  0
   42.6192   34.4917   40.3198 H   0  0  0  0  0  0  0  0  0  0  0  0
   42.4065   36.2165   40.1799 H   0  0  0  0  0  0  0  0  0  0  0  0
   41.3359   34.7179   42.5538 H   0  0  0  0  0  0  0  0  0  0  0  0
   41.0461   36.4217   42.1297 H   0  0  0  0  0  0  0  0  0  0  0  0
   39.0608   34.1607   43.2731 Cl  0  0  0  0  0  0  0  0  0  0  0  0
   39.0268   34.3906   41.5429 C   0  0  0  0  0  0  0  0  0  0  0  0
   40.0758   34.9869   40.8527 C   0  0  0  0  0  0  0  0  0  0  0  0
   39.9826   35.1376   39.4824 C   0  0  0  0  0  0  0  0  0  0  0  0
   40.7998   35.5967   38.9852 H   0  0  0  0  0  0  0  0  0  0  0  0
   38.8490   34.6888   38.8517 C   0  0  0  0  0  0  0  0  0  0  0  0
   37.7640   34.0827   39.4903 C   0  0  0  0  0  0  0  0  0  0  0  0
   36.3513   33.5361   38.6177 Cl  0  0  0  0  0  0  0  0  0  0  0  0
   37.9026   33.9534   40.8629 C   0  0  0  0  0  0  0  0  0  0  0  0
   37.0803   33.4838   41.4201 H   0  0  0  0  0  0  0  0  0  0  0  0
   38.7539   34.7991   37.7601 H   0  0  0  0  0  0  0  0  0  0  0  0
  1  6  2  0
  2  3  2  0
  2  1  1  0
  3  4  1  0
  4  5  2  0
  5  7  1  0
  6  5  1  0
  7  8  2  0
  7 12  1  0
  8  9  1  0
  9 10  2  0
 11 10  1  0
 12 11  2  0
 13  2  1  0
 14 13  2  0
 15 13  1  0
 16 17  1  0
 16 15  1  0
  1 18  1  0
  3 19  1  0
  8 20  1  0
  9 21  1  0
 11 22  1  0
 16 23  1  0
 16 24  1  0
 17 25  1  0
 17 26  1  0
 27 28  1  0
 28 29  2  0
 29 30  1  0
 30 31  1  0
 30 32  2  0
 32 33  1  0
 33 34  1  0
 33 35  2  0
 35 36  1  0
 35 28  1  0
 32 37  1  0
 17 29  1  0
M  ISO  8  18  14  19  14  20  14  21  14  22  14  23   8  24   8  25   8
M  ISO  3  26   8  31  16  36  15
M  END
>  <DihAtoms>  (1) 
15,16,28,27

>  <DihDeg>  (1) 
76.01436221704178

$$$$
