REMARK  Name = 
REMARK  2 active torsions:
REMARK  status: ('A' for Active; 'I' for Inactive)
REMARK    1  A    between atoms: C_3  and  C_7
REMARK    2  A    between atoms: C_7  and  C_15
REMARK                            x       y       z     vdW  Elec       q    Type
REMARK                         _______ _______ _______ _____ _____    ______ ____
ROOT
ATOM      1  C   UNL     1      46.958  34.779  41.926  0.00  0.00    +0.000 C 
ATOM      2  H   UNL     1      47.216  33.702  41.736  0.00  0.00    +0.000 HD
ATOM      3  H   UNL     1      46.320  35.139  41.093  0.00  0.00    +0.000 HD
ENDROOT
BRANCH   1   6
ATOM      4 CL   UNL     1      48.246  34.908  44.587  0.00  0.00    +0.000 Cl
ATOM      5  C   UNL     1      48.959  35.623  43.143  0.00  0.00    +0.000 A 
ATOM      6  C   UNL     1      48.251  35.493  41.948  0.00  0.00    +0.000 A 
ATOM      7  C   UNL     1      48.821  36.062  40.804  0.00  0.00    +0.000 A 
ATOM      8  H   UNL     1      48.278  35.970  39.854  0.00  0.00    +0.000 HD
ATOM      9  C   UNL     1      50.030  36.731  40.822  0.00  0.00    +0.000 A 
ATOM     10  C   UNL     1      50.725  36.851  42.030  0.00  0.00    +0.000 A 
ATOM     11 CL   UNL     1      52.264  37.694  42.090  0.00  0.00    +0.000 Cl
ATOM     12  C   UNL     1      50.176  36.292  43.181  0.00  0.00    +0.000 A 
ATOM     13  H   UNL     1      50.715  36.382  44.130  0.00  0.00    +0.000 HD
ENDBRANCH   1   6
BRANCH   1  16
ATOM     14  C   UNL     1      44.571  35.998  44.494  0.00  0.00    +0.000 A 
ATOM     15  C   UNL     1      45.302  35.928  43.295  0.00  0.00    +0.000 A 
ATOM     16  C   UNL     1      46.200  34.854  43.167  0.00  0.00    +0.000 A 
ATOM     17  N   UNL     1      46.300  33.966  44.198  0.00  0.00    +0.000 NA
ATOM     18  C   UNL     1      45.569  34.084  45.331  0.00  0.00    +0.000 A 
ATOM     19  N   UNL     1      44.703  35.106  45.473  0.00  0.00    +0.000 NA
ATOM     20  H   UNL     1      43.877  36.845  44.569  0.00  0.00    +0.000 HD
ATOM     21  H   UNL     1      45.197  36.650  42.499  0.00  0.00    +0.000 HD
ATOM     22  H   UNL     1      45.729  33.319  46.089  0.00  0.00    +0.000 HD
ENDBRANCH   1  16
TORSDOF 2
