
 OpenBabel03252505403D

 29 31  0  0  1  0  0  0  0  0999 V2000
   44.6380   34.6070   43.9210 C   0  0  1  0  0  0  0  0  0  0  0  0
   45.3620   35.9700   43.7660 C   0  0  0  0  0  0  0  0  0  0  0  0
   44.9000   35.1930   42.6120 C   0  0  1  0  0  0  0  0  0  0  0  0
   43.6510   34.6590   44.4130 H   0  0  0  0  0  0  0  0  0  0  0  0
   44.7310   36.8210   44.1620 H   0  0  0  0  0  0  0  0  0  0  0  0
   46.3470   35.9890   44.2160 H   0  0  0  0  0  0  0  0  0  0  0  0
   43.9400   35.6800   42.1650 H   0  0  0  0  0  0  0  0  0  0  0  0
   43.7440   33.2470   40.4050 Cl  0  0  0  0  0  0  0  0  0  0  0  0
   45.3980   33.8000   40.5060 C   0  0  0  0  0  0  0  0  0  0  0  0
   45.7040   34.6530   41.5370 C   0  0  0  0  0  0  0  0  0  0  0  0
   47.0630   35.0160   41.5030 C   0  0  0  0  0  0  0  0  0  0  0  0
   47.4600   35.6940   42.2630 H   0  0  0  0  0  0  0  0  0  0  0  0
   47.9660   34.5770   40.5620 C   0  0  0  0  0  3  0  0  0  0  0  0
   47.5670   33.7200   39.5600 C   0  0  0  0  0  0  0  0  0  0  0  0
   48.7360   33.1940   38.3980 Cl  0  0  0  0  0  0  0  0  0  0  0  0
   46.2460   33.3280   39.5400 C   0  0  0  0  0  0  0  0  0  0  0  0
   45.9200   32.6610   38.7680 H   0  0  0  0  0  0  0  0  0  0  0  0
   45.4870   33.5340   44.5160 C   0  0  0  0  0  0  0  0  0  0  0  0
   46.1320   32.6360   43.6640 C   0  0  0  0  0  0  0  0  0  0  0  0
   46.9360   31.6800   44.2370 C   0  0  0  0  0  0  0  0  0  0  0  0
   47.0650   31.6540   45.5870 N   0  0  0  0  0  0  0  0  0  0  0  0
   46.4300   32.5340   46.3770 C   0  0  0  0  0  0  0  0  0  0  0  0
   45.6290   33.4880   45.8400 N   0  0  0  0  0  0  0  0  0  0  0  0
   46.0870   32.5780   42.6100 H   0  0  0  0  0  0  0  0  0  0  0  0
   47.4820   30.9330   43.6620 H   0  0  0  0  0  0  0  0  0  0  0  0
   46.7050   32.3440   47.8390 C   0  0  0  0  0  0  0  0  0  0  0  0
   45.7120   32.8990   48.6240 F   0  0  0  0  0  0  0  0  0  0  0  0
   47.9140   32.9520   48.1810 F   0  0  0  0  0  0  0  0  0  0  0  0
   46.8610   30.9870   48.0970 F   0  0  0  0  0  0  0  0  0  0  0  0
  1  4  1  1  0  0  0
  1 18  1  0  0  0  0
  2  1  1  0  0  0  0
  2  5  1  0  0  0  0
  2  6  1  0  0  0  0
  3  7  1  6  0  0  0
  3  2  1  0  0  0  0
  3  1  1  0  0  0  0
  8  9  1  0  0  0  0
  9 10  1  0  0  0  0
 10  3  1  0  0  0  0
 11 10  2  0  0  0  0
 11 12  1  0  0  0  0
 13 11  1  0  0  0  0
 14 13  2  0  0  0  0
 15 14  1  0  0  0  0
 16 14  1  0  0  0  0
 16  9  2  0  0  0  0
 17 16  1  0  0  0  0
 18 23  1  0  0  0  0
 19 20  1  0  0  0  0
 19 18  2  0  0  0  0
 20 21  2  0  0  0  0
 21 22  1  0  0  0  0
 22 26  1  0  0  0  0
 23 22  2  0  0  0  0
 24 19  1  0  0  0  0
 25 20  1  0  0  0  0
 26 29  1  0  0  0  0
 26 28  1  0  0  0  0
 26 27  1  0  0  0  0
M  END
>  <minimizedAffinity>
-5.268713

>  <minimizedRMSD>
1.76105165

$$$$
