
     RDKit          3D

 30 32  0  0  0  0  0  0  0  0999 V2000
   45.5322   34.1285   44.3986 C   0  0  0  0  0  0  0  0  0  0  0  0
   46.4901   33.5927   43.5369 C   0  0  0  0  0  0  0  0  0  0  0  0
   47.3760   32.6798   44.0594 C   0  0  0  0  0  0  0  0  0  0  0  0
   47.2785   32.3468   45.3705 N   0  0  0  0  0  0  0  0  0  0  0  0
   46.3439   32.8820   46.1696 C   0  0  0  0  0  0  0  0  0  0  0  0
   45.4558   33.7848   45.6842 N   0  0  0  0  0  0  0  0  0  0  0  0
   46.4052   32.3900   47.5861 C   0  0  0  0  0  0  0  0  0  0  0  0
   45.3755   32.9042   48.3519 F   0  0  0  0  0  0  0  0  0  0  0  0
   47.6123   32.7732   48.1736 F   0  0  0  0  0  0  0  0  0  0  0  0
   46.3941   30.9996   47.5818 F   0  0  0  0  0  0  0  0  0  0  0  0
   44.5813   35.1510   43.8715 C   0  0  1  0  0  0  0  0  0  0  0  0
   44.9004   36.6000   44.3234 C   0  0  0  0  0  0  0  0  0  0  0  0
   44.9728   36.1844   42.9205 C   0  0  1  0  0  0  0  0  0  0  0  0
   46.6360   33.7888   42.5090 H   0  0  0  0  0  0  0  0  0  0  0  0
   48.1601   32.2043   43.4719 H   0  0  0  0  0  0  0  0  0  0  0  0
   43.5320   34.8390   44.0184 H   0  0  0  0  0  0  0  0  0  0  0  0
   43.9754   37.1257   44.7078 H   0  0  0  0  0  0  0  0  0  0  0  0
   45.6989   36.6587   45.0528 H   0  0  0  0  0  0  0  0  0  0  0  0
   44.0516   36.5946   42.3360 H   0  0  0  0  0  0  0  0  0  0  0  0
   45.6918   33.8309   40.9346 Cl  0  0  0  0  0  0  0  0  0  0  0  0
   46.6141   35.2977   41.1464 C   0  0  0  0  0  0  0  0  0  0  0  0
   46.1327   36.2070   42.0547 C   0  0  0  0  0  0  0  0  0  0  0  0
   46.9693   37.3361   42.1296 C   0  0  0  0  0  0  0  0  0  0  0  0
   46.7175   38.1515   42.8123 H   0  0  0  0  0  0  0  0  0  0  0  0
   48.1184   37.5075   41.3908 C   0  0  0  0  0  0  0  0  0  0  0  0
   48.5255   36.5379   40.5000 C   0  0  0  0  0  0  0  0  0  0  0  0
   49.9756   36.7964   39.5931 Cl  0  0  0  0  0  0  0  0  0  0  0  0
   47.7457   35.4083   40.3832 C   0  0  0  0  0  0  0  0  0  0  0  0
   48.0487   34.6450   39.6950 H   0  0  0  0  0  0  0  0  0  0  0  0
   48.7113   38.3998   41.5001 H   0  0  0  0  0  0  0  0  0  0  0  0
  1  6  2  0
  2  3  2  0
  2  1  1  0
  3  4  1  0
  4  5  2  0
  5  7  1  0
  6  5  1  0
  7  9  1  0
  7  8  1  0
 10  7  1  0
 11 12  1  0
 11  1  1  0
 13 11  1  0
 13 12  1  0
  2 14  1  0
  3 15  1  0
 11 16  1  6
 12 17  1  0
 12 18  1  0
 13 19  1  6
 20 21  1  0
 21 22  2  0
 22 23  1  0
 23 24  1  0
 23 25  2  0
 25 26  1  0
 26 27  1  0
 26 28  2  0
 28 29  1  0
 28 21  1  0
 25 30  1  0
 13 22  1  0
M  ISO  8  14  14  15  14  16  13  17  13  18  13  19  13  24  16  29  15
M  END
>  <DihAtoms>  (1) 
10,12,21,20

>  <DihDeg>  (1) 
-82.15852100489948

$$$$
