
 OpenBabel03252509303D

 22 23  0  0  0  0  0  0  0  0999 V2000
   35.8180   28.9250   41.0550 C   0  0  0  0  0  0  0  0  0  0  0  0
   35.1480   29.2830   41.8830 H   0  0  0  0  0  0  0  0  0  0  0  0
   35.2060   28.3410   40.3370 H   0  0  0  0  0  0  0  0  0  0  0  0
   36.5520   26.5030   39.5210 Cl  0  0  0  0  0  0  0  0  0  0  0  0
   37.2580   26.8940   41.0880 C   0  0  0  0  0  0  0  0  0  0  0  0
   36.8270   28.0670   41.7090 C   0  0  0  0  0  0  0  0  0  0  0  0
   37.3890   28.3730   42.9530 C   0  0  0  0  0  0  0  0  0  0  0  0
   37.0630   29.2920   43.4580 H   0  0  0  0  0  0  0  0  0  0  0  0
   38.3330   27.5720   43.5680 C   0  0  0  0  0  3  0  0  0  0  0  0
   38.7520   26.4010   42.9290 C   0  0  0  0  0  0  0  0  0  0  0  0
   39.9490   25.3580   43.6790 Cl  0  0  0  0  0  0  0  0  0  0  0  0
   38.2050   26.0770   41.6900 C   0  0  0  0  0  0  0  0  0  0  0  0
   38.5290   25.1600   41.1840 H   0  0  0  0  0  0  0  0  0  0  0  0
   36.9540   31.1520   38.3120 C   0  0  0  0  0  0  0  0  0  0  0  0
   36.4300   30.0250   38.9690 C   0  0  0  0  0  0  0  0  0  0  0  0
   36.3610   30.0900   40.3720 C   0  0  0  0  0  0  0  0  0  0  0  0
   36.7990   31.2240   40.9910 N   0  0  0  0  0  0  0  0  0  0  0  0
   37.2950   32.2800   40.3050 C   0  0  0  0  0  0  0  0  0  0  0  0
   37.3700   32.2380   38.9600 N   0  0  0  0  0  0  0  0  0  0  0  0
   36.9980   31.0770   37.2180 H   0  0  0  0  0  0  0  0  0  0  0  0
   36.0920   29.1430   38.4460 H   0  0  0  0  0  0  0  0  0  0  0  0
   37.6160   33.1340   40.9000 H   0  0  0  0  0  0  0  0  0  0  0  0
  1  6  1  0  0  0  0
  1  2  1  0  0  0  0
  3  1  1  0  0  0  0
  4  5  1  0  0  0  0
  5 12  2  0  0  0  0
  5  6  1  0  0  0  0
  6  7  2  0  0  0  0
  7  8  1  0  0  0  0
  7  9  1  0  0  0  0
 10  9  2  0  0  0  0
 10 11  1  0  0  0  0
 12 10  1  0  0  0  0
 13 12  1  0  0  0  0
 14 19  2  0  0  0  0
 14 15  1  0  0  0  0
 15 16  2  0  0  0  0
 16 17  1  0  0  0  0
 16  1  1  0  0  0  0
 18 22  1  0  0  0  0
 18 17  2  0  0  0  0
 19 18  1  0  0  0  0
 20 14  1  0  0  0  0
 21 15  1  0  0  0  0
M  END
>  <minimizedAffinity>
-4.68675232

$$$$

 OpenBabel03252509303D

 22 23  0  0  0  0  0  0  0  0999 V2000
   36.7030   27.5980   42.7820 C   0  0  0  0  0  0  0  0  0  0  0  0
   36.5250   28.1300   43.7560 H   0  0  0  0  0  0  0  0  0  0  0  0
   35.9420   26.7990   42.6750 H   0  0  0  0  0  0  0  0  0  0  0  0
   36.8910   24.7400   42.0430 Cl  0  0  0  0  0  0  0  0  0  0  0  0
   38.2820   25.6850   42.5720 C   0  0  0  0  0  0  0  0  0  0  0  0
   38.0600   27.0250   42.8920 C   0  0  0  0  0  0  0  0  0  0  0  0
   39.1660   27.7720   43.3120 C   0  0  0  0  0  0  0  0  0  0  0  0
   39.0120   28.8280   43.5680 H   0  0  0  0  0  0  0  0  0  0  0  0
   40.4360   27.2370   43.4160 C   0  0  0  0  0  3  0  0  0  0  0  0
   40.6380   25.8920   43.0900 C   0  0  0  0  0  0  0  0  0  0  0  0
   42.2380   25.1780   43.2100 Cl  0  0  0  0  0  0  0  0  0  0  0  0
   39.5500   25.1300   42.6700 C   0  0  0  0  0  0  0  0  0  0  0  0
   39.7020   24.0760   42.4140 H   0  0  0  0  0  0  0  0  0  0  0  0
   36.0630   28.9640   39.3900 C   0  0  0  0  0  0  0  0  0  0  0  0
   36.2260   28.0350   40.4330 C   0  0  0  0  0  0  0  0  0  0  0  0
   36.5330   28.5590   41.7010 C   0  0  0  0  0  0  0  0  0  0  0  0
   36.6500   29.9120   41.8320 N   0  0  0  0  0  0  0  0  0  0  0  0
   36.4810   30.7590   40.7910 C   0  0  0  0  0  0  0  0  0  0  0  0
   36.1860   30.2770   39.5680 N   0  0  0  0  0  0  0  0  0  0  0  0
   35.8230   28.5290   38.4110 H   0  0  0  0  0  0  0  0  0  0  0  0
   36.1270   26.9690   40.2920 H   0  0  0  0  0  0  0  0  0  0  0  0
   36.5980   31.8200   41.0090 H   0  0  0  0  0  0  0  0  0  0  0  0
  1  6  1  0  0  0  0
  1  2  1  0  0  0  0
  3  1  1  0  0  0  0
  4  5  1  0  0  0  0
  5 12  2  0  0  0  0
  5  6  1  0  0  0  0
  6  7  2  0  0  0  0
  7  9  1  0  0  0  0
  7  8  1  0  0  0  0
 10 11  1  0  0  0  0
 10  9  2  0  0  0  0
 12 10  1  0  0  0  0
 13 12  1  0  0  0  0
 14 19  2  0  0  0  0
 14 15  1  0  0  0  0
 15 16  2  0  0  0  0
 16 17  1  0  0  0  0
 16  1  1  0  0  0  0
 18 22  1  0  0  0  0
 18 17  2  0  0  0  0
 19 18  1  0  0  0  0
 20 14  1  0  0  0  0
 21 15  1  0  0  0  0
M  END
>  <minimizedAffinity>
-4.6473875

$$$$

 OpenBabel03252509303D

 22 23  0  0  0  0  0  0  0  0999 V2000
   37.4260   28.2240   43.3940 C   0  0  0  0  0  0  0  0  0  0  0  0
   36.3550   28.0990   43.0780 H   0  0  0  0  0  0  0  0  0  0  0  0
   37.4460   28.4600   44.4780 H   0  0  0  0  0  0  0  0  0  0  0  0
   35.7560   28.9380   41.0580 Cl  0  0  0  0  0  0  0  0  0  0  0  0
   37.2430   29.7900   41.4680 C   0  0  0  0  0  0  0  0  0  0  0  0
   37.9400   29.3550   42.5960 C   0  0  0  0  0  0  0  0  0  0  0  0
   39.1200   30.0340   42.9180 C   0  0  0  0  0  0  0  0  0  0  0  0
   39.6820   29.7070   43.8020 H   0  0  0  0  0  0  0  0  0  0  0  0
   39.6030   31.0930   42.1720 C   0  0  0  0  0  3  0  0  0  0  0  0
   38.8910   31.5140   41.0440 C   0  0  0  0  0  0  0  0  0  0  0  0
   39.4740   32.8550   40.0730 Cl  0  0  0  0  0  0  0  0  0  0  0  0
   37.7130   30.8510   40.7060 C   0  0  0  0  0  0  0  0  0  0  0  0
   37.1510   31.1760   39.8240 H   0  0  0  0  0  0  0  0  0  0  0  0
   38.1230   24.7900   42.1690 C   0  0  0  0  0  0  0  0  0  0  0  0
   37.4540   26.0080   42.3800 C   0  0  0  0  0  0  0  0  0  0  0  0
   38.1160   26.9600   43.1750 C   0  0  0  0  0  0  0  0  0  0  0  0
   39.3430   26.6430   43.6800 N   0  0  0  0  0  0  0  0  0  0  0  0
   39.9400   25.4520   43.4430 C   0  0  0  0  0  0  0  0  0  0  0  0
   39.3220   24.5260   42.6840 N   0  0  0  0  0  0  0  0  0  0  0  0
   37.5850   24.0640   41.5460 H   0  0  0  0  0  0  0  0  0  0  0  0
   36.4820   26.2250   41.9640 H   0  0  0  0  0  0  0  0  0  0  0  0
   40.9190   25.3050   43.8950 H   0  0  0  0  0  0  0  0  0  0  0  0
  1  3  1  0  0  0  0
  2  1  1  0  0  0  0
  4  5  1  0  0  0  0
  5  6  1  0  0  0  0
  6  7  2  0  0  0  0
  6  1  1  0  0  0  0
  7  8  1  0  0  0  0
  9  7  1  0  0  0  0
 10  9  2  0  0  0  0
 11 10  1  0  0  0  0
 12 10  1  0  0  0  0
 12  5  2  0  0  0  0
 13 12  1  0  0  0  0
 14 15  2  0  0  0  0
 14 19  1  0  0  0  0
 15 16  1  0  0  0  0
 16  1  1  0  0  0  0
 16 17  2  0  0  0  0
 18 17  1  0  0  0  0
 18 22  1  0  0  0  0
 19 18  2  0  0  0  0
 20 14  1  0  0  0  0
 21 15  1  0  0  0  0
M  END
>  <minimizedAffinity>
-4.64313936

$$$$

 OpenBabel03252509303D

 22 23  0  0  0  0  0  0  0  0999 V2000
   37.9520   27.9520   43.5330 C   0  0  0  0  0  0  0  0  0  0  0  0
   38.8600   27.9880   44.1940 H   0  0  0  0  0  0  0  0  0  0  0  0
   37.0490   28.0070   44.1740 H   0  0  0  0  0  0  0  0  0  0  0  0
   40.5960   26.6310   43.6780 Cl  0  0  0  0  0  0  0  0  0  0  0  0
   39.2210   25.9270   42.8310 C   0  0  0  0  0  0  0  0  0  0  0  0
   38.0270   26.6510   42.8360 C   0  0  0  0  0  0  0  0  0  0  0  0
   36.9380   26.0890   42.1620 C   0  0  0  0  0  0  0  0  0  0  0  0
   35.9910   26.6430   42.1550 H   0  0  0  0  0  0  0  0  0  0  0  0
   37.0060   24.8730   41.5100 C   0  0  0  0  0  3  0  0  0  0  0  0
   38.2110   24.1620   41.5160 C   0  0  0  0  0  0  0  0  0  0  0  0
   38.3350   22.6140   40.6970 Cl  0  0  0  0  0  0  0  0  0  0  0  0
   39.3080   24.7040   42.1810 C   0  0  0  0  0  0  0  0  0  0  0  0
   40.2550   24.1530   42.1890 H   0  0  0  0  0  0  0  0  0  0  0  0
   39.2260   30.9270   41.7140 C   0  0  0  0  0  0  0  0  0  0  0  0
   39.2010   29.8050   42.5610 C   0  0  0  0  0  0  0  0  0  0  0  0
   37.9800   29.1140   42.6560 C   0  0  0  0  0  0  0  0  0  0  0  0
   36.9190   29.5710   41.9310 N   0  0  0  0  0  0  0  0  0  0  0  0
   37.0010   30.6590   41.1300 C   0  0  0  0  0  0  0  0  0  0  0  0
   38.1620   31.3340   41.0250 N   0  0  0  0  0  0  0  0  0  0  0  0
   40.1900   31.4480   41.6580 H   0  0  0  0  0  0  0  0  0  0  0  0
   40.0620   29.4720   43.1210 H   0  0  0  0  0  0  0  0  0  0  0  0
   36.0930   30.9350   40.5970 H   0  0  0  0  0  0  0  0  0  0  0  0
  1  3  1  0  0  0  0
  1  2  1  0  0  0  0
  5  6  1  0  0  0  0
  5  4  1  0  0  0  0
  6  1  1  0  0  0  0
  7  6  2  0  0  0  0
  8  7  1  0  0  0  0
  9 10  2  0  0  0  0
  9  7  1  0  0  0  0
 10 12  1  0  0  0  0
 11 10  1  0  0  0  0
 12 13  1  0  0  0  0
 12  5  2  0  0  0  0
 14 15  1  0  0  0  0
 15 16  2  0  0  0  0
 15 21  1  0  0  0  0
 16  1  1  0  0  0  0
 17 16  1  0  0  0  0
 18 17  2  0  0  0  0
 19 18  1  0  0  0  0
 19 14  2  0  0  0  0
 20 14  1  0  0  0  0
 22 18  1  0  0  0  0
M  END
>  <minimizedAffinity>
-4.63692331

$$$$

 OpenBabel03252509303D

 22 23  0  0  0  0  0  0  0  0999 V2000
   36.0310   29.8000   40.9840 C   0  0  0  0  0  0  0  0  0  0  0  0
   35.3600   30.0650   41.8460 H   0  0  0  0  0  0  0  0  0  0  0  0
   35.4510   29.9040   40.0440 H   0  0  0  0  0  0  0  0  0  0  0  0
   36.3080   28.1900   38.5160 Cl  0  0  0  0  0  0  0  0  0  0  0  0
   36.5850   27.5290   40.1270 C   0  0  0  0  0  0  0  0  0  0  0  0
   36.4210   28.3930   41.2100 C   0  0  0  0  0  0  0  0  0  0  0  0
   36.6420   27.8650   42.4870 C   0  0  0  0  0  0  0  0  0  0  0  0
   36.5180   28.5290   43.3510 H   0  0  0  0  0  0  0  0  0  0  0  0
   37.0070   26.5490   42.7010 C   0  0  0  0  0  3  0  0  0  0  0  0
   37.1660   25.6980   41.6020 C   0  0  0  0  0  0  0  0  0  0  0  0
   37.6290   24.0210   41.8350 Cl  0  0  0  0  0  0  0  0  0  0  0  0
   36.9510   26.2040   40.3220 C   0  0  0  0  0  0  0  0  0  0  0  0
   37.0740   25.5430   39.4580 H   0  0  0  0  0  0  0  0  0  0  0  0
   38.0180   32.8380   40.2100 C   0  0  0  0  0  0  0  0  0  0  0  0
   36.9460   31.9280   40.2290 C   0  0  0  0  0  0  0  0  0  0  0  0
   37.1400   30.7440   40.9610 C   0  0  0  0  0  0  0  0  0  0  0  0
   38.3340   30.5590   41.5940 N   0  0  0  0  0  0  0  0  0  0  0  0
   39.3320   31.4720   41.5400 C   0  0  0  0  0  0  0  0  0  0  0  0
   39.1670   32.6140   40.8430 N   0  0  0  0  0  0  0  0  0  0  0  0
   37.8420   33.7540   39.6320 H   0  0  0  0  0  0  0  0  0  0  0  0
   36.0130   32.1070   39.7160 H   0  0  0  0  0  0  0  0  0  0  0  0
   40.2430   31.2220   42.0810 H   0  0  0  0  0  0  0  0  0  0  0  0
  1  6  1  0  0  0  0
  1  2  1  0  0  0  0
  3  1  1  0  0  0  0
  4  5  1  0  0  0  0
  5 12  2  0  0  0  0
  5  6  1  0  0  0  0
  6  7  2  0  0  0  0
  7  9  1  0  0  0  0
  7  8  1  0  0  0  0
 10 11  1  0  0  0  0
 10  9  2  0  0  0  0
 12 10  1  0  0  0  0
 13 12  1  0  0  0  0
 14 15  2  0  0  0  0
 14 19  1  0  0  0  0
 15 16  1  0  0  0  0
 16  1  1  0  0  0  0
 16 17  2  0  0  0  0
 18 17  1  0  0  0  0
 18 22  1  0  0  0  0
 19 18  2  0  0  0  0
 20 14  1  0  0  0  0
 21 15  1  0  0  0  0
M  END
>  <minimizedAffinity>
-4.61650181

$$$$

 OpenBabel03252509303D

 22 23  0  0  0  0  0  0  0  0999 V2000
   36.6860   27.4900   42.8110 C   0  0  0  0  0  0  0  0  0  0  0  0
   35.6120   27.1630   42.8500 H   0  0  0  0  0  0  0  0  0  0  0  0
   36.9660   27.8920   43.8060 H   0  0  0  0  0  0  0  0  0  0  0  0
   38.6800   29.6140   43.3280 Cl  0  0  0  0  0  0  0  0  0  0  0  0
   37.6360   29.6070   41.9080 C   0  0  0  0  0  0  0  0  0  0  0  0
   36.7360   28.5470   41.7810 C   0  0  0  0  0  0  0  0  0  0  0  0
   35.9090   28.5450   40.6530 C   0  0  0  0  0  0  0  0  0  0  0  0
   35.1960   27.7200   40.5340 H   0  0  0  0  0  0  0  0  0  0  0  0
   35.9540   29.5340   39.6880 C   0  0  0  0  0  3  0  0  0  0  0  0
   36.8620   30.5880   39.8330 C   0  0  0  0  0  0  0  0  0  0  0  0
   36.9470   31.8620   38.6280 Cl  0  0  0  0  0  0  0  0  0  0  0  0
   37.6950   30.6090   40.9500 C   0  0  0  0  0  0  0  0  0  0  0  0
   38.4080   31.4320   41.0700 H   0  0  0  0  0  0  0  0  0  0  0  0
   37.6360   24.0550   41.7740 C   0  0  0  0  0  0  0  0  0  0  0  0
   36.8400   25.1810   42.0490 C   0  0  0  0  0  0  0  0  0  0  0  0
   37.5080   26.3220   42.5260 C   0  0  0  0  0  0  0  0  0  0  0  0
   38.8620   26.2620   42.6870 N   0  0  0  0  0  0  0  0  0  0  0  0
   39.5770   25.1480   42.4050 C   0  0  0  0  0  0  0  0  0  0  0  0
   38.9560   24.0440   41.9470 N   0  0  0  0  0  0  0  0  0  0  0  0
   37.0910   23.1770   41.4030 H   0  0  0  0  0  0  0  0  0  0  0  0
   35.7700   25.1930   41.9100 H   0  0  0  0  0  0  0  0  0  0  0  0
   40.6510   25.2110   42.5700 H   0  0  0  0  0  0  0  0  0  0  0  0
  1  2  1  0  0  0  0
  1  3  1  0  0  0  0
  5  4  1  0  0  0  0
  6  5  1  0  0  0  0
  6  1  1  0  0  0  0
  7  6  2  0  0  0  0
  8  7  1  0  0  0  0
  9 10  2  0  0  0  0
  9  7  1  0  0  0  0
 10 12  1  0  0  0  0
 11 10  1  0  0  0  0
 12 13  1  0  0  0  0
 12  5  2  0  0  0  0
 14 19  2  0  0  0  0
 14 15  1  0  0  0  0
 15 16  2  0  0  0  0
 16 17  1  0  0  0  0
 16  1  1  0  0  0  0
 18 22  1  0  0  0  0
 18 17  2  0  0  0  0
 19 18  1  0  0  0  0
 20 14  1  0  0  0  0
 21 15  1  0  0  0  0
M  END
>  <minimizedAffinity>
-4.57351637

$$$$

 OpenBabel03252509303D

 22 23  0  0  0  0  0  0  0  0999 V2000
   36.0690   28.9470   41.1600 C   0  0  0  0  0  0  0  0  0  0  0  0
   35.5910   28.9250   42.1770 H   0  0  0  0  0  0  0  0  0  0  0  0
   35.2770   29.1260   40.4050 H   0  0  0  0  0  0  0  0  0  0  0  0
   36.5020   27.4540   43.6780 Cl  0  0  0  0  0  0  0  0  0  0  0  0
   36.9310   26.8060   42.0960 C   0  0  0  0  0  0  0  0  0  0  0  0
   36.6750   27.6110   40.9850 C   0  0  0  0  0  0  0  0  0  0  0  0
   37.0170   27.0940   39.7310 C   0  0  0  0  0  0  0  0  0  0  0  0
   36.8230   27.7110   38.8450 H   0  0  0  0  0  0  0  0  0  0  0  0
   37.5850   25.8450   39.5640 C   0  0  0  0  0  3  0  0  0  0  0  0
   37.8340   25.0530   40.6910 C   0  0  0  0  0  0  0  0  0  0  0  0
   38.5540   23.4620   40.5180 Cl  0  0  0  0  0  0  0  0  0  0  0  0
   37.5010   25.5500   41.9490 C   0  0  0  0  0  0  0  0  0  0  0  0
   37.6930   24.9350   42.8350 H   0  0  0  0  0  0  0  0  0  0  0  0
   37.5350   32.2640   40.3720 C   0  0  0  0  0  0  0  0  0  0  0  0
   36.6210   31.1970   40.4060 C   0  0  0  0  0  0  0  0  0  0  0  0
   37.0140   30.0540   41.1240 C   0  0  0  0  0  0  0  0  0  0  0  0
   38.2350   30.0580   41.7320 N   0  0  0  0  0  0  0  0  0  0  0  0
   39.0750   31.1170   41.6660 C   0  0  0  0  0  0  0  0  0  0  0  0
   38.7170   32.2220   40.9820 N   0  0  0  0  0  0  0  0  0  0  0  0
   37.2050   33.1440   39.8050 H   0  0  0  0  0  0  0  0  0  0  0  0
   35.6610   31.2280   39.9120 H   0  0  0  0  0  0  0  0  0  0  0  0
   40.0250   31.0120   42.1880 H   0  0  0  0  0  0  0  0  0  0  0  0
  1  2  1  0  0  0  0
  3  1  1  0  0  0  0
  5  4  1  0  0  0  0
  6  1  1  0  0  0  0
  6  5  2  0  0  0  0
  7  6  1  0  0  0  0
  8  7  1  0  0  0  0
  9  7  2  0  0  0  0
  9 10  1  0  0  0  0
 10 12  2  0  0  0  0
 11 10  1  0  0  0  0
 12  5  1  0  0  0  0
 12 13  1  0  0  0  0
 14 15  2  0  0  0  0
 14 19  1  0  0  0  0
 15 16  1  0  0  0  0
 16  1  1  0  0  0  0
 16 17  2  0  0  0  0
 18 17  1  0  0  0  0
 18 22  1  0  0  0  0
 19 18  2  0  0  0  0
 20 14  1  0  0  0  0
 21 15  1  0  0  0  0
M  END
>  <minimizedAffinity>
-4.43224716

$$$$

 OpenBabel03252509303D

 22 23  0  0  0  0  0  0  0  0999 V2000
   36.8220   27.3570   42.5650 C   0  0  0  0  0  0  0  0  0  0  0  0
   36.0900   26.6140   42.1460 H   0  0  0  0  0  0  0  0  0  0  0  0
   36.4190   27.7440   43.5230 H   0  0  0  0  0  0  0  0  0  0  0  0
   36.4950   26.4460   39.7680 Cl  0  0  0  0  0  0  0  0  0  0  0  0
   36.7710   28.1320   40.1990 C   0  0  0  0  0  0  0  0  0  0  0  0
   36.9090   28.4320   41.5560 C   0  0  0  0  0  0  0  0  0  0  0  0
   37.1280   29.7720   41.8930 C   0  0  0  0  0  0  0  0  0  0  0  0
   37.2390   30.0280   42.9550 H   0  0  0  0  0  0  0  0  0  0  0  0
   37.2100   30.7790   40.9510 C   0  0  0  0  0  3  0  0  0  0  0  0
   37.0690   30.4590   39.5960 C   0  0  0  0  0  0  0  0  0  0  0  0
   37.1680   31.7120   38.3700 Cl  0  0  0  0  0  0  0  0  0  0  0  0
   36.8510   29.1310   39.2380 C   0  0  0  0  0  0  0  0  0  0  0  0
   36.7400   28.8730   38.1790 H   0  0  0  0  0  0  0  0  0  0  0  0
   40.3100   26.7450   43.6780 C   0  0  0  0  0  0  0  0  0  0  0  0
   39.1000   27.4160   43.4270 C   0  0  0  0  0  0  0  0  0  0  0  0
   38.0760   26.6640   42.8250 C   0  0  0  0  0  0  0  0  0  0  0  0
   38.3210   25.3540   42.5300 N   0  0  0  0  0  0  0  0  0  0  0  0
   39.5070   24.7600   42.7960 C   0  0  0  0  0  0  0  0  0  0  0  0
   40.5010   25.4630   43.3720 N   0  0  0  0  0  0  0  0  0  0  0  0
   41.0930   27.3530   44.1480 H   0  0  0  0  0  0  0  0  0  0  0  0
   38.9420   28.4550   43.6740 H   0  0  0  0  0  0  0  0  0  0  0  0
   39.5930   23.7110   42.5180 H   0  0  0  0  0  0  0  0  0  0  0  0
  1 16  1  0  0  0  0
  1  3  1  0  0  0  0
  2  1  1  0  0  0  0
  4  5  1  0  0  0  0
  5  6  1  0  0  0  0
  6  7  2  0  0  0  0
  6  1  1  0  0  0  0
  7  8  1  0  0  0  0
  9  7  1  0  0  0  0
 10  9  2  0  0  0  0
 11 10  1  0  0  0  0
 12 10  1  0  0  0  0
 12  5  2  0  0  0  0
 13 12  1  0  0  0  0
 14 20  1  0  0  0  0
 15 21  1  0  0  0  0
 15 14  1  0  0  0  0
 16 15  2  0  0  0  0
 17 18  2  0  0  0  0
 17 16  1  0  0  0  0
 18 19  1  0  0  0  0
 19 14  2  0  0  0  0
 22 18  1  0  0  0  0
M  END
>  <minimizedAffinity>
-4.33565903

$$$$

 OpenBabel03252509303D

 22 23  0  0  0  0  0  0  0  0999 V2000
   36.8860   25.1090   42.4160 C   0  0  0  0  0  0  0  0  0  0  0  0
   35.8000   25.2540   42.6640 H   0  0  0  0  0  0  0  0  0  0  0  0
   37.3270   24.4160   43.1610 H   0  0  0  0  0  0  0  0  0  0  0  0
   39.6870   25.1200   43.3680 Cl  0  0  0  0  0  0  0  0  0  0  0  0
   38.8110   26.5930   42.9570 C   0  0  0  0  0  0  0  0  0  0  0  0
   37.4930   26.4520   42.5190 C   0  0  0  0  0  0  0  0  0  0  0  0
   36.8000   27.6230   42.1940 C   0  0  0  0  0  0  0  0  0  0  0  0
   35.7630   27.5330   41.8480 H   0  0  0  0  0  0  0  0  0  0  0  0
   37.3660   28.8810   42.2900 C   0  0  0  0  0  3  0  0  0  0  0  0
   38.6890   29.0010   42.7310 C   0  0  0  0  0  0  0  0  0  0  0  0
   39.4410   30.5820   42.8670 Cl  0  0  0  0  0  0  0  0  0  0  0  0
   39.3960   27.8470   43.0600 C   0  0  0  0  0  0  0  0  0  0  0  0
   40.4320   27.9350   43.4060 H   0  0  0  0  0  0  0  0  0  0  0  0
   37.7780   22.7120   39.7250 C   0  0  0  0  0  0  0  0  0  0  0  0
   37.6940   23.2970   41.0010 C   0  0  0  0  0  0  0  0  0  0  0  0
   36.9740   24.5010   41.0950 C   0  0  0  0  0  0  0  0  0  0  0  0
   36.4140   25.0120   39.9610 N   0  0  0  0  0  0  0  0  0  0  0  0
   36.5270   24.4030   38.7580 C   0  0  0  0  0  0  0  0  0  0  0  0
   37.2130   23.2490   38.6460 N   0  0  0  0  0  0  0  0  0  0  0  0
   38.3450   21.7740   39.6780 H   0  0  0  0  0  0  0  0  0  0  0  0
   38.1510   22.8640   41.8780 H   0  0  0  0  0  0  0  0  0  0  0  0
   36.0400   24.8990   37.9200 H   0  0  0  0  0  0  0  0  0  0  0  0
  1  6  1  0  0  0  0
  1  2  1  0  0  0  0
  1  3  1  0  0  0  0
  5 12  1  0  0  0  0
  5  4  1  0  0  0  0
  6  5  2  0  0  0  0
  7  9  2  0  0  0  0
  7  6  1  0  0  0  0
  8  7  1  0  0  0  0
  9 10  1  0  0  0  0
 10 11  1  0  0  0  0
 10 12  2  0  0  0  0
 12 13  1  0  0  0  0
 14 15  1  0  0  0  0
 15 16  2  0  0  0  0
 15 21  1  0  0  0  0
 16  1  1  0  0  0  0
 17 16  1  0  0  0  0
 18 17  2  0  0  0  0
 19 18  1  0  0  0  0
 19 14  2  0  0  0  0
 20 14  1  0  0  0  0
 22 18  1  0  0  0  0
M  END
>  <minimizedAffinity>
-4.31520748

$$$$
