REMARK  Name = 
REMARK  4 active torsions:
REMARK  status: ('A' for Active; 'I' for Inactive)
REMARK    1  A    between atoms: C_2  and  N_12
REMARK    2  A    between atoms: C_11  and  S_13
REMARK    3  A    between atoms: S_13  and  C_16
REMARK    4  A    between atoms: N_19  and  C_38
REMARK                            x       y       z     vdW  Elec       q    Type
REMARK                         _______ _______ _______ _____ _____    ______ ____
ROOT
ATOM      1  C   UNL     1      44.505  35.535  45.117  0.00  0.00    +0.000 A 
ATOM      2  C   UNL     1      45.163  35.508  43.881  0.00  0.00    +0.000 A 
ATOM      3  C   UNL     1      46.082  34.545  43.643  0.00  0.00    +0.000 A 
ATOM      4  N   UNL     1      46.312  33.649  44.634  0.00  0.00    +0.000 NA
ATOM      5  C   UNL     1      45.687  33.679  45.801  0.00  0.00    +0.000 A 
ATOM      6  N   UNL     1      44.778  34.615  46.062  0.00  0.00    +0.000 NA
ATOM      7  N   UNL     1      46.012  32.681  46.784  0.00  0.00    +0.000 N 
ATOM      8  C   UNL     1      45.265  32.451  47.970  0.00  0.00    +0.000 C 
ATOM      9  C   UNL     1      46.336  32.113  48.992  0.00  0.00    +0.000 C 
ATOM     10  C   UNL     1      47.621  32.007  48.233  0.00  0.00    +0.000 C 
ATOM     11  C   UNL     1      47.134  31.771  46.803  0.00  0.00    +0.000 C 
ATOM     12  H   UNL     1      43.781  36.304  45.287  0.00  0.00    +0.000 HD
ATOM     13  H   UNL     1      46.604  34.501  42.701  0.00  0.00    +0.000 HD
ATOM     14  H   UNL     1      44.430  31.832  48.054  0.00  0.00    +0.000 HD
ATOM     15  H   UNL     1      44.914  33.477  48.315  0.00  0.00    +0.000 HD
ATOM     16  H   UNL     1      46.344  32.742  49.877  0.00  0.00    +0.000 HD
ATOM     17  H   UNL     1      46.110  31.064  49.347  0.00  0.00    +0.000 HD
ATOM     18  H   UNL     1      48.238  31.176  48.608  0.00  0.00    +0.000 HD
ATOM     19  H   UNL     1      48.122  32.995  48.316  0.00  0.00    +0.000 HD
ATOM     20  H   UNL     1      47.947  32.063  46.099  0.00  0.00    +0.000 HD
ENDROOT
BRANCH   2  21
ATOM     21  N   UNL     1      44.816  36.525  42.924  0.00  0.00    +0.000 N 
ATOM     22  H   UNL     1      44.842  37.525  43.190  0.00  0.00    +0.000 HD
ATOM     23  H   UNL     1      44.565  36.072  42.023  0.00  0.00    +0.000 HD
ENDBRANCH   2  21
BRANCH  11  24
ATOM     24  S   UNL     1      46.622  30.076  46.640  0.00  0.00    +0.000 S 
BRANCH  24  27
ATOM     25  O   UNL     1      45.616  30.510  43.489  0.00  0.00    +0.000 OA
ATOM     26  C   UNL     1      44.983  29.986  44.420  0.00  0.00    +0.000 C 
ATOM     27  C   UNL     1      45.074  29.783  45.887  0.00  0.00    +0.000 C 
ATOM     28  C   UNL     1      44.532  28.383  46.039  0.00  0.00    +0.000 C 
ATOM     29  C   UNL     1      43.221  28.587  45.273  0.00  0.00    +0.000 C 
ATOM     30  N   UNL     1      43.737  29.326  44.127  0.00  0.00    +0.000 N 
ATOM     31  H   UNL     1      44.193  30.392  46.224  0.00  0.00    +0.000 HD
ATOM     32  H   UNL     1      45.152  27.632  45.508  0.00  0.00    +0.000 HD
ATOM     33  H   UNL     1      44.346  28.164  47.092  0.00  0.00    +0.000 HD
ATOM     34  H   UNL     1      42.753  27.636  45.014  0.00  0.00    +0.000 HD
ATOM     35  H   UNL     1      42.553  29.222  45.890  0.00  0.00    +0.000 HD
BRANCH  30  38
ATOM     36 CL   UNL     1      41.595  31.442  43.712  0.00  0.00    +0.000 Cl
ATOM     37  C   UNL     1      41.946  30.141  42.594  0.00  0.00    +0.000 A 
ATOM     38  C   UNL     1      42.938  29.275  42.926  0.00  0.00    +0.000 A 
ATOM     39  C   UNL     1      43.217  28.249  42.047  0.00  0.00    +0.000 A 
ATOM     40  H   UNL     1      44.008  27.513  42.257  0.00  0.00    +0.000 HD
ATOM     41  C   UNL     1      42.554  28.037  40.842  0.00  0.00    +0.000 A 
ATOM     42  C   UNL     1      41.536  28.938  40.514  0.00  0.00    +0.000 A 
ATOM     43 CL   UNL     1      40.656  28.737  39.014  0.00  0.00    +0.000 Cl
ATOM     44  C   UNL     1      41.273  29.954  41.404  0.00  0.00    +0.000 A 
ATOM     45  H   UNL     1      40.474  30.657  41.141  0.00  0.00    +0.000 HD
ENDBRANCH  30  38
ENDBRANCH  24  27
ENDBRANCH  11  24
TORSDOF 4
