
 OpenBabel03242522243D

 29 31  0  0  0  0  0  0  0  0999 V2000
   36.8290   27.6060   43.6790 C   0  0  0  0  0  0  0  0  0  0  0  0
   36.9520   26.5000   42.8270 C   0  0  0  0  0  0  0  0  0  0  0  0
   37.4180   26.6470   41.5200 C   0  0  0  0  0  0  0  0  0  0  0  0
   37.7380   27.9010   41.1360 N   0  0  0  0  0  0  0  0  0  0  0  0
   37.6200   28.9600   41.9560 C   0  0  0  0  0  0  0  0  0  0  0  0
   37.1710   28.8070   43.2090 N   0  0  0  0  0  0  0  0  0  0  0  0
   36.4600   27.3540   44.6550 H   0  0  0  0  0  0  0  0  0  0  0  0
   36.7000   25.4810   43.1150 H   0  0  0  0  0  0  0  0  0  0  0  0
   40.0600   25.3700   41.6730 Cl  0  0  0  0  0  0  0  0  0  0  0  0
   38.7660   24.8320   40.6120 C   0  0  0  0  0  0  0  0  0  0  0  0
   37.5520   25.5090   40.6170 C   0  0  0  0  0  0  0  0  0  0  0  0
   36.5730   25.0550   39.7730 C   0  0  0  0  0  0  0  0  0  0  0  0
   36.7750   23.9610   38.9390 C   0  0  0  0  0  0  0  0  0  0  0  0
   38.0190   23.3270   38.9840 C   0  0  0  0  0  0  0  0  0  0  0  0
   38.2830   21.9540   37.9420 Cl  0  0  0  0  0  0  0  0  0  0  0  0
   39.0360   23.7470   39.8170 C   0  0  0  0  0  0  0  0  0  0  0  0
   35.6240   25.5740   39.7690 H   0  0  0  0  0  0  0  0  0  0  0  0
   35.9990   23.6060   38.2740 H   0  0  0  0  0  0  0  0  0  0  0  0
   39.9930   23.2440   39.8380 H   0  0  0  0  0  0  0  0  0  0  0  0
   40.4320   29.8080   42.5570 Cl  0  0  0  0  0  0  0  0  0  0  0  0
   39.2560   30.7790   41.6910 C   0  0  0  0  0  0  0  0  0  0  0  0
   37.9860   30.2880   41.4700 C   0  0  0  0  0  0  0  0  0  0  0  0
   37.0200   31.0310   40.7840 C   0  0  0  0  0  0  0  0  0  0  0  0
   36.0130   30.6820   40.5890 H   0  0  0  0  0  0  0  0  0  0  0  0
   37.3250   32.3020   40.3020 C   0  0  0  0  0  3  0  0  0  0  0  0
   38.6070   32.7480   40.5480 C   0  0  0  0  0  0  0  0  0  0  0  0
   39.0650   34.3400   39.9720 Cl  0  0  0  0  0  0  0  0  0  0  0  0
   39.5880   32.0490   41.2190 C   0  0  0  0  0  0  0  0  0  0  0  0
   40.5770   32.4550   41.3800 H   0  0  0  0  0  0  0  0  0  0  0  0
  1  7  1  0  0  0  0
  2  8  1  0  0  0  0
  2  1  2  0  0  0  0
  3  2  1  0  0  0  0
  4  3  2  0  0  0  0
  4  5  1  0  0  0  0
  5  6  2  0  0  0  0
  6  1  1  0  0  0  0
 10 11  1  0  0  0  0
 10  9  1  0  0  0  0
 11  3  1  0  0  0  0
 12 11  2  0  0  0  0
 13 14  2  0  0  0  0
 13 12  1  0  0  0  0
 14 16  1  0  0  0  0
 15 14  1  0  0  0  0
 16 19  1  0  0  0  0
 16 10  2  0  0  0  0
 17 12  1  0  0  0  0
 18 13  1  0  0  0  0
 21 20  1  0  0  0  0
 22 21  1  0  0  0  0
 22  5  1  0  0  0  0
 23 22  2  0  0  0  0
 24 23  1  0  0  0  0
 25 26  2  0  0  0  0
 25 23  1  0  0  0  0
 26 28  1  0  0  0  0
 27 26  1  0  0  0  0
 28 29  1  0  0  0  0
 28 21  2  0  0  0  0
M  END
>  <minimizedAffinity>
-5.5165658

$$$$

 OpenBabel03242522243D

 29 31  0  0  0  0  0  0  0  0999 V2000
   36.8780   27.5480   43.6790 C   0  0  0  0  0  0  0  0  0  0  0  0
   37.3440   28.8020   43.2620 C   0  0  0  0  0  0  0  0  0  0  0  0
   37.8650   28.9860   41.9820 C   0  0  0  0  0  0  0  0  0  0  0  0
   37.8910   27.8980   41.1830 N   0  0  0  0  0  0  0  0  0  0  0  0
   37.4430   26.6960   41.5850 C   0  0  0  0  0  0  0  0  0  0  0  0
   36.9440   26.5310   42.8180 N   0  0  0  0  0  0  0  0  0  0  0  0
   36.5030   27.5440   44.6850 H   0  0  0  0  0  0  0  0  0  0  0  0
   37.3320   29.6920   43.8880 H   0  0  0  0  0  0  0  0  0  0  0  0
   35.8400   30.5260   40.5100 Cl  0  0  0  0  0  0  0  0  0  0  0  0
   37.4750   31.0940   40.8210 C   0  0  0  0  0  0  0  0  0  0  0  0
   38.3550   30.2840   41.5280 C   0  0  0  0  0  0  0  0  0  0  0  0
   39.6200   30.7670   41.7470 C   0  0  0  0  0  0  0  0  0  0  0  0
   40.0150   32.0170   41.2840 C   0  0  0  0  0  0  0  0  0  0  0  0
   39.0800   32.7780   40.5800 C   0  0  0  0  0  0  0  0  0  0  0  0
   39.5660   34.3470   39.9930 Cl  0  0  0  0  0  0  0  0  0  0  0  0
   37.7960   32.3360   40.3340 C   0  0  0  0  0  0  0  0  0  0  0  0
   40.3130   30.1460   42.2960 H   0  0  0  0  0  0  0  0  0  0  0  0
   41.0140   32.3940   41.4580 H   0  0  0  0  0  0  0  0  0  0  0  0
   37.0850   32.9390   39.7870 H   0  0  0  0  0  0  0  0  0  0  0  0
   39.7730   24.8510   41.9820 Cl  0  0  0  0  0  0  0  0  0  0  0  0
   38.5330   24.6500   40.7580 C   0  0  0  0  0  0  0  0  0  0  0  0
   37.5030   25.5640   40.6650 C   0  0  0  0  0  0  0  0  0  0  0  0
   36.4960   25.4390   39.7020 C   0  0  0  0  0  0  0  0  0  0  0  0
   35.6710   26.1340   39.5960 H   0  0  0  0  0  0  0  0  0  0  0  0
   36.5120   24.3750   38.8040 C   0  0  0  0  0  3  0  0  0  0  0  0
   37.5610   23.4900   38.9370 C   0  0  0  0  0  0  0  0  0  0  0  0
   37.6500   22.1240   37.8410 Cl  0  0  0  0  0  0  0  0  0  0  0  0
   38.5730   23.5750   39.8710 C   0  0  0  0  0  0  0  0  0  0  0  0
   39.3700   22.8470   39.9240 H   0  0  0  0  0  0  0  0  0  0  0  0
  1  7  1  0  0  0  0
  2  1  1  0  0  0  0
  2  8  1  0  0  0  0
  3  2  2  0  0  0  0
  4  5  2  0  0  0  0
  4  3  1  0  0  0  0
  5  6  1  0  0  0  0
  6  1  2  0  0  0  0
  9 10  1  0  0  0  0
 10 11  1  0  0  0  0
 11 12  2  0  0  0  0
 11  3  1  0  0  0  0
 12 17  1  0  0  0  0
 13 18  1  0  0  0  0
 13 12  1  0  0  0  0
 14 13  2  0  0  0  0
 15 14  1  0  0  0  0
 16 14  1  0  0  0  0
 16 10  2  0  0  0  0
 19 16  1  0  0  0  0
 21 20  1  0  0  0  0
 22 21  1  0  0  0  0
 22  5  1  0  0  0  0
 23 22  2  0  0  0  0
 24 23  1  0  0  0  0
 25 26  2  0  0  0  0
 25 23  1  0  0  0  0
 26 28  1  0  0  0  0
 27 26  1  0  0  0  0
 28 29  1  0  0  0  0
 28 21  2  0  0  0  0
M  END
>  <minimizedAffinity>
-5.47721148

$$$$

 OpenBabel03242522243D

 29 31  0  0  0  0  0  0  0  0999 V2000
   37.4120   33.1900   39.8240 C   0  0  0  0  0  0  0  0  0  0  0  0
   37.1210   31.9090   40.3120 C   0  0  0  0  0  0  0  0  0  0  0  0
   38.1400   31.0040   40.6120 C   0  0  0  0  0  0  0  0  0  0  0  0
   39.4030   31.4350   40.4070 N   0  0  0  0  0  0  0  0  0  0  0  0
   39.6800   32.6650   39.9390 C   0  0  0  0  0  0  0  0  0  0  0  0
   38.6930   33.5250   39.6540 N   0  0  0  0  0  0  0  0  0  0  0  0
   36.5380   33.7830   39.6340 H   0  0  0  0  0  0  0  0  0  0  0  0
   36.1120   31.5400   40.4850 H   0  0  0  0  0  0  0  0  0  0  0  0
   37.8980   28.9950   38.4810 Cl  0  0  0  0  0  0  0  0  0  0  0  0
   37.7250   28.6400   40.1930 C   0  0  0  0  0  0  0  0  0  0  0  0
   37.8580   29.6660   41.1210 C   0  0  0  0  0  0  0  0  0  0  0  0
   37.7150   29.3420   42.4450 C   0  0  0  0  0  0  0  0  0  0  0  0
   37.4460   28.0420   42.8560 C   0  0  0  0  0  0  0  0  0  0  0  0
   37.3240   27.0590   41.8710 C   0  0  0  0  0  0  0  0  0  0  0  0
   36.9860   25.4230   42.3740 Cl  0  0  0  0  0  0  0  0  0  0  0  0
   37.4600   27.3350   40.5250 C   0  0  0  0  0  0  0  0  0  0  0  0
   37.8160   30.1330   43.1750 H   0  0  0  0  0  0  0  0  0  0  0  0
   37.3320   27.7910   43.9020 H   0  0  0  0  0  0  0  0  0  0  0  0
   37.3620   26.5610   39.7770 H   0  0  0  0  0  0  0  0  0  0  0  0
   40.7820   32.1380   37.2010 Cl  0  0  0  0  0  0  0  0  0  0  0  0
   41.6810   32.8650   38.5200 C   0  0  0  0  0  0  0  0  0  0  0  0
   41.0720   33.0610   39.7420 C   0  0  0  0  0  0  0  0  0  0  0  0
   41.7540   33.6370   40.8190 C   0  0  0  0  0  0  0  0  0  0  0  0
   41.3130   33.8090   41.7940 H   0  0  0  0  0  0  0  0  0  0  0  0
   43.0830   34.0310   40.6780 C   0  0  0  0  0  3  0  0  0  0  0  0
   43.6460   33.8140   39.4370 C   0  0  0  0  0  0  0  0  0  0  0  0
   45.3160   34.2840   39.1820 Cl  0  0  0  0  0  0  0  0  0  0  0  0
   43.0100   33.2500   38.3510 C   0  0  0  0  0  0  0  0  0  0  0  0
   43.5090   33.1070   37.4030 H   0  0  0  0  0  0  0  0  0  0  0  0
  1  2  1  0  0  0  0
  2  8  1  0  0  0  0
  2  3  2  0  0  0  0
  3 11  1  0  0  0  0
  4  3  1  0  0  0  0
  5  4  2  0  0  0  0
  6  1  2  0  0  0  0
  6  5  1  0  0  0  0
  7  1  1  0  0  0  0
  9 10  1  0  0  0  0
 10 16  2  0  0  0  0
 10 11  1  0  0  0  0
 11 12  2  0  0  0  0
 12 13  1  0  0  0  0
 12 17  1  0  0  0  0
 13 18  1  0  0  0  0
 14 15  1  0  0  0  0
 14 13  2  0  0  0  0
 16 14  1  0  0  0  0
 19 16  1  0  0  0  0
 20 21  1  0  0  0  0
 21 22  1  0  0  0  0
 22  5  1  0  0  0  0
 22 23  2  0  0  0  0
 23 24  1  0  0  0  0
 25 23  1  0  0  0  0
 26 25  2  0  0  0  0
 27 26  1  0  0  0  0
 28 21  2  0  0  0  0
 28 26  1  0  0  0  0
 29 28  1  0  0  0  0
M  END
>  <minimizedAffinity>
-5.44053555

$$$$

 OpenBabel03242522243D

 29 31  0  0  0  0  0  0  0  0999 V2000
   35.8150   30.5730   40.8820 C   0  0  0  0  0  0  0  0  0  0  0  0
   36.9530   31.3480   40.6230 C   0  0  0  0  0  0  0  0  0  0  0  0
   38.1920   30.7500   40.3880 C   0  0  0  0  0  0  0  0  0  0  0  0
   38.2220   29.4000   40.4220 N   0  0  0  0  0  0  0  0  0  0  0  0
   37.1280   28.6590   40.6710 C   0  0  0  0  0  0  0  0  0  0  0  0
   35.9440   29.2440   40.8960 N   0  0  0  0  0  0  0  0  0  0  0  0
   34.9290   31.1570   41.0460 H   0  0  0  0  0  0  0  0  0  0  0  0
   36.9530   32.4350   40.5900 H   0  0  0  0  0  0  0  0  0  0  0  0
   39.8960   31.0970   42.7560 Cl  0  0  0  0  0  0  0  0  0  0  0  0
   40.2650   31.7620   41.1720 C   0  0  0  0  0  0  0  0  0  0  0  0
   39.3890   31.5390   40.1160 C   0  0  0  0  0  0  0  0  0  0  0  0
   39.7170   32.0770   38.8990 C   0  0  0  0  0  0  0  0  0  0  0  0
   40.8780   32.8190   38.7160 C   0  0  0  0  0  0  0  0  0  0  0  0
   41.7140   33.0050   39.8200 C   0  0  0  0  0  0  0  0  0  0  0  0
   43.1740   33.9360   39.6020 Cl  0  0  0  0  0  0  0  0  0  0  0  0
   41.4270   32.4840   41.0650 C   0  0  0  0  0  0  0  0  0  0  0  0
   39.0430   31.9090   38.0710 H   0  0  0  0  0  0  0  0  0  0  0  0
   41.1330   33.2420   37.7540 H   0  0  0  0  0  0  0  0  0  0  0  0
   42.0860   32.6390   41.9080 H   0  0  0  0  0  0  0  0  0  0  0  0
   37.6990   27.4630   43.3600 Cl  0  0  0  0  0  0  0  0  0  0  0  0
   37.4980   26.5470   41.8770 C   0  0  0  0  0  0  0  0  0  0  0  0
   37.2380   27.2030   40.6920 C   0  0  0  0  0  0  0  0  0  0  0  0
   37.0720   26.5090   39.4890 C   0  0  0  0  0  0  0  0  0  0  0  0
   36.8660   26.9860   38.5380 H   0  0  0  0  0  0  0  0  0  0  0  0
   37.1680   25.1200   39.4620 C   0  0  0  0  0  3  0  0  0  0  0  0
   37.4290   24.5110   40.6720 C   0  0  0  0  0  0  0  0  0  0  0  0
   37.5640   22.7630   40.7180 Cl  0  0  0  0  0  0  0  0  0  0  0  0
   37.5990   25.1560   41.8790 C   0  0  0  0  0  0  0  0  0  0  0  0
   37.8030   24.6200   42.7950 H   0  0  0  0  0  0  0  0  0  0  0  0
  1  6  1  0  0  0  0
  1  7  1  0  0  0  0
  2  1  2  0  0  0  0
  3  4  2  0  0  0  0
  3  2  1  0  0  0  0
  4  5  1  0  0  0  0
  5 22  1  0  0  0  0
  5  6  2  0  0  0  0
  8  2  1  0  0  0  0
 10  9  1  0  0  0  0
 11  3  1  0  0  0  0
 11 10  2  0  0  0  0
 12 11  1  0  0  0  0
 13 12  2  0  0  0  0
 13 14  1  0  0  0  0
 14 16  2  0  0  0  0
 15 14  1  0  0  0  0
 16 10  1  0  0  0  0
 16 19  1  0  0  0  0
 17 12  1  0  0  0  0
 18 13  1  0  0  0  0
 21 28  1  0  0  0  0
 21 20  1  0  0  0  0
 22 21  2  0  0  0  0
 23 22  1  0  0  0  0
 24 23  1  0  0  0  0
 25 23  2  0  0  0  0
 25 26  1  0  0  0  0
 26 27  1  0  0  0  0
 26 28  2  0  0  0  0
 28 29  1  0  0  0  0
M  END
>  <minimizedAffinity>
-5.38329458

$$$$

 OpenBabel03242522243D

 29 31  0  0  0  0  0  0  0  0999 V2000
   35.8980   30.6090   40.9640 C   0  0  0  0  0  0  0  0  0  0  0  0
   35.9670   29.2110   40.8980 C   0  0  0  0  0  0  0  0  0  0  0  0
   37.1640   28.5650   40.5860 C   0  0  0  0  0  0  0  0  0  0  0  0
   38.2320   29.3580   40.3570 N   0  0  0  0  0  0  0  0  0  0  0  0
   38.1620   30.6990   40.4220 C   0  0  0  0  0  0  0  0  0  0  0  0
   37.0080   31.3100   40.7220 N   0  0  0  0  0  0  0  0  0  0  0  0
   34.9200   30.9770   41.2120 H   0  0  0  0  0  0  0  0  0  0  0  0
   35.1210   28.5520   41.0780 H   0  0  0  0  0  0  0  0  0  0  0  0
   38.0580   27.3440   43.1050 Cl  0  0  0  0  0  0  0  0  0  0  0  0
   37.6720   26.4330   41.6530 C   0  0  0  0  0  0  0  0  0  0  0  0
   37.2570   27.1100   40.5120 C   0  0  0  0  0  0  0  0  0  0  0  0
   36.9670   26.3590   39.4030 C   0  0  0  0  0  0  0  0  0  0  0  0
   37.0790   24.9740   39.4080 C   0  0  0  0  0  0  0  0  0  0  0  0
   37.5020   24.3570   40.5880 C   0  0  0  0  0  0  0  0  0  0  0  0
   37.6470   22.6190   40.6050 Cl  0  0  0  0  0  0  0  0  0  0  0  0
   37.8060   25.0700   41.7300 C   0  0  0  0  0  0  0  0  0  0  0  0
   36.6440   26.8760   38.5100 H   0  0  0  0  0  0  0  0  0  0  0  0
   36.8500   24.3850   38.5300 H   0  0  0  0  0  0  0  0  0  0  0  0
   38.1320   24.5750   42.6350 H   0  0  0  0  0  0  0  0  0  0  0  0
   39.9730   31.0860   42.7800 Cl  0  0  0  0  0  0  0  0  0  0  0  0
   40.2640   31.7330   41.1760 C   0  0  0  0  0  0  0  0  0  0  0  0
   39.3610   31.4930   40.1620 C   0  0  0  0  0  0  0  0  0  0  0  0
   39.5560   31.9920   38.8700 C   0  0  0  0  0  0  0  0  0  0  0  0
   38.8720   31.8250   38.0460 H   0  0  0  0  0  0  0  0  0  0  0  0
   40.6850   32.7530   38.5750 C   0  0  0  0  0  3  0  0  0  0  0  0
   41.5570   32.9660   39.6220 C   0  0  0  0  0  0  0  0  0  0  0  0
   43.0020   33.9160   39.3290 Cl  0  0  0  0  0  0  0  0  0  0  0  0
   41.4030   32.4930   40.9090 C   0  0  0  0  0  0  0  0  0  0  0  0
   42.1250   32.6950   41.6870 H   0  0  0  0  0  0  0  0  0  0  0  0
  1  7  1  0  0  0  0
  2  1  1  0  0  0  0
  2  8  1  0  0  0  0
  3  2  2  0  0  0  0
  4  5  2  0  0  0  0
  4  3  1  0  0  0  0
  5  6  1  0  0  0  0
  6  1  2  0  0  0  0
 10 16  1  0  0  0  0
 10  9  1  0  0  0  0
 11  3  1  0  0  0  0
 11 10  2  0  0  0  0
 12 13  2  0  0  0  0
 12 11  1  0  0  0  0
 13 14  1  0  0  0  0
 14 15  1  0  0  0  0
 14 16  2  0  0  0  0
 16 19  1  0  0  0  0
 17 12  1  0  0  0  0
 18 13  1  0  0  0  0
 21 20  1  0  0  0  0
 22  5  1  0  0  0  0
 22 21  2  0  0  0  0
 23 22  1  0  0  0  0
 24 23  1  0  0  0  0
 25 23  2  0  0  0  0
 25 26  1  0  0  0  0
 26 28  2  0  0  0  0
 27 26  1  0  0  0  0
 28 21  1  0  0  0  0
 28 29  1  0  0  0  0
M  END
>  <minimizedAffinity>
-5.32048035

$$$$

 OpenBabel03242522243D

 29 31  0  0  0  0  0  0  0  0999 V2000
   33.6790   26.7250   36.7320 C   0  0  0  0  0  0  0  0  0  0  0  0
   34.6110   27.1690   37.6800 C   0  0  0  0  0  0  0  0  0  0  0  0
   34.6500   28.5050   38.0790 C   0  0  0  0  0  0  0  0  0  0  0  0
   33.7460   29.3280   37.5060 N   0  0  0  0  0  0  0  0  0  0  0  0
   32.8520   28.8990   36.5980 C   0  0  0  0  0  0  0  0  0  0  0  0
   32.8250   27.6140   36.2210 N   0  0  0  0  0  0  0  0  0  0  0  0
   33.7570   25.6760   36.5140 H   0  0  0  0  0  0  0  0  0  0  0  0
   35.3480   26.5240   38.1540 H   0  0  0  0  0  0  0  0  0  0  0  0
   36.9820   29.8110   36.8570 Cl  0  0  0  0  0  0  0  0  0  0  0  0
   36.7550   29.6220   38.5900 C   0  0  0  0  0  0  0  0  0  0  0  0
   35.6130   28.9870   39.0640 C   0  0  0  0  0  0  0  0  0  0  0  0
   35.4780   28.8620   40.4220 C   0  0  0  0  0  0  0  0  0  0  0  0
   36.4390   29.3480   41.3010 C   0  0  0  0  0  0  0  0  0  0  0  0
   37.5630   29.9760   40.7570 C   0  0  0  0  0  0  0  0  0  0  0  0
   38.7760   30.5890   41.8500 Cl  0  0  0  0  0  0  0  0  0  0  0  0
   37.7440   30.1250   39.3970 C   0  0  0  0  0  0  0  0  0  0  0  0
   34.5930   28.3700   40.8020 H   0  0  0  0  0  0  0  0  0  0  0  0
   36.3290   29.2470   42.3720 H   0  0  0  0  0  0  0  0  0  0  0  0
   38.6210   30.6140   38.9940 H   0  0  0  0  0  0  0  0  0  0  0  0
   30.7950   29.9650   38.5000 Cl  0  0  0  0  0  0  0  0  0  0  0  0
   30.9150   30.4030   36.8060 C   0  0  0  0  0  0  0  0  0  0  0  0
   31.9050   29.8490   36.0210 C   0  0  0  0  0  0  0  0  0  0  0  0
   32.0340   30.1720   34.6660 C   0  0  0  0  0  0  0  0  0  0  0  0
   32.7970   29.7600   34.0150 H   0  0  0  0  0  0  0  0  0  0  0  0
   31.1530   31.0730   34.0720 C   0  0  0  0  0  3  0  0  0  0  0  0
   30.1820   31.5990   34.8990 C   0  0  0  0  0  0  0  0  0  0  0  0
   29.0360   32.7410   34.2230 Cl  0  0  0  0  0  0  0  0  0  0  0  0
   30.0200   31.3080   36.2370 C   0  0  0  0  0  0  0  0  0  0  0  0
   29.2360   31.7550   36.8330 H   0  0  0  0  0  0  0  0  0  0  0  0
  1  2  1  0  0  0  0
  2  3  2  0  0  0  0
  2  8  1  0  0  0  0
  3 11  1  0  0  0  0
  4  3  1  0  0  0  0
  5  4  2  0  0  0  0
  6  5  1  0  0  0  0
  6  1  2  0  0  0  0
  7  1  1  0  0  0  0
  9 10  1  0  0  0  0
 10 11  2  0  0  0  0
 10 16  1  0  0  0  0
 11 12  1  0  0  0  0
 12 17  1  0  0  0  0
 12 13  2  0  0  0  0
 13 18  1  0  0  0  0
 14 13  1  0  0  0  0
 14 15  1  0  0  0  0
 16 14  2  0  0  0  0
 19 16  1  0  0  0  0
 21 20  1  0  0  0  0
 22  5  1  0  0  0  0
 22 21  2  0  0  0  0
 23 22  1  0  0  0  0
 24 23  1  0  0  0  0
 25 23  2  0  0  0  0
 25 26  1  0  0  0  0
 26 28  2  0  0  0  0
 27 26  1  0  0  0  0
 28 21  1  0  0  0  0
 28 29  1  0  0  0  0
M  END
>  <minimizedAffinity>
-5.26295424

$$$$

 OpenBabel03242522243D

 29 31  0  0  0  0  0  0  0  0999 V2000
   37.6790   31.7300   40.8660 C   0  0  0  0  0  0  0  0  0  0  0  0
   36.7520   31.3060   39.9040 C   0  0  0  0  0  0  0  0  0  0  0  0
   36.6490   29.9600   39.5490 C   0  0  0  0  0  0  0  0  0  0  0  0
   37.4820   29.1070   40.1820 N   0  0  0  0  0  0  0  0  0  0  0  0
   38.3700   29.5170   41.1050 C   0  0  0  0  0  0  0  0  0  0  0  0
   38.4610   30.8120   41.4380 N   0  0  0  0  0  0  0  0  0  0  0  0
   37.6550   32.7880   41.0440 H   0  0  0  0  0  0  0  0  0  0  0  0
   36.0710   31.9740   39.3810 H   0  0  0  0  0  0  0  0  0  0  0  0
   37.7350   29.9950   36.8190 Cl  0  0  0  0  0  0  0  0  0  0  0  0
   36.1050   29.4750   37.2230 C   0  0  0  0  0  0  0  0  0  0  0  0
   35.6910   29.4980   38.5500 C   0  0  0  0  0  0  0  0  0  0  0  0
   34.4120   29.0840   38.8190 C   0  0  0  0  0  0  0  0  0  0  0  0
   33.5550   28.6560   37.8120 C   0  0  0  0  0  0  0  0  0  0  0  0
   34.0350   28.6590   36.5000 C   0  0  0  0  0  0  0  0  0  0  0  0
   32.9680   28.1240   35.2290 Cl  0  0  0  0  0  0  0  0  0  0  0  0
   35.3140   29.0660   36.1790 C   0  0  0  0  0  0  0  0  0  0  0  0
   34.0790   29.0980   39.8470 H   0  0  0  0  0  0  0  0  0  0  0  0
   32.5460   28.3310   38.0290 H   0  0  0  0  0  0  0  0  0  0  0  0
   35.6690   29.0620   35.1580 H   0  0  0  0  0  0  0  0  0  0  0  0
   37.3320   28.3850   43.6800 Cl  0  0  0  0  0  0  0  0  0  0  0  0
   38.8610   27.9500   42.9380 C   0  0  0  0  0  0  0  0  0  0  0  0
   39.2400   28.5360   41.7490 C   0  0  0  0  0  0  0  0  0  0  0  0
   40.4510   28.2170   41.1260 C   0  0  0  0  0  0  0  0  0  0  0  0
   40.7860   28.6540   40.1920 H   0  0  0  0  0  0  0  0  0  0  0  0
   41.3130   27.2870   41.7030 C   0  0  0  0  0  3  0  0  0  0  0  0
   40.8890   26.7300   42.8910 C   0  0  0  0  0  0  0  0  0  0  0  0
   41.9200   25.5500   43.6780 Cl  0  0  0  0  0  0  0  0  0  0  0  0
   39.7040   27.0160   43.5380 C   0  0  0  0  0  0  0  0  0  0  0  0
   39.4280   26.5430   44.4700 H   0  0  0  0  0  0  0  0  0  0  0  0
  1  7  1  0  0  0  0
  1  6  1  0  0  0  0
  2  1  2  0  0  0  0
  3  2  1  0  0  0  0
  3  4  2  0  0  0  0
  4  5  1  0  0  0  0
  5  6  2  0  0  0  0
  5 22  1  0  0  0  0
  8  2  1  0  0  0  0
  9 10  1  0  0  0  0
 10 11  1  0  0  0  0
 11 12  2  0  0  0  0
 11  3  1  0  0  0  0
 12 17  1  0  0  0  0
 13 18  1  0  0  0  0
 13 12  1  0  0  0  0
 14 13  2  0  0  0  0
 15 14  1  0  0  0  0
 16 14  1  0  0  0  0
 16 10  2  0  0  0  0
 19 16  1  0  0  0  0
 21 28  1  0  0  0  0
 21 20  1  0  0  0  0
 22 21  2  0  0  0  0
 23 25  2  0  0  0  0
 23 22  1  0  0  0  0
 24 23  1  0  0  0  0
 25 26  1  0  0  0  0
 26 28  2  0  0  0  0
 26 27  1  0  0  0  0
 28 29  1  0  0  0  0
M  END
>  <minimizedAffinity>
-5.19909286

$$$$

 OpenBabel03242522243D

 29 31  0  0  0  0  0  0  0  0999 V2000
   37.1460   32.8360   39.7440 C   0  0  0  0  0  0  0  0  0  0  0  0
   38.4670   33.2900   39.6300 C   0  0  0  0  0  0  0  0  0  0  0  0
   39.5430   32.4570   39.9390 C   0  0  0  0  0  0  0  0  0  0  0  0
   39.2360   31.2080   40.3480 N   0  0  0  0  0  0  0  0  0  0  0  0
   37.9680   30.7750   40.4570 C   0  0  0  0  0  0  0  0  0  0  0  0
   36.9420   31.5830   40.1570 N   0  0  0  0  0  0  0  0  0  0  0  0
   36.4160   33.5760   39.4760 H   0  0  0  0  0  0  0  0  0  0  0  0
   38.7380   34.2910   39.3020 H   0  0  0  0  0  0  0  0  0  0  0  0
   40.7020   31.9520   37.2870 Cl  0  0  0  0  0  0  0  0  0  0  0  0
   41.5690   32.7190   38.6100 C   0  0  0  0  0  0  0  0  0  0  0  0
   40.9250   32.9100   39.8270 C   0  0  0  0  0  0  0  0  0  0  0  0
   41.6400   33.5120   40.8300 C   0  0  0  0  0  0  0  0  0  0  0  0
   42.9570   33.9190   40.6480 C   0  0  0  0  0  0  0  0  0  0  0  0
   43.5430   33.6950   39.4000 C   0  0  0  0  0  0  0  0  0  0  0  0
   45.1950   34.2000   39.1610 Cl  0  0  0  0  0  0  0  0  0  0  0  0
   42.8650   33.0930   38.3590 C   0  0  0  0  0  0  0  0  0  0  0  0
   41.1490   33.6660   41.7810 H   0  0  0  0  0  0  0  0  0  0  0  0
   43.5170   34.3920   41.4430 H   0  0  0  0  0  0  0  0  0  0  0  0
   43.3350   32.9280   37.3990 H   0  0  0  0  0  0  0  0  0  0  0  0
   37.8490   28.7170   38.2800 Cl  0  0  0  0  0  0  0  0  0  0  0  0
   37.6380   28.3810   39.9880 C   0  0  0  0  0  0  0  0  0  0  0  0
   37.7120   29.4090   40.9060 C   0  0  0  0  0  0  0  0  0  0  0  0
   37.5490   29.1830   42.2760 C   0  0  0  0  0  0  0  0  0  0  0  0
   37.6000   29.9610   43.0290 H   0  0  0  0  0  0  0  0  0  0  0  0
   37.3040   27.8960   42.7510 C   0  0  0  0  0  3  0  0  0  0  0  0
   37.2380   26.9040   41.7940 C   0  0  0  0  0  0  0  0  0  0  0  0
   36.9320   25.2580   42.3150 Cl  0  0  0  0  0  0  0  0  0  0  0  0
   37.3930   27.0840   40.4360 C   0  0  0  0  0  0  0  0  0  0  0  0
   37.3310   26.2620   39.7350 H   0  0  0  0  0  0  0  0  0  0  0  0
  1  6  1  0  0  0  0
  2  1  2  0  0  0  0
  2  3  1  0  0  0  0
  3  4  2  0  0  0  0
  4  5  1  0  0  0  0
  5 22  1  0  0  0  0
  6  5  2  0  0  0  0
  7  1  1  0  0  0  0
  8  2  1  0  0  0  0
  9 10  1  0  0  0  0
 10 11  1  0  0  0  0
 11  3  1  0  0  0  0
 11 12  2  0  0  0  0
 12 17  1  0  0  0  0
 13 12  1  0  0  0  0
 13 18  1  0  0  0  0
 14 13  2  0  0  0  0
 15 14  1  0  0  0  0
 16 10  2  0  0  0  0
 16 14  1  0  0  0  0
 19 16  1  0  0  0  0
 20 21  1  0  0  0  0
 21 28  2  0  0  0  0
 21 22  1  0  0  0  0
 22 23  2  0  0  0  0
 23 25  1  0  0  0  0
 23 24  1  0  0  0  0
 26 27  1  0  0  0  0
 26 25  2  0  0  0  0
 28 26  1  0  0  0  0
 29 28  1  0  0  0  0
M  END
>  <minimizedAffinity>
-5.1788106

$$$$

 OpenBabel03242522243D

 29 31  0  0  0  0  0  0  0  0999 V2000
   39.2660   27.1820   43.5820 C   0  0  0  0  0  0  0  0  0  0  0  0
   39.3990   26.0980   42.7040 C   0  0  0  0  0  0  0  0  0  0  0  0
   39.1880   26.2510   41.3340 C   0  0  0  0  0  0  0  0  0  0  0  0
   38.8530   27.4900   40.9140 N   0  0  0  0  0  0  0  0  0  0  0  0
   38.7260   28.5290   41.7590 C   0  0  0  0  0  0  0  0  0  0  0  0
   38.9320   28.3700   43.0730 N   0  0  0  0  0  0  0  0  0  0  0  0
   39.4550   26.9270   44.6080 H   0  0  0  0  0  0  0  0  0  0  0  0
   39.6680   25.0910   43.0190 H   0  0  0  0  0  0  0  0  0  0  0  0
   36.7650   24.5950   41.1760 Cl  0  0  0  0  0  0  0  0  0  0  0  0
   38.2300   24.2880   40.2530 C   0  0  0  0  0  0  0  0  0  0  0  0
   39.3210   25.1350   40.4030 C   0  0  0  0  0  0  0  0  0  0  0  0
   40.4420   24.8570   39.6640 C   0  0  0  0  0  0  0  0  0  0  0  0
   40.4960   23.7740   38.7960 C   0  0  0  0  0  0  0  0  0  0  0  0
   39.3630   22.9620   38.6940 C   0  0  0  0  0  0  0  0  0  0  0  0
   39.4190   21.5990   37.6080 Cl  0  0  0  0  0  0  0  0  0  0  0  0
   38.2110   23.2010   39.4170 C   0  0  0  0  0  0  0  0  0  0  0  0
   41.2970   25.5100   39.7730 H   0  0  0  0  0  0  0  0  0  0  0  0
   41.3820   23.5570   38.2150 H   0  0  0  0  0  0  0  0  0  0  0  0
   37.3440   22.5610   39.3250 H   0  0  0  0  0  0  0  0  0  0  0  0
   35.8140   28.8940   41.1470 Cl  0  0  0  0  0  0  0  0  0  0  0  0
   37.0480   30.1200   40.9160 C   0  0  0  0  0  0  0  0  0  0  0  0
   38.3620   29.8410   41.2310 C   0  0  0  0  0  0  0  0  0  0  0  0
   39.3750   30.7910   41.0620 C   0  0  0  0  0  0  0  0  0  0  0  0
   40.4180   30.6130   41.2970 H   0  0  0  0  0  0  0  0  0  0  0  0
   39.0740   32.0560   40.5620 C   0  0  0  0  0  3  0  0  0  0  0  0
   37.7470   32.2840   40.2620 C   0  0  0  0  0  0  0  0  0  0  0  0
   37.2900   33.8540   39.6280 Cl  0  0  0  0  0  0  0  0  0  0  0  0
   36.7190   31.3780   40.4140 C   0  0  0  0  0  0  0  0  0  0  0  0
   35.6960   31.6190   40.1600 H   0  0  0  0  0  0  0  0  0  0  0  0
  1  7  1  0  0  0  0
  2  8  1  0  0  0  0
  2  1  2  0  0  0  0
  3  2  1  0  0  0  0
  4  3  2  0  0  0  0
  4  5  1  0  0  0  0
  5  6  2  0  0  0  0
  6  1  1  0  0  0  0
 10 11  1  0  0  0  0
 10  9  1  0  0  0  0
 11  3  1  0  0  0  0
 12 17  1  0  0  0  0
 12 11  2  0  0  0  0
 13 12  1  0  0  0  0
 14 13  2  0  0  0  0
 14 16  1  0  0  0  0
 15 14  1  0  0  0  0
 16 10  2  0  0  0  0
 18 13  1  0  0  0  0
 19 16  1  0  0  0  0
 21 20  1  0  0  0  0
 21 22  1  0  0  0  0
 22  5  1  0  0  0  0
 23 22  2  0  0  0  0
 23 24  1  0  0  0  0
 25 23  1  0  0  0  0
 26 28  1  0  0  0  0
 26 25  2  0  0  0  0
 27 26  1  0  0  0  0
 28 21  2  0  0  0  0
 29 28  1  0  0  0  0
M  END
>  <minimizedAffinity>
-5.13243723

$$$$
