
 OpenBabel03252500393D

 22 23  0  0  0  0  0  0  0  0999 V2000
   44.0840   35.1420   41.2100 C   0  0  0  0  0  0  0  0  0  0  0  0
   44.3050   36.1920   40.9020 H   0  0  0  0  0  0  0  0  0  0  0  0
   44.7680   34.5010   40.6210 H   0  0  0  0  0  0  0  0  0  0  0  0
   43.5420   32.4640   39.9320 Cl  0  0  0  0  0  0  0  0  0  0  0  0
   42.3370   33.6620   40.3380 C   0  0  0  0  0  0  0  0  0  0  0  0
   42.6650   34.8670   40.9240 C   0  0  0  0  0  0  0  0  0  0  0  0
   41.6190   35.7260   41.1940 C   0  0  0  0  0  0  0  0  0  0  0  0
   41.9020   36.6710   41.6560 H   0  0  0  0  0  0  0  0  0  0  0  0
   40.2950   35.4410   40.9140 C   0  0  0  0  0  0  0  0  0  0  0  0
   40.0160   34.2060   40.3210 C   0  0  0  0  0  0  0  0  0  0  0  0
   38.3240   33.8450   39.9630 Cl  0  0  0  0  0  0  0  0  0  0  0  0
   41.0320   33.3090   40.0290 C   0  0  0  0  0  0  0  0  0  0  0  0
   40.7020   32.3990   39.5790 H   0  0  0  0  0  0  0  0  0  0  0  0
   44.4460   34.9230   42.6420 C   0  0  0  0  0  0  0  0  0  0  0  0
   44.9990   33.6840   43.0030 C   0  0  0  0  0  0  0  0  0  0  0  0
   45.3360   33.4830   44.3450 C   0  0  0  0  0  0  0  0  0  0  0  0
   45.1090   34.4990   45.2270 N   0  0  0  0  0  0  0  0  0  0  0  0
   44.5740   35.6750   44.8330 C   0  0  0  0  0  0  0  0  0  0  0  0
   44.2400   35.8980   43.5490 N   0  0  0  0  0  0  0  0  0  0  0  0
   45.1610   32.9020   42.2510 H   0  0  0  0  0  0  0  0  0  0  0  0
   45.7600   32.5540   44.6670 H   0  0  0  0  0  0  0  0  0  0  0  0
   44.4570   36.3710   45.6340 H   0  0  0  0  0  0  0  0  0  0  0  0
  1 14  1  0  0  0  0
  2  1  1  0  0  0  0
  3  1  1  0  0  0  0
  4  5  1  0  0  0  0
  5  6  1  0  0  0  0
  6  7  2  0  0  0  0
  6  1  1  0  0  0  0
  7  8  1  0  0  0  0
  9  7  1  0  0  0  0
 10  9  2  0  0  0  0
 11 10  1  0  0  0  0
 12 10  1  0  0  0  0
 12  5  2  0  0  0  0
 13 12  1  0  0  0  0
 14 15  2  0  0  0  0
 14 19  1  0  0  0  0
 15 16  1  0  0  0  0
 16 21  1  0  0  0  0
 16 17  2  0  0  0  0
 18 17  1  0  0  0  0
 18 22  1  0  0  0  0
 19 18  2  0  0  0  0
 20 15  1  0  0  0  0
M  END
>  <minimizedAffinity>
-4.67012596

>  <minimizedRMSD>
2.13917494

$$$$
