REMARK  Name = 
REMARK  3 active torsions:
REMARK  status: ('A' for Active; 'I' for Inactive)
REMARK    1  A    between atoms: C_3  and  C_23
REMARK    2  A    between atoms: C_5  and  C_9
REMARK    3  A    between atoms: C_21  and  C_37
REMARK                            x       y       z     vdW  Elec       q    Type
REMARK                         _______ _______ _______ _____ _____    ______ ____
ROOT
ATOM      1 CL   UNL     1      44.782  35.974  43.291  0.00  0.00    +0.000 Cl
ATOM      2  C   UNL     1      45.533  34.734  44.243  0.00  0.00    +0.000 A 
ATOM      3  C   UNL     1      46.632  34.051  43.752  0.00  0.00    +0.000 A 
ATOM      4  C   UNL     1      47.150  33.083  44.596  0.00  0.00    +0.000 A 
ATOM      5  C   UNL     1      46.666  32.768  45.842  0.00  0.00    +0.000 A 
ATOM      6  C   UNL     1      45.576  33.468  46.293  0.00  0.00    +0.000 A 
ATOM      7 CL   UNL     1      44.979  33.047  47.884  0.00  0.00    +0.000 Cl
ATOM      8  C   UNL     1      45.015  34.439  45.508  0.00  0.00    +0.000 A 
ATOM      9  H   UNL     1      48.020  32.551  44.192  0.00  0.00    +0.000 HD
ATOM     10  H   UNL     1      44.156  34.984  45.874  0.00  0.00    +0.000 HD
ENDROOT
BRANCH   5  11
ATOM     11  C   UNL     1      47.356  31.715  46.573  0.00  0.00    +0.000 A 
ATOM     12  C   UNL     1      47.465  30.418  46.096  0.00  0.00    +0.000 A 
ATOM     13  C   UNL     1      48.112  29.399  46.764  0.00  0.00    +0.000 A 
ATOM     14  C   UNL     1      48.694  29.666  47.983  0.00  0.00    +0.000 A 
ATOM     15  N   UNL     1      49.320  28.665  48.621  0.00  0.00    +0.000 NA
ATOM     16  C   UNL     1      49.920  28.843  49.828  0.00  0.00    +0.000 A 
ATOM     17  C   UNL     1      49.853  30.112  50.367  0.00  0.00    +0.000 A 
ATOM     18  C   UNL     1      49.213  31.136  49.716  0.00  0.00    +0.000 A 
ATOM     19  C   UNL     1      48.609  30.934  48.488  0.00  0.00    +0.000 A 
ATOM     20  C   UNL     1      47.956  31.943  47.805  0.00  0.00    +0.000 A 
ATOM     21  H   UNL     1      47.007  30.188  45.127  0.00  0.00    +0.000 HD
ATOM     22  H   UNL     1      48.165  28.399  46.339  0.00  0.00    +0.000 HD
ATOM     23  H   UNL     1      50.405  27.991  50.283  0.00  0.00    +0.000 HD
ATOM     24  H   UNL     1      50.333  30.262  51.337  0.00  0.00    +0.000 HD
ATOM     25  H   UNL     1      49.181  32.110  50.165  0.00  0.00    +0.000 HD
ATOM     26  H   UNL     1      47.912  32.925  48.237  0.00  0.00    +0.000 HD
ENDBRANCH   5  11
BRANCH   3  31
ATOM     27  C   UNL     1      48.772  35.444  41.162  0.00  0.00    +0.000 A 
ATOM     28  C   UNL     1      48.276  34.862  39.986  0.00  0.00    +0.000 A 
ATOM     29  C   UNL     1      47.186  33.975  40.090  0.00  0.00    +0.000 A 
ATOM     30  N   UNL     1      46.715  33.766  41.334  0.00  0.00    +0.000 NA
ATOM     31  C   UNL     1      47.200  34.330  42.444  0.00  0.00    +0.000 A 
ATOM     32  N   UNL     1      48.232  35.173  42.369  0.00  0.00    +0.000 NA
ATOM     33  H   UNL     1      49.602  36.115  41.049  0.00  0.00    +0.000 HD
ATOM     34  H   UNL     1      48.706  35.081  39.041  0.00  0.00    +0.000 HD
BRANCH  29  37
ATOM     35 CL   UNL     1      48.904  34.134  37.707  0.00  0.00    +0.000 Cl
ATOM     36  C   UNL     1      47.328  33.340  37.753  0.00  0.00    +0.000 A 
ATOM     37  C   UNL     1      46.604  33.324  38.926  0.00  0.00    +0.000 A 
ATOM     38  C   UNL     1      45.393  32.698  38.912  0.00  0.00    +0.000 A 
ATOM     39  H   UNL     1      44.796  32.665  39.812  0.00  0.00    +0.000 HD
ATOM     40  C   UNL     1      44.925  32.102  37.735  0.00  0.00    +0.000 A 
ATOM     41  C   UNL     1      45.674  32.138  36.587  0.00  0.00    +0.000 A 
ATOM     42 CL   UNL     1      45.076  31.384  35.113  0.00  0.00    +0.000 Cl
ATOM     43  C   UNL     1      46.901  32.766  36.584  0.00  0.00    +0.000 A 
ATOM     44  H   UNL     1      47.486  32.793  35.681  0.00  0.00    +0.000 HD
ENDBRANCH  29  37
ENDBRANCH   3  31
TORSDOF 3
