REMARK  Name = 
REMARK  10 active torsions:
REMARK  status: ('A' for Active; 'I' for Inactive)
REMARK    1  A    between atoms: C_1  and  C_9
REMARK    2  A    between atoms: C_2  and  C_13
REMARK    3  A    between atoms: C_13  and  N_14
REMARK    4  A    between atoms: N_14  and  S_15
REMARK    5  A    between atoms: S_15  and  O_16
REMARK    6  A    between atoms: S_15  and  O_17
REMARK    7  A    between atoms: S_15  and  O_18
REMARK    8  A    between atoms: O_18  and  C_19
REMARK    9  A    between atoms: C_19  and  C_20
REMARK   10  A    between atoms: C_20  and  C_39
REMARK                            x       y       z     vdW  Elec       q    Type
REMARK                         _______ _______ _______ _____ _____    ______ ____
ROOT
ATOM      1  N   UNL     1      42.708  31.515  42.565  0.00  0.00    +0.000 NA
ATOM      2  H   UNL     1      42.944  31.815  43.549  0.00  0.00    +0.000 HD
ENDROOT
BRANCH   1   3
ATOM      3  C   UNL     1      43.043  32.540  41.627  0.00  0.00    +0.000 C 
ATOM      4  H   UNL     1      43.584  32.089  40.773  0.00  0.00    +0.000 HD
ATOM      5  H   UNL     1      42.131  33.022  41.193  0.00  0.00    +0.000 HD
BRANCH   3   7
ATOM      6  C   UNL     1      43.651  34.962  41.880  0.00  0.00    +0.000 A 
ATOM      7  C   UNL     1      43.910  33.620  42.185  0.00  0.00    +0.000 A 
ATOM      8  C   UNL     1      44.978  33.332  43.008  0.00  0.00    +0.000 A 
ATOM      9  C   UNL     1      45.760  34.331  43.509  0.00  0.00    +0.000 A 
ATOM     10  C   UNL     1      45.524  35.658  43.222  0.00  0.00    +0.000 A 
ATOM     11  C   UNL     1      44.442  35.917  42.392  0.00  0.00    +0.000 A 
ATOM     12  H   UNL     1      45.133  32.279  43.211  0.00  0.00    +0.000 HD
ATOM     13  H   UNL     1      46.579  34.022  44.145  0.00  0.00    +0.000 HD
ATOM     14  H   UNL     1      46.164  36.419  43.638  0.00  0.00    +0.000 HD
ATOM     15  H   UNL     1      44.223  36.948  42.143  0.00  0.00    +0.000 HD
BRANCH   6  18
ATOM     16  C   UNL     1      40.234  35.805  40.517  0.00  0.00    +0.000 A 
ATOM     17  C   UNL     1      41.257  35.590  41.463  0.00  0.00    +0.000 A 
ATOM     18  C   UNL     1      42.517  35.213  41.010  0.00  0.00    +0.000 A 
ATOM     19  N   UNL     1      42.676  35.075  39.660  0.00  0.00    +0.000 NA
ATOM     20  C   UNL     1      41.677  35.288  38.769  0.00  0.00    +0.000 A 
ATOM     21  N   UNL     1      40.467  35.650  39.212  0.00  0.00    +0.000 NA
ATOM     22  H   UNL     1      39.322  36.086  41.001  0.00  0.00    +0.000 HD
ATOM     23  H   UNL     1      41.167  35.686  42.517  0.00  0.00    +0.000 HD
ATOM     24  H   UNL     1      41.790  35.181  37.712  0.00  0.00    +0.000 HD
ENDBRANCH   6  18
ENDBRANCH   3   7
ENDBRANCH   1   3
BRANCH   1  25
ATOM     25  S   UNL     1      41.029  31.144  42.567  0.00  0.00    +0.000 S 
BRANCH  25  26
ATOM     26  O   UNL     1      40.200  32.402  42.449  0.00  0.00    +0.000 OA
ATOM     27  H   UNL     1      40.092  32.909  41.593  0.00  0.00    +0.000 HD
ENDBRANCH  25  26
BRANCH  25  28
ATOM     28  O   UNL     1      40.645  30.364  43.766  0.00  0.00    +0.000 OA
ATOM     29  H   UNL     1      41.149  30.184  44.594  0.00  0.00    +0.000 HD
ENDBRANCH  25  28
BRANCH  25  30
ATOM     30  O   UNL     1      40.753  30.190  41.208  0.00  0.00    +0.000 OA
BRANCH  30  31
ATOM     31  C   UNL     1      40.080  29.054  41.581  0.00  0.00    +0.000 C 
ATOM     32  H   UNL     1      39.156  29.004  40.968  0.00  0.00    +0.000 HD
ATOM     33  H   UNL     1      39.768  28.998  42.632  0.00  0.00    +0.000 HD
BRANCH  31  34
ATOM     34  C   UNL     1      40.942  27.824  41.241  0.00  0.00    +0.000 C 
ATOM     35  H   UNL     1      41.879  27.964  41.781  0.00  0.00    +0.000 HD
ATOM     36  H   UNL     1      41.146  27.872  40.175  0.00  0.00    +0.000 HD
BRANCH  34  39
ATOM     37 CL   UNL     1      38.452  28.066  43.017  0.00  0.00    +0.000 Cl
ATOM     38  C   UNL     1      39.104  26.550  42.430  0.00  0.00    +0.000 A 
ATOM     39  C   UNL     1      40.226  26.585  41.632  0.00  0.00    +0.000 A 
ATOM     40  C   UNL     1      40.757  25.382  41.153  0.00  0.00    +0.000 A 
ATOM     41  H   UNL     1      41.637  25.387  40.521  0.00  0.00    +0.000 HD
ATOM     42  C   UNL     1      40.185  24.165  41.461  0.00  0.00    +0.000 A 
ATOM     43  C   UNL     1      39.069  24.175  42.258  0.00  0.00    +0.000 A 
ATOM     44 CL   UNL     1      38.356  22.605  42.641  0.00  0.00    +0.000 Cl
ATOM     45  C   UNL     1      38.501  25.340  42.761  0.00  0.00    +0.000 A 
ATOM     46  H   UNL     1      37.604  25.302  43.395  0.00  0.00    +0.000 HD
ENDBRANCH  34  39
ENDBRANCH  31  34
ENDBRANCH  30  31
ENDBRANCH  25  30
ENDBRANCH   1  25
TORSDOF 10
