
 OpenBabel03242523533D

 46 49  0  0  1  0  0  0  0  0999 V2000
   42.8180   34.5100   38.7570 C   0  0  1  0  0  0  0  0  0  0  0  0
   42.9830   35.1780   40.1130 C   0  0  1  0  0  0  0  0  0  0  0  0
   41.6960   35.4190   40.6430 O   0  0  0  0  0  0  0  0  0  0  0  0
   40.7660   35.7650   39.6590 C   0  0  0  0  0  0  0  0  0  0  0  0
   40.4400   34.6000   38.7460 C   0  0  2  0  0  0  0  0  0  0  0  0
   41.6410   33.6010   38.8780 C   0  0  1  0  0  0  0  0  0  0  0  0
   43.7510   33.9880   38.4600 H   0  0  0  0  0  0  0  0  0  0  0  0
   43.5780   36.0970   40.0770 H   0  0  0  0  0  0  0  0  0  0  0  0
   41.0750   36.6630   39.0880 H   0  0  0  0  0  0  0  0  0  0  0  0
   39.8470   36.0100   40.2080 H   0  0  0  0  0  0  0  0  0  0  0  0
   39.5090   34.0680   39.0260 H   0  0  0  0  0  0  0  0  0  0  0  0
   41.4310   33.3510   39.9680 H   0  0  0  0  0  0  0  0  0  0  0  0
   42.6060   35.4680   37.7530 O   0  0  0  0  0  0  0  0  0  0  0  0
   43.2460   36.2160   37.8550 H   0  0  0  0  0  0  0  0  0  0  0  0
   40.4540   35.0150   37.4270 O   0  0  0  0  0  0  0  0  0  0  0  0
   39.6170   35.4940   37.2320 H   0  0  0  0  0  0  0  0  0  0  0  0
   43.5060   34.1830   40.9530 O   0  0  0  0  0  0  0  0  0  0  0  0
   44.6110   34.3160   41.6970 C   0  0  0  0  0  0  0  0  0  0  0  0
   45.8730   34.4390   41.0990 C   0  0  0  0  0  0  0  0  0  0  0  0
   46.9870   34.5740   41.9080 C   0  0  0  0  0  0  0  0  0  0  0  0
   46.8240   34.5840   43.2800 N   0  0  0  0  0  0  0  0  0  0  0  0
   45.5900   34.4610   43.8260 C   0  0  0  0  0  0  0  0  0  0  0  0
   44.4940   34.3280   43.0350 N   0  0  0  0  0  0  0  0  0  0  0  0
   46.0090   34.4320   40.0160 H   0  0  0  0  0  0  0  0  0  0  0  0
   45.5090   34.4730   44.9030 H   0  0  0  0  0  0  0  0  0  0  0  0
   48.3670   34.6880   41.3370 C   0  0  0  0  0  0  0  0  0  0  0  0
   49.0740   36.0290   41.5210 C   0  0  0  0  0  0  0  0  0  0  0  0
   49.5130   34.7120   42.1890 C   0  0  0  0  0  0  0  0  0  0  0  0
   48.4400   34.2490   40.3070 H   0  0  0  0  0  0  0  0  0  0  0  0
   49.7330   36.3130   40.6790 H   0  0  0  0  0  0  0  0  0  0  0  0
   48.5740   36.7920   42.1330 H   0  0  0  0  0  0  0  0  0  0  0  0
   50.5030   34.3110   41.9400 H   0  0  0  0  0  0  0  0  0  0  0  0
   49.3400   34.7320   43.2970 H   0  0  0  0  0  0  0  0  0  0  0  0
   41.4890   32.6550   37.9360 O   0  0  0  0  0  0  0  0  0  0  0  0
   40.6010   31.6650   37.8030 C   0  0  0  0  0  0  0  0  0  0  0  0
   39.3190   31.9260   37.5550 O   0  0  0  0  0  0  0  0  0  0  0  0
   40.7160   30.3620   40.5330 Cl  0  0  0  0  0  0  0  0  0  0  0  0
   40.7880   29.4330   39.0370 C   0  0  0  0  0  0  0  0  0  0  0  0
   40.7330   30.1620   37.8700 C   0  0  0  0  0  0  0  0  0  0  0  0
   40.7950   29.3680   36.7540 C   0  0  0  0  0  0  0  0  0  0  0  0
   40.7610   29.8070   35.7580 H   0  0  0  0  0  0  0  0  0  0  0  0
   40.8990   28.0140   36.7980 C   0  0  0  0  0  3  0  0  0  0  0  0
   40.9490   27.3660   37.9940 C   0  0  0  0  0  0  0  0  0  0  0  0
   41.0830   25.6350   38.0460 Cl  0  0  0  0  0  0  0  0  0  0  0  0
   40.8940   28.0730   39.1750 C   0  0  0  0  0  0  0  0  0  0  0  0
   40.9280   27.6130   40.1360 H   0  0  0  0  0  0  0  0  0  0  0  0
  1  7  1  6  0  0  0
  1  6  1  0  0  0  0
  1  2  1  0  0  0  0
  2  8  1  6  0  0  0
  2  3  1  0  0  0  0
  2 17  1  0  0  0  0
  4 10  1  0  0  0  0
  4  3  1  0  0  0  0
  5  6  1  0  0  0  0
  5 11  1  1  0  0  0
  5  4  1  0  0  0  0
  6 12  1  1  0  0  0
  9  4  1  0  0  0  0
 13 14  1  0  0  0  0
 13  1  1  0  0  0  0
 15  5  1  0  0  0  0
 16 15  1  0  0  0  0
 17 18  1  0  0  0  0
 18 23  1  0  0  0  0
 19 18  2  0  0  0  0
 19 20  1  0  0  0  0
 20 21  2  0  0  0  0
 21 22  1  0  0  0  0
 22 25  1  0  0  0  0
 23 22  2  0  0  0  0
 24 19  1  0  0  0  0
 26 27  1  0  0  0  0
 26 20  1  0  0  0  0
 26 28  1  0  0  0  0
 27 31  1  0  0  0  0
 27 28  1  0  0  0  0
 28 33  1  0  0  0  0
 29 26  1  0  0  0  0
 30 27  1  0  0  0  0
 32 28  1  0  0  0  0
 34  6  1  0  0  0  0
 35 39  1  0  0  0  0
 35 34  1  0  0  0  0
 36 35  2  0  0  0  0
 38 45  1  0  0  0  0
 38 37  1  0  0  0  0
 39 38  2  0  0  0  0
 40 42  2  0  0  0  0
 40 39  1  0  0  0  0
 41 40  1  0  0  0  0
 42 43  1  0  0  0  0
 43 44  1  0  0  0  0
 43 45  2  0  0  0  0
 45 46  1  0  0  0  0
M  END
>  <minimizedAffinity>
-5.86482334

>  <minimizedRMSD>
0.907276452

$$$$
