
 OpenBabel03242514513D

 45 48  0  0  1  0  0  0  0  0999 V2000
   37.6200   27.7660   39.0810 C   0  0  0  0  0  0  0  0  0  0  0  0
   38.4810   27.2000   38.7740 H   0  0  0  0  0  0  0  0  0  0  0  0
   37.8320   28.8190   38.7100 H   0  0  0  0  0  0  0  0  0  0  0  0
   35.6820   29.5030   37.8580 F   0  0  0  0  0  0  0  0  0  0  0  0
   35.5020   28.1850   37.8460 C   0  0  0  0  0  0  0  0  0  0  0  0
   36.3930   27.3020   38.4140 C   0  0  0  0  0  0  0  0  0  0  0  0
   36.1340   25.9520   38.3570 C   0  0  0  0  0  0  0  0  0  0  0  0
   34.9760   25.5450   37.7230 C   0  0  0  0  0  0  0  0  0  0  0  0
   34.0500   26.3790   37.1380 C   0  0  0  0  0  0  0  0  0  0  0  0
   34.3420   27.7380   37.2140 C   0  0  0  0  0  0  0  0  0  0  0  0
   36.8020   25.2260   38.7860 H   0  0  0  0  0  0  0  0  0  0  0  0
   34.7960   24.4660   37.6920 H   0  0  0  0  0  0  0  0  0  0  0  0
   33.1780   25.9730   36.6670 H   0  0  0  0  0  0  0  0  0  0  0  0
   34.8100   28.5310   34.3350 Cl  0  0  0  0  0  0  0  0  0  0  0  0
   33.4660   29.1380   35.3130 C   0  0  0  0  0  0  0  0  0  0  0  0
   33.3960   28.6750   36.6120 C   0  0  0  0  0  0  0  0  0  0  0  0
   32.3750   29.0920   37.4690 C   0  0  0  0  0  0  0  0  0  0  0  0
   32.2880   28.7510   38.4910 H   0  0  0  0  0  0  0  0  0  0  0  0
   31.4480   29.9840   36.9450 C   0  0  0  0  0  3  0  0  0  0  0  0
   31.5070   30.4530   35.6500 C   0  0  0  0  0  0  0  0  0  0  0  0
   30.3660   31.5680   34.9620 Cl  0  0  0  0  0  0  0  0  0  0  0  0
   32.5380   30.0250   34.8060 C   0  0  0  0  0  0  0  0  0  0  0  0
   32.6770   30.3300   33.7760 H   0  0  0  0  0  0  0  0  0  0  0  0
   37.4490   27.9670   40.5450 C   0  0  0  0  0  0  0  0  0  0  0  0
   37.6010   29.2530   41.0310 C   0  0  0  0  0  0  0  0  0  0  0  0
   37.4170   29.4300   42.4170 C   0  0  0  0  0  0  0  0  0  0  0  0
   37.1080   28.3590   43.1900 N   0  0  0  0  0  0  0  0  0  0  0  0
   36.9730   27.1340   42.6600 C   0  0  0  0  0  0  0  0  0  0  0  0
   37.1430   26.9510   41.3620 N   0  0  0  0  0  0  0  0  0  0  0  0
   37.5190   30.4130   42.8850 H   0  0  0  0  0  0  0  0  0  0  0  0
   36.7290   26.2430   43.2250 H   0  0  0  0  0  0  0  0  0  0  0  0
   36.8110   31.4100   40.0570 C   0  0  2  0  0  0  0  0  0  0  0  0
   38.0000   30.4190   40.1920 C   0  0  1  0  0  0  0  0  0  0  0  0
   39.0880   31.0900   40.5900 O   0  0  0  0  0  0  0  0  0  0  0  0
   38.7410   32.3450   41.0400 C   0  0  0  0  0  0  0  0  0  0  0  0
   37.6030   32.7370   40.1420 C   0  0  1  0  0  0  0  0  0  0  0  0
   36.3340   31.4540   39.0890 H   0  0  0  0  0  0  0  0  0  0  0  0
   38.0670   30.2910   39.1530 H   0  0  0  0  0  0  0  0  0  0  0  0
   39.6110   33.0210   40.8080 H   0  0  0  0  0  0  0  0  0  0  0  0
   38.5150   32.3840   42.1130 H   0  0  0  0  0  0  0  0  0  0  0  0
   36.9420   33.5210   40.5570 H   0  0  0  0  0  0  0  0  0  0  0  0
   35.8950   31.3380   41.0240 O   0  0  0  0  0  0  0  0  0  0  0  0
   36.2440   31.5420   41.9130 H   0  0  0  0  0  0  0  0  0  0  0  0
   38.1500   33.0740   38.9230 O   0  0  0  0  0  0  0  0  0  0  0  0
   37.5570   33.5900   38.3360 H   0  0  0  0  0  0  0  0  0  0  0  0
  1 24  1  0  0  0  0
  2  1  1  0  0  0  0
  3  1  1  0  0  0  0
  5  4  1  0  0  0  0
  5  6  1  0  0  0  0
  6  1  1  0  0  0  0
  7  6  2  0  0  0  0
  7 11  1  0  0  0  0
  8  7  1  0  0  0  0
  9 10  1  0  0  0  0
  9  8  2  0  0  0  0
 10  5  2  0  0  0  0
 12  8  1  0  0  0  0
 13  9  1  0  0  0  0
 14 15  1  0  0  0  0
 15 16  1  0  0  0  0
 16 10  1  0  0  0  0
 16 17  2  0  0  0  0
 17 18  1  0  0  0  0
 19 17  1  0  0  0  0
 20 19  2  0  0  0  0
 21 20  1  0  0  0  0
 22 15  2  0  0  0  0
 22 20  1  0  0  0  0
 23 22  1  0  0  0  0
 24 25  2  0  0  0  0
 24 29  1  0  0  0  0
 25 26  1  0  0  0  0
 26 30  1  0  0  0  0
 26 27  2  0  0  0  0
 28 27  1  0  0  0  0
 28 31  1  0  0  0  0
 29 28  2  0  0  0  0
 32 37  1  6  0  0  0
 32 36  1  0  0  0  0
 32 33  1  0  0  0  0
 32 42  1  0  0  0  0
 33 38  1  6  0  0  0
 33 34  1  0  0  0  0
 33 25  1  0  0  0  0
 34 35  1  0  0  0  0
 35 40  1  0  0  0  0
 36 41  1  1  0  0  0
 36 35  1  0  0  0  0
 39 35  1  0  0  0  0
 42 43  1  0  0  0  0
 44 36  1  0  0  0  0
 45 44  1  0  0  0  0
M  END
>  <minimizedAffinity>
-6.5818224

$$$$

 OpenBabel03242514513D

 45 48  0  0  1  0  0  0  0  0999 V2000
   39.6050   30.0580   41.6850 C   0  0  0  0  0  0  0  0  0  0  0  0
   40.2760   30.3680   42.4660 H   0  0  0  0  0  0  0  0  0  0  0  0
   40.2880   29.6130   40.8920 H   0  0  0  0  0  0  0  0  0  0  0  0
   39.2520   27.5470   40.3280 F   0  0  0  0  0  0  0  0  0  0  0  0
   38.5720   27.8100   41.4400 C   0  0  0  0  0  0  0  0  0  0  0  0
   38.6970   28.9910   42.1350 C   0  0  0  0  0  0  0  0  0  0  0  0
   37.9580   29.1830   43.2790 C   0  0  0  0  0  0  0  0  0  0  0  0
   37.1150   28.1650   43.6800 C   0  0  0  0  0  0  0  0  0  0  0  0
   36.9480   26.9640   43.0280 C   0  0  0  0  0  0  0  0  0  0  0  0
   37.7090   26.8020   41.8740 C   0  0  0  0  0  0  0  0  0  0  0  0
   38.0250   30.0900   43.8540 H   0  0  0  0  0  0  0  0  0  0  0  0
   36.5400   28.3450   44.5940 H   0  0  0  0  0  0  0  0  0  0  0  0
   36.2690   26.2290   43.4130 H   0  0  0  0  0  0  0  0  0  0  0  0
   39.4800   24.5000   42.7110 Cl  0  0  0  0  0  0  0  0  0  0  0  0
   38.3060   24.4040   41.3900 C   0  0  0  0  0  0  0  0  0  0  0  0
   37.5760   25.5480   41.1360 C   0  0  0  0  0  0  0  0  0  0  0  0
   36.6230   25.5800   40.1160 C   0  0  0  0  0  0  0  0  0  0  0  0
   36.0330   26.4570   39.8880 H   0  0  0  0  0  0  0  0  0  0  0  0
   36.4560   24.4120   39.3820 C   0  0  0  0  0  3  0  0  0  0  0  0
   37.1800   23.2630   39.6260 C   0  0  0  0  0  0  0  0  0  0  0  0
   36.9970   21.7860   38.7310 Cl  0  0  0  0  0  0  0  0  0  0  0  0
   38.1300   23.2510   40.6530 C   0  0  0  0  0  0  0  0  0  0  0  0
   38.7500   22.4060   40.9270 H   0  0  0  0  0  0  0  0  0  0  0  0
   38.9100   31.1430   40.9410 C   0  0  0  0  0  0  0  0  0  0  0  0
   39.6830   32.2000   40.4920 C   0  0  0  0  0  0  0  0  0  0  0  0
   39.0130   33.2090   39.7730 C   0  0  0  0  0  0  0  0  0  0  0  0
   37.6780   33.1020   39.5590 N   0  0  0  0  0  0  0  0  0  0  0  0
   36.9820   32.0510   40.0190 C   0  0  0  0  0  0  0  0  0  0  0  0
   37.5950   31.0950   40.6960 N   0  0  0  0  0  0  0  0  0  0  0  0
   39.5460   34.0810   39.3830 H   0  0  0  0  0  0  0  0  0  0  0  0
   35.9180   31.9100   39.8810 H   0  0  0  0  0  0  0  0  0  0  0  0
   41.9750   31.6690   39.6610 C   0  0  2  0  0  0  0  0  0  0  0  0
   41.1380   32.3490   40.7800 C   0  0  1  0  0  0  0  0  0  0  0  0
   41.5810   33.6000   40.9590 O   0  0  0  0  0  0  0  0  0  0  0  0
   42.3990   33.9750   39.9160 C   0  0  0  0  0  0  0  0  0  0  0  0
   43.1190   32.7060   39.5610 C   0  0  1  0  0  0  0  0  0  0  0  0
   42.4780   30.7520   39.9320 H   0  0  0  0  0  0  0  0  0  0  0  0
   41.5680   31.7490   41.5250 H   0  0  0  0  0  0  0  0  0  0  0  0
   43.1540   34.6920   40.3430 H   0  0  0  0  0  0  0  0  0  0  0  0
   41.8650   34.4500   39.0830 H   0  0  0  0  0  0  0  0  0  0  0  0
   43.5310   32.6850   38.5340 H   0  0  0  0  0  0  0  0  0  0  0  0
   41.3530   31.5290   38.4890 O   0  0  0  0  0  0  0  0  0  0  0  0
   41.0940   32.3760   38.0770 H   0  0  0  0  0  0  0  0  0  0  0  0
   44.0710   32.4980   40.5350 O   0  0  0  0  0  0  0  0  0  0  0  0
   44.7730   31.8570   40.2920 H   0  0  0  0  0  0  0  0  0  0  0  0
  1  6  1  0  0  0  0
  1  2  1  0  0  0  0
  3  1  1  0  0  0  0
  4  5  1  0  0  0  0
  5 10  2  0  0  0  0
  5  6  1  0  0  0  0
  6  7  2  0  0  0  0
  7  8  1  0  0  0  0
  7 11  1  0  0  0  0
  8 12  1  0  0  0  0
  9 13  1  0  0  0  0
  9  8  2  0  0  0  0
 10  9  1  0  0  0  0
 15 14  1  0  0  0  0
 16 15  1  0  0  0  0
 16 10  1  0  0  0  0
 17 16  2  0  0  0  0
 18 17  1  0  0  0  0
 19 20  2  0  0  0  0
 19 17  1  0  0  0  0
 20 22  1  0  0  0  0
 21 20  1  0  0  0  0
 22 23  1  0  0  0  0
 22 15  2  0  0  0  0
 24  1  1  0  0  0  0
 25 33  1  0  0  0  0
 25 24  2  0  0  0  0
 26 25  1  0  0  0  0
 27 26  2  0  0  0  0
 27 28  1  0  0  0  0
 28 29  2  0  0  0  0
 29 24  1  0  0  0  0
 30 26  1  0  0  0  0
 31 28  1  0  0  0  0
 32 37  1  1  0  0  0
 32 33  1  0  0  0  0
 33 34  1  0  0  0  0
 33 38  1  1  0  0  0
 35 39  1  0  0  0  0
 35 34  1  0  0  0  0
 36 41  1  6  0  0  0
 36 32  1  0  0  0  0
 36 35  1  0  0  0  0
 36 44  1  0  0  0  0
 40 35  1  0  0  0  0
 42 32  1  0  0  0  0
 43 42  1  0  0  0  0
 45 44  1  0  0  0  0
M  END
>  <minimizedAffinity>
-6.38702011

$$$$

 OpenBabel03242514513D

 45 48  0  0  1  0  0  0  0  0999 V2000
   39.4870   30.4430   42.6950 C   0  0  0  0  0  0  0  0  0  0  0  0
   39.2130   31.4140   42.3220 H   0  0  0  0  0  0  0  0  0  0  0  0
   39.6760   30.6140   43.8030 H   0  0  0  0  0  0  0  0  0  0  0  0
   37.9240   30.0440   40.3140 F   0  0  0  0  0  0  0  0  0  0  0  0
   37.6690   29.3350   41.4100 C   0  0  0  0  0  0  0  0  0  0  0  0
   38.3800   29.4800   42.5800 C   0  0  0  0  0  0  0  0  0  0  0  0
   38.0540   28.7060   43.6690 C   0  0  0  0  0  0  0  0  0  0  0  0
   37.0130   27.8090   43.5320 C   0  0  0  0  0  0  0  0  0  0  0  0
   36.2660   27.6190   42.3910 C   0  0  0  0  0  0  0  0  0  0  0  0
   36.6220   28.4180   41.3080 C   0  0  0  0  0  0  0  0  0  0  0  0
   38.5830   28.7850   44.6020 H   0  0  0  0  0  0  0  0  0  0  0  0
   36.7750   27.2060   44.4150 H   0  0  0  0  0  0  0  0  0  0  0  0
   35.4740   26.8970   42.3760 H   0  0  0  0  0  0  0  0  0  0  0  0
   37.5720   26.3200   39.3510 Cl  0  0  0  0  0  0  0  0  0  0  0  0
   36.1650   27.3570   39.0710 C   0  0  0  0  0  0  0  0  0  0  0  0
   35.8660   28.2640   40.0670 C   0  0  0  0  0  0  0  0  0  0  0  0
   34.7770   29.1300   39.9470 C   0  0  0  0  0  0  0  0  0  0  0  0
   34.5120   29.8540   40.7050 H   0  0  0  0  0  0  0  0  0  0  0  0
   34.0240   29.0250   38.7840 C   0  0  0  0  0  3  0  0  0  0  0  0
   34.3130   28.1220   37.7820 C   0  0  0  0  0  0  0  0  0  0  0  0
   33.3930   27.9630   36.3170 Cl  0  0  0  0  0  0  0  0  0  0  0  0
   35.4080   27.2630   37.9210 C   0  0  0  0  0  0  0  0  0  0  0  0
   35.7220   26.5200   37.1980 H   0  0  0  0  0  0  0  0  0  0  0  0
   40.7890   29.8980   42.2240 C   0  0  0  0  0  0  0  0  0  0  0  0
   41.3550   30.4850   41.1060 C   0  0  0  0  0  0  0  0  0  0  0  0
   42.5970   29.9700   40.6860 C   0  0  0  0  0  0  0  0  0  0  0  0
   43.1660   28.9510   41.3760 N   0  0  0  0  0  0  0  0  0  0  0  0
   42.5670   28.4230   42.4550 C   0  0  0  0  0  0  0  0  0  0  0  0
   41.4010   28.8940   42.8630 N   0  0  0  0  0  0  0  0  0  0  0  0
   43.1150   30.3740   39.8110 H   0  0  0  0  0  0  0  0  0  0  0  0
   42.9700   27.6100   43.0460 H   0  0  0  0  0  0  0  0  0  0  0  0
   40.9980   32.9500   40.9490 C   0  0  2  0  0  0  0  0  0  0  0  0
   40.7030   31.5640   40.3110 C   0  0  1  0  0  0  0  0  0  0  0  0
   41.0100   31.6070   39.0080 O   0  0  0  0  0  0  0  0  0  0  0  0
   41.7580   32.7290   38.7270 C   0  0  0  0  0  0  0  0  0  0  0  0
   41.1910   33.7680   39.6500 C   0  0  1  0  0  0  0  0  0  0  0  0
   40.1690   33.4350   41.4410 H   0  0  0  0  0  0  0  0  0  0  0  0
   39.6660   31.6970   40.3990 H   0  0  0  0  0  0  0  0  0  0  0  0
   41.5020   33.0290   37.6720 H   0  0  0  0  0  0  0  0  0  0  0  0
   42.8410   32.5730   38.8170 H   0  0  0  0  0  0  0  0  0  0  0  0
   41.8730   34.6150   39.8600 H   0  0  0  0  0  0  0  0  0  0  0  0
   42.0900   33.0040   41.7140 O   0  0  0  0  0  0  0  0  0  0  0  0
   42.9180   32.8090   41.2350 H   0  0  0  0  0  0  0  0  0  0  0  0
   39.9820   34.1610   39.1200 O   0  0  0  0  0  0  0  0  0  0  0  0
   39.6330   35.0070   39.4760 H   0  0  0  0  0  0  0  0  0  0  0  0
  1  3  1  0  0  0  0
  2  1  1  0  0  0  0
  4  5  1  0  0  0  0
  5  6  1  0  0  0  0
  6  1  1  0  0  0  0
  6  7  2  0  0  0  0
  7 11  1  0  0  0  0
  8  7  1  0  0  0  0
  8 12  1  0  0  0  0
  9  8  2  0  0  0  0
 10  5  2  0  0  0  0
 10  9  1  0  0  0  0
 13  9  1  0  0  0  0
 15 14  1  0  0  0  0
 15 16  1  0  0  0  0
 16 10  1  0  0  0  0
 17 16  2  0  0  0  0
 17 18  1  0  0  0  0
 19 17  1  0  0  0  0
 20 22  1  0  0  0  0
 20 19  2  0  0  0  0
 21 20  1  0  0  0  0
 22 15  2  0  0  0  0
 23 22  1  0  0  0  0
 24  1  1  0  0  0  0
 24 29  1  0  0  0  0
 25 24  2  0  0  0  0
 26 25  1  0  0  0  0
 26 27  2  0  0  0  0
 27 28  1  0  0  0  0
 28 29  2  0  0  0  0
 28 31  1  0  0  0  0
 30 26  1  0  0  0  0
 32 37  1  1  0  0  0
 32 42  1  0  0  0  0
 33 38  1  1  0  0  0
 33 32  1  0  0  0  0
 33 25  1  0  0  0  0
 34 33  1  0  0  0  0
 35 40  1  0  0  0  0
 35 34  1  0  0  0  0
 35 36  1  0  0  0  0
 36 41  1  1  0  0  0
 36 32  1  0  0  0  0
 39 35  1  0  0  0  0
 43 42  1  0  0  0  0
 44 45  1  0  0  0  0
 44 36  1  0  0  0  0
M  END
>  <minimizedAffinity>
-6.32470942

$$$$

 OpenBabel03242514513D

 45 48  0  0  1  0  0  0  0  0999 V2000
   38.4170   31.3370   37.9040 C   0  0  0  0  0  0  0  0  0  0  0  0
   39.1190   30.9040   37.2150 H   0  0  0  0  0  0  0  0  0  0  0  0
   37.7380   31.9710   37.2490 H   0  0  0  0  0  0  0  0  0  0  0  0
   39.4160   29.2810   39.6490 F   0  0  0  0  0  0  0  0  0  0  0  0
   38.1170   29.3540   39.3740 C   0  0  0  0  0  0  0  0  0  0  0  0
   37.5780   30.3130   38.5470 C   0  0  0  0  0  0  0  0  0  0  0  0
   36.2220   30.3210   38.3160 C   0  0  0  0  0  0  0  0  0  0  0  0
   35.4580   29.3490   38.9340 C   0  0  0  0  0  0  0  0  0  0  0  0
   35.9390   28.3660   39.7690 C   0  0  0  0  0  0  0  0  0  0  0  0
   37.3140   28.3870   39.9820 C   0  0  0  0  0  0  0  0  0  0  0  0
   35.7570   31.0520   37.6780 H   0  0  0  0  0  0  0  0  0  0  0  0
   34.3820   29.3790   38.7320 H   0  0  0  0  0  0  0  0  0  0  0  0
   35.2700   27.6520   40.2060 H   0  0  0  0  0  0  0  0  0  0  0  0
   37.6790   29.1040   42.8950 Cl  0  0  0  0  0  0  0  0  0  0  0  0
   38.1180   27.5330   42.2090 C   0  0  0  0  0  0  0  0  0  0  0  0
   37.8860   27.3680   40.8590 C   0  0  0  0  0  0  0  0  0  0  0  0
   38.1970   26.1670   40.2170 C   0  0  0  0  0  0  0  0  0  0  0  0
   38.0300   26.0010   39.1620 H   0  0  0  0  0  0  0  0  0  0  0  0
   38.7440   25.1630   41.0070 C   0  0  0  0  0  3  0  0  0  0  0  0
   38.9810   25.3160   42.3570 C   0  0  0  0  0  0  0  0  0  0  0  0
   39.6620   24.0840   43.3740 Cl  0  0  0  0  0  0  0  0  0  0  0  0
   38.6630   26.5270   42.9820 C   0  0  0  0  0  0  0  0  0  0  0  0
   38.8070   26.7510   44.0320 H   0  0  0  0  0  0  0  0  0  0  0  0
   38.9630   32.3340   38.8650 C   0  0  0  0  0  0  0  0  0  0  0  0
   40.3390   32.4110   38.9850 C   0  0  0  0  0  0  0  0  0  0  0  0
   40.8400   33.3730   39.8830 C   0  0  0  0  0  0  0  0  0  0  0  0
   39.9740   34.1590   40.5710 N   0  0  0  0  0  0  0  0  0  0  0  0
   38.6470   34.0370   40.4110 C   0  0  0  0  0  0  0  0  0  0  0  0
   38.1610   33.1390   39.5720 N   0  0  0  0  0  0  0  0  0  0  0  0
   41.9150   33.5020   40.0410 H   0  0  0  0  0  0  0  0  0  0  0  0
   37.9080   34.6340   40.9310 H   0  0  0  0  0  0  0  0  0  0  0  0
   41.8180   32.1960   36.9870 C   0  0  2  0  0  0  0  0  0  0  0  0
   41.2890   31.5080   38.2750 C   0  0  1  0  0  0  0  0  0  0  0  0
   42.3280   31.0610   38.9920 O   0  0  0  0  0  0  0  0  0  0  0  0
   43.5030   31.6110   38.5310 C   0  0  0  0  0  0  0  0  0  0  0  0
   43.2860   31.7090   37.0480 C   0  0  1  0  0  0  0  0  0  0  0  0
   41.4530   31.8020   36.0510 H   0  0  0  0  0  0  0  0  0  0  0  0
   40.9030   30.6960   37.7340 H   0  0  0  0  0  0  0  0  0  0  0  0
   44.3090   30.8450   38.7110 H   0  0  0  0  0  0  0  0  0  0  0  0
   43.7720   32.5560   39.0200 H   0  0  0  0  0  0  0  0  0  0  0  0
   43.9300   32.4520   36.5400 H   0  0  0  0  0  0  0  0  0  0  0  0
   41.7570   33.5290   36.9860 O   0  0  0  0  0  0  0  0  0  0  0  0
   42.2920   33.9490   37.6880 H   0  0  0  0  0  0  0  0  0  0  0  0
   43.4140   30.4360   36.5380 O   0  0  0  0  0  0  0  0  0  0  0  0
   43.5520   30.3950   35.5670 H   0  0  0  0  0  0  0  0  0  0  0  0
  1  6  1  0  0  0  0
  1 24  1  0  0  0  0
  2  1  1  0  0  0  0
  3  1  1  0  0  0  0
  5  4  1  0  0  0  0
  5 10  1  0  0  0  0
  6  5  2  0  0  0  0
  7  6  1  0  0  0  0
  7  8  2  0  0  0  0
  8  9  1  0  0  0  0
  9 10  2  0  0  0  0
  9 13  1  0  0  0  0
 10 16  1  0  0  0  0
 11  7  1  0  0  0  0
 12  8  1  0  0  0  0
 15 14  1  0  0  0  0
 15 22  1  0  0  0  0
 16 15  2  0  0  0  0
 17 16  1  0  0  0  0
 17 19  2  0  0  0  0
 18 17  1  0  0  0  0
 19 20  1  0  0  0  0
 20 22  2  0  0  0  0
 20 21  1  0  0  0  0
 22 23  1  0  0  0  0
 24 25  2  0  0  0  0
 24 29  1  0  0  0  0
 25 26  1  0  0  0  0
 26 30  1  0  0  0  0
 26 27  2  0  0  0  0
 28 27  1  0  0  0  0
 28 31  1  0  0  0  0
 29 28  2  0  0  0  0
 32 37  1  6  0  0  0
 32 36  1  0  0  0  0
 32 33  1  0  0  0  0
 33 38  1  6  0  0  0
 33 25  1  0  0  0  0
 33 34  1  0  0  0  0
 35 39  1  0  0  0  0
 35 34  1  0  0  0  0
 35 40  1  0  0  0  0
 36 41  1  6  0  0  0
 36 35  1  0  0  0  0
 42 32  1  0  0  0  0
 42 43  1  0  0  0  0
 44 36  1  0  0  0  0
 45 44  1  0  0  0  0
M  END
>  <minimizedAffinity>
-6.31850958

$$$$

 OpenBabel03242514513D

 45 48  0  0  1  0  0  0  0  0999 V2000
   37.8920   31.9750   38.1710 C   0  0  0  0  0  0  0  0  0  0  0  0
   38.3680   31.5410   37.3110 H   0  0  0  0  0  0  0  0  0  0  0  0
   37.3020   32.8510   37.7510 H   0  0  0  0  0  0  0  0  0  0  0  0
   36.4150   29.9690   36.7340 F   0  0  0  0  0  0  0  0  0  0  0  0
   36.2510   30.1100   38.0460 C   0  0  0  0  0  0  0  0  0  0  0  0
   36.9290   31.0500   38.7900 C   0  0  0  0  0  0  0  0  0  0  0  0
   36.7040   31.1290   40.1450 C   0  0  0  0  0  0  0  0  0  0  0  0
   35.7960   30.2470   40.6990 C   0  0  0  0  0  0  0  0  0  0  0  0
   35.0900   29.2880   40.0090 C   0  0  0  0  0  0  0  0  0  0  0  0
   35.3410   29.2350   38.6400 C   0  0  0  0  0  0  0  0  0  0  0  0
   37.2110   31.8470   40.7650 H   0  0  0  0  0  0  0  0  0  0  0  0
   35.6370   30.3330   41.7790 H   0  0  0  0  0  0  0  0  0  0  0  0
   34.4050   28.6460   40.5240 H   0  0  0  0  0  0  0  0  0  0  0  0
   36.5180   26.4550   38.5040 Cl  0  0  0  0  0  0  0  0  0  0  0  0
   35.0220   26.9270   37.6860 C   0  0  0  0  0  0  0  0  0  0  0  0
   34.6220   28.2380   37.8510 C   0  0  0  0  0  0  0  0  0  0  0  0
   33.4550   28.7140   37.2490 C   0  0  0  0  0  0  0  0  0  0  0  0
   33.1100   29.7330   37.3550 H   0  0  0  0  0  0  0  0  0  0  0  0
   32.7320   27.8050   36.4860 C   0  0  0  0  0  3  0  0  0  0  0  0
   33.1220   26.4930   36.3140 C   0  0  0  0  0  0  0  0  0  0  0  0
   32.2440   25.3300   35.3690 Cl  0  0  0  0  0  0  0  0  0  0  0  0
   34.2940   26.0350   36.9260 C   0  0  0  0  0  0  0  0  0  0  0  0
   34.6890   25.0290   36.8560 H   0  0  0  0  0  0  0  0  0  0  0  0
   38.7880   32.6330   39.1600 C   0  0  0  0  0  0  0  0  0  0  0  0
   40.1210   32.2610   39.1550 C   0  0  0  0  0  0  0  0  0  0  0  0
   40.9600   32.9080   40.0830 C   0  0  0  0  0  0  0  0  0  0  0  0
   40.4370   33.8410   40.9170 N   0  0  0  0  0  0  0  0  0  0  0  0
   39.1350   34.1610   40.8740 C   0  0  0  0  0  0  0  0  0  0  0  0
   38.3340   33.5630   40.0090 N   0  0  0  0  0  0  0  0  0  0  0  0
   42.0270   32.6740   40.1480 H   0  0  0  0  0  0  0  0  0  0  0  0
   38.6600   34.8960   41.5130 H   0  0  0  0  0  0  0  0  0  0  0  0
   41.1940   31.8070   36.9480 C   0  0  2  0  0  0  0  0  0  0  0  0
   40.6840   31.1920   38.2810 C   0  0  1  0  0  0  0  0  0  0  0  0
   41.6530   30.4400   38.8160 O   0  0  0  0  0  0  0  0  0  0  0  0
   42.8570   30.6940   38.1960 C   0  0  0  0  0  0  0  0  0  0  0  0
   42.4690   30.9500   36.7680 C   0  0  1  0  0  0  0  0  0  0  0  0
   40.6080   31.5890   36.0670 H   0  0  0  0  0  0  0  0  0  0  0  0
   40.0210   30.5510   37.7810 H   0  0  0  0  0  0  0  0  0  0  0  0
   43.4430   29.7340   38.2270 H   0  0  0  0  0  0  0  0  0  0  0  0
   43.4360   31.4990   38.6680 H   0  0  0  0  0  0  0  0  0  0  0  0
   43.2120   31.5330   36.1900 H   0  0  0  0  0  0  0  0  0  0  0  0
   41.4940   33.1060   36.9970 O   0  0  0  0  0  0  0  0  0  0  0  0
   42.2150   33.3210   37.6210 H   0  0  0  0  0  0  0  0  0  0  0  0
   42.1770   29.7270   36.2060 O   0  0  0  0  0  0  0  0  0  0  0  0
   42.1620   29.7200   35.2240 H   0  0  0  0  0  0  0  0  0  0  0  0
  1  6  1  0  0  0  0
  1 24  1  0  0  0  0
  2  1  1  0  0  0  0
  3  1  1  0  0  0  0
  4  5  1  0  0  0  0
  5 10  2  0  0  0  0
  5  6  1  0  0  0  0
  6  7  2  0  0  0  0
  7  8  1  0  0  0  0
  7 11  1  0  0  0  0
  8 12  1  0  0  0  0
  9 13  1  0  0  0  0
  9  8  2  0  0  0  0
 10  9  1  0  0  0  0
 15 16  1  0  0  0  0
 15 14  1  0  0  0  0
 16 10  1  0  0  0  0
 17 18  1  0  0  0  0
 17 16  2  0  0  0  0
 19 17  1  0  0  0  0
 20 19  2  0  0  0  0
 20 22  1  0  0  0  0
 21 20  1  0  0  0  0
 22 15  2  0  0  0  0
 23 22  1  0  0  0  0
 24 29  1  0  0  0  0
 25 24  2  0  0  0  0
 25 26  1  0  0  0  0
 26 30  1  0  0  0  0
 26 27  2  0  0  0  0
 28 27  1  0  0  0  0
 28 31  1  0  0  0  0
 29 28  2  0  0  0  0
 32 37  1  6  0  0  0
 32 42  1  0  0  0  0
 32 33  1  0  0  0  0
 33 38  1  6  0  0  0
 33 34  1  0  0  0  0
 33 25  1  0  0  0  0
 35 39  1  0  0  0  0
 35 40  1  0  0  0  0
 35 34  1  0  0  0  0
 36 41  1  6  0  0  0
 36 32  1  0  0  0  0
 36 35  1  0  0  0  0
 42 43  1  0  0  0  0
 44 36  1  0  0  0  0
 45 44  1  0  0  0  0
M  END
>  <minimizedAffinity>
-6.28262377

$$$$

 OpenBabel03242514513D

 45 48  0  0  1  0  0  0  0  0999 V2000
   39.2440   30.2400   41.5400 C   0  0  0  0  0  0  0  0  0  0  0  0
   38.8020   30.6700   40.6590 H   0  0  0  0  0  0  0  0  0  0  0  0
   39.1720   31.0660   42.3180 H   0  0  0  0  0  0  0  0  0  0  0  0
   39.0230   27.7140   40.1850 F   0  0  0  0  0  0  0  0  0  0  0  0
   38.3990   27.9100   41.3430 C   0  0  0  0  0  0  0  0  0  0  0  0
   38.4660   29.0950   42.0400 C   0  0  0  0  0  0  0  0  0  0  0  0
   37.7930   29.2160   43.2330 C   0  0  0  0  0  0  0  0  0  0  0  0
   37.0730   28.1250   43.6800 C   0  0  0  0  0  0  0  0  0  0  0  0
   36.9690   26.9160   43.0290 C   0  0  0  0  0  0  0  0  0  0  0  0
   37.6610   26.8280   41.8240 C   0  0  0  0  0  0  0  0  0  0  0  0
   37.8180   30.1230   43.8120 H   0  0  0  0  0  0  0  0  0  0  0  0
   36.5480   28.2490   44.6320 H   0  0  0  0  0  0  0  0  0  0  0  0
   36.3860   26.1220   43.4510 H   0  0  0  0  0  0  0  0  0  0  0  0
   39.5670   24.6260   42.6340 Cl  0  0  0  0  0  0  0  0  0  0  0  0
   38.3860   24.4680   41.3270 C   0  0  0  0  0  0  0  0  0  0  0  0
   37.5900   25.5690   41.0850 C   0  0  0  0  0  0  0  0  0  0  0  0
   36.6250   25.5510   40.0750 C   0  0  0  0  0  0  0  0  0  0  0  0
   35.9840   26.3930   39.8560 H   0  0  0  0  0  0  0  0  0  0  0  0
   36.5150   24.3760   39.3410 C   0  0  0  0  0  3  0  0  0  0  0  0
   37.3050   23.2700   39.5730 C   0  0  0  0  0  0  0  0  0  0  0  0
   37.1950   21.7860   38.6760 Cl  0  0  0  0  0  0  0  0  0  0  0  0
   38.2660   23.3080   40.5890 C   0  0  0  0  0  0  0  0  0  0  0  0
   38.9350   22.4980   40.8540 H   0  0  0  0  0  0  0  0  0  0  0  0
   40.7070   29.9740   41.4840 C   0  0  0  0  0  0  0  0  0  0  0  0
   41.3560   30.2480   40.2930 C   0  0  0  0  0  0  0  0  0  0  0  0
   42.7440   30.0100   40.2630 C   0  0  0  0  0  0  0  0  0  0  0  0
   43.3640   29.5350   41.3710 N   0  0  0  0  0  0  0  0  0  0  0  0
   42.6800   29.2890   42.4990 C   0  0  0  0  0  0  0  0  0  0  0  0
   41.3760   29.5080   42.5450 N   0  0  0  0  0  0  0  0  0  0  0  0
   43.3350   30.1980   39.3610 H   0  0  0  0  0  0  0  0  0  0  0  0
   43.1170   28.9110   43.4150 H   0  0  0  0  0  0  0  0  0  0  0  0
   40.6000   32.2640   39.0310 C   0  0  2  0  0  0  0  0  0  0  0  0
   40.6660   30.7120   39.0560 C   0  0  1  0  0  0  0  0  0  0  0  0
   41.1740   30.2760   37.8960 O   0  0  0  0  0  0  0  0  0  0  0  0
   41.7480   31.3180   37.2010 C   0  0  0  0  0  0  0  0  0  0  0  0
   40.8600   32.4850   37.5220 C   0  0  1  0  0  0  0  0  0  0  0  0
   39.6270   32.7030   39.1940 H   0  0  0  0  0  0  0  0  0  0  0  0
   39.6220   30.6240   38.9990 H   0  0  0  0  0  0  0  0  0  0  0  0
   41.6230   31.0810   36.1070 H   0  0  0  0  0  0  0  0  0  0  0  0
   42.8110   31.4710   37.4300 H   0  0  0  0  0  0  0  0  0  0  0  0
   41.3370   33.4740   37.3830 H   0  0  0  0  0  0  0  0  0  0  0  0
   41.5210   32.8860   39.7700 O   0  0  0  0  0  0  0  0  0  0  0  0
   42.4390   32.7060   39.4890 H   0  0  0  0  0  0  0  0  0  0  0  0
   39.7060   32.3270   36.7860 O   0  0  0  0  0  0  0  0  0  0  0  0
   39.1590   33.1380   36.7020 H   0  0  0  0  0  0  0  0  0  0  0  0
  1  6  1  0  0  0  0
  1  3  1  0  0  0  0
  2  1  1  0  0  0  0
  4  5  1  0  0  0  0
  5 10  2  0  0  0  0
  5  6  1  0  0  0  0
  6  7  2  0  0  0  0
  7  8  1  0  0  0  0
  7 11  1  0  0  0  0
  8 12  1  0  0  0  0
  9 13  1  0  0  0  0
  9  8  2  0  0  0  0
 10  9  1  0  0  0  0
 15 14  1  0  0  0  0
 16 15  1  0  0  0  0
 16 10  1  0  0  0  0
 17 16  2  0  0  0  0
 18 17  1  0  0  0  0
 19 20  2  0  0  0  0
 19 17  1  0  0  0  0
 20 22  1  0  0  0  0
 21 20  1  0  0  0  0
 22 23  1  0  0  0  0
 22 15  2  0  0  0  0
 24  1  1  0  0  0  0
 24 29  1  0  0  0  0
 25 24  2  0  0  0  0
 26 25  1  0  0  0  0
 26 27  2  0  0  0  0
 27 28  1  0  0  0  0
 28 29  2  0  0  0  0
 28 31  1  0  0  0  0
 30 26  1  0  0  0  0
 32 33  1  0  0  0  0
 32 37  1  1  0  0  0
 32 42  1  0  0  0  0
 33 38  1  1  0  0  0
 33 25  1  0  0  0  0
 34 33  1  0  0  0  0
 35 40  1  0  0  0  0
 35 36  1  0  0  0  0
 35 34  1  0  0  0  0
 36 41  1  6  0  0  0
 36 32  1  0  0  0  0
 39 35  1  0  0  0  0
 43 42  1  0  0  0  0
 44 36  1  0  0  0  0
 45 44  1  0  0  0  0
M  END
>  <minimizedAffinity>
-6.26036596

$$$$

 OpenBabel03242514513D

 45 48  0  0  1  0  0  0  0  0999 V2000
   40.3410   32.1880   38.4660 C   0  0  0  0  0  0  0  0  0  0  0  0
   40.4580   31.6710   37.5310 H   0  0  0  0  0  0  0  0  0  0  0  0
   40.2330   33.2800   38.1690 H   0  0  0  0  0  0  0  0  0  0  0  0
   39.8300   29.5560   39.5070 F   0  0  0  0  0  0  0  0  0  0  0  0
   38.9180   30.5160   39.6340 C   0  0  0  0  0  0  0  0  0  0  0  0
   39.1030   31.7950   39.1580 C   0  0  0  0  0  0  0  0  0  0  0  0
   38.1110   32.7310   39.3330 C   0  0  0  0  0  0  0  0  0  0  0  0
   36.9600   32.3350   39.9880 C   0  0  0  0  0  0  0  0  0  0  0  0
   36.7180   31.0750   40.4850 C   0  0  0  0  0  0  0  0  0  0  0  0
   37.7420   30.1510   40.2910 C   0  0  0  0  0  0  0  0  0  0  0  0
   38.2130   33.7410   38.9780 H   0  0  0  0  0  0  0  0  0  0  0  0
   36.1880   33.1010   40.1130 H   0  0  0  0  0  0  0  0  0  0  0  0
   35.7930   30.8570   40.9810 H   0  0  0  0  0  0  0  0  0  0  0  0
   38.6080   29.5840   43.1300 Cl  0  0  0  0  0  0  0  0  0  0  0  0
   37.8840   28.3700   42.0650 C   0  0  0  0  0  0  0  0  0  0  0  0
   37.5440   28.7950   40.7970 C   0  0  0  0  0  0  0  0  0  0  0  0
   36.9670   27.9180   39.8760 C   0  0  0  0  0  0  0  0  0  0  0  0
   36.6880   28.2130   38.8740 H   0  0  0  0  0  0  0  0  0  0  0  0
   36.7570   26.6130   40.3060 C   0  0  0  0  0  3  0  0  0  0  0  0
   37.0920   26.1780   41.5710 C   0  0  0  0  0  0  0  0  0  0  0  0
   36.8440   24.5570   42.1430 Cl  0  0  0  0  0  0  0  0  0  0  0  0
   37.6700   27.0720   42.4790 C   0  0  0  0  0  0  0  0  0  0  0  0
   37.9700   26.8340   43.4930 H   0  0  0  0  0  0  0  0  0  0  0  0
   41.5290   32.2120   39.3620 C   0  0  0  0  0  0  0  0  0  0  0  0
   42.6260   31.4590   38.9810 C   0  0  0  0  0  0  0  0  0  0  0  0
   43.7490   31.5080   39.8290 C   0  0  0  0  0  0  0  0  0  0  0  0
   43.7070   32.2710   40.9500 N   0  0  0  0  0  0  0  0  0  0  0  0
   42.6130   32.9820   41.2660 C   0  0  0  0  0  0  0  0  0  0  0  0
   41.5500   32.9460   40.4810 N   0  0  0  0  0  0  0  0  0  0  0  0
   44.6590   30.9420   39.6050 H   0  0  0  0  0  0  0  0  0  0  0  0
   42.5190   33.6070   42.1440 H   0  0  0  0  0  0  0  0  0  0  0  0
   43.1170   31.3750   36.5360 C   0  0  2  0  0  0  0  0  0  0  0  0
   42.6520   30.5720   37.7820 C   0  0  1  0  0  0  0  0  0  0  0  0
   43.3880   29.4590   37.8860 O   0  0  0  0  0  0  0  0  0  0  0  0
   44.4910   29.5330   37.0650 C   0  0  0  0  0  0  0  0  0  0  0  0
   43.9870   30.2850   35.8670 C   0  0  1  0  0  0  0  0  0  0  0  0
   42.3580   31.5910   35.7980 H   0  0  0  0  0  0  0  0  0  0  0  0
   41.7420   30.3120   37.3290 H   0  0  0  0  0  0  0  0  0  0  0  0
   44.7210   28.4800   36.7400 H   0  0  0  0  0  0  0  0  0  0  0  0
   45.3730   29.9740   37.5470 H   0  0  0  0  0  0  0  0  0  0  0  0
   44.7780   30.7760   35.2690 H   0  0  0  0  0  0  0  0  0  0  0  0
   43.8370   32.4680   36.7970 O   0  0  0  0  0  0  0  0  0  0  0  0
   44.6780   32.2840   37.2590 H   0  0  0  0  0  0  0  0  0  0  0  0
   43.2170   29.4060   35.1360 O   0  0  0  0  0  0  0  0  0  0  0  0
   43.0440   29.6850   34.2110 H   0  0  0  0  0  0  0  0  0  0  0  0
  1  6  1  0  0  0  0
  1 24  1  0  0  0  0
  2  1  1  0  0  0  0
  3  1  1  0  0  0  0
  4  5  1  0  0  0  0
  5 10  1  0  0  0  0
  6  7  1  0  0  0  0
  6  5  2  0  0  0  0
  7  8  2  0  0  0  0
  8 12  1  0  0  0  0
  8  9  1  0  0  0  0
  9 13  1  0  0  0  0
 10  9  2  0  0  0  0
 10 16  1  0  0  0  0
 11  7  1  0  0  0  0
 15 22  1  0  0  0  0
 15 14  1  0  0  0  0
 16 15  2  0  0  0  0
 17 19  2  0  0  0  0
 17 16  1  0  0  0  0
 18 17  1  0  0  0  0
 19 20  1  0  0  0  0
 20 21  1  0  0  0  0
 20 22  2  0  0  0  0
 22 23  1  0  0  0  0
 24 29  1  0  0  0  0
 25 24  2  0  0  0  0
 25 26  1  0  0  0  0
 26 27  2  0  0  0  0
 27 28  1  0  0  0  0
 28 31  1  0  0  0  0
 29 28  2  0  0  0  0
 30 26  1  0  0  0  0
 32 37  1  6  0  0  0
 32 42  1  0  0  0  0
 32 33  1  0  0  0  0
 33 38  1  6  0  0  0
 33 34  1  0  0  0  0
 33 25  1  0  0  0  0
 35 40  1  0  0  0  0
 35 34  1  0  0  0  0
 36 41  1  6  0  0  0
 36 32  1  0  0  0  0
 36 35  1  0  0  0  0
 39 35  1  0  0  0  0
 42 43  1  0  0  0  0
 44 36  1  0  0  0  0
 45 44  1  0  0  0  0
M  END
>  <minimizedAffinity>
-6.22887278

$$$$

 OpenBabel03242514513D

 45 48  0  0  1  0  0  0  0  0999 V2000
   40.2680   29.7590   41.6190 C   0  0  0  0  0  0  0  0  0  0  0  0
   40.9640   29.9870   42.4060 H   0  0  0  0  0  0  0  0  0  0  0  0
   40.8850   29.1740   40.8630 H   0  0  0  0  0  0  0  0  0  0  0  0
   39.5950   27.2410   40.4020 F   0  0  0  0  0  0  0  0  0  0  0  0
   38.9120   27.6810   41.4560 C   0  0  0  0  0  0  0  0  0  0  0  0
   39.1860   28.8760   42.0820 C   0  0  0  0  0  0  0  0  0  0  0  0
   38.4330   29.2570   43.1680 C   0  0  0  0  0  0  0  0  0  0  0  0
   37.4250   28.4090   43.5830 C   0  0  0  0  0  0  0  0  0  0  0  0
   37.1040   27.2040   42.9980 C   0  0  0  0  0  0  0  0  0  0  0  0
   37.8850   26.8480   41.9020 C   0  0  0  0  0  0  0  0  0  0  0  0
   38.6120   30.1820   43.6880 H   0  0  0  0  0  0  0  0  0  0  0  0
   36.8420   28.7370   44.4490 H   0  0  0  0  0  0  0  0  0  0  0  0
   36.3030   26.6090   43.3890 H   0  0  0  0  0  0  0  0  0  0  0  0
   39.3250   24.3880   42.9060 Cl  0  0  0  0  0  0  0  0  0  0  0  0
   38.1630   24.3680   41.5710 C   0  0  0  0  0  0  0  0  0  0  0  0
   37.5930   25.5800   41.2370 C   0  0  0  0  0  0  0  0  0  0  0  0
   36.6640   25.6760   40.1990 C   0  0  0  0  0  0  0  0  0  0  0  0
   36.1970   26.6070   39.9090 H   0  0  0  0  0  0  0  0  0  0  0  0
   36.3510   24.4970   39.5330 C   0  0  0  0  0  3  0  0  0  0  0  0
   36.9130   23.2800   39.8580 C   0  0  0  0  0  0  0  0  0  0  0  0
   36.5450   21.7880   39.0490 Cl  0  0  0  0  0  0  0  0  0  0  0  0
   37.8420   23.2050   40.9010 C   0  0  0  0  0  0  0  0  0  0  0  0
   38.3410   22.3030   41.2360 H   0  0  0  0  0  0  0  0  0  0  0  0
   39.7790   30.9120   40.8150 C   0  0  0  0  0  0  0  0  0  0  0  0
   40.2360   31.0160   39.5130 C   0  0  0  0  0  0  0  0  0  0  0  0
   39.7490   32.1020   38.7590 C   0  0  0  0  0  0  0  0  0  0  0  0
   38.8780   32.9710   39.3280 N   0  0  0  0  0  0  0  0  0  0  0  0
   38.4690   32.8170   40.5970 C   0  0  0  0  0  0  0  0  0  0  0  0
   38.9180   31.8040   41.3190 N   0  0  0  0  0  0  0  0  0  0  0  0
   40.0580   32.2610   37.7220 H   0  0  0  0  0  0  0  0  0  0  0  0
   37.7780   33.4760   41.1060 H   0  0  0  0  0  0  0  0  0  0  0  0
   40.5500   29.1590   37.8760 C   0  0  2  0  0  0  0  0  0  0  0  0
   41.2400   30.0960   38.9060 C   0  0  1  0  0  0  0  0  0  0  0  0
   42.3010   30.6750   38.3290 O   0  0  0  0  0  0  0  0  0  0  0  0
   42.2610   30.5030   36.9640 C   0  0  0  0  0  0  0  0  0  0  0  0
   41.6620   29.1350   36.8010 C   0  0  1  0  0  0  0  0  0  0  0  0
   40.4480   28.1240   38.1670 H   0  0  0  0  0  0  0  0  0  0  0  0
   41.5890   29.2860   39.4740 H   0  0  0  0  0  0  0  0  0  0  0  0
   43.3300   30.4550   36.6140 H   0  0  0  0  0  0  0  0  0  0  0  0
   41.7310   31.3040   36.4320 H   0  0  0  0  0  0  0  0  0  0  0  0
   41.1980   28.9540   35.8120 H   0  0  0  0  0  0  0  0  0  0  0  0
   39.4040   29.6150   37.3680 O   0  0  0  0  0  0  0  0  0  0  0  0
   39.4980   30.4490   36.8680 H   0  0  0  0  0  0  0  0  0  0  0  0
   42.6470   28.2250   37.1160 O   0  0  0  0  0  0  0  0  0  0  0  0
   42.4750   27.3100   36.8060 H   0  0  0  0  0  0  0  0  0  0  0  0
  1  6  1  0  0  0  0
  1  2  1  0  0  0  0
  3  1  1  0  0  0  0
  4  5  1  0  0  0  0
  5 10  2  0  0  0  0
  5  6  1  0  0  0  0
  6  7  2  0  0  0  0
  7  8  1  0  0  0  0
  7 11  1  0  0  0  0
  8 12  1  0  0  0  0
  9 13  1  0  0  0  0
  9  8  2  0  0  0  0
 10  9  1  0  0  0  0
 15 14  1  0  0  0  0
 16 15  1  0  0  0  0
 16 10  1  0  0  0  0
 17 16  2  0  0  0  0
 18 17  1  0  0  0  0
 19 20  2  0  0  0  0
 19 17  1  0  0  0  0
 20 22  1  0  0  0  0
 21 20  1  0  0  0  0
 22 23  1  0  0  0  0
 22 15  2  0  0  0  0
 24 29  1  0  0  0  0
 24  1  1  0  0  0  0
 25 24  2  0  0  0  0
 26 27  2  0  0  0  0
 26 25  1  0  0  0  0
 27 28  1  0  0  0  0
 28 31  1  0  0  0  0
 28 29  2  0  0  0  0
 30 26  1  0  0  0  0
 32 37  1  1  0  0  0
 32 33  1  0  0  0  0
 33 38  1  1  0  0  0
 33 25  1  0  0  0  0
 34 33  1  0  0  0  0
 35 34  1  0  0  0  0
 36 41  1  6  0  0  0
 36 35  1  0  0  0  0
 36 44  1  0  0  0  0
 36 32  1  0  0  0  0
 39 35  1  0  0  0  0
 40 35  1  0  0  0  0
 42 32  1  0  0  0  0
 43 42  1  0  0  0  0
 45 44  1  0  0  0  0
M  END
>  <minimizedAffinity>
-6.21931458

$$$$

 OpenBabel03242514513D

 45 48  0  0  1  0  0  0  0  0999 V2000
   40.1830   30.2370   41.1280 C   0  0  0  0  0  0  0  0  0  0  0  0
   40.8870   30.0880   41.9270 H   0  0  0  0  0  0  0  0  0  0  0  0
   40.6700   29.7380   40.2300 H   0  0  0  0  0  0  0  0  0  0  0  0
   38.3270   29.4480   39.0770 F   0  0  0  0  0  0  0  0  0  0  0  0
   38.0630   29.1920   40.3560 C   0  0  0  0  0  0  0  0  0  0  0  0
   38.9100   29.5430   41.3820 C   0  0  0  0  0  0  0  0  0  0  0  0
   38.5640   29.2380   42.6780 C   0  0  0  0  0  0  0  0  0  0  0  0
   37.3650   28.5850   42.8870 C   0  0  0  0  0  0  0  0  0  0  0  0
   36.4780   28.2080   41.9040 C   0  0  0  0  0  0  0  0  0  0  0  0
   36.8590   28.5320   40.6040 C   0  0  0  0  0  0  0  0  0  0  0  0
   39.1960   29.4930   43.5110 H   0  0  0  0  0  0  0  0  0  0  0  0
   37.1150   28.3550   43.9280 H   0  0  0  0  0  0  0  0  0  0  0  0
   35.5690   27.7030   42.1600 H   0  0  0  0  0  0  0  0  0  0  0  0
   37.4110   25.9280   39.1720 Cl  0  0  0  0  0  0  0  0  0  0  0  0
   36.0700   27.0080   38.7620 C   0  0  0  0  0  0  0  0  0  0  0  0
   35.9590   28.1590   39.5150 C   0  0  0  0  0  0  0  0  0  0  0  0
   34.9370   29.0800   39.2740 C   0  0  0  0  0  0  0  0  0  0  0  0
   34.8180   29.9910   39.8420 H   0  0  0  0  0  0  0  0  0  0  0  0
   34.0520   28.7730   38.2470 C   0  0  0  0  0  3  0  0  0  0  0  0
   34.1530   27.6260   37.4880 C   0  0  0  0  0  0  0  0  0  0  0  0
   33.0660   27.2100   36.1990 Cl  0  0  0  0  0  0  0  0  0  0  0  0
   35.1840   26.7150   37.7450 C   0  0  0  0  0  0  0  0  0  0  0  0
   35.3540   25.7880   37.2110 H   0  0  0  0  0  0  0  0  0  0  0  0
   40.0020   31.6380   40.6610 C   0  0  0  0  0  0  0  0  0  0  0  0
   40.7520   32.0460   39.5720 C   0  0  0  0  0  0  0  0  0  0  0  0
   40.5540   33.3680   39.1300 C   0  0  0  0  0  0  0  0  0  0  0  0
   39.6620   34.1610   39.7740 N   0  0  0  0  0  0  0  0  0  0  0  0
   38.9620   33.7080   40.8260 C   0  0  0  0  0  0  0  0  0  0  0  0
   39.1360   32.4690   41.2530 N   0  0  0  0  0  0  0  0  0  0  0  0
   41.1070   33.7730   38.2760 H   0  0  0  0  0  0  0  0  0  0  0  0
   38.2380   34.2920   41.3800 H   0  0  0  0  0  0  0  0  0  0  0  0
   41.1630   30.5070   37.6500 C   0  0  2  0  0  0  0  0  0  0  0  0
   41.7770   31.1950   38.9010 C   0  0  1  0  0  0  0  0  0  0  0  0
   42.9160   31.8060   38.5510 O   0  0  0  0  0  0  0  0  0  0  0  0
   43.0140   31.8920   37.1800 C   0  0  0  0  0  0  0  0  0  0  0  0
   42.3810   30.6170   36.7030 C   0  0  1  0  0  0  0  0  0  0  0  0
   40.9890   29.4440   37.7280 H   0  0  0  0  0  0  0  0  0  0  0  0
   42.0300   30.2750   39.3360 H   0  0  0  0  0  0  0  0  0  0  0  0
   44.1110   31.8460   36.9330 H   0  0  0  0  0  0  0  0  0  0  0  0
   42.5760   32.8080   36.7610 H   0  0  0  0  0  0  0  0  0  0  0  0
   42.0180   30.6490   35.6570 H   0  0  0  0  0  0  0  0  0  0  0  0
   40.0970   31.1170   37.1300 O   0  0  0  0  0  0  0  0  0  0  0  0
   40.2770   32.0220   36.8090 H   0  0  0  0  0  0  0  0  0  0  0  0
   43.2890   29.6070   36.9340 O   0  0  0  0  0  0  0  0  0  0  0  0
   43.1140   28.7770   36.4400 H   0  0  0  0  0  0  0  0  0  0  0  0
  1  6  1  0  0  0  0
  1  2  1  0  0  0  0
  3  1  1  0  0  0  0
  4  5  1  0  0  0  0
  5 10  2  0  0  0  0
  5  6  1  0  0  0  0
  6  7  2  0  0  0  0
  7  8  1  0  0  0  0
  7 11  1  0  0  0  0
  8 12  1  0  0  0  0
  9 13  1  0  0  0  0
  9  8  2  0  0  0  0
 10  9  1  0  0  0  0
 15 14  1  0  0  0  0
 15 16  1  0  0  0  0
 16 10  1  0  0  0  0
 17 16  2  0  0  0  0
 17 18  1  0  0  0  0
 19 17  1  0  0  0  0
 20 22  1  0  0  0  0
 20 19  2  0  0  0  0
 21 20  1  0  0  0  0
 22 15  2  0  0  0  0
 23 22  1  0  0  0  0
 24  1  1  0  0  0  0
 24 29  1  0  0  0  0
 25 24  2  0  0  0  0
 26 25  1  0  0  0  0
 26 27  2  0  0  0  0
 27 28  1  0  0  0  0
 28 29  2  0  0  0  0
 28 31  1  0  0  0  0
 30 26  1  0  0  0  0
 32 37  1  1  0  0  0
 32 33  1  0  0  0  0
 33 38  1  1  0  0  0
 33 25  1  0  0  0  0
 34 33  1  0  0  0  0
 35 34  1  0  0  0  0
 36 41  1  6  0  0  0
 36 44  1  0  0  0  0
 36 35  1  0  0  0  0
 36 32  1  0  0  0  0
 39 35  1  0  0  0  0
 40 35  1  0  0  0  0
 42 32  1  0  0  0  0
 43 42  1  0  0  0  0
 45 44  1  0  0  0  0
M  END
>  <minimizedAffinity>
-6.13022709

$$$$
