
 OpenBabel03252502103D

 49 53  0  0  0  0  0  0  0  0999 V2000
   39.4780   28.9890   41.7450 C   0  0  0  0  0  0  0  0  0  0  0  0
   40.1340   28.5980   42.8470 N   0  0  0  0  0  0  0  0  0  0  0  0
   39.9610   27.4360   43.4650 C   0  0  0  0  0  0  0  0  0  0  0  0
   39.0630   26.5400   42.9840 N   0  0  0  0  0  0  0  0  0  0  0  0
   38.3530   26.8180   41.8970 C   0  0  0  0  0  0  0  0  0  0  0  0
   37.4300   25.9110   41.3970 C   0  0  0  0  0  0  0  0  0  0  0  0
   36.6800   26.1810   40.2720 C   0  0  0  0  0  0  0  0  0  0  0  0
   36.8870   27.3930   39.6590 C   0  0  0  0  0  0  0  0  0  0  0  0
   37.8260   28.2740   40.1960 C   0  0  0  0  0  0  0  0  0  0  0  0
   38.5770   28.0460   41.2950 C   0  0  0  0  0  0  0  0  0  0  0  0
   40.5240   27.1810   44.3530 H   0  0  0  0  0  0  0  0  0  0  0  0
   37.3060   24.9730   41.9160 H   0  0  0  0  0  0  0  0  0  0  0  0
   35.9920   25.4420   39.9420 H   0  0  0  0  0  0  0  0  0  0  0  0
   38.7950   32.4770   41.0650 C   0  0  0  0  0  0  0  0  0  0  0  0
   39.6990   32.8620   40.0680 C   0  0  0  0  0  0  0  0  0  0  0  0
   40.5760   31.9120   39.6260 C   0  0  0  0  0  0  0  0  0  0  0  0
   40.5350   30.6870   40.1440 N   0  0  0  0  0  0  0  0  0  0  0  0
   39.6950   30.2960   41.0790 C   0  0  0  0  0  0  0  0  0  0  0  0
   38.8200   31.2200   41.5350 N   0  0  0  0  0  0  0  0  0  0  0  0
   41.5060   32.2390   38.6670 N   0  0  0  0  0  0  0  0  0  0  0  0
   42.6130   31.3400   38.2370 C   0  0  0  0  0  0  0  0  0  0  0  0
   43.1960   31.9670   37.0080 C   0  0  0  0  0  0  0  0  0  0  0  0
   42.8800   33.4070   37.1700 C   0  0  0  0  0  0  0  0  0  0  0  0
   41.6000   33.4590   37.9300 C   0  0  0  0  0  0  0  0  0  0  0  0
   38.0730   33.2030   41.4550 H   0  0  0  0  0  0  0  0  0  0  0  0
   42.0540   30.4190   37.9080 H   0  0  0  0  0  0  0  0  0  0  0  0
   43.3260   31.1660   39.0400 H   0  0  0  0  0  0  0  0  0  0  0  0
   42.7660   31.5350   36.0750 H   0  0  0  0  0  0  0  0  0  0  0  0
   44.2990   31.8140   37.0390 H   0  0  0  0  0  0  0  0  0  0  0  0
   43.7250   33.9440   37.6250 H   0  0  0  0  0  0  0  0  0  0  0  0
   42.7060   33.8580   36.1600 H   0  0  0  0  0  0  0  0  0  0  0  0
   41.7500   34.2840   38.6570 H   0  0  0  0  0  0  0  0  0  0  0  0
   40.7490   33.6920   37.2760 H   0  0  0  0  0  0  0  0  0  0  0  0
   39.5990   34.1450   39.5910 N   0  0  0  0  0  0  0  0  0  0  0  0
   39.1520   34.5800   38.7570 H   0  0  0  0  0  0  0  0  0  0  0  0
   39.9560   35.0750   39.9600 H   0  0  0  0  0  0  0  0  0  0  0  0
   34.4170   29.1550   39.9850 Cl  0  0  0  0  0  0  0  0  0  0  0  0
   34.9400   28.4190   38.4710 C   0  0  0  0  0  0  0  0  0  0  0  0
   36.0820   27.6430   38.4780 C   0  0  0  0  0  0  0  0  0  0  0  0
   36.5230   27.0460   37.2960 C   0  0  0  0  0  0  0  0  0  0  0  0
   37.4060   26.4250   37.2170 H   0  0  0  0  0  0  0  0  0  0  0  0
   35.7740   27.2680   36.1580 C   0  0  0  0  0  3  0  0  0  0  0  0
   34.6330   28.0440   36.1540 C   0  0  0  0  0  0  0  0  0  0  0  0
   33.7880   28.2390   34.6430 Cl  0  0  0  0  0  0  0  0  0  0  0  0
   34.1890   28.6440   37.3360 C   0  0  0  0  0  0  0  0  0  0  0  0
   33.2990   29.2470   37.3280 H   0  0  0  0  0  0  0  0  0  0  0  0
   37.9030   29.4680   39.4100 N   0  0  0  0  0  0  0  0  0  0  0  0
   38.6020   29.2080   38.6510 H   0  0  0  0  0  0  0  0  0  0  0  0
   37.4690   30.3910   39.4320 H   0  0  0  0  0  0  0  0  0  0  0  0
  1  2  1  0  0  0  0
  2  3  2  0  0  0  0
  3 11  1  0  0  0  0
  4  3  1  0  0  0  0
  5  4  2  0  0  0  0
  6  5  1  0  0  0  0
  6 12  1  0  0  0  0
  7  6  2  0  0  0  0
  8  9  2  0  0  0  0
  8  7  1  0  0  0  0
  9 10  1  0  0  0  0
 10  1  2  0  0  0  0
 10  5  1  0  0  0  0
 13  7  1  0  0  0  0
 14 25  1  0  0  0  0
 14 19  1  0  0  0  0
 15 14  2  0  0  0  0
 16 15  1  0  0  0  0
 16 17  2  0  0  0  0
 17 18  1  0  0  0  0
 18 19  2  0  0  0  0
 18  1  1  0  0  0  0
 20 16  1  0  0  0  0
 21 20  1  0  0  0  0
 21 27  1  0  0  0  0
 22 29  1  0  0  0  0
 22 23  1  0  0  0  0
 22 21  1  0  0  0  0
 23 30  1  0  0  0  0
 23 24  1  0  0  0  0
 24 32  1  0  0  0  0
 24 20  1  0  0  0  0
 26 21  1  0  0  0  0
 28 22  1  0  0  0  0
 31 23  1  0  0  0  0
 33 24  1  0  0  0  0
 34 36  1  0  0  0  0
 34 15  1  0  0  0  0
 35 34  1  0  0  0  0
 38 39  1  0  0  0  0
 38 37  1  0  0  0  0
 39  8  1  0  0  0  0
 40 39  2  0  0  0  0
 41 40  1  0  0  0  0
 42 40  1  0  0  0  0
 43 42  2  0  0  0  0
 43 45  1  0  0  0  0
 44 43  1  0  0  0  0
 45 38  2  0  0  0  0
 46 45  1  0  0  0  0
 47 49  1  0  0  0  0
 47  9  1  0  0  0  0
 48 47  1  0  0  0  0
M  END
>  <minimizedAffinity>
-6.60074472

$$$$

 OpenBabel03252502103D

 49 53  0  0  0  0  0  0  0  0999 V2000
   36.6410   29.5280   38.3330 C   0  0  0  0  0  0  0  0  0  0  0  0
   35.6400   29.6720   37.4530 N   0  0  0  0  0  0  0  0  0  0  0  0
   34.9500   28.6730   36.9140 C   0  0  0  0  0  0  0  0  0  0  0  0
   35.2430   27.3900   37.2460 N   0  0  0  0  0  0  0  0  0  0  0  0
   36.2160   27.1260   38.1110 C   0  0  0  0  0  0  0  0  0  0  0  0
   36.5260   25.8190   38.4580 C   0  0  0  0  0  0  0  0  0  0  0  0
   37.5340   25.5220   39.3490 C   0  0  0  0  0  0  0  0  0  0  0  0
   38.2250   26.5800   39.8860 C   0  0  0  0  0  0  0  0  0  0  0  0
   37.8790   27.8780   39.5090 C   0  0  0  0  0  0  0  0  0  0  0  0
   36.9000   28.2080   38.6410 C   0  0  0  0  0  0  0  0  0  0  0  0
   34.1520   28.8570   36.2070 H   0  0  0  0  0  0  0  0  0  0  0  0
   35.9530   25.0230   38.0060 H   0  0  0  0  0  0  0  0  0  0  0  0
   37.7180   24.4990   39.5710 H   0  0  0  0  0  0  0  0  0  0  0  0
   37.2350   32.1940   40.7070 C   0  0  0  0  0  0  0  0  0  0  0  0
   38.4110   32.8290   40.2920 C   0  0  0  0  0  0  0  0  0  0  0  0
   39.0280   32.3250   39.1810 C   0  0  0  0  0  0  0  0  0  0  0  0
   38.4970   31.2800   38.5500 N   0  0  0  0  0  0  0  0  0  0  0  0
   37.3920   30.6660   38.9170 C   0  0  0  0  0  0  0  0  0  0  0  0
   36.7670   31.1440   40.0150 N   0  0  0  0  0  0  0  0  0  0  0  0
   40.2020   32.8900   38.7400 N   0  0  0  0  0  0  0  0  0  0  0  0
   41.0440   32.3220   37.6510 C   0  0  0  0  0  0  0  0  0  0  0  0
   42.0500   33.3810   37.3160 C   0  0  0  0  0  0  0  0  0  0  0  0
   42.1650   34.1590   38.5730 C   0  0  0  0  0  0  0  0  0  0  0  0
   40.8290   34.0780   39.2250 C   0  0  0  0  0  0  0  0  0  0  0  0
   36.7050   32.5580   41.5950 H   0  0  0  0  0  0  0  0  0  0  0  0
   40.3170   32.2710   36.7930 H   0  0  0  0  0  0  0  0  0  0  0  0
   41.4720   31.3620   37.9310 H   0  0  0  0  0  0  0  0  0  0  0  0
   41.7250   34.0060   36.4520 H   0  0  0  0  0  0  0  0  0  0  0  0
   43.0150   32.8730   37.0930 H   0  0  0  0  0  0  0  0  0  0  0  0
   43.0120   33.8010   39.1770 H   0  0  0  0  0  0  0  0  0  0  0  0
   42.3680   35.2310   38.3210 H   0  0  0  0  0  0  0  0  0  0  0  0
   41.0610   33.9250   40.3000 H   0  0  0  0  0  0  0  0  0  0  0  0
   40.2580   35.0080   39.0980 H   0  0  0  0  0  0  0  0  0  0  0  0
   38.8200   33.9250   41.0070 N   0  0  0  0  0  0  0  0  0  0  0  0
   38.7270   34.9550   40.8830 H   0  0  0  0  0  0  0  0  0  0  0  0
   39.3550   34.0240   41.9210 H   0  0  0  0  0  0  0  0  0  0  0  0
   37.5280   26.5700   42.8580 Cl  0  0  0  0  0  0  0  0  0  0  0  0
   39.1130   26.1840   42.1910 C   0  0  0  0  0  0  0  0  0  0  0  0
   39.2790   26.2310   40.8210 C   0  0  0  0  0  0  0  0  0  0  0  0
   40.5220   25.9310   40.2610 C   0  0  0  0  0  0  0  0  0  0  0  0
   40.7340   25.9450   39.1990 H   0  0  0  0  0  0  0  0  0  0  0  0
   41.5420   25.5960   41.1280 C   0  0  0  0  0  3  0  0  0  0  0  0
   41.3740   25.5500   42.4970 C   0  0  0  0  0  0  0  0  0  0  0  0
   42.7500   25.1100   43.4710 Cl  0  0  0  0  0  0  0  0  0  0  0  0
   40.1300   25.8490   43.0610 C   0  0  0  0  0  0  0  0  0  0  0  0
   40.0040   25.8130   44.1280 H   0  0  0  0  0  0  0  0  0  0  0  0
   38.7020   28.8350   40.1860 N   0  0  0  0  0  0  0  0  0  0  0  0
   38.1890   28.9810   41.1070 H   0  0  0  0  0  0  0  0  0  0  0  0
   39.5710   29.3290   39.9850 H   0  0  0  0  0  0  0  0  0  0  0  0
  1 10  1  0  0  0  0
  1 18  1  0  0  0  0
  2  1  2  0  0  0  0
  3  4  2  0  0  0  0
  3  2  1  0  0  0  0
  4  5  1  0  0  0  0
  5  6  2  0  0  0  0
  5 10  1  0  0  0  0
  6  7  1  0  0  0  0
  7 13  1  0  0  0  0
  7  8  2  0  0  0  0
  8 39  1  0  0  0  0
  9  8  1  0  0  0  0
  9 47  1  0  0  0  0
 10  9  2  0  0  0  0
 11  3  1  0  0  0  0
 12  6  1  0  0  0  0
 14 25  1  0  0  0  0
 15 14  1  0  0  0  0
 15 34  1  0  0  0  0
 16 15  2  0  0  0  0
 17 18  2  0  0  0  0
 17 16  1  0  0  0  0
 18 19  1  0  0  0  0
 19 14  2  0  0  0  0
 20 16  1  0  0  0  0
 20 24  1  0  0  0  0
 21 27  1  0  0  0  0
 21 20  1  0  0  0  0
 22 21  1  0  0  0  0
 22 23  1  0  0  0  0
 23 30  1  0  0  0  0
 23 24  1  0  0  0  0
 24 32  1  0  0  0  0
 26 21  1  0  0  0  0
 28 22  1  0  0  0  0
 29 22  1  0  0  0  0
 31 23  1  0  0  0  0
 33 24  1  0  0  0  0
 34 36  1  0  0  0  0
 35 34  1  0  0  0  0
 38 37  1  0  0  0  0
 38 45  1  0  0  0  0
 39 38  2  0  0  0  0
 40 39  1  0  0  0  0
 40 42  2  0  0  0  0
 41 40  1  0  0  0  0
 42 43  1  0  0  0  0
 43 45  2  0  0  0  0
 43 44  1  0  0  0  0
 45 46  1  0  0  0  0
 47 48  1  0  0  0  0
 49 47  1  0  0  0  0
M  END
>  <minimizedAffinity>
-6.58033276

$$$$

 OpenBabel03252502103D

 49 53  0  0  0  0  0  0  0  0999 V2000
   36.6300   25.9180   39.5550 C   0  0  0  0  0  0  0  0  0  0  0  0
   36.2950   24.6790   39.9440 N   0  0  0  0  0  0  0  0  0  0  0  0
   36.5610   24.1570   41.1360 C   0  0  0  0  0  0  0  0  0  0  0  0
   37.2200   24.8930   42.0660 N   0  0  0  0  0  0  0  0  0  0  0  0
   37.6020   26.1350   41.7930 C   0  0  0  0  0  0  0  0  0  0  0  0
   38.2780   26.8970   42.7350 C   0  0  0  0  0  0  0  0  0  0  0  0
   38.6870   28.1860   42.4710 C   0  0  0  0  0  0  0  0  0  0  0  0
   38.3940   28.6920   41.2280 C   0  0  0  0  0  0  0  0  0  0  0  0
   37.7120   27.8910   40.3120 C   0  0  0  0  0  0  0  0  0  0  0  0
   37.2970   26.6260   40.5340 C   0  0  0  0  0  0  0  0  0  0  0  0
   36.2630   23.1480   41.3880 H   0  0  0  0  0  0  0  0  0  0  0  0
   38.4840   26.4510   43.6960 H   0  0  0  0  0  0  0  0  0  0  0  0
   39.2000   28.7140   43.2380 H   0  0  0  0  0  0  0  0  0  0  0  0
   37.2470   26.5620   36.0480 C   0  0  0  0  0  0  0  0  0  0  0  0
   36.1780   27.3470   35.6030 C   0  0  0  0  0  0  0  0  0  0  0  0
   35.2100   27.6530   36.5190 C   0  0  0  0  0  0  0  0  0  0  0  0
   35.3230   27.2070   37.7690 N   0  0  0  0  0  0  0  0  0  0  0  0
   36.3190   26.4710   38.2140 C   0  0  0  0  0  0  0  0  0  0  0  0
   37.2850   26.1520   37.3250 N   0  0  0  0  0  0  0  0  0  0  0  0
   34.1210   28.3990   36.1350 N   0  0  0  0  0  0  0  0  0  0  0  0
   32.9320   28.6450   36.9970 C   0  0  0  0  0  0  0  0  0  0  0  0
   32.1370   29.7100   36.3040 C   0  0  0  0  0  0  0  0  0  0  0  0
   32.5110   29.5480   34.8780 C   0  0  0  0  0  0  0  0  0  0  0  0
   33.9140   29.0480   34.8800 C   0  0  0  0  0  0  0  0  0  0  0  0
   38.0470   26.2870   35.3500 H   0  0  0  0  0  0  0  0  0  0  0  0
   33.3960   29.1170   37.9080 H   0  0  0  0  0  0  0  0  0  0  0  0
   32.3830   27.7280   37.2000 H   0  0  0  0  0  0  0  0  0  0  0  0
   32.3700   30.7270   36.6970 H   0  0  0  0  0  0  0  0  0  0  0  0
   31.0580   29.4720   36.4430 H   0  0  0  0  0  0  0  0  0  0  0  0
   31.7810   28.9150   34.3520 H   0  0  0  0  0  0  0  0  0  0  0  0
   32.4960   30.5520   34.3810 H   0  0  0  0  0  0  0  0  0  0  0  0
   33.9250   28.2700   34.0880 H   0  0  0  0  0  0  0  0  0  0  0  0
   34.6280   29.8440   34.6270 H   0  0  0  0  0  0  0  0  0  0  0  0
   36.2120   27.7770   34.3010 N   0  0  0  0  0  0  0  0  0  0  0  0
   36.4990   28.6620   33.8320 H   0  0  0  0  0  0  0  0  0  0  0  0
   35.9540   27.3050   33.3840 H   0  0  0  0  0  0  0  0  0  0  0  0
   36.2880   30.9000   41.3120 Cl  0  0  0  0  0  0  0  0  0  0  0  0
   38.0030   31.1520   40.9910 C   0  0  0  0  0  0  0  0  0  0  0  0
   38.8390   30.0520   40.9850 C   0  0  0  0  0  0  0  0  0  0  0  0
   40.2020   30.2170   40.7340 C   0  0  0  0  0  0  0  0  0  0  0  0
   40.9220   29.4090   40.7110 H   0  0  0  0  0  0  0  0  0  0  0  0
   40.6510   31.5010   40.4990 C   0  0  0  0  0  3  0  0  0  0  0  0
   39.8140   32.5980   40.5050 C   0  0  0  0  0  0  0  0  0  0  0  0
   40.5180   34.1610   40.1930 Cl  0  0  0  0  0  0  0  0  0  0  0  0
   38.4480   32.4360   40.7560 C   0  0  0  0  0  0  0  0  0  0  0  0
   37.8000   33.2940   40.7600 H   0  0  0  0  0  0  0  0  0  0  0  0
   37.4920   28.6020   39.0880 N   0  0  0  0  0  0  0  0  0  0  0  0
   36.5870   29.1290   39.2800 H   0  0  0  0  0  0  0  0  0  0  0  0
   37.9740   28.6920   38.1950 H   0  0  0  0  0  0  0  0  0  0  0  0
  1  2  2  0  0  0  0
  1 10  1  0  0  0  0
  2  3  1  0  0  0  0
  3 11  1  0  0  0  0
  3  4  2  0  0  0  0
  5  4  1  0  0  0  0
  5  6  1  0  0  0  0
  6 12  1  0  0  0  0
  7  6  2  0  0  0  0
  7 13  1  0  0  0  0
  8  7  1  0  0  0  0
  9 10  1  0  0  0  0
  9  8  2  0  0  0  0
 10  5  2  0  0  0  0
 14 19  1  0  0  0  0
 15 14  2  0  0  0  0
 15 16  1  0  0  0  0
 16 17  2  0  0  0  0
 17 18  1  0  0  0  0
 18  1  1  0  0  0  0
 19 18  2  0  0  0  0
 20 16  1  0  0  0  0
 20 21  1  0  0  0  0
 21 27  1  0  0  0  0
 21 26  1  0  0  0  0
 22 29  1  0  0  0  0
 22 28  1  0  0  0  0
 22 21  1  0  0  0  0
 23 24  1  0  0  0  0
 23 22  1  0  0  0  0
 24 20  1  0  0  0  0
 25 14  1  0  0  0  0
 30 23  1  0  0  0  0
 31 23  1  0  0  0  0
 32 24  1  0  0  0  0
 33 24  1  0  0  0  0
 34 15  1  0  0  0  0
 35 34  1  0  0  0  0
 36 34  1  0  0  0  0
 38 37  1  0  0  0  0
 39 38  1  0  0  0  0
 39  8  1  0  0  0  0
 40 39  2  0  0  0  0
 41 40  1  0  0  0  0
 42 43  2  0  0  0  0
 42 40  1  0  0  0  0
 43 45  1  0  0  0  0
 44 43  1  0  0  0  0
 45 46  1  0  0  0  0
 45 38  2  0  0  0  0
 47 48  1  0  0  0  0
 47  9  1  0  0  0  0
 49 47  1  0  0  0  0
M  END
>  <minimizedAffinity>
-6.52921343

$$$$

 OpenBabel03252502103D

 49 53  0  0  0  0  0  0  0  0999 V2000
   38.2280   29.0970   41.3530 C   0  0  0  0  0  0  0  0  0  0  0  0
   38.1170   29.5820   42.5980 N   0  0  0  0  0  0  0  0  0  0  0  0
   37.6750   28.8970   43.6460 C   0  0  0  0  0  0  0  0  0  0  0  0
   37.2940   27.6040   43.4980 N   0  0  0  0  0  0  0  0  0  0  0  0
   37.3610   27.0160   42.3090 C   0  0  0  0  0  0  0  0  0  0  0  0
   36.9730   25.6940   42.1450 C   0  0  0  0  0  0  0  0  0  0  0  0
   37.0300   25.0650   40.9190 C   0  0  0  0  0  0  0  0  0  0  0  0
   37.4930   25.8050   39.8590 C   0  0  0  0  0  0  0  0  0  0  0  0
   37.8730   27.1310   40.0700 C   0  0  0  0  0  0  0  0  0  0  0  0
   37.8300   27.7800   41.2530 C   0  0  0  0  0  0  0  0  0  0  0  0
   37.6090   29.3490   44.6270 H   0  0  0  0  0  0  0  0  0  0  0  0
   36.6150   25.1570   43.0110 H   0  0  0  0  0  0  0  0  0  0  0  0
   36.7170   24.0510   40.8640 H   0  0  0  0  0  0  0  0  0  0  0  0
   37.9040   31.3190   38.5160 C   0  0  0  0  0  0  0  0  0  0  0  0
   39.1890   31.4480   37.9740 C   0  0  0  0  0  0  0  0  0  0  0  0
   40.1970   30.7720   38.6030 C   0  0  0  0  0  0  0  0  0  0  0  0
   39.9240   30.0320   39.6750 N   0  0  0  0  0  0  0  0  0  0  0  0
   38.7260   29.8900   40.2030 C   0  0  0  0  0  0  0  0  0  0  0  0
   37.7140   30.5530   39.6010 N   0  0  0  0  0  0  0  0  0  0  0  0
   41.4840   30.8810   38.1330 N   0  0  0  0  0  0  0  0  0  0  0  0
   42.6780   30.3310   38.8350 C   0  0  0  0  0  0  0  0  0  0  0  0
   43.8090   30.4290   37.8570 C   0  0  0  0  0  0  0  0  0  0  0  0
   43.4080   31.5520   36.9750 C   0  0  0  0  0  0  0  0  0  0  0  0
   41.9200   31.5280   36.9370 C   0  0  0  0  0  0  0  0  0  0  0  0
   37.0630   31.8450   38.0500 H   0  0  0  0  0  0  0  0  0  0  0  0
   42.4130   29.2410   38.9290 H   0  0  0  0  0  0  0  0  0  0  0  0
   42.8540   30.8310   39.7850 H   0  0  0  0  0  0  0  0  0  0  0  0
   43.9600   29.4760   37.2980 H   0  0  0  0  0  0  0  0  0  0  0  0
   44.7270   30.7010   38.4260 H   0  0  0  0  0  0  0  0  0  0  0  0
   43.8600   32.4960   37.3150 H   0  0  0  0  0  0  0  0  0  0  0  0
   43.7890   31.3570   35.9400 H   0  0  0  0  0  0  0  0  0  0  0  0
   41.6300   32.5970   37.0030 H   0  0  0  0  0  0  0  0  0  0  0  0
   41.5450   31.1000   35.9970 H   0  0  0  0  0  0  0  0  0  0  0  0
   39.3190   32.2060   36.8380 N   0  0  0  0  0  0  0  0  0  0  0  0
   39.3750   31.9910   35.8200 H   0  0  0  0  0  0  0  0  0  0  0  0
   39.3920   33.2540   36.6820 H   0  0  0  0  0  0  0  0  0  0  0  0
   40.1160   24.4480   39.0890 Cl  0  0  0  0  0  0  0  0  0  0  0  0
   38.6550   24.4540   38.1040 C   0  0  0  0  0  0  0  0  0  0  0  0
   37.5410   25.1120   38.5850 C   0  0  0  0  0  0  0  0  0  0  0  0
   36.3670   25.1360   37.8290 C   0  0  0  0  0  0  0  0  0  0  0  0
   35.4530   25.6290   38.1330 H   0  0  0  0  0  0  0  0  0  0  0  0
   36.3860   24.4840   36.6120 C   0  0  0  0  0  3  0  0  0  0  0  0
   37.5010   23.8270   36.1330 C   0  0  0  0  0  0  0  0  0  0  0  0
   37.3810   23.0460   34.5800 Cl  0  0  0  0  0  0  0  0  0  0  0  0
   38.6770   23.8010   36.8890 C   0  0  0  0  0  0  0  0  0  0  0  0
   39.5430   23.2890   36.5120 H   0  0  0  0  0  0  0  0  0  0  0  0
   38.3370   27.7220   38.8510 N   0  0  0  0  0  0  0  0  0  0  0  0
   39.3640   27.4450   38.8290 H   0  0  0  0  0  0  0  0  0  0  0  0
   37.9250   28.2740   38.1000 H   0  0  0  0  0  0  0  0  0  0  0  0
  1  2  1  0  0  0  0
  2  3  2  0  0  0  0
  3 11  1  0  0  0  0
  4  3  1  0  0  0  0
  5  4  2  0  0  0  0
  6  5  1  0  0  0  0
  6 12  1  0  0  0  0
  7  6  2  0  0  0  0
  8  9  2  0  0  0  0
  8  7  1  0  0  0  0
  9 10  1  0  0  0  0
 10  1  2  0  0  0  0
 10  5  1  0  0  0  0
 13  7  1  0  0  0  0
 14 19  1  0  0  0  0
 15 14  2  0  0  0  0
 15 16  1  0  0  0  0
 16 17  2  0  0  0  0
 17 18  1  0  0  0  0
 18  1  1  0  0  0  0
 19 18  2  0  0  0  0
 20 16  1  0  0  0  0
 20 21  1  0  0  0  0
 21 26  1  0  0  0  0
 21 27  1  0  0  0  0
 22 29  1  0  0  0  0
 22 21  1  0  0  0  0
 23 30  1  0  0  0  0
 23 22  1  0  0  0  0
 24 23  1  0  0  0  0
 24 32  1  0  0  0  0
 24 20  1  0  0  0  0
 25 14  1  0  0  0  0
 28 22  1  0  0  0  0
 31 23  1  0  0  0  0
 33 24  1  0  0  0  0
 34 15  1  0  0  0  0
 35 34  1  0  0  0  0
 36 34  1  0  0  0  0
 38 39  1  0  0  0  0
 38 37  1  0  0  0  0
 39  8  1  0  0  0  0
 40 41  1  0  0  0  0
 40 39  2  0  0  0  0
 42 40  1  0  0  0  0
 43 42  2  0  0  0  0
 43 45  1  0  0  0  0
 44 43  1  0  0  0  0
 45 38  2  0  0  0  0
 46 45  1  0  0  0  0
 47  9  1  0  0  0  0
 48 47  1  0  0  0  0
 49 47  1  0  0  0  0
M  END
>  <minimizedAffinity>
-6.29564095

$$$$

 OpenBabel03252502103D

 49 53  0  0  0  0  0  0  0  0999 V2000
   37.7140   27.1080   41.3900 C   0  0  0  0  0  0  0  0  0  0  0  0
   38.2470   26.6070   42.5130 N   0  0  0  0  0  0  0  0  0  0  0  0
   38.2730   25.3180   42.8350 C   0  0  0  0  0  0  0  0  0  0  0  0
   37.7320   24.4000   41.9960 N   0  0  0  0  0  0  0  0  0  0  0  0
   37.1750   24.7800   40.8520 C   0  0  0  0  0  0  0  0  0  0  0  0
   36.6170   23.8500   39.9870 C   0  0  0  0  0  0  0  0  0  0  0  0
   36.0300   24.2230   38.7960 C   0  0  0  0  0  0  0  0  0  0  0  0
   36.0230   25.5640   38.4970 C   0  0  0  0  0  0  0  0  0  0  0  0
   36.5960   26.4640   39.3960 C   0  0  0  0  0  0  0  0  0  0  0  0
   37.1770   26.1360   40.5700 C   0  0  0  0  0  0  0  0  0  0  0  0
   38.7190   24.9780   43.7600 H   0  0  0  0  0  0  0  0  0  0  0  0
   36.6490   22.8090   40.2690 H   0  0  0  0  0  0  0  0  0  0  0  0
   35.6220   23.4600   38.1800 H   0  0  0  0  0  0  0  0  0  0  0  0
   36.2890   30.4320   41.2740 C   0  0  0  0  0  0  0  0  0  0  0  0
   37.2220   31.2320   40.6020 C   0  0  0  0  0  0  0  0  0  0  0  0
   38.3760   30.6250   40.1910 C   0  0  0  0  0  0  0  0  0  0  0  0
   38.5610   29.3290   40.4350 N   0  0  0  0  0  0  0  0  0  0  0  0
   37.7000   28.5540   41.0610 C   0  0  0  0  0  0  0  0  0  0  0  0
   36.5540   29.1330   41.4800 N   0  0  0  0  0  0  0  0  0  0  0  0
   39.3420   31.3650   39.5500 N   0  0  0  0  0  0  0  0  0  0  0  0
   40.6990   30.8510   39.2130 C   0  0  0  0  0  0  0  0  0  0  0  0
   41.3050   31.8690   38.2950 C   0  0  0  0  0  0  0  0  0  0  0  0
   40.6080   33.1260   38.6620 C   0  0  0  0  0  0  0  0  0  0  0  0
   39.2460   32.7200   39.1090 C   0  0  0  0  0  0  0  0  0  0  0  0
   35.3500   30.8730   41.6270 H   0  0  0  0  0  0  0  0  0  0  0  0
   40.4600   29.9440   38.5920 H   0  0  0  0  0  0  0  0  0  0  0  0
   41.2840   30.6400   40.1060 H   0  0  0  0  0  0  0  0  0  0  0  0
   41.1660   31.5980   37.2230 H   0  0  0  0  0  0  0  0  0  0  0  0
   42.3870   31.9480   38.5440 H   0  0  0  0  0  0  0  0  0  0  0  0
   41.1970   33.7000   39.3930 H   0  0  0  0  0  0  0  0  0  0  0  0
   40.5010   33.7640   37.7480 H   0  0  0  0  0  0  0  0  0  0  0  0
   39.0530   33.3540   39.9990 H   0  0  0  0  0  0  0  0  0  0  0  0
   38.4900   32.9220   38.3390 H   0  0  0  0  0  0  0  0  0  0  0  0
   36.8820   32.5420   40.3770 N   0  0  0  0  0  0  0  0  0  0  0  0
   36.4890   33.0650   39.5670 H   0  0  0  0  0  0  0  0  0  0  0  0
   36.9200   33.4060   40.9940 H   0  0  0  0  0  0  0  0  0  0  0  0
   37.8410   25.9090   36.0700 Cl  0  0  0  0  0  0  0  0  0  0  0  0
   36.0900   26.1100   36.0570 C   0  0  0  0  0  0  0  0  0  0  0  0
   35.3980   25.9210   37.2370 C   0  0  0  0  0  0  0  0  0  0  0  0
   34.0110   26.0740   37.2600 C   0  0  0  0  0  0  0  0  0  0  0  0
   33.3960   25.9430   38.1420 H   0  0  0  0  0  0  0  0  0  0  0  0
   33.3920   26.4130   36.0750 C   0  0  0  0  0  3  0  0  0  0  0  0
   34.0860   26.6020   34.8970 C   0  0  0  0  0  0  0  0  0  0  0  0
   33.1740   27.0280   33.4740 Cl  0  0  0  0  0  0  0  0  0  0  0  0
   35.4750   26.4500   34.8700 C   0  0  0  0  0  0  0  0  0  0  0  0
   36.0120   26.5980   33.9500 H   0  0  0  0  0  0  0  0  0  0  0  0
   36.4990   27.8030   38.8990 N   0  0  0  0  0  0  0  0  0  0  0  0
   37.3630   27.8900   38.2820 H   0  0  0  0  0  0  0  0  0  0  0  0
   35.8460   28.5800   39.0020 H   0  0  0  0  0  0  0  0  0  0  0  0
  1  2  1  0  0  0  0
  2  3  2  0  0  0  0
  3 11  1  0  0  0  0
  4  3  1  0  0  0  0
  5  4  2  0  0  0  0
  6 12  1  0  0  0  0
  6  5  1  0  0  0  0
  7  6  2  0  0  0  0
  8  7  1  0  0  0  0
  8  9  2  0  0  0  0
  9 10  1  0  0  0  0
 10  5  1  0  0  0  0
 10  1  2  0  0  0  0
 13  7  1  0  0  0  0
 14 19  1  0  0  0  0
 14 25  1  0  0  0  0
 15 14  2  0  0  0  0
 16 17  2  0  0  0  0
 16 15  1  0  0  0  0
 17 18  1  0  0  0  0
 18  1  1  0  0  0  0
 18 19  2  0  0  0  0
 20 16  1  0  0  0  0
 21 20  1  0  0  0  0
 21 27  1  0  0  0  0
 22 29  1  0  0  0  0
 22 23  1  0  0  0  0
 22 21  1  0  0  0  0
 23 24  1  0  0  0  0
 23 30  1  0  0  0  0
 24 20  1  0  0  0  0
 24 32  1  0  0  0  0
 26 21  1  0  0  0  0
 28 22  1  0  0  0  0
 31 23  1  0  0  0  0
 33 24  1  0  0  0  0
 34 15  1  0  0  0  0
 34 36  1  0  0  0  0
 35 34  1  0  0  0  0
 38 37  1  0  0  0  0
 38 39  1  0  0  0  0
 39 40  2  0  0  0  0
 39  8  1  0  0  0  0
 40 41  1  0  0  0  0
 42 40  1  0  0  0  0
 43 42  2  0  0  0  0
 44 43  1  0  0  0  0
 45 43  1  0  0  0  0
 45 38  2  0  0  0  0
 46 45  1  0  0  0  0
 47 49  1  0  0  0  0
 47  9  1  0  0  0  0
 48 47  1  0  0  0  0
M  END
>  <minimizedAffinity>
-6.28434229

$$$$

 OpenBabel03252502103D

 49 53  0  0  0  0  0  0  0  0999 V2000
   38.5580   27.6510   41.5580 C   0  0  0  0  0  0  0  0  0  0  0  0
   39.3380   28.0670   42.5660 N   0  0  0  0  0  0  0  0  0  0  0  0
   39.4520   29.3270   42.9710 C   0  0  0  0  0  0  0  0  0  0  0  0
   38.7450   30.3050   42.3500 N   0  0  0  0  0  0  0  0  0  0  0  0
   37.9380   30.0110   41.3370 C   0  0  0  0  0  0  0  0  0  0  0  0
   37.2120   31.0020   40.6920 C   0  0  0  0  0  0  0  0  0  0  0  0
   36.3720   30.7190   39.6370 C   0  0  0  0  0  0  0  0  0  0  0  0
   36.2800   29.4060   39.2460 C   0  0  0  0  0  0  0  0  0  0  0  0
   37.0280   28.4420   39.9230 C   0  0  0  0  0  0  0  0  0  0  0  0
   37.8600   28.6800   40.9580 C   0  0  0  0  0  0  0  0  0  0  0  0
   40.1010   29.5980   43.7930 H   0  0  0  0  0  0  0  0  0  0  0  0
   37.3210   32.0190   41.0380 H   0  0  0  0  0  0  0  0  0  0  0  0
   35.8460   31.5260   39.1890 H   0  0  0  0  0  0  0  0  0  0  0  0
   37.3170   24.2560   41.7240 C   0  0  0  0  0  0  0  0  0  0  0  0
   37.9890   23.5470   40.7220 C   0  0  0  0  0  0  0  0  0  0  0  0
   38.8780   24.2490   39.9570 C   0  0  0  0  0  0  0  0  0  0  0  0
   39.0690   25.5450   40.1920 N   0  0  0  0  0  0  0  0  0  0  0  0
   38.4550   26.2350   41.1290 C   0  0  0  0  0  0  0  0  0  0  0  0
   37.5670   25.5640   41.8960 N   0  0  0  0  0  0  0  0  0  0  0  0
   39.5480   23.6130   38.9380 N   0  0  0  0  0  0  0  0  0  0  0  0
   40.4060   24.3110   37.9400 C   0  0  0  0  0  0  0  0  0  0  0  0
   41.1440   23.2310   37.2080 C   0  0  0  0  0  0  0  0  0  0  0  0
   40.2520   22.0530   37.3360 C   0  0  0  0  0  0  0  0  0  0  0  0
   39.5480   22.2160   38.6380 C   0  0  0  0  0  0  0  0  0  0  0  0
   36.5910   23.7390   42.3630 H   0  0  0  0  0  0  0  0  0  0  0  0
   41.1520   24.8370   38.5980 H   0  0  0  0  0  0  0  0  0  0  0  0
   39.8250   24.9750   37.3040 H   0  0  0  0  0  0  0  0  0  0  0  0
   42.1560   23.0530   37.6390 H   0  0  0  0  0  0  0  0  0  0  0  0
   41.2200   23.5360   36.1400 H   0  0  0  0  0  0  0  0  0  0  0  0
   39.6030   21.9570   36.4530 H   0  0  0  0  0  0  0  0  0  0  0  0
   40.8780   21.1260   37.3890 H   0  0  0  0  0  0  0  0  0  0  0  0
   38.5020   21.9160   38.4200 H   0  0  0  0  0  0  0  0  0  0  0  0
   39.9680   21.5590   39.4120 H   0  0  0  0  0  0  0  0  0  0  0  0
   37.7300   22.2040   40.6200 N   0  0  0  0  0  0  0  0  0  0  0  0
   38.2070   21.3410   40.9560 H   0  0  0  0  0  0  0  0  0  0  0  0
   36.9390   21.6610   40.1630 H   0  0  0  0  0  0  0  0  0  0  0  0
   37.5030   29.3050   36.4510 Cl  0  0  0  0  0  0  0  0  0  0  0  0
   35.7950   29.0690   36.8160 C   0  0  0  0  0  0  0  0  0  0  0  0
   35.3870   29.1440   38.1330 C   0  0  0  0  0  0  0  0  0  0  0  0
   34.0410   28.9630   38.4550 C   0  0  0  0  0  0  0  0  0  0  0  0
   33.6410   29.0060   39.4600 H   0  0  0  0  0  0  0  0  0  0  0  0
   33.1700   28.7130   37.4140 C   0  0  0  0  0  3  0  0  0  0  0  0
   33.5790   28.6390   36.0980 C   0  0  0  0  0  0  0  0  0  0  0  0
   32.3700   28.3160   34.8860 Cl  0  0  0  0  0  0  0  0  0  0  0  0
   34.9270   28.8200   35.7720 C   0  0  0  0  0  0  0  0  0  0  0  0
   35.2420   28.7610   34.7460 H   0  0  0  0  0  0  0  0  0  0  0  0
   36.7840   27.1410   39.3770 N   0  0  0  0  0  0  0  0  0  0  0  0
   35.9180   26.8200   39.9060 H   0  0  0  0  0  0  0  0  0  0  0  0
   37.2170   26.5480   38.6700 H   0  0  0  0  0  0  0  0  0  0  0  0
  1  2  1  0  0  0  0
  2  3  2  0  0  0  0
  3 11  1  0  0  0  0
  4  3  1  0  0  0  0
  5  4  2  0  0  0  0
  6 12  1  0  0  0  0
  6  5  1  0  0  0  0
  7  6  2  0  0  0  0
  8  7  1  0  0  0  0
  8  9  2  0  0  0  0
  9 10  1  0  0  0  0
 10  5  1  0  0  0  0
 10  1  2  0  0  0  0
 13  7  1  0  0  0  0
 14 19  1  0  0  0  0
 14 25  1  0  0  0  0
 15 14  2  0  0  0  0
 16 17  2  0  0  0  0
 16 15  1  0  0  0  0
 17 18  1  0  0  0  0
 18  1  1  0  0  0  0
 18 19  2  0  0  0  0
 20 16  1  0  0  0  0
 21 26  1  0  0  0  0
 21 20  1  0  0  0  0
 22 23  1  0  0  0  0
 22 28  1  0  0  0  0
 22 21  1  0  0  0  0
 23 31  1  0  0  0  0
 23 24  1  0  0  0  0
 24 20  1  0  0  0  0
 24 33  1  0  0  0  0
 27 21  1  0  0  0  0
 29 22  1  0  0  0  0
 30 23  1  0  0  0  0
 32 24  1  0  0  0  0
 34 15  1  0  0  0  0
 34 35  1  0  0  0  0
 36 34  1  0  0  0  0
 37 38  1  0  0  0  0
 38 39  1  0  0  0  0
 39 40  2  0  0  0  0
 39  8  1  0  0  0  0
 40 41  1  0  0  0  0
 42 40  1  0  0  0  0
 43 42  2  0  0  0  0
 44 43  1  0  0  0  0
 45 43  1  0  0  0  0
 45 38  2  0  0  0  0
 46 45  1  0  0  0  0
 47 48  1  0  0  0  0
 47  9  1  0  0  0  0
 49 47  1  0  0  0  0
M  END
>  <minimizedAffinity>
-6.25634861

$$$$

 OpenBabel03252502103D

 49 53  0  0  0  0  0  0  0  0999 V2000
   40.9960   27.7890   40.9040 C   0  0  0  0  0  0  0  0  0  0  0  0
   41.8990   27.3500   41.7920 N   0  0  0  0  0  0  0  0  0  0  0  0
   41.6220   26.6060   42.8570 C   0  0  0  0  0  0  0  0  0  0  0  0
   40.3420   26.2360   43.1100 N   0  0  0  0  0  0  0  0  0  0  0  0
   39.3610   26.6130   42.2980 C   0  0  0  0  0  0  0  0  0  0  0  0
   38.0470   26.2440   42.5470 C   0  0  0  0  0  0  0  0  0  0  0  0
   37.0130   26.6270   41.7200 C   0  0  0  0  0  0  0  0  0  0  0  0
   37.3380   27.3950   40.6290 C   0  0  0  0  0  0  0  0  0  0  0  0
   38.6720   27.7440   40.4170 C   0  0  0  0  0  0  0  0  0  0  0  0
   39.7100   27.3880   41.2040 C   0  0  0  0  0  0  0  0  0  0  0  0
   42.4000   26.2830   43.5360 H   0  0  0  0  0  0  0  0  0  0  0  0
   37.8450   25.6400   43.4190 H   0  0  0  0  0  0  0  0  0  0  0  0
   36.0300   26.3090   41.9700 H   0  0  0  0  0  0  0  0  0  0  0  0
   41.9210   28.3620   37.4530 C   0  0  0  0  0  0  0  0  0  0  0  0
   42.0690   29.7470   37.3150 C   0  0  0  0  0  0  0  0  0  0  0  0
   41.8310   30.5090   38.4250 C   0  0  0  0  0  0  0  0  0  0  0  0
   41.4820   29.9190   39.5660 N   0  0  0  0  0  0  0  0  0  0  0  0
   41.3390   28.6200   39.7250 C   0  0  0  0  0  0  0  0  0  0  0  0
   41.5650   27.8470   38.6400 N   0  0  0  0  0  0  0  0  0  0  0  0
   41.9340   31.8780   38.3440 N   0  0  0  0  0  0  0  0  0  0  0  0
   41.5340   32.8100   39.4350 C   0  0  0  0  0  0  0  0  0  0  0  0
   42.0650   34.1550   39.0400 C   0  0  0  0  0  0  0  0  0  0  0  0
   42.1370   34.0770   37.5600 C   0  0  0  0  0  0  0  0  0  0  0  0
   42.4110   32.6490   37.2410 C   0  0  0  0  0  0  0  0  0  0  0  0
   42.0970   27.7080   36.5920 H   0  0  0  0  0  0  0  0  0  0  0  0
   42.1600   32.4460   40.2970 H   0  0  0  0  0  0  0  0  0  0  0  0
   40.4620   32.7820   39.6180 H   0  0  0  0  0  0  0  0  0  0  0  0
   43.0550   34.3660   39.5080 H   0  0  0  0  0  0  0  0  0  0  0  0
   41.3150   34.9190   39.3450 H   0  0  0  0  0  0  0  0  0  0  0  0
   41.2320   34.5020   37.1030 H   0  0  0  0  0  0  0  0  0  0  0  0
   43.0050   34.6890   37.2050 H   0  0  0  0  0  0  0  0  0  0  0  0
   41.7580   32.4360   36.3690 H   0  0  0  0  0  0  0  0  0  0  0  0
   43.4620   32.4900   36.9640 H   0  0  0  0  0  0  0  0  0  0  0  0
   42.4790   30.2180   36.0940 N   0  0  0  0  0  0  0  0  0  0  0  0
   43.3960   30.5100   35.6950 H   0  0  0  0  0  0  0  0  0  0  0  0
   41.9560   30.4090   35.1880 H   0  0  0  0  0  0  0  0  0  0  0  0
   36.8690   25.7630   38.0930 Cl  0  0  0  0  0  0  0  0  0  0  0  0
   35.8920   27.1380   38.6050 C   0  0  0  0  0  0  0  0  0  0  0  0
   36.2260   27.7800   39.7800 C   0  0  0  0  0  0  0  0  0  0  0  0
   35.4720   28.8730   40.2140 C   0  0  0  0  0  0  0  0  0  0  0  0
   35.6680   29.4300   41.1210 H   0  0  0  0  0  0  0  0  0  0  0  0
   34.4090   29.2600   39.4240 C   0  0  0  0  0  3  0  0  0  0  0  0
   34.0760   28.6160   38.2490 C   0  0  0  0  0  0  0  0  0  0  0  0
   32.7070   29.2130   37.3540 Cl  0  0  0  0  0  0  0  0  0  0  0  0
   34.8290   27.5220   37.8130 C   0  0  0  0  0  0  0  0  0  0  0  0
   34.5670   27.0240   36.8970 H   0  0  0  0  0  0  0  0  0  0  0  0
   38.8040   28.5290   39.2270 N   0  0  0  0  0  0  0  0  0  0  0  0
   38.8900   27.7920   38.4640 H   0  0  0  0  0  0  0  0  0  0  0  0
   38.8220   29.5230   39.0020 H   0  0  0  0  0  0  0  0  0  0  0  0
  1 10  2  0  0  0  0
  1  2  1  0  0  0  0
  2  3  2  0  0  0  0
  3  4  1  0  0  0  0
  3 11  1  0  0  0  0
  5  6  1  0  0  0  0
  5  4  2  0  0  0  0
  6 12  1  0  0  0  0
  7 13  1  0  0  0  0
  7  6  2  0  0  0  0
  8  7  1  0  0  0  0
  9  8  2  0  0  0  0
  9 10  1  0  0  0  0
 10  5  1  0  0  0  0
 14 19  1  0  0  0  0
 15 14  2  0  0  0  0
 15 16  1  0  0  0  0
 16 17  2  0  0  0  0
 17 18  1  0  0  0  0
 18  1  1  0  0  0  0
 19 18  2  0  0  0  0
 20 16  1  0  0  0  0
 20 21  1  0  0  0  0
 21 27  1  0  0  0  0
 21 26  1  0  0  0  0
 22 29  1  0  0  0  0
 22 21  1  0  0  0  0
 22 28  1  0  0  0  0
 23 22  1  0  0  0  0
 24 23  1  0  0  0  0
 24 20  1  0  0  0  0
 25 14  1  0  0  0  0
 30 23  1  0  0  0  0
 31 23  1  0  0  0  0
 32 24  1  0  0  0  0
 33 24  1  0  0  0  0
 34 15  1  0  0  0  0
 35 34  1  0  0  0  0
 36 34  1  0  0  0  0
 37 38  1  0  0  0  0
 38 39  1  0  0  0  0
 39 40  2  0  0  0  0
 39  8  1  0  0  0  0
 40 41  1  0  0  0  0
 42 40  1  0  0  0  0
 43 42  2  0  0  0  0
 44 43  1  0  0  0  0
 45 43  1  0  0  0  0
 45 38  2  0  0  0  0
 46 45  1  0  0  0  0
 47  9  1  0  0  0  0
 48 47  1  0  0  0  0
 49 47  1  0  0  0  0
M  END
>  <minimizedAffinity>
-6.20530128

$$$$

 OpenBabel03252502103D

 49 53  0  0  0  0  0  0  0  0999 V2000
   37.9690   27.4610   40.1970 C   0  0  0  0  0  0  0  0  0  0  0  0
   38.6100   26.5410   40.9310 N   0  0  0  0  0  0  0  0  0  0  0  0
   38.3730   25.2340   40.8920 C   0  0  0  0  0  0  0  0  0  0  0  0
   37.4180   24.7440   40.0630 N   0  0  0  0  0  0  0  0  0  0  0  0
   36.7170   25.5620   39.2860 C   0  0  0  0  0  0  0  0  0  0  0  0
   35.7370   25.0730   38.4350 C   0  0  0  0  0  0  0  0  0  0  0  0
   34.9950   25.9040   37.6240 C   0  0  0  0  0  0  0  0  0  0  0  0
   35.2690   27.2490   37.6910 C   0  0  0  0  0  0  0  0  0  0  0  0
   36.2630   27.6970   38.5610 C   0  0  0  0  0  0  0  0  0  0  0  0
   37.0080   26.9140   39.3700 C   0  0  0  0  0  0  0  0  0  0  0  0
   38.9270   24.5430   41.5130 H   0  0  0  0  0  0  0  0  0  0  0  0
   35.5610   24.0070   38.4210 H   0  0  0  0  0  0  0  0  0  0  0  0
   34.2600   25.4630   36.9960 H   0  0  0  0  0  0  0  0  0  0  0  0
   37.5610   30.8310   41.4500 C   0  0  0  0  0  0  0  0  0  0  0  0
   38.4260   31.6330   40.6970 C   0  0  0  0  0  0  0  0  0  0  0  0
   39.1810   31.0060   39.7450 C   0  0  0  0  0  0  0  0  0  0  0  0
   39.0640   29.6910   39.5730 N   0  0  0  0  0  0  0  0  0  0  0  0
   38.2570   28.9140   40.2650 C   0  0  0  0  0  0  0  0  0  0  0  0
   37.5040   29.5110   41.2140 N   0  0  0  0  0  0  0  0  0  0  0  0
   40.0680   31.7370   38.9910 N   0  0  0  0  0  0  0  0  0  0  0  0
   41.0570   31.1380   38.0510 C   0  0  0  0  0  0  0  0  0  0  0  0
   41.6090   32.2800   37.2550 C   0  0  0  0  0  0  0  0  0  0  0  0
   41.4370   33.4460   38.1550 C   0  0  0  0  0  0  0  0  0  0  0  0
   40.2230   33.1570   38.9670 C   0  0  0  0  0  0  0  0  0  0  0  0
   36.9370   31.2860   42.2280 H   0  0  0  0  0  0  0  0  0  0  0  0
   40.3950   30.5410   37.3630 H   0  0  0  0  0  0  0  0  0  0  0  0
   41.8040   30.5460   38.5760 H   0  0  0  0  0  0  0  0  0  0  0  0
   41.0780   32.4060   36.2830 H   0  0  0  0  0  0  0  0  0  0  0  0
   42.6930   32.0850   37.0880 H   0  0  0  0  0  0  0  0  0  0  0  0
   42.3570   33.6370   38.7270 H   0  0  0  0  0  0  0  0  0  0  0  0
   41.2370   34.3580   37.5370 H   0  0  0  0  0  0  0  0  0  0  0  0
   40.4970   33.4860   39.9910 H   0  0  0  0  0  0  0  0  0  0  0  0
   39.3540   33.7280   38.6140 H   0  0  0  0  0  0  0  0  0  0  0  0
   38.4110   32.9820   40.9470 N   0  0  0  0  0  0  0  0  0  0  0  0
   37.9500   33.8020   40.5010 H   0  0  0  0  0  0  0  0  0  0  0  0
   38.8760   33.5750   41.6960 H   0  0  0  0  0  0  0  0  0  0  0  0
   36.4260   27.9590   34.9580 Cl  0  0  0  0  0  0  0  0  0  0  0  0
   34.8610   28.4980   35.5630 C   0  0  0  0  0  0  0  0  0  0  0  0
   34.4700   28.0950   36.8250 C   0  0  0  0  0  0  0  0  0  0  0  0
   33.2360   28.5050   37.3330 C   0  0  0  0  0  0  0  0  0  0  0  0
   32.8570   28.2330   38.3100 H   0  0  0  0  0  0  0  0  0  0  0  0
   32.4570   29.3100   36.5290 C   0  0  0  0  0  3  0  0  0  0  0  0
   32.8500   29.7130   35.2680 C   0  0  0  0  0  0  0  0  0  0  0  0
   31.7630   30.7300   34.3630 Cl  0  0  0  0  0  0  0  0  0  0  0  0
   34.0840   29.3030   34.7560 C   0  0  0  0  0  0  0  0  0  0  0  0
   34.3870   29.6190   33.7740 H   0  0  0  0  0  0  0  0  0  0  0  0
   36.4040   29.1190   38.4740 N   0  0  0  0  0  0  0  0  0  0  0  0
   37.0800   29.2410   37.6610 H   0  0  0  0  0  0  0  0  0  0  0  0
   36.0270   29.9260   38.9700 H   0  0  0  0  0  0  0  0  0  0  0  0
  1 18  1  0  0  0  0
  1  2  1  0  0  0  0
  3  2  2  0  0  0  0
  3 11  1  0  0  0  0
  4  3  1  0  0  0  0
  5 10  1  0  0  0  0
  5  4  2  0  0  0  0
  6  5  1  0  0  0  0
  7  8  1  0  0  0  0
  7  6  2  0  0  0  0
  8  9  2  0  0  0  0
  9 10  1  0  0  0  0
 10  1  2  0  0  0  0
 12  6  1  0  0  0  0
 13  7  1  0  0  0  0
 14 25  1  0  0  0  0
 15 34  1  0  0  0  0
 15 14  2  0  0  0  0
 16 15  1  0  0  0  0
 17 16  2  0  0  0  0
 17 18  1  0  0  0  0
 18 19  2  0  0  0  0
 19 14  1  0  0  0  0
 20 16  1  0  0  0  0
 21 27  1  0  0  0  0
 21 20  1  0  0  0  0
 22 21  1  0  0  0  0
 22 23  1  0  0  0  0
 23 30  1  0  0  0  0
 23 24  1  0  0  0  0
 24 20  1  0  0  0  0
 24 32  1  0  0  0  0
 26 21  1  0  0  0  0
 28 22  1  0  0  0  0
 29 22  1  0  0  0  0
 31 23  1  0  0  0  0
 33 24  1  0  0  0  0
 34 36  1  0  0  0  0
 35 34  1  0  0  0  0
 37 38  1  0  0  0  0
 38 39  1  0  0  0  0
 39 40  2  0  0  0  0
 39  8  1  0  0  0  0
 40 41  1  0  0  0  0
 42 40  1  0  0  0  0
 43 42  2  0  0  0  0
 44 43  1  0  0  0  0
 45 43  1  0  0  0  0
 45 38  2  0  0  0  0
 46 45  1  0  0  0  0
 47  9  1  0  0  0  0
 47 49  1  0  0  0  0
 48 47  1  0  0  0  0
M  END
>  <minimizedAffinity>
-6.13967896

$$$$

 OpenBabel03252502103D

 49 53  0  0  0  0  0  0  0  0999 V2000
   38.6730   29.2680   41.5070 C   0  0  0  0  0  0  0  0  0  0  0  0
   37.8130   29.6350   42.4670 N   0  0  0  0  0  0  0  0  0  0  0  0
   37.4810   28.8940   43.5180 C   0  0  0  0  0  0  0  0  0  0  0  0
   38.0280   27.6630   43.6780 N   0  0  0  0  0  0  0  0  0  0  0  0
   38.8960   27.1930   42.7900 C   0  0  0  0  0  0  0  0  0  0  0  0
   39.4610   25.9350   42.9420 C   0  0  0  0  0  0  0  0  0  0  0  0
   40.3600   25.4250   42.0300 C   0  0  0  0  0  0  0  0  0  0  0  0
   40.6790   26.2200   40.9560 C   0  0  0  0  0  0  0  0  0  0  0  0
   40.0870   27.4780   40.8430 C   0  0  0  0  0  0  0  0  0  0  0  0
   39.2030   28.0100   41.7140 C   0  0  0  0  0  0  0  0  0  0  0  0
   36.7770   29.2510   44.2580 H   0  0  0  0  0  0  0  0  0  0  0  0
   39.1760   25.3500   43.8040 H   0  0  0  0  0  0  0  0  0  0  0  0
   40.7550   24.4540   42.2080 H   0  0  0  0  0  0  0  0  0  0  0  0
   38.2490   30.5890   38.1650 C   0  0  0  0  0  0  0  0  0  0  0  0
   39.3180   31.4680   37.9570 C   0  0  0  0  0  0  0  0  0  0  0  0
   40.2000   31.6280   38.9890 C   0  0  0  0  0  0  0  0  0  0  0  0
   40.0150   30.9540   40.1220 N   0  0  0  0  0  0  0  0  0  0  0  0
   39.0210   30.1190   40.3440 C   0  0  0  0  0  0  0  0  0  0  0  0
   38.1350   29.9490   39.3400 N   0  0  0  0  0  0  0  0  0  0  0  0
   41.2550   32.4990   38.8530 N   0  0  0  0  0  0  0  0  0  0  0  0
   42.1730   32.8770   39.9640 C   0  0  0  0  0  0  0  0  0  0  0  0
   43.3130   33.6070   39.3220 C   0  0  0  0  0  0  0  0  0  0  0  0
   42.7160   34.1610   38.0820 C   0  0  0  0  0  0  0  0  0  0  0  0
   41.6590   33.1950   37.6730 C   0  0  0  0  0  0  0  0  0  0  0  0
   37.5130   30.4300   37.3690 H   0  0  0  0  0  0  0  0  0  0  0  0
   42.5640   31.8760   40.2970 H   0  0  0  0  0  0  0  0  0  0  0  0
   41.6570   33.4360   40.7410 H   0  0  0  0  0  0  0  0  0  0  0  0
   44.1780   32.9330   39.1180 H   0  0  0  0  0  0  0  0  0  0  0  0
   43.6120   34.4360   40.0030 H   0  0  0  0  0  0  0  0  0  0  0  0
   42.3800   35.1960   38.2390 H   0  0  0  0  0  0  0  0  0  0  0  0
   43.4980   34.1860   37.2800 H   0  0  0  0  0  0  0  0  0  0  0  0
   40.8140   33.8390   37.3520 H   0  0  0  0  0  0  0  0  0  0  0  0
   41.9860   32.5670   36.8330 H   0  0  0  0  0  0  0  0  0  0  0  0
   39.4130   32.0610   36.7230 N   0  0  0  0  0  0  0  0  0  0  0  0
   39.9630   31.8650   35.8600 H   0  0  0  0  0  0  0  0  0  0  0  0
   38.9290   32.9040   36.2950 H   0  0  0  0  0  0  0  0  0  0  0  0
   39.5540   24.8090   38.4940 Cl  0  0  0  0  0  0  0  0  0  0  0  0
   41.2690   24.9880   38.8610 C   0  0  0  0  0  0  0  0  0  0  0  0
   41.6280   25.6530   40.0170 C   0  0  0  0  0  0  0  0  0  0  0  0
   42.9780   25.8100   40.3370 C   0  0  0  0  0  0  0  0  0  0  0  0
   43.3420   26.3170   41.2210 H   0  0  0  0  0  0  0  0  0  0  0  0
   43.9010   25.2800   39.4590 C   0  0  0  0  0  3  0  0  0  0  0  0
   43.5400   24.6150   38.3050 C   0  0  0  0  0  0  0  0  0  0  0  0
   44.8130   23.9970   37.2890 Cl  0  0  0  0  0  0  0  0  0  0  0  0
   42.1890   24.4560   37.9820 C   0  0  0  0  0  0  0  0  0  0  0  0
   41.9120   23.9370   37.0820 H   0  0  0  0  0  0  0  0  0  0  0  0
   40.5570   28.1520   39.6710 N   0  0  0  0  0  0  0  0  0  0  0  0
   41.4520   28.6190   40.0080 H   0  0  0  0  0  0  0  0  0  0  0  0
   40.2440   28.2500   38.7050 H   0  0  0  0  0  0  0  0  0  0  0  0
  1 10  2  0  0  0  0
  1  2  1  0  0  0  0
  2  3  2  0  0  0  0
  3  4  1  0  0  0  0
  3 11  1  0  0  0  0
  5  6  1  0  0  0  0
  5  4  2  0  0  0  0
  6 12  1  0  0  0  0
  7 13  1  0  0  0  0
  7  6  2  0  0  0  0
  8  7  1  0  0  0  0
  9  8  2  0  0  0  0
  9 10  1  0  0  0  0
 10  5  1  0  0  0  0
 14 19  1  0  0  0  0
 15 14  2  0  0  0  0
 15 16  1  0  0  0  0
 16 17  2  0  0  0  0
 17 18  1  0  0  0  0
 18  1  1  0  0  0  0
 19 18  2  0  0  0  0
 20 16  1  0  0  0  0
 20 21  1  0  0  0  0
 21 26  1  0  0  0  0
 21 27  1  0  0  0  0
 22 21  1  0  0  0  0
 22 29  1  0  0  0  0
 23 30  1  0  0  0  0
 23 22  1  0  0  0  0
 24 23  1  0  0  0  0
 24 20  1  0  0  0  0
 25 14  1  0  0  0  0
 28 22  1  0  0  0  0
 31 23  1  0  0  0  0
 32 24  1  0  0  0  0
 33 24  1  0  0  0  0
 34 15  1  0  0  0  0
 35 34  1  0  0  0  0
 36 34  1  0  0  0  0
 37 38  1  0  0  0  0
 38 39  1  0  0  0  0
 39 40  2  0  0  0  0
 39  8  1  0  0  0  0
 40 41  1  0  0  0  0
 42 40  1  0  0  0  0
 43 42  2  0  0  0  0
 44 43  1  0  0  0  0
 45 43  1  0  0  0  0
 45 38  2  0  0  0  0
 46 45  1  0  0  0  0
 47 48  1  0  0  0  0
 47  9  1  0  0  0  0
 49 47  1  0  0  0  0
M  END
>  <minimizedAffinity>
-6.09289503

$$$$
