
 OpenBabel03252506423D

 41 44  0  0  1  0  0  0  0  0999 V2000
   49.2260   33.1820   41.5110 N   0  0  1  0  0  0  0  0  0  0  0  0
   50.5990   33.1940   41.9410 C   0  0  0  0  0  0  0  0  0  0  0  0
   51.3390   31.9190   41.7570 C   0  0  0  0  0  0  0  0  0  0  0  0
   50.7220   30.8380   42.6160 C   0  0  0  0  0  0  0  0  0  0  0  0
   49.2520   31.0230   42.6940 C   0  0  0  0  0  0  0  0  0  0  0  0
   48.7060   31.8290   41.5670 C   0  0  2  0  0  0  0  0  0  0  0  0
   50.6540   33.4450   43.0320 H   0  0  0  0  0  0  0  0  0  0  0  0
   51.1460   34.0510   41.4540 H   0  0  0  0  0  0  0  0  0  0  0  0
   52.3620   32.1020   42.2110 H   0  0  0  0  0  0  0  0  0  0  0  0
   51.5390   31.5800   40.7500 H   0  0  0  0  0  0  0  0  0  0  0  0
   50.9470   29.8640   42.1050 H   0  0  0  0  0  0  0  0  0  0  0  0
   51.2220   30.7500   43.6120 H   0  0  0  0  0  0  0  0  0  0  0  0
   49.0350   31.6030   43.6280 H   0  0  0  0  0  0  0  0  0  0  0  0
   48.6740   30.0960   42.7970 H   0  0  0  0  0  0  0  0  0  0  0  0
   47.6270   32.0160   41.8910 H   0  0  0  0  0  0  0  0  0  0  0  0
   48.4510   33.3430   38.8060 Cl  0  0  0  0  0  0  0  0  0  0  0  0
   48.5010   31.6260   38.9680 C   0  0  0  0  0  0  0  0  0  0  0  0
   48.5800   31.1730   40.2680 C   0  0  0  0  0  0  0  0  0  0  0  0
   48.5790   29.7800   40.4290 C   0  0  0  0  0  0  0  0  0  0  0  0
   48.6300   29.1740   41.3450 H   0  0  0  0  0  0  0  0  0  0  0  0
   48.5040   28.9360   39.3130 C   0  0  0  0  0  3  0  0  0  0  0  0
   48.4290   29.4460   38.0340 C   0  0  0  0  0  0  0  0  0  0  0  0
   48.3350   28.4290   36.6090 Cl  0  0  0  0  0  0  0  0  0  0  0  0
   48.4290   30.8120   37.8810 C   0  0  0  0  0  0  0  0  0  0  0  0
   48.3720   31.2900   36.9120 H   0  0  0  0  0  0  0  0  0  0  0  0
   47.1110   34.5630   42.0610 C   0  0  1  0  0  0  0  0  0  0  0  0
   48.2190   35.4280   41.7170 C   0  0  0  0  0  0  0  0  0  0  0  0
   48.5310   34.1100   42.3620 C   0  0  2  0  0  0  0  0  0  0  0  0
   46.6330   33.8560   41.3190 H   0  0  0  0  0  0  0  0  0  0  0  0
   48.4000   35.5570   40.6200 H   0  0  0  0  0  0  0  0  0  0  0  0
   48.3360   36.3760   42.2720 H   0  0  0  0  0  0  0  0  0  0  0  0
   48.8260   34.1430   43.4250 H   0  0  0  0  0  0  0  0  0  0  0  0
   45.4460   36.0430   43.2240 C   0  0  0  0  0  0  0  0  0  0  0  0
   46.2210   34.8500   43.2050 C   0  0  0  0  0  0  0  0  0  0  0  0
   46.1070   33.9920   44.2830 C   0  0  0  0  0  0  0  0  0  0  0  0
   45.2620   34.3390   45.2950 N   0  0  0  0  0  0  0  0  0  0  0  0
   44.5350   35.4720   45.2980 C   0  0  0  0  0  0  0  0  0  0  0  0
   44.6160   36.3430   44.2580 N   0  0  0  0  0  0  0  0  0  0  0  0
   45.5780   36.6830   42.3450 H   0  0  0  0  0  0  0  0  0  0  0  0
   46.6750   33.0710   44.3170 H   0  0  0  0  0  0  0  0  0  0  0  0
   43.8700   35.7220   46.1160 H   0  0  0  0  0  0  0  0  0  0  0  0
  1  6  1  0  0  0  0
  1  2  1  1  0  0  0
  1 28  1  0  0  0  0
  2  7  1  0  0  0  0
  3  2  1  0  0  0  0
  3  9  1  0  0  0  0
  3  4  1  0  0  0  0
  4  5  1  0  0  0  0
  4 12  1  0  0  0  0
  5 14  1  0  0  0  0
  5 13  1  0  0  0  0
  6 15  1  1  0  0  0
  6  5  1  0  0  0  0
  8  2  1  0  0  0  0
 10  3  1  0  0  0  0
 11  4  1  0  0  0  0
 16 17  1  0  0  0  0
 17 18  1  0  0  0  0
 18 19  2  0  0  0  0
 18  6  1  0  0  0  0
 19 20  1  0  0  0  0
 21 19  1  0  0  0  0
 22 21  2  0  0  0  0
 23 22  1  0  0  0  0
 24 22  1  0  0  0  0
 24 17  2  0  0  0  0
 25 24  1  0  0  0  0
 26 29  1  6  0  0  0
 26 28  1  0  0  0  0
 26 34  1  0  0  0  0
 27 26  1  0  0  0  0
 27 31  1  0  0  0  0
 27 28  1  0  0  0  0
 28 32  1  1  0  0  0
 30 27  1  0  0  0  0
 33 38  1  0  0  0  0
 34 33  2  0  0  0  0
 34 35  1  0  0  0  0
 35 40  1  0  0  0  0
 35 36  2  0  0  0  0
 36 37  1  0  0  0  0
 37 41  1  0  0  0  0
 38 37  2  0  0  0  0
 39 33  1  0  0  0  0
M  END
>  <minimizedAffinity>
-4.78058815

>  <minimizedRMSD>
0.68161571

$$$$
