
 OpenBabel03242522093D

 45 48  0  0  1  0  0  0  0  0999 V2000
   41.2720   29.7530   42.7470 C   0  0  0  0  0  0  0  0  0  0  0  0
   41.0470   28.3770   42.9010 C   0  0  0  0  0  0  0  0  0  0  0  0
   39.9870   27.7940   42.2060 C   0  0  0  0  0  0  0  0  0  0  0  0
   39.2380   28.6240   41.4160 N   0  0  0  0  0  0  0  0  0  0  0  0
   39.4830   29.9420   41.2910 C   0  0  0  0  0  0  0  0  0  0  0  0
   40.5150   30.5090   41.9690 N   0  0  0  0  0  0  0  0  0  0  0  0
   42.1170   30.0950   43.3310 H   0  0  0  0  0  0  0  0  0  0  0  0
   41.6300   27.7090   43.5200 H   0  0  0  0  0  0  0  0  0  0  0  0
   39.6360   26.4110   42.2610 N   0  0  0  0  0  0  0  0  0  0  0  0
   39.7130   25.6970   43.5260 C   0  0  0  0  0  0  0  0  0  0  0  0
   39.7980   24.2090   43.2980 C   0  0  0  0  0  0  0  0  0  0  0  0
   38.8260   23.6840   42.4120 N   0  0  0  0  0  0  0  0  0  0  0  0
   38.4530   24.4880   41.3150 C   0  0  2  0  0  0  0  0  0  0  0  0
   39.2100   25.7330   41.0820 C   0  0  0  0  0  0  0  0  0  0  0  0
   40.6300   25.9930   44.0820 H   0  0  0  0  0  0  0  0  0  0  0  0
   38.8480   25.8820   44.1900 H   0  0  0  0  0  0  0  0  0  0  0  0
   40.7990   23.8810   42.9440 H   0  0  0  0  0  0  0  0  0  0  0  0
   39.6550   23.7230   44.3010 H   0  0  0  0  0  0  0  0  0  0  0  0
   37.9830   23.3070   42.9320 H   0  0  0  0  0  0  0  0  0  0  0  0
   38.5040   23.8790   40.3780 H   0  0  0  0  0  0  0  0  0  0  0  0
   40.1370   25.4760   40.5010 H   0  0  0  0  0  0  0  0  0  0  0  0
   38.5640   26.4330   40.4920 H   0  0  0  0  0  0  0  0  0  0  0  0
   36.9850   24.8610   41.4570 C   0  0  0  0  0  0  0  0  0  0  0  0
   36.1850   23.9500   40.7750 F   0  0  0  0  0  0  0  0  0  0  0  0
   36.8330   26.0700   40.8050 F   0  0  0  0  0  0  0  0  0  0  0  0
   36.5700   24.9000   42.7570 F   0  0  0  0  0  0  0  0  0  0  0  0
   38.6470   30.7690   40.4340 C   0  0  0  0  0  0  0  0  0  0  0  0
   38.5950   32.1300   40.6280 C   0  0  0  0  0  0  0  0  0  0  0  0
   37.7760   32.8650   39.7770 C   0  0  0  0  0  0  0  0  0  0  0  0
   37.0860   32.1800   38.8140 C   0  0  0  0  0  0  0  0  0  0  0  0
   37.1320   30.8090   38.6100 C   0  0  0  0  0  0  0  0  0  0  0  0
   37.9440   30.1400   39.4660 N   0  0  0  0  0  0  0  0  0  0  0  0
   39.1780   32.5830   41.4190 H   0  0  0  0  0  0  0  0  0  0  0  0
   37.7050   33.9360   39.8940 H   0  0  0  0  0  0  0  0  0  0  0  0
   36.4620   32.7840   38.1740 H   0  0  0  0  0  0  0  0  0  0  0  0
   34.7720   29.3050   39.6170 Cl  0  0  0  0  0  0  0  0  0  0  0  0
   35.2770   29.3870   37.9450 C   0  0  0  0  0  0  0  0  0  0  0  0
   36.3850   30.1120   37.5750 C   0  0  0  0  0  0  0  0  0  0  0  0
   36.7370   30.1420   36.2480 C   0  0  0  0  0  0  0  0  0  0  0  0
   37.5940   30.6940   35.9130 H   0  0  0  0  0  0  0  0  0  0  0  0
   35.9740   29.4470   35.3030 C   0  0  0  0  0  3  0  0  0  0  0  0
   34.8670   28.7310   35.7120 C   0  0  0  0  0  0  0  0  0  0  0  0
   33.9760   27.8940   34.4560 Cl  0  0  0  0  0  0  0  0  0  0  0  0
   34.4980   28.6880   37.0480 C   0  0  0  0  0  0  0  0  0  0  0  0
   33.6240   28.1160   37.3290 H   0  0  0  0  0  0  0  0  0  0  0  0
  1  2  1  0  0  0  0
  1  7  1  0  0  0  0
  2  8  1  0  0  0  0
  3  9  1  0  0  0  0
  3  2  2  0  0  0  0
  4  3  1  0  0  0  0
  5  4  2  0  0  0  0
  5  6  1  0  0  0  0
  6  1  2  0  0  0  0
  9 10  1  0  0  0  0
 10 15  1  0  0  0  0
 10 16  1  0  0  0  0
 11 10  1  0  0  0  0
 11 18  1  0  0  0  0
 12 19  1  0  0  0  0
 12 11  1  0  0  0  0
 13 20  1  6  0  0  0
 13 23  1  0  0  0  0
 13 12  1  0  0  0  0
 14 13  1  0  0  0  0
 14  9  1  0  0  0  0
 17 11  1  0  0  0  0
 21 14  1  0  0  0  0
 22 14  1  0  0  0  0
 23 26  1  0  0  0  0
 24 23  1  0  0  0  0
 25 23  1  0  0  0  0
 27 28  1  0  0  0  0
 27  5  1  0  0  0  0
 28 33  1  0  0  0  0
 29 34  1  0  0  0  0
 29 28  2  0  0  0  0
 30 29  1  0  0  0  0
 31 30  2  0  0  0  0
 31 32  1  0  0  0  0
 32 27  2  0  0  0  0
 35 30  1  0  0  0  0
 37 36  1  0  0  0  0
 38 37  1  0  0  0  0
 38 31  1  0  0  0  0
 39 38  2  0  0  0  0
 40 39  1  0  0  0  0
 41 42  2  0  0  0  0
 41 39  1  0  0  0  0
 42 44  1  0  0  0  0
 43 42  1  0  0  0  0
 44 45  1  0  0  0  0
 44 37  2  0  0  0  0
M  END
>  <minimizedAffinity>
-6.65163946

$$$$

 OpenBabel03242522093D

 45 48  0  0  1  0  0  0  0  0999 V2000
   42.5780   33.5840   40.1720 C   0  0  0  0  0  0  0  0  0  0  0  0
   43.3310   32.9930   39.1470 C   0  0  0  0  0  0  0  0  0  0  0  0
   42.7220   32.0290   38.3430 C   0  0  0  0  0  0  0  0  0  0  0  0
   41.4140   31.7330   38.6220 N   0  0  0  0  0  0  0  0  0  0  0  0
   40.7210   32.3210   39.6150 C   0  0  0  0  0  0  0  0  0  0  0  0
   41.3170   33.2590   40.3980 N   0  0  0  0  0  0  0  0  0  0  0  0
   43.1520   34.3140   40.7290 H   0  0  0  0  0  0  0  0  0  0  0  0
   44.3640   33.2170   38.9140 H   0  0  0  0  0  0  0  0  0  0  0  0
   43.3570   31.3420   37.2640 N   0  0  0  0  0  0  0  0  0  0  0  0
   44.8080   31.3490   37.1610 C   0  0  0  0  0  0  0  0  0  0  0  0
   45.2470   31.0290   35.7540 C   0  0  0  0  0  0  0  0  0  0  0  0
   44.6460   29.8800   35.1870 N   0  0  0  0  0  0  0  0  0  0  0  0
   43.2980   29.6270   35.5190 C   0  0  2  0  0  0  0  0  0  0  0  0
   42.5740   30.6530   36.2940 C   0  0  0  0  0  0  0  0  0  0  0  0
   45.2090   32.3580   37.4050 H   0  0  0  0  0  0  0  0  0  0  0  0
   45.3010   30.6230   37.8350 H   0  0  0  0  0  0  0  0  0  0  0  0
   45.1000   31.8780   35.0520 H   0  0  0  0  0  0  0  0  0  0  0  0
   46.3570   30.8580   35.7970 H   0  0  0  0  0  0  0  0  0  0  0  0
   45.2520   29.0190   35.3080 H   0  0  0  0  0  0  0  0  0  0  0  0
   42.7170   29.4360   34.5830 H   0  0  0  0  0  0  0  0  0  0  0  0
   42.1880   31.4270   35.5760 H   0  0  0  0  0  0  0  0  0  0  0  0
   41.7200   30.1570   36.8240 H   0  0  0  0  0  0  0  0  0  0  0  0
   43.2210   28.3220   36.2970 C   0  0  0  0  0  0  0  0  0  0  0  0
   43.0550   27.2490   35.4290 F   0  0  0  0  0  0  0  0  0  0  0  0
   42.0630   28.3920   37.0480 F   0  0  0  0  0  0  0  0  0  0  0  0
   44.3340   28.0880   37.0540 F   0  0  0  0  0  0  0  0  0  0  0  0
   39.3330   31.9590   39.8590 C   0  0  0  0  0  0  0  0  0  0  0  0
   38.3470   32.9150   39.7760 C   0  0  0  0  0  0  0  0  0  0  0  0
   37.0400   32.5070   40.0220 C   0  0  0  0  0  0  0  0  0  0  0  0
   36.8350   31.1890   40.3280 C   0  0  0  0  0  0  0  0  0  0  0  0
   37.8220   30.2180   40.4140 C   0  0  0  0  0  0  0  0  0  0  0  0
   39.0760   30.6680   40.1660 N   0  0  0  0  0  0  0  0  0  0  0  0
   38.6070   33.9350   39.5270 H   0  0  0  0  0  0  0  0  0  0  0  0
   36.2350   33.2240   39.9680 H   0  0  0  0  0  0  0  0  0  0  0  0
   35.8090   30.9100   40.5130 H   0  0  0  0  0  0  0  0  0  0  0  0
   38.3770   29.5140   43.2510 Cl  0  0  0  0  0  0  0  0  0  0  0  0
   37.7990   28.4030   42.0310 C   0  0  0  0  0  0  0  0  0  0  0  0
   37.5700   28.8230   40.7420 C   0  0  0  0  0  0  0  0  0  0  0  0
   37.1160   27.9080   39.8240 C   0  0  0  0  0  0  0  0  0  0  0  0
   36.9240   28.1900   38.8060 H   0  0  0  0  0  0  0  0  0  0  0  0
   36.8950   26.5810   40.2060 C   0  0  0  0  0  3  0  0  0  0  0  0
   37.1340   26.1950   41.5100 C   0  0  0  0  0  0  0  0  0  0  0  0
   36.8280   24.5130   41.8920 Cl  0  0  0  0  0  0  0  0  0  0  0  0
   37.5940   27.1060   42.4490 C   0  0  0  0  0  0  0  0  0  0  0  0
   37.7700   26.7660   43.4610 H   0  0  0  0  0  0  0  0  0  0  0  0
  1  6  1  0  0  0  0
  1  7  1  0  0  0  0
  2  1  2  0  0  0  0
  3  4  2  0  0  0  0
  3  2  1  0  0  0  0
  4  5  1  0  0  0  0
  5 27  1  0  0  0  0
  5  6  2  0  0  0  0
  8  2  1  0  0  0  0
  9  3  1  0  0  0  0
 10  9  1  0  0  0  0
 10 15  1  0  0  0  0
 10 16  1  0  0  0  0
 11 18  1  0  0  0  0
 11 10  1  0  0  0  0
 12 19  1  0  0  0  0
 12 13  1  0  0  0  0
 12 11  1  0  0  0  0
 13 20  1  6  0  0  0
 13 14  1  0  0  0  0
 13 23  1  0  0  0  0
 14 22  1  0  0  0  0
 14  9  1  0  0  0  0
 17 11  1  0  0  0  0
 21 14  1  0  0  0  0
 23 25  1  0  0  0  0
 23 26  1  0  0  0  0
 24 23  1  0  0  0  0
 27 32  1  0  0  0  0
 28 27  2  0  0  0  0
 28 29  1  0  0  0  0
 29 30  2  0  0  0  0
 30 31  1  0  0  0  0
 30 35  1  0  0  0  0
 31 38  1  0  0  0  0
 32 31  2  0  0  0  0
 33 28  1  0  0  0  0
 34 29  1  0  0  0  0
 37 44  1  0  0  0  0
 37 36  1  0  0  0  0
 38 37  2  0  0  0  0
 39 41  2  0  0  0  0
 39 38  1  0  0  0  0
 40 39  1  0  0  0  0
 41 42  1  0  0  0  0
 42 43  1  0  0  0  0
 42 44  2  0  0  0  0
 44 45  1  0  0  0  0
M  END
>  <minimizedAffinity>
-6.39244366

$$$$

 OpenBabel03242522093D

 45 48  0  0  1  0  0  0  0  0999 V2000
   37.6630   28.3290   43.6640 C   0  0  0  0  0  0  0  0  0  0  0  0
   37.3790   27.1140   43.0220 C   0  0  0  0  0  0  0  0  0  0  0  0
   37.2660   27.1050   41.6320 C   0  0  0  0  0  0  0  0  0  0  0  0
   37.4440   28.3030   40.9930 N   0  0  0  0  0  0  0  0  0  0  0  0
   37.7160   29.4510   41.6410 C   0  0  0  0  0  0  0  0  0  0  0  0
   37.8250   29.4580   42.9960 N   0  0  0  0  0  0  0  0  0  0  0  0
   37.7270   28.2150   44.7380 H   0  0  0  0  0  0  0  0  0  0  0  0
   37.2360   26.1600   43.5130 H   0  0  0  0  0  0  0  0  0  0  0  0
   36.9820   25.9500   40.8410 N   0  0  0  0  0  0  0  0  0  0  0  0
   36.8970   26.0710   39.3940 C   0  0  0  0  0  0  0  0  0  0  0  0
   36.1220   24.9180   38.8060 C   0  0  0  0  0  0  0  0  0  0  0  0
   36.5340   23.6360   39.2420 N   0  0  0  0  0  0  0  0  0  0  0  0
   36.9560   23.5160   40.5830 C   0  0  2  0  0  0  0  0  0  0  0  0
   36.7850   24.6850   41.4670 C   0  0  0  0  0  0  0  0  0  0  0  0
   36.3550   27.0010   39.1150 H   0  0  0  0  0  0  0  0  0  0  0  0
   37.8830   26.0960   38.8950 H   0  0  0  0  0  0  0  0  0  0  0  0
   35.0270   25.0030   38.9720 H   0  0  0  0  0  0  0  0  0  0  0  0
   36.2670   24.9710   37.6920 H   0  0  0  0  0  0  0  0  0  0  0  0
   37.2250   23.1940   38.5690 H   0  0  0  0  0  0  0  0  0  0  0  0
   36.4300   22.6510   41.0580 H   0  0  0  0  0  0  0  0  0  0  0  0
   35.7330   24.6760   41.8610 H   0  0  0  0  0  0  0  0  0  0  0  0
   37.5160   24.5980   42.3120 H   0  0  0  0  0  0  0  0  0  0  0  0
   38.4280   23.1350   40.6020 C   0  0  0  0  0  0  0  0  0  0  0  0
   39.0550   23.5590   39.4350 F   0  0  0  0  0  0  0  0  0  0  0  0
   38.4660   21.7530   40.5780 F   0  0  0  0  0  0  0  0  0  0  0  0
   39.1020   23.6680   41.6630 F   0  0  0  0  0  0  0  0  0  0  0  0
   37.8930   30.6910   40.9010 C   0  0  0  0  0  0  0  0  0  0  0  0
   36.7980   31.3680   40.4160 C   0  0  0  0  0  0  0  0  0  0  0  0
   37.0340   32.5460   39.7150 C   0  0  0  0  0  0  0  0  0  0  0  0
   38.3350   32.9410   39.5610 C   0  0  0  0  0  0  0  0  0  0  0  0
   39.4460   32.2670   40.0450 C   0  0  0  0  0  0  0  0  0  0  0  0
   39.1610   31.1260   40.7200 N   0  0  0  0  0  0  0  0  0  0  0  0
   35.8050   30.9760   40.5890 H   0  0  0  0  0  0  0  0  0  0  0  0
   36.2040   33.1080   39.3170 H   0  0  0  0  0  0  0  0  0  0  0  0
   38.4780   33.8580   39.0120 H   0  0  0  0  0  0  0  0  0  0  0  0
   40.8120   31.0800   37.6840 Cl  0  0  0  0  0  0  0  0  0  0  0  0
   41.5310   32.2190   38.7980 C   0  0  0  0  0  0  0  0  0  0  0  0
   40.8180   32.7150   39.8640 C   0  0  0  0  0  0  0  0  0  0  0  0
   41.4320   33.6070   40.7080 C   0  0  0  0  0  0  0  0  0  0  0  0
   40.9150   34.0190   41.5530 H   0  0  0  0  0  0  0  0  0  0  0  0
   42.7560   33.9960   40.4750 C   0  0  0  0  0  3  0  0  0  0  0  0
   43.4410   33.4790   39.3940 C   0  0  0  0  0  0  0  0  0  0  0  0
   45.0920   34.0260   39.1870 Cl  0  0  0  0  0  0  0  0  0  0  0  0
   42.8360   32.5760   38.5330 C   0  0  0  0  0  0  0  0  0  0  0  0
   43.4050   32.1920   37.6960 H   0  0  0  0  0  0  0  0  0  0  0  0
  1  7  1  0  0  0  0
  2  8  1  0  0  0  0
  2  1  1  0  0  0  0
  3  2  2  0  0  0  0
  4  3  1  0  0  0  0
  4  5  2  0  0  0  0
  5  6  1  0  0  0  0
  6  1  2  0  0  0  0
  9 14  1  0  0  0  0
  9  3  1  0  0  0  0
 10  9  1  0  0  0  0
 11 17  1  0  0  0  0
 11 12  1  0  0  0  0
 11 10  1  0  0  0  0
 12 13  1  0  0  0  0
 13 23  1  0  0  0  0
 13 20  1  1  0  0  0
 13 14  1  0  0  0  0
 14 21  1  0  0  0  0
 14 22  1  0  0  0  0
 15 10  1  0  0  0  0
 16 10  1  0  0  0  0
 18 11  1  0  0  0  0
 19 12  1  0  0  0  0
 23 26  1  0  0  0  0
 24 23  1  0  0  0  0
 25 23  1  0  0  0  0
 27  5  1  0  0  0  0
 28 33  1  0  0  0  0
 28 27  2  0  0  0  0
 29 28  1  0  0  0  0
 30 29  2  0  0  0  0
 30 31  1  0  0  0  0
 31 32  2  0  0  0  0
 32 27  1  0  0  0  0
 34 29  1  0  0  0  0
 35 30  1  0  0  0  0
 36 37  1  0  0  0  0
 37 38  1  0  0  0  0
 38 31  1  0  0  0  0
 38 39  2  0  0  0  0
 39 40  1  0  0  0  0
 41 39  1  0  0  0  0
 42 41  2  0  0  0  0
 43 42  1  0  0  0  0
 44 37  2  0  0  0  0
 44 42  1  0  0  0  0
 45 44  1  0  0  0  0
M  END
>  <minimizedAffinity>
-6.3520875

$$$$

 OpenBabel03242522093D

 45 48  0  0  1  0  0  0  0  0999 V2000
   35.4590   29.1040   40.6790 C   0  0  0  0  0  0  0  0  0  0  0  0
   36.1980   28.0240   41.1840 C   0  0  0  0  0  0  0  0  0  0  0  0
   37.5610   28.2030   41.4230 C   0  0  0  0  0  0  0  0  0  0  0  0
   38.0780   29.4390   41.1400 N   0  0  0  0  0  0  0  0  0  0  0  0
   37.3390   30.4540   40.6550 C   0  0  0  0  0  0  0  0  0  0  0  0
   36.0120   30.2780   40.4230 N   0  0  0  0  0  0  0  0  0  0  0  0
   34.4170   28.8500   40.5330 H   0  0  0  0  0  0  0  0  0  0  0  0
   35.8040   27.0430   41.4130 H   0  0  0  0  0  0  0  0  0  0  0  0
   38.4400   27.2000   41.9350 N   0  0  0  0  0  0  0  0  0  0  0  0
   38.6600   27.1000   43.3700 C   0  0  0  0  0  0  0  0  0  0  0  0
   39.9440   26.3640   43.6640 C   0  0  0  0  0  0  0  0  0  0  0  0
   40.0980   25.1340   42.9820 N   0  0  0  0  0  0  0  0  0  0  0  0
   39.5960   25.0590   41.6650 C   0  0  2  0  0  0  0  0  0  0  0  0
   39.0980   26.3030   41.0450 C   0  0  0  0  0  0  0  0  0  0  0  0
   38.7570   28.1130   43.8190 H   0  0  0  0  0  0  0  0  0  0  0  0
   37.8470   26.5750   43.9040 H   0  0  0  0  0  0  0  0  0  0  0  0
   40.8490   26.9800   43.4740 H   0  0  0  0  0  0  0  0  0  0  0  0
   39.9440   26.1540   44.7680 H   0  0  0  0  0  0  0  0  0  0  0  0
   39.7800   24.3130   43.5730 H   0  0  0  0  0  0  0  0  0  0  0  0
   40.3840   24.6370   40.9940 H   0  0  0  0  0  0  0  0  0  0  0  0
   39.9760   26.8550   40.6140 H   0  0  0  0  0  0  0  0  0  0  0  0
   38.3770   26.0280   40.2330 H   0  0  0  0  0  0  0  0  0  0  0  0
   38.4660   24.0410   41.6280 C   0  0  0  0  0  0  0  0  0  0  0  0
   37.3620   24.5660   40.9650 F   0  0  0  0  0  0  0  0  0  0  0  0
   38.0740   23.8560   42.9400 F   0  0  0  0  0  0  0  0  0  0  0  0
   38.8190   22.8780   41.0070 F   0  0  0  0  0  0  0  0  0  0  0  0
   37.9510   31.7440   40.3750 C   0  0  0  0  0  0  0  0  0  0  0  0
   37.1620   32.8500   40.1610 C   0  0  0  0  0  0  0  0  0  0  0  0
   37.8070   34.0530   39.8970 C   0  0  0  0  0  0  0  0  0  0  0  0
   39.1760   34.0460   39.8700 C   0  0  0  0  0  0  0  0  0  0  0  0
   39.9800   32.9370   40.0850 C   0  0  0  0  0  0  0  0  0  0  0  0
   39.3020   31.7900   40.3380 N   0  0  0  0  0  0  0  0  0  0  0  0
   36.0850   32.7570   40.2030 H   0  0  0  0  0  0  0  0  0  0  0  0
   37.2260   34.9460   39.7220 H   0  0  0  0  0  0  0  0  0  0  0  0
   39.6400   34.9970   39.6610 H   0  0  0  0  0  0  0  0  0  0  0  0
   41.1410   32.4490   37.3900 Cl  0  0  0  0  0  0  0  0  0  0  0  0
   42.0620   32.7460   38.8450 C   0  0  0  0  0  0  0  0  0  0  0  0
   41.4340   32.9630   40.0490 C   0  0  0  0  0  0  0  0  0  0  0  0
   42.2060   33.1910   41.1620 C   0  0  0  0  0  0  0  0  0  0  0  0
   41.7600   33.3640   42.1220 H   0  0  0  0  0  0  0  0  0  0  0  0
   43.6020   33.2020   41.0570 C   0  0  0  0  0  3  0  0  0  0  0  0
   44.1980   32.9830   39.8320 C   0  0  0  0  0  0  0  0  0  0  0  0
   45.9490   33.0160   39.8020 Cl  0  0  0  0  0  0  0  0  0  0  0  0
   43.4330   32.7490   38.6980 C   0  0  0  0  0  0  0  0  0  0  0  0
   43.9360   32.5810   37.7550 H   0  0  0  0  0  0  0  0  0  0  0  0
  1  2  1  0  0  0  0
  2  8  1  0  0  0  0
  2  3  2  0  0  0  0
  3  9  1  0  0  0  0
  4  3  1  0  0  0  0
  5  4  2  0  0  0  0
  6  5  1  0  0  0  0
  6  1  2  0  0  0  0
  7  1  1  0  0  0  0
  9 10  1  0  0  0  0
 10 11  1  0  0  0  0
 10 15  1  0  0  0  0
 10 16  1  0  0  0  0
 11 18  1  0  0  0  0
 12 19  1  0  0  0  0
 12 11  1  0  0  0  0
 13 20  1  6  0  0  0
 13 12  1  0  0  0  0
 14 13  1  0  0  0  0
 14  9  1  0  0  0  0
 17 11  1  0  0  0  0
 21 14  1  0  0  0  0
 22 14  1  0  0  0  0
 23 13  1  0  0  0  0
 23 25  1  0  0  0  0
 24 23  1  0  0  0  0
 26 23  1  0  0  0  0
 27  5  1  0  0  0  0
 28 33  1  0  0  0  0
 28 27  2  0  0  0  0
 29 28  1  0  0  0  0
 30 29  2  0  0  0  0
 30 31  1  0  0  0  0
 31 32  2  0  0  0  0
 32 27  1  0  0  0  0
 34 29  1  0  0  0  0
 35 30  1  0  0  0  0
 36 37  1  0  0  0  0
 37 38  1  0  0  0  0
 38 31  1  0  0  0  0
 38 39  2  0  0  0  0
 39 40  1  0  0  0  0
 41 39  1  0  0  0  0
 42 41  2  0  0  0  0
 43 42  1  0  0  0  0
 44 37  2  0  0  0  0
 44 42  1  0  0  0  0
 45 44  1  0  0  0  0
M  END
>  <minimizedAffinity>
-6.31724548

$$$$

 OpenBabel03242522093D

 45 48  0  0  1  0  0  0  0  0999 V2000
   37.4580   28.4750   43.1590 C   0  0  0  0  0  0  0  0  0  0  0  0
   37.5680   29.5140   42.2230 C   0  0  0  0  0  0  0  0  0  0  0  0
   37.6560   29.1850   40.8700 C   0  0  0  0  0  0  0  0  0  0  0  0
   37.6280   27.8520   40.5580 N   0  0  0  0  0  0  0  0  0  0  0  0
   37.5220   26.8800   41.4830 C   0  0  0  0  0  0  0  0  0  0  0  0
   37.4360   27.2020   42.8010 N   0  0  0  0  0  0  0  0  0  0  0  0
   37.3970   28.8470   44.1740 H   0  0  0  0  0  0  0  0  0  0  0  0
   37.5910   30.5700   42.4550 H   0  0  0  0  0  0  0  0  0  0  0  0
   37.7710   30.1290   39.8050 N   0  0  0  0  0  0  0  0  0  0  0  0
   36.7310   30.2010   38.7910 C   0  0  0  0  0  0  0  0  0  0  0  0
   37.2510   30.8580   37.5360 C   0  0  0  0  0  0  0  0  0  0  0  0
   37.9270   32.0850   37.7400 N   0  0  0  0  0  0  0  0  0  0  0  0
   38.7120   32.2030   38.9070 C   0  0  2  0  0  0  0  0  0  0  0  0
   38.8990   30.9970   39.7360 C   0  0  0  0  0  0  0  0  0  0  0  0
   36.3960   29.1790   38.5060 H   0  0  0  0  0  0  0  0  0  0  0  0
   35.8380   30.7660   39.1150 H   0  0  0  0  0  0  0  0  0  0  0  0
   37.9150   30.1940   36.9430 H   0  0  0  0  0  0  0  0  0  0  0  0
   36.3560   31.0560   36.8860 H   0  0  0  0  0  0  0  0  0  0  0  0
   37.2800   32.9160   37.6130 H   0  0  0  0  0  0  0  0  0  0  0  0
   39.7250   32.5870   38.6310 H   0  0  0  0  0  0  0  0  0  0  0  0
   39.7450   30.4000   39.3010 H   0  0  0  0  0  0  0  0  0  0  0  0
   39.1510   31.3230   40.7790 H   0  0  0  0  0  0  0  0  0  0  0  0
   38.1140   33.2850   39.7930 C   0  0  0  0  0  0  0  0  0  0  0  0
   39.0010   34.3480   39.9270 F   0  0  0  0  0  0  0  0  0  0  0  0
   37.9930   32.7250   41.0510 F   0  0  0  0  0  0  0  0  0  0  0  0
   36.9340   33.7750   39.3120 F   0  0  0  0  0  0  0  0  0  0  0  0
   37.4980   25.4810   41.0840 C   0  0  0  0  0  0  0  0  0  0  0  0
   38.5160   24.6380   41.4650 C   0  0  0  0  0  0  0  0  0  0  0  0
   38.4360   23.3130   41.0490 C   0  0  0  0  0  0  0  0  0  0  0  0
   37.3540   22.9500   40.2940 C   0  0  0  0  0  0  0  0  0  0  0  0
   36.3230   23.7920   39.9050 C   0  0  0  0  0  0  0  0  0  0  0  0
   36.4490   25.0710   40.3360 N   0  0  0  0  0  0  0  0  0  0  0  0
   39.3330   25.0190   42.0630 H   0  0  0  0  0  0  0  0  0  0  0  0
   39.2140   22.6170   41.3250 H   0  0  0  0  0  0  0  0  0  0  0  0
   37.3280   21.9150   39.9910 H   0  0  0  0  0  0  0  0  0  0  0  0
   36.6390   24.2940   36.9910 Cl  0  0  0  0  0  0  0  0  0  0  0  0
   35.2390   23.5660   37.7420 C   0  0  0  0  0  0  0  0  0  0  0  0
   35.1850   23.3730   39.1020 C   0  0  0  0  0  0  0  0  0  0  0  0
   34.0600   22.7960   39.6400 C   0  0  0  0  0  0  0  0  0  0  0  0
   33.9730   22.6270   40.6960 H   0  0  0  0  0  0  0  0  0  0  0  0
   33.0000   22.4170   38.8090 C   0  0  0  0  0  3  0  0  0  0  0  0
   33.0900   22.6250   37.4480 C   0  0  0  0  0  0  0  0  0  0  0  0
   31.7130   22.1170   36.4910 Cl  0  0  0  0  0  0  0  0  0  0  0  0
   34.2180   23.2070   36.8880 C   0  0  0  0  0  0  0  0  0  0  0  0
   34.2520   23.3540   35.8170 H   0  0  0  0  0  0  0  0  0  0  0  0
  1  7  1  0  0  0  0
  2  8  1  0  0  0  0
  2  1  2  0  0  0  0
  3  2  1  0  0  0  0
  4  3  2  0  0  0  0
  4  5  1  0  0  0  0
  5  6  2  0  0  0  0
  6  1  1  0  0  0  0
  9  3  1  0  0  0  0
 10 16  1  0  0  0  0
 10  9  1  0  0  0  0
 11 12  1  0  0  0  0
 11 10  1  0  0  0  0
 12 13  1  0  0  0  0
 13 20  1  6  0  0  0
 13 14  1  0  0  0  0
 13 23  1  0  0  0  0
 14  9  1  0  0  0  0
 14 22  1  0  0  0  0
 15 10  1  0  0  0  0
 17 11  1  0  0  0  0
 18 11  1  0  0  0  0
 19 12  1  0  0  0  0
 21 14  1  0  0  0  0
 23 24  1  0  0  0  0
 23 25  1  0  0  0  0
 26 23  1  0  0  0  0
 27 28  1  0  0  0  0
 27  5  1  0  0  0  0
 28 33  1  0  0  0  0
 29 34  1  0  0  0  0
 29 28  2  0  0  0  0
 30 29  1  0  0  0  0
 31 30  2  0  0  0  0
 31 32  1  0  0  0  0
 32 27  2  0  0  0  0
 35 30  1  0  0  0  0
 36 37  1  0  0  0  0
 37 38  1  0  0  0  0
 38 39  2  0  0  0  0
 38 31  1  0  0  0  0
 39 40  1  0  0  0  0
 41 39  1  0  0  0  0
 42 41  2  0  0  0  0
 43 42  1  0  0  0  0
 44 42  1  0  0  0  0
 44 37  2  0  0  0  0
 45 44  1  0  0  0  0
M  END
>  <minimizedAffinity>
-6.1887517

$$$$

 OpenBabel03242522093D

 45 48  0  0  1  0  0  0  0  0999 V2000
   38.0730   28.2450   43.5630 C   0  0  0  0  0  0  0  0  0  0  0  0
   38.1790   29.5200   42.9880 C   0  0  0  0  0  0  0  0  0  0  0  0
   37.8590   29.6710   41.6380 C   0  0  0  0  0  0  0  0  0  0  0  0
   37.4600   28.5440   40.9710 N   0  0  0  0  0  0  0  0  0  0  0  0
   37.3700   27.3340   41.5550 C   0  0  0  0  0  0  0  0  0  0  0  0
   37.6820   27.1900   42.8700 N   0  0  0  0  0  0  0  0  0  0  0  0
   38.3460   28.2490   44.6100 H   0  0  0  0  0  0  0  0  0  0  0  0
   38.4910   30.4200   43.5020 H   0  0  0  0  0  0  0  0  0  0  0  0
   37.9170   30.9020   40.9160 N   0  0  0  0  0  0  0  0  0  0  0  0
   39.0450   31.7990   41.1100 C   0  0  0  0  0  0  0  0  0  0  0  0
   38.6950   33.2020   40.6800 C   0  0  0  0  0  0  0  0  0  0  0  0
   38.1070   33.3040   39.3970 N   0  0  0  0  0  0  0  0  0  0  0  0
   37.2330   32.2680   39.0030 C   0  0  2  0  0  0  0  0  0  0  0  0
   36.8740   31.2490   40.0090 C   0  0  0  0  0  0  0  0  0  0  0  0
   39.3200   31.8490   42.1870 H   0  0  0  0  0  0  0  0  0  0  0  0
   39.9500   31.4970   40.5500 H   0  0  0  0  0  0  0  0  0  0  0  0
   38.0340   33.7240   41.4050 H   0  0  0  0  0  0  0  0  0  0  0  0
   39.6570   33.7820   40.6710 H   0  0  0  0  0  0  0  0  0  0  0  0
   38.8280   33.5190   38.6500 H   0  0  0  0  0  0  0  0  0  0  0  0
   36.2830   32.7140   38.6180 H   0  0  0  0  0  0  0  0  0  0  0  0
   36.0250   31.6490   40.6250 H   0  0  0  0  0  0  0  0  0  0  0  0
   36.5580   30.3190   39.4700 H   0  0  0  0  0  0  0  0  0  0  0  0
   37.8360   31.5450   37.8090 C   0  0  0  0  0  0  0  0  0  0  0  0
   37.4310   32.1470   36.6220 F   0  0  0  0  0  0  0  0  0  0  0  0
   37.2810   30.2800   37.8070 F   0  0  0  0  0  0  0  0  0  0  0  0
   39.2020   31.5290   37.8310 F   0  0  0  0  0  0  0  0  0  0  0  0
   36.9390   26.1750   40.7880 C   0  0  0  0  0  0  0  0  0  0  0  0
   37.0150   24.9170   41.3390 C   0  0  0  0  0  0  0  0  0  0  0  0
   36.5900   23.8500   40.5540 C   0  0  0  0  0  0  0  0  0  0  0  0
   36.1290   24.1320   39.2970 C   0  0  0  0  0  0  0  0  0  0  0  0
   36.0490   25.3970   38.7330 C   0  0  0  0  0  0  0  0  0  0  0  0
   36.4750   26.4000   39.5380 N   0  0  0  0  0  0  0  0  0  0  0  0
   37.3940   24.7930   42.3450 H   0  0  0  0  0  0  0  0  0  0  0  0
   36.6320   22.8460   40.9470 H   0  0  0  0  0  0  0  0  0  0  0  0
   35.8090   23.2800   38.7190 H   0  0  0  0  0  0  0  0  0  0  0  0
   38.1630   25.4340   36.6400 Cl  0  0  0  0  0  0  0  0  0  0  0  0
   36.4580   25.7010   36.3560 C   0  0  0  0  0  0  0  0  0  0  0  0
   35.5540   25.6630   37.3910 C   0  0  0  0  0  0  0  0  0  0  0  0
   34.2270   25.8790   37.1120 C   0  0  0  0  0  0  0  0  0  0  0  0
   33.4850   25.8590   37.8870 H   0  0  0  0  0  0  0  0  0  0  0  0
   33.8180   26.1300   35.7970 C   0  0  0  0  0  3  0  0  0  0  0  0
   34.7540   26.1600   34.7840 C   0  0  0  0  0  0  0  0  0  0  0  0
   34.1450   26.4820   33.1730 Cl  0  0  0  0  0  0  0  0  0  0  0  0
   36.0980   25.9440   35.0480 C   0  0  0  0  0  0  0  0  0  0  0  0
   36.8030   25.9750   34.2280 H   0  0  0  0  0  0  0  0  0  0  0  0
  1  7  1  0  0  0  0
  2  8  1  0  0  0  0
  2  1  1  0  0  0  0
  3  2  2  0  0  0  0
  4  5  2  0  0  0  0
  4  3  1  0  0  0  0
  5  6  1  0  0  0  0
  6  1  2  0  0  0  0
  9 10  1  0  0  0  0
  9  3  1  0  0  0  0
 10 15  1  0  0  0  0
 11 10  1  0  0  0  0
 11 17  1  0  0  0  0
 12 11  1  0  0  0  0
 13 20  1  6  0  0  0
 13 12  1  0  0  0  0
 13 14  1  0  0  0  0
 14 21  1  0  0  0  0
 14  9  1  0  0  0  0
 16 10  1  0  0  0  0
 18 11  1  0  0  0  0
 19 12  1  0  0  0  0
 22 14  1  0  0  0  0
 23 26  1  0  0  0  0
 23 13  1  0  0  0  0
 24 23  1  0  0  0  0
 25 23  1  0  0  0  0
 27 28  1  0  0  0  0
 27  5  1  0  0  0  0
 28 33  1  0  0  0  0
 29 34  1  0  0  0  0
 29 28  2  0  0  0  0
 30 29  1  0  0  0  0
 31 30  2  0  0  0  0
 31 32  1  0  0  0  0
 32 27  2  0  0  0  0
 35 30  1  0  0  0  0
 37 36  1  0  0  0  0
 37 38  1  0  0  0  0
 38 31  1  0  0  0  0
 39 38  2  0  0  0  0
 39 40  1  0  0  0  0
 41 39  1  0  0  0  0
 42 44  1  0  0  0  0
 42 41  2  0  0  0  0
 43 42  1  0  0  0  0
 44 37  2  0  0  0  0
 45 44  1  0  0  0  0
M  END
>  <minimizedAffinity>
-6.17274475

$$$$

 OpenBabel03242522093D

 45 48  0  0  1  0  0  0  0  0999 V2000
   37.6590   28.3220   43.6800 C   0  0  0  0  0  0  0  0  0  0  0  0
   37.5930   27.0490   43.0950 C   0  0  0  0  0  0  0  0  0  0  0  0
   37.6540   26.9500   41.7040 C   0  0  0  0  0  0  0  0  0  0  0  0
   37.7760   28.1240   41.0100 N   0  0  0  0  0  0  0  0  0  0  0  0
   37.8360   29.3300   41.6040 C   0  0  0  0  0  0  0  0  0  0  0  0
   37.7760   29.4240   42.9590 N   0  0  0  0  0  0  0  0  0  0  0  0
   37.6020   28.2760   44.7600 H   0  0  0  0  0  0  0  0  0  0  0  0
   37.4980   26.1130   43.6300 H   0  0  0  0  0  0  0  0  0  0  0  0
   37.6000   25.7280   40.9670 N   0  0  0  0  0  0  0  0  0  0  0  0
   37.2220   24.4960   41.6420 C   0  0  0  0  0  0  0  0  0  0  0  0
   37.6980   23.2930   40.8650 C   0  0  0  0  0  0  0  0  0  0  0  0
   37.3730   23.3050   39.4880 N   0  0  0  0  0  0  0  0  0  0  0  0
   37.3990   24.5520   38.8300 C   0  0  2  0  0  0  0  0  0  0  0  0
   37.9130   25.7160   39.5770 C   0  0  0  0  0  0  0  0  0  0  0  0
   37.6990   24.4430   42.6460 H   0  0  0  0  0  0  0  0  0  0  0  0
   36.1310   24.3880   41.7850 H   0  0  0  0  0  0  0  0  0  0  0  0
   38.7910   23.1210   40.9610 H   0  0  0  0  0  0  0  0  0  0  0  0
   37.2060   22.3970   41.3330 H   0  0  0  0  0  0  0  0  0  0  0  0
   36.4780   22.7710   39.2900 H   0  0  0  0  0  0  0  0  0  0  0  0
   37.9980   24.4610   37.8900 H   0  0  0  0  0  0  0  0  0  0  0  0
   39.0340   25.7180   39.4950 H   0  0  0  0  0  0  0  0  0  0  0  0
   37.4890   26.6460   39.1170 H   0  0  0  0  0  0  0  0  0  0  0  0
   35.9910   24.8900   38.3630 C   0  0  0  0  0  0  0  0  0  0  0  0
   35.0580   24.0980   39.0230 F   0  0  0  0  0  0  0  0  0  0  0  0
   35.9320   24.5240   37.0310 F   0  0  0  0  0  0  0  0  0  0  0  0
   35.6610   26.1980   38.5720 F   0  0  0  0  0  0  0  0  0  0  0  0
   37.9660   30.5400   40.8060 C   0  0  0  0  0  0  0  0  0  0  0  0
   36.8470   31.1330   40.2670 C   0  0  0  0  0  0  0  0  0  0  0  0
   37.0370   32.2860   39.5130 C   0  0  0  0  0  0  0  0  0  0  0  0
   38.3190   32.7420   39.3640 C   0  0  0  0  0  0  0  0  0  0  0  0
   39.4520   32.1520   39.9030 C   0  0  0  0  0  0  0  0  0  0  0  0
   39.2120   31.0320   40.6290 N   0  0  0  0  0  0  0  0  0  0  0  0
   35.8720   30.6970   40.4400 H   0  0  0  0  0  0  0  0  0  0  0  0
   36.1870   32.7830   39.0710 H   0  0  0  0  0  0  0  0  0  0  0  0
   38.4260   33.6370   38.7720 H   0  0  0  0  0  0  0  0  0  0  0  0
   40.8700   31.0500   37.5320 Cl  0  0  0  0  0  0  0  0  0  0  0  0
   41.5380   32.2100   38.6570 C   0  0  0  0  0  0  0  0  0  0  0  0
   40.8020   32.6630   39.7270 C   0  0  0  0  0  0  0  0  0  0  0  0
   41.3760   33.5750   40.5790 C   0  0  0  0  0  0  0  0  0  0  0  0
   40.8400   33.9560   41.4280 H   0  0  0  0  0  0  0  0  0  0  0  0
   42.6810   34.0250   40.3510 C   0  0  0  0  0  3  0  0  0  0  0  0
   43.3880   33.5490   39.2650 C   0  0  0  0  0  0  0  0  0  0  0  0
   45.0140   34.1720   39.0630 Cl  0  0  0  0  0  0  0  0  0  0  0  0
   42.8250   32.6280   38.3950 C   0  0  0  0  0  0  0  0  0  0  0  0
   43.4110   32.2780   37.5560 H   0  0  0  0  0  0  0  0  0  0  0  0
  1  7  1  0  0  0  0
  2  8  1  0  0  0  0
  2  1  1  0  0  0  0
  3  2  2  0  0  0  0
  4  5  2  0  0  0  0
  4  3  1  0  0  0  0
  5  6  1  0  0  0  0
  6  1  2  0  0  0  0
  9 10  1  0  0  0  0
  9  3  1  0  0  0  0
 10 16  1  0  0  0  0
 10 15  1  0  0  0  0
 11 17  1  0  0  0  0
 11 18  1  0  0  0  0
 11 10  1  0  0  0  0
 12 11  1  0  0  0  0
 13 20  1  6  0  0  0
 13 12  1  0  0  0  0
 13 14  1  0  0  0  0
 14  9  1  0  0  0  0
 19 12  1  0  0  0  0
 21 14  1  0  0  0  0
 22 14  1  0  0  0  0
 23 26  1  0  0  0  0
 23 13  1  0  0  0  0
 23 24  1  0  0  0  0
 25 23  1  0  0  0  0
 27  5  1  0  0  0  0
 28 33  1  0  0  0  0
 28 27  2  0  0  0  0
 29 28  1  0  0  0  0
 30 29  2  0  0  0  0
 30 31  1  0  0  0  0
 31 32  2  0  0  0  0
 32 27  1  0  0  0  0
 34 29  1  0  0  0  0
 35 30  1  0  0  0  0
 36 37  1  0  0  0  0
 37 38  1  0  0  0  0
 38 31  1  0  0  0  0
 38 39  2  0  0  0  0
 39 40  1  0  0  0  0
 41 39  1  0  0  0  0
 42 41  2  0  0  0  0
 43 42  1  0  0  0  0
 44 37  2  0  0  0  0
 44 42  1  0  0  0  0
 45 44  1  0  0  0  0
M  END
>  <minimizedAffinity>
-6.0312953

$$$$

 OpenBabel03242522093D

 45 48  0  0  1  0  0  0  0  0999 V2000
   36.9440   29.0200   36.0990 C   0  0  0  0  0  0  0  0  0  0  0  0
   37.0380   27.7200   36.6190 C   0  0  0  0  0  0  0  0  0  0  0  0
   37.4430   27.5610   37.9440 C   0  0  0  0  0  0  0  0  0  0  0  0
   37.7230   28.7040   38.6440 N   0  0  0  0  0  0  0  0  0  0  0  0
   37.6220   29.9370   38.1130 C   0  0  0  0  0  0  0  0  0  0  0  0
   37.2270   30.0900   36.8220 N   0  0  0  0  0  0  0  0  0  0  0  0
   36.6210   29.0220   35.0660 H   0  0  0  0  0  0  0  0  0  0  0  0
   36.8200   26.8090   36.0790 H   0  0  0  0  0  0  0  0  0  0  0  0
   37.5850   26.3060   38.6110 N   0  0  0  0  0  0  0  0  0  0  0  0
   38.8610   25.6100   38.5740 C   0  0  0  0  0  0  0  0  0  0  0  0
   38.6800   24.1430   38.8750 C   0  0  0  0  0  0  0  0  0  0  0  0
   37.9170   23.8600   40.0330 N   0  0  0  0  0  0  0  0  0  0  0  0
   36.8330   24.7180   40.3160 C   0  0  2  0  0  0  0  0  0  0  0  0
   36.4800   25.7380   39.3100 C   0  0  0  0  0  0  0  0  0  0  0  0
   39.3110   25.6790   37.5590 H   0  0  0  0  0  0  0  0  0  0  0  0
   39.6010   26.0070   39.2930 H   0  0  0  0  0  0  0  0  0  0  0  0
   38.2410   23.5770   38.0260 H   0  0  0  0  0  0  0  0  0  0  0  0
   39.7110   23.7180   39.0240 H   0  0  0  0  0  0  0  0  0  0  0  0
   38.5330   23.7060   40.8830 H   0  0  0  0  0  0  0  0  0  0  0  0
   35.9190   24.1050   40.5130 H   0  0  0  0  0  0  0  0  0  0  0  0
   35.8190   25.2570   38.5400 H   0  0  0  0  0  0  0  0  0  0  0  0
   35.9320   26.5680   39.8270 H   0  0  0  0  0  0  0  0  0  0  0  0
   37.1080   25.4390   41.6270 C   0  0  0  0  0  0  0  0  0  0  0  0
   38.4640   25.3900   41.9330 F   0  0  0  0  0  0  0  0  0  0  0  0
   36.4660   24.7080   42.6080 F   0  0  0  0  0  0  0  0  0  0  0  0
   36.7260   26.7500   41.6030 F   0  0  0  0  0  0  0  0  0  0  0  0
   37.9340   31.1120   38.9120 C   0  0  0  0  0  0  0  0  0  0  0  0
   37.0850   32.1950   38.9070 C   0  0  0  0  0  0  0  0  0  0  0  0
   37.4400   33.2880   39.6900 C   0  0  0  0  0  0  0  0  0  0  0  0
   38.6040   33.2030   40.4050 C   0  0  0  0  0  0  0  0  0  0  0  0
   39.4660   32.1170   40.4170 C   0  0  0  0  0  0  0  0  0  0  0  0
   39.0740   31.0790   39.6380 N   0  0  0  0  0  0  0  0  0  0  0  0
   36.1850   32.1680   38.3080 H   0  0  0  0  0  0  0  0  0  0  0  0
   36.8030   34.1580   39.7160 H   0  0  0  0  0  0  0  0  0  0  0  0
   38.8460   34.0700   41.0000 H   0  0  0  0  0  0  0  0  0  0  0  0
   39.3380   30.3140   42.7800 Cl  0  0  0  0  0  0  0  0  0  0  0  0
   40.7340   31.2520   42.3020 C   0  0  0  0  0  0  0  0  0  0  0  0
   40.6970   32.0590   41.1900 C   0  0  0  0  0  0  0  0  0  0  0  0
   41.8230   32.7750   40.8600 C   0  0  0  0  0  0  0  0  0  0  0  0
   41.8410   33.4180   40.0020 H   0  0  0  0  0  0  0  0  0  0  0  0
   42.9750   32.6730   41.6480 C   0  0  0  0  0  3  0  0  0  0  0  0
   42.9750   31.8510   42.7570 C   0  0  0  0  0  0  0  0  0  0  0  0
   44.4630   31.7910   43.6800 Cl  0  0  0  0  0  0  0  0  0  0  0  0
   41.8470   31.1230   43.1050 C   0  0  0  0  0  0  0  0  0  0  0  0
   41.8850   30.4900   43.9810 H   0  0  0  0  0  0  0  0  0  0  0  0
  1  2  2  0  0  0  0
  1  6  1  0  0  0  0
  2  3  1  0  0  0  0
  3  9  1  0  0  0  0
  3  4  2  0  0  0  0
  5  4  1  0  0  0  0
  5 27  1  0  0  0  0
  6  5  2  0  0  0  0
  7  1  1  0  0  0  0
  8  2  1  0  0  0  0
  9 14  1  0  0  0  0
 10  9  1  0  0  0  0
 10 11  1  0  0  0  0
 10 16  1  0  0  0  0
 11 18  1  0  0  0  0
 11 12  1  0  0  0  0
 12 13  1  0  0  0  0
 12 19  1  0  0  0  0
 13 20  1  1  0  0  0
 13 23  1  0  0  0  0
 14 22  1  0  0  0  0
 14 13  1  0  0  0  0
 15 10  1  0  0  0  0
 17 11  1  0  0  0  0
 21 14  1  0  0  0  0
 23 24  1  0  0  0  0
 23 25  1  0  0  0  0
 26 23  1  0  0  0  0
 27 32  1  0  0  0  0
 28 27  2  0  0  0  0
 28 29  1  0  0  0  0
 29 34  1  0  0  0  0
 29 30  2  0  0  0  0
 30 31  1  0  0  0  0
 30 35  1  0  0  0  0
 31 38  1  0  0  0  0
 32 31  2  0  0  0  0
 33 28  1  0  0  0  0
 37 36  1  0  0  0  0
 37 44  1  0  0  0  0
 38 37  2  0  0  0  0
 39 38  1  0  0  0  0
 39 41  2  0  0  0  0
 40 39  1  0  0  0  0
 41 42  1  0  0  0  0
 42 44  2  0  0  0  0
 42 43  1  0  0  0  0
 44 45  1  0  0  0  0
M  END
>  <minimizedAffinity>
-6.01110697

$$$$

 OpenBabel03242522093D

 45 48  0  0  1  0  0  0  0  0999 V2000
   35.5400   28.2330   38.1030 C   0  0  0  0  0  0  0  0  0  0  0  0
   35.9140   27.0080   38.6740 C   0  0  0  0  0  0  0  0  0  0  0  0
   36.8790   27.0100   39.6810 C   0  0  0  0  0  0  0  0  0  0  0  0
   37.3930   28.2280   40.0380 N   0  0  0  0  0  0  0  0  0  0  0  0
   37.0110   29.3860   39.4680 C   0  0  0  0  0  0  0  0  0  0  0  0
   36.0700   29.3820   38.4870 N   0  0  0  0  0  0  0  0  0  0  0  0
   34.7870   28.1100   37.3350 H   0  0  0  0  0  0  0  0  0  0  0  0
   35.5160   26.0390   38.4040 H   0  0  0  0  0  0  0  0  0  0  0  0
   37.3600   25.8470   40.3560 N   0  0  0  0  0  0  0  0  0  0  0  0
   38.0660   24.8190   39.6070 C   0  0  0  0  0  0  0  0  0  0  0  0
   38.0410   23.5050   40.3470 C   0  0  0  0  0  0  0  0  0  0  0  0
   38.4280   23.5770   41.7060 N   0  0  0  0  0  0  0  0  0  0  0  0
   38.0490   24.7310   42.4240 C   0  0  2  0  0  0  0  0  0  0  0  0
   37.1500   25.6940   41.7570 C   0  0  0  0  0  0  0  0  0  0  0  0
   37.5710   24.6480   38.6250 H   0  0  0  0  0  0  0  0  0  0  0  0
   39.1240   25.0680   39.4070 H   0  0  0  0  0  0  0  0  0  0  0  0
   37.0550   22.9970   40.2950 H   0  0  0  0  0  0  0  0  0  0  0  0
   38.7620   22.8260   39.8140 H   0  0  0  0  0  0  0  0  0  0  0  0
   39.4550   23.3500   41.8360 H   0  0  0  0  0  0  0  0  0  0  0  0
   37.5670   24.4260   43.3850 H   0  0  0  0  0  0  0  0  0  0  0  0
   36.0930   25.3370   41.8920 H   0  0  0  0  0  0  0  0  0  0  0  0
   37.2860   26.6960   42.2410 H   0  0  0  0  0  0  0  0  0  0  0  0
   39.3040   25.4840   42.8390 C   0  0  0  0  0  0  0  0  0  0  0  0
   40.1270   25.6990   41.7390 F   0  0  0  0  0  0  0  0  0  0  0  0
   39.9990   24.6350   43.6790 F   0  0  0  0  0  0  0  0  0  0  0  0
   39.0330   26.6950   43.4090 F   0  0  0  0  0  0  0  0  0  0  0  0
   37.5980   30.6470   39.8940 C   0  0  0  0  0  0  0  0  0  0  0  0
   36.9050   31.8230   39.7200 C   0  0  0  0  0  0  0  0  0  0  0  0
   37.5210   32.9950   40.1470 C   0  0  0  0  0  0  0  0  0  0  0  0
   38.7660   32.8900   40.7060 C   0  0  0  0  0  0  0  0  0  0  0  0
   39.4720   31.7090   40.8850 C   0  0  0  0  0  0  0  0  0  0  0  0
   38.8280   30.5970   40.4530 N   0  0  0  0  0  0  0  0  0  0  0  0
   35.9230   31.8060   39.2680 H   0  0  0  0  0  0  0  0  0  0  0  0
   37.0140   33.9400   40.0300 H   0  0  0  0  0  0  0  0  0  0  0  0
   39.2110   33.8190   41.0240 H   0  0  0  0  0  0  0  0  0  0  0  0
   41.6250   32.9380   39.2420 Cl  0  0  0  0  0  0  0  0  0  0  0  0
   41.8560   32.1730   40.7960 C   0  0  0  0  0  0  0  0  0  0  0  0
   40.7950   31.6320   41.4840 C   0  0  0  0  0  0  0  0  0  0  0  0
   41.0330   31.0420   42.7010 C   0  0  0  0  0  0  0  0  0  0  0  0
   40.2370   30.6060   43.2730 H   0  0  0  0  0  0  0  0  0  0  0  0
   42.3330   31.0010   43.2190 C   0  0  0  0  0  3  0  0  0  0  0  0
   43.3730   31.5560   42.5010 C   0  0  0  0  0  0  0  0  0  0  0  0
   44.9620   31.4560   43.2320 Cl  0  0  0  0  0  0  0  0  0  0  0  0
   43.1500   32.1540   41.2700 C   0  0  0  0  0  0  0  0  0  0  0  0
   43.9910   32.5780   40.7370 H   0  0  0  0  0  0  0  0  0  0  0  0
  1  6  2  0  0  0  0
  1  2  1  0  0  0  0
  2  3  2  0  0  0  0
  3  4  1  0  0  0  0
  3  9  1  0  0  0  0
  5 27  1  0  0  0  0
  5  4  2  0  0  0  0
  6  5  1  0  0  0  0
  7  1  1  0  0  0  0
  8  2  1  0  0  0  0
  9 14  1  0  0  0  0
 10 11  1  0  0  0  0
 10  9  1  0  0  0  0
 11 12  1  0  0  0  0
 12 19  1  0  0  0  0
 12 13  1  0  0  0  0
 13 23  1  0  0  0  0
 13 20  1  1  0  0  0
 14 21  1  0  0  0  0
 14 22  1  0  0  0  0
 14 13  1  0  0  0  0
 15 10  1  0  0  0  0
 16 10  1  0  0  0  0
 17 11  1  0  0  0  0
 18 11  1  0  0  0  0
 23 26  1  0  0  0  0
 23 25  1  0  0  0  0
 24 23  1  0  0  0  0
 27 32  1  0  0  0  0
 28 27  2  0  0  0  0
 28 29  1  0  0  0  0
 29 30  2  0  0  0  0
 30 31  1  0  0  0  0
 30 35  1  0  0  0  0
 31 38  1  0  0  0  0
 32 31  2  0  0  0  0
 33 28  1  0  0  0  0
 34 29  1  0  0  0  0
 36 37  1  0  0  0  0
 37 44  2  0  0  0  0
 37 38  1  0  0  0  0
 38 39  2  0  0  0  0
 39 41  1  0  0  0  0
 39 40  1  0  0  0  0
 42 41  2  0  0  0  0
 42 43  1  0  0  0  0
 44 42  1  0  0  0  0
 45 44  1  0  0  0  0
M  END
>  <minimizedAffinity>
-6.00697947

$$$$
