
     RDKit          3D

 42 45  0  0  0  0  0  0  0  0999 V2000
   47.1805   34.5596   42.0127 C   0  0  1  0  0  0  0  0  0  0  0  0
   48.2821   35.4369   41.6767 C   0  0  0  0  0  0  0  0  0  0  0  0
   48.6042   34.1223   42.3243 C   0  0  2  0  0  0  0  0  0  0  0  0
   45.5202   36.0398   43.1824 C   0  0  0  0  0  0  0  0  0  0  0  0
   46.2800   34.8379   43.1512 C   0  0  0  0  0  0  0  0  0  0  0  0
   46.1412   33.9619   44.2112 C   0  0  0  0  0  0  0  0  0  0  0  0
   45.2875   34.3009   45.2188 N   0  0  0  0  0  0  0  0  0  0  0  0
   44.5749   35.4431   45.2330 C   0  0  0  0  0  0  0  0  0  0  0  0
   44.6815   36.3323   44.2111 N   0  0  0  0  0  0  0  0  0  0  0  0
   49.3152   33.2024   41.4794 N   0  0  0  0  0  0  0  0  0  0  0  0
   50.6508   33.1216   42.0058 C   0  0  0  0  0  0  0  0  0  0  0  0
   51.3411   31.8211   41.8102 C   0  0  0  0  0  0  0  0  0  0  0  0
   50.6110   30.7332   42.5654 C   0  0  0  0  0  0  0  0  0  0  0  0
   49.1498   30.9898   42.5472 C   0  0  0  0  0  0  0  0  0  0  0  0
   48.7281   31.8760   41.4266 C   0  0  2  0  0  0  0  0  0  0  0  0
   46.7164   33.8482   41.2683 H   0  0  0  0  0  0  0  0  0  0  0  0
   48.4697   35.5683   40.5811 H   0  0  0  0  0  0  0  0  0  0  0  0
   48.3847   36.3857   42.2317 H   0  0  0  0  0  0  0  0  0  0  0  0
   48.8912   34.1593   43.3887 H   0  0  0  0  0  0  0  0  0  0  0  0
   45.6719   36.6935   42.3171 H   0  0  0  0  0  0  0  0  0  0  0  0
   46.6973   33.0332   44.2361 H   0  0  0  0  0  0  0  0  0  0  0  0
   43.9033   35.6874   46.0467 H   0  0  0  0  0  0  0  0  0  0  0  0
   50.6371   33.3169   43.1089 H   0  0  0  0  0  0  0  0  0  0  0  0
   51.2731   33.9721   41.6043 H   0  0  0  0  0  0  0  0  0  0  0  0
   52.3354   31.9294   42.3453 H   0  0  0  0  0  0  0  0  0  0  0  0
   51.5976   31.5213   40.8025 H   0  0  0  0  0  0  0  0  0  0  0  0
   50.8256   29.7749   42.0221 H   0  0  0  0  0  0  0  0  0  0  0  0
   51.0310   30.5718   43.5894 H   0  0  0  0  0  0  0  0  0  0  0  0
   48.8924   31.5349   43.4925 H   0  0  0  0  0  0  0  0  0  0  0  0
   48.5224   30.0902   42.5608 H   0  0  0  0  0  0  0  0  0  0  0  0
   47.6382   32.1034   41.6820 H   0  0  0  0  0  0  0  0  0  0  0  0
   49.4853   33.3969   38.7632 Cl  0  0  0  0  0  0  0  0  0  0  0  0
   48.9839   31.7457   38.8280 C   0  0  0  0  0  0  0  0  0  0  0  0
   48.6669   31.2915   40.0900 C   0  0  0  0  0  0  0  0  0  0  0  0
   48.2164   29.9653   40.1647 C   0  0  0  0  0  0  0  0  0  0  0  0
   47.9031   29.3733   41.0358 H   0  0  0  0  0  0  0  0  0  0  0  0
   48.1113   29.1852   39.0053 C   0  0  0  0  0  0  0  0  0  0  0  0
   48.4445   29.6934   37.7670 C   0  0  0  0  0  0  0  0  0  0  0  0
   48.3296   28.7551   36.2917 Cl  0  0  0  0  0  0  0  0  0  0  0  0
   48.8849   30.9948   37.7000 C   0  0  0  0  0  0  0  0  0  0  0  0
   49.1654   31.4671   36.7676 H   0  0  0  0  0  0  0  0  0  0  0  0
   47.7738   28.1584   38.9779 H   0  0  0  0  0  0  0  0  0  0  0  0
  1  3  1  0
  1  5  1  0
  2  1  1  0
  2  3  1  0
  4  9  2  0
  5  4  1  0
  5  6  2  0
  6  7  1  0
  8  7  2  0
  9  8  1  0
 10 11  1  0
 10  3  1  0
 12 11  1  0
 12 13  1  0
 13 14  1  0
 15 10  1  0
 15 14  1  0
  1 16  1  6
  2 17  1  0
  2 18  1  0
  3 19  1  1
  4 20  1  0
  6 21  1  0
  8 22  1  0
 11 23  1  0
 11 24  1  0
 12 25  1  0
 12 26  1  0
 13 27  1  0
 13 28  1  0
 14 29  1  0
 14 30  1  0
 15 31  1  1
 32 33  1  0
 33 34  2  0
 34 35  1  0
 35 36  1  0
 35 37  2  0
 37 38  1  0
 38 39  1  0
 38 40  2  0
 40 41  1  0
 40 33  1  0
 37 42  1  0
 15 34  1  0
M  ISO  8  16  13  17  13  18  13  19  13  20  14  21  14  22  14  23  13
M  ISO  8  24  13  25  13  26  13  27  13  28  13  29  13  30  13  31  13
M  ISO  2  36  16  41  15
M  END
>  <DihAtoms>  (1) 
9,14,33,32

>  <DihDeg>  (1) 
10.985041411088734

$$$$
