
 OpenBabel03242514303D

 39 42  0  0  0  0  0  0  0  0999 V2000
   49.0290   33.7270   37.2290 Cl  0  0  0  0  0  0  0  0  0  0  0  0
   47.9220   32.4130   37.5790 C   0  0  0  0  0  0  0  0  0  0  0  0
   47.4010   32.2980   38.8230 C   0  0  0  0  0  0  0  0  0  0  0  0
   46.6440   31.1560   39.0250 C   0  0  0  0  0  0  0  0  0  0  0  0
   46.3960   30.1830   38.0840 C   0  0  0  0  0  0  0  0  0  0  0  0
   46.9450   30.3460   36.8220 C   0  0  0  0  0  0  0  0  0  0  0  0
   47.7140   31.4770   36.5780 C   0  0  0  0  0  0  0  0  0  0  0  0
   46.2370   31.0920   40.0520 H   0  0  0  0  0  0  0  0  0  0  0  0
   45.7940   29.3950   38.4470 H   0  0  0  0  0  0  0  0  0  0  0  0
   46.7250   29.5610   36.1140 H   0  0  0  0  0  0  0  0  0  0  0  0
   45.7590   32.5110   34.6500 Cl  0  0  0  0  0  0  0  0  0  0  0  0
   47.4390   32.1070   34.2600 C   0  0  0  0  0  0  0  0  0  0  0  0
   48.2810   31.6260   35.2410 C   0  0  0  0  0  0  0  0  0  0  0  0
   49.5790   31.3270   34.8790 C   0  0  0  0  0  0  0  0  0  0  0  0
   50.2270   30.9520   35.6570 H   0  0  0  0  0  0  0  0  0  0  0  0
   50.0090   31.5100   33.5710 C   0  0  0  0  0  0  0  0  0  0  0  0
   49.1060   32.0010   32.6240 C   0  0  0  0  0  0  0  0  0  0  0  0
   49.6020   32.2520   30.9490 Cl  0  0  0  0  0  0  0  0  0  0  0  0
   47.7890   32.3140   32.9480 C   0  0  0  0  0  0  0  0  0  0  0  0
   47.1010   32.6940   32.2040 H   0  0  0  0  0  0  0  0  0  0  0  0
   48.5260   35.3990   40.5670 C   0  0  0  0  0  0  0  0  0  0  0  0
   48.3120   34.4660   39.5390 C   0  0  0  0  0  0  0  0  0  0  0  0
   47.6070   33.3040   39.8290 C   0  0  0  0  0  0  0  0  0  0  0  0
   47.1570   33.1470   41.0940 N   0  0  0  0  0  0  0  0  0  0  0  0
   47.3590   34.0460   42.0720 C   0  0  0  0  0  0  0  0  0  0  0  0
   48.0460   35.1730   41.8110 N   0  0  0  0  0  0  0  0  0  0  0  0
   49.0570   36.3400   40.4970 H   0  0  0  0  0  0  0  0  0  0  0  0
   48.7290   34.8800   38.6790 H   0  0  0  0  0  0  0  0  0  0  0  0
   45.0160   35.8590   42.8240 Cl  0  0  0  0  0  0  0  0  0  0  0  0
   45.7270   34.6310   43.8440 C   0  0  0  0  0  0  0  0  0  0  0  0
   46.7970   33.8590   43.3910 C   0  0  0  0  0  0  0  0  0  0  0  0
   47.2650   32.9320   44.2630 C   0  0  0  0  0  0  0  0  0  0  0  0
   46.7450   32.7270   45.5340 C   0  0  0  0  0  0  0  0  0  0  0  0
   45.6940   33.5000   45.9530 C   0  0  0  0  0  0  0  0  0  0  0  0
   45.1260   33.1290   47.5630 Cl  0  0  0  0  0  0  0  0  0  0  0  0
   45.1850   34.4460   45.1180 C   0  0  0  0  0  0  0  0  0  0  0  0
   48.0970   32.3280   43.9180 H   0  0  0  0  0  0  0  0  0  0  0  0
   47.2190   31.9410   46.1400 H   0  0  0  0  0  0  0  0  0  0  0  0
   44.3610   35.0290   45.4880 H   0  0  0  0  0  0  0  0  0  0  0  0
  1  2  1  0  0  0  0
  2  3  1  0  0  0  0
  3  4  2  0  0  0  0
  3 23  1  0  0  0  0
  4  8  1  0  0  0  0
  5  9  1  0  0  0  0
  5  4  1  0  0  0  0
  6  5  2  0  0  0  0
  7  6  1  0  0  0  0
  7  2  2  0  0  0  0
 10  6  1  0  0  0  0
 12 11  1  0  0  0  0
 12 13  1  0  0  0  0
 13  7  1  0  0  0  0
 14 13  2  0  0  0  0
 14 15  1  0  0  0  0
 16 14  1  0  0  0  0
 17 19  1  0  0  0  0
 17 16  2  0  0  0  0
 18 17  1  0  0  0  0
 19 12  2  0  0  0  0
 20 19  1  0  0  0  0
 21 26  1  0  0  0  0
 22 23  1  0  0  0  0
 22 21  2  0  0  0  0
 23 24  2  0  0  0  0
 24 25  1  0  0  0  0
 25 31  1  0  0  0  0
 26 25  2  0  0  0  0
 27 21  1  0  0  0  0
 28 22  1  0  0  0  0
 29 30  1  0  0  0  0
 30 36  1  0  0  0  0
 31 30  2  0  0  0  0
 31 32  1  0  0  0  0
 32 33  2  0  0  0  0
 33 34  1  0  0  0  0
 33 38  1  0  0  0  0
 34 35  1  0  0  0  0
 36 39  1  0  0  0  0
 36 34  2  0  0  0  0
 37 32  1  0  0  0  0
M  END
>  <minimizedAffinity>
-6.54400492

>  <minimizedRMSD>
1.27366757

$$$$
