REMARK  Name = 
REMARK  3 active torsions:
REMARK  status: ('A' for Active; 'I' for Inactive)
REMARK    1  A    between atoms: C_1  and  C_18
REMARK    2  A    between atoms: C_3  and  C_4
REMARK    3  A    between atoms: C_16  and  C_35
REMARK                            x       y       z     vdW  Elec       q    Type
REMARK                         _______ _______ _______ _____ _____    ______ ____
ROOT
ATOM      1  C   UNL     1      46.382  32.666  45.866  0.00  0.00    +0.000 C 
ATOM      2  C   UNL     1      46.972  32.836  47.203  0.00  0.00    +0.000 C 
ATOM      3  C   UNL     1      45.542  32.207  46.955  0.00  0.00    +0.000 C 
ATOM      4  H   UNL     1      47.138  32.020  45.290  0.00  0.00    +0.000 HD
ATOM      5  H   UNL     1      47.616  32.091  47.697  0.00  0.00    +0.000 HD
ATOM      6  H   UNL     1      47.016  33.817  47.704  0.00  0.00    +0.000 HD
ATOM      7  H   UNL     1      44.901  32.898  47.586  0.00  0.00    +0.000 HD
ENDROOT
BRANCH   3   8
ATOM      8  C   UNL     1      45.301  30.804  47.300  0.00  0.00    +0.000 A 
ATOM      9  C   UNL     1      45.175  30.270  48.546  0.00  0.00    +0.000 A 
ATOM     10  C   UNL     1      45.073  28.918  48.845  0.00  0.00    +0.000 A 
ATOM     11  C   UNL     1      45.104  28.035  47.749  0.00  0.00    +0.000 A 
ATOM     12  C   UNL     1      45.229  28.553  46.458  0.00  0.00    +0.000 A 
ATOM     13  C   UNL     1      45.197  27.651  45.409  0.00  0.00    +0.000 A 
ATOM     14  C   UNL     1      45.253  28.131  44.112  0.00  0.00    +0.000 A 
ATOM     15  C   UNL     1      45.336  29.487  43.864  0.00  0.00    +0.000 A 
ATOM     16  C   UNL     1      45.366  30.338  44.942  0.00  0.00    +0.000 A 
ATOM     17  C   UNL     1      45.322  29.911  46.255  0.00  0.00    +0.000 A 
ATOM     18  H   UNL     1      45.156  30.983  49.359  0.00  0.00    +0.000 HD
ATOM     19  H   UNL     1      44.976  28.573  49.853  0.00  0.00    +0.000 HD
ATOM     20  H   UNL     1      45.027  27.004  48.004  0.00  0.00    +0.000 HD
ATOM     21  H   UNL     1      45.129  26.591  45.641  0.00  0.00    +0.000 HD
ATOM     22  H   UNL     1      45.223  27.322  43.364  0.00  0.00    +0.000 HD
ATOM     23  H   UNL     1      45.365  29.655  42.806  0.00  0.00    +0.000 HD
ATOM     24  H   UNL     1      45.343  31.294  44.503  0.00  0.00    +0.000 HD
ENDBRANCH   3   8
BRANCH   1  29
ATOM     25  C   UNL     1      44.623  35.736  44.827  0.00  0.00    +0.000 A 
ATOM     26  C   UNL     1      45.163  35.972  43.516  0.00  0.00    +0.000 A 
ATOM     27  C   UNL     1      46.119  35.062  43.039  0.00  0.00    +0.000 A 
ATOM     28  N   UNL     1      46.472  34.038  43.821  0.00  0.00    +0.000 NA
ATOM     29  C   UNL     1      45.947  33.839  45.059  0.00  0.00    +0.000 A 
ATOM     30  N   UNL     1      45.039  34.674  45.548  0.00  0.00    +0.000 NA
ATOM     31  H   UNL     1      43.890  36.424  45.205  0.00  0.00    +0.000 HD
ATOM     32  H   UNL     1      44.853  36.812  42.953  0.00  0.00    +0.000 HD
BRANCH  27  35
ATOM     33 CL   UNL     1      46.441  32.566  41.127  0.00  0.00    +0.000 Cl
ATOM     34  C   UNL     1      47.016  34.179  40.823  0.00  0.00    +0.000 A 
ATOM     35  C   UNL     1      46.785  35.135  41.778  0.00  0.00    +0.000 A 
ATOM     36  C   UNL     1      47.337  36.349  41.396  0.00  0.00    +0.000 A 
ATOM     37  H   UNL     1      47.268  37.257  42.019  0.00  0.00    +0.000 HD
ATOM     38  C   UNL     1      48.022  36.582  40.225  0.00  0.00    +0.000 A 
ATOM     39  C   UNL     1      48.200  35.556  39.328  0.00  0.00    +0.000 A 
ATOM     40 CL   UNL     1      49.068  35.842  37.837  0.00  0.00    +0.000 Cl
ATOM     41  C   UNL     1      47.680  34.323  39.642  0.00  0.00    +0.000 A 
ATOM     42  H   UNL     1      47.828  33.537  38.933  0.00  0.00    +0.000 HD
ENDBRANCH  27  35
ENDBRANCH   1  29
TORSDOF 3
