
 OpenBabel03252504493D

 25 26  0  0  0  0  0  0  0  0999 V2000
   47.1140   32.3070   41.6720 C   0  0  0  0  0  0  0  0  0  0  0  0
   47.9810   31.7710   40.7190 C   0  0  0  0  0  0  0  0  0  0  0  0
   47.4880   31.6510   39.4170 C   0  0  0  0  0  0  0  0  0  0  0  0
   46.2110   32.0590   39.1650 N   0  0  0  0  0  0  0  0  0  0  0  0
   45.4130   32.5680   40.1130 C   0  0  0  0  0  0  0  0  0  0  0  0
   45.8650   32.6940   41.3740 N   0  0  0  0  0  0  0  0  0  0  0  0
   47.4260   32.4330   42.7160 H   0  0  0  0  0  0  0  0  0  0  0  0
   48.1510   31.2420   38.6910 H   0  0  0  0  0  0  0  0  0  0  0  0
   43.2200   31.4960   41.9480 Cl  0  0  0  0  0  0  0  0  0  0  0  0
   42.9930   32.5500   40.5500 C   0  0  0  0  0  0  0  0  0  0  0  0
   44.0550   32.9860   39.7750 C   0  0  0  0  0  0  0  0  0  0  0  0
   43.8520   33.8110   38.6850 C   0  0  0  0  0  0  0  0  0  0  0  0
   44.6890   34.1610   38.0650 H   0  0  0  0  0  0  0  0  0  0  0  0
   42.5570   34.2030   38.3700 C   0  0  0  0  0  3  0  0  0  0  0  0
   41.5270   33.7490   39.1660 C   0  0  0  0  0  0  0  0  0  0  0  0
   39.9070   34.2610   38.7430 Cl  0  0  0  0  0  0  0  0  0  0  0  0
   41.6980   32.9260   40.2580 C   0  0  0  0  0  0  0  0  0  0  0  0
   40.8750   32.5840   40.8650 H   0  0  0  0  0  0  0  0  0  0  0  0
   49.3140   31.3760   41.1150 C   0  0  0  0  0  0  0  0  0  0  0  0
   50.0720   32.0960   40.7120 H   0  0  0  0  0  0  0  0  0  0  0  0
   49.3830   31.2500   42.1950 H   0  0  0  0  0  0  0  0  0  0  0  0
   49.6330   30.0360   40.4750 C   0  0  0  0  0  0  0  0  0  0  0  0
   50.0100   30.1590   39.4450 H   0  0  0  0  0  0  0  0  0  0  0  0
   50.3940   29.5530   41.1090 H   0  0  0  0  0  0  0  0  0  0  0  0
   48.7210   29.4010   40.4880 H   0  0  0  0  0  0  0  0  0  0  0  0
  1  7  1  0  0  0  0
  2 19  1  0  0  0  0
  2  1  2  0  0  0  0
  3  2  1  0  0  0  0
  4  3  2  0  0  0  0
  4  5  1  0  0  0  0
  5  6  2  0  0  0  0
  6  1  1  0  0  0  0
  8  3  1  0  0  0  0
 10  9  1  0  0  0  0
 11  5  1  0  0  0  0
 11 10  2  0  0  0  0
 12 11  1  0  0  0  0
 13 12  1  0  0  0  0
 14 12  2  0  0  0  0
 14 15  1  0  0  0  0
 15 17  2  0  0  0  0
 16 15  1  0  0  0  0
 17 10  1  0  0  0  0
 17 18  1  0  0  0  0
 19 21  1  0  0  0  0
 20 19  1  0  0  0  0
 22 25  1  0  0  0  0
 22 24  1  0  0  0  0
 22 19  1  0  0  0  0
 23 22  1  0  0  0  0
M  END
>  <minimizedAffinity>
-2.32015872

>  <minimizedRMSD>
7.91725874

$$$$
