
 OpenBabel03252502443D

 32 34  0  0  1  0  0  0  0  0999 V2000
   49.0170   34.7030   41.4740 C   0  0  1  0  0  0  0  0  0  0  0  0
   50.1530   34.3210   42.3570 C   0  0  0  0  0  0  0  0  0  0  0  0
   49.1180   33.3280   41.9490 C   0  0  2  0  0  0  0  0  0  0  0  0
   49.2040   34.9700   40.3970 H   0  0  0  0  0  0  0  0  0  0  0  0
   50.2580   34.6940   43.3960 H   0  0  0  0  0  0  0  0  0  0  0  0
   51.1300   34.4040   41.8410 H   0  0  0  0  0  0  0  0  0  0  0  0
   48.4730   32.7220   42.5460 H   0  0  0  0  0  0  0  0  0  0  0  0
   51.2280   31.1470   42.7290 Cl  0  0  0  0  0  0  0  0  0  0  0  0
   50.6020   31.4130   41.1180 C   0  0  0  0  0  0  0  0  0  0  0  0
   49.6600   32.3930   40.9150 C   0  0  0  0  0  0  0  0  0  0  0  0
   49.1040   32.6510   39.6810 C   0  0  0  0  0  0  0  0  0  0  0  0
   48.3650   33.3950   39.4340 H   0  0  0  0  0  0  0  0  0  0  0  0
   49.4890   31.9050   38.5640 C   0  0  0  0  0  3  0  0  0  0  0  0
   50.4440   30.9080   38.7550 C   0  0  0  0  0  0  0  0  0  0  0  0
   51.0730   29.8530   37.4920 Cl  0  0  0  0  0  0  0  0  0  0  0  0
   50.9770   30.6810   40.0110 C   0  0  0  0  0  0  0  0  0  0  0  0
   51.7330   29.9050   40.2090 H   0  0  0  0  0  0  0  0  0  0  0  0
   47.9380   35.5590   42.0690 C   0  0  0  0  0  0  0  0  0  0  0  0
   47.8710   36.5530   41.6300 H   0  0  0  0  0  0  0  0  0  0  0  0
   48.2260   35.6360   43.1650 H   0  0  0  0  0  0  0  0  0  0  0  0
   46.6550   34.7420   41.9640 C   0  0  0  0  0  0  0  0  0  0  0  0
   46.0520   34.9470   41.0930 H   0  0  0  0  0  0  0  0  0  0  0  0
   46.9630   33.6580   42.0880 H   0  0  0  0  0  0  0  0  0  0  0  0
   44.4740   35.9600   44.7700 C   0  0  0  0  0  0  0  0  0  0  0  0
   45.1010   35.8830   43.4970 C   0  0  0  0  0  0  0  0  0  0  0  0
   45.9430   34.8280   43.2720 C   0  0  0  0  0  0  0  0  0  0  0  0
   46.1380   33.9100   44.2610 N   0  0  0  0  0  0  0  0  0  0  0  0
   45.5470   33.9960   45.4390 C   0  0  0  0  0  0  0  0  0  0  0  0
   44.7180   35.0110   45.7030 N   0  0  0  0  0  0  0  0  0  0  0  0
   43.7940   36.7540   45.0470 H   0  0  0  0  0  0  0  0  0  0  0  0
   44.8020   36.6940   42.8610 H   0  0  0  0  0  0  0  0  0  0  0  0
   45.8100   33.1910   46.1060 H   0  0  0  0  0  0  0  0  0  0  0  0
  1  4  1  6  0  0  0
  1  3  1  0  0  0  0
  1 18  1  0  0  0  0
  1  2  1  0  0  0  0
  2  5  1  0  0  0  0
  3  2  1  0  0  0  0
  3  7  1  1  0  0  0
  6  2  1  0  0  0  0
  9  8  1  0  0  0  0
 10  9  1  0  0  0  0
 10  3  1  0  0  0  0
 11 10  2  0  0  0  0
 12 11  1  0  0  0  0
 13 14  2  0  0  0  0
 13 11  1  0  0  0  0
 14 16  1  0  0  0  0
 15 14  1  0  0  0  0
 16 17  1  0  0  0  0
 16  9  2  0  0  0  0
 18 20  1  0  0  0  0
 19 18  1  0  0  0  0
 21 18  1  0  0  0  0
 21 23  1  0  0  0  0
 21 26  1  0  0  0  0
 22 21  1  0  0  0  0
 24 30  1  0  0  0  0
 24 29  1  0  0  0  0
 25 24  2  0  0  0  0
 26 25  1  0  0  0  0
 26 27  2  0  0  0  0
 27 28  1  0  0  0  0
 28 29  2  0  0  0  0
 28 32  1  0  0  0  0
 31 25  1  0  0  0  0
M  END
>  <minimizedAffinity>
-4.81363773

>  <minimizedRMSD>
1.91521585

$$$$
