
 OpenBabel03242511223D

 40 43  0  0  1  0  0  0  0  0999 V2000
   36.2610   29.3110   38.2950 C   0  0  0  0  0  0  0  0  0  0  0  0
   35.7720   28.8120   37.4100 H   0  0  0  0  0  0  0  0  0  0  0  0
   35.5390   30.0400   38.6550 H   0  0  0  0  0  0  0  0  0  0  0  0
   36.7190   28.2980   39.2270 C   0  0  0  0  0  0  0  0  0  0  0  0
   36.6970   28.5160   40.5060 C   0  0  0  0  0  0  0  0  0  0  0  0
   37.1240   27.5490   41.4370 N   0  0  0  0  0  0  0  0  0  0  0  0
   36.8590   26.8350   42.6590 C   0  0  0  0  0  0  0  0  0  0  0  0
   36.2100   27.0790   43.7180 O   0  0  0  0  0  0  0  0  0  0  0  0
   37.6980   25.7360   42.0470 C   0  0  0  0  0  0  0  0  0  0  0  0
   38.4010   26.8160   41.2690 C   0  0  1  0  0  0  0  0  0  0  0  0
   38.6800   26.5000   39.5290 S   0  0  0  0  0  0  0  0  0  0  0  0
   37.2000   27.0340   38.6220 C   0  0  0  0  0  0  0  0  0  0  0  0
   38.3080   25.2410   42.8290 H   0  0  0  0  0  0  0  0  0  0  0  0
   37.0810   25.1020   41.4100 H   0  0  0  0  0  0  0  0  0  0  0  0
   39.2090   27.3230   41.8220 H   0  0  0  0  0  0  0  0  0  0  0  0
   37.4920   27.1220   37.5780 H   0  0  0  0  0  0  0  0  0  0  0  0
   36.4220   26.2420   38.7680 H   0  0  0  0  0  0  0  0  0  0  0  0
   36.2120   29.8120   41.0070 C   0  0  0  0  0  0  0  0  0  0  0  0
   36.8240   30.5500   41.8460 O   0  0  0  0  0  0  0  0  0  0  0  0
   35.5160   30.9440   41.2740 O   0  0  0  0  0  0  0  0  0  0  0  0
   34.7840   31.3720   40.7180 H   0  0  0  0  0  0  0  0  0  0  0  0
   37.7030   30.2160   37.5900 S   0  0  0  0  0  0  0  0  0  0  0  0
   37.6770   33.6260   39.7760 C   0  0  0  0  0  0  0  0  0  0  0  0
   37.3010   32.6350   38.8340 C   0  0  0  0  0  0  0  0  0  0  0  0
   38.1350   31.4860   38.7570 C   0  0  0  0  0  0  0  0  0  0  0  0
   39.2170   31.3990   39.5680 N   0  0  0  0  0  0  0  0  0  0  0  0
   39.5280   32.3610   40.4390 C   0  0  0  0  0  0  0  0  0  0  0  0
   38.7710   33.4760   40.5550 N   0  0  0  0  0  0  0  0  0  0  0  0
   37.0920   34.5240   39.8900 H   0  0  0  0  0  0  0  0  0  0  0  0
   36.4330   32.7830   38.2350 H   0  0  0  0  0  0  0  0  0  0  0  0
   41.8230   33.9850   39.6020 Cl  0  0  0  0  0  0  0  0  0  0  0  0
   41.8610   32.8780   40.9540 C   0  0  0  0  0  0  0  0  0  0  0  0
   40.7120   32.1610   41.2580 C   0  0  0  0  0  0  0  0  0  0  0  0
   40.6750   31.2820   42.2990 C   0  0  0  0  0  0  0  0  0  0  0  0
   39.7960   30.6960   42.5770 H   0  0  0  0  0  0  0  0  0  0  0  0
   41.8310   31.1380   43.0370 C   0  0  0  0  0  3  0  0  0  0  0  0
   42.9750   31.8380   42.7510 C   0  0  0  0  0  0  0  0  0  0  0  0
   44.4090   31.6260   43.7060 Cl  0  0  0  0  0  0  0  0  0  0  0  0
   42.9960   32.7220   41.6950 C   0  0  0  0  0  0  0  0  0  0  0  0
   43.8450   33.2990   41.4130 H   0  0  0  0  0  0  0  0  0  0  0  0
  1  3  1  0  0  0  0
  1  4  1  0  0  0  0
  2  1  1  0  0  0  0
  4  5  2  0  0  0  0
  5 18  1  0  0  0  0
  5  6  1  0  0  0  0
  6  7  1  0  0  0  0
  7  8  2  0  0  0  0
  9  7  1  0  0  0  0
  9 13  1  0  0  0  0
 10  6  1  0  0  0  0
 10 15  1  1  0  0  0
 10  9  1  0  0  0  0
 11 10  1  0  0  0  0
 12 17  1  0  0  0  0
 12  4  1  0  0  0  0
 12 11  1  0  0  0  0
 14  9  1  0  0  0  0
 16 12  1  0  0  0  0
 18 20  1  0  0  0  0
 18 19  2  0  0  0  0
 21 20  1  0  0  0  0
 22  1  1  0  0  0  0
 22 25  1  0  0  0  0
 23 29  1  0  0  0  0
 23 28  1  0  0  0  0
 24 23  2  0  0  0  0
 25 24  1  0  0  0  0
 25 26  2  0  0  0  0
 26 27  1  0  0  0  0
 27 28  2  0  0  0  0
 27 33  1  0  0  0  0
 30 24  1  0  0  0  0
 31 32  1  0  0  0  0
 32 33  2  0  0  0  0
 32 39  1  0  0  0  0
 33 34  1  0  0  0  0
 34 35  1  0  0  0  0
 34 36  2  0  0  0  0
 37 36  1  0  0  0  0
 37 38  1  0  0  0  0
 39 37  2  0  0  0  0
 40 39  1  0  0  0  0
M  END
>  <minimizedAffinity>
-6.2861867

$$$$

 OpenBabel03242511223D

 40 43  0  0  1  0  0  0  0  0999 V2000
   40.7470   29.7810   42.8870 C   0  0  0  0  0  0  0  0  0  0  0  0
   39.7800   30.2570   43.2180 H   0  0  0  0  0  0  0  0  0  0  0  0
   41.5140   30.1960   43.5380 H   0  0  0  0  0  0  0  0  0  0  0  0
   40.5920   28.3400   42.8600 C   0  0  0  0  0  0  0  0  0  0  0  0
   39.4170   27.7980   42.9510 C   0  0  0  0  0  0  0  0  0  0  0  0
   39.2310   26.4020   42.9150 N   0  0  0  0  0  0  0  0  0  0  0  0
   38.5030   25.2840   42.3750 C   0  0  0  0  0  0  0  0  0  0  0  0
   37.3370   25.1120   41.9140 O   0  0  0  0  0  0  0  0  0  0  0  0
   39.7690   24.4990   42.6330 C   0  0  0  0  0  0  0  0  0  0  0  0
   40.0610   25.4850   43.7330 C   0  0  1  0  0  0  0  0  0  0  0  0
   41.7330   26.1170   43.8240 S   0  0  0  0  0  0  0  0  0  0  0  0
   41.8440   27.5580   42.7240 C   0  0  0  0  0  0  0  0  0  0  0  0
   39.5210   23.4730   42.9690 H   0  0  0  0  0  0  0  0  0  0  0  0
   40.4550   24.6050   41.7920 H   0  0  0  0  0  0  0  0  0  0  0  0
   39.5570   25.2630   44.6880 H   0  0  0  0  0  0  0  0  0  0  0  0
   42.7410   28.1000   43.0130 H   0  0  0  0  0  0  0  0  0  0  0  0
   41.9160   27.1670   41.6770 H   0  0  0  0  0  0  0  0  0  0  0  0
   38.2340   28.6630   43.0960 C   0  0  0  0  0  0  0  0  0  0  0  0
   37.3250   28.5200   43.9770 O   0  0  0  0  0  0  0  0  0  0  0  0
   37.2760   29.6130   42.9790 O   0  0  0  0  0  0  0  0  0  0  0  0
   37.3410   30.5110   42.5130 H   0  0  0  0  0  0  0  0  0  0  0  0
   41.0260   30.4180   41.1800 S   0  0  0  0  0  0  0  0  0  0  0  0
   38.1370   33.1630   40.4530 C   0  0  0  0  0  0  0  0  0  0  0  0
   39.3600   32.5850   40.8790 C   0  0  0  0  0  0  0  0  0  0  0  0
   39.5080   31.1870   40.6630 C   0  0  0  0  0  0  0  0  0  0  0  0
   38.5000   30.4980   40.0760 N   0  0  0  0  0  0  0  0  0  0  0  0
   37.3670   31.0900   39.6930 C   0  0  0  0  0  0  0  0  0  0  0  0
   37.1700   32.4160   39.8740 N   0  0  0  0  0  0  0  0  0  0  0  0
   37.9540   34.2170   40.5840 H   0  0  0  0  0  0  0  0  0  0  0  0
   40.1010   33.2000   41.3320 H   0  0  0  0  0  0  0  0  0  0  0  0
   37.6150   30.9080   36.7760 Cl  0  0  0  0  0  0  0  0  0  0  0  0
   36.3720   30.0930   37.6950 C   0  0  0  0  0  0  0  0  0  0  0  0
   36.3530   30.2520   39.0740 C   0  0  0  0  0  0  0  0  0  0  0  0
   35.4110   29.6440   39.8490 C   0  0  0  0  0  0  0  0  0  0  0  0
   35.3560   29.7390   40.9370 H   0  0  0  0  0  0  0  0  0  0  0  0
   34.4780   28.8630   39.2010 C   0  0  0  0  0  3  0  0  0  0  0  0
   34.4810   28.6940   37.8410 C   0  0  0  0  0  0  0  0  0  0  0  0
   33.2870   27.7020   37.0640 Cl  0  0  0  0  0  0  0  0  0  0  0  0
   35.4390   29.3160   37.0710 C   0  0  0  0  0  0  0  0  0  0  0  0
   35.5060   29.2330   36.0120 H   0  0  0  0  0  0  0  0  0  0  0  0
  1  2  1  0  0  0  0
  1  3  1  0  0  0  0
  4  1  1  0  0  0  0
  4  5  2  0  0  0  0
  5 18  1  0  0  0  0
  6  5  1  0  0  0  0
  6 10  1  0  0  0  0
  7  9  1  0  0  0  0
  7  6  1  0  0  0  0
  8  7  2  0  0  0  0
  9 13  1  0  0  0  0
  9 10  1  0  0  0  0
 10 11  1  0  0  0  0
 10 15  1  1  0  0  0
 12  4  1  0  0  0  0
 12 16  1  0  0  0  0
 12 11  1  0  0  0  0
 14  9  1  0  0  0  0
 17 12  1  0  0  0  0
 18 19  2  0  0  0  0
 20 18  1  0  0  0  0
 21 20  1  0  0  0  0
 22  1  1  0  0  0  0
 23 29  1  0  0  0  0
 23 24  1  0  0  0  0
 24 30  1  0  0  0  0
 25 24  2  0  0  0  0
 25 22  1  0  0  0  0
 26 25  1  0  0  0  0
 27 28  1  0  0  0  0
 27 26  2  0  0  0  0
 28 23  2  0  0  0  0
 31 32  1  0  0  0  0
 32 33  1  0  0  0  0
 33 27  1  0  0  0  0
 33 34  2  0  0  0  0
 34 35  1  0  0  0  0
 36 34  1  0  0  0  0
 37 36  2  0  0  0  0
 38 37  1  0  0  0  0
 39 32  2  0  0  0  0
 39 37  1  0  0  0  0
 40 39  1  0  0  0  0
M  END
>  <minimizedAffinity>
-6.16539478

$$$$

 OpenBabel03242511223D

 40 43  0  0  1  0  0  0  0  0999 V2000
   38.9080   31.0290   41.1160 C   0  0  0  0  0  0  0  0  0  0  0  0
   38.7490   31.9990   41.6700 H   0  0  0  0  0  0  0  0  0  0  0  0
   37.9120   30.6610   40.8790 H   0  0  0  0  0  0  0  0  0  0  0  0
   39.8270   31.2480   40.0150 C   0  0  0  0  0  0  0  0  0  0  0  0
   39.9650   32.4260   39.4910 C   0  0  0  0  0  0  0  0  0  0  0  0
   40.8580   32.6740   38.4290 N   0  0  0  0  0  0  0  0  0  0  0  0
   41.8960   33.5060   37.8810 C   0  0  0  0  0  0  0  0  0  0  0  0
   42.2220   34.7240   37.9930 O   0  0  0  0  0  0  0  0  0  0  0  0
   42.3440   32.2530   37.1640 C   0  0  0  0  0  0  0  0  0  0  0  0
   40.9120   31.7950   37.2370 C   0  0  1  0  0  0  0  0  0  0  0  0
   40.6350   30.0980   37.7360 S   0  0  0  0  0  0  0  0  0  0  0  0
   40.5720   30.0550   39.5500 C   0  0  0  0  0  0  0  0  0  0  0  0
   42.7110   32.5030   36.1480 H   0  0  0  0  0  0  0  0  0  0  0  0
   42.9990   31.6650   37.8080 H   0  0  0  0  0  0  0  0  0  0  0  0
   40.2650   32.1940   36.4380 H   0  0  0  0  0  0  0  0  0  0  0  0
   40.1120   29.1070   39.8220 H   0  0  0  0  0  0  0  0  0  0  0  0
   41.6290   30.1210   39.9170 H   0  0  0  0  0  0  0  0  0  0  0  0
   39.1670   33.5470   40.0170 C   0  0  0  0  0  0  0  0  0  0  0  0
   39.6370   34.5500   40.6460 O   0  0  0  0  0  0  0  0  0  0  0  0
   38.1880   34.4120   40.3740 O   0  0  0  0  0  0  0  0  0  0  0  0
   37.2580   34.4980   39.9810 H   0  0  0  0  0  0  0  0  0  0  0  0
   39.6680   29.8970   42.3560 S   0  0  0  0  0  0  0  0  0  0  0  0
   36.6650   27.7100   43.9720 C   0  0  0  0  0  0  0  0  0  0  0  0
   37.5920   28.7620   43.7580 C   0  0  0  0  0  0  0  0  0  0  0  0
   38.4880   28.6030   42.6640 C   0  0  0  0  0  0  0  0  0  0  0  0
   38.4110   27.4850   41.9040 N   0  0  0  0  0  0  0  0  0  0  0  0
   37.5190   26.5230   42.1480 C   0  0  0  0  0  0  0  0  0  0  0  0
   36.6420   26.6200   43.1740 N   0  0  0  0  0  0  0  0  0  0  0  0
   35.9560   27.7620   44.7810 H   0  0  0  0  0  0  0  0  0  0  0  0
   37.5840   29.6080   44.4040 H   0  0  0  0  0  0  0  0  0  0  0  0
   39.3990   24.4280   42.9750 Cl  0  0  0  0  0  0  0  0  0  0  0  0
   38.3800   24.3120   41.5600 C   0  0  0  0  0  0  0  0  0  0  0  0
   37.5270   25.3670   41.2660 C   0  0  0  0  0  0  0  0  0  0  0  0
   36.7080   25.3390   40.1780 C   0  0  0  0  0  0  0  0  0  0  0  0
   36.0200   26.1450   39.9060 H   0  0  0  0  0  0  0  0  0  0  0  0
   36.7630   24.2150   39.3820 C   0  0  0  0  0  3  0  0  0  0  0  0
   37.5980   23.1630   39.6560 C   0  0  0  0  0  0  0  0  0  0  0  0
   37.6370   21.7660   38.6280 Cl  0  0  0  0  0  0  0  0  0  0  0  0
   38.4210   23.2070   40.7600 C   0  0  0  0  0  0  0  0  0  0  0  0
   39.0950   22.4310   41.0370 H   0  0  0  0  0  0  0  0  0  0  0  0
  1  2  1  0  0  0  0
  1 22  1  0  0  0  0
  3  1  1  0  0  0  0
  4  1  1  0  0  0  0
  5  4  2  0  0  0  0
  5 18  1  0  0  0  0
  6  5  1  0  0  0  0
  7  8  2  0  0  0  0
  7  6  1  0  0  0  0
  9 10  1  0  0  0  0
  9 14  1  0  0  0  0
  9  7  1  0  0  0  0
 10 15  1  6  0  0  0
 10 11  1  0  0  0  0
 10  6  1  0  0  0  0
 11 12  1  0  0  0  0
 12 16  1  0  0  0  0
 12 17  1  0  0  0  0
 12  4  1  0  0  0  0
 13  9  1  0  0  0  0
 18 20  1  0  0  0  0
 18 19  2  0  0  0  0
 21 20  1  0  0  0  0
 22 25  1  0  0  0  0
 23 29  1  0  0  0  0
 24 23  1  0  0  0  0
 24 30  1  0  0  0  0
 25 24  2  0  0  0  0
 26 27  2  0  0  0  0
 26 25  1  0  0  0  0
 27 28  1  0  0  0  0
 28 23  2  0  0  0  0
 32 31  1  0  0  0  0
 33 32  1  0  0  0  0
 33 27  1  0  0  0  0
 34 33  2  0  0  0  0
 35 34  1  0  0  0  0
 36 37  2  0  0  0  0
 36 34  1  0  0  0  0
 37 39  1  0  0  0  0
 38 37  1  0  0  0  0
 39 40  1  0  0  0  0
 39 32  2  0  0  0  0
M  END
>  <minimizedAffinity>
-6.1498313

$$$$

 OpenBabel03242511223D

 40 43  0  0  1  0  0  0  0  0999 V2000
   38.8360   31.1120   40.2760 C   0  0  0  0  0  0  0  0  0  0  0  0
   39.5460   31.9000   39.8920 H   0  0  0  0  0  0  0  0  0  0  0  0
   38.1300   31.6400   40.9130 H   0  0  0  0  0  0  0  0  0  0  0  0
   38.3040   30.3570   39.1580 C   0  0  0  0  0  0  0  0  0  0  0  0
   37.0640   29.9720   39.1480 C   0  0  0  0  0  0  0  0  0  0  0  0
   36.5140   29.2480   38.0730 N   0  0  0  0  0  0  0  0  0  0  0  0
   35.4290   29.0910   37.1390 C   0  0  0  0  0  0  0  0  0  0  0  0
   34.1960   29.3710   37.1420 O   0  0  0  0  0  0  0  0  0  0  0  0
   36.4690   28.4690   36.2340 C   0  0  0  0  0  0  0  0  0  0  0  0
   37.2070   28.0760   37.4860 C   0  0  1  0  0  0  0  0  0  0  0  0
   38.9740   28.3630   37.5010 S   0  0  0  0  0  0  0  0  0  0  0  0
   39.2570   30.0670   38.0610 C   0  0  0  0  0  0  0  0  0  0  0  0
   36.0250   27.6290   35.6630 H   0  0  0  0  0  0  0  0  0  0  0  0
   36.9920   29.2430   35.6730 H   0  0  0  0  0  0  0  0  0  0  0  0
   36.8470   27.1460   37.9540 H   0  0  0  0  0  0  0  0  0  0  0  0
   40.3030   30.1280   38.3530 H   0  0  0  0  0  0  0  0  0  0  0  0
   39.0300   30.7400   37.1950 H   0  0  0  0  0  0  0  0  0  0  0  0
   36.2000   30.3000   40.2940 C   0  0  0  0  0  0  0  0  0  0  0  0
   35.4610   29.4690   40.9170 O   0  0  0  0  0  0  0  0  0  0  0  0
   35.5220   30.8980   41.3040 O   0  0  0  0  0  0  0  0  0  0  0  0
   35.7360   31.7740   41.7660 H   0  0  0  0  0  0  0  0  0  0  0  0
   39.8740   30.0190   41.3370 S   0  0  0  0  0  0  0  0  0  0  0  0
   37.2970   28.1240   43.8210 C   0  0  0  0  0  0  0  0  0  0  0  0
   38.1580   29.1160   43.2860 C   0  0  0  0  0  0  0  0  0  0  0  0
   38.7860   28.8060   42.0480 C   0  0  0  0  0  0  0  0  0  0  0  0
   38.5350   27.6120   41.4590 N   0  0  0  0  0  0  0  0  0  0  0  0
   37.7150   26.7120   42.0060 C   0  0  0  0  0  0  0  0  0  0  0  0
   37.0900   26.9520   43.1820 N   0  0  0  0  0  0  0  0  0  0  0  0
   36.7860   28.2900   44.7560 H   0  0  0  0  0  0  0  0  0  0  0  0
   38.2990   30.0290   43.8140 H   0  0  0  0  0  0  0  0  0  0  0  0
   39.4290   24.5280   42.9540 Cl  0  0  0  0  0  0  0  0  0  0  0  0
   38.2790   24.3600   41.6490 C   0  0  0  0  0  0  0  0  0  0  0  0
   37.5200   25.4640   41.2860 C   0  0  0  0  0  0  0  0  0  0  0  0
   36.6060   25.4000   40.2780 C   0  0  0  0  0  0  0  0  0  0  0  0
   35.9850   26.2410   39.9560 H   0  0  0  0  0  0  0  0  0  0  0  0
   36.4680   24.1880   39.6340 C   0  0  0  0  0  3  0  0  0  0  0  0
   37.2090   23.0870   39.9790 C   0  0  0  0  0  0  0  0  0  0  0  0
   37.0050   21.5800   39.1430 Cl  0  0  0  0  0  0  0  0  0  0  0  0
   38.1300   23.1690   41.0010 C   0  0  0  0  0  0  0  0  0  0  0  0
   38.7400   22.3590   41.3250 H   0  0  0  0  0  0  0  0  0  0  0  0
  1  3  1  0  0  0  0
  1 22  1  0  0  0  0
  2  1  1  0  0  0  0
  4  1  1  0  0  0  0
  5  4  2  0  0  0  0
  5 18  1  0  0  0  0
  6  5  1  0  0  0  0
  7  8  2  0  0  0  0
  7  6  1  0  0  0  0
  9  7  1  0  0  0  0
  9 10  1  0  0  0  0
 10 11  1  0  0  0  0
 10 15  1  1  0  0  0
 10  6  1  0  0  0  0
 11 12  1  0  0  0  0
 12 16  1  0  0  0  0
 12  4  1  0  0  0  0
 13  9  1  0  0  0  0
 14  9  1  0  0  0  0
 17 12  1  0  0  0  0
 18 19  2  0  0  0  0
 18 20  1  0  0  0  0
 20 21  1  0  0  0  0
 22 25  1  0  0  0  0
 23 29  1  0  0  0  0
 24 30  1  0  0  0  0
 24 23  1  0  0  0  0
 25 24  2  0  0  0  0
 26 27  2  0  0  0  0
 26 25  1  0  0  0  0
 27 28  1  0  0  0  0
 28 23  2  0  0  0  0
 32 31  1  0  0  0  0
 33 32  1  0  0  0  0
 33 27  1  0  0  0  0
 34 33  2  0  0  0  0
 35 34  1  0  0  0  0
 36 37  2  0  0  0  0
 36 34  1  0  0  0  0
 37 39  1  0  0  0  0
 38 37  1  0  0  0  0
 39 40  1  0  0  0  0
 39 32  2  0  0  0  0
M  END
>  <minimizedAffinity>
-6.14161491

$$$$

 OpenBabel03242511223D

 40 43  0  0  1  0  0  0  0  0999 V2000
   37.0200   31.3090   39.0020 C   0  0  0  0  0  0  0  0  0  0  0  0
   36.1310   31.7930   38.5040 H   0  0  0  0  0  0  0  0  0  0  0  0
   37.2220   30.4080   38.4280 H   0  0  0  0  0  0  0  0  0  0  0  0
   38.0880   32.2810   39.1330 C   0  0  0  0  0  0  0  0  0  0  0  0
   39.2820   32.0150   38.7000 C   0  0  0  0  0  0  0  0  0  0  0  0
   40.3390   32.9410   38.8020 N   0  0  0  0  0  0  0  0  0  0  0  0
   41.4370   33.6110   38.1550 C   0  0  0  0  0  0  0  0  0  0  0  0
   42.2200   33.3330   37.2010 O   0  0  0  0  0  0  0  0  0  0  0  0
   41.1720   34.7240   39.1440 C   0  0  0  0  0  0  0  0  0  0  0  0
   40.6200   33.6670   40.0630 C   0  0  1  0  0  0  0  0  0  0  0  0
   39.0770   34.0450   40.8880 S   0  0  0  0  0  0  0  0  0  0  0  0
   37.7210   33.5620   39.7810 C   0  0  0  0  0  0  0  0  0  0  0  0
   42.1270   35.1820   39.4680 H   0  0  0  0  0  0  0  0  0  0  0  0
   40.3950   35.3870   38.7650 H   0  0  0  0  0  0  0  0  0  0  0  0
   41.3830   33.1310   40.6510 H   0  0  0  0  0  0  0  0  0  0  0  0
   36.8240   33.5100   40.3940 H   0  0  0  0  0  0  0  0  0  0  0  0
   37.6390   34.3560   38.9950 H   0  0  0  0  0  0  0  0  0  0  0  0
   39.5490   30.7050   38.0820 C   0  0  0  0  0  0  0  0  0  0  0  0
   40.1480   29.7350   38.6500 O   0  0  0  0  0  0  0  0  0  0  0  0
   39.6440   29.6320   37.2610 O   0  0  0  0  0  0  0  0  0  0  0  0
   39.0890   29.4250   36.4380 H   0  0  0  0  0  0  0  0  0  0  0  0
   36.4120   30.8130   40.6700 S   0  0  0  0  0  0  0  0  0  0  0  0
   39.5780   29.2310   42.6410 C   0  0  0  0  0  0  0  0  0  0  0  0
   38.6520   30.1780   42.1320 C   0  0  0  0  0  0  0  0  0  0  0  0
   37.5970   29.6630   41.3300 C   0  0  0  0  0  0  0  0  0  0  0  0
   37.5320   28.3290   41.0990 N   0  0  0  0  0  0  0  0  0  0  0  0
   38.4290   27.4800   41.6020 C   0  0  0  0  0  0  0  0  0  0  0  0
   39.4540   27.9120   42.3720 N   0  0  0  0  0  0  0  0  0  0  0  0
   40.4030   29.5480   43.2570 H   0  0  0  0  0  0  0  0  0  0  0  0
   38.7770   31.2100   42.3630 H   0  0  0  0  0  0  0  0  0  0  0  0
   40.1530   26.5460   39.4190 Cl  0  0  0  0  0  0  0  0  0  0  0  0
   39.0260   25.5180   40.2710 C   0  0  0  0  0  0  0  0  0  0  0  0
   38.2610   26.0700   41.2890 C   0  0  0  0  0  0  0  0  0  0  0  0
   37.3640   25.3230   41.9920 C   0  0  0  0  0  0  0  0  0  0  0  0
   36.7400   25.7120   42.8010 H   0  0  0  0  0  0  0  0  0  0  0  0
   37.2510   23.9930   41.6470 C   0  0  0  0  0  3  0  0  0  0  0  0
   37.9980   23.4300   40.6450 C   0  0  0  0  0  0  0  0  0  0  0  0
   37.8250   21.7510   40.2410 Cl  0  0  0  0  0  0  0  0  0  0  0  0
   38.9000   24.1990   39.9420 C   0  0  0  0  0  0  0  0  0  0  0  0
   39.5140   23.8340   39.1530 H   0  0  0  0  0  0  0  0  0  0  0  0
  1  4  1  0  0  0  0
  1 22  1  0  0  0  0
  2  1  1  0  0  0  0
  3  1  1  0  0  0  0
  4 12  1  0  0  0  0
  5  6  1  0  0  0  0
  5  4  2  0  0  0  0
  6 10  1  0  0  0  0
  7  6  1  0  0  0  0
  7  9  1  0  0  0  0
  8  7  2  0  0  0  0
  9 13  1  0  0  0  0
  9 10  1  0  0  0  0
 10 15  1  1  0  0  0
 10 11  1  0  0  0  0
 12 16  1  0  0  0  0
 12 11  1  0  0  0  0
 14  9  1  0  0  0  0
 17 12  1  0  0  0  0
 18 19  2  0  0  0  0
 18  5  1  0  0  0  0
 20 18  1  0  0  0  0
 21 20  1  0  0  0  0
 22 25  1  0  0  0  0
 23 29  1  0  0  0  0
 24 30  1  0  0  0  0
 24 23  2  0  0  0  0
 25 24  1  0  0  0  0
 26 25  2  0  0  0  0
 26 27  1  0  0  0  0
 27 28  2  0  0  0  0
 28 23  1  0  0  0  0
 31 32  1  0  0  0  0
 32 33  1  0  0  0  0
 33 27  1  0  0  0  0
 33 34  2  0  0  0  0
 34 35  1  0  0  0  0
 36 34  1  0  0  0  0
 37 36  2  0  0  0  0
 38 37  1  0  0  0  0
 39 32  2  0  0  0  0
 39 37  1  0  0  0  0
 40 39  1  0  0  0  0
M  END
>  <minimizedAffinity>
-6.03778505

$$$$

 OpenBabel03242511223D

 40 43  0  0  1  0  0  0  0  0999 V2000
   38.7800   29.8800   42.8750 C   0  0  0  0  0  0  0  0  0  0  0  0
   39.7080   29.6970   43.4890 H   0  0  0  0  0  0  0  0  0  0  0  0
   38.4150   30.8570   43.1820 H   0  0  0  0  0  0  0  0  0  0  0  0
   39.0830   29.6820   41.4710 C   0  0  0  0  0  0  0  0  0  0  0  0
   38.2480   30.0600   40.5530 C   0  0  0  0  0  0  0  0  0  0  0  0
   38.5180   29.8930   39.1800 N   0  0  0  0  0  0  0  0  0  0  0  0
   38.5370   30.4750   37.8640 C   0  0  0  0  0  0  0  0  0  0  0  0
   37.8940   31.3950   37.2810 O   0  0  0  0  0  0  0  0  0  0  0  0
   39.6420   29.4820   37.5820 C   0  0  0  0  0  0  0  0  0  0  0  0
   39.0160   28.6080   38.6360 C   0  0  1  0  0  0  0  0  0  0  0  0
   40.1280   27.8530   39.8180 S   0  0  0  0  0  0  0  0  0  0  0  0
   40.3810   29.0310   41.1760 C   0  0  0  0  0  0  0  0  0  0  0  0
   39.5610   29.1040   36.5430 H   0  0  0  0  0  0  0  0  0  0  0  0
   40.6030   29.8880   37.9000 H   0  0  0  0  0  0  0  0  0  0  0  0
   38.1750   27.9930   38.2760 H   0  0  0  0  0  0  0  0  0  0  0  0
   40.7940   28.4630   42.0070 H   0  0  0  0  0  0  0  0  0  0  0  0
   41.1000   29.8070   40.8080 H   0  0  0  0  0  0  0  0  0  0  0  0
   36.9760   30.6870   40.9510 C   0  0  0  0  0  0  0  0  0  0  0  0
   36.6320   31.8830   40.6820 O   0  0  0  0  0  0  0  0  0  0  0  0
   35.7490   30.9740   41.4480 O   0  0  0  0  0  0  0  0  0  0  0  0
   35.0190   30.3260   41.7220 H   0  0  0  0  0  0  0  0  0  0  0  0
   37.5790   28.6030   43.4470 S   0  0  0  0  0  0  0  0  0  0  0  0
   39.9470   25.3170   43.4660 C   0  0  0  0  0  0  0  0  0  0  0  0
   39.4120   26.5850   43.8070 C   0  0  0  0  0  0  0  0  0  0  0  0
   38.2850   27.0190   43.0550 C   0  0  0  0  0  0  0  0  0  0  0  0
   37.7930   26.2180   42.0790 N   0  0  0  0  0  0  0  0  0  0  0  0
   38.3340   25.0320   41.7970 C   0  0  0  0  0  0  0  0  0  0  0  0
   39.4070   24.5680   42.4790 N   0  0  0  0  0  0  0  0  0  0  0  0
   40.8000   24.9230   43.9930 H   0  0  0  0  0  0  0  0  0  0  0  0
   39.8590   27.1510   44.5900 H   0  0  0  0  0  0  0  0  0  0  0  0
   40.2010   24.3210   39.6480 Cl  0  0  0  0  0  0  0  0  0  0  0  0
   38.5140   23.8650   39.6570 C   0  0  0  0  0  0  0  0  0  0  0  0
   37.7240   24.2580   40.7280 C   0  0  0  0  0  0  0  0  0  0  0  0
   36.4020   23.9350   40.7960 C   0  0  0  0  0  0  0  0  0  0  0  0
   35.7410   24.2210   41.6180 H   0  0  0  0  0  0  0  0  0  0  0  0
   35.8840   23.2000   39.7510 C   0  0  0  0  0  3  0  0  0  0  0  0
   36.6480   22.8030   38.6850 C   0  0  0  0  0  0  0  0  0  0  0  0
   35.9560   21.8780   37.3890 Cl  0  0  0  0  0  0  0  0  0  0  0  0
   37.9830   23.1380   38.6310 C   0  0  0  0  0  0  0  0  0  0  0  0
   38.6390   22.8660   37.8370 H   0  0  0  0  0  0  0  0  0  0  0  0
  1  3  1  0  0  0  0
  1 22  1  0  0  0  0
  1  2  1  0  0  0  0
  4  1  1  0  0  0  0
  5 18  1  0  0  0  0
  5  4  2  0  0  0  0
  6  5  1  0  0  0  0
  7  6  1  0  0  0  0
  8  7  2  0  0  0  0
  9  7  1  0  0  0  0
  9 14  1  0  0  0  0
  9 10  1  0  0  0  0
 10 15  1  6  0  0  0
 10  6  1  0  0  0  0
 10 11  1  0  0  0  0
 11 12  1  0  0  0  0
 12  4  1  0  0  0  0
 12 16  1  0  0  0  0
 13  9  1  0  0  0  0
 17 12  1  0  0  0  0
 18 20  1  0  0  0  0
 19 18  2  0  0  0  0
 20 21  1  0  0  0  0
 23 24  1  0  0  0  0
 23 29  1  0  0  0  0
 24 30  1  0  0  0  0
 25 22  1  0  0  0  0
 25 24  2  0  0  0  0
 26 25  1  0  0  0  0
 27 26  2  0  0  0  0
 27 28  1  0  0  0  0
 28 23  2  0  0  0  0
 31 32  1  0  0  0  0
 32 33  1  0  0  0  0
 33 34  2  0  0  0  0
 33 27  1  0  0  0  0
 34 35  1  0  0  0  0
 36 34  1  0  0  0  0
 37 36  2  0  0  0  0
 38 37  1  0  0  0  0
 39 37  1  0  0  0  0
 39 32  2  0  0  0  0
 40 39  1  0  0  0  0
M  END
>  <minimizedAffinity>
-5.99868393

$$$$

 OpenBabel03242511223D

 40 43  0  0  1  0  0  0  0  0999 V2000
   37.9830   29.1070   42.9280 C   0  0  0  0  0  0  0  0  0  0  0  0
   38.0400   29.2920   44.0390 H   0  0  0  0  0  0  0  0  0  0  0  0
   36.9220   29.0920   42.6880 H   0  0  0  0  0  0  0  0  0  0  0  0
   38.8180   30.0700   42.2360 C   0  0  0  0  0  0  0  0  0  0  0  0
   38.2980   30.9280   41.4130 C   0  0  0  0  0  0  0  0  0  0  0  0
   39.0800   31.8840   40.7350 N   0  0  0  0  0  0  0  0  0  0  0  0
   39.2520   33.2580   40.3410 C   0  0  0  0  0  0  0  0  0  0  0  0
   38.4760   34.2320   40.1200 O   0  0  0  0  0  0  0  0  0  0  0  0
   40.7300   32.9350   40.3340 C   0  0  0  0  0  0  0  0  0  0  0  0
   40.3360   31.5120   40.0420 C   0  0  1  0  0  0  0  0  0  0  0  0
   41.1760   30.2370   40.9770 S   0  0  0  0  0  0  0  0  0  0  0  0
   40.2680   29.9980   42.5320 C   0  0  0  0  0  0  0  0  0  0  0  0
   41.2340   33.4680   39.5040 H   0  0  0  0  0  0  0  0  0  0  0  0
   41.1450   33.0510   41.3360 H   0  0  0  0  0  0  0  0  0  0  0  0
   40.1390   31.3040   38.9770 H   0  0  0  0  0  0  0  0  0  0  0  0
   40.5930   29.0430   42.9370 H   0  0  0  0  0  0  0  0  0  0  0  0
   40.5430   30.8490   43.2070 H   0  0  0  0  0  0  0  0  0  0  0  0
   36.8440   30.9100   41.1770 C   0  0  0  0  0  0  0  0  0  0  0  0
   36.2830   31.0920   40.0480 O   0  0  0  0  0  0  0  0  0  0  0  0
   35.4960   30.8330   41.2750 O   0  0  0  0  0  0  0  0  0  0  0  0
   34.9470   30.3960   42.0080 H   0  0  0  0  0  0  0  0  0  0  0  0
   38.6580   27.4070   42.6970 S   0  0  0  0  0  0  0  0  0  0  0  0
   36.6190   24.7860   40.3770 C   0  0  0  0  0  0  0  0  0  0  0  0
   37.3270   25.3330   41.4780 C   0  0  0  0  0  0  0  0  0  0  0  0
   37.7660   26.6790   41.3420 C   0  0  0  0  0  0  0  0  0  0  0  0
   37.4930   27.3510   40.1980 N   0  0  0  0  0  0  0  0  0  0  0  0
   36.8220   26.7900   39.1900 C   0  0  0  0  0  0  0  0  0  0  0  0
   36.3800   25.5140   39.2630 N   0  0  0  0  0  0  0  0  0  0  0  0
   36.2550   23.7730   40.4090 H   0  0  0  0  0  0  0  0  0  0  0  0
   37.4980   24.7340   42.3410 H   0  0  0  0  0  0  0  0  0  0  0  0
   38.9240   26.5520   37.1570 Cl  0  0  0  0  0  0  0  0  0  0  0  0
   37.5160   27.5740   36.9810 C   0  0  0  0  0  0  0  0  0  0  0  0
   36.5860   27.6060   38.0100 C   0  0  0  0  0  0  0  0  0  0  0  0
   35.4680   28.3820   37.9360 C   0  0  0  0  0  0  0  0  0  0  0  0
   34.7080   28.4400   38.7200 H   0  0  0  0  0  0  0  0  0  0  0  0
   35.3020   29.1320   36.7920 C   0  0  0  0  0  3  0  0  0  0  0  0
   36.2100   29.1130   35.7650 C   0  0  0  0  0  0  0  0  0  0  0  0
   35.9640   30.0730   34.3400 Cl  0  0  0  0  0  0  0  0  0  0  0  0
   37.3360   28.3240   35.8550 C   0  0  0  0  0  0  0  0  0  0  0  0
   38.0840   28.2570   35.1010 H   0  0  0  0  0  0  0  0  0  0  0  0
  1  2  1  0  0  0  0
  3  1  1  0  0  0  0
  4 12  1  0  0  0  0
  4  1  1  0  0  0  0
  5  4  2  0  0  0  0
  6  5  1  0  0  0  0
  7  6  1  0  0  0  0
  8  7  2  0  0  0  0
  9  7  1  0  0  0  0
  9 14  1  0  0  0  0
 10 15  1  6  0  0  0
 10  9  1  0  0  0  0
 10  6  1  0  0  0  0
 10 11  1  0  0  0  0
 11 12  1  0  0  0  0
 12 16  1  0  0  0  0
 12 17  1  0  0  0  0
 13  9  1  0  0  0  0
 18 20  1  0  0  0  0
 18  5  1  0  0  0  0
 19 18  2  0  0  0  0
 20 21  1  0  0  0  0
 22  1  1  0  0  0  0
 23 29  1  0  0  0  0
 23 24  1  0  0  0  0
 24 30  1  0  0  0  0
 25 24  2  0  0  0  0
 25 22  1  0  0  0  0
 26 25  1  0  0  0  0
 27 28  1  0  0  0  0
 27 26  2  0  0  0  0
 28 23  2  0  0  0  0
 32 31  1  0  0  0  0
 32 33  1  0  0  0  0
 33 27  1  0  0  0  0
 34 33  2  0  0  0  0
 34 35  1  0  0  0  0
 36 34  1  0  0  0  0
 37 39  1  0  0  0  0
 37 36  2  0  0  0  0
 38 37  1  0  0  0  0
 39 32  2  0  0  0  0
 40 39  1  0  0  0  0
M  END
>  <minimizedAffinity>
-5.91042137

$$$$

 OpenBabel03242511223D

 40 43  0  0  1  0  0  0  0  0999 V2000
   41.0880   31.1160   41.9840 C   0  0  0  0  0  0  0  0  0  0  0  0
   41.8820   31.4600   42.7060 H   0  0  0  0  0  0  0  0  0  0  0  0
   40.1380   31.3570   42.4560 H   0  0  0  0  0  0  0  0  0  0  0  0
   41.3520   31.6760   40.6730 C   0  0  0  0  0  0  0  0  0  0  0  0
   42.1400   32.6980   40.5350 C   0  0  0  0  0  0  0  0  0  0  0  0
   42.4260   33.2580   39.2740 N   0  0  0  0  0  0  0  0  0  0  0  0
   43.4210   33.7490   38.3580 C   0  0  0  0  0  0  0  0  0  0  0  0
   44.5670   34.2720   38.4750 O   0  0  0  0  0  0  0  0  0  0  0  0
   42.4450   33.3390   37.2790 C   0  0  0  0  0  0  0  0  0  0  0  0
   41.3550   33.5570   38.2940 C   0  0  1  0  0  0  0  0  0  0  0  0
   40.0870   32.2980   38.3950 S   0  0  0  0  0  0  0  0  0  0  0  0
   40.6700   31.0110   39.5370 C   0  0  0  0  0  0  0  0  0  0  0  0
   42.4690   34.0680   36.4440 H   0  0  0  0  0  0  0  0  0  0  0  0
   42.5760   32.2850   37.0340 H   0  0  0  0  0  0  0  0  0  0  0  0
   41.0280   34.6050   38.3930 H   0  0  0  0  0  0  0  0  0  0  0  0
   39.7970   30.4290   39.8200 H   0  0  0  0  0  0  0  0  0  0  0  0
   41.4170   30.3900   38.9790 H   0  0  0  0  0  0  0  0  0  0  0  0
   42.7590   33.2950   41.7300 C   0  0  0  0  0  0  0  0  0  0  0  0
   42.9820   34.5390   41.8950 O   0  0  0  0  0  0  0  0  0  0  0  0
   43.3380   33.5400   42.9300 O   0  0  0  0  0  0  0  0  0  0  0  0
   43.3410   32.9480   43.7530 H   0  0  0  0  0  0  0  0  0  0  0  0
   41.2630   29.2810   41.9310 S   0  0  0  0  0  0  0  0  0  0  0  0
   37.5050   28.7250   43.3380 C   0  0  0  0  0  0  0  0  0  0  0  0
   38.7850   29.2990   43.1220 C   0  0  0  0  0  0  0  0  0  0  0  0
   39.6480   28.6000   42.2340 C   0  0  0  0  0  0  0  0  0  0  0  0
   39.2150   27.4550   41.6550 N   0  0  0  0  0  0  0  0  0  0  0  0
   38.0010   26.9570   41.8920 C   0  0  0  0  0  0  0  0  0  0  0  0
   37.1360   27.5780   42.7270 N   0  0  0  0  0  0  0  0  0  0  0  0
   36.7970   29.2000   43.9980 H   0  0  0  0  0  0  0  0  0  0  0  0
   39.0440   30.2040   43.6180 H   0  0  0  0  0  0  0  0  0  0  0  0
   39.2620   24.5750   43.0510 Cl  0  0  0  0  0  0  0  0  0  0  0  0
   38.1820   24.5280   41.6780 C   0  0  0  0  0  0  0  0  0  0  0  0
   37.6430   25.7210   41.2150 C   0  0  0  0  0  0  0  0  0  0  0  0
   36.7950   25.7530   40.1500 C   0  0  0  0  0  0  0  0  0  0  0  0
   36.3450   26.6660   39.7490 H   0  0  0  0  0  0  0  0  0  0  0  0
   36.4950   24.5470   39.5520 C   0  0  0  0  0  3  0  0  0  0  0  0
   37.0170   23.3600   39.9950 C   0  0  0  0  0  0  0  0  0  0  0  0
   36.6150   21.8640   39.2140 Cl  0  0  0  0  0  0  0  0  0  0  0  0
   37.8740   23.3440   41.0730 C   0  0  0  0  0  0  0  0  0  0  0  0
   38.3190   22.4640   41.4740 H   0  0  0  0  0  0  0  0  0  0  0  0
  1  3  1  0  0  0  0
  1  2  1  0  0  0  0
  4  1  1  0  0  0  0
  5  4  2  0  0  0  0
  5 18  1  0  0  0  0
  6  5  1  0  0  0  0
  7  8  2  0  0  0  0
  7  6  1  0  0  0  0
  9 10  1  0  0  0  0
  9  7  1  0  0  0  0
 10 15  1  1  0  0  0
 10 11  1  0  0  0  0
 10  6  1  0  0  0  0
 11 12  1  0  0  0  0
 12 16  1  0  0  0  0
 12  4  1  0  0  0  0
 13  9  1  0  0  0  0
 14  9  1  0  0  0  0
 17 12  1  0  0  0  0
 18 19  2  0  0  0  0
 18 20  1  0  0  0  0
 20 21  1  0  0  0  0
 22  1  1  0  0  0  0
 22 25  1  0  0  0  0
 23 29  1  0  0  0  0
 24 23  1  0  0  0  0
 24 30  1  0  0  0  0
 25 24  2  0  0  0  0
 26 27  2  0  0  0  0
 26 25  1  0  0  0  0
 27 28  1  0  0  0  0
 28 23  2  0  0  0  0
 32 31  1  0  0  0  0
 33 32  1  0  0  0  0
 33 27  1  0  0  0  0
 34 33  2  0  0  0  0
 35 34  1  0  0  0  0
 36 37  2  0  0  0  0
 36 34  1  0  0  0  0
 37 39  1  0  0  0  0
 38 37  1  0  0  0  0
 39 40  1  0  0  0  0
 39 32  2  0  0  0  0
M  END
>  <minimizedAffinity>
-5.86712599

$$$$

 OpenBabel03242511223D

 40 43  0  0  1  0  0  0  0  0999 V2000
   37.2800   29.3650   42.4620 C   0  0  0  0  0  0  0  0  0  0  0  0
   36.5290   29.5440   43.2840 H   0  0  0  0  0  0  0  0  0  0  0  0
   37.9480   30.2220   42.4850 H   0  0  0  0  0  0  0  0  0  0  0  0
   37.8650   28.0480   42.6220 C   0  0  0  0  0  0  0  0  0  0  0  0
   39.1520   27.8940   42.6560 C   0  0  0  0  0  0  0  0  0  0  0  0
   39.7520   26.6300   42.8220 N   0  0  0  0  0  0  0  0  0  0  0  0
   40.7350   25.8290   43.5020 C   0  0  0  0  0  0  0  0  0  0  0  0
   41.8510   26.0550   44.0530 O   0  0  0  0  0  0  0  0  0  0  0  0
   39.7980   24.6750   43.2260 C   0  0  0  0  0  0  0  0  0  0  0  0
   39.3190   25.4540   42.0300 C   0  0  1  0  0  0  0  0  0  0  0  0
   37.5500   25.5270   41.7740 S   0  0  0  0  0  0  0  0  0  0  0  0
   36.9050   26.9250   42.7380 C   0  0  0  0  0  0  0  0  0  0  0  0
   40.3760   23.7580   42.9950 H   0  0  0  0  0  0  0  0  0  0  0  0
   39.0390   24.6110   44.0070 H   0  0  0  0  0  0  0  0  0  0  0  0
   39.9510   25.3430   41.1330 H   0  0  0  0  0  0  0  0  0  0  0  0
   35.9150   27.1420   42.3450 H   0  0  0  0  0  0  0  0  0  0  0  0
   36.8620   26.5940   43.8070 H   0  0  0  0  0  0  0  0  0  0  0  0
   40.0220   29.0740   42.5180 C   0  0  0  0  0  0  0  0  0  0  0  0
   41.1910   29.0690   42.0110 O   0  0  0  0  0  0  0  0  0  0  0  0
   40.5740   30.3120   42.5290 O   0  0  0  0  0  0  0  0  0  0  0  0
   40.1010   31.2050   42.6100 H   0  0  0  0  0  0  0  0  0  0  0  0
   36.2970   29.4340   40.9040 S   0  0  0  0  0  0  0  0  0  0  0  0
   37.5850   31.1760   37.4810 C   0  0  0  0  0  0  0  0  0  0  0  0
   36.7960   30.4220   38.3870 C   0  0  0  0  0  0  0  0  0  0  0  0
   37.2550   30.3670   39.7320 C   0  0  0  0  0  0  0  0  0  0  0  0
   38.3920   31.0210   40.0690 N   0  0  0  0  0  0  0  0  0  0  0  0
   39.0990   31.7170   39.1780 C   0  0  0  0  0  0  0  0  0  0  0  0
   38.7110   31.8050   37.8850 N   0  0  0  0  0  0  0  0  0  0  0  0
   37.2980   31.2630   36.4460 H   0  0  0  0  0  0  0  0  0  0  0  0
   35.9140   29.9390   38.0380 H   0  0  0  0  0  0  0  0  0  0  0  0
   38.6340   34.4410   40.1640 Cl  0  0  0  0  0  0  0  0  0  0  0  0
   40.2040   33.6730   40.1420 C   0  0  0  0  0  0  0  0  0  0  0  0
   40.3040   32.3790   39.6520 C   0  0  0  0  0  0  0  0  0  0  0  0
   41.4980   31.7240   39.6080 C   0  0  0  0  0  0  0  0  0  0  0  0
   41.6270   30.7060   39.2310 H   0  0  0  0  0  0  0  0  0  0  0  0
   42.6030   32.4060   40.0720 C   0  0  0  0  0  3  0  0  0  0  0  0
   42.5230   33.6840   40.5600 C   0  0  0  0  0  0  0  0  0  0  0  0
   43.9390   34.5080   41.1350 Cl  0  0  0  0  0  0  0  0  0  0  0  0
   41.3090   34.3330   40.5980 C   0  0  0  0  0  0  0  0  0  0  0  0
   41.1680   35.3240   40.9610 H   0  0  0  0  0  0  0  0  0  0  0  0
  1  3  1  0  0  0  0
  1  4  1  0  0  0  0
  1  2  1  0  0  0  0
  4  5  2  0  0  0  0
  4 12  1  0  0  0  0
  5  6  1  0  0  0  0
  6  7  1  0  0  0  0
  7  8  2  0  0  0  0
  9  7  1  0  0  0  0
  9 14  1  0  0  0  0
 10 15  1  6  0  0  0
 10  6  1  0  0  0  0
 10  9  1  0  0  0  0
 11 10  1  0  0  0  0
 11 12  1  0  0  0  0
 12 17  1  0  0  0  0
 13  9  1  0  0  0  0
 16 12  1  0  0  0  0
 18 20  1  0  0  0  0
 18  5  1  0  0  0  0
 19 18  2  0  0  0  0
 20 21  1  0  0  0  0
 22  1  1  0  0  0  0
 23 28  2  0  0  0  0
 23 24  1  0  0  0  0
 24 25  2  0  0  0  0
 25 26  1  0  0  0  0
 25 22  1  0  0  0  0
 27 33  1  0  0  0  0
 27 26  2  0  0  0  0
 28 27  1  0  0  0  0
 29 23  1  0  0  0  0
 30 24  1  0  0  0  0
 32 31  1  0  0  0  0
 32 39  1  0  0  0  0
 33 32  2  0  0  0  0
 34 33  1  0  0  0  0
 34 36  2  0  0  0  0
 35 34  1  0  0  0  0
 36 37  1  0  0  0  0
 37 39  2  0  0  0  0
 37 38  1  0  0  0  0
 39 40  1  0  0  0  0
M  END
>  <minimizedAffinity>
-5.7969923

$$$$
