
     RDKit          3D

 33 35  0  0  0  0  0  0  0  0999 V2000
   44.5831   35.9855   44.4503 C   0  0  0  0  0  0  0  0  0  0  0  0
   45.3940   35.5159   43.3808 C   0  0  0  0  0  0  0  0  0  0  0  0
   46.1367   34.3882   43.6024 C   0  0  0  0  0  0  0  0  0  0  0  0
   46.0664   33.7731   44.8164 N   0  0  0  0  0  0  0  0  0  0  0  0
   45.3067   34.2221   45.8005 C   0  0  0  0  0  0  0  0  0  0  0  0
   44.5664   35.3206   45.6291 N   0  0  0  0  0  0  0  0  0  0  0  0
   47.0357   33.8947   42.5187 C   0  0  0  0  0  0  0  0  0  0  0  0
   47.3519   35.0655   41.5947 C   0  0  0  0  0  0  0  0  0  0  0  0
   48.8326   35.0183   41.3670 C   0  0  1  0  0  0  0  0  0  0  0  0
   49.7130   35.0617   42.5670 C   0  0  0  0  0  0  0  0  0  0  0  0
   49.5353   33.8084   41.7802 C   0  0  2  0  0  0  0  0  0  0  0  0
   43.9609   36.8671   44.3771 H   0  0  0  0  0  0  0  0  0  0  0  0
   45.2942   36.1352   42.5100 H   0  0  0  0  0  0  0  0  0  0  0  0
   45.3672   33.6196   46.6917 H   0  0  0  0  0  0  0  0  0  0  0  0
   46.7109   32.9943   42.0214 H   0  0  0  0  0  0  0  0  0  0  0  0
   47.9422   33.7707   43.1886 H   0  0  0  0  0  0  0  0  0  0  0  0
   46.7637   35.0822   40.6787 H   0  0  0  0  0  0  0  0  0  0  0  0
   47.1971   36.0308   42.1742 H   0  0  0  0  0  0  0  0  0  0  0  0
   49.1222   35.5776   40.4351 H   0  0  0  0  0  0  0  0  0  0  0  0
   49.3192   35.1923   43.5963 H   0  0  0  0  0  0  0  0  0  0  0  0
   50.5827   35.7331   42.4239 H   0  0  0  0  0  0  0  0  0  0  0  0
   49.1916   32.8450   42.0882 H   0  0  0  0  0  0  0  0  0  0  0  0
   49.4714   34.2328   38.6763 Cl  0  0  0  0  0  0  0  0  0  0  0  0
   50.8453   33.6480   39.5860 C   0  0  0  0  0  0  0  0  0  0  0  0
   50.7477   33.5269   40.9518 C   0  0  0  0  0  0  0  0  0  0  0  0
   51.7909   33.0929   41.7395 C   0  0  0  0  0  0  0  0  0  0  0  0
   51.8004   32.9701   42.8101 H   0  0  0  0  0  0  0  0  0  0  0  0
   53.0165   32.7509   41.1633 C   0  0  0  0  0  0  0  0  0  0  0  0
   53.1298   32.8682   39.7787 C   0  0  0  0  0  0  0  0  0  0  0  0
   54.5769   32.4921   38.8459 Cl  0  0  0  0  0  0  0  0  0  0  0  0
   52.0581   33.3084   39.0229 C   0  0  0  0  0  0  0  0  0  0  0  0
   52.1015   33.4164   37.9281 H   0  0  0  0  0  0  0  0  0  0  0  0
   53.8896   32.4055   41.6635 H   0  0  0  0  0  0  0  0  0  0  0  0
  1  6  2  0
  2  3  2  0
  2  1  1  0
  3  4  1  0
  4  5  2  0
  6  5  1  0
  7  3  1  0
  8  7  1  0
  9  8  1  0
  9 11  1  0
  9 10  1  0
 11 10  1  0
  1 12  1  0
  2 13  1  0
  5 14  1  0
  7 15  1  0
  7 16  1  0
  8 17  1  0
  8 18  1  0
  9 19  1  6
 10 20  1  0
 10 21  1  0
 11 22  1  1
 23 24  1  0
 24 25  2  0
 25 26  1  0
 26 27  1  0
 26 28  2  0
 28 29  1  0
 29 30  1  0
 29 31  2  0
 31 32  1  0
 31 24  1  0
 28 33  1  0
 11 25  1  0
M  ISO  8  12  14  13  14  14  14  15   8  16   8  17   8  18   8  19  13
M  ISO  5  20  13  21  13  22  13  27  16  32  15
M  END
>  <DihAtoms>  (1) 
8,10,24,23

>  <DihDeg>  (1) 
107.88981965478949

$$$$
