
 OpenBabel03252502453D

 32 34  0  0  1  0  0  0  0  0999 V2000
   36.8950   28.2780   42.1560 C   0  0  1  0  0  0  0  0  0  0  0  0
   36.4040   27.4640   43.3020 C   0  0  0  0  0  0  0  0  0  0  0  0
   37.0700   26.8310   42.1280 C   0  0  2  0  0  0  0  0  0  0  0  0
   37.7680   28.9750   42.2930 H   0  0  0  0  0  0  0  0  0  0  0  0
   35.3250   27.3350   43.5280 H   0  0  0  0  0  0  0  0  0  0  0  0
   36.9470   27.6910   44.2400 H   0  0  0  0  0  0  0  0  0  0  0  0
   36.7170   26.0750   41.4610 H   0  0  0  0  0  0  0  0  0  0  0  0
   37.9030   23.8170   41.9340 Cl  0  0  0  0  0  0  0  0  0  0  0  0
   38.9460   25.1200   42.4550 C   0  0  0  0  0  0  0  0  0  0  0  0
   38.4610   26.4050   42.4750 C   0  0  0  0  0  0  0  0  0  0  0  0
   39.2260   27.4860   42.8540 C   0  0  0  0  0  0  0  0  0  0  0  0
   38.9270   28.5200   42.8970 H   0  0  0  0  0  0  0  0  0  0  0  0
   40.5550   27.3090   43.2430 C   0  0  0  0  0  3  0  0  0  0  0  0
   41.0610   26.0100   43.2290 C   0  0  0  0  0  0  0  0  0  0  0  0
   42.7030   25.5570   43.6780 Cl  0  0  0  0  0  0  0  0  0  0  0  0
   40.2600   24.9510   42.8410 C   0  0  0  0  0  0  0  0  0  0  0  0
   40.6150   23.9080   42.8140 H   0  0  0  0  0  0  0  0  0  0  0  0
   35.8670   28.8650   41.2360 C   0  0  0  0  0  0  0  0  0  0  0  0
   34.8400   28.6670   41.5370 H   0  0  0  0  0  0  0  0  0  0  0  0
   36.0830   28.3710   40.2370 H   0  0  0  0  0  0  0  0  0  0  0  0
   36.2090   30.3470   41.1230 C   0  0  0  0  0  0  0  0  0  0  0  0
   35.4730   31.0190   41.5380 H   0  0  0  0  0  0  0  0  0  0  0  0
   37.2540   30.4610   41.5470 H   0  0  0  0  0  0  0  0  0  0  0  0
   36.7250   29.9840   37.4190 C   0  0  0  0  0  0  0  0  0  0  0  0
   36.2900   29.7110   38.7450 C   0  0  0  0  0  0  0  0  0  0  0  0
   36.6070   30.6250   39.7130 C   0  0  0  0  0  0  0  0  0  0  0  0
   37.3110   31.7400   39.3690 N   0  0  0  0  0  0  0  0  0  0  0  0
   37.7080   31.9790   38.1320 C   0  0  0  0  0  0  0  0  0  0  0  0
   37.4220   31.1130   37.1550 N   0  0  0  0  0  0  0  0  0  0  0  0
   36.5270   29.3250   36.5850 H   0  0  0  0  0  0  0  0  0  0  0  0
   35.7400   28.7910   38.7970 H   0  0  0  0  0  0  0  0  0  0  0  0
   38.2540   32.9040   38.0320 H   0  0  0  0  0  0  0  0  0  0  0  0
  1  4  1  1  0  0  0
  1  2  1  0  0  0  0
  2  5  1  0  0  0  0
  2  6  1  0  0  0  0
  3  7  1  6  0  0  0
  3  1  1  0  0  0  0
  3 10  1  0  0  0  0
  3  2  1  0  0  0  0
  8  9  1  0  0  0  0
  9 10  2  0  0  0  0
  9 16  1  0  0  0  0
 10 11  1  0  0  0  0
 11 12  1  0  0  0  0
 11 13  2  0  0  0  0
 14 13  1  0  0  0  0
 14 15  1  0  0  0  0
 16 14  2  0  0  0  0
 17 16  1  0  0  0  0
 18 19  1  0  0  0  0
 18  1  1  0  0  0  0
 20 18  1  0  0  0  0
 21 18  1  0  0  0  0
 21 22  1  0  0  0  0
 21 23  1  0  0  0  0
 24 25  1  0  0  0  0
 25 31  1  0  0  0  0
 25 26  2  0  0  0  0
 26 21  1  0  0  0  0
 27 26  1  0  0  0  0
 28 27  2  0  0  0  0
 29 24  2  0  0  0  0
 29 28  1  0  0  0  0
 30 24  1  0  0  0  0
 32 28  1  0  0  0  0
M  END
>  <minimizedAffinity>
-5.28100443

$$$$

 OpenBabel03252502453D

 32 34  0  0  1  0  0  0  0  0999 V2000
   37.8660   27.7910   43.0210 C   0  0  1  0  0  0  0  0  0  0  0  0
   36.4420   27.4430   43.2850 C   0  0  0  0  0  0  0  0  0  0  0  0
   36.9850   27.4960   41.8970 C   0  0  2  0  0  0  0  0  0  0  0  0
   38.6850   27.0840   43.3290 H   0  0  0  0  0  0  0  0  0  0  0  0
   35.7080   28.1770   43.6770 H   0  0  0  0  0  0  0  0  0  0  0  0
   36.3400   26.4930   43.8460 H   0  0  0  0  0  0  0  0  0  0  0  0
   36.6700   28.0750   41.0570 H   0  0  0  0  0  0  0  0  0  0  0  0
   36.0060   26.7810   39.0080 Cl  0  0  0  0  0  0  0  0  0  0  0  0
   36.7750   25.6680   40.1170 C   0  0  0  0  0  0  0  0  0  0  0  0
   37.1770   26.1170   41.3520 C   0  0  0  0  0  0  0  0  0  0  0  0
   37.8060   25.3080   42.2710 C   0  0  0  0  0  0  0  0  0  0  0  0
   38.1530   25.5760   43.2550 H   0  0  0  0  0  0  0  0  0  0  0  0
   38.0640   23.9680   41.9740 C   0  0  0  0  0  3  0  0  0  0  0  0
   37.6610   23.4980   40.7240 C   0  0  0  0  0  0  0  0  0  0  0  0
   37.8860   21.8510   40.1410 Cl  0  0  0  0  0  0  0  0  0  0  0  0
   37.0320   24.3440   39.8280 C   0  0  0  0  0  0  0  0  0  0  0  0
   36.6970   24.0180   38.8310 H   0  0  0  0  0  0  0  0  0  0  0  0
   38.2750   29.2190   43.2190 C   0  0  0  0  0  0  0  0  0  0  0  0
   38.6960   29.4270   44.2010 H   0  0  0  0  0  0  0  0  0  0  0  0
   37.3100   29.8010   43.0770 H   0  0  0  0  0  0  0  0  0  0  0  0
   39.2090   29.5480   42.0580 C   0  0  0  0  0  0  0  0  0  0  0  0
   40.2620   29.4930   42.2890 H   0  0  0  0  0  0  0  0  0  0  0  0
   38.8740   28.8960   41.1930 H   0  0  0  0  0  0  0  0  0  0  0  0
   37.1410   32.0910   40.2220 C   0  0  0  0  0  0  0  0  0  0  0  0
   37.5260   30.8690   40.8390 C   0  0  0  0  0  0  0  0  0  0  0  0
   38.7530   30.8280   41.4440 C   0  0  0  0  0  0  0  0  0  0  0  0
   39.5380   31.9420   41.4310 N   0  0  0  0  0  0  0  0  0  0  0  0
   39.1660   33.0700   40.8540 C   0  0  0  0  0  0  0  0  0  0  0  0
   37.9770   33.1560   40.2500 N   0  0  0  0  0  0  0  0  0  0  0  0
   36.1940   32.2260   39.7180 H   0  0  0  0  0  0  0  0  0  0  0  0
   36.7590   30.1240   40.7470 H   0  0  0  0  0  0  0  0  0  0  0  0
   39.9030   33.8520   40.9340 H   0  0  0  0  0  0  0  0  0  0  0  0
  1 18  1  0  0  0  0
  1  2  1  0  0  0  0
  1  4  1  1  0  0  0
  2  5  1  0  0  0  0
  2  6  1  0  0  0  0
  3  7  1  6  0  0  0
  3  1  1  0  0  0  0
  3  2  1  0  0  0  0
  8  9  1  0  0  0  0
  9 10  1  0  0  0  0
 10  3  1  0  0  0  0
 10 11  2  0  0  0  0
 11 12  1  0  0  0  0
 13 11  1  0  0  0  0
 14 13  2  0  0  0  0
 15 14  1  0  0  0  0
 16  9  2  0  0  0  0
 16 14  1  0  0  0  0
 17 16  1  0  0  0  0
 18 19  1  0  0  0  0
 20 18  1  0  0  0  0
 21 22  1  0  0  0  0
 21 18  1  0  0  0  0
 23 21  1  0  0  0  0
 24 29  2  0  0  0  0
 24 25  1  0  0  0  0
 25 26  2  0  0  0  0
 26 21  1  0  0  0  0
 27 26  1  0  0  0  0
 28 32  1  0  0  0  0
 28 27  2  0  0  0  0
 29 28  1  0  0  0  0
 30 24  1  0  0  0  0
 31 25  1  0  0  0  0
M  END
>  <minimizedAffinity>
-5.27570772

$$$$

 OpenBabel03252502453D

 32 34  0  0  1  0  0  0  0  0999 V2000
   36.8690   27.9130   42.7650 C   0  0  1  0  0  0  0  0  0  0  0  0
   37.8790   28.6110   43.6060 C   0  0  0  0  0  0  0  0  0  0  0  0
   38.0390   28.5050   42.1270 C   0  0  2  0  0  0  0  0  0  0  0  0
   35.8410   28.3530   42.6360 H   0  0  0  0  0  0  0  0  0  0  0  0
   38.5340   28.0780   44.3250 H   0  0  0  0  0  0  0  0  0  0  0  0
   37.4650   29.5160   44.0930 H   0  0  0  0  0  0  0  0  0  0  0  0
   38.8340   28.0870   41.5490 H   0  0  0  0  0  0  0  0  0  0  0  0
   35.3080   28.9630   40.6620 Cl  0  0  0  0  0  0  0  0  0  0  0  0
   36.6010   30.1350   40.7750 C   0  0  0  0  0  0  0  0  0  0  0  0
   37.7440   29.8140   41.4680 C   0  0  0  0  0  0  0  0  0  0  0  0
   38.7960   30.6890   41.6180 C   0  0  0  0  0  0  0  0  0  0  0  0
   39.7230   30.5210   42.1420 H   0  0  0  0  0  0  0  0  0  0  0  0
   38.7390   31.9670   41.0570 C   0  0  0  0  0  3  0  0  0  0  0  0
   37.5860   32.3060   40.3500 C   0  0  0  0  0  0  0  0  0  0  0  0
   37.3000   33.8570   39.5640 Cl  0  0  0  0  0  0  0  0  0  0  0  0
   36.5500   31.3980   40.2230 C   0  0  0  0  0  0  0  0  0  0  0  0
   35.6210   31.6220   39.6750 H   0  0  0  0  0  0  0  0  0  0  0  0
   36.8140   26.4170   42.8500 C   0  0  0  0  0  0  0  0  0  0  0  0
   35.8070   26.0070   42.7920 H   0  0  0  0  0  0  0  0  0  0  0  0
   37.2710   26.1860   43.8650 H   0  0  0  0  0  0  0  0  0  0  0  0
   37.7600   25.9050   41.7700 C   0  0  0  0  0  0  0  0  0  0  0  0
   38.5130   26.6090   41.4490 H   0  0  0  0  0  0  0  0  0  0  0  0
   38.1620   24.9150   42.1490 H   0  0  0  0  0  0  0  0  0  0  0  0
   35.7040   23.4790   39.7680 C   0  0  0  0  0  0  0  0  0  0  0  0
   36.4450   24.0390   40.8450 C   0  0  0  0  0  0  0  0  0  0  0  0
   36.9380   25.3050   40.6800 C   0  0  0  0  0  0  0  0  0  0  0  0
   36.6990   25.9640   39.5110 N   0  0  0  0  0  0  0  0  0  0  0  0
   36.0090   25.4290   38.5190 C   0  0  0  0  0  0  0  0  0  0  0  0
   35.5100   24.1950   38.6360 N   0  0  0  0  0  0  0  0  0  0  0  0
   35.2750   22.4870   39.7990 H   0  0  0  0  0  0  0  0  0  0  0  0
   36.5040   23.3620   41.6760 H   0  0  0  0  0  0  0  0  0  0  0  0
   35.9130   26.0830   37.6670 H   0  0  0  0  0  0  0  0  0  0  0  0
  1  4  1  6  0  0  0
  1 18  1  0  0  0  0
  1  2  1  0  0  0  0
  2  6  1  0  0  0  0
  2  5  1  0  0  0  0
  3  7  1  6  0  0  0
  3  1  1  0  0  0  0
  3  2  1  0  0  0  0
  8  9  1  0  0  0  0
  9 10  1  0  0  0  0
 10 11  2  0  0  0  0
 10  3  1  0  0  0  0
 11 12  1  0  0  0  0
 13 11  1  0  0  0  0
 14 13  2  0  0  0  0
 15 14  1  0  0  0  0
 16 14  1  0  0  0  0
 16  9  2  0  0  0  0
 17 16  1  0  0  0  0
 18 20  1  0  0  0  0
 19 18  1  0  0  0  0
 21 23  1  0  0  0  0
 21 18  1  0  0  0  0
 22 21  1  0  0  0  0
 24 30  1  0  0  0  0
 24 25  1  0  0  0  0
 25 31  1  0  0  0  0
 26 25  2  0  0  0  0
 26 21  1  0  0  0  0
 27 26  1  0  0  0  0
 28 29  1  0  0  0  0
 28 27  2  0  0  0  0
 29 24  2  0  0  0  0
 32 28  1  0  0  0  0
M  END
>  <minimizedAffinity>
-5.17237091

$$$$

 OpenBabel03252502453D

 32 34  0  0  1  0  0  0  0  0999 V2000
   36.9780   28.0520   42.5700 C   0  0  1  0  0  0  0  0  0  0  0  0
   37.6990   28.7340   43.6800 C   0  0  0  0  0  0  0  0  0  0  0  0
   38.2630   28.6870   42.3000 C   0  0  2  0  0  0  0  0  0  0  0  0
   36.0140   28.4800   42.1770 H   0  0  0  0  0  0  0  0  0  0  0  0
   38.1440   28.1840   44.5340 H   0  0  0  0  0  0  0  0  0  0  0  0
   37.1430   29.6130   44.0630 H   0  0  0  0  0  0  0  0  0  0  0  0
   39.1960   28.3050   41.9510 H   0  0  0  0  0  0  0  0  0  0  0  0
   40.5370   30.8290   42.5400 Cl  0  0  0  0  0  0  0  0  0  0  0  0
   39.0340   31.0470   41.6730 C   0  0  0  0  0  0  0  0  0  0  0  0
   38.1260   30.0160   41.6280 C   0  0  0  0  0  0  0  0  0  0  0  0
   36.9300   30.1030   40.9500 C   0  0  0  0  0  0  0  0  0  0  0  0
   36.1670   29.3480   40.8620 H   0  0  0  0  0  0  0  0  0  0  0  0
   36.5890   31.2730   40.2680 C   0  0  0  0  0  3  0  0  0  0  0  0
   37.5000   32.3280   40.3060 C   0  0  0  0  0  0  0  0  0  0  0  0
   37.2760   33.8890   39.5190 Cl  0  0  0  0  0  0  0  0  0  0  0  0
   38.6910   32.2000   40.9980 C   0  0  0  0  0  0  0  0  0  0  0  0
   39.4400   33.0050   41.0560 H   0  0  0  0  0  0  0  0  0  0  0  0
   36.9410   26.5540   42.5890 C   0  0  0  0  0  0  0  0  0  0  0  0
   36.3110   26.1170   41.8160 H   0  0  0  0  0  0  0  0  0  0  0  0
   36.5260   26.3040   43.6170 H   0  0  0  0  0  0  0  0  0  0  0  0
   38.3970   26.1020   42.5370 C   0  0  0  0  0  0  0  0  0  0  0  0
   39.1200   26.8990   42.4570 H   0  0  0  0  0  0  0  0  0  0  0  0
   38.5430   25.4110   43.4230 H   0  0  0  0  0  0  0  0  0  0  0  0
   37.8550   22.9100   40.6310 C   0  0  0  0  0  0  0  0  0  0  0  0
   37.6870   23.9380   41.5980 C   0  0  0  0  0  0  0  0  0  0  0  0
   38.5120   25.0270   41.5100 C   0  0  0  0  0  0  0  0  0  0  0  0
   39.4410   25.0780   40.5130 N   0  0  0  0  0  0  0  0  0  0  0  0
   39.5840   24.1140   39.6210 C   0  0  0  0  0  0  0  0  0  0  0  0
   38.8010   23.0320   39.6710 N   0  0  0  0  0  0  0  0  0  0  0  0
   37.2560   22.0100   40.6150 H   0  0  0  0  0  0  0  0  0  0  0  0
   36.8940   23.7080   42.2830 H   0  0  0  0  0  0  0  0  0  0  0  0
   40.3630   24.3110   38.9040 H   0  0  0  0  0  0  0  0  0  0  0  0
  1  4  1  6  0  0  0
  1 18  1  0  0  0  0
  1  2  1  0  0  0  0
  2  6  1  0  0  0  0
  2  5  1  0  0  0  0
  3  7  1  6  0  0  0
  3  1  1  0  0  0  0
  3  2  1  0  0  0  0
  9  8  1  0  0  0  0
 10  9  1  0  0  0  0
 10  3  1  0  0  0  0
 11 10  2  0  0  0  0
 12 11  1  0  0  0  0
 13 14  2  0  0  0  0
 13 11  1  0  0  0  0
 14 16  1  0  0  0  0
 15 14  1  0  0  0  0
 16 17  1  0  0  0  0
 16  9  2  0  0  0  0
 18 20  1  0  0  0  0
 19 18  1  0  0  0  0
 21 18  1  0  0  0  0
 21 23  1  0  0  0  0
 22 21  1  0  0  0  0
 24 25  1  0  0  0  0
 25 31  1  0  0  0  0
 26 25  2  0  0  0  0
 26 21  1  0  0  0  0
 27 26  1  0  0  0  0
 28 29  1  0  0  0  0
 28 27  2  0  0  0  0
 29 24  2  0  0  0  0
 30 24  1  0  0  0  0
 32 28  1  0  0  0  0
M  END
>  <minimizedAffinity>
-5.11293745

$$$$

 OpenBabel03252502453D

 32 34  0  0  1  0  0  0  0  0999 V2000
   37.2400   29.5790   39.8370 C   0  0  1  0  0  0  0  0  0  0  0  0
   37.6730   29.7490   41.2510 C   0  0  0  0  0  0  0  0  0  0  0  0
   36.5000   28.9000   40.8940 C   0  0  2  0  0  0  0  0  0  0  0  0
   37.8880   29.0120   39.1130 H   0  0  0  0  0  0  0  0  0  0  0  0
   37.5800   30.7110   41.7960 H   0  0  0  0  0  0  0  0  0  0  0  0
   38.6790   29.3230   41.4350 H   0  0  0  0  0  0  0  0  0  0  0  0
   35.4840   28.9590   41.2160 H   0  0  0  0  0  0  0  0  0  0  0  0
   36.4400   27.4650   43.6790 Cl  0  0  0  0  0  0  0  0  0  0  0  0
   36.8800   26.7090   42.1640 C   0  0  0  0  0  0  0  0  0  0  0  0
   36.8450   27.4490   41.0060 C   0  0  0  0  0  0  0  0  0  0  0  0
   37.1580   26.9210   39.7740 C   0  0  0  0  0  0  0  0  0  0  0  0
   37.1550   27.4250   38.8220 H   0  0  0  0  0  0  0  0  0  0  0  0
   37.5330   25.5810   39.6540 C   0  0  0  0  0  3  0  0  0  0  0  0
   37.5740   24.8190   40.8210 C   0  0  0  0  0  0  0  0  0  0  0  0
   38.0170   23.1150   40.9020 Cl  0  0  0  0  0  0  0  0  0  0  0  0
   37.2510   25.3870   42.0400 C   0  0  0  0  0  0  0  0  0  0  0  0
   37.2690   24.8240   42.9870 H   0  0  0  0  0  0  0  0  0  0  0  0
   36.5750   30.7480   39.1730 C   0  0  0  0  0  0  0  0  0  0  0  0
   36.1750   31.4820   39.8700 H   0  0  0  0  0  0  0  0  0  0  0  0
   35.7310   30.2770   38.5760 H   0  0  0  0  0  0  0  0  0  0  0  0
   37.6010   31.3090   38.1950 C   0  0  0  0  0  0  0  0  0  0  0  0
   38.1790   30.5680   37.6630 H   0  0  0  0  0  0  0  0  0  0  0  0
   37.0390   32.0410   37.5370 H   0  0  0  0  0  0  0  0  0  0  0  0
   38.5210   34.3050   40.2680 C   0  0  0  0  0  0  0  0  0  0  0  0
   37.7370   33.2980   39.6420 C   0  0  0  0  0  0  0  0  0  0  0  0
   38.3970   32.3520   38.9050 C   0  0  0  0  0  0  0  0  0  0  0  0
   39.7540   32.4150   38.8070 N   0  0  0  0  0  0  0  0  0  0  0  0
   40.4690   33.3580   39.3940 C   0  0  0  0  0  0  0  0  0  0  0  0
   39.8660   34.3020   40.1230 N   0  0  0  0  0  0  0  0  0  0  0  0
   38.0960   35.0960   40.8700 H   0  0  0  0  0  0  0  0  0  0  0  0
   36.6920   33.4220   39.8570 H   0  0  0  0  0  0  0  0  0  0  0  0
   41.5280   33.2630   39.2150 H   0  0  0  0  0  0  0  0  0  0  0  0
  1  4  1  6  0  0  0
  1  3  1  0  0  0  0
  1  2  1  0  0  0  0
  2  6  1  0  0  0  0
  2  5  1  0  0  0  0
  3 10  1  0  0  0  0
  3  7  1  1  0  0  0
  3  2  1  0  0  0  0
  9  8  1  0  0  0  0
 10  9  2  0  0  0  0
 11 10  1  0  0  0  0
 12 11  1  0  0  0  0
 13 11  2  0  0  0  0
 13 14  1  0  0  0  0
 14 15  1  0  0  0  0
 14 16  2  0  0  0  0
 16  9  1  0  0  0  0
 16 17  1  0  0  0  0
 18  1  1  0  0  0  0
 18 19  1  0  0  0  0
 20 18  1  0  0  0  0
 21 26  1  0  0  0  0
 21 18  1  0  0  0  0
 22 21  1  0  0  0  0
 23 21  1  0  0  0  0
 24 30  1  0  0  0  0
 25 31  1  0  0  0  0
 25 24  2  0  0  0  0
 26 25  1  0  0  0  0
 27 26  2  0  0  0  0
 27 28  1  0  0  0  0
 28 29  2  0  0  0  0
 29 24  1  0  0  0  0
 32 28  1  0  0  0  0
M  END
>  <minimizedAffinity>
-5.07029533

$$$$

 OpenBabel03252502453D

 32 34  0  0  1  0  0  0  0  0999 V2000
   37.3710   29.8720   41.8390 C   0  0  1  0  0  0  0  0  0  0  0  0
   37.8850   30.9480   40.9480 C   0  0  0  0  0  0  0  0  0  0  0  0
   37.7980   29.5330   40.4860 C   0  0  2  0  0  0  0  0  0  0  0  0
   36.2850   29.8560   42.1350 H   0  0  0  0  0  0  0  0  0  0  0  0
   38.8480   31.4680   41.1290 H   0  0  0  0  0  0  0  0  0  0  0  0
   37.1070   31.6990   40.7060 H   0  0  0  0  0  0  0  0  0  0  0  0
   38.5580   28.8830   40.1120 H   0  0  0  0  0  0  0  0  0  0  0  0
   38.2680   29.6250   37.3900 Cl  0  0  0  0  0  0  0  0  0  0  0  0
   36.7180   29.3970   38.1690 C   0  0  0  0  0  0  0  0  0  0  0  0
   36.6530   29.3540   39.5410 C   0  0  0  0  0  0  0  0  0  0  0  0
   35.4750   29.1590   40.2270 C   0  0  0  0  0  0  0  0  0  0  0  0
   35.3350   29.1120   41.2940 H   0  0  0  0  0  0  0  0  0  0  0  0
   34.2740   28.9930   39.5340 C   0  0  0  0  0  3  0  0  0  0  0  0
   34.3240   29.0340   38.1410 C   0  0  0  0  0  0  0  0  0  0  0  0
   32.9370   28.8480   37.0710 Cl  0  0  0  0  0  0  0  0  0  0  0  0
   35.5290   29.2320   37.4900 C   0  0  0  0  0  0  0  0  0  0  0  0
   35.6180   29.2720   36.3930 H   0  0  0  0  0  0  0  0  0  0  0  0
   38.2510   29.4320   42.9700 C   0  0  0  0  0  0  0  0  0  0  0  0
   38.5650   30.2420   43.6270 H   0  0  0  0  0  0  0  0  0  0  0  0
   39.1550   28.9800   42.4500 H   0  0  0  0  0  0  0  0  0  0  0  0
   37.4930   28.3130   43.6750 C   0  0  0  0  0  0  0  0  0  0  0  0
   37.3700   28.4450   44.7400 H   0  0  0  0  0  0  0  0  0  0  0  0
   36.5290   28.1740   43.0960 H   0  0  0  0  0  0  0  0  0  0  0  0
   37.9340   24.9250   42.1130 C   0  0  0  0  0  0  0  0  0  0  0  0
   37.3560   26.1770   42.4570 C   0  0  0  0  0  0  0  0  0  0  0  0
   38.0890   27.0120   43.2560 C   0  0  0  0  0  0  0  0  0  0  0  0
   39.3230   26.6150   43.6780 N   0  0  0  0  0  0  0  0  0  0  0  0
   39.8470   25.4470   43.3490 C   0  0  0  0  0  0  0  0  0  0  0  0
   39.1660   24.5990   42.5730 N   0  0  0  0  0  0  0  0  0  0  0  0
   37.4370   24.1950   41.4900 H   0  0  0  0  0  0  0  0  0  0  0  0
   36.3880   26.2990   42.0110 H   0  0  0  0  0  0  0  0  0  0  0  0
   40.8280   25.2890   43.7660 H   0  0  0  0  0  0  0  0  0  0  0  0
  1  4  1  1  0  0  0
  1 18  1  0  0  0  0
  2  5  1  0  0  0  0
  2  1  1  0  0  0  0
  3  7  1  6  0  0  0
  3  2  1  0  0  0  0
  3  1  1  0  0  0  0
  6  2  1  0  0  0  0
  8  9  1  0  0  0  0
  9 10  1  0  0  0  0
 10 11  2  0  0  0  0
 10  3  1  0  0  0  0
 11 12  1  0  0  0  0
 13 11  1  0  0  0  0
 14 13  2  0  0  0  0
 15 14  1  0  0  0  0
 16 14  1  0  0  0  0
 16  9  2  0  0  0  0
 17 16  1  0  0  0  0
 18 19  1  0  0  0  0
 18 21  1  0  0  0  0
 20 18  1  0  0  0  0
 21 22  1  0  0  0  0
 23 21  1  0  0  0  0
 24 25  2  0  0  0  0
 24 29  1  0  0  0  0
 25 26  1  0  0  0  0
 26 21  1  0  0  0  0
 26 27  2  0  0  0  0
 28 27  1  0  0  0  0
 28 32  1  0  0  0  0
 29 28  2  0  0  0  0
 30 24  1  0  0  0  0
 31 25  1  0  0  0  0
M  END
>  <minimizedAffinity>
-4.99909973

$$$$

 OpenBabel03252502453D

 32 34  0  0  1  0  0  0  0  0999 V2000
   36.8930   28.0720   42.7780 C   0  0  1  0  0  0  0  0  0  0  0  0
   37.8820   28.8110   43.6100 C   0  0  0  0  0  0  0  0  0  0  0  0
   38.0550   28.6730   42.1350 C   0  0  2  0  0  0  0  0  0  0  0  0
   35.8570   28.4870   42.6320 H   0  0  0  0  0  0  0  0  0  0  0  0
   38.5420   28.3080   44.3460 H   0  0  0  0  0  0  0  0  0  0  0  0
   37.4460   29.7170   44.0730 H   0  0  0  0  0  0  0  0  0  0  0  0
   38.8630   28.2590   41.5720 H   0  0  0  0  0  0  0  0  0  0  0  0
   35.3230   29.0430   40.6480 Cl  0  0  0  0  0  0  0  0  0  0  0  0
   36.5920   30.2430   40.7380 C   0  0  0  0  0  0  0  0  0  0  0  0
   37.7380   29.9610   41.4430 C   0  0  0  0  0  0  0  0  0  0  0  0
   38.7720   30.8590   41.5770 C   0  0  0  0  0  0  0  0  0  0  0  0
   39.6990   30.7220   42.1090 H   0  0  0  0  0  0  0  0  0  0  0  0
   38.6920   32.1220   40.9850 C   0  0  0  0  0  3  0  0  0  0  0  0
   37.5360   32.4220   40.2660 C   0  0  0  0  0  0  0  0  0  0  0  0
   37.2230   33.9480   39.4420 Cl  0  0  0  0  0  0  0  0  0  0  0  0
   36.5180   31.4910   40.1560 C   0  0  0  0  0  0  0  0  0  0  0  0
   35.5880   31.6840   39.5990 H   0  0  0  0  0  0  0  0  0  0  0  0
   36.8690   26.5780   42.8980 C   0  0  0  0  0  0  0  0  0  0  0  0
   35.9010   26.1730   43.1900 H   0  0  0  0  0  0  0  0  0  0  0  0
   37.6410   26.3570   43.7010 H   0  0  0  0  0  0  0  0  0  0  0  0
   37.3930   26.0460   41.5680 C   0  0  0  0  0  0  0  0  0  0  0  0
   36.7790   25.2880   41.1050 H   0  0  0  0  0  0  0  0  0  0  0  0
   37.5950   26.9570   40.9250 H   0  0  0  0  0  0  0  0  0  0  0  0
   41.0010   25.2890   40.8450 C   0  0  0  0  0  0  0  0  0  0  0  0
   39.6490   25.6810   40.6490 C   0  0  0  0  0  0  0  0  0  0  0  0
   38.8290   25.6870   41.7460 C   0  0  0  0  0  0  0  0  0  0  0  0
   39.3380   25.3250   42.9570 N   0  0  0  0  0  0  0  0  0  0  0  0
   40.5980   24.9630   43.1230 C   0  0  0  0  0  0  0  0  0  0  0  0
   41.4330   24.9420   42.0800 N   0  0  0  0  0  0  0  0  0  0  0  0
   41.7270   25.2510   40.0440 H   0  0  0  0  0  0  0  0  0  0  0  0
   39.4580   25.9400   39.6250 H   0  0  0  0  0  0  0  0  0  0  0  0
   40.8360   24.7080   44.1420 H   0  0  0  0  0  0  0  0  0  0  0  0
  1  4  1  6  0  0  0
  1 18  1  0  0  0  0
  1  2  1  0  0  0  0
  2  6  1  0  0  0  0
  2  5  1  0  0  0  0
  3  7  1  6  0  0  0
  3  1  1  0  0  0  0
  3  2  1  0  0  0  0
  8  9  1  0  0  0  0
  9 10  1  0  0  0  0
 10 11  2  0  0  0  0
 10  3  1  0  0  0  0
 11 12  1  0  0  0  0
 13 11  1  0  0  0  0
 14 13  2  0  0  0  0
 15 14  1  0  0  0  0
 16 14  1  0  0  0  0
 16  9  2  0  0  0  0
 17 16  1  0  0  0  0
 18 19  1  0  0  0  0
 18 20  1  0  0  0  0
 21 26  1  0  0  0  0
 21 18  1  0  0  0  0
 22 21  1  0  0  0  0
 23 21  1  0  0  0  0
 24 29  1  0  0  0  0
 25 24  2  0  0  0  0
 25 26  1  0  0  0  0
 26 27  2  0  0  0  0
 27 28  1  0  0  0  0
 28 32  1  0  0  0  0
 29 28  2  0  0  0  0
 30 24  1  0  0  0  0
 31 25  1  0  0  0  0
M  END
>  <minimizedAffinity>
-4.97688818

$$$$

 OpenBabel03252502453D

 32 34  0  0  1  0  0  0  0  0999 V2000
   34.1280   29.1530   37.1900 C   0  0  1  0  0  0  0  0  0  0  0  0
   34.0710   28.4750   35.8660 C   0  0  0  0  0  0  0  0  0  0  0  0
   32.8530   28.6320   36.7110 C   0  0  2  0  0  0  0  0  0  0  0  0
   34.3280   30.2580   37.2500 H   0  0  0  0  0  0  0  0  0  0  0  0
   34.5520   27.4940   35.6720 H   0  0  0  0  0  0  0  0  0  0  0  0
   34.3070   29.1660   35.0320 H   0  0  0  0  0  0  0  0  0  0  0  0
   32.1840   27.8940   37.0970 H   0  0  0  0  0  0  0  0  0  0  0  0
   30.7770   30.0780   38.5590 Cl  0  0  0  0  0  0  0  0  0  0  0  0
   30.9950   30.3880   36.8520 C   0  0  0  0  0  0  0  0  0  0  0  0
   31.9590   29.6960   36.1590 C   0  0  0  0  0  0  0  0  0  0  0  0
   32.2040   29.8970   34.8190 C   0  0  0  0  0  0  0  0  0  0  0  0
   32.9360   29.4030   34.2020 H   0  0  0  0  0  0  0  0  0  0  0  0
   31.4610   30.8350   34.0980 C   0  0  0  0  0  3  0  0  0  0  0  0
   30.4790   31.5440   34.7880 C   0  0  0  0  0  0  0  0  0  0  0  0
   29.4290   32.7690   34.0800 Cl  0  0  0  0  0  0  0  0  0  0  0  0
   30.2650   31.3120   36.1350 C   0  0  0  0  0  0  0  0  0  0  0  0
   29.5010   31.8480   36.7210 H   0  0  0  0  0  0  0  0  0  0  0  0
   34.7940   28.4170   38.3140 C   0  0  0  0  0  0  0  0  0  0  0  0
   35.8790   28.3770   38.2350 H   0  0  0  0  0  0  0  0  0  0  0  0
   34.3600   27.3690   38.2480 H   0  0  0  0  0  0  0  0  0  0  0  0
   34.2850   29.0670   39.5950 C   0  0  0  0  0  0  0  0  0  0  0  0
   33.5950   29.8860   39.4510 H   0  0  0  0  0  0  0  0  0  0  0  0
   33.8950   28.2220   40.2430 H   0  0  0  0  0  0  0  0  0  0  0  0
   37.2350   30.8110   41.1370 C   0  0  0  0  0  0  0  0  0  0  0  0
   36.0890   30.5750   40.3290 C   0  0  0  0  0  0  0  0  0  0  0  0
   35.4610   29.3670   40.4620 C   0  0  0  0  0  0  0  0  0  0  0  0
   35.9510   28.4580   41.3520 N   0  0  0  0  0  0  0  0  0  0  0  0
   37.0170   28.6910   42.0960 C   0  0  0  0  0  0  0  0  0  0  0  0
   37.6630   29.8570   41.9970 N   0  0  0  0  0  0  0  0  0  0  0  0
   37.8020   31.7310   41.1050 H   0  0  0  0  0  0  0  0  0  0  0  0
   35.8640   31.4220   39.7100 H   0  0  0  0  0  0  0  0  0  0  0  0
   37.2710   27.8690   42.7450 H   0  0  0  0  0  0  0  0  0  0  0  0
  1  4  1  6  0  0  0
  1 18  1  0  0  0  0
  2  3  1  0  0  0  0
  2  1  1  0  0  0  0
  3  7  1  1  0  0  0
  3  1  1  0  0  0  0
  5  2  1  0  0  0  0
  6  2  1  0  0  0  0
  9  8  1  0  0  0  0
 10  3  1  0  0  0  0
 10  9  1  0  0  0  0
 11 10  2  0  0  0  0
 12 11  1  0  0  0  0
 13 14  2  0  0  0  0
 13 11  1  0  0  0  0
 14 16  1  0  0  0  0
 15 14  1  0  0  0  0
 16 17  1  0  0  0  0
 16  9  2  0  0  0  0
 18 21  1  0  0  0  0
 19 18  1  0  0  0  0
 20 18  1  0  0  0  0
 21 23  1  0  0  0  0
 21 26  1  0  0  0  0
 22 21  1  0  0  0  0
 24 29  1  0  0  0  0
 25 26  1  0  0  0  0
 25 24  2  0  0  0  0
 26 27  2  0  0  0  0
 27 28  1  0  0  0  0
 28 32  1  0  0  0  0
 29 28  2  0  0  0  0
 30 24  1  0  0  0  0
 31 25  1  0  0  0  0
M  END
>  <minimizedAffinity>
-4.93702555

$$$$

 OpenBabel03252502453D

 32 34  0  0  1  0  0  0  0  0999 V2000
   36.5220   29.9580   41.0910 C   0  0  1  0  0  0  0  0  0  0  0  0
   35.4160   29.0400   40.7020 C   0  0  0  0  0  0  0  0  0  0  0  0
   36.8060   28.8380   40.2010 C   0  0  2  0  0  0  0  0  0  0  0  0
   36.8930   29.9770   42.1530 H   0  0  0  0  0  0  0  0  0  0  0  0
   34.5770   29.3540   40.0480 H   0  0  0  0  0  0  0  0  0  0  0  0
   35.0120   28.4810   41.5690 H   0  0  0  0  0  0  0  0  0  0  0  0
   37.1770   28.7870   39.2010 H   0  0  0  0  0  0  0  0  0  0  0  0
   36.3210   25.9010   39.2250 Cl  0  0  0  0  0  0  0  0  0  0  0  0
   37.3120   26.3590   40.5910 C   0  0  0  0  0  0  0  0  0  0  0  0
   37.4590   27.6890   40.9010 C   0  0  0  0  0  0  0  0  0  0  0  0
   38.2370   28.1300   41.9490 C   0  0  0  0  0  0  0  0  0  0  0  0
   38.4080   29.1470   42.2590 H   0  0  0  0  0  0  0  0  0  0  0  0
   38.9210   27.2160   42.7540 C   0  0  0  0  0  3  0  0  0  0  0  0
   38.7800   25.8620   42.4510 C   0  0  0  0  0  0  0  0  0  0  0  0
   39.5490   24.5430   43.3300 Cl  0  0  0  0  0  0  0  0  0  0  0  0
   37.9890   25.4610   41.3890 C   0  0  0  0  0  0  0  0  0  0  0  0
   37.8480   24.4040   41.1130 H   0  0  0  0  0  0  0  0  0  0  0  0
   36.5220   31.3320   40.4890 C   0  0  0  0  0  0  0  0  0  0  0  0
   36.7660   32.1230   41.1950 H   0  0  0  0  0  0  0  0  0  0  0  0
   35.4590   31.4620   40.1100 H   0  0  0  0  0  0  0  0  0  0  0  0
   37.4550   31.2580   39.2860 C   0  0  0  0  0  0  0  0  0  0  0  0
   37.8090   30.2680   39.0410 H   0  0  0  0  0  0  0  0  0  0  0  0
   36.9240   31.7980   38.4430 H   0  0  0  0  0  0  0  0  0  0  0  0
   39.2860   34.3480   40.3900 C   0  0  0  0  0  0  0  0  0  0  0  0
   38.2730   33.3560   40.2850 C   0  0  0  0  0  0  0  0  0  0  0  0
   38.5160   32.2930   39.4580 C   0  0  0  0  0  0  0  0  0  0  0  0
   39.6990   32.2310   38.7850 N   0  0  0  0  0  0  0  0  0  0  0  0
   40.6310   33.1610   38.8940 C   0  0  0  0  0  0  0  0  0  0  0  0
   40.4360   34.2180   39.6890 N   0  0  0  0  0  0  0  0  0  0  0  0
   39.1910   35.2260   41.0150 H   0  0  0  0  0  0  0  0  0  0  0  0
   37.4290   33.5880   40.9060 H   0  0  0  0  0  0  0  0  0  0  0  0
   41.5050   32.9600   38.2950 H   0  0  0  0  0  0  0  0  0  0  0  0
  1  4  1  1  0  0  0
  2  1  1  0  0  0  0
  2  6  1  0  0  0  0
  3  7  1  6  0  0  0
  3  2  1  0  0  0  0
  3 10  1  0  0  0  0
  3  1  1  0  0  0  0
  5  2  1  0  0  0  0
  8  9  1  0  0  0  0
  9 10  2  0  0  0  0
  9 16  1  0  0  0  0
 10 11  1  0  0  0  0
 11 12  1  0  0  0  0
 11 13  2  0  0  0  0
 14 13  1  0  0  0  0
 14 15  1  0  0  0  0
 16 14  2  0  0  0  0
 17 16  1  0  0  0  0
 18  1  1  0  0  0  0
 18 19  1  0  0  0  0
 20 18  1  0  0  0  0
 21 26  1  0  0  0  0
 21 18  1  0  0  0  0
 22 21  1  0  0  0  0
 23 21  1  0  0  0  0
 24 30  1  0  0  0  0
 25 24  1  0  0  0  0
 25 31  1  0  0  0  0
 26 25  2  0  0  0  0
 27 28  2  0  0  0  0
 27 26  1  0  0  0  0
 28 29  1  0  0  0  0
 29 24  2  0  0  0  0
 32 28  1  0  0  0  0
M  END
>  <minimizedAffinity>
-4.90585041

$$$$
