
 OpenBabel03242516573D

 29 31  0  0  0  0  0  0  0  0999 V2000
   46.6340   34.7590   42.0550 C   0  0  0  0  0  0  0  0  0  0  0  0
   47.9690   35.1180   42.0440 C   0  0  0  0  0  0  0  0  0  0  0  0
   48.7310   34.9560   40.9090 C   0  0  0  0  0  0  0  0  0  0  0  0
   48.1240   34.4300   39.7960 C   0  0  0  0  0  0  0  0  0  0  0  0
   46.7880   34.0520   39.7490 C   0  0  0  0  0  0  0  0  0  0  0  0
   46.0560   34.2400   40.9380 C   0  0  0  0  0  0  0  0  0  0  0  0
   48.4530   35.5370   42.9290 H   0  0  0  0  0  0  0  0  0  0  0  0
   49.7670   35.2470   40.9430 H   0  0  0  0  0  0  0  0  0  0  0  0
   48.7710   34.3200   38.9170 H   0  0  0  0  0  0  0  0  0  0  0  0
   46.3440   33.6400   38.8540 H   0  0  0  0  0  0  0  0  0  0  0  0
   45.6390   31.3900   41.8040 Cl  0  0  0  0  0  0  0  0  0  0  0  0
   44.4050   32.5310   41.2860 C   0  0  0  0  0  0  0  0  0  0  0  0
   44.6690   33.8490   40.8920 C   0  0  0  0  0  0  0  0  0  0  0  0
   43.5680   34.5870   40.5210 C   0  0  0  0  0  0  0  0  0  0  0  0
   43.7880   35.6020   40.2220 H   0  0  0  0  0  0  0  0  0  0  0  0
   42.2750   34.1250   40.5140 C   0  0  0  0  0  0  0  0  0  0  0  0
   42.0520   32.8110   40.9110 C   0  0  0  0  0  0  0  0  0  0  0  0
   40.3760   32.2650   40.8830 Cl  0  0  0  0  0  0  0  0  0  0  0  0
   43.1300   32.0190   41.2970 C   0  0  0  0  0  0  0  0  0  0  0  0
   42.8520   31.0210   41.5850 H   0  0  0  0  0  0  0  0  0  0  0  0
   44.4540   36.1800   44.8060 C   0  0  0  0  0  0  0  0  0  0  0  0
   45.1080   36.0700   43.5660 C   0  0  0  0  0  0  0  0  0  0  0  0
   45.9150   34.9690   43.2960 C   0  0  0  0  0  0  0  0  0  0  0  0
   46.0070   34.0610   44.2850 N   0  0  0  0  0  0  0  0  0  0  0  0
   45.3950   34.1390   45.4780 C   0  0  0  0  0  0  0  0  0  0  0  0
   44.6120   35.2070   45.7420 N   0  0  0  0  0  0  0  0  0  0  0  0
   43.8270   37.0420   45.0100 H   0  0  0  0  0  0  0  0  0  0  0  0
   45.0080   36.8220   42.7970 H   0  0  0  0  0  0  0  0  0  0  0  0
   45.5680   33.3270   46.1710 H   0  0  0  0  0  0  0  0  0  0  0  0
  1 23  1  0  0  0  0
  2  1  1  0  0  0  0
  2  7  1  0  0  0  0
  3  8  1  0  0  0  0
  3  2  2  0  0  0  0
  4  3  1  0  0  0  0
  5  4  2  0  0  0  0
  5  6  1  0  0  0  0
  6  1  2  0  0  0  0
  9  4  1  0  0  0  0
 10  5  1  0  0  0  0
 12 19  1  0  0  0  0
 12 11  1  0  0  0  0
 13  6  1  0  0  0  0
 13 12  2  0  0  0  0
 14 13  1  0  0  0  0
 15 14  1  0  0  0  0
 16 14  2  0  0  0  0
 16 17  1  0  0  0  0
 17 19  2  0  0  0  0
 18 17  1  0  0  0  0
 19 20  1  0  0  0  0
 21 27  1  0  0  0  0
 21 26  1  0  0  0  0
 22 21  2  0  0  0  0
 23 22  1  0  0  0  0
 23 24  2  0  0  0  0
 24 25  1  0  0  0  0
 25 26  2  0  0  0  0
 25 29  1  0  0  0  0
 28 22  1  0  0  0  0
M  END
>  <minimizedAffinity>
-5.90607691

>  <minimizedRMSD>
0.769234359

$$$$
