
 OpenBabel03242523533D

 46 49  0  0  1  0  0  0  0  0999 V2000
   42.7750   34.3770   38.8280 C   0  0  1  0  0  0  0  0  0  0  0  0
   43.0190   35.1540   40.1130 C   0  0  1  0  0  0  0  0  0  0  0  0
   41.7660   35.5450   40.6330 O   0  0  0  0  0  0  0  0  0  0  0  0
   40.8460   35.8710   39.6330 C   0  0  0  0  0  0  0  0  0  0  0  0
   40.4120   34.6540   38.8390 C   0  0  2  0  0  0  0  0  0  0  0  0
   41.5340   33.5800   39.0490 C   0  0  1  0  0  0  0  0  0  0  0  0
   43.6590   33.7570   38.5700 H   0  0  0  0  0  0  0  0  0  0  0  0
   43.6830   36.0150   39.9830 H   0  0  0  0  0  0  0  0  0  0  0  0
   41.2130   36.6830   38.9750 H   0  0  0  0  0  0  0  0  0  0  0  0
   39.9600   36.2370   40.1680 H   0  0  0  0  0  0  0  0  0  0  0  0
   39.4480   34.2260   39.1790 H   0  0  0  0  0  0  0  0  0  0  0  0
   41.3270   33.4500   40.1610 H   0  0  0  0  0  0  0  0  0  0  0  0
   42.6190   35.2510   37.7400 O   0  0  0  0  0  0  0  0  0  0  0  0
   43.3170   35.9520   37.7630 H   0  0  0  0  0  0  0  0  0  0  0  0
   40.4320   34.9420   37.4860 O   0  0  0  0  0  0  0  0  0  0  0  0
   39.6310   35.4660   37.2570 H   0  0  0  0  0  0  0  0  0  0  0  0
   43.4800   34.2040   41.0370 O   0  0  0  0  0  0  0  0  0  0  0  0
   44.5990   34.3230   41.7600 C   0  0  0  0  0  0  0  0  0  0  0  0
   45.8500   34.4530   41.1390 C   0  0  0  0  0  0  0  0  0  0  0  0
   46.9800   34.5740   41.9290 C   0  0  0  0  0  0  0  0  0  0  0  0
   46.8440   34.5640   43.3040 N   0  0  0  0  0  0  0  0  0  0  0  0
   45.6210   34.4360   43.8720 C   0  0  0  0  0  0  0  0  0  0  0  0
   44.5090   34.3170   43.1010 N   0  0  0  0  0  0  0  0  0  0  0  0
   45.9650   34.4610   40.0540 H   0  0  0  0  0  0  0  0  0  0  0  0
   45.5600   34.4320   44.9500 H   0  0  0  0  0  0  0  0  0  0  0  0
   48.3480   34.6930   41.3320 C   0  0  0  0  0  0  0  0  0  0  0  0
   49.0630   36.0280   41.5250 C   0  0  0  0  0  0  0  0  0  0  0  0
   49.5110   34.6990   42.1620 C   0  0  0  0  0  0  0  0  0  0  0  0
   48.3990   34.2710   40.2930 H   0  0  0  0  0  0  0  0  0  0  0  0
   49.7070   36.3250   40.6750 H   0  0  0  0  0  0  0  0  0  0  0  0
   48.5790   36.7820   42.1600 H   0  0  0  0  0  0  0  0  0  0  0  0
   50.4940   34.2990   41.8860 H   0  0  0  0  0  0  0  0  0  0  0  0
   49.3600   34.7000   43.2730 H   0  0  0  0  0  0  0  0  0  0  0  0
   41.2900   32.5650   38.2040 O   0  0  0  0  0  0  0  0  0  0  0  0
   40.3920   31.5760   38.2350 C   0  0  0  0  0  0  0  0  0  0  0  0
   39.4440   31.4840   37.3050 O   0  0  0  0  0  0  0  0  0  0  0  0
   42.2250   29.1810   37.9650 Cl  0  0  0  0  0  0  0  0  0  0  0  0
   40.9480   29.2640   39.1780 C   0  0  0  0  0  0  0  0  0  0  0  0
   40.1890   30.4130   39.1780 C   0  0  0  0  0  0  0  0  0  0  0  0
   39.2200   30.3990   40.1480 C   0  0  0  0  0  0  0  0  0  0  0  0
   38.5430   31.2430   40.2680 H   0  0  0  0  0  0  0  0  0  0  0  0
   39.0340   29.3680   41.0110 C   0  0  0  0  0  3  0  0  0  0  0  0
   39.8290   28.2650   40.9470 C   0  0  0  0  0  0  0  0  0  0  0  0
   39.5870   26.9460   42.0540 Cl  0  0  0  0  0  0  0  0  0  0  0  0
   40.8310   28.1790   40.0080 C   0  0  0  0  0  0  0  0  0  0  0  0
   41.4800   27.3380   39.9160 H   0  0  0  0  0  0  0  0  0  0  0  0
  1  7  1  6  0  0  0
  1  6  1  0  0  0  0
  1  2  1  0  0  0  0
  2  8  1  6  0  0  0
  2  3  1  0  0  0  0
  2 17  1  0  0  0  0
  4 10  1  0  0  0  0
  4  3  1  0  0  0  0
  5  6  1  0  0  0  0
  5 11  1  1  0  0  0
  5  4  1  0  0  0  0
  6 12  1  1  0  0  0
  9  4  1  0  0  0  0
 13 14  1  0  0  0  0
 13  1  1  0  0  0  0
 15  5  1  0  0  0  0
 16 15  1  0  0  0  0
 17 18  1  0  0  0  0
 18 23  1  0  0  0  0
 19 18  2  0  0  0  0
 19 20  1  0  0  0  0
 20 21  2  0  0  0  0
 21 22  1  0  0  0  0
 22 25  1  0  0  0  0
 23 22  2  0  0  0  0
 24 19  1  0  0  0  0
 26 27  1  0  0  0  0
 26 20  1  0  0  0  0
 26 28  1  0  0  0  0
 27 31  1  0  0  0  0
 27 28  1  0  0  0  0
 28 33  1  0  0  0  0
 29 26  1  0  0  0  0
 30 27  1  0  0  0  0
 32 28  1  0  0  0  0
 34 35  1  0  0  0  0
 34  6  1  0  0  0  0
 35 39  1  0  0  0  0
 36 35  2  0  0  0  0
 37 38  1  0  0  0  0
 38 45  1  0  0  0  0
 39 38  2  0  0  0  0
 39 40  1  0  0  0  0
 40 41  1  0  0  0  0
 40 42  2  0  0  0  0
 43 42  1  0  0  0  0
 43 44  1  0  0  0  0
 45 43  2  0  0  0  0
 46 45  1  0  0  0  0
M  END
>  <minimizedAffinity>
-5.99428844

>  <minimizedRMSD>
1.51052594

$$$$
