
 OpenBabel03252507273D

 28 30  0  0  0  0  0  0  0  0999 V2000
   39.1930   31.6780   40.6790 C   0  0  0  0  0  0  0  0  0  0  0  0
   38.8260   33.0100   40.8720 C   0  0  0  0  0  0  0  0  0  0  0  0
   39.5220   33.9960   40.1330 C   0  0  0  0  0  0  0  0  0  0  0  0
   40.5180   33.6000   39.2660 N   0  0  0  0  0  0  0  0  0  0  0  0
   40.8200   32.2840   39.1300 C   0  0  0  0  0  0  0  0  0  0  0  0
   40.1750   31.3580   39.8170 N   0  0  0  0  0  0  0  0  0  0  0  0
   38.0630   33.3310   41.5340 H   0  0  0  0  0  0  0  0  0  0  0  0
   39.3130   35.0520   40.2110 H   0  0  0  0  0  0  0  0  0  0  0  0
   41.8680   31.9160   38.1960 C   0  0  0  0  0  0  0  0  0  0  0  0
   41.6940   30.8920   37.3040 C   0  0  0  0  0  0  0  0  0  0  0  0
   42.6240   30.4580   36.3860 C   0  0  0  0  0  0  0  0  0  0  0  0
   43.8200   31.1610   36.4210 C   0  0  0  0  0  0  0  0  0  0  0  0
   44.0400   32.2190   37.3220 C   0  0  0  0  0  0  0  0  0  0  0  0
   43.0530   32.5760   38.1960 N   0  0  0  0  0  0  0  0  0  0  0  0
   40.7330   30.3900   37.3340 H   0  0  0  0  0  0  0  0  0  0  0  0
   42.4940   29.6620   35.6890 H   0  0  0  0  0  0  0  0  0  0  0  0
   44.6230   30.9000   35.7400 H   0  0  0  0  0  0  0  0  0  0  0  0
   44.9770   32.7610   37.3410 H   0  0  0  0  0  0  0  0  0  0  0  0
   36.6080   30.7530   39.4670 Cl  0  0  0  0  0  0  0  0  0  0  0  0
   37.3170   30.1160   40.9500 C   0  0  0  0  0  0  0  0  0  0  0  0
   38.5190   30.6290   41.4060 C   0  0  0  0  0  0  0  0  0  0  0  0
   38.9620   30.0460   42.5720 C   0  0  0  0  0  0  0  0  0  0  0  0
   39.8890   30.3870   42.9940 H   0  0  0  0  0  0  0  0  0  0  0  0
   38.2960   29.0440   43.2450 C   0  0  0  0  0  3  0  0  0  0  0  0
   37.1010   28.5750   42.7410 C   0  0  0  0  0  0  0  0  0  0  0  0
   36.2900   27.3030   43.6280 Cl  0  0  0  0  0  0  0  0  0  0  0  0
   36.6020   29.1160   41.5760 C   0  0  0  0  0  0  0  0  0  0  0  0
   35.6650   28.7490   41.1770 H   0  0  0  0  0  0  0  0  0  0  0  0
  1  2  1  0  0  0  0
  1 21  1  0  0  0  0
  2  7  1  0  0  0  0
  3  8  1  0  0  0  0
  3  2  2  0  0  0  0
  4  3  1  0  0  0  0
  5  4  2  0  0  0  0
  5  6  1  0  0  0  0
  6  1  2  0  0  0  0
  9 14  1  0  0  0  0
  9  5  1  0  0  0  0
 10 15  1  0  0  0  0
 10  9  2  0  0  0  0
 11 12  2  0  0  0  0
 11 10  1  0  0  0  0
 12 13  1  0  0  0  0
 13 18  1  0  0  0  0
 13 14  2  0  0  0  0
 16 11  1  0  0  0  0
 17 12  1  0  0  0  0
 19 20  1  0  0  0  0
 20 21  2  0  0  0  0
 20 27  1  0  0  0  0
 21 22  1  0  0  0  0
 22 23  1  0  0  0  0
 22 24  2  0  0  0  0
 25 24  1  0  0  0  0
 25 26  1  0  0  0  0
 27 25  2  0  0  0  0
 28 27  1  0  0  0  0
M  END
>  <minimizedAffinity>
-5.42506075

$$$$

 OpenBabel03252507273D

 28 30  0  0  0  0  0  0  0  0999 V2000
   37.7380   30.2350   40.1970 C   0  0  0  0  0  0  0  0  0  0  0  0
   36.7620   31.2090   40.4160 C   0  0  0  0  0  0  0  0  0  0  0  0
   37.0280   32.5190   39.9540 C   0  0  0  0  0  0  0  0  0  0  0  0
   38.2230   32.7720   39.3150 N   0  0  0  0  0  0  0  0  0  0  0  0
   39.1250   31.7740   39.1360 C   0  0  0  0  0  0  0  0  0  0  0  0
   38.8840   30.5480   39.5660 N   0  0  0  0  0  0  0  0  0  0  0  0
   35.8380   31.0320   40.9050 H   0  0  0  0  0  0  0  0  0  0  0  0
   36.3380   33.3420   40.0740 H   0  0  0  0  0  0  0  0  0  0  0  0
   40.3630   32.0860   38.4480 C   0  0  0  0  0  0  0  0  0  0  0  0
   40.9500   33.3170   38.5690 C   0  0  0  0  0  0  0  0  0  0  0  0
   42.1140   33.7170   37.9540 C   0  0  0  0  0  0  0  0  0  0  0  0
   42.6940   32.7410   37.1550 C   0  0  0  0  0  0  0  0  0  0  0  0
   42.1240   31.4630   37.0040 C   0  0  0  0  0  0  0  0  0  0  0  0
   40.9640   31.1610   37.6580 N   0  0  0  0  0  0  0  0  0  0  0  0
   40.4400   34.0280   39.2110 H   0  0  0  0  0  0  0  0  0  0  0  0
   42.5750   34.6740   38.0450 H   0  0  0  0  0  0  0  0  0  0  0  0
   43.6150   32.9520   36.6230 H   0  0  0  0  0  0  0  0  0  0  0  0
   42.5840   30.7080   36.3790 H   0  0  0  0  0  0  0  0  0  0  0  0
   38.6190   29.6810   43.0120 Cl  0  0  0  0  0  0  0  0  0  0  0  0
   37.8860   28.4990   41.9280 C   0  0  0  0  0  0  0  0  0  0  0  0
   37.5220   28.8820   40.6480 C   0  0  0  0  0  0  0  0  0  0  0  0
   36.9620   27.8670   39.9060 C   0  0  0  0  0  0  0  0  0  0  0  0
   36.6520   28.0800   38.9010 H   0  0  0  0  0  0  0  0  0  0  0  0
   36.7670   26.5810   40.3640 C   0  0  0  0  0  3  0  0  0  0  0  0
   37.1520   26.2600   41.6500 C   0  0  0  0  0  0  0  0  0  0  0  0
   36.8860   24.6170   42.1890 Cl  0  0  0  0  0  0  0  0  0  0  0  0
   37.7190   27.2310   42.4460 C   0  0  0  0  0  0  0  0  0  0  0  0
   38.0210   26.9840   43.4550 H   0  0  0  0  0  0  0  0  0  0  0  0
  1  2  1  0  0  0  0
  1 21  1  0  0  0  0
  2  7  1  0  0  0  0
  3  8  1  0  0  0  0
  3  2  2  0  0  0  0
  4  3  1  0  0  0  0
  5  4  2  0  0  0  0
  5  6  1  0  0  0  0
  6  1  2  0  0  0  0
  9 10  1  0  0  0  0
  9  5  1  0  0  0  0
 10 15  1  0  0  0  0
 11 16  1  0  0  0  0
 11 10  2  0  0  0  0
 12 11  1  0  0  0  0
 13 12  2  0  0  0  0
 13 14  1  0  0  0  0
 14  9  2  0  0  0  0
 17 12  1  0  0  0  0
 18 13  1  0  0  0  0
 20 27  1  0  0  0  0
 20 19  1  0  0  0  0
 21 20  2  0  0  0  0
 22 24  2  0  0  0  0
 22 21  1  0  0  0  0
 23 22  1  0  0  0  0
 24 25  1  0  0  0  0
 25 26  1  0  0  0  0
 25 27  2  0  0  0  0
 27 28  1  0  0  0  0
M  END
>  <minimizedAffinity>
-5.21439886

$$$$

 OpenBabel03252507273D

 28 30  0  0  0  0  0  0  0  0999 V2000
   38.3730   28.4090   41.8570 C   0  0  0  0  0  0  0  0  0  0  0  0
   38.7140   28.2580   43.2020 C   0  0  0  0  0  0  0  0  0  0  0  0
   38.9330   26.9440   43.6800 C   0  0  0  0  0  0  0  0  0  0  0  0
   38.8040   25.8860   42.8060 N   0  0  0  0  0  0  0  0  0  0  0  0
   38.4700   26.1100   41.5090 C   0  0  0  0  0  0  0  0  0  0  0  0
   38.2630   27.3330   41.0570 N   0  0  0  0  0  0  0  0  0  0  0  0
   38.8180   29.0600   43.8870 H   0  0  0  0  0  0  0  0  0  0  0  0
   39.2010   26.7220   44.7020 H   0  0  0  0  0  0  0  0  0  0  0  0
   38.3570   24.9650   40.6250 C   0  0  0  0  0  0  0  0  0  0  0  0
   38.3770   23.6870   41.1150 C   0  0  0  0  0  0  0  0  0  0  0  0
   38.2860   22.5360   40.3650 C   0  0  0  0  0  0  0  0  0  0  0  0
   38.1660   22.7610   39.0010 C   0  0  0  0  0  0  0  0  0  0  0  0
   38.1400   24.0580   38.4560 C   0  0  0  0  0  0  0  0  0  0  0  0
   38.2370   25.1390   39.2850 N   0  0  0  0  0  0  0  0  0  0  0  0
   38.4730   23.5890   42.1920 H   0  0  0  0  0  0  0  0  0  0  0  0
   38.3020   21.5390   40.7420 H   0  0  0  0  0  0  0  0  0  0  0  0
   38.0890   21.9230   38.3180 H   0  0  0  0  0  0  0  0  0  0  0  0
   38.0460   24.2230   37.3900 H   0  0  0  0  0  0  0  0  0  0  0  0
   35.5530   28.9250   40.9710 Cl  0  0  0  0  0  0  0  0  0  0  0  0
   36.8750   30.0870   40.8700 C   0  0  0  0  0  0  0  0  0  0  0  0
   38.1360   29.7240   41.3150 C   0  0  0  0  0  0  0  0  0  0  0  0
   39.0760   30.7200   41.1810 C   0  0  0  0  0  0  0  0  0  0  0  0
   40.0810   30.5210   41.5030 H   0  0  0  0  0  0  0  0  0  0  0  0
   38.8200   31.9700   40.6590 C   0  0  0  0  0  3  0  0  0  0  0  0
   37.5440   32.2720   40.2320 C   0  0  0  0  0  0  0  0  0  0  0  0
   37.2640   33.8700   39.5760 Cl  0  0  0  0  0  0  0  0  0  0  0  0
   36.5550   31.3190   40.3390 C   0  0  0  0  0  0  0  0  0  0  0  0
   35.5520   31.5510   40.0050 H   0  0  0  0  0  0  0  0  0  0  0  0
  1  2  1  0  0  0  0
  2  3  2  0  0  0  0
  2  7  1  0  0  0  0
  3  8  1  0  0  0  0
  4  3  1  0  0  0  0
  5  4  2  0  0  0  0
  6  5  1  0  0  0  0
  6  1  2  0  0  0  0
  9 10  1  0  0  0  0
  9  5  1  0  0  0  0
 10 15  1  0  0  0  0
 11 16  1  0  0  0  0
 11 10  2  0  0  0  0
 12 11  1  0  0  0  0
 13 12  2  0  0  0  0
 13 14  1  0  0  0  0
 14  9  2  0  0  0  0
 17 12  1  0  0  0  0
 18 13  1  0  0  0  0
 20 19  1  0  0  0  0
 20 21  1  0  0  0  0
 21  1  1  0  0  0  0
 22 21  2  0  0  0  0
 22 23  1  0  0  0  0
 24 22  1  0  0  0  0
 25 27  1  0  0  0  0
 25 24  2  0  0  0  0
 26 25  1  0  0  0  0
 27 20  2  0  0  0  0
 28 27  1  0  0  0  0
M  END
>  <minimizedAffinity>
-5.19824553

$$$$

 OpenBabel03252507273D

 28 30  0  0  0  0  0  0  0  0999 V2000
   35.9830   29.0540   39.7770 C   0  0  0  0  0  0  0  0  0  0  0  0
   36.1830   30.2540   40.4600 C   0  0  0  0  0  0  0  0  0  0  0  0
   36.9740   30.2180   41.6330 C   0  0  0  0  0  0  0  0  0  0  0  0
   37.5050   29.0140   42.0420 N   0  0  0  0  0  0  0  0  0  0  0  0
   37.2680   27.8850   41.3260 C   0  0  0  0  0  0  0  0  0  0  0  0
   36.5300   27.9110   40.2310 N   0  0  0  0  0  0  0  0  0  0  0  0
   35.7830   31.1880   40.1590 H   0  0  0  0  0  0  0  0  0  0  0  0
   37.1880   31.0910   42.2310 H   0  0  0  0  0  0  0  0  0  0  0  0
   37.8580   26.6440   41.7910 C   0  0  0  0  0  0  0  0  0  0  0  0
   37.2310   25.4440   41.5910 C   0  0  0  0  0  0  0  0  0  0  0  0
   37.6980   24.2140   41.9980 C   0  0  0  0  0  0  0  0  0  0  0  0
   38.9150   24.2660   42.6630 C   0  0  0  0  0  0  0  0  0  0  0  0
   39.5930   25.4780   42.8890 C   0  0  0  0  0  0  0  0  0  0  0  0
   39.0470   26.6480   42.4450 N   0  0  0  0  0  0  0  0  0  0  0  0
   36.2840   25.4810   41.0630 H   0  0  0  0  0  0  0  0  0  0  0  0
   37.2140   23.2770   41.8450 H   0  0  0  0  0  0  0  0  0  0  0  0
   39.3730   23.3540   43.0280 H   0  0  0  0  0  0  0  0  0  0  0  0
   40.5420   25.5080   43.4080 H   0  0  0  0  0  0  0  0  0  0  0  0
   37.5380   29.2300   37.2170 Cl  0  0  0  0  0  0  0  0  0  0  0  0
   35.7840   29.1040   37.3300 C   0  0  0  0  0  0  0  0  0  0  0  0
   35.1840   29.0290   38.5760 C   0  0  0  0  0  0  0  0  0  0  0  0
   33.8120   28.9340   38.5240 C   0  0  0  0  0  0  0  0  0  0  0  0
   33.2690   28.8710   39.4490 H   0  0  0  0  0  0  0  0  0  0  0  0
   33.0750   28.9120   37.3600 C   0  0  0  0  0  3  0  0  0  0  0  0
   33.7290   28.9910   36.1480 C   0  0  0  0  0  0  0  0  0  0  0  0
   32.7540   28.9600   34.6960 Cl  0  0  0  0  0  0  0  0  0  0  0  0
   35.1030   29.0870   36.1300 C   0  0  0  0  0  0  0  0  0  0  0  0
   35.6210   29.1490   35.1810 H   0  0  0  0  0  0  0  0  0  0  0  0
  1  6  2  0  0  0  0
  1  2  1  0  0  0  0
  2  3  2  0  0  0  0
  3  4  1  0  0  0  0
  3  8  1  0  0  0  0
  5  9  1  0  0  0  0
  5  4  2  0  0  0  0
  6  5  1  0  0  0  0
  7  2  1  0  0  0  0
  9 14  1  0  0  0  0
 10  9  2  0  0  0  0
 10 11  1  0  0  0  0
 11 12  2  0  0  0  0
 12 13  1  0  0  0  0
 12 17  1  0  0  0  0
 13 18  1  0  0  0  0
 14 13  2  0  0  0  0
 15 10  1  0  0  0  0
 16 11  1  0  0  0  0
 19 20  1  0  0  0  0
 20 21  1  0  0  0  0
 21  1  1  0  0  0  0
 22 21  2  0  0  0  0
 22 23  1  0  0  0  0
 24 22  1  0  0  0  0
 25 24  2  0  0  0  0
 26 25  1  0  0  0  0
 27 25  1  0  0  0  0
 27 20  2  0  0  0  0
 28 27  1  0  0  0  0
M  END
>  <minimizedAffinity>
-5.15093327

$$$$

 OpenBabel03252507273D

 28 30  0  0  0  0  0  0  0  0999 V2000
   38.5080   30.9450   40.3270 C   0  0  0  0  0  0  0  0  0  0  0  0
   37.2100   31.4280   40.4950 C   0  0  0  0  0  0  0  0  0  0  0  0
   36.2960   30.6190   41.2100 C   0  0  0  0  0  0  0  0  0  0  0  0
   36.7240   29.4050   41.7040 N   0  0  0  0  0  0  0  0  0  0  0  0
   38.0040   29.0000   41.5020 C   0  0  0  0  0  0  0  0  0  0  0  0
   38.8630   29.7510   40.8340 N   0  0  0  0  0  0  0  0  0  0  0  0
   36.8640   32.3590   40.1230 H   0  0  0  0  0  0  0  0  0  0  0  0
   35.2700   30.9030   41.3940 H   0  0  0  0  0  0  0  0  0  0  0  0
   38.4110   27.7200   42.0500 C   0  0  0  0  0  0  0  0  0  0  0  0
   39.3060   27.6450   43.0840 C   0  0  0  0  0  0  0  0  0  0  0  0
   39.7640   26.4860   43.6680 C   0  0  0  0  0  0  0  0  0  0  0  0
   39.2340   25.3290   43.1160 C   0  0  0  0  0  0  0  0  0  0  0  0
   38.3120   25.3610   42.0530 C   0  0  0  0  0  0  0  0  0  0  0  0
   37.9180   26.5640   41.5400 N   0  0  0  0  0  0  0  0  0  0  0  0
   39.6770   28.5910   43.4650 H   0  0  0  0  0  0  0  0  0  0  0  0
   40.4610   26.4220   44.4730 H   0  0  0  0  0  0  0  0  0  0  0  0
   39.5290   24.3590   43.5010 H   0  0  0  0  0  0  0  0  0  0  0  0
   37.9040   24.4530   41.6290 H   0  0  0  0  0  0  0  0  0  0  0  0
   38.6960   30.3430   37.3940 Cl  0  0  0  0  0  0  0  0  0  0  0  0
   39.6660   31.5440   38.2450 C   0  0  0  0  0  0  0  0  0  0  0  0
   39.4830   31.7270   39.6060 C   0  0  0  0  0  0  0  0  0  0  0  0
   40.3010   32.6920   40.1480 C   0  0  0  0  0  0  0  0  0  0  0  0
   40.2220   32.8970   41.1990 H   0  0  0  0  0  0  0  0  0  0  0  0
   41.2230   33.4250   39.4320 C   0  0  0  0  0  3  0  0  0  0  0  0
   41.3600   33.1960   38.0790 C   0  0  0  0  0  0  0  0  0  0  0  0
   42.5440   34.1490   37.2110 Cl  0  0  0  0  0  0  0  0  0  0  0  0
   40.5710   32.2430   37.4740 C   0  0  0  0  0  0  0  0  0  0  0  0
   40.6750   32.0600   36.4120 H   0  0  0  0  0  0  0  0  0  0  0  0
  1  2  2  0  0  0  0
  1  6  1  0  0  0  0
  2  3  1  0  0  0  0
  3  8  1  0  0  0  0
  3  4  2  0  0  0  0
  5  4  1  0  0  0  0
  5  9  1  0  0  0  0
  6  5  2  0  0  0  0
  7  2  1  0  0  0  0
  9 10  1  0  0  0  0
 10 15  1  0  0  0  0
 10 11  2  0  0  0  0
 11 16  1  0  0  0  0
 12 17  1  0  0  0  0
 12 11  1  0  0  0  0
 13 12  2  0  0  0  0
 14  9  2  0  0  0  0
 14 13  1  0  0  0  0
 18 13  1  0  0  0  0
 19 20  1  0  0  0  0
 20 21  1  0  0  0  0
 21 22  2  0  0  0  0
 21  1  1  0  0  0  0
 22 23  1  0  0  0  0
 24 22  1  0  0  0  0
 25 24  2  0  0  0  0
 26 25  1  0  0  0  0
 27 25  1  0  0  0  0
 27 20  2  0  0  0  0
 28 27  1  0  0  0  0
M  END
>  <minimizedAffinity>
-5.11246681

$$$$

 OpenBabel03252507273D

 28 30  0  0  0  0  0  0  0  0999 V2000
   37.0080   30.2130   39.2060 C   0  0  0  0  0  0  0  0  0  0  0  0
   37.1320   31.5870   39.4150 C   0  0  0  0  0  0  0  0  0  0  0  0
   37.8930   32.0150   40.5290 C   0  0  0  0  0  0  0  0  0  0  0  0
   38.4730   31.0670   41.3450 N   0  0  0  0  0  0  0  0  0  0  0  0
   38.3100   29.7460   41.0780 C   0  0  0  0  0  0  0  0  0  0  0  0
   37.5990   29.3390   40.0410 N   0  0  0  0  0  0  0  0  0  0  0  0
   36.6930   32.3290   38.7980 H   0  0  0  0  0  0  0  0  0  0  0  0
   38.0480   33.0540   40.7760 H   0  0  0  0  0  0  0  0  0  0  0  0
   38.9480   28.7860   41.9590 C   0  0  0  0  0  0  0  0  0  0  0  0
   38.2080   27.9710   42.7720 C   0  0  0  0  0  0  0  0  0  0  0  0
   38.7130   27.0370   43.6490 C   0  0  0  0  0  0  0  0  0  0  0  0
   40.0990   26.9670   43.6610 C   0  0  0  0  0  0  0  0  0  0  0  0
   40.8970   27.7870   42.8410 C   0  0  0  0  0  0  0  0  0  0  0  0
   40.3000   28.6850   42.0030 N   0  0  0  0  0  0  0  0  0  0  0  0
   37.1310   28.0810   42.7080 H   0  0  0  0  0  0  0  0  0  0  0  0
   38.1420   26.3990   44.2840 H   0  0  0  0  0  0  0  0  0  0  0  0
   40.6010   26.2650   44.3170 H   0  0  0  0  0  0  0  0  0  0  0  0
   41.9770   27.7250   42.8580 H   0  0  0  0  0  0  0  0  0  0  0  0
   34.2760   29.1830   39.8960 Cl  0  0  0  0  0  0  0  0  0  0  0  0
   34.9660   29.2150   38.2750 C   0  0  0  0  0  0  0  0  0  0  0  0
   36.2430   29.7170   38.0870 C   0  0  0  0  0  0  0  0  0  0  0  0
   36.6620   29.6860   36.7770 C   0  0  0  0  0  0  0  0  0  0  0  0
   37.6420   30.0580   36.5450 H   0  0  0  0  0  0  0  0  0  0  0  0
   35.9070   29.2080   35.7270 C   0  0  0  0  0  3  0  0  0  0  0  0
   34.6420   28.7190   35.9770 C   0  0  0  0  0  0  0  0  0  0  0  0
   33.7190   28.1210   34.6160 Cl  0  0  0  0  0  0  0  0  0  0  0  0
   34.1610   28.7220   37.2680 C   0  0  0  0  0  0  0  0  0  0  0  0
   33.1680   28.3400   37.4690 H   0  0  0  0  0  0  0  0  0  0  0  0
  1  2  2  0  0  0  0
  1  6  1  0  0  0  0
  2  3  1  0  0  0  0
  3  8  1  0  0  0  0
  3  4  2  0  0  0  0
  5  4  1  0  0  0  0
  5  9  1  0  0  0  0
  6  5  2  0  0  0  0
  7  2  1  0  0  0  0
  9 14  2  0  0  0  0
  9 10  1  0  0  0  0
 10 11  2  0  0  0  0
 11 12  1  0  0  0  0
 11 16  1  0  0  0  0
 12 17  1  0  0  0  0
 13 18  1  0  0  0  0
 13 12  2  0  0  0  0
 14 13  1  0  0  0  0
 15 10  1  0  0  0  0
 20 19  1  0  0  0  0
 21 20  1  0  0  0  0
 21  1  1  0  0  0  0
 22 21  2  0  0  0  0
 23 22  1  0  0  0  0
 24 25  2  0  0  0  0
 24 22  1  0  0  0  0
 25 27  1  0  0  0  0
 26 25  1  0  0  0  0
 27 28  1  0  0  0  0
 27 20  2  0  0  0  0
M  END
>  <minimizedAffinity>
-5.08609962

$$$$

 OpenBabel03252507273D

 28 30  0  0  0  0  0  0  0  0999 V2000
   38.0390   30.4500   40.9650 C   0  0  0  0  0  0  0  0  0  0  0  0
   37.0460   31.2910   40.4600 C   0  0  0  0  0  0  0  0  0  0  0  0
   37.4110   32.6230   40.1510 C   0  0  0  0  0  0  0  0  0  0  0  0
   38.7130   33.0240   40.3580 N   0  0  0  0  0  0  0  0  0  0  0  0
   39.6260   32.1480   40.8520 C   0  0  0  0  0  0  0  0  0  0  0  0
   39.2920   30.9030   41.1440 N   0  0  0  0  0  0  0  0  0  0  0  0
   36.0410   30.9990   40.2950 H   0  0  0  0  0  0  0  0  0  0  0  0
   36.7170   33.3510   39.7560 H   0  0  0  0  0  0  0  0  0  0  0  0
   40.9870   32.6130   41.0420 C   0  0  0  0  0  0  0  0  0  0  0  0
   41.8470   31.9600   41.8830 C   0  0  0  0  0  0  0  0  0  0  0  0
   43.1500   32.3220   42.1400 C   0  0  0  0  0  0  0  0  0  0  0  0
   43.5650   33.4560   41.4570 C   0  0  0  0  0  0  0  0  0  0  0  0
   42.7140   34.1570   40.5830 C   0  0  0  0  0  0  0  0  0  0  0  0
   41.4340   33.7170   40.3930 N   0  0  0  0  0  0  0  0  0  0  0  0
   41.4530   31.0810   42.3820 H   0  0  0  0  0  0  0  0  0  0  0  0
   43.8240   31.8170   42.7940 H   0  0  0  0  0  0  0  0  0  0  0  0
   44.5750   33.8300   41.5880 H   0  0  0  0  0  0  0  0  0  0  0  0
   43.0470   35.0410   40.0540 H   0  0  0  0  0  0  0  0  0  0  0  0
   38.4890   28.4690   38.7570 Cl  0  0  0  0  0  0  0  0  0  0  0  0
   37.8910   28.0720   40.3660 C   0  0  0  0  0  0  0  0  0  0  0  0
   37.7250   29.0820   41.3000 C   0  0  0  0  0  0  0  0  0  0  0  0
   37.2530   28.6390   42.5150 C   0  0  0  0  0  0  0  0  0  0  0  0
   37.0970   29.3600   43.2960 H   0  0  0  0  0  0  0  0  0  0  0  0
   36.9630   27.3230   42.8070 C   0  0  0  0  0  3  0  0  0  0  0  0
   37.1470   26.3630   41.8340 C   0  0  0  0  0  0  0  0  0  0  0  0
   36.7650   24.7060   42.2490 Cl  0  0  0  0  0  0  0  0  0  0  0  0
   37.6180   26.7390   40.5960 C   0  0  0  0  0  0  0  0  0  0  0  0
   37.7650   25.9880   39.8300 H   0  0  0  0  0  0  0  0  0  0  0  0
  1  6  1  0  0  0  0
  1 21  1  0  0  0  0
  2  1  2  0  0  0  0
  3  4  2  0  0  0  0
  3  2  1  0  0  0  0
  4  5  1  0  0  0  0
  5  9  1  0  0  0  0
  5  6  2  0  0  0  0
  7  2  1  0  0  0  0
  8  3  1  0  0  0  0
  9 10  1  0  0  0  0
 10 11  2  0  0  0  0
 10 15  1  0  0  0  0
 11 16  1  0  0  0  0
 12 17  1  0  0  0  0
 12 11  1  0  0  0  0
 13 12  2  0  0  0  0
 14 13  1  0  0  0  0
 14  9  2  0  0  0  0
 18 13  1  0  0  0  0
 19 20  1  0  0  0  0
 20 27  2  0  0  0  0
 20 21  1  0  0  0  0
 21 22  2  0  0  0  0
 22 24  1  0  0  0  0
 22 23  1  0  0  0  0
 25 26  1  0  0  0  0
 25 24  2  0  0  0  0
 27 25  1  0  0  0  0
 28 27  1  0  0  0  0
M  END
>  <minimizedAffinity>
-5.05044031

$$$$

 OpenBabel03252507273D

 28 30  0  0  0  0  0  0  0  0999 V2000
   38.2530   29.7330   41.0780 C   0  0  0  0  0  0  0  0  0  0  0  0
   36.9720   30.2620   41.2380 C   0  0  0  0  0  0  0  0  0  0  0  0
   36.7080   31.5270   40.6610 C   0  0  0  0  0  0  0  0  0  0  0  0
   37.7150   32.1700   39.9740 N   0  0  0  0  0  0  0  0  0  0  0  0
   38.9380   31.5930   39.8590 C   0  0  0  0  0  0  0  0  0  0  0  0
   39.1920   30.4130   40.3960 N   0  0  0  0  0  0  0  0  0  0  0  0
   36.1860   29.7810   41.7620 H   0  0  0  0  0  0  0  0  0  0  0  0
   35.7500   32.0210   40.7280 H   0  0  0  0  0  0  0  0  0  0  0  0
   39.9620   32.3040   39.1170 C   0  0  0  0  0  0  0  0  0  0  0  0
   40.4920   31.7850   37.9660 C   0  0  0  0  0  0  0  0  0  0  0  0
   41.4700   32.3710   37.1950 C   0  0  0  0  0  0  0  0  0  0  0  0
   41.9150   33.5920   37.6810 C   0  0  0  0  0  0  0  0  0  0  0  0
   41.3980   34.1610   38.8590 C   0  0  0  0  0  0  0  0  0  0  0  0
   40.4260   33.5010   39.5560 N   0  0  0  0  0  0  0  0  0  0  0  0
   40.0940   30.8270   37.6460 H   0  0  0  0  0  0  0  0  0  0  0  0
   41.8860   31.9710   36.2980 H   0  0  0  0  0  0  0  0  0  0  0  0
   42.6860   34.1390   37.1510 H   0  0  0  0  0  0  0  0  0  0  0  0
   41.7510   35.1140   39.2310 H   0  0  0  0  0  0  0  0  0  0  0  0
   37.8140   27.3920   39.2540 Cl  0  0  0  0  0  0  0  0  0  0  0  0
   38.4230   27.2890   40.9050 C   0  0  0  0  0  0  0  0  0  0  0  0
   38.5810   28.4480   41.6460 C   0  0  0  0  0  0  0  0  0  0  0  0
   39.0630   28.2290   42.9170 C   0  0  0  0  0  0  0  0  0  0  0  0
   39.2160   29.0770   43.5580 H   0  0  0  0  0  0  0  0  0  0  0  0
   39.3690   26.9880   43.4330 C   0  0  0  0  0  3  0  0  0  0  0  0
   39.1890   25.8700   42.6450 C   0  0  0  0  0  0  0  0  0  0  0  0
   39.5890   24.3150   43.3410 Cl  0  0  0  0  0  0  0  0  0  0  0  0
   38.7100   26.0190   41.3630 C   0  0  0  0  0  0  0  0  0  0  0  0
   38.5670   25.1440   40.7410 H   0  0  0  0  0  0  0  0  0  0  0  0
  1  2  1  0  0  0  0
  1 21  1  0  0  0  0
  2  7  1  0  0  0  0
  3  8  1  0  0  0  0
  3  2  2  0  0  0  0
  4  3  1  0  0  0  0
  5  4  2  0  0  0  0
  5  6  1  0  0  0  0
  6  1  2  0  0  0  0
  9 14  1  0  0  0  0
  9  5  1  0  0  0  0
 10  9  2  0  0  0  0
 11 12  2  0  0  0  0
 11 10  1  0  0  0  0
 12 13  1  0  0  0  0
 13 18  1  0  0  0  0
 13 14  2  0  0  0  0
 15 10  1  0  0  0  0
 16 11  1  0  0  0  0
 17 12  1  0  0  0  0
 19 20  1  0  0  0  0
 20 27  2  0  0  0  0
 20 21  1  0  0  0  0
 21 22  2  0  0  0  0
 22 24  1  0  0  0  0
 22 23  1  0  0  0  0
 25 26  1  0  0  0  0
 25 24  2  0  0  0  0
 27 25  1  0  0  0  0
 28 27  1  0  0  0  0
M  END
>  <minimizedAffinity>
-5.03130245

$$$$

 OpenBabel03252507273D

 28 30  0  0  0  0  0  0  0  0999 V2000
   37.5560   26.8980   41.5390 C   0  0  0  0  0  0  0  0  0  0  0  0
   37.3610   26.8520   42.9200 C   0  0  0  0  0  0  0  0  0  0  0  0
   37.2990   28.0830   43.6150 C   0  0  0  0  0  0  0  0  0  0  0  0
   37.4310   29.2580   42.9060 N   0  0  0  0  0  0  0  0  0  0  0  0
   37.6180   29.2240   41.5610 C   0  0  0  0  0  0  0  0  0  0  0  0
   37.6770   28.0790   40.9060 N   0  0  0  0  0  0  0  0  0  0  0  0
   37.2570   25.9590   43.4810 H   0  0  0  0  0  0  0  0  0  0  0  0
   37.1510   28.1550   44.6830 H   0  0  0  0  0  0  0  0  0  0  0  0
   37.7400   30.4870   40.8560 C   0  0  0  0  0  0  0  0  0  0  0  0
   36.9730   30.7590   39.7550 C   0  0  0  0  0  0  0  0  0  0  0  0
   37.0170   31.9170   39.0120 C   0  0  0  0  0  0  0  0  0  0  0  0
   37.9390   32.8470   39.4700 C   0  0  0  0  0  0  0  0  0  0  0  0
   38.7460   32.6070   40.5980 C   0  0  0  0  0  0  0  0  0  0  0  0
   38.6280   31.4240   41.2710 N   0  0  0  0  0  0  0  0  0  0  0  0
   36.2730   29.9860   39.4560 H   0  0  0  0  0  0  0  0  0  0  0  0
   36.4230   32.1350   38.1540 H   0  0  0  0  0  0  0  0  0  0  0  0
   38.0560   33.7940   38.9560 H   0  0  0  0  0  0  0  0  0  0  0  0
   39.4630   33.3380   40.9480 H   0  0  0  0  0  0  0  0  0  0  0  0
   40.3050   25.7230   41.2880 Cl  0  0  0  0  0  0  0  0  0  0  0  0
   38.8410   25.0330   40.5900 C   0  0  0  0  0  0  0  0  0  0  0  0
   37.6280   25.6740   40.7780 C   0  0  0  0  0  0  0  0  0  0  0  0
   36.5660   25.0330   40.1830 C   0  0  0  0  0  0  0  0  0  0  0  0
   35.5880   25.4660   40.2810 H   0  0  0  0  0  0  0  0  0  0  0  0
   36.6650   23.8630   39.4620 C   0  0  0  0  0  3  0  0  0  0  0  0
   37.9020   23.2710   39.3080 C   0  0  0  0  0  0  0  0  0  0  0  0
   37.9820   21.7870   38.3840 Cl  0  0  0  0  0  0  0  0  0  0  0  0
   39.0070   23.8620   39.8800 C   0  0  0  0  0  0  0  0  0  0  0  0
   39.9800   23.4000   39.7620 H   0  0  0  0  0  0  0  0  0  0  0  0
  1  2  1  0  0  0  0
  2  7  1  0  0  0  0
  2  3  2  0  0  0  0
  3  8  1  0  0  0  0
  4  3  1  0  0  0  0
  5  4  2  0  0  0  0
  6  1  2  0  0  0  0
  6  5  1  0  0  0  0
  9 14  1  0  0  0  0
  9  5  1  0  0  0  0
 10  9  2  0  0  0  0
 11 12  2  0  0  0  0
 11 10  1  0  0  0  0
 12 13  1  0  0  0  0
 13 18  1  0  0  0  0
 13 14  2  0  0  0  0
 15 10  1  0  0  0  0
 16 11  1  0  0  0  0
 17 12  1  0  0  0  0
 20 21  1  0  0  0  0
 20 19  1  0  0  0  0
 21  1  1  0  0  0  0
 22 23  1  0  0  0  0
 22 21  2  0  0  0  0
 24 22  1  0  0  0  0
 25 24  2  0  0  0  0
 25 27  1  0  0  0  0
 26 25  1  0  0  0  0
 27 20  2  0  0  0  0
 28 27  1  0  0  0  0
M  END
>  <minimizedAffinity>
-4.97266483

$$$$
