
 OpenBabel03242523533D

 46 49  0  0  1  0  0  0  0  0999 V2000
   42.7910   34.4060   38.8890 C   0  0  1  0  0  0  0  0  0  0  0  0
   43.0410   35.2040   40.1590 C   0  0  1  0  0  0  0  0  0  0  0  0
   41.7930   35.6380   40.6570 O   0  0  0  0  0  0  0  0  0  0  0  0
   40.8920   35.9650   39.6400 C   0  0  0  0  0  0  0  0  0  0  0  0
   40.4350   34.7430   38.8680 C   0  0  2  0  0  0  0  0  0  0  0  0
   41.5270   33.6460   39.1130 C   0  0  1  0  0  0  0  0  0  0  0  0
   43.6610   33.7580   38.6540 H   0  0  0  0  0  0  0  0  0  0  0  0
   43.7280   36.0450   40.0180 H   0  0  0  0  0  0  0  0  0  0  0  0
   41.2860   36.7540   38.9690 H   0  0  0  0  0  0  0  0  0  0  0  0
   40.0100   36.3660   40.1580 H   0  0  0  0  0  0  0  0  0  0  0  0
   39.4580   34.3470   39.2070 H   0  0  0  0  0  0  0  0  0  0  0  0
   41.3050   33.5450   40.2260 H   0  0  0  0  0  0  0  0  0  0  0  0
   42.6670   35.2600   37.7810 O   0  0  0  0  0  0  0  0  0  0  0  0
   43.3840   35.9440   37.7960 H   0  0  0  0  0  0  0  0  0  0  0  0
   40.4770   35.0010   37.5090 O   0  0  0  0  0  0  0  0  0  0  0  0
   39.6920   35.5400   37.2600 H   0  0  0  0  0  0  0  0  0  0  0  0
   43.4680   34.2630   41.1080 O   0  0  0  0  0  0  0  0  0  0  0  0
   44.5970   34.3540   41.8190 C   0  0  0  0  0  0  0  0  0  0  0  0
   45.8420   34.4840   41.1840 C   0  0  0  0  0  0  0  0  0  0  0  0
   46.9830   34.5750   41.9610 C   0  0  0  0  0  0  0  0  0  0  0  0
   46.8650   34.5370   43.3370 N   0  0  0  0  0  0  0  0  0  0  0  0
   45.6480   34.4100   43.9180 C   0  0  0  0  0  0  0  0  0  0  0  0
   44.5250   34.3200   43.1600 N   0  0  0  0  0  0  0  0  0  0  0  0
   45.9420   34.5150   40.0980 H   0  0  0  0  0  0  0  0  0  0  0  0
   45.6020   34.3840   44.9970 H   0  0  0  0  0  0  0  0  0  0  0  0
   48.3450   34.6930   41.3490 C   0  0  0  0  0  0  0  0  0  0  0  0
   49.0610   36.0290   41.5280 C   0  0  0  0  0  0  0  0  0  0  0  0
   49.5170   34.7020   42.1650 C   0  0  0  0  0  0  0  0  0  0  0  0
   48.3840   34.2670   40.3110 H   0  0  0  0  0  0  0  0  0  0  0  0
   49.6960   36.3220   40.6700 H   0  0  0  0  0  0  0  0  0  0  0  0
   48.5840   36.7850   42.1650 H   0  0  0  0  0  0  0  0  0  0  0  0
   50.4970   34.3010   41.8800 H   0  0  0  0  0  0  0  0  0  0  0  0
   49.3780   34.7080   43.2780 H   0  0  0  0  0  0  0  0  0  0  0  0
   41.2660   32.6190   38.2870 O   0  0  0  0  0  0  0  0  0  0  0  0
   40.3730   31.6270   38.3540 C   0  0  0  0  0  0  0  0  0  0  0  0
   39.4170   31.5050   37.4350 O   0  0  0  0  0  0  0  0  0  0  0  0
   38.6880   32.1250   40.8180 Cl  0  0  0  0  0  0  0  0  0  0  0  0
   39.4400   30.5660   40.4860 C   0  0  0  0  0  0  0  0  0  0  0  0
   40.1840   30.4900   39.3300 C   0  0  0  0  0  0  0  0  0  0  0  0
   40.7350   29.2480   39.1440 C   0  0  0  0  0  0  0  0  0  0  0  0
   41.3490   29.0380   38.2700 H   0  0  0  0  0  0  0  0  0  0  0  0
   40.5620   28.2120   40.0060 C   0  0  0  0  0  3  0  0  0  0  0  0
   39.8100   28.3690   41.1290 C   0  0  0  0  0  0  0  0  0  0  0  0
   39.5920   27.0400   42.2280 Cl  0  0  0  0  0  0  0  0  0  0  0  0
   39.2140   29.5780   41.4080 C   0  0  0  0  0  0  0  0  0  0  0  0
   38.6150   29.7510   42.2730 H   0  0  0  0  0  0  0  0  0  0  0  0
  1  7  1  6  0  0  0
  1  6  1  0  0  0  0
  1  2  1  0  0  0  0
  2  8  1  6  0  0  0
  2  3  1  0  0  0  0
  2 17  1  0  0  0  0
  4 10  1  0  0  0  0
  4  3  1  0  0  0  0
  5  6  1  0  0  0  0
  5 11  1  1  0  0  0
  5  4  1  0  0  0  0
  6 12  1  1  0  0  0
  9  4  1  0  0  0  0
 13 14  1  0  0  0  0
 13  1  1  0  0  0  0
 15  5  1  0  0  0  0
 16 15  1  0  0  0  0
 17 18  1  0  0  0  0
 18 23  1  0  0  0  0
 19 18  2  0  0  0  0
 19 20  1  0  0  0  0
 20 21  2  0  0  0  0
 21 22  1  0  0  0  0
 22 25  1  0  0  0  0
 23 22  2  0  0  0  0
 24 19  1  0  0  0  0
 26 27  1  0  0  0  0
 26 20  1  0  0  0  0
 26 28  1  0  0  0  0
 27 31  1  0  0  0  0
 27 28  1  0  0  0  0
 28 33  1  0  0  0  0
 29 26  1  0  0  0  0
 30 27  1  0  0  0  0
 32 28  1  0  0  0  0
 34 35  1  0  0  0  0
 34  6  1  0  0  0  0
 35 39  1  0  0  0  0
 36 35  2  0  0  0  0
 38 37  1  0  0  0  0
 38 45  1  0  0  0  0
 39 38  2  0  0  0  0
 40 39  1  0  0  0  0
 40 42  2  0  0  0  0
 41 40  1  0  0  0  0
 42 43  1  0  0  0  0
 43 45  2  0  0  0  0
 43 44  1  0  0  0  0
 45 46  1  0  0  0  0
M  END
>  <minimizedAffinity>
-6.24673557

>  <minimizedRMSD>
1.49485326

$$$$
