
 OpenBabel03252501433D

 46 49  0  0  0  0  0  0  0  0999 V2000
   37.6570   31.9610   40.5510 C   0  0  0  0  0  0  0  0  0  0  0  0
   37.5650   32.7130   39.5100 O   0  0  0  0  0  0  0  0  0  0  0  0
   38.9260   32.0800   41.1890 N   0  0  0  0  0  0  0  0  0  0  0  0
   39.1790   31.5940   42.0420 H   0  0  0  0  0  0  0  0  0  0  0  0
   39.7630   32.9860   40.4330 C   0  0  0  0  0  0  0  0  0  0  0  0
   39.7190   34.3440   40.4720 C   0  0  0  0  0  0  0  0  0  0  0  0
   40.5980   35.0320   39.6780 C   0  0  0  0  0  0  0  0  0  0  0  0
   41.4510   34.2940   38.9080 N   0  0  0  0  0  0  0  0  0  0  0  0
   41.4720   32.9550   38.8910 C   0  0  0  0  0  0  0  0  0  0  0  0
   40.6080   32.2660   39.6710 N   0  0  0  0  0  0  0  0  0  0  0  0
   40.5830   36.1070   39.6900 H   0  0  0  0  0  0  0  0  0  0  0  0
   44.4100   33.6520   39.3190 Cl  0  0  0  0  0  0  0  0  0  0  0  0
   43.7950   32.5270   38.1260 C   0  0  0  0  0  0  0  0  0  0  0  0
   42.4430   32.2820   38.0140 C   0  0  0  0  0  0  0  0  0  0  0  0
   41.9260   31.4020   37.0850 C   0  0  0  0  0  0  0  0  0  0  0  0
   40.8590   31.1910   36.9760 H   0  0  0  0  0  0  0  0  0  0  0  0
   42.8020   30.7340   36.2260 C   0  0  0  0  0  3  0  0  0  0  0  0
   44.1700   30.9600   36.3130 C   0  0  0  0  0  0  0  0  0  0  0  0
   45.2650   30.1360   35.2500 Cl  0  0  0  0  0  0  0  0  0  0  0  0
   44.6420   31.8570   37.2670 C   0  0  0  0  0  0  0  0  0  0  0  0
   45.7000   32.0720   37.3800 H   0  0  0  0  0  0  0  0  0  0  0  0
   38.7720   34.9360   41.3250 N   0  0  0  0  0  0  0  0  0  0  0  0
   39.1220   35.5710   42.0920 H   0  0  0  0  0  0  0  0  0  0  0  0
   37.7510   34.7240   41.1690 H   0  0  0  0  0  0  0  0  0  0  0  0
   36.6800   31.1030   41.0640 O   0  0  0  0  0  0  0  0  0  0  0  0
   38.1180   28.8730   42.4070 Cl  0  0  0  0  0  0  0  0  0  0  0  0
   37.1190   28.7690   40.9660 C   0  0  0  0  0  0  0  0  0  0  0  0
   36.4820   29.8750   40.4090 C   0  0  0  0  0  0  0  0  0  0  0  0
   35.7180   29.7420   39.2900 C   0  0  0  0  0  0  0  0  0  0  0  0
   35.5260   28.5330   38.6480 C   0  0  0  0  0  0  0  0  0  0  0  0
   36.1560   27.3960   39.1890 C   0  0  0  0  0  0  0  0  0  0  0  0
   35.9740   25.8180   38.4460 Cl  0  0  0  0  0  0  0  0  0  0  0  0
   36.9210   27.5730   40.3210 C   0  0  0  0  0  0  0  0  0  0  0  0
   35.2520   30.6340   38.9070 H   0  0  0  0  0  0  0  0  0  0  0  0
   34.9190   28.4270   37.7610 H   0  0  0  0  0  0  0  0  0  0  0  0
   39.4490   26.9150   39.5340 F   0  0  0  0  0  0  0  0  0  0  0  0
   38.8700   26.0940   40.4740 C   0  0  0  0  0  0  0  0  0  0  0  0
   37.5840   26.4020   40.8960 C   0  0  0  0  0  0  0  0  0  0  0  0
   37.0310   25.5440   41.8510 C   0  0  0  0  0  0  0  0  0  0  0  0
   37.7820   24.4660   42.3080 C   0  0  0  0  0  0  0  0  0  0  0  0
   39.0700   24.2130   41.8420 C   0  0  0  0  0  0  0  0  0  0  0  0
   39.6520   25.0480   40.8890 C   0  0  0  0  0  0  0  0  0  0  0  0
   36.0390   25.7830   42.1750 H   0  0  0  0  0  0  0  0  0  0  0  0
   37.2800   23.8550   43.0430 H   0  0  0  0  0  0  0  0  0  0  0  0
   39.6110   23.3580   42.2330 H   0  0  0  0  0  0  0  0  0  0  0  0
   40.6350   24.8840   40.5120 H   0  0  0  0  0  0  0  0  0  0  0  0
  1 25  1  0  0  0  0
  1  3  1  0  0  0  0
  2  1  2  0  0  0  0
  3  4  1  0  0  0  0
  5  6  1  0  0  0  0
  5  3  1  0  0  0  0
  6 22  1  0  0  0  0
  7 11  1  0  0  0  0
  7  6  2  0  0  0  0
  8  7  1  0  0  0  0
  9  8  2  0  0  0  0
  9 10  1  0  0  0  0
 10  5  2  0  0  0  0
 13 12  1  0  0  0  0
 14 13  1  0  0  0  0
 14  9  1  0  0  0  0
 15 14  2  0  0  0  0
 16 15  1  0  0  0  0
 17 18  2  0  0  0  0
 17 15  1  0  0  0  0
 18 20  1  0  0  0  0
 19 18  1  0  0  0  0
 20 21  1  0  0  0  0
 20 13  2  0  0  0  0
 22 23  1  0  0  0  0
 24 22  1  0  0  0  0
 27 26  1  0  0  0  0
 28 27  1  0  0  0  0
 28 25  1  0  0  0  0
 29 28  2  0  0  0  0
 30 31  2  0  0  0  0
 30 29  1  0  0  0  0
 31 33  1  0  0  0  0
 32 31  1  0  0  0  0
 33 38  1  0  0  0  0
 33 27  2  0  0  0  0
 34 29  1  0  0  0  0
 35 30  1  0  0  0  0
 36 37  1  0  0  0  0
 37 42  2  0  0  0  0
 37 38  1  0  0  0  0
 38 39  2  0  0  0  0
 39 43  1  0  0  0  0
 39 40  1  0  0  0  0
 40 44  1  0  0  0  0
 41 45  1  0  0  0  0
 41 40  2  0  0  0  0
 42 41  1  0  0  0  0
 46 42  1  0  0  0  0
M  END
>  <minimizedAffinity>
-7.43651676

$$$$

 OpenBabel03252501433D

 46 49  0  0  0  0  0  0  0  0999 V2000
   38.4660   31.1980   41.2250 C   0  0  0  0  0  0  0  0  0  0  0  0
   38.1570   31.5770   40.0340 O   0  0  0  0  0  0  0  0  0  0  0  0
   39.6070   31.8870   41.7290 N   0  0  0  0  0  0  0  0  0  0  0  0
   39.9840   31.7530   42.6600 H   0  0  0  0  0  0  0  0  0  0  0  0
   40.1140   32.7850   40.7140 C   0  0  0  0  0  0  0  0  0  0  0  0
   39.7680   34.0880   40.5460 C   0  0  0  0  0  0  0  0  0  0  0  0
   40.3610   34.7780   39.5220 C   0  0  0  0  0  0  0  0  0  0  0  0
   41.2580   34.0950   38.7500 N   0  0  0  0  0  0  0  0  0  0  0  0
   41.5810   32.8100   38.9400 C   0  0  0  0  0  0  0  0  0  0  0  0
   41.0000   32.1200   39.9480 N   0  0  0  0  0  0  0  0  0  0  0  0
   40.1040   35.8100   39.3670 H   0  0  0  0  0  0  0  0  0  0  0  0
   44.5050   33.5450   39.3950 Cl  0  0  0  0  0  0  0  0  0  0  0  0
   43.9100   32.4600   38.1550 C   0  0  0  0  0  0  0  0  0  0  0  0
   42.5630   32.1940   38.0340 C   0  0  0  0  0  0  0  0  0  0  0  0
   42.0610   31.3440   37.0690 C   0  0  0  0  0  0  0  0  0  0  0  0
   40.9990   31.1180   36.9520 H   0  0  0  0  0  0  0  0  0  0  0  0
   42.9490   30.7320   36.1810 C   0  0  0  0  0  3  0  0  0  0  0  0
   44.3130   30.9800   36.2760 C   0  0  0  0  0  0  0  0  0  0  0  0
   45.4220   30.2230   35.1780 Cl  0  0  0  0  0  0  0  0  0  0  0  0
   44.7690   31.8450   37.2680 C   0  0  0  0  0  0  0  0  0  0  0  0
   45.8220   32.0740   37.3890 H   0  0  0  0  0  0  0  0  0  0  0  0
   38.8240   34.6270   41.4380 N   0  0  0  0  0  0  0  0  0  0  0  0
   39.1130   35.4520   42.0280 H   0  0  0  0  0  0  0  0  0  0  0  0
   37.8680   34.1870   41.4850 H   0  0  0  0  0  0  0  0  0  0  0  0
   37.8170   30.2340   42.0020 O   0  0  0  0  0  0  0  0  0  0  0  0
   36.4980   28.1880   40.2940 Cl  0  0  0  0  0  0  0  0  0  0  0  0
   37.8760   27.9480   41.3560 C   0  0  0  0  0  0  0  0  0  0  0  0
   38.4270   28.9730   42.1210 C   0  0  0  0  0  0  0  0  0  0  0  0
   39.4960   28.7350   42.9300 C   0  0  0  0  0  0  0  0  0  0  0  0
   40.0920   27.4930   43.0440 C   0  0  0  0  0  0  0  0  0  0  0  0
   39.5580   26.4360   42.2810 C   0  0  0  0  0  0  0  0  0  0  0  0
   40.2450   24.8250   42.3590 Cl  0  0  0  0  0  0  0  0  0  0  0  0
   38.4770   26.7180   41.4770 C   0  0  0  0  0  0  0  0  0  0  0  0
   39.8760   29.5680   43.4950 H   0  0  0  0  0  0  0  0  0  0  0  0
   40.9410   27.3050   43.6850 H   0  0  0  0  0  0  0  0  0  0  0  0
   36.5740   25.0870   42.5550 F   0  0  0  0  0  0  0  0  0  0  0  0
   36.9420   24.8190   41.2560 C   0  0  0  0  0  0  0  0  0  0  0  0
   37.9080   25.6310   40.6790 C   0  0  0  0  0  0  0  0  0  0  0  0
   38.2550   25.3260   39.3600 C   0  0  0  0  0  0  0  0  0  0  0  0
   37.6290   24.2590   38.7250 C   0  0  0  0  0  0  0  0  0  0  0  0
   36.6660   23.4830   39.3630 C   0  0  0  0  0  0  0  0  0  0  0  0
   36.2950   23.7580   40.6790 C   0  0  0  0  0  0  0  0  0  0  0  0
   39.0010   25.9530   38.9160 H   0  0  0  0  0  0  0  0  0  0  0  0
   37.9560   24.0930   37.7090 H   0  0  0  0  0  0  0  0  0  0  0  0
   36.2090   22.6620   38.8200 H   0  0  0  0  0  0  0  0  0  0  0  0
   35.5620   23.1850   41.1970 H   0  0  0  0  0  0  0  0  0  0  0  0
  1  3  1  0  0  0  0
  1 25  1  0  0  0  0
  2  1  2  0  0  0  0
  3  4  1  0  0  0  0
  5  3  1  0  0  0  0
  6  5  1  0  0  0  0
  6 22  1  0  0  0  0
  7  6  2  0  0  0  0
  8  9  2  0  0  0  0
  8  7  1  0  0  0  0
  9 10  1  0  0  0  0
 10  5  2  0  0  0  0
 11  7  1  0  0  0  0
 13 12  1  0  0  0  0
 14 13  1  0  0  0  0
 14  9  1  0  0  0  0
 15 14  2  0  0  0  0
 16 15  1  0  0  0  0
 17 18  2  0  0  0  0
 17 15  1  0  0  0  0
 18 20  1  0  0  0  0
 19 18  1  0  0  0  0
 20 21  1  0  0  0  0
 20 13  2  0  0  0  0
 22 24  1  0  0  0  0
 22 23  1  0  0  0  0
 25 28  1  0  0  0  0
 26 27  1  0  0  0  0
 27 33  2  0  0  0  0
 27 28  1  0  0  0  0
 28 29  2  0  0  0  0
 29 30  1  0  0  0  0
 29 34  1  0  0  0  0
 30 35  1  0  0  0  0
 31 32  1  0  0  0  0
 31 30  2  0  0  0  0
 33 31  1  0  0  0  0
 37 36  1  0  0  0  0
 38 37  1  0  0  0  0
 38 33  1  0  0  0  0
 39 38  2  0  0  0  0
 40 39  1  0  0  0  0
 40 41  2  0  0  0  0
 41 42  1  0  0  0  0
 42 46  1  0  0  0  0
 42 37  2  0  0  0  0
 43 39  1  0  0  0  0
 44 40  1  0  0  0  0
 45 41  1  0  0  0  0
M  END
>  <minimizedAffinity>
-7.34166861

$$$$

 OpenBabel03252501433D

 46 49  0  0  0  0  0  0  0  0999 V2000
   38.4570   31.2430   41.2460 C   0  0  0  0  0  0  0  0  0  0  0  0
   38.1410   31.6440   40.0640 O   0  0  0  0  0  0  0  0  0  0  0  0
   39.6220   31.8960   41.7420 N   0  0  0  0  0  0  0  0  0  0  0  0
   40.0090   31.7410   42.6650 H   0  0  0  0  0  0  0  0  0  0  0  0
   40.1390   32.7920   40.7300 C   0  0  0  0  0  0  0  0  0  0  0  0
   39.7990   34.0970   40.5610 C   0  0  0  0  0  0  0  0  0  0  0  0
   40.4010   34.7850   39.5410 C   0  0  0  0  0  0  0  0  0  0  0  0
   41.2990   34.1000   38.7740 N   0  0  0  0  0  0  0  0  0  0  0  0
   41.6160   32.8130   38.9640 C   0  0  0  0  0  0  0  0  0  0  0  0
   41.0270   32.1240   39.9680 N   0  0  0  0  0  0  0  0  0  0  0  0
   40.1490   35.8180   39.3870 H   0  0  0  0  0  0  0  0  0  0  0  0
   44.5370   33.5630   39.4130 Cl  0  0  0  0  0  0  0  0  0  0  0  0
   43.9470   32.4670   38.1820 C   0  0  0  0  0  0  0  0  0  0  0  0
   42.6000   32.1940   38.0640 C   0  0  0  0  0  0  0  0  0  0  0  0
   42.1020   31.3340   37.1050 C   0  0  0  0  0  0  0  0  0  0  0  0
   41.0410   31.1020   36.9900 H   0  0  0  0  0  0  0  0  0  0  0  0
   42.9920   30.7180   36.2220 C   0  0  0  0  0  3  0  0  0  0  0  0
   44.3550   30.9730   36.3150 C   0  0  0  0  0  0  0  0  0  0  0  0
   45.4670   30.2120   35.2230 Cl  0  0  0  0  0  0  0  0  0  0  0  0
   44.8070   31.8470   37.3000 C   0  0  0  0  0  0  0  0  0  0  0  0
   45.8600   32.0820   37.4190 H   0  0  0  0  0  0  0  0  0  0  0  0
   38.8530   34.6390   41.4490 N   0  0  0  0  0  0  0  0  0  0  0  0
   39.1420   35.4630   42.0420 H   0  0  0  0  0  0  0  0  0  0  0  0
   37.8940   34.2020   41.4900 H   0  0  0  0  0  0  0  0  0  0  0  0
   37.7930   30.2870   42.0200 O   0  0  0  0  0  0  0  0  0  0  0  0
   36.3630   28.1750   40.4920 Cl  0  0  0  0  0  0  0  0  0  0  0  0
   37.7990   27.9720   41.4810 C   0  0  0  0  0  0  0  0  0  0  0  0
   38.4010   29.0270   42.1620 C   0  0  0  0  0  0  0  0  0  0  0  0
   39.5140   28.8170   42.9180 C   0  0  0  0  0  0  0  0  0  0  0  0
   40.1080   27.5760   43.0550 C   0  0  0  0  0  0  0  0  0  0  0  0
   39.5220   26.4900   42.3760 C   0  0  0  0  0  0  0  0  0  0  0  0
   40.2020   24.8770   42.4900 Cl  0  0  0  0  0  0  0  0  0  0  0  0
   38.3970   26.7440   41.6250 C   0  0  0  0  0  0  0  0  0  0  0  0
   39.9330   29.6720   43.4200 H   0  0  0  0  0  0  0  0  0  0  0  0
   40.9920   27.4100   43.6540 H   0  0  0  0  0  0  0  0  0  0  0  0
   39.1360   26.1820   39.0590 F   0  0  0  0  0  0  0  0  0  0  0  0
   38.1730   25.3670   39.6090 C   0  0  0  0  0  0  0  0  0  0  0  0
   37.7750   25.6260   40.9130 C   0  0  0  0  0  0  0  0  0  0  0  0
   36.7960   24.7770   41.4350 C   0  0  0  0  0  0  0  0  0  0  0  0
   36.2950   23.7520   40.6380 C   0  0  0  0  0  0  0  0  0  0  0  0
   36.7390   23.5470   39.3350 C   0  0  0  0  0  0  0  0  0  0  0  0
   37.7140   24.3750   38.7820 C   0  0  0  0  0  0  0  0  0  0  0  0
   36.4900   24.9790   42.4400 H   0  0  0  0  0  0  0  0  0  0  0  0
   35.5430   23.1440   41.1190 H   0  0  0  0  0  0  0  0  0  0  0  0
   36.3130   22.7320   38.7580 H   0  0  0  0  0  0  0  0  0  0  0  0
   38.0770   24.2450   37.7890 H   0  0  0  0  0  0  0  0  0  0  0  0
  1  3  1  0  0  0  0
  1 25  1  0  0  0  0
  2  1  2  0  0  0  0
  3  4  1  0  0  0  0
  5  3  1  0  0  0  0
  6  5  1  0  0  0  0
  6 22  1  0  0  0  0
  7  6  2  0  0  0  0
  8  9  2  0  0  0  0
  8  7  1  0  0  0  0
  9 10  1  0  0  0  0
 10  5  2  0  0  0  0
 11  7  1  0  0  0  0
 13 12  1  0  0  0  0
 14 13  1  0  0  0  0
 14  9  1  0  0  0  0
 15 14  2  0  0  0  0
 16 15  1  0  0  0  0
 17 18  2  0  0  0  0
 17 15  1  0  0  0  0
 18 20  1  0  0  0  0
 19 18  1  0  0  0  0
 20 21  1  0  0  0  0
 20 13  2  0  0  0  0
 22 24  1  0  0  0  0
 22 23  1  0  0  0  0
 25 28  1  0  0  0  0
 26 27  1  0  0  0  0
 27 33  2  0  0  0  0
 27 28  1  0  0  0  0
 28 29  2  0  0  0  0
 29 30  1  0  0  0  0
 29 34  1  0  0  0  0
 30 35  1  0  0  0  0
 31 32  1  0  0  0  0
 31 30  2  0  0  0  0
 33 31  1  0  0  0  0
 36 37  1  0  0  0  0
 37 38  1  0  0  0  0
 38 39  2  0  0  0  0
 38 33  1  0  0  0  0
 39 43  1  0  0  0  0
 40 44  1  0  0  0  0
 40 39  1  0  0  0  0
 41 40  2  0  0  0  0
 42 41  1  0  0  0  0
 42 37  2  0  0  0  0
 45 41  1  0  0  0  0
 46 42  1  0  0  0  0
M  END
>  <minimizedAffinity>
-7.20167112

$$$$

 OpenBabel03252501433D

 46 49  0  0  0  0  0  0  0  0999 V2000
   37.3320   29.7570   39.4150 C   0  0  0  0  0  0  0  0  0  0  0  0
   36.1710   29.2470   39.6340 O   0  0  0  0  0  0  0  0  0  0  0  0
   38.3340   29.1920   40.2570 N   0  0  0  0  0  0  0  0  0  0  0  0
   39.3160   29.4370   40.2120 H   0  0  0  0  0  0  0  0  0  0  0  0
   37.7250   28.2350   41.1550 C   0  0  0  0  0  0  0  0  0  0  0  0
   37.1630   28.5090   42.3620 C   0  0  0  0  0  0  0  0  0  0  0  0
   36.6330   27.4630   43.0700 C   0  0  0  0  0  0  0  0  0  0  0  0
   36.7140   26.2230   42.5020 N   0  0  0  0  0  0  0  0  0  0  0  0
   37.2740   25.9830   41.3100 C   0  0  0  0  0  0  0  0  0  0  0  0
   37.8000   27.0090   40.6030 N   0  0  0  0  0  0  0  0  0  0  0  0
   36.1830   27.6530   44.0270 H   0  0  0  0  0  0  0  0  0  0  0  0
   39.5730   24.2240   42.2710 Cl  0  0  0  0  0  0  0  0  0  0  0  0
   38.2920   23.7220   41.1880 C   0  0  0  0  0  0  0  0  0  0  0  0
   37.2960   24.5980   40.8140 C   0  0  0  0  0  0  0  0  0  0  0  0
   36.2730   24.2340   39.9620 C   0  0  0  0  0  0  0  0  0  0  0  0
   35.4730   24.9100   39.6500 H   0  0  0  0  0  0  0  0  0  0  0  0
   36.2440   22.9310   39.4590 C   0  0  0  0  0  3  0  0  0  0  0  0
   37.2330   22.0230   39.8160 C   0  0  0  0  0  0  0  0  0  0  0  0
   37.2040   20.4040   39.1970 Cl  0  0  0  0  0  0  0  0  0  0  0  0
   38.2440   22.4400   40.6790 C   0  0  0  0  0  0  0  0  0  0  0  0
   39.0410   21.7740   40.9920 H   0  0  0  0  0  0  0  0  0  0  0  0
   37.1690   29.8490   42.7890 N   0  0  0  0  0  0  0  0  0  0  0  0
   36.2410   30.3150   42.9770 H   0  0  0  0  0  0  0  0  0  0  0  0
   38.0970   30.3350   42.9040 H   0  0  0  0  0  0  0  0  0  0  0  0
   37.6610   30.7480   38.4850 O   0  0  0  0  0  0  0  0  0  0  0  0
   40.5940   31.0090   38.0770 Cl  0  0  0  0  0  0  0  0  0  0  0  0
   39.5250   32.1790   38.8330 C   0  0  0  0  0  0  0  0  0  0  0  0
   38.1570   31.9670   38.9790 C   0  0  0  0  0  0  0  0  0  0  0  0
   37.3710   32.9060   39.5740 C   0  0  0  0  0  0  0  0  0  0  0  0
   37.8630   34.1030   40.0580 C   0  0  0  0  0  0  0  0  0  0  0  0
   39.2430   34.3470   39.9230 C   0  0  0  0  0  0  0  0  0  0  0  0
   39.9620   35.8360   40.5080 Cl  0  0  0  0  0  0  0  0  0  0  0  0
   40.0040   33.3720   39.3180 C   0  0  0  0  0  0  0  0  0  0  0  0
   36.3210   32.6840   39.6570 H   0  0  0  0  0  0  0  0  0  0  0  0
   37.2390   34.8490   40.5290 H   0  0  0  0  0  0  0  0  0  0  0  0
   41.7130   32.6730   41.3250 F   0  0  0  0  0  0  0  0  0  0  0  0
   42.2840   33.2420   40.2100 C   0  0  0  0  0  0  0  0  0  0  0  0
   41.4400   33.6090   39.1700 C   0  0  0  0  0  0  0  0  0  0  0  0
   42.0580   34.1840   38.0560 C   0  0  0  0  0  0  0  0  0  0  0  0
   43.4390   34.3480   38.0570 C   0  0  0  0  0  0  0  0  0  0  0  0
   44.2280   33.9580   39.1350 C   0  0  0  0  0  0  0  0  0  0  0  0
   43.6460   33.3810   40.2640 C   0  0  0  0  0  0  0  0  0  0  0  0
   41.4060   34.4670   37.2550 H   0  0  0  0  0  0  0  0  0  0  0  0
   43.8330   34.8000   37.1590 H   0  0  0  0  0  0  0  0  0  0  0  0
   45.3010   34.1090   39.0830 H   0  0  0  0  0  0  0  0  0  0  0  0
   44.2200   33.0700   41.1060 H   0  0  0  0  0  0  0  0  0  0  0  0
  1  2  2  0  0  0  0
  1  3  1  0  0  0  0
  3  5  1  0  0  0  0
  4  3  1  0  0  0  0
  5  6  1  0  0  0  0
  6 22  1  0  0  0  0
  6  7  2  0  0  0  0
  7 11  1  0  0  0  0
  8  7  1  0  0  0  0
  9  8  2  0  0  0  0
 10  5  2  0  0  0  0
 10  9  1  0  0  0  0
 13 12  1  0  0  0  0
 14 13  1  0  0  0  0
 14  9  1  0  0  0  0
 15 14  2  0  0  0  0
 16 15  1  0  0  0  0
 17 18  2  0  0  0  0
 17 15  1  0  0  0  0
 18 20  1  0  0  0  0
 19 18  1  0  0  0  0
 20 21  1  0  0  0  0
 20 13  2  0  0  0  0
 22 24  1  0  0  0  0
 22 23  1  0  0  0  0
 25 28  1  0  0  0  0
 25  1  1  0  0  0  0
 26 27  1  0  0  0  0
 27 28  2  0  0  0  0
 27 33  1  0  0  0  0
 28 29  1  0  0  0  0
 29 34  1  0  0  0  0
 29 30  2  0  0  0  0
 30 35  1  0  0  0  0
 31 30  1  0  0  0  0
 31 32  1  0  0  0  0
 33 31  2  0  0  0  0
 37 42  1  0  0  0  0
 37 36  1  0  0  0  0
 38 33  1  0  0  0  0
 38 37  2  0  0  0  0
 39 40  2  0  0  0  0
 39 38  1  0  0  0  0
 40 41  1  0  0  0  0
 41 42  2  0  0  0  0
 42 46  1  0  0  0  0
 43 39  1  0  0  0  0
 44 40  1  0  0  0  0
 45 41  1  0  0  0  0
M  END
>  <minimizedAffinity>
-7.11696815

$$$$

 OpenBabel03252501433D

 46 49  0  0  0  0  0  0  0  0999 V2000
   41.3710   28.7670   37.2400 C   0  0  0  0  0  0  0  0  0  0  0  0
   42.5310   28.4930   37.7280 O   0  0  0  0  0  0  0  0  0  0  0  0
   41.3210   30.0760   36.6770 N   0  0  0  0  0  0  0  0  0  0  0  0
   40.5070   30.4620   36.2140 H   0  0  0  0  0  0  0  0  0  0  0  0
   42.5950   30.7340   36.8730 C   0  0  0  0  0  0  0  0  0  0  0  0
   43.6810   30.6430   36.0610 C   0  0  0  0  0  0  0  0  0  0  0  0
   44.8030   31.3450   36.4170 C   0  0  0  0  0  0  0  0  0  0  0  0
   44.7360   32.0820   37.5650 N   0  0  0  0  0  0  0  0  0  0  0  0
   43.6510   32.1530   38.3460 C   0  0  0  0  0  0  0  0  0  0  0  0
   42.5390   31.4640   38.0040 N   0  0  0  0  0  0  0  0  0  0  0  0
   45.6750   31.2900   35.7920 H   0  0  0  0  0  0  0  0  0  0  0  0
   41.4810   34.2720   38.6600 Cl  0  0  0  0  0  0  0  0  0  0  0  0
   42.7810   33.9720   39.7950 C   0  0  0  0  0  0  0  0  0  0  0  0
   43.7140   32.9850   39.5580 C   0  0  0  0  0  0  0  0  0  0  0  0
   44.7500   32.7220   40.4310 C   0  0  0  0  0  0  0  0  0  0  0  0
   45.5020   31.9470   40.2660 H   0  0  0  0  0  0  0  0  0  0  0  0
   44.8590   33.4820   41.5980 C   0  0  0  0  0  3  0  0  0  0  0  0
   43.9340   34.4850   41.8660 C   0  0  0  0  0  0  0  0  0  0  0  0
   44.0620   35.4330   43.3120 Cl  0  0  0  0  0  0  0  0  0  0  0  0
   42.9070   34.7100   40.9530 C   0  0  0  0  0  0  0  0  0  0  0  0
   42.1580   35.4790   41.1110 H   0  0  0  0  0  0  0  0  0  0  0  0
   43.5680   29.8340   34.9170 N   0  0  0  0  0  0  0  0  0  0  0  0
   43.7070   30.2850   33.9740 H   0  0  0  0  0  0  0  0  0  0  0  0
   43.3480   28.8110   35.0450 H   0  0  0  0  0  0  0  0  0  0  0  0
   40.2440   27.9410   37.2210 O   0  0  0  0  0  0  0  0  0  0  0  0
   40.1760   27.3820   40.1400 Cl  0  0  0  0  0  0  0  0  0  0  0  0
   38.9490   28.2090   39.1950 C   0  0  0  0  0  0  0  0  0  0  0  0
   39.0710   28.4260   37.8250 C   0  0  0  0  0  0  0  0  0  0  0  0
   38.0900   29.0720   37.1370 C   0  0  0  0  0  0  0  0  0  0  0  0
   36.9370   29.5470   37.7350 C   0  0  0  0  0  0  0  0  0  0  0  0
   36.7860   29.3440   39.1200 C   0  0  0  0  0  0  0  0  0  0  0  0
   35.3590   29.9080   39.9690 Cl  0  0  0  0  0  0  0  0  0  0  0  0
   37.8000   28.6850   39.7790 C   0  0  0  0  0  0  0  0  0  0  0  0
   38.2420   29.2100   36.0800 H   0  0  0  0  0  0  0  0  0  0  0  0
   36.1590   30.0610   37.1890 H   0  0  0  0  0  0  0  0  0  0  0  0
   36.5560   26.4380   40.6980 F   0  0  0  0  0  0  0  0  0  0  0  0
   37.0200   27.3120   41.6540 C   0  0  0  0  0  0  0  0  0  0  0  0
   37.6580   28.4650   41.2190 C   0  0  0  0  0  0  0  0  0  0  0  0
   38.1150   29.3260   42.2200 C   0  0  0  0  0  0  0  0  0  0  0  0
   37.9090   28.9850   43.5520 C   0  0  0  0  0  0  0  0  0  0  0  0
   37.2590   27.8110   43.9220 C   0  0  0  0  0  0  0  0  0  0  0  0
   36.7900   26.9280   42.9490 C   0  0  0  0  0  0  0  0  0  0  0  0
   38.6070   30.2150   41.8830 H   0  0  0  0  0  0  0  0  0  0  0  0
   38.2920   29.7060   44.2600 H   0  0  0  0  0  0  0  0  0  0  0  0
   37.1250   27.5940   44.9760 H   0  0  0  0  0  0  0  0  0  0  0  0
   36.2900   26.0200   43.1970 H   0  0  0  0  0  0  0  0  0  0  0  0
  1  2  2  0  0  0  0
  3  5  1  0  0  0  0
  3  1  1  0  0  0  0
  4  3  1  0  0  0  0
  5 10  1  0  0  0  0
  6  7  1  0  0  0  0
  6  5  2  0  0  0  0
  7  8  2  0  0  0  0
  8  9  1  0  0  0  0
  9 14  1  0  0  0  0
 10  9  2  0  0  0  0
 11  7  1  0  0  0  0
 12 13  1  0  0  0  0
 13 20  1  0  0  0  0
 14 13  2  0  0  0  0
 14 15  1  0  0  0  0
 15 17  2  0  0  0  0
 16 15  1  0  0  0  0
 17 18  1  0  0  0  0
 18 19  1  0  0  0  0
 20 21  1  0  0  0  0
 20 18  2  0  0  0  0
 22 24  1  0  0  0  0
 22  6  1  0  0  0  0
 23 22  1  0  0  0  0
 25  1  1  0  0  0  0
 25 28  1  0  0  0  0
 27 33  1  0  0  0  0
 27 26  1  0  0  0  0
 28 27  2  0  0  0  0
 29 30  2  0  0  0  0
 29 28  1  0  0  0  0
 30 31  1  0  0  0  0
 31 33  2  0  0  0  0
 31 32  1  0  0  0  0
 33 38  1  0  0  0  0
 34 29  1  0  0  0  0
 35 30  1  0  0  0  0
 36 37  1  0  0  0  0
 37 42  1  0  0  0  0
 38 37  2  0  0  0  0
 38 39  1  0  0  0  0
 39 40  2  0  0  0  0
 40 41  1  0  0  0  0
 40 44  1  0  0  0  0
 41 45  1  0  0  0  0
 42 46  1  0  0  0  0
 42 41  2  0  0  0  0
 43 39  1  0  0  0  0
M  END
>  <minimizedAffinity>
-6.86700916

$$$$

 OpenBabel03252501433D

 46 49  0  0  0  0  0  0  0  0999 V2000
   38.5450   30.9010   39.9740 C   0  0  0  0  0  0  0  0  0  0  0  0
   39.6920   30.3440   39.7950 O   0  0  0  0  0  0  0  0  0  0  0  0
   38.5540   32.2780   39.6060 N   0  0  0  0  0  0  0  0  0  0  0  0
   37.7390   32.8790   39.6420 H   0  0  0  0  0  0  0  0  0  0  0  0
   39.8850   32.6550   39.1830 C   0  0  0  0  0  0  0  0  0  0  0  0
   40.3770   32.5870   37.9180 C   0  0  0  0  0  0  0  0  0  0  0  0
   41.6700   32.9930   37.7140 C   0  0  0  0  0  0  0  0  0  0  0  0
   42.3620   33.4350   38.8060 N   0  0  0  0  0  0  0  0  0  0  0  0
   41.8510   33.4910   40.0420 C   0  0  0  0  0  0  0  0  0  0  0  0
   40.5750   33.0930   40.2530 N   0  0  0  0  0  0  0  0  0  0  0  0
   42.0830   32.9480   36.7230 H   0  0  0  0  0  0  0  0  0  0  0  0
   43.7270   31.4660   41.3370 Cl  0  0  0  0  0  0  0  0  0  0  0  0
   43.5890   33.1530   41.7830 C   0  0  0  0  0  0  0  0  0  0  0  0
   42.7060   33.9880   41.1310 C   0  0  0  0  0  0  0  0  0  0  0  0
   42.5720   35.3230   41.4570 C   0  0  0  0  0  0  0  0  0  0  0  0
   41.8800   36.0040   40.9570 H   0  0  0  0  0  0  0  0  0  0  0  0
   43.3590   35.8490   42.4840 C   0  0  0  0  0  3  0  0  0  0  0  0
   44.2590   35.0340   43.1610 C   0  0  0  0  0  0  0  0  0  0  0  0
   45.2390   35.6790   44.4380 Cl  0  0  0  0  0  0  0  0  0  0  0  0
   44.3560   33.6940   42.7940 C   0  0  0  0  0  0  0  0  0  0  0  0
   45.0410   33.0120   43.2870 H   0  0  0  0  0  0  0  0  0  0  0  0
   39.5180   32.1040   36.9150 N   0  0  0  0  0  0  0  0  0  0  0  0
   39.2970   32.7390   36.1020 H   0  0  0  0  0  0  0  0  0  0  0  0
   39.1290   31.1290   37.0130 H   0  0  0  0  0  0  0  0  0  0  0  0
   37.3810   30.3030   40.4650 O   0  0  0  0  0  0  0  0  0  0  0  0
   38.5110   27.7320   41.4390 Cl  0  0  0  0  0  0  0  0  0  0  0  0
   37.3410   27.9490   40.1480 C   0  0  0  0  0  0  0  0  0  0  0  0
   36.8680   29.2000   39.7610 C   0  0  0  0  0  0  0  0  0  0  0  0
   35.9600   29.3150   38.7520 C   0  0  0  0  0  0  0  0  0  0  0  0
   35.4590   28.2270   38.0630 C   0  0  0  0  0  0  0  0  0  0  0  0
   35.9180   26.9480   38.4320 C   0  0  0  0  0  0  0  0  0  0  0  0
   35.3420   25.5070   37.6160 Cl  0  0  0  0  0  0  0  0  0  0  0  0
   36.8360   26.8750   39.4560 C   0  0  0  0  0  0  0  0  0  0  0  0
   35.6320   30.3090   38.5000 H   0  0  0  0  0  0  0  0  0  0  0  0
   34.7380   28.3180   37.2630 H   0  0  0  0  0  0  0  0  0  0  0  0
   39.0360   25.8140   38.2400 F   0  0  0  0  0  0  0  0  0  0  0  0
   38.4450   25.0410   39.2140 C   0  0  0  0  0  0  0  0  0  0  0  0
   37.3240   25.5530   39.8520 C   0  0  0  0  0  0  0  0  0  0  0  0
   36.7540   24.7390   40.8340 C   0  0  0  0  0  0  0  0  0  0  0  0
   37.3290   23.5020   41.1050 C   0  0  0  0  0  0  0  0  0  0  0  0
   38.4560   23.0470   40.4260 C   0  0  0  0  0  0  0  0  0  0  0  0
   39.0510   23.8330   39.4400 C   0  0  0  0  0  0  0  0  0  0  0  0
   35.8890   25.1340   41.3250 H   0  0  0  0  0  0  0  0  0  0  0  0
   36.8260   22.9370   41.8760 H   0  0  0  0  0  0  0  0  0  0  0  0
   38.8640   22.0730   40.6780 H   0  0  0  0  0  0  0  0  0  0  0  0
   39.9150   23.5170   38.9020 H   0  0  0  0  0  0  0  0  0  0  0  0
  1 25  1  0  0  0  0
  2  1  2  0  0  0  0
  3  4  1  0  0  0  0
  3  1  1  0  0  0  0
  5  3  1  0  0  0  0
  5 10  1  0  0  0  0
  6  5  2  0  0  0  0
  7  6  1  0  0  0  0
  7  8  2  0  0  0  0
  8  9  1  0  0  0  0
  9 10  2  0  0  0  0
  9 14  1  0  0  0  0
 11  7  1  0  0  0  0
 12 13  1  0  0  0  0
 13 20  1  0  0  0  0
 14 15  1  0  0  0  0
 14 13  2  0  0  0  0
 15 17  2  0  0  0  0
 16 15  1  0  0  0  0
 17 18  1  0  0  0  0
 18 19  1  0  0  0  0
 20 18  2  0  0  0  0
 20 21  1  0  0  0  0
 22 24  1  0  0  0  0
 22  6  1  0  0  0  0
 23 22  1  0  0  0  0
 27 26  1  0  0  0  0
 28 27  1  0  0  0  0
 28 25  1  0  0  0  0
 29 28  2  0  0  0  0
 30 31  2  0  0  0  0
 30 29  1  0  0  0  0
 31 33  1  0  0  0  0
 32 31  1  0  0  0  0
 33 38  1  0  0  0  0
 33 27  2  0  0  0  0
 34 29  1  0  0  0  0
 35 30  1  0  0  0  0
 36 37  1  0  0  0  0
 37 42  2  0  0  0  0
 37 38  1  0  0  0  0
 38 39  2  0  0  0  0
 39 40  1  0  0  0  0
 39 43  1  0  0  0  0
 40 44  1  0  0  0  0
 41 45  1  0  0  0  0
 41 40  2  0  0  0  0
 42 41  1  0  0  0  0
 46 42  1  0  0  0  0
M  END
>  <minimizedAffinity>
-6.73443127

$$$$

 OpenBabel03252501433D

 46 49  0  0  0  0  0  0  0  0999 V2000
   35.4630   29.7300   39.9780 C   0  0  0  0  0  0  0  0  0  0  0  0
   34.4780   28.9470   40.2510 O   0  0  0  0  0  0  0  0  0  0  0  0
   36.1700   29.3180   38.8110 N   0  0  0  0  0  0  0  0  0  0  0  0
   36.9540   29.8240   38.4160 H   0  0  0  0  0  0  0  0  0  0  0  0
   35.5900   28.0940   38.3040 C   0  0  0  0  0  0  0  0  0  0  0  0
   34.5410   27.9950   37.4450 C   0  0  0  0  0  0  0  0  0  0  0  0
   34.1350   26.7400   37.0780 C   0  0  0  0  0  0  0  0  0  0  0  0
   34.8210   25.6840   37.6080 N   0  0  0  0  0  0  0  0  0  0  0  0
   35.8510   25.8110   38.4530 C   0  0  0  0  0  0  0  0  0  0  0  0
   36.2610   27.0470   38.8210 N   0  0  0  0  0  0  0  0  0  0  0  0
   33.3080   26.6350   36.4000 H   0  0  0  0  0  0  0  0  0  0  0  0
   36.9490   25.9120   41.2960 Cl  0  0  0  0  0  0  0  0  0  0  0  0
   37.0320   24.5320   40.2220 C   0  0  0  0  0  0  0  0  0  0  0  0
   36.5030   24.5900   38.9510 C   0  0  0  0  0  0  0  0  0  0  0  0
   36.5520   23.5200   38.0800 C   0  0  0  0  0  0  0  0  0  0  0  0
   36.1410   23.5420   37.0680 H   0  0  0  0  0  0  0  0  0  0  0  0
   37.1600   22.3350   38.5000 C   0  0  0  0  0  3  0  0  0  0  0  0
   37.7040   22.2430   39.7750 C   0  0  0  0  0  0  0  0  0  0  0  0
   38.4600   20.7760   40.3050 Cl  0  0  0  0  0  0  0  0  0  0  0  0
   37.6280   23.3510   40.6160 C   0  0  0  0  0  0  0  0  0  0  0  0
   38.0350   23.3370   41.6220 H   0  0  0  0  0  0  0  0  0  0  0  0
   33.9550   29.1930   37.0000 N   0  0  0  0  0  0  0  0  0  0  0  0
   33.9500   29.3890   35.9640 H   0  0  0  0  0  0  0  0  0  0  0  0
   33.5450   29.8490   37.7170 H   0  0  0  0  0  0  0  0  0  0  0  0
   35.8620   30.8680   40.6870 O   0  0  0  0  0  0  0  0  0  0  0  0
   37.2250   33.1220   39.3090 Cl  0  0  0  0  0  0  0  0  0  0  0  0
   37.9390   31.9980   40.4530 C   0  0  0  0  0  0  0  0  0  0  0  0
   37.2160   30.9680   41.0500 C   0  0  0  0  0  0  0  0  0  0  0  0
   37.8170   30.1220   41.9310 C   0  0  0  0  0  0  0  0  0  0  0  0
   39.1480   30.2240   42.2850 C   0  0  0  0  0  0  0  0  0  0  0  0
   39.9060   31.2560   41.6990 C   0  0  0  0  0  0  0  0  0  0  0  0
   41.6040   31.4670   42.0830 Cl  0  0  0  0  0  0  0  0  0  0  0  0
   39.2620   32.0900   40.8120 C   0  0  0  0  0  0  0  0  0  0  0  0
   37.2050   29.3470   42.3600 H   0  0  0  0  0  0  0  0  0  0  0  0
   39.6250   29.5530   42.9850 H   0  0  0  0  0  0  0  0  0  0  0  0
   40.6580   31.6200   38.5160 F   0  0  0  0  0  0  0  0  0  0  0  0
   40.7340   32.8960   39.0250 C   0  0  0  0  0  0  0  0  0  0  0  0
   40.0340   33.1680   40.1920 C   0  0  0  0  0  0  0  0  0  0  0  0
   40.1370   34.4750   40.6770 C   0  0  0  0  0  0  0  0  0  0  0  0
   40.9100   35.3960   39.9790 C   0  0  0  0  0  0  0  0  0  0  0  0
   41.5880   35.0570   38.8120 C   0  0  0  0  0  0  0  0  0  0  0  0
   41.5090   33.7630   38.2990 C   0  0  0  0  0  0  0  0  0  0  0  0
   39.5970   34.6820   41.5770 H   0  0  0  0  0  0  0  0  0  0  0  0
   40.9350   36.3810   40.4230 H   0  0  0  0  0  0  0  0  0  0  0  0
   42.1780   35.8160   38.3080 H   0  0  0  0  0  0  0  0  0  0  0  0
   42.0140   33.4700   37.4080 H   0  0  0  0  0  0  0  0  0  0  0  0
  1  2  2  0  0  0  0
  1 25  1  0  0  0  0
  3  1  1  0  0  0  0
  4  3  1  0  0  0  0
  5  3  1  0  0  0  0
  5 10  1  0  0  0  0
  6  5  2  0  0  0  0
  7  6  1  0  0  0  0
  7  8  2  0  0  0  0
  8  9  1  0  0  0  0
  9 10  2  0  0  0  0
  9 14  1  0  0  0  0
 11  7  1  0  0  0  0
 13 20  1  0  0  0  0
 13 12  1  0  0  0  0
 14 13  2  0  0  0  0
 15 17  2  0  0  0  0
 15 14  1  0  0  0  0
 16 15  1  0  0  0  0
 17 18  1  0  0  0  0
 18 19  1  0  0  0  0
 18 20  2  0  0  0  0
 20 21  1  0  0  0  0
 22  6  1  0  0  0  0
 22 24  1  0  0  0  0
 23 22  1  0  0  0  0
 25 28  1  0  0  0  0
 26 27  1  0  0  0  0
 27 33  2  0  0  0  0
 27 28  1  0  0  0  0
 28 29  2  0  0  0  0
 29 30  1  0  0  0  0
 29 34  1  0  0  0  0
 30 35  1  0  0  0  0
 31 32  1  0  0  0  0
 31 30  2  0  0  0  0
 33 31  1  0  0  0  0
 36 37  1  0  0  0  0
 37 38  1  0  0  0  0
 38 39  2  0  0  0  0
 38 33  1  0  0  0  0
 39 43  1  0  0  0  0
 40 44  1  0  0  0  0
 40 39  1  0  0  0  0
 41 40  2  0  0  0  0
 42 41  1  0  0  0  0
 42 37  2  0  0  0  0
 45 41  1  0  0  0  0
 46 42  1  0  0  0  0
M  END
>  <minimizedAffinity>
-6.62057734

$$$$

 OpenBabel03252501433D

 46 49  0  0  0  0  0  0  0  0999 V2000
   38.3490   28.2950   42.9620 C   0  0  0  0  0  0  0  0  0  0  0  0
   37.6220   27.4100   43.5500 O   0  0  0  0  0  0  0  0  0  0  0  0
   39.3370   27.7060   42.1210 N   0  0  0  0  0  0  0  0  0  0  0  0
   39.9830   28.2370   41.5490 H   0  0  0  0  0  0  0  0  0  0  0  0
   39.2580   26.2650   42.2210 C   0  0  0  0  0  0  0  0  0  0  0  0
   39.8400   25.4910   43.1750 C   0  0  0  0  0  0  0  0  0  0  0  0
   39.6480   24.1370   43.1010 C   0  0  0  0  0  0  0  0  0  0  0  0
   38.8830   23.6720   42.0690 N   0  0  0  0  0  0  0  0  0  0  0  0
   38.3210   24.4590   41.1430 C   0  0  0  0  0  0  0  0  0  0  0  0
   38.5050   25.7980   41.2070 N   0  0  0  0  0  0  0  0  0  0  0  0
   40.0980   23.5030   43.8430 H   0  0  0  0  0  0  0  0  0  0  0  0
   39.8470   23.4080   38.7210 Cl  0  0  0  0  0  0  0  0  0  0  0  0
   38.1120   23.3220   38.9460 C   0  0  0  0  0  0  0  0  0  0  0  0
   37.5200   23.8290   40.0830 C   0  0  0  0  0  0  0  0  0  0  0  0
   36.1560   23.7780   40.2910 C   0  0  0  0  0  0  0  0  0  0  0  0
   35.6620   24.1730   41.1820 H   0  0  0  0  0  0  0  0  0  0  0  0
   35.3460   23.1910   39.3160 C   0  0  0  0  0  3  0  0  0  0  0  0
   35.9120   22.6700   38.1590 C   0  0  0  0  0  0  0  0  0  0  0  0
   34.9130   21.9400   36.9440 Cl  0  0  0  0  0  0  0  0  0  0  0  0
   37.2930   22.7470   37.9970 C   0  0  0  0  0  0  0  0  0  0  0  0
   37.7890   22.3570   37.1140 H   0  0  0  0  0  0  0  0  0  0  0  0
   40.5960   26.1440   44.1650 N   0  0  0  0  0  0  0  0  0  0  0  0
   40.3010   26.0300   45.1710 H   0  0  0  0  0  0  0  0  0  0  0  0
   41.4250   26.7210   43.8650 H   0  0  0  0  0  0  0  0  0  0  0  0
   38.2500   29.6840   43.0790 O   0  0  0  0  0  0  0  0  0  0  0  0
   40.5400   31.3440   42.1600 Cl  0  0  0  0  0  0  0  0  0  0  0  0
   38.9560   31.2250   41.4120 C   0  0  0  0  0  0  0  0  0  0  0  0
   37.9420   30.4160   41.9180 C   0  0  0  0  0  0  0  0  0  0  0  0
   36.7300   30.3580   41.3000 C   0  0  0  0  0  0  0  0  0  0  0  0
   36.4310   31.0790   40.1600 C   0  0  0  0  0  0  0  0  0  0  0  0
   37.4370   31.9060   39.6240 C   0  0  0  0  0  0  0  0  0  0  0  0
   37.1530   32.8600   38.1800 Cl  0  0  0  0  0  0  0  0  0  0  0  0
   38.6480   31.9370   40.2790 C   0  0  0  0  0  0  0  0  0  0  0  0
   35.9870   29.7140   41.7390 H   0  0  0  0  0  0  0  0  0  0  0  0
   35.4690   31.0330   39.6690 H   0  0  0  0  0  0  0  0  0  0  0  0
   40.3500   30.9610   38.3830 F   0  0  0  0  0  0  0  0  0  0  0  0
   40.5550   32.2650   38.7730 C   0  0  0  0  0  0  0  0  0  0  0  0
   39.7050   32.7910   39.7360 C   0  0  0  0  0  0  0  0  0  0  0  0
   39.9450   34.1180   40.1040 C   0  0  0  0  0  0  0  0  0  0  0  0
   40.9900   34.8090   39.5010 C   0  0  0  0  0  0  0  0  0  0  0  0
   41.8070   34.2200   38.5390 C   0  0  0  0  0  0  0  0  0  0  0  0
   41.5960   32.8990   38.1470 C   0  0  0  0  0  0  0  0  0  0  0  0
   39.2890   34.5220   40.8470 H   0  0  0  0  0  0  0  0  0  0  0  0
   41.1060   35.8270   39.8440 H   0  0  0  0  0  0  0  0  0  0  0  0
   42.6080   34.8060   38.1010 H   0  0  0  0  0  0  0  0  0  0  0  0
   42.2010   32.4180   37.4140 H   0  0  0  0  0  0  0  0  0  0  0  0
  1 25  1  0  0  0  0
  1  2  2  0  0  0  0
  3  5  1  0  0  0  0
  3  1  1  0  0  0  0
  4  3  1  0  0  0  0
  5  6  1  0  0  0  0
  6 22  1  0  0  0  0
  7  6  2  0  0  0  0
  7 11  1  0  0  0  0
  8  7  1  0  0  0  0
  9 10  1  0  0  0  0
  9  8  2  0  0  0  0
 10  5  2  0  0  0  0
 12 13  1  0  0  0  0
 13 14  1  0  0  0  0
 14 15  2  0  0  0  0
 14  9  1  0  0  0  0
 15 16  1  0  0  0  0
 17 15  1  0  0  0  0
 18 17  2  0  0  0  0
 19 18  1  0  0  0  0
 20 18  1  0  0  0  0
 20 13  2  0  0  0  0
 21 20  1  0  0  0  0
 22 23  1  0  0  0  0
 24 22  1  0  0  0  0
 27 28  1  0  0  0  0
 27 26  1  0  0  0  0
 28 25  1  0  0  0  0
 29 34  1  0  0  0  0
 29 28  2  0  0  0  0
 30 29  1  0  0  0  0
 31 30  2  0  0  0  0
 31 33  1  0  0  0  0
 32 31  1  0  0  0  0
 33 27  2  0  0  0  0
 35 30  1  0  0  0  0
 36 37  1  0  0  0  0
 37 38  1  0  0  0  0
 38 39  2  0  0  0  0
 38 33  1  0  0  0  0
 39 43  1  0  0  0  0
 40 44  1  0  0  0  0
 40 39  1  0  0  0  0
 41 40  2  0  0  0  0
 42 41  1  0  0  0  0
 42 37  2  0  0  0  0
 45 41  1  0  0  0  0
 46 42  1  0  0  0  0
M  END
>  <minimizedAffinity>
-6.6058712

$$$$

 OpenBabel03252501433D

 46 49  0  0  0  0  0  0  0  0999 V2000
   38.4310   27.4020   41.7900 C   0  0  0  0  0  0  0  0  0  0  0  0
   39.0120   26.9810   40.7210 O   0  0  0  0  0  0  0  0  0  0  0  0
   37.5620   26.4200   42.3510 N   0  0  0  0  0  0  0  0  0  0  0  0
   37.0420   26.5490   43.2100 H   0  0  0  0  0  0  0  0  0  0  0  0
   37.5560   25.2450   41.5070 C   0  0  0  0  0  0  0  0  0  0  0  0
   38.2790   24.1100   41.7020 C   0  0  0  0  0  0  0  0  0  0  0  0
   38.1360   23.1000   40.7880 C   0  0  0  0  0  0  0  0  0  0  0  0
   37.2740   23.3160   39.7510 N   0  0  0  0  0  0  0  0  0  0  0  0
   36.5730   24.4450   39.5850 C   0  0  0  0  0  0  0  0  0  0  0  0
   36.7070   25.4490   40.4810 N   0  0  0  0  0  0  0  0  0  0  0  0
   38.6970   22.1930   40.9190 H   0  0  0  0  0  0  0  0  0  0  0  0
   34.0350   22.7570   39.6620 Cl  0  0  0  0  0  0  0  0  0  0  0  0
   34.5050   23.8270   38.3580 C   0  0  0  0  0  0  0  0  0  0  0  0
   35.6790   24.5490   38.4220 C   0  0  0  0  0  0  0  0  0  0  0  0
   36.0780   25.4000   37.4120 C   0  0  0  0  0  0  0  0  0  0  0  0
   37.0030   25.9820   37.4390 H   0  0  0  0  0  0  0  0  0  0  0  0
   35.2670   25.5370   36.2830 C   0  0  0  0  0  3  0  0  0  0  0  0
   34.0790   24.8240   36.1880 C   0  0  0  0  0  0  0  0  0  0  0  0
   33.0660   24.9880   34.7900 Cl  0  0  0  0  0  0  0  0  0  0  0  0
   33.7200   23.9780   37.2340 C   0  0  0  0  0  0  0  0  0  0  0  0
   32.8030   23.3970   37.2140 H   0  0  0  0  0  0  0  0  0  0  0  0
   39.1190   24.0640   42.8280 N   0  0  0  0  0  0  0  0  0  0  0  0
   38.9510   23.3070   43.5430 H   0  0  0  0  0  0  0  0  0  0  0  0
   39.8820   24.7860   42.9160 H   0  0  0  0  0  0  0  0  0  0  0  0
   38.5760   28.6530   42.3970 O   0  0  0  0  0  0  0  0  0  0  0  0
   40.8640   30.1610   41.2440 Cl  0  0  0  0  0  0  0  0  0  0  0  0
   39.1590   30.5520   41.0940 C   0  0  0  0  0  0  0  0  0  0  0  0
   38.1540   29.7810   41.6720 C   0  0  0  0  0  0  0  0  0  0  0  0
   36.8460   30.1280   41.5260 C   0  0  0  0  0  0  0  0  0  0  0  0
   36.4360   31.2390   40.8120 C   0  0  0  0  0  0  0  0  0  0  0  0
   37.4300   32.0380   40.2150 C   0  0  0  0  0  0  0  0  0  0  0  0
   37.0100   33.4680   39.2910 Cl  0  0  0  0  0  0  0  0  0  0  0  0
   38.7410   31.6540   40.3870 C   0  0  0  0  0  0  0  0  0  0  0  0
   36.1160   29.4920   41.9960 H   0  0  0  0  0  0  0  0  0  0  0  0
   35.3980   31.5130   40.6960 H   0  0  0  0  0  0  0  0  0  0  0  0
   39.5820   31.1130   37.8490 F   0  0  0  0  0  0  0  0  0  0  0  0
   40.1930   32.1720   38.4810 C   0  0  0  0  0  0  0  0  0  0  0  0
   39.7870   32.4730   39.7740 C   0  0  0  0  0  0  0  0  0  0  0  0
   40.4300   33.5550   40.3810 C   0  0  0  0  0  0  0  0  0  0  0  0
   41.4090   34.2440   39.6730 C   0  0  0  0  0  0  0  0  0  0  0  0
   41.7700   33.8890   38.3760 C   0  0  0  0  0  0  0  0  0  0  0  0
   41.1490   32.8150   37.7390 C   0  0  0  0  0  0  0  0  0  0  0  0
   40.1160   33.7860   41.3780 H   0  0  0  0  0  0  0  0  0  0  0  0
   41.8550   35.0640   40.2150 H   0  0  0  0  0  0  0  0  0  0  0  0
   42.5410   34.4610   37.8700 H   0  0  0  0  0  0  0  0  0  0  0  0
   41.4000   32.5170   36.7480 H   0  0  0  0  0  0  0  0  0  0  0  0
  1  3  1  0  0  0  0
  1 25  1  0  0  0  0
  2  1  2  0  0  0  0
  3  4  1  0  0  0  0
  5  6  1  0  0  0  0
  5  3  1  0  0  0  0
  6 22  1  0  0  0  0
  7 11  1  0  0  0  0
  7  6  2  0  0  0  0
  8  7  1  0  0  0  0
  9  8  2  0  0  0  0
  9 10  1  0  0  0  0
 10  5  2  0  0  0  0
 13 14  1  0  0  0  0
 13 12  1  0  0  0  0
 14  9  1  0  0  0  0
 15 16  1  0  0  0  0
 15 14  2  0  0  0  0
 17 15  1  0  0  0  0
 18 17  2  0  0  0  0
 18 20  1  0  0  0  0
 19 18  1  0  0  0  0
 20 13  2  0  0  0  0
 21 20  1  0  0  0  0
 22 24  1  0  0  0  0
 22 23  1  0  0  0  0
 27 26  1  0  0  0  0
 27 28  1  0  0  0  0
 28 25  1  0  0  0  0
 29 28  2  0  0  0  0
 29 34  1  0  0  0  0
 30 29  1  0  0  0  0
 31 33  1  0  0  0  0
 31 30  2  0  0  0  0
 32 31  1  0  0  0  0
 33 27  2  0  0  0  0
 35 30  1  0  0  0  0
 36 37  1  0  0  0  0
 37 38  1  0  0  0  0
 38 39  2  0  0  0  0
 38 33  1  0  0  0  0
 39 43  1  0  0  0  0
 40 44  1  0  0  0  0
 40 39  1  0  0  0  0
 41 40  2  0  0  0  0
 42 41  1  0  0  0  0
 42 37  2  0  0  0  0
 45 41  1  0  0  0  0
 46 42  1  0  0  0  0
M  END
>  <minimizedAffinity>
-6.47001362

$$$$
