
 OpenBabel03242523533D

 46 49  0  0  1  0  0  0  0  0999 V2000
   42.8050   34.5630   38.7230 C   0  0  1  0  0  0  0  0  0  0  0  0
   42.9380   35.1870   40.1030 C   0  0  1  0  0  0  0  0  0  0  0  0
   41.6400   35.3710   40.6280 O   0  0  0  0  0  0  0  0  0  0  0  0
   40.7080   35.7240   39.6480 C   0  0  0  0  0  0  0  0  0  0  0  0
   40.4260   34.5820   38.6920 C   0  0  2  0  0  0  0  0  0  0  0  0
   41.6550   33.6160   38.8010 C   0  0  1  0  0  0  0  0  0  0  0  0
   43.7560   34.0790   38.4170 H   0  0  0  0  0  0  0  0  0  0  0  0
   43.5060   36.1250   40.1050 H   0  0  0  0  0  0  0  0  0  0  0  0
   40.9950   36.6500   39.1110 H   0  0  0  0  0  0  0  0  0  0  0  0
   39.7770   35.9220   40.1960 H   0  0  0  0  0  0  0  0  0  0  0  0
   39.5090   34.0130   38.9440 H   0  0  0  0  0  0  0  0  0  0  0  0
   41.4430   33.3210   39.8800 H   0  0  0  0  0  0  0  0  0  0  0  0
   42.5730   35.5490   37.7500 O   0  0  0  0  0  0  0  0  0  0  0  0
   43.1900   36.3120   37.8850 H   0  0  0  0  0  0  0  0  0  0  0  0
   40.4390   35.0440   37.3880 O   0  0  0  0  0  0  0  0  0  0  0  0
   39.5900   35.5040   37.2020 H   0  0  0  0  0  0  0  0  0  0  0  0
   43.4840   34.1800   40.9130 O   0  0  0  0  0  0  0  0  0  0  0  0
   44.5820   34.3170   41.6650 C   0  0  0  0  0  0  0  0  0  0  0  0
   45.8510   34.4280   41.0770 C   0  0  0  0  0  0  0  0  0  0  0  0
   46.9580   34.5680   41.8940 C   0  0  0  0  0  0  0  0  0  0  0  0
   46.7820   34.5940   43.2650 N   0  0  0  0  0  0  0  0  0  0  0  0
   45.5440   34.4830   43.8010 C   0  0  0  0  0  0  0  0  0  0  0  0
   44.4540   34.3460   43.0020 N   0  0  0  0  0  0  0  0  0  0  0  0
   45.9960   34.4080   39.9960 H   0  0  0  0  0  0  0  0  0  0  0  0
   45.4530   34.5080   44.8770 H   0  0  0  0  0  0  0  0  0  0  0  0
   48.3430   34.6690   41.3340 C   0  0  0  0  0  0  0  0  0  0  0  0
   49.0580   36.0050   41.5190 C   0  0  0  0  0  0  0  0  0  0  0  0
   49.4820   34.6880   42.1960 C   0  0  0  0  0  0  0  0  0  0  0  0
   48.4210   34.2260   40.3060 H   0  0  0  0  0  0  0  0  0  0  0  0
   49.7270   36.2810   40.6820 H   0  0  0  0  0  0  0  0  0  0  0  0
   48.5600   36.7750   42.1240 H   0  0  0  0  0  0  0  0  0  0  0  0
   50.4710   34.2790   41.9560 H   0  0  0  0  0  0  0  0  0  0  0  0
   49.3000   34.7130   43.3020 H   0  0  0  0  0  0  0  0  0  0  0  0
   41.5400   32.6980   37.8260 O   0  0  0  0  0  0  0  0  0  0  0  0
   41.0360   31.4610   37.8220 C   0  0  0  0  0  0  0  0  0  0  0  0
   39.7500   31.2470   37.5530 O   0  0  0  0  0  0  0  0  0  0  0  0
   42.6790   30.2130   35.6070 Cl  0  0  0  0  0  0  0  0  0  0  0  0
   42.4340   29.4230   37.1640 C   0  0  0  0  0  0  0  0  0  0  0  0
   41.6580   30.1070   38.0720 C   0  0  0  0  0  0  0  0  0  0  0  0
   41.5150   29.4280   39.2540 C   0  0  0  0  0  0  0  0  0  0  0  0
   40.9260   29.8480   40.0680 H   0  0  0  0  0  0  0  0  0  0  0  0
   42.0780   28.2170   39.4980 C   0  0  0  0  0  3  0  0  0  0  0  0
   42.8350   27.6030   38.5470 C   0  0  0  0  0  0  0  0  0  0  0  0
   43.5540   26.0540   38.8640 Cl  0  0  0  0  0  0  0  0  0  0  0  0
   43.0390   28.2030   37.3240 C   0  0  0  0  0  0  0  0  0  0  0  0
   43.6230   27.7660   36.5460 H   0  0  0  0  0  0  0  0  0  0  0  0
  1  7  1  6  0  0  0
  1  6  1  0  0  0  0
  1  2  1  0  0  0  0
  2  8  1  6  0  0  0
  2  3  1  0  0  0  0
  2 17  1  0  0  0  0
  4 10  1  0  0  0  0
  4  3  1  0  0  0  0
  5  6  1  0  0  0  0
  5 11  1  1  0  0  0
  5  4  1  0  0  0  0
  6 12  1  1  0  0  0
  9  4  1  0  0  0  0
 13 14  1  0  0  0  0
 13  1  1  0  0  0  0
 15  5  1  0  0  0  0
 16 15  1  0  0  0  0
 17 18  1  0  0  0  0
 18 23  1  0  0  0  0
 19 18  2  0  0  0  0
 19 20  1  0  0  0  0
 20 21  2  0  0  0  0
 21 22  1  0  0  0  0
 22 25  1  0  0  0  0
 23 22  2  0  0  0  0
 24 19  1  0  0  0  0
 26 27  1  0  0  0  0
 26 20  1  0  0  0  0
 26 28  1  0  0  0  0
 27 31  1  0  0  0  0
 27 28  1  0  0  0  0
 28 33  1  0  0  0  0
 29 26  1  0  0  0  0
 30 27  1  0  0  0  0
 32 28  1  0  0  0  0
 34  6  1  0  0  0  0
 35 34  1  0  0  0  0
 35 39  1  0  0  0  0
 36 35  2  0  0  0  0
 37 38  1  0  0  0  0
 38 45  2  0  0  0  0
 38 39  1  0  0  0  0
 39 40  2  0  0  0  0
 40 42  1  0  0  0  0
 40 41  1  0  0  0  0
 43 44  1  0  0  0  0
 43 42  2  0  0  0  0
 45 43  1  0  0  0  0
 46 45  1  0  0  0  0
M  END
>  <minimizedAffinity>
-5.74238682

>  <minimizedRMSD>
0.885781229

$$$$
