
     RDKit          3D

 33 36  0  0  0  0  0  0  0  0999 V2000
   47.2328   31.3647   45.0925 C   0  0  0  0  0  0  0  0  0  0  0  0
   46.8917   32.6993   45.0899 C   0  0  0  0  0  0  0  0  0  0  0  0
   46.2866   33.2926   46.1791 C   0  0  0  0  0  0  0  0  0  0  0  0
   45.9940   32.5705   47.3275 C   0  0  0  0  0  0  0  0  0  0  0  0
   45.4262   32.8187   48.5368 N   0  0  0  0  0  0  0  0  0  0  0  0
   45.4249   31.6603   49.2522 C   0  0  0  0  0  0  0  0  0  0  0  0
   45.9966   30.7004   48.4715 N   0  0  0  0  0  0  0  0  0  0  0  0
   46.3495   31.2446   47.2902 C   0  0  0  0  0  0  0  0  0  0  0  0
   46.9539   30.6074   46.2300 C   0  0  0  0  0  0  0  0  0  0  0  0
   46.5174   35.2170   42.4348 C   0  0  0  0  0  0  0  0  0  0  0  0
   47.7080   35.0622   41.7107 C   0  0  0  0  0  0  0  0  0  0  0  0
   48.6271   34.0968   42.1392 C   0  0  0  0  0  0  0  0  0  0  0  0
   48.3126   33.3521   43.2476 N   0  0  0  0  0  0  0  0  0  0  0  0
   47.1653   33.5211   43.9223 C   0  0  0  0  0  0  0  0  0  0  0  0
   46.2783   34.4443   43.5186 N   0  0  0  0  0  0  0  0  0  0  0  0
   47.7107   30.8688   44.2499 H   0  0  0  0  0  0  0  0  0  0  0  0
   45.0716   33.7672   48.8053 H   0  0  0  0  0  0  0  0  0  0  0  0
   45.0088   31.6457   50.2595 H   0  0  0  0  0  0  0  0  0  0  0  0
   47.2138   29.5512   46.2558 H   0  0  0  0  0  0  0  0  0  0  0  0
   45.8259   35.9720   42.0793 H   0  0  0  0  0  0  0  0  0  0  0  0
   47.9771   35.6315   40.8416 H   0  0  0  0  0  0  0  0  0  0  0  0
   49.5684   33.9182   41.6323 H   0  0  0  0  0  0  0  0  0  0  0  0
   48.3079   35.2526   44.9938 Cl  0  0  0  0  0  0  0  0  0  0  0  0
   46.7616   35.6947   45.6852 C   0  0  0  0  0  0  0  0  0  0  0  0
   45.9120   34.7151   46.2004 C   0  0  0  0  0  0  0  0  0  0  0  0
   44.7006   35.1369   46.7337 C   0  0  0  0  0  0  0  0  0  0  0  0
   43.9973   34.4100   47.1507 H   0  0  0  0  0  0  0  0  0  0  0  0
   44.3164   36.4661   46.7702 C   0  0  0  0  0  0  0  0  0  0  0  0
   45.1682   37.4205   46.2567 C   0  0  0  0  0  0  0  0  0  0  0  0
   44.6247   39.0854   46.3327 Cl  0  0  0  0  0  0  0  0  0  0  0  0
   46.3709   37.0147   45.7260 C   0  0  0  0  0  0  0  0  0  0  0  0
   47.0061   37.7983   45.3353 H   0  0  0  0  0  0  0  0  0  0  0  0
   43.3460   36.7435   47.2043 H   0  0  0  0  0  0  0  0  0  0  0  0
  1  2  2  0
  1  9  1  0
  2  3  1  0
  3  4  2  0
  4  5  1  0
  5  6  1  0
  7  6  2  0
  8  4  1  0
  8  7  1  0
  9  8  2  0
 10 15  2  0
 11 12  2  0
 11 10  1  0
 12 13  1  0
 13 14  2  0
 14  2  1  0
 15 14  1  0
  1 16  1  0
  5 17  1  0
  6 18  1  0
  9 19  1  0
 10 20  1  0
 11 21  1  0
 12 22  1  0
 23 24  1  0
 24 25  2  0
 25 26  1  0
 26 27  1  0
 26 28  2  0
 28 29  1  0
 29 30  1  0
 29 31  2  0
 31 32  1  0
 31 24  1  0
 28 33  1  0
  3 25  1  0
M  ISO  8  16  14  17   9  18  14  19  14  20  14  21  14  22  14  27  16
M  ISO  1  32  15
M  END
>  <DihAtoms>  (1) 
1,2,24,23

>  <DihDeg>  (1) 
93.06674412555573

$$$$
