
     RDKit          3D

 47 50  0  0  0  0  0  0  0  0999 V2000
   48.9650   34.7639   41.5186 C   0  0  1  0  0  0  0  0  0  0  0  0
   50.0730   34.7979   42.5313 C   0  0  0  0  0  0  0  0  0  0  0  0
   49.3449   33.5378   42.2030 C   0  0  2  0  0  0  0  0  0  0  0  0
   50.1298   32.6292   41.3775 N   0  0  0  0  0  0  0  0  0  0  0  0
   49.4689   32.1862   40.2094 C   0  0  0  0  0  0  0  0  0  0  0  0
   50.4430   31.2602   39.5031 C   0  0  0  0  0  0  0  0  0  0  0  0
   50.7564   30.1201   40.2915 N   0  0  0  0  0  0  0  0  0  0  0  0
   50.6372   30.3273   41.7218 C   0  0  0  0  0  0  0  0  0  0  0  0
   51.0084   31.7733   42.0482 C   0  0  0  0  0  0  0  0  0  0  0  0
   47.6586   35.3876   41.8876 C   0  0  0  0  0  0  0  0  0  0  0  0
   46.6943   34.2695   42.1458 C   0  0  0  0  0  0  0  0  0  0  0  0
   44.5089   35.8927   44.7285 C   0  0  0  0  0  0  0  0  0  0  0  0
   45.1733   35.6548   43.4971 C   0  0  0  0  0  0  0  0  0  0  0  0
   45.9741   34.5506   43.4313 C   0  0  0  0  0  0  0  0  0  0  0  0
   46.1000   33.7455   44.5159 N   0  0  0  0  0  0  0  0  0  0  0  0
   45.4788   33.9777   45.6503 C   0  0  0  0  0  0  0  0  0  0  0  0
   44.6775   35.0535   45.7670 N   0  0  0  0  0  0  0  0  0  0  0  0
   49.2807   34.9775   40.5021 H   0  0  0  0  0  0  0  0  0  0  0  0
   51.1226   34.9692   42.2322 H   0  0  0  0  0  0  0  0  0  0  0  0
   49.8360   35.3255   43.4961 H   0  0  0  0  0  0  0  0  0  0  0  0
   48.8238   33.0915   43.0467 H   0  0  0  0  0  0  0  0  0  0  0  0
   49.1502   33.0010   39.5635 H   0  0  0  0  0  0  0  0  0  0  0  0
   48.5976   31.5662   40.4941 H   0  0  0  0  0  0  0  0  0  0  0  0
   51.3069   31.8748   39.1806 H   0  0  0  0  0  0  0  0  0  0  0  0
   49.9232   30.9480   38.5686 H   0  0  0  0  0  0  0  0  0  0  0  0
   51.6907   29.7325   40.0257 H   0  0  0  0  0  0  0  0  0  0  0  0
   51.4156   29.6558   42.1811 H   0  0  0  0  0  0  0  0  0  0  0  0
   49.6168   30.0954   42.0353 H   0  0  0  0  0  0  0  0  0  0  0  0
   51.0890   31.9469   43.1183 H   0  0  0  0  0  0  0  0  0  0  0  0
   52.0361   31.8954   41.6004 H   0  0  0  0  0  0  0  0  0  0  0  0
   47.7751   36.0142   42.8014 H   0  0  0  0  0  0  0  0  0  0  0  0
   47.2880   36.1054   41.1127 H   0  0  0  0  0  0  0  0  0  0  0  0
   47.0595   33.2608   42.0382 H   0  0  0  0  0  0  0  0  0  0  0  0
   45.8789   34.3645   41.3696 H   0  0  0  0  0  0  0  0  0  0  0  0
   43.8817   36.7553   44.7839 H   0  0  0  0  0  0  0  0  0  0  0  0
   45.0738   36.2917   42.6386 H   0  0  0  0  0  0  0  0  0  0  0  0
   45.3147   30.9822   45.1509 Cl  0  0  0  0  0  0  0  0  0  0  0  0
   45.5640   31.7310   46.7044 C   0  0  0  0  0  0  0  0  0  0  0  0
   45.6214   33.1054   46.8106 C   0  0  0  0  0  0  0  0  0  0  0  0
   45.8219   33.6032   48.0817 C   0  0  0  0  0  0  0  0  0  0  0  0
   45.8765   34.6840   48.2298 H   0  0  0  0  0  0  0  0  0  0  0  0
   45.9642   32.8288   49.2194 C   0  0  0  0  0  0  0  0  0  0  0  0
   45.8962   31.4625   49.0384 C   0  0  0  0  0  0  0  0  0  0  0  0
   46.0790   30.4870   50.4962 Cl  0  0  0  0  0  0  0  0  0  0  0  0
   45.6957   30.8732   47.7873 C   0  0  0  0  0  0  0  0  0  0  0  0
   45.6582   29.8100   47.7520 H   0  0  0  0  0  0  0  0  0  0  0  0
   46.1195   33.2671   50.1924 H   0  0  0  0  0  0  0  0  0  0  0  0
  1 10  1  0
  1  3  1  0
  1  2  1  0
  3  2  1  0
  4  9  1  0
  4  3  1  0
  5  4  1  0
  6  5  1  0
  6  7  1  0
  7  8  1  0
  8  9  1  0
 10 11  1  0
 11 14  1  0
 12 17  2  0
 13 12  1  0
 14 13  2  0
 14 15  1  0
 15 16  2  0
 16 17  1  0
  1 18  1  6
  2 19  1  0
  2 20  1  0
  3 21  1  1
  5 22  1  0
  5 23  1  0
  6 24  1  0
  6 25  1  0
  7 26  1  0
  8 27  1  0
  8 28  1  0
  9 29  1  0
  9 30  1  0
 10 31  1  0
 10 32  1  0
 11 33  1  0
 11 34  1  0
 12 35  1  0
 13 36  1  0
 37 38  1  0
 38 39  2  0
 39 40  1  0
 40 41  1  0
 40 42  2  0
 42 43  1  0
 43 44  1  0
 43 45  2  0
 45 46  1  0
 45 38  1  0
 42 47  1  0
 16 39  1  0
M  ISO  8  18  13  19  13  20  13  21  13  22  13  23  13  24  13  25  13
M  ISO  8  26   5  27  13  28  13  29  13  30  13  31   8  32   8  33   8
M  ISO  5  34   8  35  14  36  14  41  16  46  15
M  END
>  <DihAtoms>  (1) 
14,15,38,37

>  <DihDeg>  (1) 
0.0037273072178056863

$$$$
