
 OpenBabel03252504563D

 32 34  0  0  1  0  0  0  0  0999 V2000
   47.5880   33.8780   42.0710 N   0  0  0  0  0  0  0  0  0  0  0  0
   47.8550   34.5200   40.8320 C   0  0  0  0  0  0  0  0  0  0  0  0
   49.0470   35.3800   41.1690 C   0  0  0  0  0  0  0  0  0  0  0  0
   49.4290   35.1260   42.6140 C   0  0  0  0  0  0  0  0  0  0  0  0
   48.7200   33.7710   42.8570 C   0  0  2  0  0  0  0  0  0  0  0  0
   47.4670   34.5320   39.8610 H   0  0  0  0  0  0  0  0  0  0  0  0
   49.5650   36.0490   40.4630 H   0  0  0  0  0  0  0  0  0  0  0  0
   50.5260   35.0210   42.6510 H   0  0  0  0  0  0  0  0  0  0  0  0
   48.9890   35.8830   43.2550 H   0  0  0  0  0  0  0  0  0  0  0  0
   48.6170   33.6680   43.9350 H   0  0  0  0  0  0  0  0  0  0  0  0
   48.0590   31.0940   43.8820 Cl  0  0  0  0  0  0  0  0  0  0  0  0
   49.3900   31.4410   42.7770 C   0  0  0  0  0  0  0  0  0  0  0  0
   49.6410   32.7460   42.3350 C   0  0  0  0  0  0  0  0  0  0  0  0
   50.7130   32.8440   41.4790 C   0  0  0  0  0  0  0  0  0  0  0  0
   50.9270   33.8310   41.1220 H   0  0  0  0  0  0  0  0  0  0  0  0
   51.4700   31.7620   41.0890 C   0  0  0  0  0  0  0  0  0  0  0  0
   51.1910   30.4910   41.5460 C   0  0  0  0  0  0  0  0  0  0  0  0
   52.2220   29.1990   40.9820 Cl  0  0  0  0  0  0  0  0  0  0  0  0
   50.1260   30.3380   42.4070 C   0  0  0  0  0  0  0  0  0  0  0  0
   49.9150   29.3390   42.7590 H   0  0  0  0  0  0  0  0  0  0  0  0
   46.3150   33.5480   42.4100 C   0  0  0  0  0  0  0  0  0  0  0  0
   45.5370   33.4950   41.6020 H   0  0  0  0  0  0  0  0  0  0  0  0
   46.3170   32.4620   42.7580 H   0  0  0  0  0  0  0  0  0  0  0  0
   44.5260   36.0670   44.5750 C   0  0  0  0  0  0  0  0  0  0  0  0
   45.1080   35.5220   43.4010 C   0  0  0  0  0  0  0  0  0  0  0  0
   45.7110   34.2720   43.5240 C   0  0  0  0  0  0  0  0  0  0  0  0
   45.7130   33.6530   44.7240 N   0  0  0  0  0  0  0  0  0  0  0  0
   45.1400   34.2060   45.8480 C   0  0  0  0  0  0  0  0  0  0  0  0
   44.5520   35.4100   45.7580 N   0  0  0  0  0  0  0  0  0  0  0  0
   44.0700   37.0250   44.4560 H   0  0  0  0  0  0  0  0  0  0  0  0
   45.1050   36.0130   42.4610 H   0  0  0  0  0  0  0  0  0  0  0  0
   45.2100   33.6110   46.7470 H   0  0  0  0  0  0  0  0  0  0  0  0
  1 21  1  0  0  0  0
  1  5  1  0  0  0  0
  2  3  2  0  0  0  0
  2  1  1  0  0  0  0
  3  4  1  0  0  0  0
  4  8  1  0  0  0  0
  4  5  1  0  0  0  0
  4  9  1  0  0  0  0
  5 10  1  1  0  0  0
  6  2  1  0  0  0  0
  7  3  1  0  0  0  0
 12 11  1  0  0  0  0
 13 12  2  0  0  0  0
 13  5  1  0  0  0  0
 14 13  1  0  0  0  0
 15 14  1  0  0  0  0
 16 14  2  0  0  0  0
 16 17  1  0  0  0  0
 17 19  2  0  0  0  0
 18 17  1  0  0  0  0
 19 20  1  0  0  0  0
 19 12  1  0  0  0  0
 21 23  1  0  0  0  0
 21 26  1  0  0  0  0
 22 21  1  0  0  0  0
 24 29  1  0  0  0  0
 25 26  1  0  0  0  0
 25 24  2  0  0  0  0
 26 27  2  0  0  0  0
 27 28  1  0  0  0  0
 28 32  1  0  0  0  0
 29 28  2  0  0  0  0
 30 24  1  0  0  0  0
 31 25  1  0  0  0  0
M  END
>  <minimizedAffinity>
-5.08753347

>  <minimizedRMSD>
1.74131942

$$$$
