
 OpenBabel03252508333D

 33 35  0  0  1  0  0  0  0  0999 V2000
   44.2620   34.3770   41.9530 N   0  0  0  0  0  0  0  0  0  0  0  0
   44.3200   33.3680   40.9590 C   0  0  1  0  0  0  0  0  0  0  0  0
   43.6940   33.7250   39.6590 C   0  0  0  0  0  0  0  0  0  0  0  0
   42.5740   34.5530   39.6880 N   0  0  0  0  0  0  0  0  0  0  0  0
   42.3790   35.3940   40.7870 C   0  0  0  0  0  0  0  0  0  0  0  0
   43.7020   35.6160   41.5030 C   0  0  0  0  0  0  0  0  0  0  0  0
   43.8120   32.4550   41.3460 H   0  0  0  0  0  0  0  0  0  0  0  0
   44.4810   34.2180   39.0140 H   0  0  0  0  0  0  0  0  0  0  0  0
   43.4580   32.7810   39.0980 H   0  0  0  0  0  0  0  0  0  0  0  0
   41.7560   34.2900   39.1400 H   0  0  0  0  0  0  0  0  0  0  0  0
   41.7070   34.8650   41.5200 H   0  0  0  0  0  0  0  0  0  0  0  0
   41.9090   36.3660   40.6090 H   0  0  0  0  0  0  0  0  0  0  0  0
   44.4200   36.1060   40.7830 H   0  0  0  0  0  0  0  0  0  0  0  0
   43.4960   36.3670   42.2680 H   0  0  0  0  0  0  0  0  0  0  0  0
   45.0590   30.4260   40.9480 Cl  0  0  0  0  0  0  0  0  0  0  0  0
   46.2440   31.6660   40.5870 C   0  0  0  0  0  0  0  0  0  0  0  0
   45.7340   32.9590   40.6370 C   0  0  0  0  0  0  0  0  0  0  0  0
   46.6210   34.0000   40.3600 C   0  0  0  0  0  0  0  0  0  0  0  0
   46.4010   35.0550   40.3540 H   0  0  0  0  0  0  0  0  0  0  0  0
   47.9470   33.7570   40.0510 C   0  0  0  0  0  3  0  0  0  0  0  0
   48.4320   32.4670   40.0080 C   0  0  0  0  0  0  0  0  0  0  0  0
   50.0810   32.0200   39.6320 Cl  0  0  0  0  0  0  0  0  0  0  0  0
   47.5510   31.4480   40.2820 C   0  0  0  0  0  0  0  0  0  0  0  0
   47.7870   30.3790   40.2860 H   0  0  0  0  0  0  0  0  0  0  0  0
   44.6850   35.1120   44.1890 C   0  0  0  0  0  0  0  0  0  0  0  0
   44.7540   34.0620   43.2520 C   0  0  0  0  0  0  0  0  0  0  0  0
   45.2770   32.8480   43.6620 C   0  0  0  0  0  0  0  0  0  0  0  0
   45.7020   32.7180   44.9400 N   0  0  0  0  0  0  0  0  0  0  0  0
   45.6280   33.7390   45.8310 C   0  0  0  0  0  0  0  0  0  0  0  0
   45.1210   34.9270   45.4480 N   0  0  0  0  0  0  0  0  0  0  0  0
   44.3150   36.1170   44.0620 H   0  0  0  0  0  0  0  0  0  0  0  0
   45.3150   32.0630   42.9280 H   0  0  0  0  0  0  0  0  0  0  0  0
   46.0090   33.4700   46.8110 H   0  0  0  0  0  0  0  0  0  0  0  0
  1 26  1  0  0  0  0
  2  7  1  1  0  0  0
  2  1  1  0  0  0  0
  3  4  1  0  0  0  0
  3  2  1  0  0  0  0
  4  5  1  0  0  0  0
  5  6  1  0  0  0  0
  5 11  1  0  0  0  0
  6  1  1  0  0  0  0
  6 14  1  0  0  0  0
  8  3  1  0  0  0  0
  9  3  1  0  0  0  0
 10  4  1  0  0  0  0
 12  5  1  0  0  0  0
 13  6  1  0  0  0  0
 16 17  1  0  0  0  0
 16 15  1  0  0  0  0
 17  2  1  0  0  0  0
 18 17  2  0  0  0  0
 19 18  1  0  0  0  0
 20 18  1  0  0  0  0
 21 20  2  0  0  0  0
 21 23  1  0  0  0  0
 22 21  1  0  0  0  0
 23 24  1  0  0  0  0
 23 16  2  0  0  0  0
 25 30  1  0  0  0  0
 26 27  1  0  0  0  0
 26 25  2  0  0  0  0
 27 28  2  0  0  0  0
 28 29  1  0  0  0  0
 29 33  1  0  0  0  0
 30 29  2  0  0  0  0
 31 25  1  0  0  0  0
 32 27  1  0  0  0  0
M  END
>  <minimizedAffinity>
-4.32433558

>  <minimizedRMSD>
0.444045216

$$$$
