
 OpenBabel03252506423D

 41 44  0  0  1  0  0  0  0  0999 V2000
   49.3470   33.2860   41.4570 N   0  0  1  0  0  0  0  0  0  0  0  0
   50.6410   33.0980   42.0570 C   0  0  0  0  0  0  0  0  0  0  0  0
   51.2770   31.7790   41.8080 C   0  0  0  0  0  0  0  0  0  0  0  0
   50.4480   30.6810   42.4360 C   0  0  0  0  0  0  0  0  0  0  0  0
   49.0060   31.0160   42.3490 C   0  0  0  0  0  0  0  0  0  0  0  0
   48.7000   32.0000   41.2730 C   0  0  2  0  0  0  0  0  0  0  0  0
   50.5660   33.2160   43.1680 H   0  0  0  0  0  0  0  0  0  0  0  0
   51.3280   33.9400   41.7560 H   0  0  0  0  0  0  0  0  0  0  0  0
   52.2390   31.7960   42.4090 H   0  0  0  0  0  0  0  0  0  0  0  0
   51.5830   31.5370   40.7990 H   0  0  0  0  0  0  0  0  0  0  0  0
   50.6510   29.7530   41.8390 H   0  0  0  0  0  0  0  0  0  0  0  0
   50.7940   30.4270   43.4690 H   0  0  0  0  0  0  0  0  0  0  0  0
   48.7150   31.5070   43.3140 H   0  0  0  0  0  0  0  0  0  0  0  0
   48.3350   30.1520   42.2590 H   0  0  0  0  0  0  0  0  0  0  0  0
   47.6080   32.2660   41.4780 H   0  0  0  0  0  0  0  0  0  0  0  0
   47.8950   29.0720   40.4020 Cl  0  0  0  0  0  0  0  0  0  0  0  0
   48.3480   30.3220   39.2990 C   0  0  0  0  0  0  0  0  0  0  0  0
   48.6960   31.5140   39.8960 C   0  0  0  0  0  0  0  0  0  0  0  0
   49.1090   32.5330   39.0250 C   0  0  0  0  0  0  0  0  0  0  0  0
   49.4350   33.5590   39.2420 H   0  0  0  0  0  0  0  0  0  0  0  0
   49.1490   32.3110   37.6410 C   0  0  0  0  0  3  0  0  0  0  0  0
   48.7880   31.0950   37.1000 C   0  0  0  0  0  0  0  0  0  0  0  0
   48.8210   30.7730   35.3790 Cl  0  0  0  0  0  0  0  0  0  0  0  0
   48.3840   30.1000   37.9600 C   0  0  0  0  0  0  0  0  0  0  0  0
   48.0850   29.1180   37.6140 H   0  0  0  0  0  0  0  0  0  0  0  0
   47.2080   34.6280   42.0130 C   0  0  1  0  0  0  0  0  0  0  0  0
   48.3120   35.5140   41.7110 C   0  0  0  0  0  0  0  0  0  0  0  0
   48.6290   34.1810   42.3230 C   0  0  2  0  0  0  0  0  0  0  0  0
   46.7500   33.9380   41.2440 H   0  0  0  0  0  0  0  0  0  0  0  0
   48.5090   35.6770   40.6210 H   0  0  0  0  0  0  0  0  0  0  0  0
   48.4110   36.4470   42.2950 H   0  0  0  0  0  0  0  0  0  0  0  0
   48.9070   34.1870   43.3910 H   0  0  0  0  0  0  0  0  0  0  0  0
   45.5030   36.0520   43.1870 C   0  0  0  0  0  0  0  0  0  0  0  0
   46.2980   34.8730   43.1510 C   0  0  0  0  0  0  0  0  0  0  0  0
   46.1840   33.9880   44.2060 C   0  0  0  0  0  0  0  0  0  0  0  0
   45.3200   34.2960   45.2150 N   0  0  0  0  0  0  0  0  0  0  0  0
   44.5730   35.4170   45.2340 C   0  0  0  0  0  0  0  0  0  0  0  0
   44.6540   36.3140   44.2170 N   0  0  0  0  0  0  0  0  0  0  0  0
   45.6370   36.7150   42.3260 H   0  0  0  0  0  0  0  0  0  0  0  0
   46.7670   33.0760   44.2270 H   0  0  0  0  0  0  0  0  0  0  0  0
   43.8930   35.6360   46.0480 H   0  0  0  0  0  0  0  0  0  0  0  0
  1  2  1  1  0  0  0
  1 28  1  0  0  0  0
  2  7  1  0  0  0  0
  3  2  1  0  0  0  0
  3  9  1  0  0  0  0
  3  4  1  0  0  0  0
  4 12  1  0  0  0  0
  5  4  1  0  0  0  0
  5 13  1  0  0  0  0
  6  1  1  0  0  0  0
  6 15  1  1  0  0  0
  6  5  1  0  0  0  0
  8  2  1  0  0  0  0
 10  3  1  0  0  0  0
 11  4  1  0  0  0  0
 14  5  1  0  0  0  0
 17 18  1  0  0  0  0
 17 16  1  0  0  0  0
 18  6  1  0  0  0  0
 19 20  1  0  0  0  0
 19 18  2  0  0  0  0
 21 19  1  0  0  0  0
 22 21  2  0  0  0  0
 22 24  1  0  0  0  0
 23 22  1  0  0  0  0
 24 17  2  0  0  0  0
 25 24  1  0  0  0  0
 26 29  1  6  0  0  0
 26 28  1  0  0  0  0
 26 34  1  0  0  0  0
 27 26  1  0  0  0  0
 27 31  1  0  0  0  0
 27 28  1  0  0  0  0
 28 32  1  1  0  0  0
 30 27  1  0  0  0  0
 33 38  1  0  0  0  0
 34 33  2  0  0  0  0
 34 35  1  0  0  0  0
 35 40  1  0  0  0  0
 35 36  2  0  0  0  0
 36 37  1  0  0  0  0
 37 41  1  0  0  0  0
 38 37  2  0  0  0  0
 39 33  1  0  0  0  0
M  END
>  <minimizedAffinity>
-5.01817894

>  <minimizedRMSD>
0.280705452

$$$$
