REMARK  Name = 
REMARK  4 active torsions:
REMARK  status: ('A' for Active; 'I' for Inactive)
REMARK    1  A    between atoms: C_3  and  C_7
REMARK    2  A    between atoms: C_7  and  C_8
REMARK    3  A    between atoms: C_8  and  C_9
REMARK    4  A    between atoms: C_11  and  C_25
REMARK                            x       y       z     vdW  Elec       q    Type
REMARK                         _______ _______ _______ _____ _____    ______ ____
ROOT
ATOM      1  C   UNL     1      48.833  35.018  41.367  0.00  0.00    +0.000 C 
ATOM      2  C   UNL     1      49.713  35.062  42.567  0.00  0.00    +0.000 C 
ATOM      3  C   UNL     1      49.535  33.808  41.780  0.00  0.00    +0.000 C 
ATOM      4  H   UNL     1      49.122  35.578  40.435  0.00  0.00    +0.000 HD
ATOM      5  H   UNL     1      49.319  35.192  43.596  0.00  0.00    +0.000 HD
ATOM      6  H   UNL     1      50.583  35.733  42.424  0.00  0.00    +0.000 HD
ATOM      7  H   UNL     1      49.192  32.845  42.088  0.00  0.00    +0.000 HD
ENDROOT
BRANCH   3  10
ATOM      8 CL   UNL     1      52.358  34.803  42.708  0.00  0.00    +0.000 Cl
ATOM      9  C   UNL     1      52.033  33.925  41.231  0.00  0.00    +0.000 A 
ATOM     10  C   UNL     1      50.748  33.527  40.952  0.00  0.00    +0.000 A 
ATOM     11  C   UNL     1      50.415  32.816  39.820  0.00  0.00    +0.000 A 
ATOM     12  H   UNL     1      49.439  32.466  39.526  0.00  0.00    +0.000 HD
ATOM     13  C   UNL     1      51.398  32.465  38.892  0.00  0.00    +0.000 A 
ATOM     14  C   UNL     1      52.707  32.862  39.162  0.00  0.00    +0.000 A 
ATOM     15 CL   UNL     1      54.098  32.530  38.133  0.00  0.00    +0.000 Cl
ATOM     16  C   UNL     1      53.000  33.576  40.310  0.00  0.00    +0.000 A 
ATOM     17  H   UNL     1      54.017  33.910  40.564  0.00  0.00    +0.000 HD
ENDBRANCH   3  10
BRANCH   1  18
ATOM     18  C   UNL     1      47.352  35.066  41.595  0.00  0.00    +0.000 C 
ATOM     19  H   UNL     1      46.764  35.082  40.679  0.00  0.00    +0.000 HD
ATOM     20  H   UNL     1      47.197  36.031  42.174  0.00  0.00    +0.000 HD
BRANCH  18  21
ATOM     21  C   UNL     1      47.036  33.895  42.519  0.00  0.00    +0.000 C 
ATOM     22  H   UNL     1      46.711  32.994  42.021  0.00  0.00    +0.000 HD
ATOM     23  H   UNL     1      47.942  33.771  43.189  0.00  0.00    +0.000 HD
BRANCH  21  26
ATOM     24  C   UNL     1      44.583  35.986  44.450  0.00  0.00    +0.000 A 
ATOM     25  C   UNL     1      45.394  35.516  43.381  0.00  0.00    +0.000 A 
ATOM     26  C   UNL     1      46.137  34.388  43.602  0.00  0.00    +0.000 A 
ATOM     27  N   UNL     1      46.066  33.773  44.816  0.00  0.00    +0.000 NA
ATOM     28  C   UNL     1      45.307  34.222  45.800  0.00  0.00    +0.000 A 
ATOM     29  N   UNL     1      44.566  35.321  45.629  0.00  0.00    +0.000 NA
ATOM     30  H   UNL     1      43.961  36.867  44.377  0.00  0.00    +0.000 HD
ATOM     31  H   UNL     1      45.294  36.135  42.510  0.00  0.00    +0.000 HD
ATOM     32  H   UNL     1      45.367  33.620  46.692  0.00  0.00    +0.000 HD
ENDBRANCH  21  26
ENDBRANCH  18  21
ENDBRANCH   1  18
TORSDOF 4
