REMARK  Name = 
REMARK  5 active torsions:
REMARK  status: ('A' for Active; 'I' for Inactive)
REMARK    1  A    between atoms: C_1  and  C_10
REMARK    2  A    between atoms: C_3  and  N_4
REMARK    3  A    between atoms: C_10  and  C_11
REMARK    4  A    between atoms: C_11  and  C_14
REMARK    5  A    between atoms: C_16  and  C_39
REMARK                            x       y       z     vdW  Elec       q    Type
REMARK                         _______ _______ _______ _____ _____    ______ ____
ROOT
ATOM      1  C   UNL     1      47.659  35.388  41.888  0.00  0.00    +0.000 C 
ATOM      2  H   UNL     1      47.775  36.014  42.801  0.00  0.00    +0.000 HD
ATOM      3  H   UNL     1      47.288  36.105  41.113  0.00  0.00    +0.000 HD
ENDROOT
BRANCH   1   4
ATOM      4  C   UNL     1      48.965  34.764  41.519  0.00  0.00    +0.000 C 
ATOM      5  C   UNL     1      50.073  34.798  42.531  0.00  0.00    +0.000 C 
ATOM      6  C   UNL     1      49.345  33.538  42.203  0.00  0.00    +0.000 C 
ATOM      7  H   UNL     1      49.281  34.977  40.502  0.00  0.00    +0.000 HD
ATOM      8  H   UNL     1      51.123  34.969  42.232  0.00  0.00    +0.000 HD
ATOM      9  H   UNL     1      49.836  35.325  43.496  0.00  0.00    +0.000 HD
ATOM     10  H   UNL     1      48.824  33.092  43.047  0.00  0.00    +0.000 HD
BRANCH   6  11
ATOM     11  N   UNL     1      50.130  32.629  41.377  0.00  0.00    +0.000 NA
ATOM     12  C   UNL     1      49.469  32.186  40.209  0.00  0.00    +0.000 C 
ATOM     13  C   UNL     1      50.443  31.260  39.503  0.00  0.00    +0.000 C 
ATOM     14  N   UNL     1      50.756  30.120  40.291  0.00  0.00    +0.000 NA
ATOM     15  C   UNL     1      50.637  30.327  41.722  0.00  0.00    +0.000 C 
ATOM     16  C   UNL     1      51.008  31.773  42.048  0.00  0.00    +0.000 C 
ATOM     17  H   UNL     1      49.150  33.001  39.563  0.00  0.00    +0.000 HD
ATOM     18  H   UNL     1      48.598  31.566  40.494  0.00  0.00    +0.000 HD
ATOM     19  H   UNL     1      51.307  31.875  39.181  0.00  0.00    +0.000 HD
ATOM     20  H   UNL     1      49.923  30.948  38.569  0.00  0.00    +0.000 HD
ATOM     21  H   UNL     1      51.691  29.733  40.026  0.00  0.00    +0.000 HD
ATOM     22  H   UNL     1      51.416  29.656  42.181  0.00  0.00    +0.000 HD
ATOM     23  H   UNL     1      49.617  30.095  42.035  0.00  0.00    +0.000 HD
ATOM     24  H   UNL     1      51.089  31.947  43.118  0.00  0.00    +0.000 HD
ATOM     25  H   UNL     1      52.036  31.895  41.600  0.00  0.00    +0.000 HD
ENDBRANCH   6  11
ENDBRANCH   1   4
BRANCH   1  26
ATOM     26  C   UNL     1      46.694  34.270  42.146  0.00  0.00    +0.000 C 
ATOM     27  H   UNL     1      47.059  33.261  42.038  0.00  0.00    +0.000 HD
ATOM     28  H   UNL     1      45.879  34.364  41.370  0.00  0.00    +0.000 HD
BRANCH  26  31
ATOM     29  C   UNL     1      44.509  35.893  44.728  0.00  0.00    +0.000 A 
ATOM     30  C   UNL     1      45.173  35.655  43.497  0.00  0.00    +0.000 A 
ATOM     31  C   UNL     1      45.974  34.551  43.431  0.00  0.00    +0.000 A 
ATOM     32  N   UNL     1      46.100  33.745  44.516  0.00  0.00    +0.000 NA
ATOM     33  C   UNL     1      45.479  33.978  45.650  0.00  0.00    +0.000 A 
ATOM     34  N   UNL     1      44.678  35.053  45.767  0.00  0.00    +0.000 NA
ATOM     35  H   UNL     1      43.882  36.755  44.784  0.00  0.00    +0.000 HD
ATOM     36  H   UNL     1      45.074  36.292  42.639  0.00  0.00    +0.000 HD
BRANCH  33  39
ATOM     37 CL   UNL     1      45.315  30.982  45.151  0.00  0.00    +0.000 Cl
ATOM     38  C   UNL     1      45.564  31.731  46.704  0.00  0.00    +0.000 A 
ATOM     39  C   UNL     1      45.621  33.105  46.811  0.00  0.00    +0.000 A 
ATOM     40  C   UNL     1      45.822  33.603  48.082  0.00  0.00    +0.000 A 
ATOM     41  H   UNL     1      45.877  34.684  48.230  0.00  0.00    +0.000 HD
ATOM     42  C   UNL     1      45.964  32.829  49.219  0.00  0.00    +0.000 A 
ATOM     43  C   UNL     1      45.896  31.462  49.038  0.00  0.00    +0.000 A 
ATOM     44 CL   UNL     1      46.079  30.487  50.496  0.00  0.00    +0.000 Cl
ATOM     45  C   UNL     1      45.696  30.873  47.787  0.00  0.00    +0.000 A 
ATOM     46  H   UNL     1      45.658  29.810  47.752  0.00  0.00    +0.000 HD
ENDBRANCH  33  39
ENDBRANCH  26  31
ENDBRANCH   1  26
TORSDOF 5
