
 OpenBabel03242516103D

 26 28  0  0  0  0  0  0  0  0999 V2000
   36.0620   29.1600   40.0190 C   0  0  0  0  0  0  0  0  0  0  0  0
   34.5930   28.9770   39.9810 C   0  0  0  0  0  0  0  0  0  0  0  0
   35.4340   28.3850   38.9160 C   0  0  0  0  0  0  0  0  0  0  0  0
   33.9670   29.8460   39.7600 H   0  0  0  0  0  0  0  0  0  0  0  0
   34.1470   28.2760   40.7360 H   0  0  0  0  0  0  0  0  0  0  0  0
   35.3950   28.9330   37.9400 H   0  0  0  0  0  0  0  0  0  0  0  0
   35.4530   27.2860   38.8650 H   0  0  0  0  0  0  0  0  0  0  0  0
   38.7360   28.1690   38.8650 Cl  0  0  0  0  0  0  0  0  0  0  0  0
   38.1150   27.8880   40.4590 C   0  0  0  0  0  0  0  0  0  0  0  0
   36.9070   28.3530   40.9370 C   0  0  0  0  0  0  0  0  0  0  0  0
   36.5520   28.0410   42.2370 C   0  0  0  0  0  0  0  0  0  0  0  0
   35.6050   28.4040   42.6150 H   0  0  0  0  0  0  0  0  0  0  0  0
   37.3320   27.2940   43.0900 C   0  0  0  0  0  3  0  0  0  0  0  0
   38.5300   26.8300   42.6220 C   0  0  0  0  0  0  0  0  0  0  0  0
   39.5400   25.8800   43.6790 Cl  0  0  0  0  0  0  0  0  0  0  0  0
   38.9000   27.1300   41.3290 C   0  0  0  0  0  0  0  0  0  0  0  0
   39.8600   26.7440   40.9930 H   0  0  0  0  0  0  0  0  0  0  0  0
   36.8590   30.9430   38.4250 C   0  0  0  0  0  0  0  0  0  0  0  0
   36.6270   30.5030   39.7300 C   0  0  0  0  0  0  0  0  0  0  0  0
   36.9510   31.3980   40.7760 C   0  0  0  0  0  0  0  0  0  0  0  0
   37.4630   32.6160   40.4650 N   0  0  0  0  0  0  0  0  0  0  0  0
   37.6700   32.9960   39.1840 C   0  0  0  0  0  0  0  0  0  0  0  0
   37.3660   32.1550   38.1780 N   0  0  0  0  0  0  0  0  0  0  0  0
   36.6280   30.2890   37.5770 H   0  0  0  0  0  0  0  0  0  0  0  0
   36.7890   31.1050   41.8090 H   0  0  0  0  0  0  0  0  0  0  0  0
   38.0850   33.9940   39.0200 H   0  0  0  0  0  0  0  0  0  0  0  0
  1 10  1  0  0  0  0
  2  1  1  0  0  0  0
  2  5  1  0  0  0  0
  3  2  1  0  0  0  0
  3  1  1  0  0  0  0
  4  2  1  0  0  0  0
  6  3  1  0  0  0  0
  7  3  1  0  0  0  0
  8  9  1  0  0  0  0
  9 10  2  0  0  0  0
  9 16  1  0  0  0  0
 10 11  1  0  0  0  0
 11 12  1  0  0  0  0
 11 13  2  0  0  0  0
 14 13  1  0  0  0  0
 14 15  1  0  0  0  0
 16 14  2  0  0  0  0
 17 16  1  0  0  0  0
 18 19  1  0  0  0  0
 19  1  1  0  0  0  0
 19 20  2  0  0  0  0
 20 25  1  0  0  0  0
 21 20  1  0  0  0  0
 22 21  2  0  0  0  0
 23 18  2  0  0  0  0
 23 22  1  0  0  0  0
 24 18  1  0  0  0  0
 26 22  1  0  0  0  0
M  END
>  <minimizedAffinity>
-4.81503248

$$$$

 OpenBabel03242516103D

 26 28  0  0  0  0  0  0  0  0999 V2000
   37.5130   27.9400   42.2610 C   0  0  0  0  0  0  0  0  0  0  0  0
   36.5790   27.6240   43.3650 C   0  0  0  0  0  0  0  0  0  0  0  0
   38.0170   27.8250   43.6550 C   0  0  0  0  0  0  0  0  0  0  0  0
   36.1500   26.6190   43.4110 H   0  0  0  0  0  0  0  0  0  0  0  0
   35.8710   28.4360   43.6810 H   0  0  0  0  0  0  0  0  0  0  0  0
   38.5830   26.8800   43.8580 H   0  0  0  0  0  0  0  0  0  0  0  0
   38.2710   28.6960   44.2770 H   0  0  0  0  0  0  0  0  0  0  0  0
   35.0770   28.8350   40.6090 Cl  0  0  0  0  0  0  0  0  0  0  0  0
   36.5110   29.7510   40.9420 C   0  0  0  0  0  0  0  0  0  0  0  0
   37.5830   29.3100   41.6900 C   0  0  0  0  0  0  0  0  0  0  0  0
   38.6580   30.1640   41.8640 C   0  0  0  0  0  0  0  0  0  0  0  0
   39.5000   29.8210   42.4500 H   0  0  0  0  0  0  0  0  0  0  0  0
   38.7250   31.4330   41.3360 C   0  0  0  0  0  3  0  0  0  0  0  0
   37.6660   31.8760   40.5930 C   0  0  0  0  0  0  0  0  0  0  0  0
   37.7240   33.4800   39.9120 Cl  0  0  0  0  0  0  0  0  0  0  0  0
   36.5870   31.0390   40.4090 C   0  0  0  0  0  0  0  0  0  0  0  0
   35.7640   31.4270   39.8130 H   0  0  0  0  0  0  0  0  0  0  0  0
   37.0410   25.7550   41.0950 C   0  0  0  0  0  0  0  0  0  0  0  0
   37.8520   26.8770   41.2790 C   0  0  0  0  0  0  0  0  0  0  0  0
   39.0180   26.9640   40.4830 C   0  0  0  0  0  0  0  0  0  0  0  0
   39.2850   25.9710   39.5970 N   0  0  0  0  0  0  0  0  0  0  0  0
   38.4680   24.9030   39.4550 C   0  0  0  0  0  0  0  0  0  0  0  0
   37.3550   24.8070   40.2060 N   0  0  0  0  0  0  0  0  0  0  0  0
   36.1270   25.6370   41.6860 H   0  0  0  0  0  0  0  0  0  0  0  0
   39.6820   27.8170   40.5870 H   0  0  0  0  0  0  0  0  0  0  0  0
   38.7560   24.1470   38.7190 H   0  0  0  0  0  0  0  0  0  0  0  0
  1  2  1  0  0  0  0
  1  3  1  0  0  0  0
  2  4  1  0  0  0  0
  2  3  1  0  0  0  0
  2  5  1  0  0  0  0
  3  6  1  0  0  0  0
  3  7  1  0  0  0  0
  8  9  1  0  0  0  0
  9 10  1  0  0  0  0
 10 11  2  0  0  0  0
 10  1  1  0  0  0  0
 11 12  1  0  0  0  0
 13 11  1  0  0  0  0
 14 13  2  0  0  0  0
 15 14  1  0  0  0  0
 16 14  1  0  0  0  0
 16  9  2  0  0  0  0
 17 16  1  0  0  0  0
 18 19  1  0  0  0  0
 18 24  1  0  0  0  0
 19  1  1  0  0  0  0
 20 25  1  0  0  0  0
 20 19  2  0  0  0  0
 21 20  1  0  0  0  0
 22 21  2  0  0  0  0
 22 23  1  0  0  0  0
 23 18  2  0  0  0  0
 26 22  1  0  0  0  0
M  END
>  <minimizedAffinity>
-4.805511

$$$$

 OpenBabel03242516103D

 26 28  0  0  0  0  0  0  0  0999 V2000
   37.3510   27.7320   42.1090 C   0  0  0  0  0  0  0  0  0  0  0  0
   37.3470   26.3630   42.6720 C   0  0  0  0  0  0  0  0  0  0  0  0
   36.5310   27.4210   43.3100 C   0  0  0  0  0  0  0  0  0  0  0  0
   38.2530   26.0020   43.1680 H   0  0  0  0  0  0  0  0  0  0  0  0
   36.8040   25.5730   42.0880 H   0  0  0  0  0  0  0  0  0  0  0  0
   36.9560   27.8180   44.2670 H   0  0  0  0  0  0  0  0  0  0  0  0
   35.4400   27.2810   43.2740 H   0  0  0  0  0  0  0  0  0  0  0  0
   38.2900   26.3920   39.5040 Cl  0  0  0  0  0  0  0  0  0  0  0  0
   36.9530   27.4780   39.7010 C   0  0  0  0  0  0  0  0  0  0  0  0
   36.5650   28.0570   40.8910 C   0  0  0  0  0  0  0  0  0  0  0  0
   35.4720   28.9050   40.8830 C   0  0  0  0  0  0  0  0  0  0  0  0
   35.1660   29.3620   41.8150 H   0  0  0  0  0  0  0  0  0  0  0  0
   34.7420   29.2090   39.7570 C   0  0  0  0  0  3  0  0  0  0  0  0
   35.1220   28.6380   38.5730 C   0  0  0  0  0  0  0  0  0  0  0  0
   34.2150   29.0040   37.1300 Cl  0  0  0  0  0  0  0  0  0  0  0  0
   36.2080   27.7910   38.5630 C   0  0  0  0  0  0  0  0  0  0  0  0
   36.4790   27.3560   37.6030 H   0  0  0  0  0  0  0  0  0  0  0  0
   38.5160   29.9640   42.2430 C   0  0  0  0  0  0  0  0  0  0  0  0
   38.5700   28.5690   42.2620 C   0  0  0  0  0  0  0  0  0  0  0  0
   39.8430   27.9780   42.4370 C   0  0  0  0  0  0  0  0  0  0  0  0
   40.9280   28.7820   42.5740 N   0  0  0  0  0  0  0  0  0  0  0  0
   40.8240   30.1290   42.5490 C   0  0  0  0  0  0  0  0  0  0  0  0
   39.6190   30.7060   42.3840 N   0  0  0  0  0  0  0  0  0  0  0  0
   37.5560   30.4740   42.1080 H   0  0  0  0  0  0  0  0  0  0  0  0
   39.9390   26.8960   42.4590 H   0  0  0  0  0  0  0  0  0  0  0  0
   41.7470   30.7040   42.6680 H   0  0  0  0  0  0  0  0  0  0  0  0
  1 19  1  0  0  0  0
  1  2  1  0  0  0  0
  1  3  1  0  0  0  0
  2  4  1  0  0  0  0
  2  3  1  0  0  0  0
  3  6  1  0  0  0  0
  5  2  1  0  0  0  0
  7  3  1  0  0  0  0
  8  9  1  0  0  0  0
  9 10  1  0  0  0  0
 10  1  1  0  0  0  0
 11 10  2  0  0  0  0
 11 12  1  0  0  0  0
 13 11  1  0  0  0  0
 14 13  2  0  0  0  0
 15 14  1  0  0  0  0
 16 14  1  0  0  0  0
 16  9  2  0  0  0  0
 17 16  1  0  0  0  0
 18 19  2  0  0  0  0
 18 23  1  0  0  0  0
 19 20  1  0  0  0  0
 20 25  1  0  0  0  0
 20 21  2  0  0  0  0
 22 21  1  0  0  0  0
 22 26  1  0  0  0  0
 23 22  2  0  0  0  0
 24 18  1  0  0  0  0
M  END
>  <minimizedAffinity>
-4.76324034

$$$$

 OpenBabel03242516103D

 26 28  0  0  0  0  0  0  0  0999 V2000
   37.2910   27.5440   42.4010 C   0  0  0  0  0  0  0  0  0  0  0  0
   37.9240   27.9550   43.6750 C   0  0  0  0  0  0  0  0  0  0  0  0
   36.5390   27.4330   43.6790 C   0  0  0  0  0  0  0  0  0  0  0  0
   38.1050   29.0200   43.8450 H   0  0  0  0  0  0  0  0  0  0  0  0
   38.7290   27.2870   44.0830 H   0  0  0  0  0  0  0  0  0  0  0  0
   35.7510   28.2170   43.8130 H   0  0  0  0  0  0  0  0  0  0  0  0
   36.3800   26.4790   44.2030 H   0  0  0  0  0  0  0  0  0  0  0  0
   40.0370   27.3900   41.0230 Cl  0  0  0  0  0  0  0  0  0  0  0  0
   38.8510   26.1320   41.1380 C   0  0  0  0  0  0  0  0  0  0  0  0
   37.6280   26.2430   41.7680 C   0  0  0  0  0  0  0  0  0  0  0  0
   36.7890   25.1430   41.7730 C   0  0  0  0  0  0  0  0  0  0  0  0
   35.8300   25.2280   42.2650 H   0  0  0  0  0  0  0  0  0  0  0  0
   37.0990   23.9370   41.1870 C   0  0  0  0  0  3  0  0  0  0  0  0
   38.3080   23.8200   40.5600 C   0  0  0  0  0  0  0  0  0  0  0  0
   38.7270   22.3040   39.8080 Cl  0  0  0  0  0  0  0  0  0  0  0  0
   39.1570   24.9060   40.5450 C   0  0  0  0  0  0  0  0  0  0  0  0
   40.1100   24.7740   40.0380 H   0  0  0  0  0  0  0  0  0  0  0  0
   37.4170   29.8880   41.4800 C   0  0  0  0  0  0  0  0  0  0  0  0
   36.9020   28.5910   41.4210 C   0  0  0  0  0  0  0  0  0  0  0  0
   35.9890   28.3100   40.3780 C   0  0  0  0  0  0  0  0  0  0  0  0
   35.6640   29.2970   39.5040 N   0  0  0  0  0  0  0  0  0  0  0  0
   36.1900   30.5380   39.6030 C   0  0  0  0  0  0  0  0  0  0  0  0
   37.0610   30.8200   40.5910 N   0  0  0  0  0  0  0  0  0  0  0  0
   38.1270   30.1600   42.2690 H   0  0  0  0  0  0  0  0  0  0  0  0
   35.5590   27.3160   40.2880 H   0  0  0  0  0  0  0  0  0  0  0  0
   35.8770   31.2750   38.8590 H   0  0  0  0  0  0  0  0  0  0  0  0
  1  2  1  0  0  0  0
  1  3  1  0  0  0  0
  2  3  1  0  0  0  0
  2  4  1  0  0  0  0
  2  5  1  0  0  0  0
  3  6  1  0  0  0  0
  3  7  1  0  0  0  0
  8  9  1  0  0  0  0
  9 10  1  0  0  0  0
 10 11  2  0  0  0  0
 10  1  1  0  0  0  0
 11 12  1  0  0  0  0
 13 11  1  0  0  0  0
 14 13  2  0  0  0  0
 15 14  1  0  0  0  0
 16 14  1  0  0  0  0
 16  9  2  0  0  0  0
 17 16  1  0  0  0  0
 18 24  1  0  0  0  0
 19 18  1  0  0  0  0
 19  1  1  0  0  0  0
 20 19  2  0  0  0  0
 21 22  2  0  0  0  0
 21 20  1  0  0  0  0
 22 23  1  0  0  0  0
 23 18  2  0  0  0  0
 25 20  1  0  0  0  0
 26 22  1  0  0  0  0
M  END
>  <minimizedAffinity>
-4.76217461

$$$$

 OpenBabel03242516103D

 26 28  0  0  0  0  0  0  0  0999 V2000
   37.4490   27.1210   42.5150 C   0  0  0  0  0  0  0  0  0  0  0  0
   36.5680   27.3860   43.6740 C   0  0  0  0  0  0  0  0  0  0  0  0
   36.5270   28.2880   42.5000 C   0  0  0  0  0  0  0  0  0  0  0  0
   37.0250   27.7280   44.6070 H   0  0  0  0  0  0  0  0  0  0  0  0
   35.6980   26.6920   43.8220 H   0  0  0  0  0  0  0  0  0  0  0  0
   37.0370   29.2720   42.6580 H   0  0  0  0  0  0  0  0  0  0  0  0
   35.5860   28.3040   41.9320 H   0  0  0  0  0  0  0  0  0  0  0  0
   37.0610   28.0510   39.6080 Cl  0  0  0  0  0  0  0  0  0  0  0  0
   36.9330   26.4330   40.2160 C   0  0  0  0  0  0  0  0  0  0  0  0
   37.1160   26.0580   41.5310 C   0  0  0  0  0  0  0  0  0  0  0  0
   36.9780   24.7210   41.8590 C   0  0  0  0  0  0  0  0  0  0  0  0
   37.1210   24.4240   42.8890 H   0  0  0  0  0  0  0  0  0  0  0  0
   36.6690   23.7340   40.9500 C   0  0  0  0  0  3  0  0  0  0  0  0
   36.4850   24.1000   39.6450 C   0  0  0  0  0  0  0  0  0  0  0  0
   36.0930   22.8710   38.4720 Cl  0  0  0  0  0  0  0  0  0  0  0  0
   36.6180   25.4270   39.3010 C   0  0  0  0  0  0  0  0  0  0  0  0
   36.4650   25.6780   38.2540 H   0  0  0  0  0  0  0  0  0  0  0  0
   39.5840   28.3020   41.8820 C   0  0  0  0  0  0  0  0  0  0  0  0
   38.9100   27.3540   42.6540 C   0  0  0  0  0  0  0  0  0  0  0  0
   39.6800   26.6190   43.5850 C   0  0  0  0  0  0  0  0  0  0  0  0
   41.0120   26.8680   43.6790 N   0  0  0  0  0  0  0  0  0  0  0  0
   41.6200   27.7970   42.9090 C   0  0  0  0  0  0  0  0  0  0  0  0
   40.8990   28.5050   42.0180 N   0  0  0  0  0  0  0  0  0  0  0  0
   39.0370   28.8980   41.1440 H   0  0  0  0  0  0  0  0  0  0  0  0
   39.2040   25.8700   44.2100 H   0  0  0  0  0  0  0  0  0  0  0  0
   42.6950   27.9360   43.0470 H   0  0  0  0  0  0  0  0  0  0  0  0
  1 19  1  0  0  0  0
  1  2  1  0  0  0  0
  2  5  1  0  0  0  0
  2  4  1  0  0  0  0
  3  1  1  0  0  0  0
  3  6  1  0  0  0  0
  3  2  1  0  0  0  0
  7  3  1  0  0  0  0
  8  9  1  0  0  0  0
  9 10  1  0  0  0  0
 10 11  2  0  0  0  0
 10  1  1  0  0  0  0
 11 12  1  0  0  0  0
 13 11  1  0  0  0  0
 14 13  2  0  0  0  0
 15 14  1  0  0  0  0
 16 14  1  0  0  0  0
 16  9  2  0  0  0  0
 17 16  1  0  0  0  0
 18 23  2  0  0  0  0
 18 19  1  0  0  0  0
 19 20  2  0  0  0  0
 20 21  1  0  0  0  0
 20 25  1  0  0  0  0
 22 26  1  0  0  0  0
 22 21  2  0  0  0  0
 23 22  1  0  0  0  0
 24 18  1  0  0  0  0
M  END
>  <minimizedAffinity>
-4.65891314

$$$$

 OpenBabel03242516103D

 26 28  0  0  0  0  0  0  0  0999 V2000
   37.6670   27.4630   42.5800 C   0  0  0  0  0  0  0  0  0  0  0  0
   36.6720   26.3700   42.6670 C   0  0  0  0  0  0  0  0  0  0  0  0
   36.6200   27.4890   43.6360 C   0  0  0  0  0  0  0  0  0  0  0  0
   37.0120   25.3830   42.9930 H   0  0  0  0  0  0  0  0  0  0  0  0
   35.8790   26.3390   41.8730 H   0  0  0  0  0  0  0  0  0  0  0  0
   36.9990   27.2310   44.6580 H   0  0  0  0  0  0  0  0  0  0  0  0
   35.7310   28.1340   43.5870 H   0  0  0  0  0  0  0  0  0  0  0  0
   38.3330   26.6460   39.6890 Cl  0  0  0  0  0  0  0  0  0  0  0  0
   37.8270   28.2080   40.2460 C   0  0  0  0  0  0  0  0  0  0  0  0
   37.5370   28.5320   41.5550 C   0  0  0  0  0  0  0  0  0  0  0  0
   37.1440   29.8280   41.8400 C   0  0  0  0  0  0  0  0  0  0  0  0
   36.9170   30.0850   42.8660 H   0  0  0  0  0  0  0  0  0  0  0  0
   37.0230   30.8200   40.8940 C   0  0  0  0  0  3  0  0  0  0  0  0
   37.3100   30.5050   39.5940 C   0  0  0  0  0  0  0  0  0  0  0  0
   37.1660   31.7420   38.3740 Cl  0  0  0  0  0  0  0  0  0  0  0  0
   37.7030   29.2190   39.2930 C   0  0  0  0  0  0  0  0  0  0  0  0
   37.9220   29.0070   38.2490 H   0  0  0  0  0  0  0  0  0  0  0  0
   40.0210   28.2050   43.0920 C   0  0  0  0  0  0  0  0  0  0  0  0
   39.0750   27.1850   42.9620 C   0  0  0  0  0  0  0  0  0  0  0  0
   39.5160   25.8650   43.2150 C   0  0  0  0  0  0  0  0  0  0  0  0
   40.8110   25.6590   43.5640 N   0  0  0  0  0  0  0  0  0  0  0  0
   41.6900   26.6800   43.6770 C   0  0  0  0  0  0  0  0  0  0  0  0
   41.2850   27.9420   43.4390 N   0  0  0  0  0  0  0  0  0  0  0  0
   39.7340   29.2450   42.9060 H   0  0  0  0  0  0  0  0  0  0  0  0
   38.8190   25.0370   43.1280 H   0  0  0  0  0  0  0  0  0  0  0  0
   42.7150   26.4290   43.9630 H   0  0  0  0  0  0  0  0  0  0  0  0
  1  2  1  0  0  0  0
  1 19  1  0  0  0  0
  1  3  1  0  0  0  0
  2  4  1  0  0  0  0
  2  3  1  0  0  0  0
  3  6  1  0  0  0  0
  5  2  1  0  0  0  0
  7  3  1  0  0  0  0
  8  9  1  0  0  0  0
  9 10  1  0  0  0  0
 10 11  2  0  0  0  0
 10  1  1  0  0  0  0
 11 12  1  0  0  0  0
 13 11  1  0  0  0  0
 14 13  2  0  0  0  0
 15 14  1  0  0  0  0
 16 14  1  0  0  0  0
 16  9  2  0  0  0  0
 17 16  1  0  0  0  0
 18 23  1  0  0  0  0
 19 18  2  0  0  0  0
 19 20  1  0  0  0  0
 20 21  2  0  0  0  0
 21 22  1  0  0  0  0
 22 26  1  0  0  0  0
 23 22  2  0  0  0  0
 24 18  1  0  0  0  0
 25 20  1  0  0  0  0
M  END
>  <minimizedAffinity>
-4.65192604

$$$$

 OpenBabel03242516103D

 26 28  0  0  0  0  0  0  0  0999 V2000
   37.6350   27.5490   42.5660 C   0  0  0  0  0  0  0  0  0  0  0  0
   36.5570   27.3080   43.5510 C   0  0  0  0  0  0  0  0  0  0  0  0
   37.4130   28.5090   43.6790 C   0  0  0  0  0  0  0  0  0  0  0  0
   36.6720   26.4800   44.2560 H   0  0  0  0  0  0  0  0  0  0  0  0
   35.5010   27.4620   43.2000 H   0  0  0  0  0  0  0  0  0  0  0  0
   38.1790   28.4440   44.4940 H   0  0  0  0  0  0  0  0  0  0  0  0
   36.9140   29.4800   43.5470 H   0  0  0  0  0  0  0  0  0  0  0  0
   38.8730   30.2830   41.8920 Cl  0  0  0  0  0  0  0  0  0  0  0  0
   37.8620   29.3120   40.8730 C   0  0  0  0  0  0  0  0  0  0  0  0
   37.3260   28.0870   41.2150 C   0  0  0  0  0  0  0  0  0  0  0  0
   36.5360   27.4330   40.2870 C   0  0  0  0  0  0  0  0  0  0  0  0
   36.1140   26.4730   40.5530 H   0  0  0  0  0  0  0  0  0  0  0  0
   36.2480   27.9300   39.0360 C   0  0  0  0  0  3  0  0  0  0  0  0
   36.7750   29.1440   38.6910 C   0  0  0  0  0  0  0  0  0  0  0  0
   36.4270   29.7980   37.1130 Cl  0  0  0  0  0  0  0  0  0  0  0  0
   37.5650   29.8090   39.6040 C   0  0  0  0  0  0  0  0  0  0  0  0
   37.9660   30.7710   39.2920 H   0  0  0  0  0  0  0  0  0  0  0  0
   38.7420   25.2850   42.6350 C   0  0  0  0  0  0  0  0  0  0  0  0
   38.8380   26.6770   42.5890 C   0  0  0  0  0  0  0  0  0  0  0  0
   40.1390   27.2300   42.5630 C   0  0  0  0  0  0  0  0  0  0  0  0
   41.2100   26.3950   42.5830 N   0  0  0  0  0  0  0  0  0  0  0  0
   41.0650   25.0520   42.6280 C   0  0  0  0  0  0  0  0  0  0  0  0
   39.8330   24.5110   42.6530 N   0  0  0  0  0  0  0  0  0  0  0  0
   37.7580   24.8040   42.6590 H   0  0  0  0  0  0  0  0  0  0  0  0
   40.2690   28.3080   42.5260 H   0  0  0  0  0  0  0  0  0  0  0  0
   41.9780   24.4510   42.6410 H   0  0  0  0  0  0  0  0  0  0  0  0
  1 19  1  0  0  0  0
  1  2  1  0  0  0  0
  1  3  1  0  0  0  0
  2  3  1  0  0  0  0
  2  4  1  0  0  0  0
  3  6  1  0  0  0  0
  5  2  1  0  0  0  0
  7  3  1  0  0  0  0
  9 10  1  0  0  0  0
  9  8  1  0  0  0  0
 10  1  1  0  0  0  0
 11 12  1  0  0  0  0
 11 10  2  0  0  0  0
 13 11  1  0  0  0  0
 14 13  2  0  0  0  0
 14 16  1  0  0  0  0
 15 14  1  0  0  0  0
 16  9  2  0  0  0  0
 17 16  1  0  0  0  0
 18 23  1  0  0  0  0
 18 24  1  0  0  0  0
 19 18  2  0  0  0  0
 20 21  2  0  0  0  0
 20 19  1  0  0  0  0
 21 22  1  0  0  0  0
 22 26  1  0  0  0  0
 22 23  2  0  0  0  0
 25 20  1  0  0  0  0
M  END
>  <minimizedAffinity>
-4.60776281

$$$$

 OpenBabel03242516103D

 26 28  0  0  0  0  0  0  0  0999 V2000
   35.9480   28.8750   39.6220 C   0  0  0  0  0  0  0  0  0  0  0  0
   35.1780   28.5190   38.4090 C   0  0  0  0  0  0  0  0  0  0  0  0
   34.4970   29.1900   39.5400 C   0  0  0  0  0  0  0  0  0  0  0  0
   34.9850   27.4610   38.2090 H   0  0  0  0  0  0  0  0  0  0  0  0
   35.3690   29.1290   37.4870 H   0  0  0  0  0  0  0  0  0  0  0  0
   33.8500   28.5130   40.1560 H   0  0  0  0  0  0  0  0  0  0  0  0
   34.1100   30.2000   39.3450 H   0  0  0  0  0  0  0  0  0  0  0  0
   38.4760   28.6880   37.8780 Cl  0  0  0  0  0  0  0  0  0  0  0  0
   37.9830   30.0230   38.8680 C   0  0  0  0  0  0  0  0  0  0  0  0
   36.8380   30.0660   39.6370 C   0  0  0  0  0  0  0  0  0  0  0  0
   36.5850   31.2080   40.3750 C   0  0  0  0  0  0  0  0  0  0  0  0
   35.6880   31.2440   40.9790 H   0  0  0  0  0  0  0  0  0  0  0  0
   37.4070   32.3110   40.3910 C   0  0  0  0  0  3  0  0  0  0  0  0
   38.5440   32.2750   39.6330 C   0  0  0  0  0  0  0  0  0  0  0  0
   39.6050   33.6590   39.6330 Cl  0  0  0  0  0  0  0  0  0  0  0  0
   38.8120   31.1450   38.8910 C   0  0  0  0  0  0  0  0  0  0  0  0
   39.7250   31.1540   38.3000 H   0  0  0  0  0  0  0  0  0  0  0  0
   36.5910   28.0000   41.8970 C   0  0  0  0  0  0  0  0  0  0  0  0
   36.4040   27.7910   40.5290 C   0  0  0  0  0  0  0  0  0  0  0  0
   36.6670   26.4910   40.0370 C   0  0  0  0  0  0  0  0  0  0  0  0
   37.0790   25.5300   40.9030 N   0  0  0  0  0  0  0  0  0  0  0  0
   37.2460   25.7820   42.2210 C   0  0  0  0  0  0  0  0  0  0  0  0
   37.0000   27.0150   42.7040 N   0  0  0  0  0  0  0  0  0  0  0  0
   36.4050   28.9880   42.3310 H   0  0  0  0  0  0  0  0  0  0  0  0
   36.5370   26.2760   38.9810 H   0  0  0  0  0  0  0  0  0  0  0  0
   37.5800   24.9530   42.8510 H   0  0  0  0  0  0  0  0  0  0  0  0
  1 10  1  0  0  0  0
  1 19  1  0  0  0  0
  2  3  1  0  0  0  0
  2  1  1  0  0  0  0
  3  1  1  0  0  0  0
  3  6  1  0  0  0  0
  4  2  1  0  0  0  0
  5  2  1  0  0  0  0
  7  3  1  0  0  0  0
  8  9  1  0  0  0  0
  9 16  2  0  0  0  0
  9 10  1  0  0  0  0
 10 11  2  0  0  0  0
 11 13  1  0  0  0  0
 11 12  1  0  0  0  0
 14 15  1  0  0  0  0
 14 13  2  0  0  0  0
 16 14  1  0  0  0  0
 17 16  1  0  0  0  0
 18 24  1  0  0  0  0
 18 23  1  0  0  0  0
 19 18  2  0  0  0  0
 20 19  1  0  0  0  0
 20 21  2  0  0  0  0
 21 22  1  0  0  0  0
 22 23  2  0  0  0  0
 22 26  1  0  0  0  0
 25 20  1  0  0  0  0
M  END
>  <minimizedAffinity>
-4.57984591

$$$$

 OpenBabel03242516103D

 26 28  0  0  0  0  0  0  0  0999 V2000
   38.5420   31.8940   40.1220 C   0  0  0  0  0  0  0  0  0  0  0  0
   38.5270   33.2750   40.6560 C   0  0  0  0  0  0  0  0  0  0  0  0
   37.5080   32.8610   39.6650 C   0  0  0  0  0  0  0  0  0  0  0  0
   39.3300   33.9550   40.3580 H   0  0  0  0  0  0  0  0  0  0  0  0
   38.1900   33.4070   41.7180 H   0  0  0  0  0  0  0  0  0  0  0  0
   37.6820   33.2570   38.6310 H   0  0  0  0  0  0  0  0  0  0  0  0
   36.4670   32.8400   40.0170 H   0  0  0  0  0  0  0  0  0  0  0  0
   40.2100   31.0980   42.5810 Cl  0  0  0  0  0  0  0  0  0  0  0  0
   38.7330   30.3720   42.0380 C   0  0  0  0  0  0  0  0  0  0  0  0
   38.0150   30.7610   40.9260 C   0  0  0  0  0  0  0  0  0  0  0  0
   36.8510   30.0770   40.6240 C   0  0  0  0  0  0  0  0  0  0  0  0
   36.2860   30.3800   39.7530 H   0  0  0  0  0  0  0  0  0  0  0  0
   36.3600   29.0270   41.3660 C   0  0  0  0  0  3  0  0  0  0  0  0
   37.0680   28.6360   42.4690 C   0  0  0  0  0  0  0  0  0  0  0  0
   36.4710   27.3080   43.4290 Cl  0  0  0  0  0  0  0  0  0  0  0  0
   38.2300   29.3060   42.7850 C   0  0  0  0  0  0  0  0  0  0  0  0
   38.7650   28.9660   43.6690 H   0  0  0  0  0  0  0  0  0  0  0  0
   39.5230   30.3650   38.3750 C   0  0  0  0  0  0  0  0  0  0  0  0
   39.6260   31.4960   39.1870 C   0  0  0  0  0  0  0  0  0  0  0  0
   40.8130   32.2570   39.0810 C   0  0  0  0  0  0  0  0  0  0  0  0
   41.7760   31.8560   38.2110 N   0  0  0  0  0  0  0  0  0  0  0  0
   41.6290   30.7520   37.4450 C   0  0  0  0  0  0  0  0  0  0  0  0
   40.5040   30.0180   37.5350 N   0  0  0  0  0  0  0  0  0  0  0  0
   38.6260   29.7380   38.4180 H   0  0  0  0  0  0  0  0  0  0  0  0
   40.9430   33.1460   39.6910 H   0  0  0  0  0  0  0  0  0  0  0  0
   42.4510   30.4990   36.7700 H   0  0  0  0  0  0  0  0  0  0  0  0
  1  2  1  0  0  0  0
  1 10  1  0  0  0  0
  2  5  1  0  0  0  0
  3  7  1  0  0  0  0
  3  1  1  0  0  0  0
  3  2  1  0  0  0  0
  4  2  1  0  0  0  0
  6  3  1  0  0  0  0
  9  8  1  0  0  0  0
  9 16  1  0  0  0  0
 10  9  2  0  0  0  0
 11 10  1  0  0  0  0
 11 13  2  0  0  0  0
 12 11  1  0  0  0  0
 13 14  1  0  0  0  0
 14 16  2  0  0  0  0
 14 15  1  0  0  0  0
 16 17  1  0  0  0  0
 18 24  1  0  0  0  0
 18 19  1  0  0  0  0
 19  1  1  0  0  0  0
 20 19  2  0  0  0  0
 20 25  1  0  0  0  0
 21 20  1  0  0  0  0
 22 23  1  0  0  0  0
 22 21  2  0  0  0  0
 23 18  2  0  0  0  0
 26 22  1  0  0  0  0
M  END
>  <minimizedAffinity>
-4.54495811

$$$$
