
 OpenBabel03242523533D

 46 49  0  0  1  0  0  0  0  0999 V2000
   42.8040   34.5450   38.7290 C   0  0  1  0  0  0  0  0  0  0  0  0
   42.9530   35.1900   40.0980 C   0  0  1  0  0  0  0  0  0  0  0  0
   41.6610   35.4030   40.6250 O   0  0  0  0  0  0  0  0  0  0  0  0
   40.7300   35.7540   39.6440 C   0  0  0  0  0  0  0  0  0  0  0  0
   40.4250   34.6000   38.7080 C   0  0  2  0  0  0  0  0  0  0  0  0
   41.6400   33.6170   38.8280 C   0  0  1  0  0  0  0  0  0  0  0  0
   43.7470   34.0410   38.4270 H   0  0  0  0  0  0  0  0  0  0  0  0
   43.5350   36.1180   40.0820 H   0  0  0  0  0  0  0  0  0  0  0  0
   41.0290   36.6660   39.0900 H   0  0  0  0  0  0  0  0  0  0  0  0
   39.8050   35.9750   40.1920 H   0  0  0  0  0  0  0  0  0  0  0  0
   39.5010   34.0500   38.9730 H   0  0  0  0  0  0  0  0  0  0  0  0
   41.4280   33.3440   39.9130 H   0  0  0  0  0  0  0  0  0  0  0  0
   42.5830   35.5170   37.7410 O   0  0  0  0  0  0  0  0  0  0  0  0
   43.2120   36.2730   37.8600 H   0  0  0  0  0  0  0  0  0  0  0  0
   40.4400   35.0400   37.3960 O   0  0  0  0  0  0  0  0  0  0  0  0
   39.5970   35.5100   37.2060 H   0  0  0  0  0  0  0  0  0  0  0  0
   43.4870   34.1880   40.9230 O   0  0  0  0  0  0  0  0  0  0  0  0
   44.5860   34.3220   41.6730 C   0  0  0  0  0  0  0  0  0  0  0  0
   45.8540   34.4330   41.0830 C   0  0  0  0  0  0  0  0  0  0  0  0
   46.9630   34.5700   41.8990 C   0  0  0  0  0  0  0  0  0  0  0  0
   46.7890   34.5950   43.2700 N   0  0  0  0  0  0  0  0  0  0  0  0
   45.5510   34.4860   43.8080 C   0  0  0  0  0  0  0  0  0  0  0  0
   44.4600   34.3500   43.0110 N   0  0  0  0  0  0  0  0  0  0  0  0
   45.9980   34.4130   40.0020 H   0  0  0  0  0  0  0  0  0  0  0  0
   45.4620   34.5100   44.8840 H   0  0  0  0  0  0  0  0  0  0  0  0
   48.3470   34.6700   41.3370 C   0  0  0  0  0  0  0  0  0  0  0  0
   49.0610   36.0080   41.5140 C   0  0  0  0  0  0  0  0  0  0  0  0
   49.4870   34.6950   42.1980 C   0  0  0  0  0  0  0  0  0  0  0  0
   48.4250   34.2210   40.3120 H   0  0  0  0  0  0  0  0  0  0  0  0
   49.7290   36.2800   40.6750 H   0  0  0  0  0  0  0  0  0  0  0  0
   48.5620   36.7800   42.1160 H   0  0  0  0  0  0  0  0  0  0  0  0
   50.4760   34.2850   41.9590 H   0  0  0  0  0  0  0  0  0  0  0  0
   49.3060   34.7260   43.3040 H   0  0  0  0  0  0  0  0  0  0  0  0
   41.5060   32.6850   37.8690 O   0  0  0  0  0  0  0  0  0  0  0  0
   40.8960   31.4970   37.8610 C   0  0  0  0  0  0  0  0  0  0  0  0
   39.6120   31.3890   37.5230 O   0  0  0  0  0  0  0  0  0  0  0  0
   42.6230   30.0930   35.8080 Cl  0  0  0  0  0  0  0  0  0  0  0  0
   42.1770   29.3450   37.3400 C   0  0  0  0  0  0  0  0  0  0  0  0
   41.3810   30.1000   38.1720 C   0  0  0  0  0  0  0  0  0  0  0  0
   41.0800   29.4500   39.3400 C   0  0  0  0  0  0  0  0  0  0  0  0
   40.4570   29.9250   40.0960 H   0  0  0  0  0  0  0  0  0  0  0  0
   41.5180   28.1990   39.6400 C   0  0  0  0  0  3  0  0  0  0  0  0
   42.3030   27.5160   38.7630 C   0  0  0  0  0  0  0  0  0  0  0  0
   42.8630   25.9170   39.1500 Cl  0  0  0  0  0  0  0  0  0  0  0  0
   42.6630   28.0820   37.5610 C   0  0  0  0  0  0  0  0  0  0  0  0
   43.2760   27.5890   36.8400 H   0  0  0  0  0  0  0  0  0  0  0  0
  1  7  1  6  0  0  0
  1  6  1  0  0  0  0
  1  2  1  0  0  0  0
  2  8  1  6  0  0  0
  2  3  1  0  0  0  0
  2 17  1  0  0  0  0
  4 10  1  0  0  0  0
  4  3  1  0  0  0  0
  5  6  1  0  0  0  0
  5 11  1  1  0  0  0
  5  4  1  0  0  0  0
  6 12  1  1  0  0  0
  9  4  1  0  0  0  0
 13 14  1  0  0  0  0
 13  1  1  0  0  0  0
 15  5  1  0  0  0  0
 16 15  1  0  0  0  0
 17 18  1  0  0  0  0
 18 23  1  0  0  0  0
 19 18  2  0  0  0  0
 19 20  1  0  0  0  0
 20 21  2  0  0  0  0
 21 22  1  0  0  0  0
 22 25  1  0  0  0  0
 23 22  2  0  0  0  0
 24 19  1  0  0  0  0
 26 27  1  0  0  0  0
 26 20  1  0  0  0  0
 26 28  1  0  0  0  0
 27 31  1  0  0  0  0
 27 28  1  0  0  0  0
 28 33  1  0  0  0  0
 29 26  1  0  0  0  0
 30 27  1  0  0  0  0
 32 28  1  0  0  0  0
 34  6  1  0  0  0  0
 35 34  1  0  0  0  0
 35 39  1  0  0  0  0
 36 35  2  0  0  0  0
 37 38  1  0  0  0  0
 38 45  2  0  0  0  0
 38 39  1  0  0  0  0
 39 40  2  0  0  0  0
 40 42  1  0  0  0  0
 40 41  1  0  0  0  0
 43 44  1  0  0  0  0
 43 42  2  0  0  0  0
 45 43  1  0  0  0  0
 46 45  1  0  0  0  0
M  END
>  <minimizedAffinity>
-5.77063704

>  <minimizedRMSD>
0.346061528

$$$$
