
 OpenBabel03252502473D

 46 49  0  0  1  0  0  0  0  0999 V2000
   46.6540   35.4920   42.2500 C   0  0  0  0  0  0  0  0  0  0  0  0
   46.9470   35.9190   43.2350 H   0  0  0  0  0  0  0  0  0  0  0  0
   46.1100   36.3280   41.7420 H   0  0  0  0  0  0  0  0  0  0  0  0
   47.8660   35.0500   41.4960 C   0  0  1  0  0  0  0  0  0  0  0  0
   49.0880   35.9190   41.5570 C   0  0  0  0  0  0  0  0  0  0  0  0
   49.0170   34.6090   42.2680 C   0  0  2  0  0  0  0  0  0  0  0  0
   47.6480   34.6530   40.5090 H   0  0  0  0  0  0  0  0  0  0  0  0
   49.7290   36.0770   40.6710 H   0  0  0  0  0  0  0  0  0  0  0  0
   48.9840   36.8660   42.1550 H   0  0  0  0  0  0  0  0  0  0  0  0
   49.1260   34.6820   43.3470 H   0  0  0  0  0  0  0  0  0  0  0  0
   49.7940   33.5650   41.6100 N   0  0  0  0  0  0  0  0  0  0  0  0
   49.0300   32.6920   40.8030 C   0  0  0  0  0  0  0  0  0  0  0  0
   50.0130   31.6920   40.2220 C   0  0  0  0  0  0  0  0  0  0  0  0
   50.6430   30.9190   41.2340 N   0  0  0  0  0  0  0  0  0  0  0  0
   50.7330   31.5760   42.5240 C   0  0  0  0  0  0  0  0  0  0  0  0
   50.9040   33.0790   42.3060 C   0  0  0  0  0  0  0  0  0  0  0  0
   48.4740   33.2080   40.0230 H   0  0  0  0  0  0  0  0  0  0  0  0
   48.3370   32.1140   41.4430 H   0  0  0  0  0  0  0  0  0  0  0  0
   50.6940   32.2530   39.5510 H   0  0  0  0  0  0  0  0  0  0  0  0
   49.4040   31.0350   39.5620 H   0  0  0  0  0  0  0  0  0  0  0  0
   51.5710   30.5670   40.9060 H   0  0  0  0  0  0  0  0  0  0  0  0
   51.6800   31.1820   42.9880 H   0  0  0  0  0  0  0  0  0  0  0  0
   49.8350   31.3550   43.1040 H   0  0  0  0  0  0  0  0  0  0  0  0
   51.1340   33.6060   43.2290 H   0  0  0  0  0  0  0  0  0  0  0  0
   51.8060   33.1520   41.6330 H   0  0  0  0  0  0  0  0  0  0  0  0
   45.7920   34.2810   42.4460 C   0  0  0  0  0  0  0  0  0  0  0  0
   46.0020   33.4150   41.8380 H   0  0  0  0  0  0  0  0  0  0  0  0
   44.7430   34.5840   42.1590 H   0  0  0  0  0  0  0  0  0  0  0  0
   44.8320   34.5750   46.0610 C   0  0  0  0  0  0  0  0  0  0  0  0
   44.9160   34.8560   44.6730 C   0  0  0  0  0  0  0  0  0  0  0  0
   45.6780   34.0120   43.9170 C   0  0  0  0  0  0  0  0  0  0  0  0
   46.3080   32.9640   44.5070 N   0  0  0  0  0  0  0  0  0  0  0  0
   46.2220   32.7160   45.7940 C   0  0  0  0  0  0  0  0  0  0  0  0
   45.4830   33.5180   46.5830 N   0  0  0  0  0  0  0  0  0  0  0  0
   44.2370   35.2330   46.6550 H   0  0  0  0  0  0  0  0  0  0  0  0
   44.4180   35.6850   44.2060 H   0  0  0  0  0  0  0  0  0  0  0  0
   45.9580   32.4430   48.8110 Cl  0  0  0  0  0  0  0  0  0  0  0  0
   46.8540   31.3630   47.7780 C   0  0  0  0  0  0  0  0  0  0  0  0
   46.9030   31.5870   46.4180 C   0  0  0  0  0  0  0  0  0  0  0  0
   47.6380   30.6790   45.6850 C   0  0  0  0  0  0  0  0  0  0  0  0
   47.7140   30.8030   44.6020 H   0  0  0  0  0  0  0  0  0  0  0  0
   48.3050   29.5900   46.2170 C   0  0  0  0  0  3  0  0  0  0  0  0
   48.2120   29.4280   47.5840 C   0  0  0  0  0  0  0  0  0  0  0  0
   49.0670   28.0370   48.2500 Cl  0  0  0  0  0  0  0  0  0  0  0  0
   47.4910   30.3000   48.4030 C   0  0  0  0  0  0  0  0  0  0  0  0
   47.4790   30.0890   49.4460 H   0  0  0  0  0  0  0  0  0  0  0  0
  1 26  1  0  0  0  0
  1  2  1  0  0  0  0
  3  1  1  0  0  0  0
  4  7  1  6  0  0  0
  4  5  1  0  0  0  0
  4  1  1  0  0  0  0
  4  6  1  0  0  0  0
  5  9  1  0  0  0  0
  5  6  1  0  0  0  0
  6 10  1  1  0  0  0
  8  5  1  0  0  0  0
 11  6  1  0  0  0  0
 11 16  1  0  0  0  0
 12 18  1  0  0  0  0
 12 11  1  0  0  0  0
 13 12  1  0  0  0  0
 13 14  1  0  0  0  0
 14 15  1  0  0  0  0
 15 22  1  0  0  0  0
 15 23  1  0  0  0  0
 16 15  1  0  0  0  0
 16 24  1  0  0  0  0
 17 12  1  0  0  0  0
 19 13  1  0  0  0  0
 20 13  1  0  0  0  0
 21 14  1  0  0  0  0
 25 16  1  0  0  0  0
 26 31  1  0  0  0  0
 27 26  1  0  0  0  0
 28 26  1  0  0  0  0
 29 34  1  0  0  0  0
 29 35  1  0  0  0  0
 30 29  2  0  0  0  0
 31 32  2  0  0  0  0
 31 30  1  0  0  0  0
 32 33  1  0  0  0  0
 33 39  1  0  0  0  0
 33 34  2  0  0  0  0
 36 30  1  0  0  0  0
 38 45  1  0  0  0  0
 38 37  1  0  0  0  0
 39 38  2  0  0  0  0
 40 42  2  0  0  0  0
 40 39  1  0  0  0  0
 41 40  1  0  0  0  0
 42 43  1  0  0  0  0
 43 44  1  0  0  0  0
 43 45  2  0  0  0  0
 45 46  1  0  0  0  0
M  END
>  <minimizedAffinity>
-5.65403461

>  <minimizedRMSD>
2.07698154

$$$$
