
 OpenBabel03242516013D

 29 31  0  0  0  0  0  0  0  0999 V2000
   38.4980   27.7410   39.6500 Cl  0  0  0  0  0  0  0  0  0  0  0  0
   37.7480   27.5090   41.2180 C   0  0  0  0  0  0  0  0  0  0  0  0
   37.3310   26.2850   41.6190 C   0  0  0  0  0  0  0  0  0  0  0  0
   36.7540   26.2150   42.8740 C   0  0  0  0  0  0  0  0  0  0  0  0
   36.6040   27.2990   43.6790 C   0  0  0  0  0  0  0  0  0  0  0  0
   37.0320   28.5320   43.2600 C   0  0  0  0  0  0  0  0  0  0  0  0
   37.6130   28.6250   42.0060 C   0  0  0  0  0  0  0  0  0  0  0  0
   36.4070   25.2490   43.2290 H   0  0  0  0  0  0  0  0  0  0  0  0
   36.1470   27.2110   44.6590 H   0  0  0  0  0  0  0  0  0  0  0  0
   36.9010   29.3840   43.9190 H   0  0  0  0  0  0  0  0  0  0  0  0
   35.5260   30.0140   40.4740 Cl  0  0  0  0  0  0  0  0  0  0  0  0
   37.1060   30.6690   40.8900 C   0  0  0  0  0  0  0  0  0  0  0  0
   38.0470   29.9620   41.6160 C   0  0  0  0  0  0  0  0  0  0  0  0
   39.2590   30.5540   41.8970 C   0  0  0  0  0  0  0  0  0  0  0  0
   39.9530   29.9520   42.4670 H   0  0  0  0  0  0  0  0  0  0  0  0
   39.5480   31.8300   41.4680 C   0  0  0  0  0  3  0  0  0  0  0  0
   38.5800   32.5130   40.7410 C   0  0  0  0  0  0  0  0  0  0  0  0
   38.8910   34.1570   40.1630 Cl  0  0  0  0  0  0  0  0  0  0  0  0
   37.3350   31.9690   40.4250 C   0  0  0  0  0  0  0  0  0  0  0  0
   36.6130   32.5250   39.8620 H   0  0  0  0  0  0  0  0  0  0  0  0
   36.7570   23.6490   38.9620 C   0  0  0  0  0  0  0  0  0  0  0  0
   36.5630   24.7500   39.8060 C   0  0  0  0  0  0  0  0  0  0  0  0
   37.5070   25.1500   40.7350 C   0  0  0  0  0  0  0  0  0  0  0  0
   38.6380   24.3940   40.7650 N   0  0  0  0  0  0  0  0  0  0  0  0
   38.8290   23.3400   39.9590 C   0  0  0  0  0  0  0  0  0  0  0  0
   37.9030   22.9600   39.0610 N   0  0  0  0  0  0  0  0  0  0  0  0
   35.9840   23.3740   38.2490 H   0  0  0  0  0  0  0  0  0  0  0  0
   35.6550   25.3400   39.7670 H   0  0  0  0  0  0  0  0  0  0  0  0
   39.7810   22.8070   40.0750 H   0  0  0  0  0  0  0  0  0  0  0  0
  1  2  1  0  0  0  0
  2  3  2  0  0  0  0
  2  7  1  0  0  0  0
  3  4  1  0  0  0  0
  4  8  1  0  0  0  0
  4  5  2  0  0  0  0
  5  9  1  0  0  0  0
  6  5  1  0  0  0  0
  6 10  1  0  0  0  0
  7  6  2  0  0  0  0
 11 12  1  0  0  0  0
 12 13  1  0  0  0  0
 13 14  2  0  0  0  0
 13  7  1  0  0  0  0
 14 15  1  0  0  0  0
 16 14  1  0  0  0  0
 17 16  2  0  0  0  0
 18 17  1  0  0  0  0
 19 17  1  0  0  0  0
 19 12  2  0  0  0  0
 20 19  1  0  0  0  0
 21 26  2  0  0  0  0
 21 22  1  0  0  0  0
 22 23  2  0  0  0  0
 23 24  1  0  0  0  0
 23  3  1  0  0  0  0
 25 29  1  0  0  0  0
 25 24  2  0  0  0  0
 26 25  1  0  0  0  0
 27 21  1  0  0  0  0
 28 22  1  0  0  0  0
M  END
>  <minimizedAffinity>
-5.54907084

$$$$

 OpenBabel03242516013D

 29 31  0  0  0  0  0  0  0  0999 V2000
   38.1590   27.7930   39.4830 Cl  0  0  0  0  0  0  0  0  0  0  0  0
   37.5660   27.5850   41.1190 C   0  0  0  0  0  0  0  0  0  0  0  0
   37.2780   26.3550   41.6080 C   0  0  0  0  0  0  0  0  0  0  0  0
   36.8180   26.3050   42.9110 C   0  0  0  0  0  0  0  0  0  0  0  0
   36.6560   27.4140   43.6800 C   0  0  0  0  0  0  0  0  0  0  0  0
   36.9520   28.6520   43.1720 C   0  0  0  0  0  0  0  0  0  0  0  0
   37.4150   28.7250   41.8690 C   0  0  0  0  0  0  0  0  0  0  0  0
   36.5760   25.3360   43.3350 H   0  0  0  0  0  0  0  0  0  0  0  0
   36.2930   27.3410   44.6990 H   0  0  0  0  0  0  0  0  0  0  0  0
   36.8160   29.5240   43.8040 H   0  0  0  0  0  0  0  0  0  0  0  0
   40.1630   29.5100   42.5490 Cl  0  0  0  0  0  0  0  0  0  0  0  0
   38.9960   30.4980   41.6760 C   0  0  0  0  0  0  0  0  0  0  0  0
   37.7130   30.0690   41.3860 C   0  0  0  0  0  0  0  0  0  0  0  0
   36.8660   30.9100   40.6970 C   0  0  0  0  0  0  0  0  0  0  0  0
   35.8780   30.5180   40.5010 H   0  0  0  0  0  0  0  0  0  0  0  0
   37.2720   32.1620   40.2960 C   0  0  0  0  0  3  0  0  0  0  0  0
   38.5670   32.5620   40.6030 C   0  0  0  0  0  0  0  0  0  0  0  0
   39.1490   34.1600   40.1130 Cl  0  0  0  0  0  0  0  0  0  0  0  0
   39.4720   31.7580   41.2970 C   0  0  0  0  0  0  0  0  0  0  0  0
   40.4630   32.1000   41.5160 H   0  0  0  0  0  0  0  0  0  0  0  0
   36.6790   23.5610   39.1230 C   0  0  0  0  0  0  0  0  0  0  0  0
   36.4760   24.6850   39.9340 C   0  0  0  0  0  0  0  0  0  0  0  0
   37.4620   25.1940   40.7600 C   0  0  0  0  0  0  0  0  0  0  0  0
   38.6440   24.5200   40.7240 N   0  0  0  0  0  0  0  0  0  0  0  0
   38.8440   23.4440   39.9490 C   0  0  0  0  0  0  0  0  0  0  0  0
   37.8770   22.9590   39.1510 N   0  0  0  0  0  0  0  0  0  0  0  0
   35.8710   23.2000   38.4910 H   0  0  0  0  0  0  0  0  0  0  0  0
   35.5270   25.2080   39.9480 H   0  0  0  0  0  0  0  0  0  0  0  0
   39.8380   22.9840   40.0050 H   0  0  0  0  0  0  0  0  0  0  0  0
  1  2  1  0  0  0  0
  2  3  2  0  0  0  0
  2  7  1  0  0  0  0
  3  4  1  0  0  0  0
  4  8  1  0  0  0  0
  4  5  2  0  0  0  0
  5  9  1  0  0  0  0
  6  5  1  0  0  0  0
  6 10  1  0  0  0  0
  7  6  2  0  0  0  0
 12 11  1  0  0  0  0
 13 12  1  0  0  0  0
 13  7  1  0  0  0  0
 14 13  2  0  0  0  0
 15 14  1  0  0  0  0
 16 17  2  0  0  0  0
 16 14  1  0  0  0  0
 17 19  1  0  0  0  0
 18 17  1  0  0  0  0
 19 20  1  0  0  0  0
 19 12  2  0  0  0  0
 21 26  2  0  0  0  0
 21 22  1  0  0  0  0
 22 28  1  0  0  0  0
 22 23  2  0  0  0  0
 23  3  1  0  0  0  0
 24 23  1  0  0  0  0
 25 29  1  0  0  0  0
 25 24  2  0  0  0  0
 26 25  1  0  0  0  0
 27 21  1  0  0  0  0
M  END
>  <minimizedAffinity>
-5.48223877

$$$$

 OpenBabel03242516013D

 29 31  0  0  0  0  0  0  0  0999 V2000
   40.3130   29.4570   39.5960 Cl  0  0  0  0  0  0  0  0  0  0  0  0
   39.0440   30.6560   39.7600 C   0  0  0  0  0  0  0  0  0  0  0  0
   39.2640   31.9540   39.4440 C   0  0  0  0  0  0  0  0  0  0  0  0
   38.1950   32.8150   39.6100 C   0  0  0  0  0  0  0  0  0  0  0  0
   36.9810   32.4050   40.0640 C   0  0  0  0  0  0  0  0  0  0  0  0
   36.7720   31.0880   40.3790 C   0  0  0  0  0  0  0  0  0  0  0  0
   37.8310   30.2080   40.2200 C   0  0  0  0  0  0  0  0  0  0  0  0
   38.3340   33.8630   39.3670 H   0  0  0  0  0  0  0  0  0  0  0  0
   36.1620   33.1060   40.1830 H   0  0  0  0  0  0  0  0  0  0  0  0
   35.7950   30.7830   40.7390 H   0  0  0  0  0  0  0  0  0  0  0  0
   38.5220   29.6630   43.0220 Cl  0  0  0  0  0  0  0  0  0  0  0  0
   37.8530   28.5000   41.8820 C   0  0  0  0  0  0  0  0  0  0  0  0
   37.5480   28.8200   40.5720 C   0  0  0  0  0  0  0  0  0  0  0  0
   37.0270   27.8460   39.7480 C   0  0  0  0  0  0  0  0  0  0  0  0
   36.8090   28.1570   38.7360 H   0  0  0  0  0  0  0  0  0  0  0  0
   36.8060   26.5670   40.2060 C   0  0  0  0  0  3  0  0  0  0  0  0
   37.1230   26.2790   41.5280 C   0  0  0  0  0  0  0  0  0  0  0  0
   36.8620   24.6520   42.1760 Cl  0  0  0  0  0  0  0  0  0  0  0  0
   37.6530   27.2200   42.4110 C   0  0  0  0  0  0  0  0  0  0  0  0
   37.8860   26.9620   43.4230 H   0  0  0  0  0  0  0  0  0  0  0  0
   42.1710   32.8350   37.1820 C   0  0  0  0  0  0  0  0  0  0  0  0
   40.8990   32.4440   37.6220 C   0  0  0  0  0  0  0  0  0  0  0  0
   40.5710   32.3550   38.9630 C   0  0  0  0  0  0  0  0  0  0  0  0
   41.5760   32.6770   39.8220 N   0  0  0  0  0  0  0  0  0  0  0  0
   42.7950   33.0510   39.4060 C   0  0  0  0  0  0  0  0  0  0  0  0
   43.1020   33.1340   38.1000 N   0  0  0  0  0  0  0  0  0  0  0  0
   42.3790   32.8900   36.1170 H   0  0  0  0  0  0  0  0  0  0  0  0
   40.1110   32.1930   36.9220 H   0  0  0  0  0  0  0  0  0  0  0  0
   43.5240   33.2860   40.1920 H   0  0  0  0  0  0  0  0  0  0  0  0
  1  2  1  0  0  0  0
  2  7  1  0  0  0  0
  3  4  1  0  0  0  0
  3  2  2  0  0  0  0
  4  5  2  0  0  0  0
  5  9  1  0  0  0  0
  5  6  1  0  0  0  0
  6 10  1  0  0  0  0
  7  6  2  0  0  0  0
  7 13  1  0  0  0  0
  8  4  1  0  0  0  0
 12 19  1  0  0  0  0
 12 11  1  0  0  0  0
 13 12  2  0  0  0  0
 14 16  2  0  0  0  0
 14 13  1  0  0  0  0
 15 14  1  0  0  0  0
 16 17  1  0  0  0  0
 17 18  1  0  0  0  0
 17 19  2  0  0  0  0
 19 20  1  0  0  0  0
 21 22  2  0  0  0  0
 21 26  1  0  0  0  0
 22 23  1  0  0  0  0
 23  3  1  0  0  0  0
 23 24  2  0  0  0  0
 25 24  1  0  0  0  0
 25 29  1  0  0  0  0
 26 25  2  0  0  0  0
 27 21  1  0  0  0  0
 28 22  1  0  0  0  0
M  END
>  <minimizedAffinity>
-5.34828711

$$$$

 OpenBabel03242516013D

 29 31  0  0  0  0  0  0  0  0999 V2000
   38.2030   28.2010   39.3750 Cl  0  0  0  0  0  0  0  0  0  0  0  0
   37.7160   28.0260   41.0500 C   0  0  0  0  0  0  0  0  0  0  0  0
   37.6390   29.1000   41.8710 C   0  0  0  0  0  0  0  0  0  0  0  0
   37.2450   28.8480   43.1730 C   0  0  0  0  0  0  0  0  0  0  0  0
   36.9440   27.6030   43.6260 C   0  0  0  0  0  0  0  0  0  0  0  0
   37.0250   26.5250   42.7830 C   0  0  0  0  0  0  0  0  0  0  0  0
   37.4190   26.7550   41.4740 C   0  0  0  0  0  0  0  0  0  0  0  0
   37.1720   29.6850   43.8600 H   0  0  0  0  0  0  0  0  0  0  0  0
   36.6370   27.4390   44.6530 H   0  0  0  0  0  0  0  0  0  0  0  0
   36.7810   25.5400   43.1650 H   0  0  0  0  0  0  0  0  0  0  0  0
   40.0760   25.5090   41.6020 Cl  0  0  0  0  0  0  0  0  0  0  0  0
   38.7160   24.9370   40.6420 C   0  0  0  0  0  0  0  0  0  0  0  0
   37.4860   25.5700   40.6250 C   0  0  0  0  0  0  0  0  0  0  0  0
   36.4770   25.0510   39.8440 C   0  0  0  0  0  0  0  0  0  0  0  0
   35.5400   25.5900   39.8730 H   0  0  0  0  0  0  0  0  0  0  0  0
   36.6710   23.9190   39.0850 C   0  0  0  0  0  3  0  0  0  0  0  0
   37.9180   23.3070   39.1240 C   0  0  0  0  0  0  0  0  0  0  0  0
   38.2290   21.8490   38.1710 Cl  0  0  0  0  0  0  0  0  0  0  0  0
   38.9800   23.7830   39.8940 C   0  0  0  0  0  0  0  0  0  0  0  0
   39.9270   23.2860   39.9000 H   0  0  0  0  0  0  0  0  0  0  0  0
   37.3960   32.5000   40.2240 C   0  0  0  0  0  0  0  0  0  0  0  0
   37.0550   31.2340   40.7150 C   0  0  0  0  0  0  0  0  0  0  0  0
   37.9670   30.4130   41.3550 C   0  0  0  0  0  0  0  0  0  0  0  0
   39.2200   30.9300   41.4700 N   0  0  0  0  0  0  0  0  0  0  0  0
   39.5520   32.1420   41.0020 C   0  0  0  0  0  0  0  0  0  0  0  0
   38.6560   32.9300   40.3820 N   0  0  0  0  0  0  0  0  0  0  0  0
   36.6420   33.1070   39.7290 H   0  0  0  0  0  0  0  0  0  0  0  0
   36.0500   30.8390   40.6130 H   0  0  0  0  0  0  0  0  0  0  0  0
   40.5940   32.4520   41.1540 H   0  0  0  0  0  0  0  0  0  0  0  0
  1  2  1  0  0  0  0
  2  7  2  0  0  0  0
  2  3  1  0  0  0  0
  3  4  2  0  0  0  0
  4  5  1  0  0  0  0
  4  8  1  0  0  0  0
  5  9  1  0  0  0  0
  6 10  1  0  0  0  0
  6  5  2  0  0  0  0
  7  6  1  0  0  0  0
 12 11  1  0  0  0  0
 13 12  1  0  0  0  0
 13  7  1  0  0  0  0
 14 15  1  0  0  0  0
 14 13  2  0  0  0  0
 16 17  2  0  0  0  0
 16 14  1  0  0  0  0
 17 19  1  0  0  0  0
 18 17  1  0  0  0  0
 19 20  1  0  0  0  0
 19 12  2  0  0  0  0
 21 26  2  0  0  0  0
 21 22  1  0  0  0  0
 22 23  2  0  0  0  0
 23 24  1  0  0  0  0
 23  3  1  0  0  0  0
 25 29  1  0  0  0  0
 25 24  2  0  0  0  0
 26 25  1  0  0  0  0
 27 21  1  0  0  0  0
 28 22  1  0  0  0  0
M  END
>  <minimizedAffinity>
-5.33854437

$$$$

 OpenBabel03242516013D

 29 31  0  0  0  0  0  0  0  0999 V2000
   37.8110   27.1280   39.4520 Cl  0  0  0  0  0  0  0  0  0  0  0  0
   38.3900   27.0050   41.1020 C   0  0  0  0  0  0  0  0  0  0  0  0
   38.7850   25.8170   41.6180 C   0  0  0  0  0  0  0  0  0  0  0  0
   39.2240   25.8340   42.9290 C   0  0  0  0  0  0  0  0  0  0  0  0
   39.2660   26.9660   43.6800 C   0  0  0  0  0  0  0  0  0  0  0  0
   38.8640   28.1620   43.1440 C   0  0  0  0  0  0  0  0  0  0  0  0
   38.4200   28.1680   41.8320 C   0  0  0  0  0  0  0  0  0  0  0  0
   39.5490   24.9000   43.3760 H   0  0  0  0  0  0  0  0  0  0  0  0
   39.6160   26.9460   44.7060 H   0  0  0  0  0  0  0  0  0  0  0  0
   38.9060   29.0540   43.7610 H   0  0  0  0  0  0  0  0  0  0  0  0
   40.7130   29.6730   40.7800 Cl  0  0  0  0  0  0  0  0  0  0  0  0
   39.0430   30.2290   40.8080 C   0  0  0  0  0  0  0  0  0  0  0  0
   38.0050   29.4690   41.3180 C   0  0  0  0  0  0  0  0  0  0  0  0
   36.7270   29.9840   41.3000 C   0  0  0  0  0  0  0  0  0  0  0  0
   35.9600   29.3440   41.7130 H   0  0  0  0  0  0  0  0  0  0  0  0
   36.4670   31.2340   40.7840 C   0  0  0  0  0  3  0  0  0  0  0  0
   37.5320   31.9700   40.2790 C   0  0  0  0  0  0  0  0  0  0  0  0
   37.2620   33.5830   39.6020 Cl  0  0  0  0  0  0  0  0  0  0  0  0
   38.8480   31.5050   40.2700 C   0  0  0  0  0  0  0  0  0  0  0  0
   39.6430   32.1010   39.8730 H   0  0  0  0  0  0  0  0  0  0  0  0
   37.7370   22.4990   40.1240 C   0  0  0  0  0  0  0  0  0  0  0  0
   37.7730   23.6380   40.9390 C   0  0  0  0  0  0  0  0  0  0  0  0
   38.7270   24.6300   40.7890 C   0  0  0  0  0  0  0  0  0  0  0  0
   39.6270   24.4140   39.7920 N   0  0  0  0  0  0  0  0  0  0  0  0
   39.5970   23.3250   39.0090 C   0  0  0  0  0  0  0  0  0  0  0  0
   38.6650   22.3690   39.1650 N   0  0  0  0  0  0  0  0  0  0  0  0
   36.9670   21.7490   40.2820 H   0  0  0  0  0  0  0  0  0  0  0  0
   37.0470   23.7920   41.7280 H   0  0  0  0  0  0  0  0  0  0  0  0
   40.3750   23.2600   38.2380 H   0  0  0  0  0  0  0  0  0  0  0  0
  1  2  1  0  0  0  0
  2  3  2  0  0  0  0
  2  7  1  0  0  0  0
  3  4  1  0  0  0  0
  4  8  1  0  0  0  0
  4  5  2  0  0  0  0
  5  9  1  0  0  0  0
  6  5  1  0  0  0  0
  6 10  1  0  0  0  0
  7  6  2  0  0  0  0
 11 12  1  0  0  0  0
 12 13  1  0  0  0  0
 13  7  1  0  0  0  0
 14 13  2  0  0  0  0
 14 15  1  0  0  0  0
 16 14  1  0  0  0  0
 17 16  2  0  0  0  0
 18 17  1  0  0  0  0
 19 17  1  0  0  0  0
 19 12  2  0  0  0  0
 20 19  1  0  0  0  0
 21 27  1  0  0  0  0
 21 22  1  0  0  0  0
 22 28  1  0  0  0  0
 23 22  2  0  0  0  0
 23  3  1  0  0  0  0
 24 23  1  0  0  0  0
 25 26  1  0  0  0  0
 25 24  2  0  0  0  0
 26 21  2  0  0  0  0
 29 25  1  0  0  0  0
M  END
>  <minimizedAffinity>
-5.22812271

$$$$

 OpenBabel03242516013D

 29 31  0  0  0  0  0  0  0  0999 V2000
   40.9980   29.5220   39.7680 Cl  0  0  0  0  0  0  0  0  0  0  0  0
   40.4440   31.1850   39.8250 C   0  0  0  0  0  0  0  0  0  0  0  0
   41.0490   32.1490   39.0910 C   0  0  0  0  0  0  0  0  0  0  0  0
   40.5320   33.4260   39.2110 C   0  0  0  0  0  0  0  0  0  0  0  0
   39.4760   33.7230   40.0130 C   0  0  0  0  0  0  0  0  0  0  0  0
   38.8730   32.7370   40.7490 C   0  0  0  0  0  0  0  0  0  0  0  0
   39.3750   31.4500   40.6440 C   0  0  0  0  0  0  0  0  0  0  0  0
   40.9930   34.2240   38.6370 H   0  0  0  0  0  0  0  0  0  0  0  0
   39.0940   34.7350   40.0850 H   0  0  0  0  0  0  0  0  0  0  0  0
   38.0310   32.9960   41.3830 H   0  0  0  0  0  0  0  0  0  0  0  0
   37.0520   30.3480   39.2230 Cl  0  0  0  0  0  0  0  0  0  0  0  0
   37.5860   29.8870   40.8360 C   0  0  0  0  0  0  0  0  0  0  0  0
   38.6920   30.4450   41.4520 C   0  0  0  0  0  0  0  0  0  0  0  0
   39.0370   30.0230   42.7170 C   0  0  0  0  0  0  0  0  0  0  0  0
   39.9100   30.4960   43.1450 H   0  0  0  0  0  0  0  0  0  0  0  0
   38.3040   29.0610   43.3750 C   0  0  0  0  0  3  0  0  0  0  0  0
   37.2000   28.5210   42.7280 C   0  0  0  0  0  0  0  0  0  0  0  0
   36.2180   27.2800   43.5210 Cl  0  0  0  0  0  0  0  0  0  0  0  0
   36.7980   28.9050   41.4480 C   0  0  0  0  0  0  0  0  0  0  0  0
   35.9410   28.4670   40.9810 H   0  0  0  0  0  0  0  0  0  0  0  0
   43.1430   30.8760   36.2040 C   0  0  0  0  0  0  0  0  0  0  0  0
   42.0400   31.2070   37.0020 C   0  0  0  0  0  0  0  0  0  0  0  0
   42.1730   31.7960   38.2470 C   0  0  0  0  0  0  0  0  0  0  0  0
   43.4560   32.0300   38.6360 N   0  0  0  0  0  0  0  0  0  0  0  0
   44.5150   31.7150   37.8760 C   0  0  0  0  0  0  0  0  0  0  0  0
   44.3720   31.1420   36.6680 N   0  0  0  0  0  0  0  0  0  0  0  0
   42.9860   30.4150   35.2320 H   0  0  0  0  0  0  0  0  0  0  0  0
   41.0260   31.0140   36.6730 H   0  0  0  0  0  0  0  0  0  0  0  0
   45.5010   31.9500   38.2970 H   0  0  0  0  0  0  0  0  0  0  0  0
  1  2  1  0  0  0  0
  2  7  1  0  0  0  0
  3  4  1  0  0  0  0
  3  2  2  0  0  0  0
  4  5  2  0  0  0  0
  5  9  1  0  0  0  0
  5  6  1  0  0  0  0
  6 10  1  0  0  0  0
  7  6  2  0  0  0  0
  7 13  1  0  0  0  0
  8  4  1  0  0  0  0
 11 12  1  0  0  0  0
 12 19  2  0  0  0  0
 12 13  1  0  0  0  0
 13 14  2  0  0  0  0
 14 15  1  0  0  0  0
 14 16  1  0  0  0  0
 17 16  2  0  0  0  0
 17 18  1  0  0  0  0
 19 17  1  0  0  0  0
 20 19  1  0  0  0  0
 21 26  2  0  0  0  0
 21 22  1  0  0  0  0
 22 23  2  0  0  0  0
 23 24  1  0  0  0  0
 23  3  1  0  0  0  0
 25 29  1  0  0  0  0
 25 24  2  0  0  0  0
 26 25  1  0  0  0  0
 27 21  1  0  0  0  0
 28 22  1  0  0  0  0
M  END
>  <minimizedAffinity>
-5.22592926

$$$$

 OpenBabel03242516013D

 29 31  0  0  0  0  0  0  0  0999 V2000
   40.5840   30.1370   40.9490 Cl  0  0  0  0  0  0  0  0  0  0  0  0
   39.2590   31.1940   40.5010 C   0  0  0  0  0  0  0  0  0  0  0  0
   39.4900   32.4280   39.9940 C   0  0  0  0  0  0  0  0  0  0  0  0
   38.3730   33.1780   39.6730 C   0  0  0  0  0  0  0  0  0  0  0  0
   37.1040   32.7240   39.8470 C   0  0  0  0  0  0  0  0  0  0  0  0
   36.8860   31.4720   40.3600 C   0  0  0  0  0  0  0  0  0  0  0  0
   37.9910   30.7040   40.6880 C   0  0  0  0  0  0  0  0  0  0  0  0
   38.5200   34.1730   39.2650 H   0  0  0  0  0  0  0  0  0  0  0  0
   36.2490   33.3370   39.5850 H   0  0  0  0  0  0  0  0  0  0  0  0
   35.8640   31.1290   40.4900 H   0  0  0  0  0  0  0  0  0  0  0  0
   37.8580   28.6890   38.5540 Cl  0  0  0  0  0  0  0  0  0  0  0  0
   37.6180   28.3870   40.2720 C   0  0  0  0  0  0  0  0  0  0  0  0
   37.6940   29.3810   41.2300 C   0  0  0  0  0  0  0  0  0  0  0  0
   37.4920   29.0540   42.5520 C   0  0  0  0  0  0  0  0  0  0  0  0
   37.5640   29.8740   43.2530 H   0  0  0  0  0  0  0  0  0  0  0  0
   37.2170   27.7600   42.9340 C   0  0  0  0  0  3  0  0  0  0  0  0
   37.1490   26.7850   41.9470 C   0  0  0  0  0  0  0  0  0  0  0  0
   36.7990   25.1030   42.3750 Cl  0  0  0  0  0  0  0  0  0  0  0  0
   37.3430   27.0530   40.5920 C   0  0  0  0  0  0  0  0  0  0  0  0
   37.2820   26.2750   39.8580 H   0  0  0  0  0  0  0  0  0  0  0  0
   42.8520   34.0750   40.5640 C   0  0  0  0  0  0  0  0  0  0  0  0
   41.5310   33.6510   40.7530 C   0  0  0  0  0  0  0  0  0  0  0  0
   40.8570   32.8800   39.8220 C   0  0  0  0  0  0  0  0  0  0  0  0
   41.5750   32.5660   38.7100 N   0  0  0  0  0  0  0  0  0  0  0  0
   42.8400   32.9700   38.5240 C   0  0  0  0  0  0  0  0  0  0  0  0
   43.4840   33.7190   39.4370 N   0  0  0  0  0  0  0  0  0  0  0  0
   43.3380   34.6800   41.3260 H   0  0  0  0  0  0  0  0  0  0  0  0
   40.9750   33.9110   41.6460 H   0  0  0  0  0  0  0  0  0  0  0  0
   43.3170   32.6550   37.5880 H   0  0  0  0  0  0  0  0  0  0  0  0
  2  7  1  0  0  0  0
  2  1  1  0  0  0  0
  3  2  2  0  0  0  0
  4  5  2  0  0  0  0
  4  3  1  0  0  0  0
  5  6  1  0  0  0  0
  6 10  1  0  0  0  0
  6  7  2  0  0  0  0
  7 13  1  0  0  0  0
  8  4  1  0  0  0  0
  9  5  1  0  0  0  0
 11 12  1  0  0  0  0
 12 19  2  0  0  0  0
 12 13  1  0  0  0  0
 13 14  2  0  0  0  0
 14 16  1  0  0  0  0
 14 15  1  0  0  0  0
 17 18  1  0  0  0  0
 17 16  2  0  0  0  0
 19 17  1  0  0  0  0
 20 19  1  0  0  0  0
 21 22  1  0  0  0  0
 21 27  1  0  0  0  0
 22 28  1  0  0  0  0
 23  3  1  0  0  0  0
 23 22  2  0  0  0  0
 24 23  1  0  0  0  0
 25 24  2  0  0  0  0
 25 26  1  0  0  0  0
 26 21  2  0  0  0  0
 29 25  1  0  0  0  0
M  END
>  <minimizedAffinity>
-5.20515156

$$$$

 OpenBabel03242516013D

 29 31  0  0  0  0  0  0  0  0999 V2000
   39.7460   27.0280   40.5430 Cl  0  0  0  0  0  0  0  0  0  0  0  0
   38.5020   27.2720   41.7550 C   0  0  0  0  0  0  0  0  0  0  0  0
   37.5000   26.3760   41.9180 C   0  0  0  0  0  0  0  0  0  0  0  0
   36.5730   26.6660   42.9020 C   0  0  0  0  0  0  0  0  0  0  0  0
   36.6420   27.7800   43.6770 C   0  0  0  0  0  0  0  0  0  0  0  0
   37.6630   28.6780   43.5020 C   0  0  0  0  0  0  0  0  0  0  0  0
   38.6030   28.4070   42.5210 C   0  0  0  0  0  0  0  0  0  0  0  0
   35.7550   25.9700   43.0610 H   0  0  0  0  0  0  0  0  0  0  0  0
   35.8990   27.9790   44.4410 H   0  0  0  0  0  0  0  0  0  0  0  0
   37.6990   29.5610   44.1310 H   0  0  0  0  0  0  0  0  0  0  0  0
   37.7350   30.6620   40.8500 Cl  0  0  0  0  0  0  0  0  0  0  0  0
   39.3160   30.4880   41.6040 C   0  0  0  0  0  0  0  0  0  0  0  0
   39.6650   29.3980   42.3820 C   0  0  0  0  0  0  0  0  0  0  0  0
   40.9260   29.3450   42.9330 C   0  0  0  0  0  0  0  0  0  0  0  0
   41.1380   28.4690   43.5300 H   0  0  0  0  0  0  0  0  0  0  0  0
   41.8400   30.3530   42.7240 C   0  0  0  0  0  3  0  0  0  0  0  0
   41.4590   31.4330   41.9380 C   0  0  0  0  0  0  0  0  0  0  0  0
   42.5890   32.7600   41.6330 Cl  0  0  0  0  0  0  0  0  0  0  0  0
   40.1970   31.5460   41.3520 C   0  0  0  0  0  0  0  0  0  0  0  0
   39.9380   32.3930   40.7520 H   0  0  0  0  0  0  0  0  0  0  0  0
   36.7520   23.9940   39.0710 C   0  0  0  0  0  0  0  0  0  0  0  0
   36.7790   25.1450   39.8690 C   0  0  0  0  0  0  0  0  0  0  0  0
   37.4570   25.1990   41.0740 C   0  0  0  0  0  0  0  0  0  0  0  0
   38.0960   24.0490   41.4240 N   0  0  0  0  0  0  0  0  0  0  0  0
   38.0730   22.9450   40.6630 C   0  0  0  0  0  0  0  0  0  0  0  0
   37.4110   22.9060   39.4940 N   0  0  0  0  0  0  0  0  0  0  0  0
   36.2050   24.0030   38.1310 H   0  0  0  0  0  0  0  0  0  0  0  0
   36.2640   26.0510   39.5720 H   0  0  0  0  0  0  0  0  0  0  0  0
   38.6250   22.0790   41.0490 H   0  0  0  0  0  0  0  0  0  0  0  0
  1  2  1  0  0  0  0
  2  3  2  0  0  0  0
  2  7  1  0  0  0  0
  3  4  1  0  0  0  0
  4  8  1  0  0  0  0
  4  5  2  0  0  0  0
  5  9  1  0  0  0  0
  6  5  1  0  0  0  0
  6 10  1  0  0  0  0
  7  6  2  0  0  0  0
 11 12  1  0  0  0  0
 12 13  1  0  0  0  0
 13  7  1  0  0  0  0
 13 14  2  0  0  0  0
 14 15  1  0  0  0  0
 16 14  1  0  0  0  0
 17 16  2  0  0  0  0
 18 17  1  0  0  0  0
 19 12  2  0  0  0  0
 19 17  1  0  0  0  0
 20 19  1  0  0  0  0
 21 26  2  0  0  0  0
 21 22  1  0  0  0  0
 22 23  2  0  0  0  0
 23 24  1  0  0  0  0
 23  3  1  0  0  0  0
 25 29  1  0  0  0  0
 25 24  2  0  0  0  0
 26 25  1  0  0  0  0
 27 21  1  0  0  0  0
 28 22  1  0  0  0  0
M  END
>  <minimizedAffinity>
-5.18954897

$$$$

 OpenBabel03242516013D

 29 31  0  0  0  0  0  0  0  0999 V2000
   39.7110   27.2910   40.2490 Cl  0  0  0  0  0  0  0  0  0  0  0  0
   38.6610   27.6610   41.6030 C   0  0  0  0  0  0  0  0  0  0  0  0
   38.8180   28.8000   42.3180 C   0  0  0  0  0  0  0  0  0  0  0  0
   37.9350   28.9930   43.3650 C   0  0  0  0  0  0  0  0  0  0  0  0
   36.9560   28.1050   43.6780 C   0  0  0  0  0  0  0  0  0  0  0  0
   36.8080   26.9570   42.9440 C   0  0  0  0  0  0  0  0  0  0  0  0
   37.6820   26.7430   41.8910 C   0  0  0  0  0  0  0  0  0  0  0  0
   38.0320   29.8950   43.9610 H   0  0  0  0  0  0  0  0  0  0  0  0
   36.2790   28.2860   44.5060 H   0  0  0  0  0  0  0  0  0  0  0  0
   36.0190   26.2610   43.2120 H   0  0  0  0  0  0  0  0  0  0  0  0
   36.0380   27.2030   39.5000 Cl  0  0  0  0  0  0  0  0  0  0  0  0
   36.7050   25.6550   40.0090 C   0  0  0  0  0  0  0  0  0  0  0  0
   37.4750   25.5040   41.1480 C   0  0  0  0  0  0  0  0  0  0  0  0
   37.9570   24.2550   41.4700 C   0  0  0  0  0  0  0  0  0  0  0  0
   38.5500   24.2010   42.3720 H   0  0  0  0  0  0  0  0  0  0  0  0
   37.6870   23.1600   40.6800 C   0  0  0  0  0  3  0  0  0  0  0  0
   36.9120   23.3460   39.5420 C   0  0  0  0  0  0  0  0  0  0  0  0
   36.5320   21.9770   38.4870 Cl  0  0  0  0  0  0  0  0  0  0  0  0
   36.3950   24.5850   39.1630 C   0  0  0  0  0  0  0  0  0  0  0  0
   35.8010   24.6900   38.2790 H   0  0  0  0  0  0  0  0  0  0  0  0
   42.1320   30.6260   42.1730 C   0  0  0  0  0  0  0  0  0  0  0  0
   41.1280   29.7210   42.5400 C   0  0  0  0  0  0  0  0  0  0  0  0
   39.8730   29.7250   41.9560 C   0  0  0  0  0  0  0  0  0  0  0  0
   39.6900   30.6740   40.9990 N   0  0  0  0  0  0  0  0  0  0  0  0
   40.6480   31.5430   40.6430 C   0  0  0  0  0  0  0  0  0  0  0  0
   41.8630   31.5290   41.2180 N   0  0  0  0  0  0  0  0  0  0  0  0
   43.1020   30.5820   42.6610 H   0  0  0  0  0  0  0  0  0  0  0  0
   41.2940   28.9720   43.3050 H   0  0  0  0  0  0  0  0  0  0  0  0
   40.3830   32.2630   39.8590 H   0  0  0  0  0  0  0  0  0  0  0  0
  1  2  1  0  0  0  0
  2  7  2  0  0  0  0
  2  3  1  0  0  0  0
  3  4  2  0  0  0  0
  4  5  1  0  0  0  0
  4  8  1  0  0  0  0
  5  9  1  0  0  0  0
  6 10  1  0  0  0  0
  6  5  2  0  0  0  0
  7  6  1  0  0  0  0
 11 12  1  0  0  0  0
 12 13  1  0  0  0  0
 13 14  2  0  0  0  0
 13  7  1  0  0  0  0
 14 15  1  0  0  0  0
 16 14  1  0  0  0  0
 17 16  2  0  0  0  0
 18 17  1  0  0  0  0
 19 17  1  0  0  0  0
 19 12  2  0  0  0  0
 20 19  1  0  0  0  0
 21 22  1  0  0  0  0
 21 27  1  0  0  0  0
 22 28  1  0  0  0  0
 23  3  1  0  0  0  0
 23 22  2  0  0  0  0
 24 23  1  0  0  0  0
 25 24  2  0  0  0  0
 25 26  1  0  0  0  0
 26 21  2  0  0  0  0
 29 25  1  0  0  0  0
M  END
>  <minimizedAffinity>
-5.1296072

$$$$
