REMARK  Name = 
REMARK  4 active torsions:
REMARK  status: ('A' for Active; 'I' for Inactive)
REMARK    1  A    between atoms: C_1  and  C_10
REMARK    2  A    between atoms: C_2  and  C_7
REMARK    3  A    between atoms: C_10  and  C_14
REMARK    4  A    between atoms: C_18  and  C_31
REMARK                            x       y       z     vdW  Elec       q    Type
REMARK                         _______ _______ _______ _____ _____    ______ ____
ROOT
ATOM      1 CL   UNL     1      44.681  31.665  42.925  0.00  0.00    +0.000 Cl
ATOM      2  C   UNL     1      44.651  33.422  42.761  0.00  0.00    +0.000 A 
ATOM      3  C   UNL     1      45.520  34.123  43.621  0.00  0.00    +0.000 A 
ATOM      4  C   UNL     1      45.417  35.488  43.406  0.00  0.00    +0.000 A 
ATOM      5  C   UNL     1      44.650  36.168  42.543  0.00  0.00    +0.000 A 
ATOM      6  C   UNL     1      43.838  35.413  41.746  0.00  0.00    +0.000 A 
ATOM      7  C   UNL     1      43.823  34.067  41.838  0.00  0.00    +0.000 A 
ATOM      8  H   UNL     1      46.013  36.190  44.027  0.00  0.00    +0.000 HD
ATOM      9  H   UNL     1      44.612  37.238  42.417  0.00  0.00    +0.000 HD
ATOM     10  H   UNL     1      43.155  35.789  40.996  0.00  0.00    +0.000 HD
ENDROOT
BRANCH   7  13
ATOM     11 CL   UNL     1      44.411  34.353  38.976  0.00  0.00    +0.000 Cl
ATOM     12  C   UNL     1      43.238  33.240  39.684  0.00  0.00    +0.000 A 
ATOM     13  C   UNL     1      42.990  33.135  41.037  0.00  0.00    +0.000 A 
ATOM     14  C   UNL     1      42.059  32.244  41.528  0.00  0.00    +0.000 A 
ATOM     15  H   UNL     1      41.943  32.244  42.605  0.00  0.00    +0.000 HD
ATOM     16  C   UNL     1      41.376  31.452  40.621  0.00  0.00    +0.000 A 
ATOM     17  C   UNL     1      41.634  31.566  39.260  0.00  0.00    +0.000 A 
ATOM     18 CL   UNL     1      40.728  30.529  38.176  0.00  0.00    +0.000 Cl
ATOM     19  C   UNL     1      42.572  32.463  38.759  0.00  0.00    +0.000 A 
ATOM     20  H   UNL     1      42.736  32.513  37.688  0.00  0.00    +0.000 HD
ENDBRANCH   7  13
BRANCH   3  21
ATOM     21  C   UNL     1      46.452  33.533  44.624  0.00  0.00    +0.000 C 
ATOM     22  O   UNL     1      45.881  33.898  45.622  0.00  0.00    +0.000 OA
BRANCH  21  23
ATOM     23  C   UNL     1      47.534  32.843  43.908  0.00  0.00    +0.000 A 
ATOM     24  C   UNL     1      48.372  33.385  43.014  0.00  0.00    +0.000 A 
ATOM     25  C   UNL     1      49.236  32.491  42.413  0.00  0.00    +0.000 A 
ATOM     26  N   UNL     1      49.164  31.136  42.781  0.00  0.00    +0.000 NA
ATOM     27  C   UNL     1      48.313  30.679  43.672  0.00  0.00    +0.000 A 
ATOM     28  N   UNL     1      47.434  31.544  44.291  0.00  0.00    +0.000 NA
ATOM     29  H   UNL     1      49.975  32.755  41.668  0.00  0.00    +0.000 HD
ATOM     30  H   UNL     1      48.374  29.610  43.857  0.00  0.00    +0.000 HD
BRANCH  24  31
ATOM     31  C   UNL     1      48.522  34.772  42.732  0.00  0.00    +0.000 C 
ATOM     32  C   UNL     1      49.521  35.405  42.062  0.00  0.00    +0.000 C 
ATOM     33  C   UNL     1      48.279  35.222  41.231  0.00  0.00    +0.000 C 
ATOM     34  H   UNL     1      48.064  35.426  43.496  0.00  0.00    +0.000 HD
ATOM     35  H   UNL     1      49.851  36.467  42.114  0.00  0.00    +0.000 HD
ATOM     36  H   UNL     1      50.392  34.807  41.657  0.00  0.00    +0.000 HD
ATOM     37  H   UNL     1      47.507  36.005  41.179  0.00  0.00    +0.000 HD
ATOM     38  H   UNL     1      48.217  34.363  40.540  0.00  0.00    +0.000 HD
ENDBRANCH  24  31
ENDBRANCH  21  23
ENDBRANCH   3  21
TORSDOF 4
