
 OpenBabel03242512393D

 35 38  0  0  0  0  0  0  0  0999 V2000
   36.6790   29.8520   39.1290 C   0  0  0  0  0  0  0  0  0  0  0  0
   36.4150   29.8030   37.7530 C   0  0  0  0  0  0  0  0  0  0  0  0
   37.2550   30.5600   36.9240 C   0  0  0  0  0  0  0  0  0  0  0  0
   38.2620   31.2880   37.5010 N   0  0  0  0  0  0  0  0  0  0  0  0
   38.4630   31.2940   38.8340 C   0  0  0  0  0  0  0  0  0  0  0  0
   37.6620   30.5680   39.6430 N   0  0  0  0  0  0  0  0  0  0  0  0
   35.6390   29.2470   37.2590 H   0  0  0  0  0  0  0  0  0  0  0  0
   37.1250   30.5820   35.8520 H   0  0  0  0  0  0  0  0  0  0  0  0
   37.6600   34.0380   39.7270 Cl  0  0  0  0  0  0  0  0  0  0  0  0
   39.2650   33.3650   39.8920 C   0  0  0  0  0  0  0  0  0  0  0  0
   39.5420   32.0750   39.4450 C   0  0  0  0  0  0  0  0  0  0  0  0
   40.8220   31.5450   39.5790 C   0  0  0  0  0  0  0  0  0  0  0  0
   40.9800   30.5390   39.2160 H   0  0  0  0  0  0  0  0  0  0  0  0
   41.8000   32.3240   40.1630 C   0  0  0  0  0  3  0  0  0  0  0  0
   41.5820   33.6060   40.6220 C   0  0  0  0  0  0  0  0  0  0  0  0
   42.8650   34.5360   41.3490 Cl  0  0  0  0  0  0  0  0  0  0  0  0
   40.3020   34.0990   40.4730 C   0  0  0  0  0  0  0  0  0  0  0  0
   40.1340   35.1090   40.8360 H   0  0  0  0  0  0  0  0  0  0  0  0
   35.8140   29.0740   39.9550 C   0  0  0  0  0  0  0  0  0  0  0  0
   34.5920   29.2850   40.1620 O   0  0  0  0  0  0  0  0  0  0  0  0
   36.5600   27.8880   42.0550 C   0  0  0  0  0  0  0  0  0  0  0  0
   36.3180   27.8950   40.6730 C   0  0  0  0  0  0  0  0  0  0  0  0
   36.5660   26.7440   39.9720 C   0  0  0  0  0  0  0  0  0  0  0  0
   37.0370   25.5680   40.5280 C   0  0  0  0  0  0  0  0  0  0  0  0
   37.3370   24.3540   40.0390 N   0  0  0  0  0  0  0  0  0  0  0  0
   37.7580   23.5690   41.0280 C   0  0  0  0  0  0  0  0  0  0  0  0
   37.7280   24.3090   42.2120 C   0  0  0  0  0  0  0  0  0  0  0  0
   37.2690   25.5780   41.8920 C   0  0  0  0  0  0  0  0  0  0  0  0
   37.0350   26.7120   42.6330 C   0  0  0  0  0  0  0  0  0  0  0  0
   36.3640   28.7960   42.5950 H   0  0  0  0  0  0  0  0  0  0  0  0
   36.4060   26.6530   38.8840 H   0  0  0  0  0  0  0  0  0  0  0  0
   37.2590   24.0510   39.0330 H   0  0  0  0  0  0  0  0  0  0  0  0
   38.0820   22.5460   41.0220 H   0  0  0  0  0  0  0  0  0  0  0  0
   37.9950   24.0150   43.2190 H   0  0  0  0  0  0  0  0  0  0  0  0
   37.2180   26.7170   43.6970 H   0  0  0  0  0  0  0  0  0  0  0  0
  1  6  1  0  0  0  0
  1 19  1  0  0  0  0
  2  1  2  0  0  0  0
  3  4  2  0  0  0  0
  3  2  1  0  0  0  0
  4  5  1  0  0  0  0
  5 11  1  0  0  0  0
  5  6  2  0  0  0  0
  7  2  1  0  0  0  0
  8  3  1  0  0  0  0
  9 10  1  0  0  0  0
 10 17  1  0  0  0  0
 11 12  1  0  0  0  0
 11 10  2  0  0  0  0
 12 14  2  0  0  0  0
 13 12  1  0  0  0  0
 14 15  1  0  0  0  0
 15 16  1  0  0  0  0
 17 15  2  0  0  0  0
 17 18  1  0  0  0  0
 19 20  2  0  0  0  0
 19 22  1  0  0  0  0
 21 30  1  0  0  0  0
 21 29  1  0  0  0  0
 22 21  2  0  0  0  0
 23 24  2  0  0  0  0
 23 22  1  0  0  0  0
 24 28  1  0  0  0  0
 25 24  1  0  0  0  0
 25 26  1  0  0  0  0
 26 27  2  0  0  0  0
 27 34  1  0  0  0  0
 28 27  1  0  0  0  0
 28 29  2  0  0  0  0
 29 35  1  0  0  0  0
 31 23  1  0  0  0  0
 32 25  1  0  0  0  0
 33 26  1  0  0  0  0
M  END
>  <minimizedAffinity>
-6.42389536

$$$$

 OpenBabel03242512393D

 35 38  0  0  0  0  0  0  0  0999 V2000
   38.0290   32.1100   39.1880 C   0  0  0  0  0  0  0  0  0  0  0  0
   37.3300   33.1660   39.7900 C   0  0  0  0  0  0  0  0  0  0  0  0
   38.0760   34.3050   40.1250 C   0  0  0  0  0  0  0  0  0  0  0  0
   39.4180   34.3120   39.8490 N   0  0  0  0  0  0  0  0  0  0  0  0
   40.0320   33.2620   39.2680 C   0  0  0  0  0  0  0  0  0  0  0  0
   39.3250   32.1610   38.9400 N   0  0  0  0  0  0  0  0  0  0  0  0
   36.2820   33.2020   40.0240 H   0  0  0  0  0  0  0  0  0  0  0  0
   37.6210   35.1650   40.5920 H   0  0  0  0  0  0  0  0  0  0  0  0
   41.7580   32.1440   41.4470 Cl  0  0  0  0  0  0  0  0  0  0  0  0
   42.3520   32.7780   39.9290 C   0  0  0  0  0  0  0  0  0  0  0  0
   41.4680   33.2770   38.9750 C   0  0  0  0  0  0  0  0  0  0  0  0
   41.9480   33.7800   37.7690 C   0  0  0  0  0  0  0  0  0  0  0  0
   41.2170   34.1550   37.0650 H   0  0  0  0  0  0  0  0  0  0  0  0
   43.3090   33.7700   37.5450 C   0  0  0  0  0  3  0  0  0  0  0  0
   44.2280   33.2880   38.4530 C   0  0  0  0  0  0  0  0  0  0  0  0
   45.9370   33.3050   38.1050 Cl  0  0  0  0  0  0  0  0  0  0  0  0
   43.7180   32.7970   39.6370 C   0  0  0  0  0  0  0  0  0  0  0  0
   44.4450   32.4180   40.3500 H   0  0  0  0  0  0  0  0  0  0  0  0
   37.2520   30.9610   38.8550 C   0  0  0  0  0  0  0  0  0  0  0  0
   36.5700   30.7990   37.8110 O   0  0  0  0  0  0  0  0  0  0  0  0
   37.1750   28.4800   39.3120 C   0  0  0  0  0  0  0  0  0  0  0  0
   37.1850   29.8080   39.7630 C   0  0  0  0  0  0  0  0  0  0  0  0
   37.1330   30.0260   41.1150 C   0  0  0  0  0  0  0  0  0  0  0  0
   37.0710   29.0310   42.0730 C   0  0  0  0  0  0  0  0  0  0  0  0
   37.0170   29.0230   43.4150 N   0  0  0  0  0  0  0  0  0  0  0  0
   36.9730   27.7650   43.8490 C   0  0  0  0  0  0  0  0  0  0  0  0
   37.0000   26.9210   42.7380 C   0  0  0  0  0  0  0  0  0  0  0  0
   37.0630   27.7270   41.6100 C   0  0  0  0  0  0  0  0  0  0  0  0
   37.1130   27.4620   40.2620 C   0  0  0  0  0  0  0  0  0  0  0  0
   37.2160   28.3190   38.2500 H   0  0  0  0  0  0  0  0  0  0  0  0
   37.1360   31.0340   41.5640 H   0  0  0  0  0  0  0  0  0  0  0  0
   37.0100   29.8680   44.0430 H   0  0  0  0  0  0  0  0  0  0  0  0
   36.9240   27.3690   44.8450 H   0  0  0  0  0  0  0  0  0  0  0  0
   36.9800   25.8390   42.6880 H   0  0  0  0  0  0  0  0  0  0  0  0
   37.1060   26.4440   39.9040 H   0  0  0  0  0  0  0  0  0  0  0  0
  1  2  1  0  0  0  0
  2  7  1  0  0  0  0
  2  3  2  0  0  0  0
  3  8  1  0  0  0  0
  4  3  1  0  0  0  0
  5  4  2  0  0  0  0
  6  1  2  0  0  0  0
  6  5  1  0  0  0  0
 10  9  1  0  0  0  0
 11  5  1  0  0  0  0
 11 10  2  0  0  0  0
 12 11  1  0  0  0  0
 13 12  1  0  0  0  0
 14 12  2  0  0  0  0
 14 15  1  0  0  0  0
 15 17  2  0  0  0  0
 16 15  1  0  0  0  0
 17 10  1  0  0  0  0
 17 18  1  0  0  0  0
 19  1  1  0  0  0  0
 19 22  1  0  0  0  0
 20 19  2  0  0  0  0
 21 22  2  0  0  0  0
 21 29  1  0  0  0  0
 22 23  1  0  0  0  0
 23 31  1  0  0  0  0
 23 24  2  0  0  0  0
 24 25  1  0  0  0  0
 25 26  1  0  0  0  0
 25 32  1  0  0  0  0
 26 33  1  0  0  0  0
 27 26  2  0  0  0  0
 28 24  1  0  0  0  0
 28 27  1  0  0  0  0
 29 28  2  0  0  0  0
 30 21  1  0  0  0  0
 34 27  1  0  0  0  0
 35 29  1  0  0  0  0
M  END
>  <minimizedAffinity>
-6.33051443

$$$$

 OpenBabel03242512393D

 35 38  0  0  0  0  0  0  0  0999 V2000
   38.7160   31.3440   40.9280 C   0  0  0  0  0  0  0  0  0  0  0  0
   38.5670   32.7380   40.8980 C   0  0  0  0  0  0  0  0  0  0  0  0
   37.6820   33.2550   39.9410 C   0  0  0  0  0  0  0  0  0  0  0  0
   37.0320   32.3810   39.1100 N   0  0  0  0  0  0  0  0  0  0  0  0
   37.2200   31.0490   39.1890 C   0  0  0  0  0  0  0  0  0  0  0  0
   38.0690   30.5380   40.1060 N   0  0  0  0  0  0  0  0  0  0  0  0
   39.0540   33.4590   41.5280 H   0  0  0  0  0  0  0  0  0  0  0  0
   37.5040   34.3160   39.8460 H   0  0  0  0  0  0  0  0  0  0  0  0
   35.1500   29.3520   40.5360 Cl  0  0  0  0  0  0  0  0  0  0  0  0
   35.5410   29.2870   38.8320 C   0  0  0  0  0  0  0  0  0  0  0  0
   36.5220   30.1190   38.2980 C   0  0  0  0  0  0  0  0  0  0  0  0
   36.8270   30.0620   36.9410 C   0  0  0  0  0  0  0  0  0  0  0  0
   37.5960   30.7300   36.5800 H   0  0  0  0  0  0  0  0  0  0  0  0
   36.1380   29.1680   36.1470 C   0  0  0  0  0  3  0  0  0  0  0  0
   35.1580   28.3220   36.6230 C   0  0  0  0  0  0  0  0  0  0  0  0
   34.3260   27.2160   35.5630 Cl  0  0  0  0  0  0  0  0  0  0  0  0
   34.8810   28.4050   37.9720 C   0  0  0  0  0  0  0  0  0  0  0  0
   34.1090   27.7370   38.3440 H   0  0  0  0  0  0  0  0  0  0  0  0
   39.6210   30.8380   41.9080 C   0  0  0  0  0  0  0  0  0  0  0  0
   40.5650   31.4680   42.4480 O   0  0  0  0  0  0  0  0  0  0  0  0
   38.4310   28.9980   43.1600 C   0  0  0  0  0  0  0  0  0  0  0  0
   39.5110   29.4540   42.3900 C   0  0  0  0  0  0  0  0  0  0  0  0
   40.5000   28.5590   42.0780 C   0  0  0  0  0  0  0  0  0  0  0  0
   40.5140   27.2320   42.4660 C   0  0  0  0  0  0  0  0  0  0  0  0
   41.3600   26.2070   42.2730 N   0  0  0  0  0  0  0  0  0  0  0  0
   40.8850   25.1190   42.8760 C   0  0  0  0  0  0  0  0  0  0  0  0
   39.6750   25.4560   43.4870 C   0  0  0  0  0  0  0  0  0  0  0  0
   39.4410   26.7980   43.2250 C   0  0  0  0  0  0  0  0  0  0  0  0
   38.4270   27.6630   43.5620 C   0  0  0  0  0  0  0  0  0  0  0  0
   37.6610   29.7080   43.4000 H   0  0  0  0  0  0  0  0  0  0  0  0
   41.3870   28.8250   41.4780 H   0  0  0  0  0  0  0  0  0  0  0  0
   42.2640   26.2380   41.7330 H   0  0  0  0  0  0  0  0  0  0  0  0
   41.2800   24.1240   42.9400 H   0  0  0  0  0  0  0  0  0  0  0  0
   38.9970   24.8420   44.0670 H   0  0  0  0  0  0  0  0  0  0  0  0
   37.5910   27.3210   44.1540 H   0  0  0  0  0  0  0  0  0  0  0  0
  1 19  1  0  0  0  0
  2  1  1  0  0  0  0
  2  7  1  0  0  0  0
  3  2  2  0  0  0  0
  4  5  2  0  0  0  0
  4  3  1  0  0  0  0
  5  6  1  0  0  0  0
  6  1  2  0  0  0  0
  8  3  1  0  0  0  0
 10  9  1  0  0  0  0
 11 10  1  0  0  0  0
 11  5  1  0  0  0  0
 12 11  2  0  0  0  0
 13 12  1  0  0  0  0
 14 15  2  0  0  0  0
 14 12  1  0  0  0  0
 15 17  1  0  0  0  0
 16 15  1  0  0  0  0
 17 18  1  0  0  0  0
 17 10  2  0  0  0  0
 19 22  1  0  0  0  0
 19 20  2  0  0  0  0
 21 30  1  0  0  0  0
 21 29  1  0  0  0  0
 22 21  2  0  0  0  0
 23 22  1  0  0  0  0
 23 24  2  0  0  0  0
 24 28  1  0  0  0  0
 25 24  1  0  0  0  0
 25 26  1  0  0  0  0
 26 33  1  0  0  0  0
 26 27  2  0  0  0  0
 27 34  1  0  0  0  0
 28 27  1  0  0  0  0
 28 29  2  0  0  0  0
 29 35  1  0  0  0  0
 31 23  1  0  0  0  0
 32 25  1  0  0  0  0
M  END
>  <minimizedAffinity>
-6.19338512

$$$$

 OpenBabel03242512393D

 35 38  0  0  0  0  0  0  0  0999 V2000
   38.8950   27.1560   42.9460 C   0  0  0  0  0  0  0  0  0  0  0  0
   39.9410   27.0060   43.8670 C   0  0  0  0  0  0  0  0  0  0  0  0
   40.7650   25.8820   43.7070 C   0  0  0  0  0  0  0  0  0  0  0  0
   40.4990   25.0170   42.6790 N   0  0  0  0  0  0  0  0  0  0  0  0
   39.4740   25.2170   41.8260 C   0  0  0  0  0  0  0  0  0  0  0  0
   38.6750   26.2950   41.9690 N   0  0  0  0  0  0  0  0  0  0  0  0
   40.1860   27.6580   44.6860 H   0  0  0  0  0  0  0  0  0  0  0  0
   41.5950   25.6870   44.3700 H   0  0  0  0  0  0  0  0  0  0  0  0
   41.1640   25.6310   39.3870 Cl  0  0  0  0  0  0  0  0  0  0  0  0
   39.9300   24.4010   39.5500 C   0  0  0  0  0  0  0  0  0  0  0  0
   39.1950   24.2880   40.7280 C   0  0  0  0  0  0  0  0  0  0  0  0
   38.2150   23.3070   40.8510 C   0  0  0  0  0  0  0  0  0  0  0  0
   37.6750   23.2640   41.7870 H   0  0  0  0  0  0  0  0  0  0  0  0
   37.9940   22.4580   39.7860 C   0  0  0  0  0  3  0  0  0  0  0  0
   38.6910   22.5260   38.5990 C   0  0  0  0  0  0  0  0  0  0  0  0
   38.3600   21.4200   37.2920 Cl  0  0  0  0  0  0  0  0  0  0  0  0
   39.6550   23.5090   38.5110 C   0  0  0  0  0  0  0  0  0  0  0  0
   40.2030   23.5590   37.5740 H   0  0  0  0  0  0  0  0  0  0  0  0
   38.0690   28.3050   43.1260 C   0  0  0  0  0  0  0  0  0  0  0  0
   37.0570   28.3870   43.8670 O   0  0  0  0  0  0  0  0  0  0  0  0
   39.5960   30.2100   42.4890 C   0  0  0  0  0  0  0  0  0  0  0  0
   38.3570   29.5570   42.4150 C   0  0  0  0  0  0  0  0  0  0  0  0
   37.3790   30.1230   41.6380 C   0  0  0  0  0  0  0  0  0  0  0  0
   37.5230   31.2940   40.9170 C   0  0  0  0  0  0  0  0  0  0  0  0
   36.7180   32.0050   40.1120 N   0  0  0  0  0  0  0  0  0  0  0  0
   37.3690   33.0760   39.6650 C   0  0  0  0  0  0  0  0  0  0  0  0
   38.6570   33.0580   40.2060 C   0  0  0  0  0  0  0  0  0  0  0  0
   38.7520   31.9250   41.0010 C   0  0  0  0  0  0  0  0  0  0  0  0
   39.7610   31.3930   41.7690 C   0  0  0  0  0  0  0  0  0  0  0  0
   40.3560   29.7600   43.1000 H   0  0  0  0  0  0  0  0  0  0  0  0
   36.3740   29.6840   41.5190 H   0  0  0  0  0  0  0  0  0  0  0  0
   35.7230   31.7690   39.8600 H   0  0  0  0  0  0  0  0  0  0  0  0
   37.0550   33.8650   39.0090 H   0  0  0  0  0  0  0  0  0  0  0  0
   39.4730   33.7560   40.0750 H   0  0  0  0  0  0  0  0  0  0  0  0
   40.7180   31.8880   41.8330 H   0  0  0  0  0  0  0  0  0  0  0  0
  1 19  1  0  0  0  0
  1  2  1  0  0  0  0
  2  7  1  0  0  0  0
  3  2  2  0  0  0  0
  3  8  1  0  0  0  0
  4  3  1  0  0  0  0
  5  6  1  0  0  0  0
  5  4  2  0  0  0  0
  6  1  2  0  0  0  0
  9 10  1  0  0  0  0
 10 11  1  0  0  0  0
 11 12  2  0  0  0  0
 11  5  1  0  0  0  0
 12 13  1  0  0  0  0
 14 12  1  0  0  0  0
 15 14  2  0  0  0  0
 16 15  1  0  0  0  0
 17 15  1  0  0  0  0
 17 10  2  0  0  0  0
 18 17  1  0  0  0  0
 19 20  2  0  0  0  0
 21 30  1  0  0  0  0
 22 21  1  0  0  0  0
 22 19  1  0  0  0  0
 23 22  2  0  0  0  0
 24 28  2  0  0  0  0
 24 23  1  0  0  0  0
 25 24  1  0  0  0  0
 26 25  1  0  0  0  0
 26 27  2  0  0  0  0
 27 28  1  0  0  0  0
 28 29  1  0  0  0  0
 29 35  1  0  0  0  0
 29 21  2  0  0  0  0
 31 23  1  0  0  0  0
 32 25  1  0  0  0  0
 33 26  1  0  0  0  0
 34 27  1  0  0  0  0
M  END
>  <minimizedAffinity>
-6.05200815

$$$$

 OpenBabel03242512393D

 35 38  0  0  0  0  0  0  0  0999 V2000
   34.4720   28.9150   36.3270 C   0  0  0  0  0  0  0  0  0  0  0  0
   35.4080   29.2820   35.3500 C   0  0  0  0  0  0  0  0  0  0  0  0
   36.7190   29.5170   35.7910 C   0  0  0  0  0  0  0  0  0  0  0  0
   36.9950   29.3760   37.1260 N   0  0  0  0  0  0  0  0  0  0  0  0
   36.0480   29.0210   38.0160 C   0  0  0  0  0  0  0  0  0  0  0  0
   34.7830   28.7910   37.6040 N   0  0  0  0  0  0  0  0  0  0  0  0
   35.2360   29.4040   34.2970 H   0  0  0  0  0  0  0  0  0  0  0  0
   37.5050   29.8040   35.1090 H   0  0  0  0  0  0  0  0  0  0  0  0
   36.4740   26.1930   38.9080 Cl  0  0  0  0  0  0  0  0  0  0  0  0
   36.5650   27.5930   39.9520 C   0  0  0  0  0  0  0  0  0  0  0  0
   36.3510   28.8720   39.4420 C   0  0  0  0  0  0  0  0  0  0  0  0
   36.4240   29.9820   40.2790 C   0  0  0  0  0  0  0  0  0  0  0  0
   36.2490   30.9500   39.8300 H   0  0  0  0  0  0  0  0  0  0  0  0
   36.7130   29.7830   41.6140 C   0  0  0  0  0  3  0  0  0  0  0  0
   36.9330   28.5420   42.1710 C   0  0  0  0  0  0  0  0  0  0  0  0
   37.2940   28.3630   43.8670 Cl  0  0  0  0  0  0  0  0  0  0  0  0
   36.8530   27.4640   41.3130 C   0  0  0  0  0  0  0  0  0  0  0  0
   37.0270   26.4870   41.7550 H   0  0  0  0  0  0  0  0  0  0  0  0
   33.1450   28.6810   35.8580 C   0  0  0  0  0  0  0  0  0  0  0  0
   32.7550   27.6920   35.1870 O   0  0  0  0  0  0  0  0  0  0  0  0
   31.6400   30.6040   35.2210 C   0  0  0  0  0  0  0  0  0  0  0  0
   32.0670   29.6370   36.1430 C   0  0  0  0  0  0  0  0  0  0  0  0
   31.4390   29.5920   37.3610 C   0  0  0  0  0  0  0  0  0  0  0  0
   30.4110   30.4300   37.7510 C   0  0  0  0  0  0  0  0  0  0  0  0
   29.6730   30.5540   38.8660 N   0  0  0  0  0  0  0  0  0  0  0  0
   28.7980   31.5440   38.7110 C   0  0  0  0  0  0  0  0  0  0  0  0
   28.9770   32.0870   37.4370 C   0  0  0  0  0  0  0  0  0  0  0  0
   30.0030   31.3770   36.8280 C   0  0  0  0  0  0  0  0  0  0  0  0
   30.6050   31.4590   35.5950 C   0  0  0  0  0  0  0  0  0  0  0  0
   32.1380   30.6320   34.2690 H   0  0  0  0  0  0  0  0  0  0  0  0
   31.7050   28.8670   38.1500 H   0  0  0  0  0  0  0  0  0  0  0  0
   29.7580   29.9680   39.7370 H   0  0  0  0  0  0  0  0  0  0  0  0
   28.0520   31.9320   39.3780 H   0  0  0  0  0  0  0  0  0  0  0  0
   28.4550   32.9010   36.9510 H   0  0  0  0  0  0  0  0  0  0  0  0
   30.2840   32.2000   34.8780 H   0  0  0  0  0  0  0  0  0  0  0  0
  1  6  1  0  0  0  0
  2  3  1  0  0  0  0
  2  1  2  0  0  0  0
  3  4  2  0  0  0  0
  4  5  1  0  0  0  0
  5 11  1  0  0  0  0
  6  5  2  0  0  0  0
  7  2  1  0  0  0  0
  8  3  1  0  0  0  0
  9 10  1  0  0  0  0
 10 17  1  0  0  0  0
 11 10  2  0  0  0  0
 11 12  1  0  0  0  0
 12 14  2  0  0  0  0
 13 12  1  0  0  0  0
 14 15  1  0  0  0  0
 15 16  1  0  0  0  0
 17 18  1  0  0  0  0
 17 15  2  0  0  0  0
 19 22  1  0  0  0  0
 19  1  1  0  0  0  0
 20 19  2  0  0  0  0
 21 29  2  0  0  0  0
 21 22  1  0  0  0  0
 22 23  2  0  0  0  0
 23 24  1  0  0  0  0
 23 31  1  0  0  0  0
 24 25  1  0  0  0  0
 25 32  1  0  0  0  0
 26 25  1  0  0  0  0
 26 33  1  0  0  0  0
 27 26  2  0  0  0  0
 28 27  1  0  0  0  0
 28 24  2  0  0  0  0
 29 28  1  0  0  0  0
 30 21  1  0  0  0  0
 34 27  1  0  0  0  0
 35 29  1  0  0  0  0
M  END
>  <minimizedAffinity>
-6.02387571

$$$$

 OpenBabel03242512393D

 35 38  0  0  0  0  0  0  0  0999 V2000
   37.3300   29.4000   41.0580 C   0  0  0  0  0  0  0  0  0  0  0  0
   37.8630   29.9390   42.2370 C   0  0  0  0  0  0  0  0  0  0  0  0
   38.4820   29.0400   43.1170 C   0  0  0  0  0  0  0  0  0  0  0  0
   38.5250   27.7140   42.7750 N   0  0  0  0  0  0  0  0  0  0  0  0
   37.9920   27.2570   41.6240 C   0  0  0  0  0  0  0  0  0  0  0  0
   37.3940   28.1130   40.7690 N   0  0  0  0  0  0  0  0  0  0  0  0
   37.8510   30.9690   42.5450 H   0  0  0  0  0  0  0  0  0  0  0  0
   38.9200   29.3670   44.0490 H   0  0  0  0  0  0  0  0  0  0  0  0
   40.4570   26.4390   40.1300 Cl  0  0  0  0  0  0  0  0  0  0  0  0
   39.1500   25.3620   40.5670 C   0  0  0  0  0  0  0  0  0  0  0  0
   38.0420   25.8380   41.2650 C   0  0  0  0  0  0  0  0  0  0  0  0
   37.0060   24.9750   41.6090 C   0  0  0  0  0  0  0  0  0  0  0  0
   36.1710   25.3970   42.1500 H   0  0  0  0  0  0  0  0  0  0  0  0
   37.1060   23.6470   41.2450 C   0  0  0  0  0  3  0  0  0  0  0  0
   38.1780   23.1230   40.5550 C   0  0  0  0  0  0  0  0  0  0  0  0
   38.2390   21.4340   40.1260 Cl  0  0  0  0  0  0  0  0  0  0  0  0
   39.1870   24.0060   40.2300 C   0  0  0  0  0  0  0  0  0  0  0  0
   40.0300   23.5900   39.6860 H   0  0  0  0  0  0  0  0  0  0  0  0
   36.7050   30.3300   40.1760 C   0  0  0  0  0  0  0  0  0  0  0  0
   36.5710   31.5650   40.3680 O   0  0  0  0  0  0  0  0  0  0  0  0
   34.8760   29.2720   38.7950 C   0  0  0  0  0  0  0  0  0  0  0  0
   36.1330   29.8870   38.8970 C   0  0  0  0  0  0  0  0  0  0  0  0
   36.8480   30.0800   37.7440 C   0  0  0  0  0  0  0  0  0  0  0  0
   36.4230   29.7140   36.4810 C   0  0  0  0  0  0  0  0  0  0  0  0
   36.9490   29.8090   35.2490 N   0  0  0  0  0  0  0  0  0  0  0  0
   36.1030   29.2900   34.3630 C   0  0  0  0  0  0  0  0  0  0  0  0
   34.9760   28.8380   35.0530 C   0  0  0  0  0  0  0  0  0  0  0  0
   35.1810   29.1080   36.3980 C   0  0  0  0  0  0  0  0  0  0  0  0
   34.4300   28.8940   37.5290 C   0  0  0  0  0  0  0  0  0  0  0  0
   34.3240   29.1240   39.7040 H   0  0  0  0  0  0  0  0  0  0  0  0
   37.8440   30.5550   37.7250 H   0  0  0  0  0  0  0  0  0  0  0  0
   37.8840   30.2260   35.0020 H   0  0  0  0  0  0  0  0  0  0  0  0
   36.1770   29.1900   33.2970 H   0  0  0  0  0  0  0  0  0  0  0  0
   34.0790   28.3610   34.6780 H   0  0  0  0  0  0  0  0  0  0  0  0
   33.4620   28.4210   37.4610 H   0  0  0  0  0  0  0  0  0  0  0  0
  1  2  1  0  0  0  0
  2  7  1  0  0  0  0
  2  3  2  0  0  0  0
  3  8  1  0  0  0  0
  4  3  1  0  0  0  0
  5  4  2  0  0  0  0
  6  1  2  0  0  0  0
  6  5  1  0  0  0  0
  9 10  1  0  0  0  0
 10 11  1  0  0  0  0
 11 12  2  0  0  0  0
 11  5  1  0  0  0  0
 12 13  1  0  0  0  0
 14 12  1  0  0  0  0
 15 14  2  0  0  0  0
 16 15  1  0  0  0  0
 17 15  1  0  0  0  0
 17 10  2  0  0  0  0
 18 17  1  0  0  0  0
 19 20  2  0  0  0  0
 19  1  1  0  0  0  0
 21 22  1  0  0  0  0
 21 30  1  0  0  0  0
 22 19  1  0  0  0  0
 23 22  2  0  0  0  0
 24 23  1  0  0  0  0
 25 24  1  0  0  0  0
 26 27  2  0  0  0  0
 26 25  1  0  0  0  0
 27 28  1  0  0  0  0
 28 24  2  0  0  0  0
 28 29  1  0  0  0  0
 29 21  2  0  0  0  0
 31 23  1  0  0  0  0
 32 25  1  0  0  0  0
 33 26  1  0  0  0  0
 34 27  1  0  0  0  0
 35 29  1  0  0  0  0
M  END
>  <minimizedAffinity>
-6.01972008

$$$$

 OpenBabel03242512393D

 35 38  0  0  0  0  0  0  0  0999 V2000
   38.1880   27.1790   42.0320 C   0  0  0  0  0  0  0  0  0  0  0  0
   39.4890   26.6810   42.1840 C   0  0  0  0  0  0  0  0  0  0  0  0
   39.7950   25.5000   41.4930 C   0  0  0  0  0  0  0  0  0  0  0  0
   38.8190   24.9170   40.7290 N   0  0  0  0  0  0  0  0  0  0  0  0
   37.5840   25.4460   40.6250 C   0  0  0  0  0  0  0  0  0  0  0  0
   37.2780   26.5840   41.2840 N   0  0  0  0  0  0  0  0  0  0  0  0
   40.2840   27.1040   42.7710 H   0  0  0  0  0  0  0  0  0  0  0  0
   40.7730   25.0440   41.5520 H   0  0  0  0  0  0  0  0  0  0  0  0
   37.0050   26.8630   38.0500 Cl  0  0  0  0  0  0  0  0  0  0  0  0
   36.2040   25.4050   38.5890 C   0  0  0  0  0  0  0  0  0  0  0  0
   36.5440   24.8180   39.8060 C   0  0  0  0  0  0  0  0  0  0  0  0
   35.9030   23.6570   40.2280 C   0  0  0  0  0  0  0  0  0  0  0  0
   36.2070   23.2450   41.1800 H   0  0  0  0  0  0  0  0  0  0  0  0
   34.9320   23.1080   39.4170 C   0  0  0  0  0  3  0  0  0  0  0  0
   34.5560   23.6460   38.2040 C   0  0  0  0  0  0  0  0  0  0  0  0
   33.3200   22.8990   37.2280 Cl  0  0  0  0  0  0  0  0  0  0  0  0
   35.2120   24.7960   37.8160 C   0  0  0  0  0  0  0  0  0  0  0  0
   34.9140   25.2170   36.8600 H   0  0  0  0  0  0  0  0  0  0  0  0
   37.8970   28.3820   42.7420 C   0  0  0  0  0  0  0  0  0  0  0  0
   37.3350   28.4690   43.8640 O   0  0  0  0  0  0  0  0  0  0  0  0
   39.5130   30.2830   42.3620 C   0  0  0  0  0  0  0  0  0  0  0  0
   38.2530   29.6920   42.1810 C   0  0  0  0  0  0  0  0  0  0  0  0
   37.3230   30.3780   41.4440 C   0  0  0  0  0  0  0  0  0  0  0  0
   37.5340   31.6140   40.8610 C   0  0  0  0  0  0  0  0  0  0  0  0
   36.7820   32.4390   40.1160 N   0  0  0  0  0  0  0  0  0  0  0  0
   37.4860   33.5260   39.8080 C   0  0  0  0  0  0  0  0  0  0  0  0
   38.7540   33.3980   40.3810 C   0  0  0  0  0  0  0  0  0  0  0  0
   38.7810   32.1820   41.0490 C   0  0  0  0  0  0  0  0  0  0  0  0
   39.7440   31.5290   41.7830 C   0  0  0  0  0  0  0  0  0  0  0  0
   40.2350   29.7390   42.9420 H   0  0  0  0  0  0  0  0  0  0  0  0
   36.3070   29.9940   41.2480 H   0  0  0  0  0  0  0  0  0  0  0  0
   35.7870   32.2720   39.8110 H   0  0  0  0  0  0  0  0  0  0  0  0
   37.2230   34.3940   39.2340 H   0  0  0  0  0  0  0  0  0  0  0  0
   39.5990   34.0730   40.3510 H   0  0  0  0  0  0  0  0  0  0  0  0
   40.7170   31.9760   41.9280 H   0  0  0  0  0  0  0  0  0  0  0  0
  1  2  1  0  0  0  0
  1 19  1  0  0  0  0
  2  7  1  0  0  0  0
  3  8  1  0  0  0  0
  3  2  2  0  0  0  0
  4  3  1  0  0  0  0
  5  4  2  0  0  0  0
  5  6  1  0  0  0  0
  6  1  2  0  0  0  0
  9 10  1  0  0  0  0
 10 11  1  0  0  0  0
 11 12  2  0  0  0  0
 11  5  1  0  0  0  0
 12 13  1  0  0  0  0
 14 12  1  0  0  0  0
 15 14  2  0  0  0  0
 16 15  1  0  0  0  0
 17 15  1  0  0  0  0
 17 10  2  0  0  0  0
 18 17  1  0  0  0  0
 19 20  2  0  0  0  0
 21 30  1  0  0  0  0
 22 21  1  0  0  0  0
 22 19  1  0  0  0  0
 23 22  2  0  0  0  0
 24 28  2  0  0  0  0
 24 23  1  0  0  0  0
 25 24  1  0  0  0  0
 26 25  1  0  0  0  0
 26 27  2  0  0  0  0
 27 28  1  0  0  0  0
 28 29  1  0  0  0  0
 29 35  1  0  0  0  0
 29 21  2  0  0  0  0
 31 23  1  0  0  0  0
 32 25  1  0  0  0  0
 33 26  1  0  0  0  0
 34 27  1  0  0  0  0
M  END
>  <minimizedAffinity>
-6.012609

$$$$

 OpenBabel03242512393D

 35 38  0  0  0  0  0  0  0  0999 V2000
   38.0090   29.2780   41.6310 C   0  0  0  0  0  0  0  0  0  0  0  0
   36.6270   29.5070   41.5920 C   0  0  0  0  0  0  0  0  0  0  0  0
   36.1900   30.5920   40.8170 C   0  0  0  0  0  0  0  0  0  0  0  0
   37.1270   31.3450   40.1600 N   0  0  0  0  0  0  0  0  0  0  0  0
   38.4450   31.0720   40.2390 C   0  0  0  0  0  0  0  0  0  0  0  0
   38.8770   30.0310   40.9810 N   0  0  0  0  0  0  0  0  0  0  0  0
   35.8590   28.9440   42.0900 H   0  0  0  0  0  0  0  0  0  0  0  0
   35.1440   30.8430   40.7290 H   0  0  0  0  0  0  0  0  0  0  0  0
   39.2110   30.0250   37.5390 Cl  0  0  0  0  0  0  0  0  0  0  0  0
   39.8620   31.4750   38.2690 C   0  0  0  0  0  0  0  0  0  0  0  0
   39.4410   31.8820   39.5330 C   0  0  0  0  0  0  0  0  0  0  0  0
   39.9630   33.0370   40.1070 C   0  0  0  0  0  0  0  0  0  0  0  0
   39.6010   33.3060   41.0900 H   0  0  0  0  0  0  0  0  0  0  0  0
   40.8980   33.7620   39.3980 C   0  0  0  0  0  3  0  0  0  0  0  0
   41.3500   33.4060   38.1450 C   0  0  0  0  0  0  0  0  0  0  0  0
   42.5350   34.3690   37.3040 Cl  0  0  0  0  0  0  0  0  0  0  0  0
   40.8120   32.2560   37.6050 C   0  0  0  0  0  0  0  0  0  0  0  0
   41.1700   31.9780   36.6180 H   0  0  0  0  0  0  0  0  0  0  0  0
   38.4330   28.1700   42.4240 C   0  0  0  0  0  0  0  0  0  0  0  0
   39.0750   28.2280   43.5040 O   0  0  0  0  0  0  0  0  0  0  0  0
   37.0690   26.0500   42.5510 C   0  0  0  0  0  0  0  0  0  0  0  0
   38.1320   26.7920   42.0140 C   0  0  0  0  0  0  0  0  0  0  0  0
   38.9160   26.1920   41.0640 C   0  0  0  0  0  0  0  0  0  0  0  0
   38.7380   24.9060   40.5900 C   0  0  0  0  0  0  0  0  0  0  0  0
   39.3710   24.1440   39.6840 N   0  0  0  0  0  0  0  0  0  0  0  0
   38.7750   22.9560   39.6090 C   0  0  0  0  0  0  0  0  0  0  0  0
   37.7060   22.9490   40.5080 C   0  0  0  0  0  0  0  0  0  0  0  0
   37.6840   24.1890   41.1300 C   0  0  0  0  0  0  0  0  0  0  0  0
   36.8720   24.7510   42.0870 C   0  0  0  0  0  0  0  0  0  0  0  0
   36.4600   26.5290   43.2960 H   0  0  0  0  0  0  0  0  0  0  0  0
   39.7740   26.6950   40.5850 H   0  0  0  0  0  0  0  0  0  0  0  0
   40.2100   24.4230   39.1120 H   0  0  0  0  0  0  0  0  0  0  0  0
   38.9960   22.0970   39.0050 H   0  0  0  0  0  0  0  0  0  0  0  0
   36.9920   22.1660   40.7290 H   0  0  0  0  0  0  0  0  0  0  0  0
   36.0520   24.1890   42.5060 H   0  0  0  0  0  0  0  0  0  0  0  0
  1 19  1  0  0  0  0
  2  1  1  0  0  0  0
  2  7  1  0  0  0  0
  3  2  2  0  0  0  0
  4  5  2  0  0  0  0
  4  3  1  0  0  0  0
  5  6  1  0  0  0  0
  6  1  2  0  0  0  0
  8  3  1  0  0  0  0
  9 10  1  0  0  0  0
 10 11  1  0  0  0  0
 11 12  2  0  0  0  0
 11  5  1  0  0  0  0
 12 13  1  0  0  0  0
 14 12  1  0  0  0  0
 15 14  2  0  0  0  0
 16 15  1  0  0  0  0
 17 15  1  0  0  0  0
 17 10  2  0  0  0  0
 18 17  1  0  0  0  0
 19 20  2  0  0  0  0
 21 30  1  0  0  0  0
 22 19  1  0  0  0  0
 22 21  2  0  0  0  0
 23 22  1  0  0  0  0
 24 23  2  0  0  0  0
 24 28  1  0  0  0  0
 25 24  1  0  0  0  0
 26 25  1  0  0  0  0
 26 27  2  0  0  0  0
 27 34  1  0  0  0  0
 27 28  1  0  0  0  0
 28 29  2  0  0  0  0
 29 35  1  0  0  0  0
 29 21  1  0  0  0  0
 31 23  1  0  0  0  0
 32 25  1  0  0  0  0
 33 26  1  0  0  0  0
M  END
>  <minimizedAffinity>
-5.99465609

$$$$

 OpenBabel03242512393D

 35 38  0  0  0  0  0  0  0  0999 V2000
   38.9340   28.4880   42.0290 C   0  0  0  0  0  0  0  0  0  0  0  0
   38.3420   28.8160   43.2560 C   0  0  0  0  0  0  0  0  0  0  0  0
   37.2490   28.0340   43.6580 C   0  0  0  0  0  0  0  0  0  0  0  0
   36.8370   27.0160   42.8380 N   0  0  0  0  0  0  0  0  0  0  0  0
   37.4500   26.7520   41.6670 C   0  0  0  0  0  0  0  0  0  0  0  0
   38.5020   27.4980   41.2700 N   0  0  0  0  0  0  0  0  0  0  0  0
   38.6310   29.6030   43.9290 H   0  0  0  0  0  0  0  0  0  0  0  0
   36.7320   28.2140   44.5880 H   0  0  0  0  0  0  0  0  0  0  0  0
   36.2040   27.6490   39.0940 Cl  0  0  0  0  0  0  0  0  0  0  0  0
   36.4100   25.9800   39.5750 C   0  0  0  0  0  0  0  0  0  0  0  0
   37.0040   25.6620   40.7950 C   0  0  0  0  0  0  0  0  0  0  0  0
   37.1650   24.3320   41.1710 C   0  0  0  0  0  0  0  0  0  0  0  0
   37.6310   24.1430   42.1270 H   0  0  0  0  0  0  0  0  0  0  0  0
   36.7270   23.3460   40.3100 C   0  0  0  0  0  3  0  0  0  0  0  0
   36.1340   23.6030   39.0930 C   0  0  0  0  0  0  0  0  0  0  0  0
   35.6030   22.3070   38.0540 Cl  0  0  0  0  0  0  0  0  0  0  0  0
   35.9900   24.9320   38.7520 C   0  0  0  0  0  0  0  0  0  0  0  0
   35.5220   25.1310   37.7910 H   0  0  0  0  0  0  0  0  0  0  0  0
   40.0430   29.2960   41.6390 C   0  0  0  0  0  0  0  0  0  0  0  0
   41.2480   28.9400   41.6020 O   0  0  0  0  0  0  0  0  0  0  0  0
   40.8900   31.6320   41.1970 C   0  0  0  0  0  0  0  0  0  0  0  0
   39.8490   30.6920   41.2250 C   0  0  0  0  0  0  0  0  0  0  0  0
   38.5990   31.1080   40.8460 C   0  0  0  0  0  0  0  0  0  0  0  0
   38.2850   32.3900   40.4330 C   0  0  0  0  0  0  0  0  0  0  0  0
   37.1570   32.9940   40.0260 N   0  0  0  0  0  0  0  0  0  0  0  0
   37.4160   34.2680   39.7380 C   0  0  0  0  0  0  0  0  0  0  0  0
   38.7730   34.4980   39.9700 C   0  0  0  0  0  0  0  0  0  0  0  0
   39.3240   33.3030   40.4110 C   0  0  0  0  0  0  0  0  0  0  0  0
   40.5930   32.9300   40.7840 C   0  0  0  0  0  0  0  0  0  0  0  0
   41.8650   31.2970   41.4970 H   0  0  0  0  0  0  0  0  0  0  0  0
   37.7190   30.4420   40.8360 H   0  0  0  0  0  0  0  0  0  0  0  0
   36.2070   32.5480   39.9410 H   0  0  0  0  0  0  0  0  0  0  0  0
   36.7720   35.0520   39.3870 H   0  0  0  0  0  0  0  0  0  0  0  0
   39.3520   35.4050   39.8490 H   0  0  0  0  0  0  0  0  0  0  0  0
   41.4010   33.6460   40.7660 H   0  0  0  0  0  0  0  0  0  0  0  0
  1  2  1  0  0  0  0
  2  3  2  0  0  0  0
  2  7  1  0  0  0  0
  3  8  1  0  0  0  0
  4  3  1  0  0  0  0
  5  4  2  0  0  0  0
  6  5  1  0  0  0  0
  6  1  2  0  0  0  0
  9 10  1  0  0  0  0
 10 11  1  0  0  0  0
 11 12  2  0  0  0  0
 11  5  1  0  0  0  0
 12 13  1  0  0  0  0
 14 12  1  0  0  0  0
 15 14  2  0  0  0  0
 16 15  1  0  0  0  0
 17 15  1  0  0  0  0
 17 10  2  0  0  0  0
 18 17  1  0  0  0  0
 19  1  1  0  0  0  0
 20 19  2  0  0  0  0
 21 22  1  0  0  0  0
 21 30  1  0  0  0  0
 22 19  1  0  0  0  0
 23 22  2  0  0  0  0
 24 23  1  0  0  0  0
 25 24  1  0  0  0  0
 26 27  2  0  0  0  0
 26 25  1  0  0  0  0
 27 28  1  0  0  0  0
 28 24  2  0  0  0  0
 28 29  1  0  0  0  0
 29 21  2  0  0  0  0
 31 23  1  0  0  0  0
 32 25  1  0  0  0  0
 33 26  1  0  0  0  0
 34 27  1  0  0  0  0
 35 29  1  0  0  0  0
M  END
>  <minimizedAffinity>
-5.99091148

$$$$
