REMARK  Name = 
REMARK  8 active torsions:
REMARK  status: ('A' for Active; 'I' for Inactive)
REMARK    1  A    between atoms: C_1  and  O_7
REMARK    2  A    between atoms: C_2  and  O_9
REMARK    3  A    between atoms: C_5  and  O_8
REMARK    4  A    between atoms: C_6  and  O_19
REMARK    5  A    between atoms: O_9  and  C_10
REMARK    6  A    between atoms: C_12  and  C_16
REMARK    7  A    between atoms: O_19  and  C_20
REMARK    8  A    between atoms: C_20  and  C_39
REMARK                            x       y       z     vdW  Elec       q    Type
REMARK                         _______ _______ _______ _____ _____    ______ ____
ROOT
ATOM      1  C   UNL     1      42.825  34.486  38.783  0.00  0.00    +0.000 C 
ATOM      2  C   UNL     1      42.953  35.166  40.137  0.00  0.00    +0.000 C 
ATOM      3  O   UNL     1      41.653  35.380  40.645  0.00  0.00    +0.000 OA
ATOM      4  C   UNL     1      40.730  35.698  39.645  0.00  0.00    +0.000 C 
ATOM      5  C   UNL     1      40.446  34.519  38.735  0.00  0.00    +0.000 C 
ATOM      6  C   UNL     1      41.668  33.550  38.892  0.00  0.00    +0.000 C 
ATOM      7  H   UNL     1      43.775  33.984  38.504  0.00  0.00    +0.000 HD
ATOM      8  H   UNL     1      43.527  36.099  40.104  0.00  0.00    +0.000 HD
ATOM      9  H   UNL     1      41.027  36.599  39.072  0.00  0.00    +0.000 HD
ATOM     10  H   UNL     1      39.797  35.924  40.178  0.00  0.00    +0.000 HD
ATOM     11  H   UNL     1      39.524  33.967  39.004  0.00  0.00    +0.000 HD
ATOM     12  H   UNL     1      41.447  33.302  39.981  0.00  0.00    +0.000 HD
ENDROOT
BRANCH   1  13
ATOM     13  O   UNL     1      42.606  35.432  37.769  0.00  0.00    +0.000 OA
ATOM     14  H   UNL     1      43.227  36.196  37.876  0.00  0.00    +0.000 HD
ENDBRANCH   1  13
BRANCH   5  15
ATOM     15  O   UNL     1      40.471  34.926  37.413  0.00  0.00    +0.000 OA
ATOM     16  H   UNL     1      39.626  35.384  37.202  0.00  0.00    +0.000 HD
ENDBRANCH   5  15
BRANCH   2  17
ATOM     17  O   UNL     1      43.487  34.190  40.992  0.00  0.00    +0.000 OA
BRANCH  17  18
ATOM     18  C   UNL     1      44.597  34.340  41.723  0.00  0.00    +0.000 A 
ATOM     19  C   UNL     1      45.855  34.449  41.112  0.00  0.00    +0.000 A 
ATOM     20  C   UNL     1      46.975  34.603  41.909  0.00  0.00    +0.000 A 
ATOM     21  N   UNL     1      46.823  34.646  43.282  0.00  0.00    +0.000 NA
ATOM     22  C   UNL     1      45.594  34.537  43.840  0.00  0.00    +0.000 A 
ATOM     23  N   UNL     1      44.491  34.385  43.062  0.00  0.00    +0.000 NA
ATOM     24  H   UNL     1      45.982  34.416  40.029  0.00  0.00    +0.000 HD
ATOM     25  H   UNL     1      45.521  34.575  44.917  0.00  0.00    +0.000 HD
BRANCH  20  26
ATOM     26  C   UNL     1      48.350  34.703  41.324  0.00  0.00    +0.000 C 
ATOM     27  C   UNL     1      49.073  36.036  41.502  0.00  0.00    +0.000 C 
ATOM     28  C   UNL     1      49.505  34.714  42.165  0.00  0.00    +0.000 C 
ATOM     29  H   UNL     1      48.408  34.264  40.293  0.00  0.00    +0.000 HD
ATOM     30  H   UNL     1      49.727  36.314  40.654  0.00  0.00    +0.000 HD
ATOM     31  H   UNL     1      48.588  36.804  42.120  0.00  0.00    +0.000 HD
ATOM     32  H   UNL     1      50.488  34.303  41.905  0.00  0.00    +0.000 HD
ATOM     33  H   UNL     1      49.343  34.735  43.274  0.00  0.00    +0.000 HD
ENDBRANCH  20  26
ENDBRANCH  17  18
ENDBRANCH   2  17
BRANCH   6  34
ATOM     34  O   UNL     1      41.553  32.594  37.955  0.00  0.00    +0.000 OA
BRANCH  34  35
ATOM     35  C   UNL     1      40.935  31.410  37.962  0.00  0.00    +0.000 C 
ATOM     36  O   UNL     1      39.675  31.294  37.546  0.00  0.00    +0.000 OA
BRANCH  35  39
ATOM     37 CL   UNL     1      38.855  29.215  38.108  0.00  0.00    +0.000 Cl
ATOM     38  C   UNL     1      40.557  28.932  38.471  0.00  0.00    +0.000 A 
ATOM     39  C   UNL     1      41.386  30.027  38.369  0.00  0.00    +0.000 A 
ATOM     40  C   UNL     1      42.690  29.725  38.666  0.00  0.00    +0.000 A 
ATOM     41  H   UNL     1      43.461  30.493  38.627  0.00  0.00    +0.000 HD
ATOM     42  C   UNL     1      43.113  28.484  39.020  0.00  0.00    +0.000 A 
ATOM     43  C   UNL     1      42.229  27.451  39.098  0.00  0.00    +0.000 A 
ATOM     44 CL   UNL     1      42.774  25.864  39.552  0.00  0.00    +0.000 Cl
ATOM     45  C   UNL     1      40.896  27.650  38.819  0.00  0.00    +0.000 A 
ATOM     46  H   UNL     1      40.164  26.876  38.866  0.00  0.00    +0.000 HD
ENDBRANCH  35  39
ENDBRANCH  34  35
ENDBRANCH   6  34
TORSDOF 8
