
 OpenBabel03242510063D

 19 20  0  0  0  0  0  0  0  0999 V2000
   36.5630   31.0030   39.4950 Cl  0  0  0  0  0  0  0  0  0  0  0  0
   37.3010   30.3010   40.9020 C   0  0  0  0  0  0  0  0  0  0  0  0
   38.5000   30.7650   41.3630 C   0  0  0  0  0  0  0  0  0  0  0  0
   38.9980   30.1390   42.4870 C   0  0  0  0  0  0  0  0  0  0  0  0
   39.9570   30.5020   42.8650 H   0  0  0  0  0  0  0  0  0  0  0  0
   38.3840   29.1030   43.1570 C   0  0  0  0  0  3  0  0  0  0  0  0
   37.1740   28.6610   42.6620 C   0  0  0  0  0  0  0  0  0  0  0  0
   36.4280   27.3440   43.5460 Cl  0  0  0  0  0  0  0  0  0  0  0  0
   36.6300   29.2540   41.5400 C   0  0  0  0  0  0  0  0  0  0  0  0
   35.6900   28.8680   41.2020 H   0  0  0  0  0  0  0  0  0  0  0  0
   39.4980   34.1610   40.4440 C   0  0  0  0  0  0  0  0  0  0  0  0
   40.5280   33.9500   39.5170 C   0  0  0  0  0  0  0  0  0  0  0  0
   40.8840   32.6200   39.2030 C   0  0  0  0  0  0  0  0  0  0  0  0
   40.2000   31.6280   39.8250 N   0  0  0  0  0  0  0  0  0  0  0  0
   39.2160   31.8570   40.7120 C   0  0  0  0  0  0  0  0  0  0  0  0
   38.8610   33.1280   41.0260 N   0  0  0  0  0  0  0  0  0  0  0  0
   39.1590   35.1480   40.7440 H   0  0  0  0  0  0  0  0  0  0  0  0
   41.0150   34.7990   39.0740 H   0  0  0  0  0  0  0  0  0  0  0  0
   41.6760   32.4370   38.4920 H   0  0  0  0  0  0  0  0  0  0  0  0
  1  2  1  0  0  0  0
  2  3  2  0  0  0  0
  2  9  1  0  0  0  0
  3  4  1  0  0  0  0
  4  5  1  0  0  0  0
  4  6  2  0  0  0  0
  7  6  1  0  0  0  0
  7  8  1  0  0  0  0
  9  7  2  0  0  0  0
 10  9  1  0  0  0  0
 11 17  1  0  0  0  0
 11 16  1  0  0  0  0
 12 11  2  0  0  0  0
 13 12  1  0  0  0  0
 13 14  2  0  0  0  0
 14 15  1  0  0  0  0
 15 16  2  0  0  0  0
 15  3  1  0  0  0  0
 18 12  1  0  0  0  0
 19 13  1  0  0  0  0
M  END
>  <minimizedAffinity>
-4.51464748

$$$$

 OpenBabel03242510063D

 19 20  0  0  0  0  0  0  0  0999 V2000
   40.8240   30.5960   42.9260 Cl  0  0  0  0  0  0  0  0  0  0  0  0
   39.2270   30.1270   42.4300 C   0  0  0  0  0  0  0  0  0  0  0  0
   38.6110   30.7580   41.3860 C   0  0  0  0  0  0  0  0  0  0  0  0
   37.3440   30.3090   41.0730 C   0  0  0  0  0  0  0  0  0  0  0  0
   36.8410   30.8060   40.2400 H   0  0  0  0  0  0  0  0  0  0  0  0
   36.6760   29.2950   41.7250 C   0  0  0  0  0  3  0  0  0  0  0  0
   37.3320   28.6810   42.7730 C   0  0  0  0  0  0  0  0  0  0  0  0
   36.4460   27.3970   43.5720 Cl  0  0  0  0  0  0  0  0  0  0  0  0
   38.6010   29.0910   43.1280 C   0  0  0  0  0  0  0  0  0  0  0  0
   39.0580   28.5790   43.9490 H   0  0  0  0  0  0  0  0  0  0  0  0
   40.6680   32.4840   38.9040 C   0  0  0  0  0  0  0  0  0  0  0  0
   40.4710   33.8370   39.2120 C   0  0  0  0  0  0  0  0  0  0  0  0
   39.6180   34.1600   40.2900 C   0  0  0  0  0  0  0  0  0  0  0  0
   39.0410   33.1310   40.9600 N   0  0  0  0  0  0  0  0  0  0  0  0
   39.2470   31.8410   40.6440 C   0  0  0  0  0  0  0  0  0  0  0  0
   40.0630   31.5120   39.6110 N   0  0  0  0  0  0  0  0  0  0  0  0
   41.3060   32.1440   38.0940 H   0  0  0  0  0  0  0  0  0  0  0  0
   40.9700   34.5850   38.6260 H   0  0  0  0  0  0  0  0  0  0  0  0
   39.4530   35.1970   40.5430 H   0  0  0  0  0  0  0  0  0  0  0  0
  2  1  1  0  0  0  0
  2  9  1  0  0  0  0
  3  2  2  0  0  0  0
  4  3  1  0  0  0  0
  4  6  2  0  0  0  0
  5  4  1  0  0  0  0
  6  7  1  0  0  0  0
  7  9  2  0  0  0  0
  7  8  1  0  0  0  0
  9 10  1  0  0  0  0
 11 12  2  0  0  0  0
 11 16  1  0  0  0  0
 12 13  1  0  0  0  0
 13 19  1  0  0  0  0
 13 14  2  0  0  0  0
 15 14  1  0  0  0  0
 15  3  1  0  0  0  0
 16 15  2  0  0  0  0
 17 11  1  0  0  0  0
 18 12  1  0  0  0  0
M  END
>  <minimizedAffinity>
-4.20172262

$$$$

 OpenBabel03242510063D

 19 20  0  0  0  0  0  0  0  0999 V2000
   38.5710   28.5910   38.7090 Cl  0  0  0  0  0  0  0  0  0  0  0  0
   37.9230   28.1940   40.2710 C   0  0  0  0  0  0  0  0  0  0  0  0
   37.6650   29.1740   41.1870 C   0  0  0  0  0  0  0  0  0  0  0  0
   37.1520   28.7510   42.3960 C   0  0  0  0  0  0  0  0  0  0  0  0
   36.9420   29.5270   43.1360 H   0  0  0  0  0  0  0  0  0  0  0  0
   36.8900   27.4410   42.7330 C   0  0  0  0  0  3  0  0  0  0  0  0
   37.1640   26.4790   41.7820 C   0  0  0  0  0  0  0  0  0  0  0  0
   36.8150   24.8270   42.2530 Cl  0  0  0  0  0  0  0  0  0  0  0  0
   37.6780   26.8480   40.5550 C   0  0  0  0  0  0  0  0  0  0  0  0
   37.8690   26.0580   39.8590 H   0  0  0  0  0  0  0  0  0  0  0  0
   37.1540   32.5840   39.9700 C   0  0  0  0  0  0  0  0  0  0  0  0
   38.3290   33.2420   40.3610 C   0  0  0  0  0  0  0  0  0  0  0  0
   39.3110   32.5000   41.0550 C   0  0  0  0  0  0  0  0  0  0  0  0
   39.0500   31.1920   41.2970 N   0  0  0  0  0  0  0  0  0  0  0  0
   37.9140   30.5850   40.9100 C   0  0  0  0  0  0  0  0  0  0  0  0
   36.9590   31.2810   40.2440 N   0  0  0  0  0  0  0  0  0  0  0  0
   36.3480   33.0750   39.4330 H   0  0  0  0  0  0  0  0  0  0  0  0
   38.4490   34.2820   40.1260 H   0  0  0  0  0  0  0  0  0  0  0  0
   40.2220   32.9890   41.3660 H   0  0  0  0  0  0  0  0  0  0  0  0
  1  2  1  0  0  0  0
  2  9  2  0  0  0  0
  2  3  1  0  0  0  0
  3  4  2  0  0  0  0
  4  6  1  0  0  0  0
  4  5  1  0  0  0  0
  7  8  1  0  0  0  0
  7  6  2  0  0  0  0
  9  7  1  0  0  0  0
 10  9  1  0  0  0  0
 11 16  2  0  0  0  0
 11 12  1  0  0  0  0
 12 13  2  0  0  0  0
 13 14  1  0  0  0  0
 13 19  1  0  0  0  0
 15  3  1  0  0  0  0
 15 14  2  0  0  0  0
 16 15  1  0  0  0  0
 17 11  1  0  0  0  0
 18 12  1  0  0  0  0
M  END
>  <minimizedAffinity>
-4.137393

$$$$

 OpenBabel03242510063D

 19 20  0  0  0  0  0  0  0  0999 V2000
   37.5520   26.5690   39.1830 Cl  0  0  0  0  0  0  0  0  0  0  0  0
   36.1210   27.5430   39.0370 C   0  0  0  0  0  0  0  0  0  0  0  0
   35.7940   28.4470   40.0070 C   0  0  0  0  0  0  0  0  0  0  0  0
   34.6380   29.1700   39.7940 C   0  0  0  0  0  0  0  0  0  0  0  0
   34.3660   29.8970   40.5630 H   0  0  0  0  0  0  0  0  0  0  0  0
   33.8120   29.0430   38.6970 C   0  0  0  0  0  3  0  0  0  0  0  0
   34.1760   28.1190   37.7390 C   0  0  0  0  0  0  0  0  0  0  0  0
   33.0980   27.9920   36.3620 Cl  0  0  0  0  0  0  0  0  0  0  0  0
   35.3240   27.3700   37.9020 C   0  0  0  0  0  0  0  0  0  0  0  0
   35.5530   26.6700   37.1260 H   0  0  0  0  0  0  0  0  0  0  0  0
   38.3300   29.8290   42.2500 C   0  0  0  0  0  0  0  0  0  0  0  0
   38.1830   29.0570   43.4110 C   0  0  0  0  0  0  0  0  0  0  0  0
   37.1960   28.0460   43.4210 C   0  0  0  0  0  0  0  0  0  0  0  0
   36.4520   27.8890   42.2990 N   0  0  0  0  0  0  0  0  0  0  0  0
   36.6130   28.6440   41.1980 C   0  0  0  0  0  0  0  0  0  0  0  0
   37.5550   29.6200   41.1700 N   0  0  0  0  0  0  0  0  0  0  0  0
   39.0610   30.6260   42.1540 H   0  0  0  0  0  0  0  0  0  0  0  0
   38.8190   29.2530   44.2540 H   0  0  0  0  0  0  0  0  0  0  0  0
   37.0670   27.4410   44.3070 H   0  0  0  0  0  0  0  0  0  0  0  0
  2  1  1  0  0  0  0
  2  3  1  0  0  0  0
  3 15  1  0  0  0  0
  4  3  2  0  0  0  0
  4  5  1  0  0  0  0
  6  4  1  0  0  0  0
  7  9  1  0  0  0  0
  7  6  2  0  0  0  0
  8  7  1  0  0  0  0
  9  2  2  0  0  0  0
 10  9  1  0  0  0  0
 11 12  1  0  0  0  0
 12 13  2  0  0  0  0
 12 18  1  0  0  0  0
 13 19  1  0  0  0  0
 14 13  1  0  0  0  0
 15 14  2  0  0  0  0
 16 15  1  0  0  0  0
 16 11  2  0  0  0  0
 17 11  1  0  0  0  0
M  END
>  <minimizedAffinity>
-4.01127243

$$$$

 OpenBabel03242510063D

 19 20  0  0  0  0  0  0  0  0999 V2000
   40.3310   29.1560   39.4890 Cl  0  0  0  0  0  0  0  0  0  0  0  0
   39.6050   28.7830   41.0220 C   0  0  0  0  0  0  0  0  0  0  0  0
   38.7490   29.6650   41.6190 C   0  0  0  0  0  0  0  0  0  0  0  0
   38.2270   29.2710   42.8330 C   0  0  0  0  0  0  0  0  0  0  0  0
   37.5400   29.9690   43.3200 H   0  0  0  0  0  0  0  0  0  0  0  0
   38.5040   28.0800   43.4700 C   0  0  0  0  0  3  0  0  0  0  0  0
   39.3730   27.2150   42.8360 C   0  0  0  0  0  0  0  0  0  0  0  0
   39.6960   25.7130   43.6790 Cl  0  0  0  0  0  0  0  0  0  0  0  0
   39.9230   27.5600   41.6170 C   0  0  0  0  0  0  0  0  0  0  0  0
   40.5900   26.8480   41.1750 H   0  0  0  0  0  0  0  0  0  0  0  0
   36.9580   32.1630   39.6380 C   0  0  0  0  0  0  0  0  0  0  0  0
   37.7040   33.3300   39.8470 C   0  0  0  0  0  0  0  0  0  0  0  0
   38.8410   33.2570   40.6830 C   0  0  0  0  0  0  0  0  0  0  0  0
   39.1360   32.0520   41.2300 N   0  0  0  0  0  0  0  0  0  0  0  0
   38.4020   30.9460   41.0130 C   0  0  0  0  0  0  0  0  0  0  0  0
   37.3070   30.9980   40.2140 N   0  0  0  0  0  0  0  0  0  0  0  0
   36.0710   32.1270   39.0120 H   0  0  0  0  0  0  0  0  0  0  0  0
   37.3950   34.2420   39.3710 H   0  0  0  0  0  0  0  0  0  0  0  0
   39.4290   34.1460   40.8570 H   0  0  0  0  0  0  0  0  0  0  0  0
  1  2  1  0  0  0  0
  2  9  2  0  0  0  0
  2  3  1  0  0  0  0
  3  4  2  0  0  0  0
  4  5  1  0  0  0  0
  4  6  1  0  0  0  0
  7  6  2  0  0  0  0
  7  8  1  0  0  0  0
  9  7  1  0  0  0  0
 10  9  1  0  0  0  0
 11 12  2  0  0  0  0
 11 16  1  0  0  0  0
 12 13  1  0  0  0  0
 13 19  1  0  0  0  0
 13 14  2  0  0  0  0
 15 14  1  0  0  0  0
 15  3  1  0  0  0  0
 16 15  2  0  0  0  0
 17 11  1  0  0  0  0
 18 12  1  0  0  0  0
M  END
>  <minimizedAffinity>
-3.96990609

$$$$

 OpenBabel03242510063D

 19 20  0  0  0  0  0  0  0  0999 V2000
   34.3260   29.1830   40.0570 Cl  0  0  0  0  0  0  0  0  0  0  0  0
   35.7180   29.0630   39.0260 C   0  0  0  0  0  0  0  0  0  0  0  0
   36.9280   28.6790   39.5320 C   0  0  0  0  0  0  0  0  0  0  0  0
   37.9680   28.6150   38.6280 C   0  0  0  0  0  0  0  0  0  0  0  0
   38.9400   28.3080   39.0210 H   0  0  0  0  0  0  0  0  0  0  0  0
   37.8720   28.9060   37.2840 C   0  0  0  0  0  3  0  0  0  0  0  0
   36.6340   29.2900   36.8090 C   0  0  0  0  0  0  0  0  0  0  0  0
   36.5580   29.6490   35.0950 Cl  0  0  0  0  0  0  0  0  0  0  0  0
   35.5590   29.3690   37.6720 C   0  0  0  0  0  0  0  0  0  0  0  0
   34.6250   29.6730   37.2460 H   0  0  0  0  0  0  0  0  0  0  0  0
   37.0720   26.7330   42.6250 C   0  0  0  0  0  0  0  0  0  0  0  0
   37.4520   27.6840   43.5820 C   0  0  0  0  0  0  0  0  0  0  0  0
   37.6620   29.0150   43.1560 C   0  0  0  0  0  0  0  0  0  0  0  0
   37.4800   29.2850   41.8400 N   0  0  0  0  0  0  0  0  0  0  0  0
   37.1150   28.3530   40.9420 C   0  0  0  0  0  0  0  0  0  0  0  0
   36.9090   27.0710   41.3320 N   0  0  0  0  0  0  0  0  0  0  0  0
   36.8890   25.6900   42.8630 H   0  0  0  0  0  0  0  0  0  0  0  0
   37.5730   27.3790   44.6040 H   0  0  0  0  0  0  0  0  0  0  0  0
   37.9560   29.7620   43.8780 H   0  0  0  0  0  0  0  0  0  0  0  0
  2  3  1  0  0  0  0
  2  1  1  0  0  0  0
  3 15  1  0  0  0  0
  4  5  1  0  0  0  0
  4  3  2  0  0  0  0
  6  4  1  0  0  0  0
  7  6  2  0  0  0  0
  7  9  1  0  0  0  0
  8  7  1  0  0  0  0
  9  2  2  0  0  0  0
 10  9  1  0  0  0  0
 11 17  1  0  0  0  0
 11 12  1  0  0  0  0
 12 18  1  0  0  0  0
 13 12  2  0  0  0  0
 13 19  1  0  0  0  0
 14 13  1  0  0  0  0
 15 16  1  0  0  0  0
 15 14  2  0  0  0  0
 16 11  2  0  0  0  0
M  END
>  <minimizedAffinity>
-3.90478897

$$$$

 OpenBabel03242510063D

 19 20  0  0  0  0  0  0  0  0999 V2000
   40.2140   29.4730   42.6350 Cl  0  0  0  0  0  0  0  0  0  0  0  0
   39.3450   28.0090   42.2900 C   0  0  0  0  0  0  0  0  0  0  0  0
   38.2450   28.0290   41.4790 C   0  0  0  0  0  0  0  0  0  0  0  0
   37.6290   26.8130   41.2700 C   0  0  0  0  0  0  0  0  0  0  0  0
   36.7480   26.8160   40.6230 H   0  0  0  0  0  0  0  0  0  0  0  0
   38.0360   25.6110   41.8090 C   0  0  0  0  0  3  0  0  0  0  0  0
   39.1510   25.6320   42.6220 C   0  0  0  0  0  0  0  0  0  0  0  0
   39.6340   24.0820   43.2850 Cl  0  0  0  0  0  0  0  0  0  0  0  0
   39.8060   26.8220   42.8640 C   0  0  0  0  0  0  0  0  0  0  0  0
   40.6640   26.7750   43.5030 H   0  0  0  0  0  0  0  0  0  0  0  0
   37.8410   30.7630   39.0850 C   0  0  0  0  0  0  0  0  0  0  0  0
   36.8510   31.5590   39.6750 C   0  0  0  0  0  0  0  0  0  0  0  0
   36.3140   31.1490   40.9160 C   0  0  0  0  0  0  0  0  0  0  0  0
   36.7970   30.0030   41.4570 N   0  0  0  0  0  0  0  0  0  0  0  0
   37.7480   29.2570   40.8690 C   0  0  0  0  0  0  0  0  0  0  0  0
   38.2750   29.6350   39.6770 N   0  0  0  0  0  0  0  0  0  0  0  0
   38.3090   31.0010   38.1340 H   0  0  0  0  0  0  0  0  0  0  0  0
   36.5290   32.4520   39.1730 H   0  0  0  0  0  0  0  0  0  0  0  0
   35.5490   31.7490   41.3860 H   0  0  0  0  0  0  0  0  0  0  0  0
  2  1  1  0  0  0  0
  2  9  1  0  0  0  0
  3  2  2  0  0  0  0
  4  3  1  0  0  0  0
  4  6  2  0  0  0  0
  5  4  1  0  0  0  0
  6  7  1  0  0  0  0
  7  9  2  0  0  0  0
  7  8  1  0  0  0  0
  9 10  1  0  0  0  0
 11 12  2  0  0  0  0
 11 16  1  0  0  0  0
 12 13  1  0  0  0  0
 13 19  1  0  0  0  0
 13 14  2  0  0  0  0
 15 14  1  0  0  0  0
 15  3  1  0  0  0  0
 16 15  2  0  0  0  0
 17 11  1  0  0  0  0
 18 12  1  0  0  0  0
M  END
>  <minimizedAffinity>
-3.88839698

$$$$

 OpenBabel03242510063D

 19 20  0  0  0  0  0  0  0  0999 V2000
   39.5030   28.0420   39.4800 Cl  0  0  0  0  0  0  0  0  0  0  0  0
   38.1420   29.0150   39.9440 C   0  0  0  0  0  0  0  0  0  0  0  0
   37.0280   28.4400   40.4880 C   0  0  0  0  0  0  0  0  0  0  0  0
   36.0050   29.3030   40.8220 C   0  0  0  0  0  0  0  0  0  0  0  0
   35.1090   28.8540   41.2580 H   0  0  0  0  0  0  0  0  0  0  0  0
   36.0290   30.6700   40.6480 C   0  0  0  0  0  3  0  0  0  0  0  0
   37.1710   31.2150   40.0970 C   0  0  0  0  0  0  0  0  0  0  0  0
   37.1590   32.9560   39.8950 Cl  0  0  0  0  0  0  0  0  0  0  0  0
   38.2250   30.3960   39.7450 C   0  0  0  0  0  0  0  0  0  0  0  0
   39.0830   30.8760   39.3210 H   0  0  0  0  0  0  0  0  0  0  0  0
   37.1330   25.1970   42.1750 C   0  0  0  0  0  0  0  0  0  0  0  0
   36.7380   24.3030   41.1710 C   0  0  0  0  0  0  0  0  0  0  0  0
   36.4320   24.8230   39.8940 C   0  0  0  0  0  0  0  0  0  0  0  0
   36.5400   26.1640   39.7240 N   0  0  0  0  0  0  0  0  0  0  0  0
   36.9210   27.0010   40.7050 C   0  0  0  0  0  0  0  0  0  0  0  0
   37.2190   26.5190   41.9380 N   0  0  0  0  0  0  0  0  0  0  0  0
   37.3870   24.8860   43.1840 H   0  0  0  0  0  0  0  0  0  0  0  0
   36.6800   23.2550   41.3970 H   0  0  0  0  0  0  0  0  0  0  0  0
   36.1250   24.1500   39.1070 H   0  0  0  0  0  0  0  0  0  0  0  0
  1  2  1  0  0  0  0
  2  3  1  0  0  0  0
  3 15  1  0  0  0  0
  3  4  2  0  0  0  0
  4  5  1  0  0  0  0
  6  4  1  0  0  0  0
  7  6  2  0  0  0  0
  8  7  1  0  0  0  0
  9  2  2  0  0  0  0
  9  7  1  0  0  0  0
 10  9  1  0  0  0  0
 11 17  1  0  0  0  0
 12 18  1  0  0  0  0
 12 11  2  0  0  0  0
 13 12  1  0  0  0  0
 14 13  2  0  0  0  0
 14 15  1  0  0  0  0
 15 16  2  0  0  0  0
 16 11  1  0  0  0  0
 19 13  1  0  0  0  0
M  END
>  <minimizedAffinity>
-3.88654804

$$$$

 OpenBabel03242510063D

 19 20  0  0  0  0  0  0  0  0999 V2000
   36.1460   26.2900   38.9730 Cl  0  0  0  0  0  0  0  0  0  0  0  0
   36.2490   27.7750   39.8680 C   0  0  0  0  0  0  0  0  0  0  0  0
   35.6870   28.9210   39.3810 C   0  0  0  0  0  0  0  0  0  0  0  0
   35.8250   30.0440   40.1700 C   0  0  0  0  0  0  0  0  0  0  0  0
   35.3790   30.9670   39.7900 H   0  0  0  0  0  0  0  0  0  0  0  0
   36.4770   30.0880   41.3840 C   0  0  0  0  0  3  0  0  0  0  0  0
   37.0320   28.9100   41.8430 C   0  0  0  0  0  0  0  0  0  0  0  0
   37.8490   29.0110   43.3910 Cl  0  0  0  0  0  0  0  0  0  0  0  0
   36.9210   27.7560   41.0930 C   0  0  0  0  0  0  0  0  0  0  0  0
   37.3720   26.8750   41.5010 H   0  0  0  0  0  0  0  0  0  0  0  0
   32.9410   28.9040   36.9660 C   0  0  0  0  0  0  0  0  0  0  0  0
   33.5990   29.0310   35.7350 C   0  0  0  0  0  0  0  0  0  0  0  0
   35.0090   29.1240   35.7360 C   0  0  0  0  0  0  0  0  0  0  0  0
   35.6360   29.0840   36.9380 N   0  0  0  0  0  0  0  0  0  0  0  0
   34.9800   28.9610   38.1050 C   0  0  0  0  0  0  0  0  0  0  0  0
   33.6270   28.8710   38.1230 N   0  0  0  0  0  0  0  0  0  0  0  0
   31.8620   28.8260   37.0590 H   0  0  0  0  0  0  0  0  0  0  0  0
   33.0190   29.0540   34.8310 H   0  0  0  0  0  0  0  0  0  0  0  0
   35.5340   29.2230   34.7970 H   0  0  0  0  0  0  0  0  0  0  0  0
  1  2  1  0  0  0  0
  2  9  1  0  0  0  0
  3  2  2  0  0  0  0
  3  4  1  0  0  0  0
  4  6  2  0  0  0  0
  5  4  1  0  0  0  0
  6  7  1  0  0  0  0
  7  8  1  0  0  0  0
  9 10  1  0  0  0  0
  9  7  2  0  0  0  0
 11 17  1  0  0  0  0
 11 16  1  0  0  0  0
 12 13  1  0  0  0  0
 12 11  2  0  0  0  0
 13 14  2  0  0  0  0
 14 15  1  0  0  0  0
 15 16  2  0  0  0  0
 15  3  1  0  0  0  0
 18 12  1  0  0  0  0
 19 13  1  0  0  0  0
M  END
>  <minimizedAffinity>
-3.85977125

$$$$
