
 OpenBabel03252508323D

 33 35  0  0  1  0  0  0  0  0999 V2000
   44.6330   33.4400   41.3190 N   0  0  0  0  0  0  0  0  0  0  0  0
   45.3380   32.2120   41.2590 C   0  0  1  0  0  0  0  0  0  0  0  0
   45.1170   31.4160   40.0240 C   0  0  0  0  0  0  0  0  0  0  0  0
   43.8570   31.4780   39.4330 N   0  0  0  0  0  0  0  0  0  0  0  0
   43.0460   32.5900   39.6760 C   0  0  0  0  0  0  0  0  0  0  0  0
   43.9050   33.7610   40.1280 C   0  0  0  0  0  0  0  0  0  0  0  0
   45.0390   31.5850   42.1310 H   0  0  0  0  0  0  0  0  0  0  0  0
   45.8820   31.7390   39.2570 H   0  0  0  0  0  0  0  0  0  0  0  0
   45.3930   30.3460   40.2260 H   0  0  0  0  0  0  0  0  0  0  0  0
   43.4010   30.6080   39.1590 H   0  0  0  0  0  0  0  0  0  0  0  0
   42.3630   32.3460   40.5380 H   0  0  0  0  0  0  0  0  0  0  0  0
   42.3880   32.9280   38.8700 H   0  0  0  0  0  0  0  0  0  0  0  0
   44.6370   34.0060   39.3040 H   0  0  0  0  0  0  0  0  0  0  0  0
   43.2270   34.6140   40.1830 H   0  0  0  0  0  0  0  0  0  0  0  0
   46.8300   33.6450   39.0420 Cl  0  0  0  0  0  0  0  0  0  0  0  0
   47.6660   33.0270   40.4530 C   0  0  0  0  0  0  0  0  0  0  0  0
   46.8290   32.3990   41.3680 C   0  0  0  0  0  0  0  0  0  0  0  0
   47.4250   31.8810   42.5190 C   0  0  0  0  0  0  0  0  0  0  0  0
   46.9340   31.3670   43.3280 H   0  0  0  0  0  0  0  0  0  0  0  0
   48.7870   31.9890   42.7380 C   0  0  0  0  0  3  0  0  0  0  0  0
   49.5990   32.6150   41.8160 C   0  0  0  0  0  0  0  0  0  0  0  0
   51.3300   32.8190   41.9680 Cl  0  0  0  0  0  0  0  0  0  0  0  0
   49.0020   33.1210   40.6860 C   0  0  0  0  0  0  0  0  0  0  0  0
   49.5120   33.6420   39.8700 H   0  0  0  0  0  0  0  0  0  0  0  0
   44.6330   35.5980   42.3500 C   0  0  0  0  0  0  0  0  0  0  0  0
   44.7220   34.2020   42.5190 C   0  0  0  0  0  0  0  0  0  0  0  0
   44.8820   33.7040   43.8010 C   0  0  0  0  0  0  0  0  0  0  0  0
   44.9480   34.5730   44.8360 N   0  0  0  0  0  0  0  0  0  0  0  0
   44.8610   35.9160   44.6560 C   0  0  0  0  0  0  0  0  0  0  0  0
   44.7050   36.4160   43.4150 N   0  0  0  0  0  0  0  0  0  0  0  0
   44.5090   36.1690   41.4430 H   0  0  0  0  0  0  0  0  0  0  0  0
   44.9430   32.6350   43.9020 H   0  0  0  0  0  0  0  0  0  0  0  0
   44.9310   36.4690   45.5860 H   0  0  0  0  0  0  0  0  0  0  0  0
  1 26  1  0  0  0  0
  2  1  1  0  0  0  0
  2 17  1  0  0  0  0
  2  7  1  1  0  0  0
  3  9  1  0  0  0  0
  3  2  1  0  0  0  0
  4  5  1  0  0  0  0
  4  3  1  0  0  0  0
  5  6  1  0  0  0  0
  5 11  1  0  0  0  0
  6 14  1  0  0  0  0
  6  1  1  0  0  0  0
  8  3  1  0  0  0  0
 10  4  1  0  0  0  0
 12  5  1  0  0  0  0
 13  6  1  0  0  0  0
 15 16  1  0  0  0  0
 16 23  2  0  0  0  0
 16 17  1  0  0  0  0
 17 18  2  0  0  0  0
 18 20  1  0  0  0  0
 18 19  1  0  0  0  0
 21 22  1  0  0  0  0
 21 20  2  0  0  0  0
 23 21  1  0  0  0  0
 24 23  1  0  0  0  0
 25 26  2  0  0  0  0
 25 30  1  0  0  0  0
 26 27  1  0  0  0  0
 27 32  1  0  0  0  0
 27 28  2  0  0  0  0
 29 28  1  0  0  0  0
 29 33  1  0  0  0  0
 30 29  2  0  0  0  0
 31 25  1  0  0  0  0
M  END
>  <minimizedAffinity>
-3.84238005

>  <minimizedRMSD>
2.40636969

$$$$
