REMARK  Name = 
REMARK  5 active torsions:
REMARK  status: ('A' for Active; 'I' for Inactive)
REMARK    1  A    between atoms: C_1  and  N_2
REMARK    2  A    between atoms: C_1  and  C_11
REMARK    3  A    between atoms: C_7  and  C_8
REMARK    4  A    between atoms: C_9  and  C_13
REMARK    5  A    between atoms: C_16  and  C_40
REMARK                            x       y       z     vdW  Elec       q    Type
REMARK                         _______ _______ _______ _____ _____    ______ ____
ROOT
ATOM      1  C   UNL     1      46.047  34.410  44.056  0.00  0.00    +0.000 C 
ATOM      2  C   UNL     1      45.127  34.547  45.100  0.00  0.00    +0.000 C 
ATOM      3  C   UNL     1      46.261  33.656  45.400  0.00  0.00    +0.000 C 
ATOM      4  H   UNL     1      46.794  35.224  43.846  0.00  0.00    +0.000 HD
ATOM      5  H   UNL     1      45.028  35.482  45.668  0.00  0.00    +0.000 HD
ATOM      6  H   UNL     1      44.132  34.021  45.026  0.00  0.00    +0.000 HD
ATOM      7  H   UNL     1      47.195  33.995  45.875  0.00  0.00    +0.000 HD
ENDROOT
BRANCH   1   9
ATOM      8  C   UNL     1      44.565  33.238  42.428  0.00  0.00    +0.000 A 
ATOM      9  C   UNL     1      45.898  33.557  42.838  0.00  0.00    +0.000 A 
ATOM     10  C   UNL     1      46.954  33.085  42.127  0.00  0.00    +0.000 A 
ATOM     11  N   UNL     1      46.675  32.311  41.031  0.00  0.00    +0.000 NA
ATOM     12  C   UNL     1      45.413  32.015  40.651  0.00  0.00    +0.000 A 
ATOM     13  N   UNL     1      44.313  32.472  41.342  0.00  0.00    +0.000 NA
ATOM     14  H   UNL     1      43.737  33.631  43.019  0.00  0.00    +0.000 HD
ATOM     15  H   UNL     1      47.966  33.318  42.425  0.00  0.00    +0.000 HD
BRANCH  12  18
ATOM     16 CL   UNL     1      45.897  33.390  38.007  0.00  0.00    +0.000 Cl
ATOM     17  C   UNL     1      45.423  31.706  38.202  0.00  0.00    +0.000 A 
ATOM     18  C   UNL     1      45.228  31.180  39.464  0.00  0.00    +0.000 A 
ATOM     19  C   UNL     1      44.860  29.875  39.665  0.00  0.00    +0.000 A 
ATOM     20  H   UNL     1      44.691  29.400  40.626  0.00  0.00    +0.000 HD
ATOM     21  C   UNL     1      44.675  29.051  38.558  0.00  0.00    +0.000 A 
ATOM     22  C   UNL     1      44.877  29.603  37.301  0.00  0.00    +0.000 A 
ATOM     23 CL   UNL     1      44.648  28.578  35.915  0.00  0.00    +0.000 Cl
ATOM     24  C   UNL     1      45.249  30.917  37.076  0.00  0.00    +0.000 A 
ATOM     25  H   UNL     1      45.399  31.320  36.098  0.00  0.00    +0.000 HD
ENDBRANCH  12  18
ENDBRANCH   1   9
BRANCH   3  26
ATOM     26  C   UNL     1      46.068  32.185  45.444  0.00  0.00    +0.000 C 
ATOM     27  H   UNL     1      45.189  31.909  44.804  0.00  0.00    +0.000 HD
ATOM     28  H   UNL     1      46.968  31.618  45.123  0.00  0.00    +0.000 HD
BRANCH  26  29
ATOM     29  N   UNL     1      45.795  31.837  46.793  0.00  0.00    +0.000 NA
ATOM     30  C   UNL     1      46.382  32.606  47.804  0.00  0.00    +0.000 C 
ATOM     31  C   UNL     1      47.748  32.024  48.227  0.00  0.00    +0.000 C 
ATOM     32  C   UNL     1      47.454  30.717  48.908  0.00  0.00    +0.000 C 
ATOM     33  C   UNL     1      46.797  29.840  47.866  0.00  0.00    +0.000 C 
ATOM     34  C   UNL     1      45.653  30.488  47.139  0.00  0.00    +0.000 C 
ATOM     35  H   UNL     1      45.749  32.425  48.728  0.00  0.00    +0.000 HD
ATOM     36  H   UNL     1      46.389  33.690  47.724  0.00  0.00    +0.000 HD
ATOM     37  H   UNL     1      48.207  32.703  48.974  0.00  0.00    +0.000 HD
ATOM     38  H   UNL     1      48.411  31.909  47.348  0.00  0.00    +0.000 HD
ATOM     39  H   UNL     1      46.713  30.928  49.709  0.00  0.00    +0.000 HD
ATOM     40  H   UNL     1      48.337  30.186  49.267  0.00  0.00    +0.000 HD
ATOM     41  H   UNL     1      46.417  28.902  48.342  0.00  0.00    +0.000 HD
ATOM     42  H   UNL     1      47.552  29.535  47.115  0.00  0.00    +0.000 HD
ATOM     43  H   UNL     1      44.761  30.383  47.793  0.00  0.00    +0.000 HD
BRANCH  34  44
ATOM     44  C   UNL     1      45.364  29.613  45.928  0.00  0.00    +0.000 C 
ATOM     45  H   UNL     1      45.145  28.597  46.266  0.00  0.00    +0.000 HD
ATOM     46  H   UNL     1      44.478  30.041  45.378  0.00  0.00    +0.000 HD
ATOM     47  H   UNL     1      46.254  29.568  45.258  0.00  0.00    +0.000 HD
ENDBRANCH  34  44
ENDBRANCH  26  29
ENDBRANCH   3  26
TORSDOF 5
