REMARK  Name = 
REMARK  3 active torsions:
REMARK  status: ('A' for Active; 'I' for Inactive)
REMARK    1  A    between atoms: CA_1  and  C_7
REMARK    2  A    between atoms: C_5  and  C_9
REMARK    3  A    between atoms: C_11  and  C_21
REMARK                            x       y       z     vdW  Elec       q    Type
REMARK                         _______ _______ _______ _____ _____    ______ ____
ROOT
ATOM      1  C   UNL     1      46.076  32.461  46.247  0.00  0.00    +0.000 C 
ATOM      2  C   UNL     1      46.982  32.638  47.423  0.00  0.00    +0.000 C 
ATOM      3  C   UNL     1      45.524  32.598  47.633  0.00  0.00    +0.000 C 
ATOM      4  H   UNL     1      46.004  31.485  45.762  0.00  0.00    +0.000 HD
ATOM      5  H   UNL     1      47.533  33.623  47.386  0.00  0.00    +0.000 HD
ATOM      6  H   UNL     1      47.679  31.808  47.558  0.00  0.00    +0.000 HD
ATOM      7  H   UNL     1      45.081  33.603  47.928  0.00  0.00    +0.000 HD
ENDROOT
BRANCH   3  10
ATOM      8 CL   UNL     1      45.046  29.834  46.259  0.00  0.00    +0.000 Cl
ATOM      9  C   UNL     1      44.592  30.188  47.911  0.00  0.00    +0.000 A 
ATOM     10  C   UNL     1      44.907  31.461  48.310  0.00  0.00    +0.000 A 
ATOM     11  C   UNL     1      44.578  31.800  49.630  0.00  0.00    +0.000 A 
ATOM     12  H   UNL     1      44.750  32.766  50.132  0.00  0.00    +0.000 HD
ATOM     13  C   UNL     1      43.961  30.884  50.491  0.00  0.00    +0.000 A 
ATOM     14  C   UNL     1      43.661  29.614  50.051  0.00  0.00    +0.000 A 
ATOM     15 CL   UNL     1      42.892  28.375  51.018  0.00  0.00    +0.000 Cl
ATOM     16  C   UNL     1      43.984  29.292  48.764  0.00  0.00    +0.000 A 
ATOM     17  H   UNL     1      43.812  28.326  48.265  0.00  0.00    +0.000 HD
ENDBRANCH   3  10
BRANCH   1  22
ATOM     18  CA  UNL     1      46.069  34.761  43.386  0.00  0.00    +0.000 A 
ATOM     19  C   UNL     1      45.171  35.780  43.791  0.00  0.00    +0.000 A 
ATOM     20  C   UNL     1      44.574  35.653  45.049  0.00  0.00    +0.000 A 
ATOM     21  N   UNL     1      44.888  34.570  45.802  0.00  0.00    +0.000 NA
ATOM     22  C   UNL     1      45.760  33.621  45.357  0.00  0.00    +0.000 A 
ATOM     23  N   UNL     1      46.358  33.690  44.168  0.00  0.00    +0.000 NA
ATOM     24  H   UNL     1      44.955  36.615  43.165  0.00  0.00    +0.000 HD
ATOM     25  H   UNL     1      43.894  36.404  45.380  0.00  0.00    +0.000 HD
BRANCH  18  26
ATOM     26  C   UNL     1      46.656  34.952  42.093  0.00  0.00    +0.000 C 
ATOM     27  O   UNL     1      47.824  35.405  41.884  0.00  0.00    +0.000 OA
ATOM     28  H   UNL     1      46.285  34.776  41.082  0.00  0.00    +0.000 HD
ENDBRANCH  18  26
ENDBRANCH   1  22
TORSDOF 3
