
 OpenBabel03252500383D

 47 50  0  0  1  0  0  0  0  0999 V2000
   36.9250   25.3230   41.9550 C   0  0  1  0  0  0  0  0  0  0  0  0
   36.9380   24.2360   41.0750 C   0  0  0  0  0  0  0  0  0  0  0  0
   38.1470   24.3620   41.9070 C   0  0  1  0  0  0  0  0  0  0  0  0
   36.3240   25.2780   42.9050 H   0  0  0  0  0  0  0  0  0  0  0  0
   36.2880   23.3630   41.2200 H   0  0  0  0  0  0  0  0  0  0  0  0
   37.1110   24.4240   39.9760 H   0  0  0  0  0  0  0  0  0  0  0  0
   38.2720   23.8650   42.8820 H   0  0  0  0  0  0  0  0  0  0  0  0
   37.0850   27.7040   42.6790 C   0  0  0  0  0  0  0  0  0  0  0  0
   37.1970   26.7530   41.6160 C   0  0  0  0  0  0  0  0  0  0  0  0
   37.5340   27.1700   40.3690 C   0  0  0  0  0  0  0  0  0  0  0  0
   37.7540   28.5120   40.1960 N   0  0  0  0  0  0  0  0  0  0  0  0
   37.6470   29.4030   41.2050 C   0  0  0  0  0  0  0  0  0  0  0  0
   37.3070   29.0240   42.4850 N   0  0  0  0  0  0  0  0  0  0  0  0
   36.8120   27.3390   43.6690 H   0  0  0  0  0  0  0  0  0  0  0  0
   37.6220   26.4630   39.5570 H   0  0  0  0  0  0  0  0  0  0  0  0
   40.2590   30.4950   42.2560 Cl  0  0  0  0  0  0  0  0  0  0  0  0
   39.0700   31.4160   41.3430 C   0  0  0  0  0  0  0  0  0  0  0  0
   37.9040   30.8130   40.9100 C   0  0  0  0  0  0  0  0  0  0  0  0
   36.9500   31.4900   40.1970 C   0  0  0  0  0  0  0  0  0  0  0  0
   36.0170   31.0770   39.8290 H   0  0  0  0  0  0  0  0  0  0  0  0
   37.1620   32.8330   39.8990 C   0  0  0  0  0  3  0  0  0  0  0  0
   38.3390   33.4160   40.3440 C   0  0  0  0  0  0  0  0  0  0  0  0
   38.6080   35.0940   39.9740 Cl  0  0  0  0  0  0  0  0  0  0  0  0
   39.3150   32.7510   41.0660 C   0  0  0  0  0  0  0  0  0  0  0  0
   40.2150   33.2220   41.3990 H   0  0  0  0  0  0  0  0  0  0  0  0
   39.4210   24.8390   41.3120 C   0  0  0  0  0  0  0  0  0  0  0  0
   39.7250   24.1440   40.4860 H   0  0  0  0  0  0  0  0  0  0  0  0
   39.3610   25.8810   40.9340 H   0  0  0  0  0  0  0  0  0  0  0  0
   40.4020   24.8060   42.3380 N   0  0  0  0  0  0  0  0  0  0  0  0
   39.9880   25.0440   43.6540 C   0  0  0  0  0  0  0  0  0  0  0  0
   40.0790   26.5450   44.0050 C   0  0  0  0  0  0  0  0  0  0  0  0
   41.5440   26.8810   44.0320 C   0  0  0  0  0  0  0  0  0  0  0  0
   42.0590   26.6250   42.6340 C   0  0  0  0  0  0  0  0  0  0  0  0
   41.6910   25.2820   42.0710 C   0  0  2  0  0  0  0  0  0  0  0  0
   40.7970   24.5960   44.3110 H   0  0  0  0  0  0  0  0  0  0  0  0
   39.0830   24.5750   44.0300 H   0  0  0  0  0  0  0  0  0  0  0  0
   39.6750   26.6950   45.0260 H   0  0  0  0  0  0  0  0  0  0  0  0
   39.5150   27.1510   43.2710 H   0  0  0  0  0  0  0  0  0  0  0  0
   42.0290   26.1590   44.7240 H   0  0  0  0  0  0  0  0  0  0  0  0
   41.7640   27.9220   44.2720 H   0  0  0  0  0  0  0  0  0  0  0  0
   43.1730   26.7140   42.6160 H   0  0  0  0  0  0  0  0  0  0  0  0
   41.6650   27.4030   41.9500 H   0  0  0  0  0  0  0  0  0  0  0  0
   42.4270   24.5550   42.4770 H   0  0  0  0  0  0  0  0  0  0  0  0
   41.9790   25.3480   40.5780 C   0  0  0  0  0  0  0  0  0  0  0  0
   43.0300   25.6090   40.4290 H   0  0  0  0  0  0  0  0  0  0  0  0
   41.7590   24.3400   40.1240 H   0  0  0  0  0  0  0  0  0  0  0  0
   41.3570   26.1380   40.0960 H   0  0  0  0  0  0  0  0  0  0  0  0
  1  4  1  1  0  0  0
  2  5  1  0  0  0  0
  2  3  1  0  0  0  0
  2  1  1  0  0  0  0
  3  1  1  0  0  0  0
  3  7  1  1  0  0  0
  6  2  1  0  0  0  0
  8 14  1  0  0  0  0
  9  1  1  0  0  0  0
  9  8  2  0  0  0  0
 10  9  1  0  0  0  0
 11 10  2  0  0  0  0
 11 12  1  0  0  0  0
 12 13  2  0  0  0  0
 13  8  1  0  0  0  0
 15 10  1  0  0  0  0
 17 16  1  0  0  0  0
 18 12  1  0  0  0  0
 18 17  2  0  0  0  0
 19 18  1  0  0  0  0
 20 19  1  0  0  0  0
 21 19  2  0  0  0  0
 21 22  1  0  0  0  0
 22 24  2  0  0  0  0
 23 22  1  0  0  0  0
 24 17  1  0  0  0  0
 24 25  1  0  0  0  0
 26  3  1  0  0  0  0
 26 29  1  0  0  0  0
 27 26  1  0  0  0  0
 28 26  1  0  0  0  0
 29 30  1  0  0  0  0
 30 31  1  0  0  0  0
 30 36  1  0  0  0  0
 30 35  1  0  0  0  0
 31 32  1  0  0  0  0
 31 37  1  0  0  0  0
 32 40  1  0  0  0  0
 32 39  1  0  0  0  0
 33 32  1  0  0  0  0
 34 29  1  0  0  0  0
 34 43  1  1  0  0  0
 34 33  1  0  0  0  0
 38 31  1  0  0  0  0
 41 33  1  0  0  0  0
 42 33  1  0  0  0  0
 44 34  1  0  0  0  0
 45 44  1  0  0  0  0
 46 44  1  0  0  0  0
 47 44  1  0  0  0  0
M  END
>  <minimizedAffinity>
-6.34223652

$$$$

 OpenBabel03252500383D

 47 50  0  0  1  0  0  0  0  0999 V2000
   35.5610   30.1800   40.2290 C   0  0  1  0  0  0  0  0  0  0  0  0
   34.9420   29.1250   39.5520 C   0  0  0  0  0  0  0  0  0  0  0  0
   35.5690   28.7450   40.8300 C   0  0  1  0  0  0  0  0  0  0  0  0
   34.9450   30.9280   40.8000 H   0  0  0  0  0  0  0  0  0  0  0  0
   33.8490   29.0540   39.4610 H   0  0  0  0  0  0  0  0  0  0  0  0
   35.4440   28.6880   38.6420 H   0  0  0  0  0  0  0  0  0  0  0  0
   35.0370   28.7390   41.7940 H   0  0  0  0  0  0  0  0  0  0  0  0
   37.6380   31.3050   41.0310 C   0  0  0  0  0  0  0  0  0  0  0  0
   36.8980   30.7760   39.9260 C   0  0  0  0  0  0  0  0  0  0  0  0
   37.4200   30.8340   38.6740 C   0  0  0  0  0  0  0  0  0  0  0  0
   38.6560   31.4090   38.5380 N   0  0  0  0  0  0  0  0  0  0  0  0
   39.3480   31.9060   39.5860 C   0  0  0  0  0  0  0  0  0  0  0  0
   38.8570   31.8690   40.8720 N   0  0  0  0  0  0  0  0  0  0  0  0
   37.1920   31.2440   42.0240 H   0  0  0  0  0  0  0  0  0  0  0  0
   36.8720   30.4380   37.8310 H   0  0  0  0  0  0  0  0  0  0  0  0
   39.5050   34.9040   39.9140 Cl  0  0  0  0  0  0  0  0  0  0  0  0
   40.8460   33.8640   39.4490 C   0  0  0  0  0  0  0  0  0  0  0  0
   40.6600   32.4990   39.3280 C   0  0  0  0  0  0  0  0  0  0  0  0
   41.6740   31.6510   38.9690 C   0  0  0  0  0  0  0  0  0  0  0  0
   41.5950   30.5750   38.8560 H   0  0  0  0  0  0  0  0  0  0  0  0
   42.9360   32.1820   38.7150 C   0  0  0  0  0  3  0  0  0  0  0  0
   43.0970   33.5530   38.8430 C   0  0  0  0  0  0  0  0  0  0  0  0
   44.6710   34.2210   38.5270 Cl  0  0  0  0  0  0  0  0  0  0  0  0
   42.0860   34.4280   39.2040 C   0  0  0  0  0  0  0  0  0  0  0  0
   42.2360   35.4820   39.2960 H   0  0  0  0  0  0  0  0  0  0  0  0
   36.8370   27.9720   40.8430 C   0  0  0  0  0  0  0  0  0  0  0  0
   36.7510   27.1120   40.1280 H   0  0  0  0  0  0  0  0  0  0  0  0
   37.7260   28.5900   40.5930 H   0  0  0  0  0  0  0  0  0  0  0  0
   37.0120   27.4740   42.1600 N   0  0  0  0  0  0  0  0  0  0  0  0
   37.5520   28.3320   43.1240 C   0  0  0  0  0  0  0  0  0  0  0  0
   39.0910   28.2130   43.1780 C   0  0  0  0  0  0  0  0  0  0  0  0
   39.3860   26.8440   43.7240 C   0  0  0  0  0  0  0  0  0  0  0  0
   38.8070   25.8630   42.7300 C   0  0  0  0  0  0  0  0  0  0  0  0
   37.3810   26.1360   42.3450 C   0  0  2  0  0  0  0  0  0  0  0  0
   37.2440   27.8970   44.1250 H   0  0  0  0  0  0  0  0  0  0  0  0
   37.2040   29.3600   43.1890 H   0  0  0  0  0  0  0  0  0  0  0  0
   39.4790   28.9600   43.8990 H   0  0  0  0  0  0  0  0  0  0  0  0
   39.5290   28.3770   42.1750 H   0  0  0  0  0  0  0  0  0  0  0  0
   38.8270   26.7490   44.6800 H   0  0  0  0  0  0  0  0  0  0  0  0
   40.4490   26.6160   43.8220 H   0  0  0  0  0  0  0  0  0  0  0  0
   38.8600   24.8250   43.1450 H   0  0  0  0  0  0  0  0  0  0  0  0
   39.4190   25.8710   41.8080 H   0  0  0  0  0  0  0  0  0  0  0  0
   36.7460   25.7020   43.1470 H   0  0  0  0  0  0  0  0  0  0  0  0
   37.1000   25.2890   41.1130 C   0  0  0  0  0  0  0  0  0  0  0  0
   37.2930   24.2390   41.3500 H   0  0  0  0  0  0  0  0  0  0  0  0
   36.0210   25.4300   40.8170 H   0  0  0  0  0  0  0  0  0  0  0  0
   37.7750   25.5820   40.2750 H   0  0  0  0  0  0  0  0  0  0  0  0
  1  4  1  1  0  0  0
  1  3  1  0  0  0  0
  2  1  1  0  0  0  0
  2  3  1  0  0  0  0
  3 26  1  0  0  0  0
  3  7  1  1  0  0  0
  5  2  1  0  0  0  0
  6  2  1  0  0  0  0
  8 14  1  0  0  0  0
  9  1  1  0  0  0  0
  9  8  2  0  0  0  0
 10  9  1  0  0  0  0
 11 10  2  0  0  0  0
 11 12  1  0  0  0  0
 12 13  2  0  0  0  0
 13  8  1  0  0  0  0
 15 10  1  0  0  0  0
 17 16  1  0  0  0  0
 18 17  1  0  0  0  0
 18 12  1  0  0  0  0
 19 18  2  0  0  0  0
 20 19  1  0  0  0  0
 21 22  2  0  0  0  0
 21 19  1  0  0  0  0
 22 24  1  0  0  0  0
 23 22  1  0  0  0  0
 24 25  1  0  0  0  0
 24 17  2  0  0  0  0
 26 29  1  0  0  0  0
 27 26  1  0  0  0  0
 28 26  1  0  0  0  0
 29 34  1  0  0  0  0
 29 30  1  0  0  0  0
 30 31  1  0  0  0  0
 30 36  1  0  0  0  0
 30 35  1  0  0  0  0
 31 32  1  0  0  0  0
 31 37  1  0  0  0  0
 32 40  1  0  0  0  0
 32 39  1  0  0  0  0
 33 41  1  0  0  0  0
 33 32  1  0  0  0  0
 34 33  1  0  0  0  0
 34 43  1  1  0  0  0
 38 31  1  0  0  0  0
 42 33  1  0  0  0  0
 44 45  1  0  0  0  0
 44 34  1  0  0  0  0
 46 44  1  0  0  0  0
 47 44  1  0  0  0  0
M  END
>  <minimizedAffinity>
-6.03176785

$$$$

 OpenBabel03252500383D

 47 50  0  0  1  0  0  0  0  0999 V2000
   36.0530   30.0890   40.4030 C   0  0  1  0  0  0  0  0  0  0  0  0
   34.9440   29.3120   40.0530 C   0  0  0  0  0  0  0  0  0  0  0  0
   35.7430   28.7670   41.1640 C   0  0  1  0  0  0  0  0  0  0  0  0
   35.9220   31.0260   41.0110 H   0  0  0  0  0  0  0  0  0  0  0  0
   33.9160   29.6420   40.2570 H   0  0  0  0  0  0  0  0  0  0  0  0
   34.9830   28.6960   39.1090 H   0  0  0  0  0  0  0  0  0  0  0  0
   35.5420   28.9840   42.2250 H   0  0  0  0  0  0  0  0  0  0  0  0
   37.3380   30.0170   38.2670 C   0  0  0  0  0  0  0  0  0  0  0  0
   37.3660   30.1470   39.6910 C   0  0  0  0  0  0  0  0  0  0  0  0
   38.5520   30.3130   40.3310 C   0  0  0  0  0  0  0  0  0  0  0  0
   39.6810   30.3470   39.5560 N   0  0  0  0  0  0  0  0  0  0  0  0
   39.6460   30.2230   38.2110 C   0  0  0  0  0  0  0  0  0  0  0  0
   38.4660   30.0540   37.5210 N   0  0  0  0  0  0  0  0  0  0  0  0
   36.3700   29.8850   37.7810 H   0  0  0  0  0  0  0  0  0  0  0  0
   38.5880   30.4120   41.4060 H   0  0  0  0  0  0  0  0  0  0  0  0
   40.9180   32.9540   38.0030 Cl  0  0  0  0  0  0  0  0  0  0  0  0
   41.5810   31.4730   37.3240 C   0  0  0  0  0  0  0  0  0  0  0  0
   40.9120   30.2740   37.4800 C   0  0  0  0  0  0  0  0  0  0  0  0
   41.3900   29.0960   36.9690 C   0  0  0  0  0  0  0  0  0  0  0  0
   40.9150   28.1240   37.0550 H   0  0  0  0  0  0  0  0  0  0  0  0
   42.5920   29.1070   36.2670 C   0  0  0  0  0  3  0  0  0  0  0  0
   43.2460   30.3220   36.1240 C   0  0  0  0  0  0  0  0  0  0  0  0
   44.7480   30.3420   35.2480 Cl  0  0  0  0  0  0  0  0  0  0  0  0
   42.7800   31.5230   36.6320 C   0  0  0  0  0  0  0  0  0  0  0  0
   43.3020   32.4480   36.5080 H   0  0  0  0  0  0  0  0  0  0  0  0
   36.6170   27.5860   40.9500 C   0  0  0  0  0  0  0  0  0  0  0  0
   36.0640   26.8230   40.3420 H   0  0  0  0  0  0  0  0  0  0  0  0
   37.5810   27.8410   40.4600 H   0  0  0  0  0  0  0  0  0  0  0  0
   36.9120   27.0450   42.2290 N   0  0  0  0  0  0  0  0  0  0  0  0
   37.3480   27.9190   43.2310 C   0  0  0  0  0  0  0  0  0  0  0  0
   38.8870   28.0360   43.2390 C   0  0  0  0  0  0  0  0  0  0  0  0
   39.4070   26.7000   43.6900 C   0  0  0  0  0  0  0  0  0  0  0  0
   38.9500   25.7000   42.6510 C   0  0  0  0  0  0  0  0  0  0  0  0
   37.4870   25.7720   42.3200 C   0  0  2  0  0  0  0  0  0  0  0  0
   37.1440   27.3830   44.2100 H   0  0  0  0  0  0  0  0  0  0  0  0
   36.8490   28.8740   43.3700 H   0  0  0  0  0  0  0  0  0  0  0  0
   39.1820   28.7900   43.9960 H   0  0  0  0  0  0  0  0  0  0  0  0
   39.2610   28.3240   42.2380 H   0  0  0  0  0  0  0  0  0  0  0  0
   38.9020   26.4630   44.6520 H   0  0  0  0  0  0  0  0  0  0  0  0
   40.4940   26.6330   43.7460 H   0  0  0  0  0  0  0  0  0  0  0  0
   39.1760   24.6610   42.9980 H   0  0  0  0  0  0  0  0  0  0  0  0
   39.5220   25.8570   41.7160 H   0  0  0  0  0  0  0  0  0  0  0  0
   36.9540   25.1980   43.1080 H   0  0  0  0  0  0  0  0  0  0  0  0
   37.2970   24.9640   41.0440 C   0  0  0  0  0  0  0  0  0  0  0  0
   37.6560   23.9460   41.2090 H   0  0  0  0  0  0  0  0  0  0  0  0
   36.2000   24.9540   40.7840 H   0  0  0  0  0  0  0  0  0  0  0  0
   37.8900   25.4070   40.2100 H   0  0  0  0  0  0  0  0  0  0  0  0
  1  4  1  1  0  0  0
  1  3  1  0  0  0  0
  2  5  1  0  0  0  0
  2  1  1  0  0  0  0
  2  3  1  0  0  0  0
  3  7  1  1  0  0  0
  6  2  1  0  0  0  0
  8  9  1  0  0  0  0
  9 10  2  0  0  0  0
  9  1  1  0  0  0  0
 10 15  1  0  0  0  0
 11 10  1  0  0  0  0
 12 11  2  0  0  0  0
 13 12  1  0  0  0  0
 13  8  2  0  0  0  0
 14  8  1  0  0  0  0
 17 18  1  0  0  0  0
 17 16  1  0  0  0  0
 18 12  1  0  0  0  0
 19 20  1  0  0  0  0
 19 18  2  0  0  0  0
 21 19  1  0  0  0  0
 22 21  2  0  0  0  0
 22 24  1  0  0  0  0
 23 22  1  0  0  0  0
 24 17  2  0  0  0  0
 25 24  1  0  0  0  0
 26  3  1  0  0  0  0
 26 29  1  0  0  0  0
 27 26  1  0  0  0  0
 28 26  1  0  0  0  0
 29 34  1  0  0  0  0
 29 30  1  0  0  0  0
 30 31  1  0  0  0  0
 30 36  1  0  0  0  0
 30 35  1  0  0  0  0
 31 32  1  0  0  0  0
 31 37  1  0  0  0  0
 32 40  1  0  0  0  0
 32 39  1  0  0  0  0
 33 41  1  0  0  0  0
 33 32  1  0  0  0  0
 34 33  1  0  0  0  0
 34 43  1  1  0  0  0
 38 31  1  0  0  0  0
 42 33  1  0  0  0  0
 44 45  1  0  0  0  0
 44 34  1  0  0  0  0
 46 44  1  0  0  0  0
 47 44  1  0  0  0  0
M  END
>  <minimizedAffinity>
-5.97812366

$$$$

 OpenBabel03252500383D

 47 50  0  0  1  0  0  0  0  0999 V2000
   35.8670   29.9130   39.0710 C   0  0  1  0  0  0  0  0  0  0  0  0
   35.7160   28.9200   38.0980 C   0  0  0  0  0  0  0  0  0  0  0  0
   35.8520   28.4100   39.4730 C   0  0  1  0  0  0  0  0  0  0  0  0
   34.9770   30.5050   39.4230 H   0  0  0  0  0  0  0  0  0  0  0  0
   34.7650   28.7640   37.5710 H   0  0  0  0  0  0  0  0  0  0  0  0
   36.5870   28.6760   37.4240 H   0  0  0  0  0  0  0  0  0  0  0  0
   34.9980   28.2070   40.1370 H   0  0  0  0  0  0  0  0  0  0  0  0
   37.1820   31.2970   40.6760 C   0  0  0  0  0  0  0  0  0  0  0  0
   37.1150   30.6690   39.3920 C   0  0  0  0  0  0  0  0  0  0  0  0
   38.1590   30.7800   38.5320 C   0  0  0  0  0  0  0  0  0  0  0  0
   39.2430   31.5050   38.9520 N   0  0  0  0  0  0  0  0  0  0  0  0
   39.2980   32.0950   40.1660 C   0  0  0  0  0  0  0  0  0  0  0  0
   38.2630   32.0080   41.0700 N   0  0  0  0  0  0  0  0  0  0  0  0
   36.3280   31.1910   41.3450 H   0  0  0  0  0  0  0  0  0  0  0  0
   38.1230   30.3100   37.5590 H   0  0  0  0  0  0  0  0  0  0  0  0
   39.0680   35.0970   39.9430 Cl  0  0  0  0  0  0  0  0  0  0  0  0
   40.5110   34.2260   40.4490 C   0  0  0  0  0  0  0  0  0  0  0  0
   40.5040   32.8460   40.5150 C   0  0  0  0  0  0  0  0  0  0  0  0
   41.6030   32.1260   40.9030 C   0  0  0  0  0  0  0  0  0  0  0  0
   41.6630   31.0440   40.9760 H   0  0  0  0  0  0  0  0  0  0  0  0
   42.7680   32.8080   41.2420 C   0  0  0  0  0  3  0  0  0  0  0  0
   42.7500   34.1930   41.1670 C   0  0  0  0  0  0  0  0  0  0  0  0
   44.2030   35.0500   41.5890 Cl  0  0  0  0  0  0  0  0  0  0  0  0
   41.6510   34.9400   40.7780 C   0  0  0  0  0  0  0  0  0  0  0  0
   41.6630   36.0070   40.7280 H   0  0  0  0  0  0  0  0  0  0  0  0
   37.1150   27.7650   39.9110 C   0  0  0  0  0  0  0  0  0  0  0  0
   37.3850   26.9510   39.1870 H   0  0  0  0  0  0  0  0  0  0  0  0
   37.9580   28.4820   40.0120 H   0  0  0  0  0  0  0  0  0  0  0  0
   36.8750   27.1960   41.1900 N   0  0  0  0  0  0  0  0  0  0  0  0
   36.5520   28.0580   42.2440 C   0  0  0  0  0  0  0  0  0  0  0  0
   37.8190   28.5160   42.9990 C   0  0  0  0  0  0  0  0  0  0  0  0
   38.3560   27.2980   43.6950 C   0  0  0  0  0  0  0  0  0  0  0  0
   38.7100   26.3130   42.6030 C   0  0  0  0  0  0  0  0  0  0  0  0
   37.6190   26.0820   41.5960 C   0  0  2  0  0  0  0  0  0  0  0  0
   36.0360   27.4080   43.0180 H   0  0  0  0  0  0  0  0  0  0  0  0
   35.8380   28.8610   42.0860 H   0  0  0  0  0  0  0  0  0  0  0  0
   37.5230   29.2510   43.7750 H   0  0  0  0  0  0  0  0  0  0  0  0
   38.5480   28.9660   42.2980 H   0  0  0  0  0  0  0  0  0  0  0  0
   37.5230   26.8730   44.2960 H   0  0  0  0  0  0  0  0  0  0  0  0
   39.2620   27.4730   44.2780 H   0  0  0  0  0  0  0  0  0  0  0  0
   38.9800   25.3260   43.0530 H   0  0  0  0  0  0  0  0  0  0  0  0
   39.6060   26.6740   42.0610 H   0  0  0  0  0  0  0  0  0  0  0  0
   36.9250   25.3390   42.0450 H   0  0  0  0  0  0  0  0  0  0  0  0
   38.2660   25.3640   40.4210 C   0  0  0  0  0  0  0  0  0  0  0  0
   38.7310   24.4420   40.7780 H   0  0  0  0  0  0  0  0  0  0  0  0
   37.4680   25.1300   39.6590 H   0  0  0  0  0  0  0  0  0  0  0  0
   39.0630   25.9980   39.9680 H   0  0  0  0  0  0  0  0  0  0  0  0
  1  9  1  0  0  0  0
  1  4  1  1  0  0  0
  1  3  1  0  0  0  0
  2  1  1  0  0  0  0
  2  3  1  0  0  0  0
  3 26  1  0  0  0  0
  3  7  1  1  0  0  0
  5  2  1  0  0  0  0
  6  2  1  0  0  0  0
  8 13  1  0  0  0  0
  8 14  1  0  0  0  0
  9  8  2  0  0  0  0
 10 11  2  0  0  0  0
 10  9  1  0  0  0  0
 11 12  1  0  0  0  0
 12 18  1  0  0  0  0
 12 13  2  0  0  0  0
 15 10  1  0  0  0  0
 16 17  1  0  0  0  0
 17 18  2  0  0  0  0
 17 24  1  0  0  0  0
 18 19  1  0  0  0  0
 19 20  1  0  0  0  0
 19 21  2  0  0  0  0
 22 21  1  0  0  0  0
 22 23  1  0  0  0  0
 24 22  2  0  0  0  0
 25 24  1  0  0  0  0
 26 28  1  0  0  0  0
 26 29  1  0  0  0  0
 27 26  1  0  0  0  0
 29 34  1  0  0  0  0
 29 30  1  0  0  0  0
 30 31  1  0  0  0  0
 30 35  1  0  0  0  0
 31 32  1  0  0  0  0
 31 37  1  0  0  0  0
 32 40  1  0  0  0  0
 32 39  1  0  0  0  0
 33 41  1  0  0  0  0
 33 32  1  0  0  0  0
 34 43  1  1  0  0  0
 34 33  1  0  0  0  0
 36 30  1  0  0  0  0
 38 31  1  0  0  0  0
 42 33  1  0  0  0  0
 44 45  1  0  0  0  0
 44 34  1  0  0  0  0
 46 44  1  0  0  0  0
 47 44  1  0  0  0  0
M  END
>  <minimizedAffinity>
-5.82182932

$$$$

 OpenBabel03252500383D

 47 50  0  0  1  0  0  0  0  0999 V2000
   35.7590   30.2140   40.2610 C   0  0  1  0  0  0  0  0  0  0  0  0
   34.9270   29.2130   39.7490 C   0  0  0  0  0  0  0  0  0  0  0  0
   35.6430   28.8400   40.9810 C   0  0  1  0  0  0  0  0  0  0  0  0
   35.3220   31.0830   40.8250 H   0  0  0  0  0  0  0  0  0  0  0  0
   33.8320   29.2960   39.7810 H   0  0  0  0  0  0  0  0  0  0  0  0
   35.2550   28.6430   38.8330 H   0  0  0  0  0  0  0  0  0  0  0  0
   35.2310   28.9810   41.9930 H   0  0  0  0  0  0  0  0  0  0  0  0
   37.9480   31.3430   40.6540 C   0  0  0  0  0  0  0  0  0  0  0  0
   37.1200   30.5860   39.7670 C   0  0  0  0  0  0  0  0  0  0  0  0
   37.5850   30.2420   38.5380 C   0  0  0  0  0  0  0  0  0  0  0  0
   38.8510   30.6500   38.2110 N   0  0  0  0  0  0  0  0  0  0  0  0
   39.6260   31.3650   39.0560 C   0  0  0  0  0  0  0  0  0  0  0  0
   39.1960   31.7350   40.3100 N   0  0  0  0  0  0  0  0  0  0  0  0
   37.5470   31.6050   41.6340 H   0  0  0  0  0  0  0  0  0  0  0  0
   36.9700   29.6700   37.8580 H   0  0  0  0  0  0  0  0  0  0  0  0
   41.8730   29.5690   39.9760 Cl  0  0  0  0  0  0  0  0  0  0  0  0
   42.0660   30.9980   38.9680 C   0  0  0  0  0  0  0  0  0  0  0  0
   40.9640   31.7490   38.6060 C   0  0  0  0  0  0  0  0  0  0  0  0
   41.0660   32.8680   37.8220 C   0  0  0  0  0  0  0  0  0  0  0  0
   40.2440   33.5010   37.5030 H   0  0  0  0  0  0  0  0  0  0  0  0
   42.3250   33.2640   37.3760 C   0  0  0  0  0  3  0  0  0  0  0  0
   43.4150   32.4930   37.7520 C   0  0  0  0  0  0  0  0  0  0  0  0
   44.9890   32.9820   37.1980 Cl  0  0  0  0  0  0  0  0  0  0  0  0
   43.3340   31.3590   38.5430 C   0  0  0  0  0  0  0  0  0  0  0  0
   44.1890   30.7820   38.8210 H   0  0  0  0  0  0  0  0  0  0  0  0
   36.7860   27.8940   40.9280 C   0  0  0  0  0  0  0  0  0  0  0  0
   36.4820   26.9800   40.3530 H   0  0  0  0  0  0  0  0  0  0  0  0
   37.7000   28.3410   40.4810 H   0  0  0  0  0  0  0  0  0  0  0  0
   37.0920   27.5280   42.2650 N   0  0  0  0  0  0  0  0  0  0  0  0
   37.7020   28.4830   43.0870 C   0  0  0  0  0  0  0  0  0  0  0  0
   39.2410   28.3850   43.0070 C   0  0  0  0  0  0  0  0  0  0  0  0
   39.6120   27.0790   43.6520 C   0  0  0  0  0  0  0  0  0  0  0  0
   38.9630   25.9990   42.8170 C   0  0  0  0  0  0  0  0  0  0  0  0
   37.5020   26.2190   42.5420 C   0  0  2  0  0  0  0  0  0  0  0  0
   37.4960   28.1430   44.1490 H   0  0  0  0  0  0  0  0  0  0  0  0
   37.3420   29.5080   43.0850 H   0  0  0  0  0  0  0  0  0  0  0  0
   39.6800   29.2030   43.6140 H   0  0  0  0  0  0  0  0  0  0  0  0
   39.5820   28.4550   41.9570 H   0  0  0  0  0  0  0  0  0  0  0  0
   39.1460   27.0720   44.6610 H   0  0  0  0  0  0  0  0  0  0  0  0
   40.6830   26.8730   43.6710 H   0  0  0  0  0  0  0  0  0  0  0  0
   39.0740   25.0080   43.3220 H   0  0  0  0  0  0  0  0  0  0  0  0
   39.4870   25.9240   41.8440 H   0  0  0  0  0  0  0  0  0  0  0  0
   36.9530   25.8590   43.4380 H   0  0  0  0  0  0  0  0  0  0  0  0
   37.1250   25.2530   41.4290 C   0  0  0  0  0  0  0  0  0  0  0  0
   37.3600   24.2330   41.7460 H   0  0  0  0  0  0  0  0  0  0  0  0
   36.0210   25.3530   41.2230 H   0  0  0  0  0  0  0  0  0  0  0  0
   37.7140   25.4700   40.5080 H   0  0  0  0  0  0  0  0  0  0  0  0
  1  4  1  1  0  0  0
  1  3  1  0  0  0  0
  2  5  1  0  0  0  0
  2  1  1  0  0  0  0
  2  3  1  0  0  0  0
  3  7  1  1  0  0  0
  6  2  1  0  0  0  0
  8 14  1  0  0  0  0
  9  1  1  0  0  0  0
  9  8  2  0  0  0  0
 10  9  1  0  0  0  0
 11 10  2  0  0  0  0
 11 12  1  0  0  0  0
 12 13  2  0  0  0  0
 13  8  1  0  0  0  0
 15 10  1  0  0  0  0
 17 16  1  0  0  0  0
 18 17  1  0  0  0  0
 18 12  1  0  0  0  0
 19 18  2  0  0  0  0
 20 19  1  0  0  0  0
 21 22  2  0  0  0  0
 21 19  1  0  0  0  0
 22 24  1  0  0  0  0
 23 22  1  0  0  0  0
 24 25  1  0  0  0  0
 24 17  2  0  0  0  0
 26  3  1  0  0  0  0
 26 29  1  0  0  0  0
 27 26  1  0  0  0  0
 28 26  1  0  0  0  0
 29 34  1  0  0  0  0
 29 30  1  0  0  0  0
 30 35  1  0  0  0  0
 31 30  1  0  0  0  0
 31 37  1  0  0  0  0
 31 32  1  0  0  0  0
 32 40  1  0  0  0  0
 32 39  1  0  0  0  0
 33 41  1  0  0  0  0
 33 32  1  0  0  0  0
 34 33  1  0  0  0  0
 34 43  1  1  0  0  0
 36 30  1  0  0  0  0
 38 31  1  0  0  0  0
 42 33  1  0  0  0  0
 44 45  1  0  0  0  0
 44 34  1  0  0  0  0
 46 44  1  0  0  0  0
 47 44  1  0  0  0  0
M  END
>  <minimizedAffinity>
-5.75503874

$$$$

 OpenBabel03252500383D

 47 50  0  0  1  0  0  0  0  0999 V2000
   35.9060   29.9310   38.9730 C   0  0  1  0  0  0  0  0  0  0  0  0
   35.7600   28.9280   38.0100 C   0  0  0  0  0  0  0  0  0  0  0  0
   35.8240   28.4370   39.3970 C   0  0  1  0  0  0  0  0  0  0  0  0
   35.0250   30.5590   39.2780 H   0  0  0  0  0  0  0  0  0  0  0  0
   34.8250   28.7940   37.4480 H   0  0  0  0  0  0  0  0  0  0  0  0
   36.6480   28.6430   37.3760 H   0  0  0  0  0  0  0  0  0  0  0  0
   34.9380   28.2750   40.0300 H   0  0  0  0  0  0  0  0  0  0  0  0
   37.1500   31.4300   40.5300 C   0  0  0  0  0  0  0  0  0  0  0  0
   37.1660   30.6500   39.3310 C   0  0  0  0  0  0  0  0  0  0  0  0
   38.2950   30.5930   38.5790 C   0  0  0  0  0  0  0  0  0  0  0  0
   39.3800   31.3030   39.0220 N   0  0  0  0  0  0  0  0  0  0  0  0
   39.3550   32.0370   40.1560 C   0  0  0  0  0  0  0  0  0  0  0  0
   38.2330   32.1240   40.9490 N   0  0  0  0  0  0  0  0  0  0  0  0
   36.2290   31.4580   41.1130 H   0  0  0  0  0  0  0  0  0  0  0  0
   38.3220   30.0080   37.6710 H   0  0  0  0  0  0  0  0  0  0  0  0
   41.2420   30.5310   41.9700 Cl  0  0  0  0  0  0  0  0  0  0  0  0
   41.5040   32.1620   41.3650 C   0  0  0  0  0  0  0  0  0  0  0  0
   40.5700   32.7570   40.5380 C   0  0  0  0  0  0  0  0  0  0  0  0
   40.7320   34.0240   40.0420 C   0  0  0  0  0  0  0  0  0  0  0  0
   40.0400   34.5470   39.3910 H   0  0  0  0  0  0  0  0  0  0  0  0
   41.8770   34.7390   40.3860 C   0  0  0  0  0  3  0  0  0  0  0  0
   42.7990   34.1210   41.2170 C   0  0  0  0  0  0  0  0  0  0  0  0
   44.2300   35.0080   41.6490 Cl  0  0  0  0  0  0  0  0  0  0  0  0
   42.6550   32.8420   41.7280 C   0  0  0  0  0  0  0  0  0  0  0  0
   43.3800   32.3870   42.3680 H   0  0  0  0  0  0  0  0  0  0  0  0
   37.0460   27.7570   39.8960 C   0  0  0  0  0  0  0  0  0  0  0  0
   37.2660   26.8700   39.2460 H   0  0  0  0  0  0  0  0  0  0  0  0
   37.9310   28.4280   39.9390 H   0  0  0  0  0  0  0  0  0  0  0  0
   36.7720   27.3160   41.2170 N   0  0  0  0  0  0  0  0  0  0  0  0
   36.5980   28.2840   42.2130 C   0  0  0  0  0  0  0  0  0  0  0  0
   37.9360   28.6210   42.9050 C   0  0  0  0  0  0  0  0  0  0  0  0
   38.3290   27.3930   43.6770 C   0  0  0  0  0  0  0  0  0  0  0  0
   38.5160   26.2960   42.6530 C   0  0  0  0  0  0  0  0  0  0  0  0
   37.3740   26.1440   41.6890 C   0  0  2  0  0  0  0  0  0  0  0  0
   36.0230   27.7650   43.0420 H   0  0  0  0  0  0  0  0  0  0  0  0
   35.9910   29.1640   42.0120 H   0  0  0  0  0  0  0  0  0  0  0  0
   37.7630   29.4400   43.6320 H   0  0  0  0  0  0  0  0  0  0  0  0
   38.6970   28.9190   42.1580 H   0  0  0  0  0  0  0  0  0  0  0  0
   37.4650   27.1260   44.3250 H   0  0  0  0  0  0  0  0  0  0  0  0
   39.2670   27.4850   44.2270 H   0  0  0  0  0  0  0  0  0  0  0  0
   38.6670   25.3150   43.1680 H   0  0  0  0  0  0  0  0  0  0  0  0
   39.4350   26.4950   42.0670 H   0  0  0  0  0  0  0  0  0  0  0  0
   36.6020   25.5330   42.2040 H   0  0  0  0  0  0  0  0  0  0  0  0
   37.8840   25.2660   40.5550 C   0  0  0  0  0  0  0  0  0  0  0  0
   38.2340   24.3170   40.9690 H   0  0  0  0  0  0  0  0  0  0  0  0
   37.0400   25.0880   39.8300 H   0  0  0  0  0  0  0  0  0  0  0  0
   38.7440   25.7540   40.0410 H   0  0  0  0  0  0  0  0  0  0  0  0
  1  4  1  1  0  0  0
  1  9  1  0  0  0  0
  1  3  1  0  0  0  0
  2  1  1  0  0  0  0
  2  3  1  0  0  0  0
  3 26  1  0  0  0  0
  3  7  1  1  0  0  0
  5  2  1  0  0  0  0
  6  2  1  0  0  0  0
  8 13  1  0  0  0  0
  8 14  1  0  0  0  0
  9  8  2  0  0  0  0
 10 11  2  0  0  0  0
 10  9  1  0  0  0  0
 11 12  1  0  0  0  0
 12 18  1  0  0  0  0
 12 13  2  0  0  0  0
 15 10  1  0  0  0  0
 17 24  1  0  0  0  0
 17 16  1  0  0  0  0
 18 17  2  0  0  0  0
 19 21  2  0  0  0  0
 19 18  1  0  0  0  0
 20 19  1  0  0  0  0
 21 22  1  0  0  0  0
 22 23  1  0  0  0  0
 22 24  2  0  0  0  0
 24 25  1  0  0  0  0
 26 28  1  0  0  0  0
 26 29  1  0  0  0  0
 27 26  1  0  0  0  0
 29 34  1  0  0  0  0
 29 30  1  0  0  0  0
 30 31  1  0  0  0  0
 30 35  1  0  0  0  0
 31 37  1  0  0  0  0
 31 32  1  0  0  0  0
 32 40  1  0  0  0  0
 32 39  1  0  0  0  0
 33 41  1  0  0  0  0
 33 32  1  0  0  0  0
 34 43  1  1  0  0  0
 34 33  1  0  0  0  0
 36 30  1  0  0  0  0
 38 31  1  0  0  0  0
 42 33  1  0  0  0  0
 44 45  1  0  0  0  0
 44 34  1  0  0  0  0
 46 44  1  0  0  0  0
 47 44  1  0  0  0  0
M  END
>  <minimizedAffinity>
-5.6638298

$$$$

 OpenBabel03252500383D

 47 50  0  0  1  0  0  0  0  0999 V2000
   40.0940   30.9250   42.5500 C   0  0  1  0  0  0  0  0  0  0  0  0
   41.4660   31.1930   42.5380 C   0  0  0  0  0  0  0  0  0  0  0  0
   40.7080   31.8490   41.4590 C   0  0  1  0  0  0  0  0  0  0  0  0
   39.4190   31.4440   43.2840 H   0  0  0  0  0  0  0  0  0  0  0  0
   41.9410   31.8210   43.3040 H   0  0  0  0  0  0  0  0  0  0  0  0
   42.1780   30.3930   42.1840 H   0  0  0  0  0  0  0  0  0  0  0  0
   40.2800   32.8610   41.5410 H   0  0  0  0  0  0  0  0  0  0  0  0
   38.0020   29.7430   41.8800 C   0  0  0  0  0  0  0  0  0  0  0  0
   39.4200   29.6840   42.0590 C   0  0  0  0  0  0  0  0  0  0  0  0
   40.0880   28.5340   41.7870 C   0  0  0  0  0  0  0  0  0  0  0  0
   39.3460   27.4690   41.3460 N   0  0  0  0  0  0  0  0  0  0  0  0
   38.0080   27.5340   41.1790 C   0  0  0  0  0  0  0  0  0  0  0  0
   37.2900   28.6790   41.4430 N   0  0  0  0  0  0  0  0  0  0  0  0
   37.4930   30.6810   42.1070 H   0  0  0  0  0  0  0  0  0  0  0  0
   41.1590   28.4750   41.9180 H   0  0  0  0  0  0  0  0  0  0  0  0
   37.0320   27.6490   38.3240 Cl  0  0  0  0  0  0  0  0  0  0  0  0
   36.8250   26.2810   39.4100 C   0  0  0  0  0  0  0  0  0  0  0  0
   37.3130   26.3370   40.7020 C   0  0  0  0  0  0  0  0  0  0  0  0
   37.1760   25.2970   41.5830 C   0  0  0  0  0  0  0  0  0  0  0  0
   37.5350   25.2770   42.6070 H   0  0  0  0  0  0  0  0  0  0  0  0
   36.5210   24.1430   41.1630 C   0  0  0  0  0  3  0  0  0  0  0  0
   36.0400   24.1100   39.8630 C   0  0  0  0  0  0  0  0  0  0  0  0
   35.2200   22.6710   39.3330 Cl  0  0  0  0  0  0  0  0  0  0  0  0
   36.1670   25.1500   38.9560 C   0  0  0  0  0  0  0  0  0  0  0  0
   35.7870   25.1010   37.9590 H   0  0  0  0  0  0  0  0  0  0  0  0
   40.8090   31.3550   40.0630 C   0  0  0  0  0  0  0  0  0  0  0  0
   41.8820   31.3940   39.7350 H   0  0  0  0  0  0  0  0  0  0  0  0
   40.4070   30.3270   39.9350 H   0  0  0  0  0  0  0  0  0  0  0  0
   40.0370   32.2260   39.2510 N   0  0  0  0  0  0  0  0  0  0  0  0
   39.5540   33.4070   39.8260 C   0  0  0  0  0  0  0  0  0  0  0  0
   38.1530   33.1970   40.4400 C   0  0  0  0  0  0  0  0  0  0  0  0
   37.2200   32.9630   39.2850 C   0  0  0  0  0  0  0  0  0  0  0  0
   37.7030   31.7010   38.6060 C   0  0  0  0  0  0  0  0  0  0  0  0
   39.1720   31.6860   38.2930 C   0  0  2  0  0  0  0  0  0  0  0  0
   39.3320   34.0990   38.9540 H   0  0  0  0  0  0  0  0  0  0  0  0
   40.2060   34.0100   40.4530 H   0  0  0  0  0  0  0  0  0  0  0  0
   37.8430   34.1350   40.9450 H   0  0  0  0  0  0  0  0  0  0  0  0
   38.1650   32.3550   41.1580 H   0  0  0  0  0  0  0  0  0  0  0  0
   37.3530   33.8140   38.5830 H   0  0  0  0  0  0  0  0  0  0  0  0
   36.1800   32.7990   39.5710 H   0  0  0  0  0  0  0  0  0  0  0  0
   37.1440   31.5450   37.6500 H   0  0  0  0  0  0  0  0  0  0  0  0
   37.4800   30.8290   39.2520 H   0  0  0  0  0  0  0  0  0  0  0  0
   39.3000   32.2480   37.3440 H   0  0  0  0  0  0  0  0  0  0  0  0
   39.5230   30.2440   37.9520 C   0  0  0  0  0  0  0  0  0  0  0  0
   38.8970   29.9120   37.1200 H   0  0  0  0  0  0  0  0  0  0  0  0
   40.6120   30.1970   37.6650 H   0  0  0  0  0  0  0  0  0  0  0  0
   39.3200   29.5780   38.8230 H   0  0  0  0  0  0  0  0  0  0  0  0
  1  4  1  1  0  0  0
  2  1  1  0  0  0  0
  2  5  1  0  0  0  0
  3  7  1  1  0  0  0
  3  2  1  0  0  0  0
  3  1  1  0  0  0  0
  6  2  1  0  0  0  0
  8  9  1  0  0  0  0
  8 14  1  0  0  0  0
  9  1  1  0  0  0  0
 10 15  1  0  0  0  0
 10  9  2  0  0  0  0
 11 10  1  0  0  0  0
 12 11  2  0  0  0  0
 12 13  1  0  0  0  0
 13  8  2  0  0  0  0
 16 17  1  0  0  0  0
 17 18  1  0  0  0  0
 18 12  1  0  0  0  0
 18 19  2  0  0  0  0
 19 20  1  0  0  0  0
 21 19  1  0  0  0  0
 22 21  2  0  0  0  0
 23 22  1  0  0  0  0
 24 17  2  0  0  0  0
 24 22  1  0  0  0  0
 25 24  1  0  0  0  0
 26  3  1  0  0  0  0
 27 26  1  0  0  0  0
 28 26  1  0  0  0  0
 29 30  1  0  0  0  0
 29 26  1  0  0  0  0
 30 31  1  0  0  0  0
 30 36  1  0  0  0  0
 31 37  1  0  0  0  0
 31 38  1  0  0  0  0
 32 40  1  0  0  0  0
 32 31  1  0  0  0  0
 33 42  1  0  0  0  0
 33 32  1  0  0  0  0
 34 43  1  6  0  0  0
 34 33  1  0  0  0  0
 34 29  1  0  0  0  0
 35 30  1  0  0  0  0
 39 32  1  0  0  0  0
 41 33  1  0  0  0  0
 44 34  1  0  0  0  0
 44 47  1  0  0  0  0
 45 44  1  0  0  0  0
 46 44  1  0  0  0  0
M  END
>  <minimizedAffinity>
-5.63036633

$$$$

 OpenBabel03252500383D

 47 50  0  0  1  0  0  0  0  0999 V2000
   37.6100   28.2470   43.5890 C   0  0  1  0  0  0  0  0  0  0  0  0
   36.3890   27.6290   43.3070 C   0  0  0  0  0  0  0  0  0  0  0  0
   37.5630   26.7510   43.1640 C   0  0  1  0  0  0  0  0  0  0  0  0
   37.9240   28.4270   44.6540 H   0  0  0  0  0  0  0  0  0  0  0  0
   35.6560   27.4040   44.0940 H   0  0  0  0  0  0  0  0  0  0  0  0
   35.8660   27.8650   42.3360 H   0  0  0  0  0  0  0  0  0  0  0  0
   37.9550   26.1190   43.9760 H   0  0  0  0  0  0  0  0  0  0  0  0
   37.6190   29.9920   41.8070 C   0  0  0  0  0  0  0  0  0  0  0  0
   38.3780   29.1640   42.6920 C   0  0  0  0  0  0  0  0  0  0  0  0
   39.7340   29.2340   42.6860 C   0  0  0  0  0  0  0  0  0  0  0  0
   40.3110   30.1170   41.8100 N   0  0  0  0  0  0  0  0  0  0  0  0
   39.5860   30.8960   40.9780 C   0  0  0  0  0  0  0  0  0  0  0  0
   38.2090   30.8570   40.9510 N   0  0  0  0  0  0  0  0  0  0  0  0
   36.5310   29.9130   41.8340 H   0  0  0  0  0  0  0  0  0  0  0  0
   40.3200   28.6150   43.3490 H   0  0  0  0  0  0  0  0  0  0  0  0
   40.2290   29.7870   38.2440 Cl  0  0  0  0  0  0  0  0  0  0  0  0
   40.6480   31.4000   38.8070 C   0  0  0  0  0  0  0  0  0  0  0  0
   40.3030   31.8040   40.0830 C   0  0  0  0  0  0  0  0  0  0  0  0
   40.6080   33.0500   40.5650 C   0  0  0  0  0  0  0  0  0  0  0  0
   40.3670   33.4280   41.5530 H   0  0  0  0  0  0  0  0  0  0  0  0
   41.2910   33.9400   39.7410 C   0  0  0  0  0  3  0  0  0  0  0  0
   41.6260   33.5120   38.4650 C   0  0  0  0  0  0  0  0  0  0  0  0
   42.4790   34.6200   37.4310 Cl  0  0  0  0  0  0  0  0  0  0  0  0
   41.3280   32.2580   37.9580 C   0  0  0  0  0  0  0  0  0  0  0  0
   41.5970   31.9510   36.9710 H   0  0  0  0  0  0  0  0  0  0  0  0
   38.0510   26.3650   41.8170 C   0  0  0  0  0  0  0  0  0  0  0  0
   38.2640   27.2920   41.2220 H   0  0  0  0  0  0  0  0  0  0  0  0
   38.9530   25.7170   41.8500 H   0  0  0  0  0  0  0  0  0  0  0  0
   37.0120   25.6310   41.1870 N   0  0  0  0  0  0  0  0  0  0  0  0
   36.8210   24.2990   41.5710 C   0  0  0  0  0  0  0  0  0  0  0  0
   37.6490   23.3390   40.6900 C   0  0  0  0  0  0  0  0  0  0  0  0
   37.0390   23.3980   39.3180 C   0  0  0  0  0  0  0  0  0  0  0  0
   37.1980   24.8270   38.8500 C   0  0  0  0  0  0  0  0  0  0  0  0
   36.7300   25.8600   39.8360 C   0  0  2  0  0  0  0  0  0  0  0  0
   35.7580   24.0460   41.2670 H   0  0  0  0  0  0  0  0  0  0  0  0
   36.8410   24.0310   42.6250 H   0  0  0  0  0  0  0  0  0  0  0  0
   37.5240   22.3060   41.0750 H   0  0  0  0  0  0  0  0  0  0  0  0
   38.7170   23.6280   40.6960 H   0  0  0  0  0  0  0  0  0  0  0  0
   35.9540   23.1840   39.4360 H   0  0  0  0  0  0  0  0  0  0  0  0
   37.5260   22.7600   38.5790 H   0  0  0  0  0  0  0  0  0  0  0  0
   36.6350   24.9800   37.8960 H   0  0  0  0  0  0  0  0  0  0  0  0
   38.2650   25.0230   38.6280 H   0  0  0  0  0  0  0  0  0  0  0  0
   35.6290   25.9400   39.7130 H   0  0  0  0  0  0  0  0  0  0  0  0
   37.2830   27.1930   39.3530 C   0  0  0  0  0  0  0  0  0  0  0  0
   36.9340   27.3760   38.3340 H   0  0  0  0  0  0  0  0  0  0  0  0
   36.9150   28.0060   40.0430 H   0  0  0  0  0  0  0  0  0  0  0  0
   38.3970   27.1710   39.3370 H   0  0  0  0  0  0  0  0  0  0  0  0
  1  4  1  1  0  0  0
  2  1  1  0  0  0  0
  2  5  1  0  0  0  0
  3  2  1  0  0  0  0
  3  1  1  0  0  0  0
  3  7  1  1  0  0  0
  6  2  1  0  0  0  0
  8 14  1  0  0  0  0
  8  9  1  0  0  0  0
  9  1  1  0  0  0  0
 10  9  2  0  0  0  0
 10 15  1  0  0  0  0
 11 10  1  0  0  0  0
 12 11  2  0  0  0  0
 13 12  1  0  0  0  0
 13  8  2  0  0  0  0
 16 17  1  0  0  0  0
 17 18  1  0  0  0  0
 18 19  2  0  0  0  0
 18 12  1  0  0  0  0
 19 20  1  0  0  0  0
 21 19  1  0  0  0  0
 22 21  2  0  0  0  0
 23 22  1  0  0  0  0
 24 22  1  0  0  0  0
 24 17  2  0  0  0  0
 25 24  1  0  0  0  0
 26 28  1  0  0  0  0
 26  3  1  0  0  0  0
 27 26  1  0  0  0  0
 29 30  1  0  0  0  0
 29 26  1  0  0  0  0
 30 36  1  0  0  0  0
 31 38  1  0  0  0  0
 31 37  1  0  0  0  0
 31 30  1  0  0  0  0
 32 39  1  0  0  0  0
 32 31  1  0  0  0  0
 33 32  1  0  0  0  0
 33 34  1  0  0  0  0
 34 43  1  6  0  0  0
 34 29  1  0  0  0  0
 35 30  1  0  0  0  0
 40 32  1  0  0  0  0
 41 33  1  0  0  0  0
 42 33  1  0  0  0  0
 44 34  1  0  0  0  0
 44 46  1  0  0  0  0
 45 44  1  0  0  0  0
 47 44  1  0  0  0  0
M  END
>  <minimizedAffinity>
-5.51800919

$$$$

 OpenBabel03252500383D

 47 50  0  0  1  0  0  0  0  0999 V2000
   34.3600   28.5830   35.0400 C   0  0  1  0  0  0  0  0  0  0  0  0
   33.2130   27.9120   34.6060 C   0  0  0  0  0  0  0  0  0  0  0  0
   32.9730   29.2850   35.0820 C   0  0  1  0  0  0  0  0  0  0  0  0
   35.0850   29.0110   34.2940 H   0  0  0  0  0  0  0  0  0  0  0  0
   33.0390   27.6850   33.5450 H   0  0  0  0  0  0  0  0  0  0  0  0
   32.7660   27.1100   35.2610 H   0  0  0  0  0  0  0  0  0  0  0  0
   32.9800   30.1690   34.4250 H   0  0  0  0  0  0  0  0  0  0  0  0
   34.8570   27.1710   37.0350 C   0  0  0  0  0  0  0  0  0  0  0  0
   35.0540   28.4130   36.3530 C   0  0  0  0  0  0  0  0  0  0  0  0
   35.8400   29.3710   36.9070 C   0  0  0  0  0  0  0  0  0  0  0  0
   36.4140   29.0860   38.1190 N   0  0  0  0  0  0  0  0  0  0  0  0
   36.2230   27.9100   38.7560 C   0  0  0  0  0  0  0  0  0  0  0  0
   35.4340   26.9110   38.2300 N   0  0  0  0  0  0  0  0  0  0  0  0
   34.2200   26.4210   36.5650 H   0  0  0  0  0  0  0  0  0  0  0  0
   35.9970   30.3140   36.4040 H   0  0  0  0  0  0  0  0  0  0  0  0
   38.9020   26.5210   38.6390 Cl  0  0  0  0  0  0  0  0  0  0  0  0
   38.1160   27.0840   40.1090 C   0  0  0  0  0  0  0  0  0  0  0  0
   36.8850   27.7090   40.0450 C   0  0  0  0  0  0  0  0  0  0  0  0
   36.2350   28.1630   41.1620 C   0  0  0  0  0  0  0  0  0  0  0  0
   35.2710   28.6600   41.1810 H   0  0  0  0  0  0  0  0  0  0  0  0
   36.8350   27.9880   42.4060 C   0  0  0  0  0  3  0  0  0  0  0  0
   38.0700   27.3580   42.4450 C   0  0  0  0  0  0  0  0  0  0  0  0
   38.8240   27.1370   43.9960 Cl  0  0  0  0  0  0  0  0  0  0  0  0
   38.7440   26.8910   41.3290 C   0  0  0  0  0  0  0  0  0  0  0  0
   39.6950   26.4080   41.3840 H   0  0  0  0  0  0  0  0  0  0  0  0
   32.3200   29.5210   36.3940 C   0  0  0  0  0  0  0  0  0  0  0  0
   32.2800   28.5560   36.9650 H   0  0  0  0  0  0  0  0  0  0  0  0
   32.8270   30.3030   36.9980 H   0  0  0  0  0  0  0  0  0  0  0  0
   30.9980   29.9670   36.1310 N   0  0  0  0  0  0  0  0  0  0  0  0
   30.7500   30.6150   34.9160 C   0  0  0  0  0  0  0  0  0  0  0  0
   30.9350   32.1420   35.0500 C   0  0  0  0  0  0  0  0  0  0  0  0
   29.8210   32.6230   35.9370 C   0  0  0  0  0  0  0  0  0  0  0  0
   30.0220   31.9400   37.2710 C   0  0  0  0  0  0  0  0  0  0  0  0
   30.2140   30.4520   37.1850 C   0  0  2  0  0  0  0  0  0  0  0  0
   29.6310   30.5240   34.7470 H   0  0  0  0  0  0  0  0  0  0  0  0
   31.1670   30.2170   33.9950 H   0  0  0  0  0  0  0  0  0  0  0  0
   30.8000   32.6050   34.0510 H   0  0  0  0  0  0  0  0  0  0  0  0
   31.9370   32.3790   35.4560 H   0  0  0  0  0  0  0  0  0  0  0  0
   28.8710   32.2560   35.4930 H   0  0  0  0  0  0  0  0  0  0  0  0
   29.8230   33.6990   36.1220 H   0  0  0  0  0  0  0  0  0  0  0  0
   29.1450   32.1370   37.9370 H   0  0  0  0  0  0  0  0  0  0  0  0
   30.9100   32.3720   37.7740 H   0  0  0  0  0  0  0  0  0  0  0  0
   29.2000   30.0050   37.1060 H   0  0  0  0  0  0  0  0  0  0  0  0
   30.7410   30.0090   38.5420 C   0  0  0  0  0  0  0  0  0  0  0  0
   30.0320   30.3110   39.3160 H   0  0  0  0  0  0  0  0  0  0  0  0
   30.8560   28.8870   38.5340 H   0  0  0  0  0  0  0  0  0  0  0  0
   31.7180   30.4990   38.7600 H   0  0  0  0  0  0  0  0  0  0  0  0
  1  4  1  6  0  0  0
  1  3  1  0  0  0  0
  1  9  1  0  0  0  0
  2  1  1  0  0  0  0
  2  3  1  0  0  0  0
  2  6  1  0  0  0  0
  3  7  1  6  0  0  0
  3 26  1  0  0  0  0
  5  2  1  0  0  0  0
  8 13  1  0  0  0  0
  9 10  1  0  0  0  0
  9  8  2  0  0  0  0
 10 11  2  0  0  0  0
 11 12  1  0  0  0  0
 12 18  1  0  0  0  0
 13 12  2  0  0  0  0
 14  8  1  0  0  0  0
 15 10  1  0  0  0  0
 16 17  1  0  0  0  0
 17 24  1  0  0  0  0
 18 17  2  0  0  0  0
 18 19  1  0  0  0  0
 19 20  1  0  0  0  0
 19 21  2  0  0  0  0
 21 22  1  0  0  0  0
 22 23  1  0  0  0  0
 24 25  1  0  0  0  0
 24 22  2  0  0  0  0
 26 27  1  0  0  0  0
 26 28  1  0  0  0  0
 29 26  1  0  0  0  0
 29 34  1  0  0  0  0
 30 31  1  0  0  0  0
 30 29  1  0  0  0  0
 31 38  1  0  0  0  0
 31 32  1  0  0  0  0
 32 40  1  0  0  0  0
 32 33  1  0  0  0  0
 33 42  1  0  0  0  0
 33 41  1  0  0  0  0
 34 43  1  6  0  0  0
 34 33  1  0  0  0  0
 34 44  1  0  0  0  0
 35 30  1  0  0  0  0
 36 30  1  0  0  0  0
 37 31  1  0  0  0  0
 39 32  1  0  0  0  0
 44 47  1  0  0  0  0
 44 45  1  0  0  0  0
 46 44  1  0  0  0  0
M  END
>  <minimizedAffinity>
-5.47721481

$$$$
