
 OpenBabel03252506423D

 41 44  0  0  1  0  0  0  0  0999 V2000
   49.3470   33.2860   41.4580 N   0  0  1  0  0  0  0  0  0  0  0  0
   50.6420   33.0990   42.0570 C   0  0  0  0  0  0  0  0  0  0  0  0
   51.2790   31.7800   41.8080 C   0  0  0  0  0  0  0  0  0  0  0  0
   50.4500   30.6820   42.4360 C   0  0  0  0  0  0  0  0  0  0  0  0
   49.0070   31.0160   42.3490 C   0  0  0  0  0  0  0  0  0  0  0  0
   48.7010   32.0000   41.2740 C   0  0  2  0  0  0  0  0  0  0  0  0
   50.5670   33.2160   43.1680 H   0  0  0  0  0  0  0  0  0  0  0  0
   51.3290   33.9400   41.7560 H   0  0  0  0  0  0  0  0  0  0  0  0
   52.2410   31.7970   42.4080 H   0  0  0  0  0  0  0  0  0  0  0  0
   51.5840   31.5380   40.7990 H   0  0  0  0  0  0  0  0  0  0  0  0
   50.6530   29.7540   41.8380 H   0  0  0  0  0  0  0  0  0  0  0  0
   50.7960   30.4280   43.4690 H   0  0  0  0  0  0  0  0  0  0  0  0
   48.7170   31.5070   43.3140 H   0  0  0  0  0  0  0  0  0  0  0  0
   48.3370   30.1520   42.2600 H   0  0  0  0  0  0  0  0  0  0  0  0
   47.6090   32.2660   41.4790 H   0  0  0  0  0  0  0  0  0  0  0  0
   47.8970   29.0720   40.4020 Cl  0  0  0  0  0  0  0  0  0  0  0  0
   48.3490   30.3210   39.3000 C   0  0  0  0  0  0  0  0  0  0  0  0
   48.6970   31.5140   39.8960 C   0  0  0  0  0  0  0  0  0  0  0  0
   49.1080   32.5330   39.0250 C   0  0  0  0  0  0  0  0  0  0  0  0
   49.4340   33.5600   39.2420 H   0  0  0  0  0  0  0  0  0  0  0  0
   49.1480   32.3120   37.6420 C   0  0  0  0  0  3  0  0  0  0  0  0
   48.7870   31.0950   37.1000 C   0  0  0  0  0  0  0  0  0  0  0  0
   48.8210   30.7730   35.3780 Cl  0  0  0  0  0  0  0  0  0  0  0  0
   48.3860   30.1000   37.9600 C   0  0  0  0  0  0  0  0  0  0  0  0
   48.0860   29.1180   37.6150 H   0  0  0  0  0  0  0  0  0  0  0  0
   47.2090   34.6290   42.0130 C   0  0  1  0  0  0  0  0  0  0  0  0
   48.3140   35.5150   41.7130 C   0  0  0  0  0  0  0  0  0  0  0  0
   48.6290   34.1810   42.3230 C   0  0  2  0  0  0  0  0  0  0  0  0
   46.7510   33.9390   41.2430 H   0  0  0  0  0  0  0  0  0  0  0  0
   48.5110   35.6780   40.6230 H   0  0  0  0  0  0  0  0  0  0  0  0
   48.4120   36.4470   42.2960 H   0  0  0  0  0  0  0  0  0  0  0  0
   48.9070   34.1860   43.3910 H   0  0  0  0  0  0  0  0  0  0  0  0
   45.5030   36.0520   43.1870 C   0  0  0  0  0  0  0  0  0  0  0  0
   46.2990   34.8740   43.1510 C   0  0  0  0  0  0  0  0  0  0  0  0
   46.1850   33.9880   44.2060 C   0  0  0  0  0  0  0  0  0  0  0  0
   45.3200   34.2960   45.2150 N   0  0  0  0  0  0  0  0  0  0  0  0
   44.5730   35.4160   45.2330 C   0  0  0  0  0  0  0  0  0  0  0  0
   44.6540   36.3130   44.2160 N   0  0  0  0  0  0  0  0  0  0  0  0
   45.6360   36.7150   42.3260 H   0  0  0  0  0  0  0  0  0  0  0  0
   46.7690   33.0770   44.2280 H   0  0  0  0  0  0  0  0  0  0  0  0
   43.8930   35.6350   46.0480 H   0  0  0  0  0  0  0  0  0  0  0  0
  1  2  1  1  0  0  0
  1 28  1  0  0  0  0
  2  7  1  0  0  0  0
  3  2  1  0  0  0  0
  3  9  1  0  0  0  0
  3  4  1  0  0  0  0
  4 12  1  0  0  0  0
  5  4  1  0  0  0  0
  5 13  1  0  0  0  0
  6  1  1  0  0  0  0
  6 15  1  1  0  0  0
  6  5  1  0  0  0  0
  8  2  1  0  0  0  0
 10  3  1  0  0  0  0
 11  4  1  0  0  0  0
 14  5  1  0  0  0  0
 17 18  1  0  0  0  0
 17 16  1  0  0  0  0
 18  6  1  0  0  0  0
 19 20  1  0  0  0  0
 19 18  2  0  0  0  0
 21 19  1  0  0  0  0
 22 21  2  0  0  0  0
 22 24  1  0  0  0  0
 23 22  1  0  0  0  0
 24 17  2  0  0  0  0
 25 24  1  0  0  0  0
 26 29  1  6  0  0  0
 26 28  1  0  0  0  0
 26 34  1  0  0  0  0
 27 26  1  0  0  0  0
 27 31  1  0  0  0  0
 27 28  1  0  0  0  0
 28 32  1  1  0  0  0
 30 27  1  0  0  0  0
 33 38  1  0  0  0  0
 34 33  2  0  0  0  0
 34 35  1  0  0  0  0
 35 40  1  0  0  0  0
 35 36  2  0  0  0  0
 36 37  1  0  0  0  0
 37 41  1  0  0  0  0
 38 37  2  0  0  0  0
 39 33  1  0  0  0  0
M  END
>  <minimizedAffinity>
-5.01819897

>  <minimizedRMSD>
0.345121443

$$$$
