
 OpenBabel03252503563D

 21 22  0  0  0  0  0  0  0  0999 V2000
   47.7380   34.5920   42.3940 C   0  0  0  0  0  0  0  0  0  0  0  0
   46.7710   34.6080   41.3900 C   0  0  0  0  0  0  0  0  0  0  0  0
   45.5240   34.0790   41.7060 C   0  0  0  0  0  0  0  0  0  0  0  0
   45.3310   33.5890   42.9550 N   0  0  0  0  0  0  0  0  0  0  0  0
   46.2970   33.5920   43.9050 C   0  0  0  0  0  0  0  0  0  0  0  0
   47.5070   34.1020   43.6090 N   0  0  0  0  0  0  0  0  0  0  0  0
   46.9230   34.9980   40.3910 H   0  0  0  0  0  0  0  0  0  0  0  0
   44.7130   34.0550   40.9720 H   0  0  0  0  0  0  0  0  0  0  0  0
   47.2050   30.7990   44.2830 Cl  0  0  0  0  0  0  0  0  0  0  0  0
   46.4230   31.7500   45.5150 C   0  0  0  0  0  0  0  0  0  0  0  0
   46.0350   33.0510   45.2400 C   0  0  0  0  0  0  0  0  0  0  0  0
   45.4130   33.8430   46.1870 C   0  0  0  0  0  0  0  0  0  0  0  0
   45.1280   34.8380   45.9390 H   0  0  0  0  0  0  0  0  0  0  0  0
   45.1510   33.3550   47.4660 C   0  0  0  0  0  0  0  0  0  0  0  0
   45.5490   32.0560   47.7090 C   0  0  0  0  0  0  0  0  0  0  0  0
   45.2350   31.3980   49.3200 Cl  0  0  0  0  0  0  0  0  0  0  0  0
   46.1720   31.2350   46.7930 C   0  0  0  0  0  0  0  0  0  0  0  0
   46.4600   30.2300   47.0400 H   0  0  0  0  0  0  0  0  0  0  0  0
   49.0120   35.1510   42.0160 C   0  0  0  0  0  0  0  0  0  0  0  0
   49.2030   36.2150   41.3630 O   0  0  0  0  0  0  0  0  0  0  0  0
   49.9670   34.6930   42.2660 H   0  0  0  0  0  0  0  0  0  0  0  0
  1  6  1  0  0  0  0
  2  3  1  0  0  0  0
  2  1  2  0  0  0  0
  3  4  2  0  0  0  0
  4  5  1  0  0  0  0
  5 11  1  0  0  0  0
  6  5  2  0  0  0  0
  7  2  1  0  0  0  0
  8  3  1  0  0  0  0
  9 10  1  0  0  0  0
 10 17  1  0  0  0  0
 11 10  2  0  0  0  0
 11 12  1  0  0  0  0
 12 14  2  0  0  0  0
 13 12  1  0  0  0  0
 14 15  1  0  0  0  0
 15 16  1  0  0  0  0
 17 18  1  0  0  0  0
 17 15  2  0  0  0  0
 19 21  1  0  0  0  0
 19  1  1  0  0  0  0
 20 19  2  0  0  0  0
M  END
>  <minimizedAffinity>
-4.58059168

>  <minimizedRMSD>
1.8756392

$$$$
