REMARK  Name = 
REMARK  2 active torsions:
REMARK  status: ('A' for Active; 'I' for Inactive)
REMARK    1  A    between atoms: C_2  and  C_14
REMARK    2  A    between atoms: C_3  and  C_25
REMARK                            x       y       z     vdW  Elec       q    Type
REMARK                         _______ _______ _______ _____ _____    ______ ____
ROOT
ATOM      1  C   UNL     1      47.233  31.365  45.093  0.00  0.00    +0.000 A 
ATOM      2  C   UNL     1      46.892  32.699  45.090  0.00  0.00    +0.000 A 
ATOM      3  C   UNL     1      46.287  33.293  46.179  0.00  0.00    +0.000 A 
ATOM      4  C   UNL     1      45.994  32.571  47.328  0.00  0.00    +0.000 A 
ATOM      5  N   UNL     1      45.426  32.819  48.537  0.00  0.00    +0.000 N 
ATOM      6  C   UNL     1      45.425  31.660  49.252  0.00  0.00    +0.000 A 
ATOM      7  N   UNL     1      45.997  30.700  48.471  0.00  0.00    +0.000 NA
ATOM      8  C   UNL     1      46.349  31.245  47.290  0.00  0.00    +0.000 A 
ATOM      9  C   UNL     1      46.954  30.607  46.230  0.00  0.00    +0.000 A 
ATOM     10  H   UNL     1      47.711  30.869  44.250  0.00  0.00    +0.000 HD
ATOM     11  H   UNL     1      45.072  33.767  48.805  0.00  0.00    +0.000 HD
ATOM     12  H   UNL     1      45.009  31.646  50.260  0.00  0.00    +0.000 HD
ATOM     13  H   UNL     1      47.214  29.551  46.256  0.00  0.00    +0.000 HD
ENDROOT
BRANCH   3  16
ATOM     14 CL   UNL     1      48.308  35.253  44.994  0.00  0.00    +0.000 Cl
ATOM     15  C   UNL     1      46.762  35.695  45.685  0.00  0.00    +0.000 A 
ATOM     16  C   UNL     1      45.912  34.715  46.200  0.00  0.00    +0.000 A 
ATOM     17  C   UNL     1      44.701  35.137  46.734  0.00  0.00    +0.000 A 
ATOM     18  H   UNL     1      43.997  34.410  47.151  0.00  0.00    +0.000 HD
ATOM     19  C   UNL     1      44.316  36.466  46.770  0.00  0.00    +0.000 A 
ATOM     20  C   UNL     1      45.168  37.420  46.257  0.00  0.00    +0.000 A 
ATOM     21 CL   UNL     1      44.625  39.085  46.333  0.00  0.00    +0.000 Cl
ATOM     22  C   UNL     1      46.371  37.015  45.726  0.00  0.00    +0.000 A 
ATOM     23  H   UNL     1      47.006  37.798  45.335  0.00  0.00    +0.000 HD
ENDBRANCH   3  16
BRANCH   2  28
ATOM     24  C   UNL     1      46.517  35.217  42.435  0.00  0.00    +0.000 A 
ATOM     25  C   UNL     1      47.708  35.062  41.711  0.00  0.00    +0.000 A 
ATOM     26  C   UNL     1      48.627  34.097  42.139  0.00  0.00    +0.000 A 
ATOM     27  N   UNL     1      48.313  33.352  43.248  0.00  0.00    +0.000 NA
ATOM     28  C   UNL     1      47.165  33.521  43.922  0.00  0.00    +0.000 A 
ATOM     29  N   UNL     1      46.278  34.444  43.519  0.00  0.00    +0.000 NA
ATOM     30  H   UNL     1      45.826  35.972  42.079  0.00  0.00    +0.000 HD
ATOM     31  H   UNL     1      47.977  35.632  40.842  0.00  0.00    +0.000 HD
ATOM     32  H   UNL     1      49.568  33.918  41.632  0.00  0.00    +0.000 HD
ENDBRANCH   2  28
TORSDOF 2
