
 OpenBabel03252505153D

 26 28  0  0  0  0  0  0  0  0999 V2000
   45.0440   34.8560   42.5720 C   0  0  0  0  0  0  0  0  0  0  0  0
   46.2530   35.0410   41.8800 C   0  0  0  0  0  0  0  0  0  0  0  0
   47.3710   34.4460   42.4450 C   0  0  0  0  0  0  0  0  0  0  0  0
   47.2710   33.7340   43.6020 N   0  0  0  0  0  0  0  0  0  0  0  0
   46.0720   33.5790   44.2440 C   0  0  0  0  0  0  0  0  0  0  0  0
   44.9780   34.1500   43.7070 N   0  0  0  0  0  0  0  0  0  0  0  0
   44.1690   35.3160   42.1390 H   0  0  0  0  0  0  0  0  0  0  0  0
   46.3770   35.5910   40.9690 H   0  0  0  0  0  0  0  0  0  0  0  0
   46.6060   30.5650   44.1850 Cl  0  0  0  0  0  0  0  0  0  0  0  0
   46.1290   31.4640   45.5820 C   0  0  0  0  0  0  0  0  0  0  0  0
   45.9180   32.8220   45.4810 C   0  0  0  0  0  0  0  0  0  0  0  0
   45.5380   33.4510   46.6500 C   0  0  0  0  0  0  0  0  0  0  0  0
   45.3560   34.5130   46.6410 H   0  0  0  0  0  0  0  0  0  0  0  0
   45.3810   32.7700   47.8380 C   0  0  0  0  0  0  0  0  0  0  0  0
   45.6010   31.4110   47.8970 C   0  0  0  0  0  0  0  0  0  0  0  0
   45.3860   30.6000   49.4340 Cl  0  0  0  0  0  0  0  0  0  0  0  0
   45.9820   30.7450   46.7500 C   0  0  0  0  0  0  0  0  0  0  0  0
   46.1570   29.6690   46.7980 H   0  0  0  0  0  0  0  0  0  0  0  0
   48.7150   34.5520   41.7880 C   0  0  0  0  0  0  0  0  0  0  0  0
   49.1340   35.9800   41.5140 C   0  0  0  0  0  0  0  0  0  0  0  0
   49.8350   35.0790   42.5540 C   0  0  0  0  0  0  0  0  0  0  0  0
   48.8490   33.8150   40.9940 H   0  0  0  0  0  0  0  0  0  0  0  0
   49.6190   36.0980   40.5230 H   0  0  0  0  0  0  0  0  0  0  0  0
   48.4780   36.7850   41.8470 H   0  0  0  0  0  0  0  0  0  0  0  0
   50.8820   34.8610   42.2630 H   0  0  0  0  0  0  0  0  0  0  0  0
   49.7030   35.4950   43.5730 H   0  0  0  0  0  0  0  0  0  0  0  0
  1  6  1  0  0  0  0
  2  3  1  0  0  0  0
  2  1  2  0  0  0  0
  3  4  2  0  0  0  0
  4  5  1  0  0  0  0
  5 11  1  0  0  0  0
  6  5  2  0  0  0  0
  7  1  1  0  0  0  0
  8  2  1  0  0  0  0
  9 10  1  0  0  0  0
 10 17  1  0  0  0  0
 11 10  2  0  0  0  0
 11 12  1  0  0  0  0
 12 14  2  0  0  0  0
 13 12  1  0  0  0  0
 14 15  1  0  0  0  0
 15 16  1  0  0  0  0
 17 18  1  0  0  0  0
 17 15  2  0  0  0  0
 19  3  1  0  0  0  0
 19 21  1  0  0  0  0
 20 19  1  0  0  0  0
 20 24  1  0  0  0  0
 20 21  1  0  0  0  0
 21 26  1  0  0  0  0
 22 19  1  0  0  0  0
 23 20  1  0  0  0  0
 25 21  1  0  0  0  0
M  END
>  <minimizedAffinity>
-5.40624619

>  <minimizedRMSD>
1.34860098

$$$$
