
     RDKit          3D

 48 51  0  0  0  0  0  0  0  0999 V2000
   46.0675   32.1854   45.4438 C   0  0  0  0  0  0  0  0  0  0  0  0
   45.7948   31.8371   46.7926 N   0  0  0  0  0  0  0  0  0  0  0  0
   46.3815   32.6058   47.8043 C   0  0  0  0  0  0  0  0  0  0  0  0
   47.7477   32.0241   48.2268 C   0  0  0  0  0  0  0  0  0  0  0  0
   47.4537   30.7169   48.9083 C   0  0  0  0  0  0  0  0  0  0  0  0
   46.7972   29.8403   47.8656 C   0  0  0  0  0  0  0  0  0  0  0  0
   45.6531   30.4875   47.1392 C   0  0  2  0  0  0  0  0  0  0  0  0
   45.3644   29.6135   45.9275 C   0  0  0  0  0  0  0  0  0  0  0  0
   46.0466   34.4104   44.0556 C   0  0  1  0  0  0  0  0  0  0  0  0
   45.1266   34.5468   45.0996 C   0  0  0  0  0  0  0  0  0  0  0  0
   46.2615   33.6561   45.4000 C   0  0  1  0  0  0  0  0  0  0  0  0
   44.5645   33.2378   42.4279 C   0  0  0  0  0  0  0  0  0  0  0  0
   45.8985   33.5575   42.8377 C   0  0  0  0  0  0  0  0  0  0  0  0
   46.9543   33.0849   42.1268 C   0  0  0  0  0  0  0  0  0  0  0  0
   46.6755   32.3111   41.0311 N   0  0  0  0  0  0  0  0  0  0  0  0
   45.4131   32.0149   40.6513 C   0  0  0  0  0  0  0  0  0  0  0  0
   44.3134   32.4717   41.3418 N   0  0  0  0  0  0  0  0  0  0  0  0
   45.1889   31.9086   44.8044 H   0  0  0  0  0  0  0  0  0  0  0  0
   46.9675   31.6179   45.1234 H   0  0  0  0  0  0  0  0  0  0  0  0
   45.7486   32.4246   48.7278 H   0  0  0  0  0  0  0  0  0  0  0  0
   46.3893   33.6898   47.7240 H   0  0  0  0  0  0  0  0  0  0  0  0
   48.2072   32.7034   48.9740 H   0  0  0  0  0  0  0  0  0  0  0  0
   48.4110   31.9087   47.3482 H   0  0  0  0  0  0  0  0  0  0  0  0
   46.7126   30.9279   49.7087 H   0  0  0  0  0  0  0  0  0  0  0  0
   48.3374   30.1863   49.2675 H   0  0  0  0  0  0  0  0  0  0  0  0
   46.4175   28.9024   48.3423 H   0  0  0  0  0  0  0  0  0  0  0  0
   47.5522   29.5352   47.1149 H   0  0  0  0  0  0  0  0  0  0  0  0
   44.7605   30.3829   47.7933 H   0  0  0  0  0  0  0  0  0  0  0  0
   45.1452   28.5968   46.2660 H   0  0  0  0  0  0  0  0  0  0  0  0
   44.4785   30.0410   45.3783 H   0  0  0  0  0  0  0  0  0  0  0  0
   46.2537   29.5677   45.2577 H   0  0  0  0  0  0  0  0  0  0  0  0
   46.7935   35.2236   43.8464 H   0  0  0  0  0  0  0  0  0  0  0  0
   45.0275   35.4820   45.6681 H   0  0  0  0  0  0  0  0  0  0  0  0
   44.1319   34.0206   45.0256 H   0  0  0  0  0  0  0  0  0  0  0  0
   47.1946   33.9954   45.8748 H   0  0  0  0  0  0  0  0  0  0  0  0
   43.7366   33.6312   43.0192 H   0  0  0  0  0  0  0  0  0  0  0  0
   47.9660   33.3181   42.4251 H   0  0  0  0  0  0  0  0  0  0  0  0
   47.1986   29.5856   40.4806 Cl  0  0  0  0  0  0  0  0  0  0  0  0
   45.9927   30.0427   39.2834 C   0  0  0  0  0  0  0  0  0  0  0  0
   45.2285   31.1798   39.4644 C   0  0  0  0  0  0  0  0  0  0  0  0
   44.2781   31.5747   38.5595 C   0  0  0  0  0  0  0  0  0  0  0  0
   43.6460   32.4533   38.6406 H   0  0  0  0  0  0  0  0  0  0  0  0
   44.0752   30.8042   37.4183 C   0  0  0  0  0  0  0  0  0  0  0  0
   44.8547   29.6674   37.2593 C   0  0  0  0  0  0  0  0  0  0  0  0
   44.6057   28.7008   35.8356 Cl  0  0  0  0  0  0  0  0  0  0  0  0
   45.8196   29.2504   38.1603 C   0  0  0  0  0  0  0  0  0  0  0  0
   46.4084   28.3702   38.0161 H   0  0  0  0  0  0  0  0  0  0  0  0
   43.3320   31.0589   36.6507 H   0  0  0  0  0  0  0  0  0  0  0  0
  1  2  1  0
  2  7  1  0
  2  3  1  0
  3  4  1  0
  4  5  1  0
  6  5  1  0
  7  6  1  0
  8  7  1  0
  9 10  1  0
  9 11  1  0
 10 11  1  0
 11  1  1  0
 12 13  2  0
 13  9  1  0
 14 13  1  0
 15 14  2  0
 16 15  1  0
 16 17  2  0
 17 12  1  0
  1 18  1  0
  1 19  1  0
  3 20  1  0
  3 21  1  0
  4 22  1  0
  4 23  1  0
  5 24  1  0
  5 25  1  0
  6 26  1  0
  6 27  1  0
  7 28  1  1
  8 29  1  0
  8 30  1  0
  8 31  1  0
  9 32  1  6
 10 33  1  0
 10 34  1  0
 11 35  1  1
 12 36  1  0
 14 37  1  0
 38 39  1  0
 39 40  2  0
 40 41  1  0
 41 42  1  0
 41 43  2  0
 43 44  1  0
 44 45  1  0
 44 46  2  0
 46 47  1  0
 46 39  1  0
 43 48  1  0
 16 40  1  0
M  ISO  8  18   8  19   8  20  13  21  13  22  13  23  13  24  13  25  13
M  ISO  8  26  13  27  13  28  13  29   8  30   8  31   8  32  13  33  13
M  ISO  6  34  13  35  13  36  14  37  14  42  16  47  15
M  END
>  <DihAtoms>  (1) 
14,15,39,38

>  <DihDeg>  (1) 
-179.9993981792618

$$$$
