REMARK  Name = 
REMARK  2 active torsions:
REMARK  status: ('A' for Active; 'I' for Inactive)
REMARK    1  A    between atoms: C_5  and  C_7
REMARK    2  A    between atoms: C_10  and  C_19
REMARK                            x       y       z     vdW  Elec       q    Type
REMARK                         _______ _______ _______ _____ _____    ______ ____
ROOT
ATOM      1  C   UNL     1      45.864  32.929  46.704  0.00  0.00    +0.000 A 
ATOM      2  C   UNL     1      45.138  32.786  47.918  0.00  0.00    +0.000 A 
ATOM      3  C   UNL     1      45.512  31.829  48.796  0.00  0.00    +0.000 A 
ATOM      4  C   UNL     1      46.608  31.002  48.484  0.00  0.00    +0.000 A 
ATOM      5  S   UNL     1      47.111  31.641  46.855  0.00  0.00    +0.000 S 
ATOM      6  H   UNL     1      44.297  33.480  48.072  0.00  0.00    +0.000 HD
ATOM      7  H   UNL     1      44.965  31.723  49.708  0.00  0.00    +0.000 HD
ENDROOT
BRANCH   4  10
ATOM      8 CL   UNL     1      45.702  28.109  47.984  0.00  0.00    +0.000 Cl
ATOM      9  C   UNL     1      47.026  28.601  49.013  0.00  0.00    +0.000 A 
ATOM     10  C   UNL     1      47.267  29.955  49.099  0.00  0.00    +0.000 A 
ATOM     11  C   UNL     1      48.348  30.207  49.951  0.00  0.00    +0.000 A 
ATOM     12  H   UNL     1      48.697  31.231  50.150  0.00  0.00    +0.000 HD
ATOM     13  C   UNL     1      49.070  29.245  50.610  0.00  0.00    +0.000 A 
ATOM     14  C   UNL     1      48.732  27.925  50.443  0.00  0.00    +0.000 A 
ATOM     15 CL   UNL     1      49.647  26.703  51.280  0.00  0.00    +0.000 Cl
ATOM     16  C   UNL     1      47.684  27.578  49.626  0.00  0.00    +0.000 A 
ATOM     17  H   UNL     1      47.436  26.546  49.509  0.00  0.00    +0.000 HD
ENDBRANCH   4  10
BRANCH   1  22
ATOM     18  C   UNL     1      44.573  35.785  44.721  0.00  0.00    +0.000 A 
ATOM     19  C   UNL     1      45.275  35.577  43.507  0.00  0.00    +0.000 A 
ATOM     20  C   UNL     1      46.150  34.479  43.423  0.00  0.00    +0.000 A 
ATOM     21  N   UNL     1      46.274  33.667  44.530  0.00  0.00    +0.000 NA
ATOM     22  C   UNL     1      45.578  33.916  45.662  0.00  0.00    +0.000 A 
ATOM     23  N   UNL     1      44.727  34.969  45.767  0.00  0.00    +0.000 NA
ATOM     24  H   UNL     1      43.904  36.621  44.792  0.00  0.00    +0.000 HD
ATOM     25  H   UNL     1      45.167  36.220  42.652  0.00  0.00    +0.000 HD
ATOM     26  H   UNL     1      46.724  34.245  42.538  0.00  0.00    +0.000 HD
ENDBRANCH   1  22
TORSDOF 2
