
 OpenBabel03252502473D

 46 49  0  0  1  0  0  0  0  0999 V2000
   46.6110   35.4900   42.1880 C   0  0  0  0  0  0  0  0  0  0  0  0
   46.8830   35.9100   43.1830 H   0  0  0  0  0  0  0  0  0  0  0  0
   46.0810   36.3310   41.6740 H   0  0  0  0  0  0  0  0  0  0  0  0
   47.8390   35.0500   41.4590 C   0  0  1  0  0  0  0  0  0  0  0  0
   49.0640   35.9110   41.5600 C   0  0  0  0  0  0  0  0  0  0  0  0
   48.9690   34.5930   42.2530 C   0  0  2  0  0  0  0  0  0  0  0  0
   47.6430   34.6650   40.4630 H   0  0  0  0  0  0  0  0  0  0  0  0
   49.7280   36.0750   40.6920 H   0  0  0  0  0  0  0  0  0  0  0  0
   48.9510   36.8510   42.1660 H   0  0  0  0  0  0  0  0  0  0  0  0
   49.0520   34.6530   43.3360 H   0  0  0  0  0  0  0  0  0  0  0  0
   49.7550   33.5530   41.6030 N   0  0  0  0  0  0  0  0  0  0  0  0
   49.0000   32.6670   40.8020 C   0  0  0  0  0  0  0  0  0  0  0  0
   49.9930   31.6730   40.2270 C   0  0  0  0  0  0  0  0  0  0  0  0
   50.6300   30.9120   41.2440 N   0  0  0  0  0  0  0  0  0  0  0  0
   50.7140   31.5790   42.5300 C   0  0  0  0  0  0  0  0  0  0  0  0
   50.8710   33.0820   42.3020 C   0  0  0  0  0  0  0  0  0  0  0  0
   48.4380   33.1720   40.0190 H   0  0  0  0  0  0  0  0  0  0  0  0
   48.3130   32.0860   41.4460 H   0  0  0  0  0  0  0  0  0  0  0  0
   50.6680   32.2350   39.5520 H   0  0  0  0  0  0  0  0  0  0  0  0
   49.3890   31.0050   39.5720 H   0  0  0  0  0  0  0  0  0  0  0  0
   51.5620   30.5670   40.9180 H   0  0  0  0  0  0  0  0  0  0  0  0
   51.6650   31.1970   42.9960 H   0  0  0  0  0  0  0  0  0  0  0  0
   49.8180   31.3530   43.1110 H   0  0  0  0  0  0  0  0  0  0  0  0
   51.0950   33.6170   43.2210 H   0  0  0  0  0  0  0  0  0  0  0  0
   51.7720   33.1600   41.6280 H   0  0  0  0  0  0  0  0  0  0  0  0
   45.7420   34.2800   42.3570 C   0  0  0  0  0  0  0  0  0  0  0  0
   45.9440   33.4290   41.7260 H   0  0  0  0  0  0  0  0  0  0  0  0
   44.6940   34.5970   42.0840 H   0  0  0  0  0  0  0  0  0  0  0  0
   44.9290   34.5610   46.0090 C   0  0  0  0  0  0  0  0  0  0  0  0
   45.0110   34.8810   44.6290 C   0  0  0  0  0  0  0  0  0  0  0  0
   45.6350   33.9730   43.8210 C   0  0  0  0  0  0  0  0  0  0  0  0
   46.1370   32.8310   44.3550 N   0  0  0  0  0  0  0  0  0  0  0  0
   46.0540   32.5480   45.6350 C   0  0  0  0  0  0  0  0  0  0  0  0
   45.4500   33.4090   46.4740 N   0  0  0  0  0  0  0  0  0  0  0  0
   44.4430   35.2680   46.6440 H   0  0  0  0  0  0  0  0  0  0  0  0
   44.6150   35.7840   44.2070 H   0  0  0  0  0  0  0  0  0  0  0  0
   44.7800   31.5260   48.2010 Cl  0  0  0  0  0  0  0  0  0  0  0  0
   46.0990   30.7600   47.3590 C   0  0  0  0  0  0  0  0  0  0  0  0
   46.5970   31.3160   46.1990 C   0  0  0  0  0  0  0  0  0  0  0  0
   47.6420   30.6370   45.6050 C   0  0  0  0  0  0  0  0  0  0  0  0
   48.0790   31.0290   44.6840 H   0  0  0  0  0  0  0  0  0  0  0  0
   48.2000   29.4680   46.0900 C   0  0  0  0  0  3  0  0  0  0  0  0
   47.6520   28.9690   47.2540 C   0  0  0  0  0  0  0  0  0  0  0  0
   48.3720   27.4780   47.8620 Cl  0  0  0  0  0  0  0  0  0  0  0  0
   46.5930   29.5920   47.9210 C   0  0  0  0  0  0  0  0  0  0  0  0
   46.2410   29.1280   48.8110 H   0  0  0  0  0  0  0  0  0  0  0  0
  1 26  1  0  0  0  0
  1  2  1  0  0  0  0
  3  1  1  0  0  0  0
  4  7  1  6  0  0  0
  4  5  1  0  0  0  0
  4  1  1  0  0  0  0
  4  6  1  0  0  0  0
  5  9  1  0  0  0  0
  5  6  1  0  0  0  0
  6 10  1  1  0  0  0
  8  5  1  0  0  0  0
 11  6  1  0  0  0  0
 11 16  1  0  0  0  0
 12 18  1  0  0  0  0
 12 11  1  0  0  0  0
 13 12  1  0  0  0  0
 13 14  1  0  0  0  0
 14 15  1  0  0  0  0
 15 22  1  0  0  0  0
 15 23  1  0  0  0  0
 16 15  1  0  0  0  0
 16 24  1  0  0  0  0
 17 12  1  0  0  0  0
 19 13  1  0  0  0  0
 20 13  1  0  0  0  0
 21 14  1  0  0  0  0
 25 16  1  0  0  0  0
 26 31  1  0  0  0  0
 27 26  1  0  0  0  0
 28 26  1  0  0  0  0
 29 34  1  0  0  0  0
 29 35  1  0  0  0  0
 30 29  2  0  0  0  0
 31 32  2  0  0  0  0
 31 30  1  0  0  0  0
 32 33  1  0  0  0  0
 33 39  1  0  0  0  0
 33 34  2  0  0  0  0
 36 30  1  0  0  0  0
 38 45  1  0  0  0  0
 38 37  1  0  0  0  0
 39 38  2  0  0  0  0
 40 42  2  0  0  0  0
 40 39  1  0  0  0  0
 41 40  1  0  0  0  0
 42 43  1  0  0  0  0
 43 44  1  0  0  0  0
 43 45  2  0  0  0  0
 45 46  1  0  0  0  0
M  END
>  <minimizedAffinity>
-5.521945

>  <minimizedRMSD>
2.08514142

$$$$
