
 OpenBabel03242523533D

 46 49  0  0  1  0  0  0  0  0999 V2000
   42.7980   34.4700   38.7500 C   0  0  1  0  0  0  0  0  0  0  0  0
   42.9840   35.1640   40.0890 C   0  0  1  0  0  0  0  0  0  0  0  0
   41.7050   35.4420   40.6200 O   0  0  0  0  0  0  0  0  0  0  0  0
   40.7760   35.7850   39.6340 C   0  0  0  0  0  0  0  0  0  0  0  0
   40.4220   34.6050   38.7490 C   0  0  2  0  0  0  0  0  0  0  0  0
   41.6040   33.5870   38.8970 C   0  0  1  0  0  0  0  0  0  0  0  0
   43.7190   33.9220   38.4600 H   0  0  0  0  0  0  0  0  0  0  0  0
   43.5970   36.0710   40.0300 H   0  0  0  0  0  0  0  0  0  0  0  0
   41.0990   36.6630   39.0400 H   0  0  0  0  0  0  0  0  0  0  0  0
   39.8650   36.0590   40.1820 H   0  0  0  0  0  0  0  0  0  0  0  0
   39.4830   34.0980   39.0460 H   0  0  0  0  0  0  0  0  0  0  0  0
   41.3950   33.3650   39.9940 H   0  0  0  0  0  0  0  0  0  0  0  0
   42.5990   35.4080   37.7250 O   0  0  0  0  0  0  0  0  0  0  0  0
   43.2540   36.1460   37.8070 H   0  0  0  0  0  0  0  0  0  0  0  0
   40.4370   34.9900   37.4210 O   0  0  0  0  0  0  0  0  0  0  0  0
   39.6080   35.4810   37.2190 H   0  0  0  0  0  0  0  0  0  0  0  0
   43.4930   34.1790   40.9490 O   0  0  0  0  0  0  0  0  0  0  0  0
   44.5970   34.3110   41.6930 C   0  0  0  0  0  0  0  0  0  0  0  0
   45.8600   34.4330   41.0950 C   0  0  0  0  0  0  0  0  0  0  0  0
   46.9730   34.5670   41.9050 C   0  0  0  0  0  0  0  0  0  0  0  0
   46.8100   34.5790   43.2770 N   0  0  0  0  0  0  0  0  0  0  0  0
   45.5760   34.4580   43.8220 C   0  0  0  0  0  0  0  0  0  0  0  0
   44.4790   34.3260   43.0320 N   0  0  0  0  0  0  0  0  0  0  0  0
   45.9960   34.4240   40.0130 H   0  0  0  0  0  0  0  0  0  0  0  0
   45.4940   34.4720   44.8990 H   0  0  0  0  0  0  0  0  0  0  0  0
   48.3530   34.6790   41.3340 C   0  0  0  0  0  0  0  0  0  0  0  0
   49.0630   36.0180   41.5200 C   0  0  0  0  0  0  0  0  0  0  0  0
   49.4990   34.6990   42.1870 C   0  0  0  0  0  0  0  0  0  0  0  0
   48.4250   34.2410   40.3030 H   0  0  0  0  0  0  0  0  0  0  0  0
   49.7230   36.3020   40.6780 H   0  0  0  0  0  0  0  0  0  0  0  0
   48.5650   36.7820   42.1330 H   0  0  0  0  0  0  0  0  0  0  0  0
   50.4880   34.2970   41.9360 H   0  0  0  0  0  0  0  0  0  0  0  0
   49.3260   34.7190   43.2940 H   0  0  0  0  0  0  0  0  0  0  0  0
   41.4280   32.6220   37.9790 O   0  0  0  0  0  0  0  0  0  0  0  0
   40.7110   31.4950   37.9960 C   0  0  0  0  0  0  0  0  0  0  0  0
   39.5170   31.4360   37.4090 O   0  0  0  0  0  0  0  0  0  0  0  0
   39.9580   31.0170   40.8890 Cl  0  0  0  0  0  0  0  0  0  0  0  0
   40.6770   29.7640   39.8790 C   0  0  0  0  0  0  0  0  0  0  0  0
   40.9740   30.1290   38.5840 C   0  0  0  0  0  0  0  0  0  0  0  0
   41.5290   29.1010   37.8650 C   0  0  0  0  0  0  0  0  0  0  0  0
   41.8140   29.2430   36.8250 H   0  0  0  0  0  0  0  0  0  0  0  0
   41.7580   27.8650   38.3760 C   0  0  0  0  0  3  0  0  0  0  0  0
   41.4360   27.5820   39.6680 C   0  0  0  0  0  0  0  0  0  0  0  0
   41.7310   25.9970   40.3180 Cl  0  0  0  0  0  0  0  0  0  0  0  0
   40.8730   28.5460   40.4750 C   0  0  0  0  0  0  0  0  0  0  0  0
   40.6040   28.3760   41.4930 H   0  0  0  0  0  0  0  0  0  0  0  0
  1  7  1  6  0  0  0
  1  6  1  0  0  0  0
  1  2  1  0  0  0  0
  2  8  1  6  0  0  0
  2  3  1  0  0  0  0
  2 17  1  0  0  0  0
  4 10  1  0  0  0  0
  4  3  1  0  0  0  0
  5  6  1  0  0  0  0
  5 11  1  1  0  0  0
  5  4  1  0  0  0  0
  6 12  1  1  0  0  0
  9  4  1  0  0  0  0
 13 14  1  0  0  0  0
 13  1  1  0  0  0  0
 15  5  1  0  0  0  0
 16 15  1  0  0  0  0
 17 18  1  0  0  0  0
 18 23  1  0  0  0  0
 19 18  2  0  0  0  0
 19 20  1  0  0  0  0
 20 21  2  0  0  0  0
 21 22  1  0  0  0  0
 22 25  1  0  0  0  0
 23 22  2  0  0  0  0
 24 19  1  0  0  0  0
 26 27  1  0  0  0  0
 26 20  1  0  0  0  0
 26 28  1  0  0  0  0
 27 31  1  0  0  0  0
 27 28  1  0  0  0  0
 28 33  1  0  0  0  0
 29 26  1  0  0  0  0
 30 27  1  0  0  0  0
 32 28  1  0  0  0  0
 34 35  1  0  0  0  0
 34  6  1  0  0  0  0
 35 39  1  0  0  0  0
 36 35  2  0  0  0  0
 38 45  1  0  0  0  0
 38 37  1  0  0  0  0
 39 38  2  0  0  0  0
 40 42  2  0  0  0  0
 40 39  1  0  0  0  0
 41 40  1  0  0  0  0
 42 43  1  0  0  0  0
 43 44  1  0  0  0  0
 43 45  2  0  0  0  0
 45 46  1  0  0  0  0
M  END
>  <minimizedAffinity>
-5.8227849

>  <minimizedRMSD>
0.485285759

$$$$
