REMARK  Name = 
REMARK  4 active torsions:
REMARK  status: ('A' for Active; 'I' for Inactive)
REMARK    1  A    between atoms: C_1  and  C_10
REMARK    2  A    between atoms: C_6  and  C_18
REMARK    3  A    between atoms: C_7  and  C_16
REMARK    4  A    between atoms: C_18  and  C_37
REMARK                            x       y       z     vdW  Elec       q    Type
REMARK                         _______ _______ _______ _____ _____    ______ ____
ROOT
ATOM      1  C   UNL     1      47.555  29.982  48.275  0.00  0.00    +0.000 C 
ATOM      2  C   UNL     1      47.451  28.782  47.379  0.00  0.00    +0.000 C 
ATOM      3  C   UNL     1      48.763  28.055  47.172  0.00  0.00    +0.000 C 
ATOM      4  C   UNL     1      49.514  27.853  48.453  0.00  0.00    +0.000 C 
ATOM      5  C   UNL     1      49.571  29.098  49.280  0.00  0.00    +0.000 C 
ATOM      6  C   UNL     1      49.051  30.317  48.470  0.00  0.00    +0.000 C 
ATOM      7  H   UNL     1      47.175  29.735  49.267  0.00  0.00    +0.000 HD
ATOM      8  H   UNL     1      47.081  29.087  46.390  0.00  0.00    +0.000 HD
ATOM      9  H   UNL     1      46.747  28.042  47.815  0.00  0.00    +0.000 HD
ATOM     10  H   UNL     1      48.506  27.077  46.768  0.00  0.00    +0.000 HD
ATOM     11  H   UNL     1      49.380  28.556  46.379  0.00  0.00    +0.000 HD
ATOM     12  H   UNL     1      49.090  27.006  49.019  0.00  0.00    +0.000 HD
ATOM     13  H   UNL     1      50.557  27.548  48.152  0.00  0.00    +0.000 HD
ATOM     14  H   UNL     1      50.617  29.362  49.533  0.00  0.00    +0.000 HD
ATOM     15  H   UNL     1      48.969  29.063  50.196  0.00  0.00    +0.000 HD
ATOM     16  H   UNL     1      49.568  30.285  47.484  0.00  0.00    +0.000 HD
ENDROOT
BRANCH   1  20
ATOM     17  C   UNL     1      45.907  33.131  46.241  0.00  0.00    +0.000 A 
ATOM     18  C   UNL     1      45.322  32.933  47.489  0.00  0.00    +0.000 A 
ATOM     19  C   UNL     1      45.788  31.925  48.236  0.00  0.00    +0.000 A 
ATOM     20  C   UNL     1      46.837  31.101  47.763  0.00  0.00    +0.000 A 
ATOM     21  S   UNL     1      47.191  31.808  46.117  0.00  0.00    +0.000 S 
ATOM     22  H   UNL     1      44.522  33.571  47.838  0.00  0.00    +0.000 HD
ATOM     23  H   UNL     1      45.452  31.633  49.218  0.00  0.00    +0.000 HD
BRANCH  17  28
ATOM     24  C   UNL     1      44.460  36.120  44.557  0.00  0.00    +0.000 A 
ATOM     25  C   UNL     1      45.053  36.027  43.300  0.00  0.00    +0.000 A 
ATOM     26  C   UNL     1      45.932  34.946  43.073  0.00  0.00    +0.000 A 
ATOM     27  N   UNL     1      46.145  34.056  44.107  0.00  0.00    +0.000 NA
ATOM     28  C   UNL     1      45.541  34.203  45.297  0.00  0.00    +0.000 A 
ATOM     29  N   UNL     1      44.691  35.247  45.518  0.00  0.00    +0.000 NA
ATOM     30  H   UNL     1      43.783  36.939  44.757  0.00  0.00    +0.000 HD
ATOM     31  H   UNL     1      44.879  36.729  42.497  0.00  0.00    +0.000 HD
ATOM     32  H   UNL     1      46.440  34.786  42.133  0.00  0.00    +0.000 HD
ENDBRANCH  17  28
ENDBRANCH   1  20
BRANCH   6  33
ATOM     33  C   UNL     1      49.240  31.531  49.212  0.00  0.00    +0.000 C 
ATOM     34  O   UNL     1      49.947  31.552  50.216  0.00  0.00    +0.000 OA
BRANCH  33  37
ATOM     35 CL   UNL     1      50.486  32.497  52.031  0.00  0.00    +0.000 Cl
ATOM     36  C   UNL     1      49.652  33.409  50.749  0.00  0.00    +0.000 A 
ATOM     37  C   UNL     1      49.118  32.880  49.557  0.00  0.00    +0.000 A 
ATOM     38  C   UNL     1      48.528  33.846  48.782  0.00  0.00    +0.000 A 
ATOM     39  H   UNL     1      48.114  33.618  47.840  0.00  0.00    +0.000 HD
ATOM     40  C   UNL     1      48.365  35.195  48.951  0.00  0.00    +0.000 A 
ATOM     41  C   UNL     1      48.922  35.584  50.140  0.00  0.00    +0.000 A 
ATOM     42 CL   UNL     1      48.842  37.288  50.590  0.00  0.00    +0.000 Cl
ATOM     43  C   UNL     1      49.554  34.791  51.051  0.00  0.00    +0.000 A 
ATOM     44  H   UNL     1      49.973  35.159  51.970  0.00  0.00    +0.000 HD
ENDBRANCH  33  37
ENDBRANCH   6  33
TORSDOF 4
