
 OpenBabel03252508503D

 29 31  0  0  0  0  0  0  0  0999 V2000
   45.9040   34.1700   41.0780 C   0  0  0  0  0  0  0  0  0  0  0  0
   46.5030   34.8010   42.1640 C   0  0  0  0  0  0  0  0  0  0  0  0
   47.8410   35.1510   42.0150 C   0  0  0  0  0  0  0  0  0  0  0  0
   48.4730   34.8600   40.8360 N   0  0  0  0  0  0  0  0  0  0  0  0
   47.8600   34.2540   39.8240 C   0  0  0  0  0  0  0  0  0  0  0  0
   46.5640   33.9040   39.9420 N   0  0  0  0  0  0  0  0  0  0  0  0
   48.3470   35.6460   42.8340 H   0  0  0  0  0  0  0  0  0  0  0  0
   48.3520   34.0210   38.8910 H   0  0  0  0  0  0  0  0  0  0  0  0
   45.7370   35.0580   43.3670 C   0  0  0  0  0  0  0  0  0  0  0  0
   45.0680   36.2350   43.6050 C   0  0  0  0  0  0  0  0  0  0  0  0
   44.4930   36.0350   44.8480 C   0  0  0  0  0  0  0  0  0  0  0  0
   44.7970   34.8030   45.3350 N   0  0  0  0  0  0  0  0  0  0  0  0
   45.5460   34.2430   44.4200 N   0  0  0  0  0  0  0  0  0  0  0  0
   45.0020   37.1100   42.9780 H   0  0  0  0  0  0  0  0  0  0  0  0
   43.8720   36.7850   45.3630 H   0  0  0  0  0  0  0  0  0  0  0  0
   44.4650   34.4430   46.2620 H   0  0  0  0  0  0  0  0  0  0  0  0
   44.5730   33.8030   41.1840 O   0  0  0  0  0  0  0  0  0  0  0  0
   43.4850   34.4880   40.7260 C   0  0  0  0  0  0  0  0  0  0  0  0
   43.3530   35.7630   40.6350 O   0  0  0  0  0  0  0  0  0  0  0  0
   43.6130   33.0320   38.0720 Cl  0  0  0  0  0  0  0  0  0  0  0  0
   42.1720   33.1240   39.0610 C   0  0  0  0  0  0  0  0  0  0  0  0
   42.2400   33.8170   40.2490 C   0  0  0  0  0  0  0  0  0  0  0  0
   41.0530   33.8240   40.9430 C   0  0  0  0  0  0  0  0  0  0  0  0
   41.0040   34.3450   41.8960 H   0  0  0  0  0  0  0  0  0  0  0  0
   39.8970   33.2110   40.5180 C   0  0  0  0  0  3  0  0  0  0  0  0
   39.9130   32.5410   39.3210 C   0  0  0  0  0  0  0  0  0  0  0  0
   38.4410   31.7670   38.7900 Cl  0  0  0  0  0  0  0  0  0  0  0  0
   41.0620   32.4840   38.5620 C   0  0  0  0  0  0  0  0  0  0  0  0
   41.0760   31.9560   37.6190 H   0  0  0  0  0  0  0  0  0  0  0  0
  1 17  1  0  0  0  0
  1  2  1  0  0  0  0
  2  9  1  0  0  0  0
  3  2  2  0  0  0  0
  3  7  1  0  0  0  0
  4  3  1  0  0  0  0
  5  6  1  0  0  0  0
  5  4  2  0  0  0  0
  6  1  2  0  0  0  0
  8  5  1  0  0  0  0
  9 10  1  0  0  0  0
  9 13  2  0  0  0  0
 10 11  2  0  0  0  0
 11 12  1  0  0  0  0
 11 15  1  0  0  0  0
 12 16  1  0  0  0  0
 13 12  1  0  0  0  0
 14 10  1  0  0  0  0
 18 17  1  0  0  0  0
 19 18  2  0  0  0  0
 20 21  1  0  0  0  0
 21 22  1  0  0  0  0
 22 18  1  0  0  0  0
 22 23  2  0  0  0  0
 23 24  1  0  0  0  0
 25 23  1  0  0  0  0
 26 25  2  0  0  0  0
 27 26  1  0  0  0  0
 28 21  2  0  0  0  0
 28 26  1  0  0  0  0
 29 28  1  0  0  0  0
M  END
>  <minimizedAffinity>
-5.61451769

>  <minimizedRMSD>
1.0994662

$$$$
