
 OpenBabel03252508503D

 29 31  0  0  0  0  0  0  0  0999 V2000
   45.7930   34.1530   41.0450 C   0  0  0  0  0  0  0  0  0  0  0  0
   46.4230   34.7820   42.1140 C   0  0  0  0  0  0  0  0  0  0  0  0
   47.7600   35.1200   41.9330 C   0  0  0  0  0  0  0  0  0  0  0  0
   48.3620   34.8200   40.7410 N   0  0  0  0  0  0  0  0  0  0  0  0
   47.7200   34.2170   39.7450 C   0  0  0  0  0  0  0  0  0  0  0  0
   46.4230   33.8780   39.8950 N   0  0  0  0  0  0  0  0  0  0  0  0
   48.2890   35.6130   42.7380 H   0  0  0  0  0  0  0  0  0  0  0  0
   48.1880   33.9760   38.8010 H   0  0  0  0  0  0  0  0  0  0  0  0
   45.6880   35.0490   43.3340 C   0  0  0  0  0  0  0  0  0  0  0  0
   45.0690   36.2480   43.6010 C   0  0  0  0  0  0  0  0  0  0  0  0
   44.5070   36.0500   44.8510 C   0  0  0  0  0  0  0  0  0  0  0  0
   44.7720   34.8000   45.3150 N   0  0  0  0  0  0  0  0  0  0  0  0
   45.4830   34.2260   44.3780 N   0  0  0  0  0  0  0  0  0  0  0  0
   45.0260   37.1340   42.9890 H   0  0  0  0  0  0  0  0  0  0  0  0
   43.9240   36.8150   45.3880 H   0  0  0  0  0  0  0  0  0  0  0  0
   44.4420   34.4380   46.2410 H   0  0  0  0  0  0  0  0  0  0  0  0
   44.4620   33.7980   41.1830 O   0  0  0  0  0  0  0  0  0  0  0  0
   43.3680   34.5100   40.7820 C   0  0  0  0  0  0  0  0  0  0  0  0
   43.2080   35.7840   40.8370 O   0  0  0  0  0  0  0  0  0  0  0  0
   42.4080   35.5240   38.0920 Cl  0  0  0  0  0  0  0  0  0  0  0  0
   41.6150   34.2470   38.9890 C   0  0  0  0  0  0  0  0  0  0  0  0
   42.1490   33.8740   40.2020 C   0  0  0  0  0  0  0  0  0  0  0  0
   41.4470   32.8630   40.8170 C   0  0  0  0  0  0  0  0  0  0  0  0
   41.7900   32.4970   41.7820 H   0  0  0  0  0  0  0  0  0  0  0  0
   40.3220   32.2670   40.2980 C   0  0  0  0  0  3  0  0  0  0  0  0
   39.8540   32.6970   39.0810 C   0  0  0  0  0  0  0  0  0  0  0  0
   38.4250   31.9330   38.4310 Cl  0  0  0  0  0  0  0  0  0  0  0  0
   40.4980   33.7060   38.3970 C   0  0  0  0  0  0  0  0  0  0  0  0
   40.1310   34.0450   37.4390 H   0  0  0  0  0  0  0  0  0  0  0  0
  1 17  1  0  0  0  0
  1  2  1  0  0  0  0
  2  9  1  0  0  0  0
  3  2  2  0  0  0  0
  3  7  1  0  0  0  0
  4  3  1  0  0  0  0
  5  6  1  0  0  0  0
  5  4  2  0  0  0  0
  6  1  2  0  0  0  0
  8  5  1  0  0  0  0
  9 10  1  0  0  0  0
  9 13  2  0  0  0  0
 10 11  2  0  0  0  0
 11 12  1  0  0  0  0
 11 15  1  0  0  0  0
 12 16  1  0  0  0  0
 13 12  1  0  0  0  0
 14 10  1  0  0  0  0
 18 19  2  0  0  0  0
 18 17  1  0  0  0  0
 20 21  1  0  0  0  0
 21 22  1  0  0  0  0
 22 18  1  0  0  0  0
 22 23  2  0  0  0  0
 23 24  1  0  0  0  0
 25 23  1  0  0  0  0
 26 25  2  0  0  0  0
 27 26  1  0  0  0  0
 28 21  2  0  0  0  0
 28 26  1  0  0  0  0
 29 28  1  0  0  0  0
M  END
>  <minimizedAffinity>
-5.81105471

>  <minimizedRMSD>
1.03450429

$$$$
