REMARK  Name = 
REMARK  4 active torsions:
REMARK  status: ('A' for Active; 'I' for Inactive)
REMARK    1  A    between atoms: C_1  and  O_12
REMARK    2  A    between atoms: C_2  and  C_7
REMARK    3  A    between atoms: O_12  and  C_13
REMARK    4  A    between atoms: C_13  and  C_22
REMARK                            x       y       z     vdW  Elec       q    Type
REMARK                         _______ _______ _______ _____ _____    ______ ____
ROOT
ATOM      1  C   UNL     1      46.084  34.161  41.013  0.00  0.00    +0.000 A 
ATOM      2  C   UNL     1      46.615  34.841  42.105  0.00  0.00    +0.000 A 
ATOM      3  C   UNL     1      47.929  35.279  41.982  0.00  0.00    +0.000 A 
ATOM      4  N   UNL     1      48.606  35.021  40.821  0.00  0.00    +0.000 NA
ATOM      5  C   UNL     1      48.058  34.366  39.802  0.00  0.00    +0.000 A 
ATOM      6  N   UNL     1      46.786  33.930  39.895  0.00  0.00    +0.000 NA
ATOM      7  H   UNL     1      48.382  35.814  42.807  0.00  0.00    +0.000 HD
ATOM      8  H   UNL     1      48.586  34.158  38.882  0.00  0.00    +0.000 HD
ENDROOT
BRANCH   2   9
ATOM      9  C   UNL     1      45.806  35.056  43.288  0.00  0.00    +0.000 A 
ATOM     10  C   UNL     1      45.046  36.183  43.494  0.00  0.00    +0.000 A 
ATOM     11  C   UNL     1      44.461  35.958  44.728  0.00  0.00    +0.000 A 
ATOM     12  N   UNL     1      44.846  34.759  45.241  0.00  0.00    +0.000 N 
ATOM     13  N   UNL     1      45.654  34.244  44.350  0.00  0.00    +0.000 NA
ATOM     14  H   UNL     1      44.928  37.042  42.853  0.00  0.00    +0.000 HD
ATOM     15  H   UNL     1      43.774  36.666  45.219  0.00  0.00    +0.000 HD
ATOM     16  H   UNL     1      44.522  34.388  46.166  0.00  0.00    +0.000 HD
ENDBRANCH   2   9
BRANCH   1  17
ATOM     17  O   UNL     1      44.779  33.706  41.093  0.00  0.00    +0.000 OA
BRANCH  17  18
ATOM     18  C   UNL     1      43.690  34.188  40.425  0.00  0.00    +0.000 C 
ATOM     19  O   UNL     1      43.252  35.396  40.425  0.00  0.00    +0.000 OA
BRANCH  18  22
ATOM     20 CL   UNL     1      43.901  31.185  40.772  0.00  0.00    +0.000 Cl
ATOM     21  C   UNL     1      42.823  31.959  39.630  0.00  0.00    +0.000 A 
ATOM     22  C   UNL     1      42.818  33.335  39.566  0.00  0.00    +0.000 A 
ATOM     23  C   UNL     1      41.935  33.833  38.637  0.00  0.00    +0.000 A 
ATOM     24  H   UNL     1      41.857  34.910  38.511  0.00  0.00    +0.000 HD
ATOM     25  C   UNL     1      41.126  33.060  37.837  0.00  0.00    +0.000 A 
ATOM     26  C   UNL     1      41.192  31.695  37.962  0.00  0.00    +0.000 A 
ATOM     27 CL   UNL     1      40.161  30.723  36.942  0.00  0.00    +0.000 Cl
ATOM     28  C   UNL     1      42.050  31.113  38.870  0.00  0.00    +0.000 A 
ATOM     29  H   UNL     1      42.103  30.038  38.970  0.00  0.00    +0.000 HD
ENDBRANCH  18  22
ENDBRANCH  17  18
ENDBRANCH   1  17
TORSDOF 4
