
 OpenBabel03252508493D

 29 31  0  0  0  0  0  0  0  0999 V2000
   45.7690   34.2390   41.0080 C   0  0  0  0  0  0  0  0  0  0  0  0
   46.4240   34.7580   42.1210 C   0  0  0  0  0  0  0  0  0  0  0  0
   47.7900   34.9780   41.9880 C   0  0  0  0  0  0  0  0  0  0  0  0
   48.3960   34.6780   40.7980 N   0  0  0  0  0  0  0  0  0  0  0  0
   47.7300   34.1820   39.7600 C   0  0  0  0  0  0  0  0  0  0  0  0
   46.4040   33.9590   39.8620 N   0  0  0  0  0  0  0  0  0  0  0  0
   48.3400   35.3830   42.8290 H   0  0  0  0  0  0  0  0  0  0  0  0
   48.2000   33.9420   38.8170 H   0  0  0  0  0  0  0  0  0  0  0  0
   45.6810   35.0370   43.3340 C   0  0  0  0  0  0  0  0  0  0  0  0
   45.1350   36.2640   43.6250 C   0  0  0  0  0  0  0  0  0  0  0  0
   44.5360   36.0680   44.8580 C   0  0  0  0  0  0  0  0  0  0  0  0
   44.7100   34.7910   45.2890 N   0  0  0  0  0  0  0  0  0  0  0  0
   45.4030   34.1990   44.3490 N   0  0  0  0  0  0  0  0  0  0  0  0
   45.1620   37.1690   43.0400 H   0  0  0  0  0  0  0  0  0  0  0  0
   43.9920   36.8540   45.4070 H   0  0  0  0  0  0  0  0  0  0  0  0
   44.3380   34.4250   46.1980 H   0  0  0  0  0  0  0  0  0  0  0  0
   44.4080   34.0030   41.0970 O   0  0  0  0  0  0  0  0  0  0  0  0
   43.3950   34.8520   40.7550 C   0  0  0  0  0  0  0  0  0  0  0  0
   43.2910   36.0970   41.0540 O   0  0  0  0  0  0  0  0  0  0  0  0
   41.9320   32.3500   41.6420 Cl  0  0  0  0  0  0  0  0  0  0  0  0
   41.4670   33.3080   40.2530 C   0  0  0  0  0  0  0  0  0  0  0  0
   42.2120   34.4260   39.9510 C   0  0  0  0  0  0  0  0  0  0  0  0
   41.7560   35.0990   38.8420 C   0  0  0  0  0  0  0  0  0  0  0  0
   42.2790   35.9980   38.5220 H   0  0  0  0  0  0  0  0  0  0  0  0
   40.6690   34.7200   38.0910 C   0  0  0  0  0  3  0  0  0  0  0  0
   39.9800   33.5910   38.4580 C   0  0  0  0  0  0  0  0  0  0  0  0
   38.6020   33.1180   37.4970 Cl  0  0  0  0  0  0  0  0  0  0  0  0
   40.3690   32.8570   39.5580 C   0  0  0  0  0  0  0  0  0  0  0  0
   39.8280   31.9680   39.8480 H   0  0  0  0  0  0  0  0  0  0  0  0
  1 17  1  0  0  0  0
  1  2  1  0  0  0  0
  2  9  1  0  0  0  0
  3  2  2  0  0  0  0
  3  7  1  0  0  0  0
  4  3  1  0  0  0  0
  5  6  1  0  0  0  0
  5  4  2  0  0  0  0
  6  1  2  0  0  0  0
  8  5  1  0  0  0  0
  9 10  1  0  0  0  0
  9 13  2  0  0  0  0
 10 11  2  0  0  0  0
 11 12  1  0  0  0  0
 11 15  1  0  0  0  0
 12 16  1  0  0  0  0
 13 12  1  0  0  0  0
 14 10  1  0  0  0  0
 18 19  2  0  0  0  0
 18 17  1  0  0  0  0
 21 20  1  0  0  0  0
 22 21  1  0  0  0  0
 22 18  1  0  0  0  0
 23 22  2  0  0  0  0
 24 23  1  0  0  0  0
 25 26  2  0  0  0  0
 25 23  1  0  0  0  0
 26 28  1  0  0  0  0
 27 26  1  0  0  0  0
 28 29  1  0  0  0  0
 28 21  2  0  0  0  0
M  END
>  <minimizedAffinity>
-5.96463156

>  <minimizedRMSD>
1.26928341

$$$$
