
 OpenBabel03252508493D

 29 31  0  0  0  0  0  0  0  0999 V2000
   45.7680   34.2390   41.0090 C   0  0  0  0  0  0  0  0  0  0  0  0
   46.4230   34.7580   42.1220 C   0  0  0  0  0  0  0  0  0  0  0  0
   47.7890   34.9780   41.9890 C   0  0  0  0  0  0  0  0  0  0  0  0
   48.3940   34.6770   40.7990 N   0  0  0  0  0  0  0  0  0  0  0  0
   47.7280   34.1810   39.7610 C   0  0  0  0  0  0  0  0  0  0  0  0
   46.4030   33.9580   39.8630 N   0  0  0  0  0  0  0  0  0  0  0  0
   48.3390   35.3830   42.8290 H   0  0  0  0  0  0  0  0  0  0  0  0
   48.1990   33.9400   38.8180 H   0  0  0  0  0  0  0  0  0  0  0  0
   45.6800   35.0370   43.3350 C   0  0  0  0  0  0  0  0  0  0  0  0
   45.1350   36.2650   43.6260 C   0  0  0  0  0  0  0  0  0  0  0  0
   44.5360   36.0700   44.8580 C   0  0  0  0  0  0  0  0  0  0  0  0
   44.7090   34.7920   45.2890 N   0  0  0  0  0  0  0  0  0  0  0  0
   45.4010   34.2000   44.3500 N   0  0  0  0  0  0  0  0  0  0  0  0
   45.1620   37.1700   43.0400 H   0  0  0  0  0  0  0  0  0  0  0  0
   43.9910   36.8550   45.4070 H   0  0  0  0  0  0  0  0  0  0  0  0
   44.3370   34.4260   46.1980 H   0  0  0  0  0  0  0  0  0  0  0  0
   44.4060   34.0030   41.0980 O   0  0  0  0  0  0  0  0  0  0  0  0
   43.3930   34.8520   40.7560 C   0  0  0  0  0  0  0  0  0  0  0  0
   43.2900   36.0970   41.0540 O   0  0  0  0  0  0  0  0  0  0  0  0
   41.9320   32.3490   41.6430 Cl  0  0  0  0  0  0  0  0  0  0  0  0
   41.4660   33.3070   40.2540 C   0  0  0  0  0  0  0  0  0  0  0  0
   42.2110   34.4260   39.9520 C   0  0  0  0  0  0  0  0  0  0  0  0
   41.7560   35.0990   38.8430 C   0  0  0  0  0  0  0  0  0  0  0  0
   42.2770   35.9970   38.5230 H   0  0  0  0  0  0  0  0  0  0  0  0
   40.6680   34.7190   38.0900 C   0  0  0  0  0  3  0  0  0  0  0  0
   39.9800   33.5910   38.4590 C   0  0  0  0  0  0  0  0  0  0  0  0
   38.6010   33.1160   37.4970 Cl  0  0  0  0  0  0  0  0  0  0  0  0
   40.3690   32.8560   39.5580 C   0  0  0  0  0  0  0  0  0  0  0  0
   39.8270   31.9670   39.8480 H   0  0  0  0  0  0  0  0  0  0  0  0
  1 17  1  0  0  0  0
  1  2  1  0  0  0  0
  2  9  1  0  0  0  0
  3  2  2  0  0  0  0
  3  7  1  0  0  0  0
  4  3  1  0  0  0  0
  5  6  1  0  0  0  0
  5  4  2  0  0  0  0
  6  1  2  0  0  0  0
  8  5  1  0  0  0  0
  9 10  1  0  0  0  0
  9 13  2  0  0  0  0
 10 11  2  0  0  0  0
 11 12  1  0  0  0  0
 11 15  1  0  0  0  0
 12 16  1  0  0  0  0
 13 12  1  0  0  0  0
 14 10  1  0  0  0  0
 18 19  2  0  0  0  0
 18 17  1  0  0  0  0
 21 20  1  0  0  0  0
 22 21  1  0  0  0  0
 22 18  1  0  0  0  0
 23 22  2  0  0  0  0
 24 23  1  0  0  0  0
 25 26  2  0  0  0  0
 25 23  1  0  0  0  0
 26 28  1  0  0  0  0
 27 26  1  0  0  0  0
 28 29  1  0  0  0  0
 28 21  2  0  0  0  0
M  END
>  <minimizedAffinity>
-5.96382618

>  <minimizedRMSD>
1.2087847

$$$$
