
 OpenBabel03252502273D

 36 38  0  0  0  0  0  0  0  0999 V2000
   45.0740   34.4950   41.3120 C   0  0  0  0  0  0  0  0  0  0  0  0
   45.3920   35.2150   42.4520 C   0  0  0  0  0  0  0  0  0  0  0  0
   46.7280   35.5090   42.7080 C   0  0  0  0  0  0  0  0  0  0  0  0
   47.6940   35.0880   41.8410 C   0  0  0  0  0  0  0  0  0  0  0  0
   47.4070   34.3700   40.6980 C   0  0  0  0  0  0  0  0  0  0  0  0
   46.0580   34.0900   40.4680 C   0  0  0  0  0  0  0  0  0  0  0  0
   44.6360   35.5550   43.1480 H   0  0  0  0  0  0  0  0  0  0  0  0
   46.9880   36.0660   43.5880 H   0  0  0  0  0  0  0  0  0  0  0  0
   48.7310   35.3320   42.0680 H   0  0  0  0  0  0  0  0  0  0  0  0
   48.1590   34.0230   39.9920 H   0  0  0  0  0  0  0  0  0  0  0  0
   41.4050   34.7690   40.4710 C   0  0  0  0  0  0  0  0  0  0  0  0
   42.7580   35.1440   40.6350 C   0  0  0  0  0  0  0  0  0  0  0  0
   43.6600   34.2250   41.1040 C   0  0  0  0  0  0  0  0  0  0  0  0
   43.1920   32.9840   41.3890 N   0  0  0  0  0  0  0  0  0  0  0  0
   41.8990   32.6270   41.2320 C   0  0  0  0  0  0  0  0  0  0  0  0
   41.0010   33.5170   40.7730 N   0  0  0  0  0  0  0  0  0  0  0  0
   43.0980   36.1340   40.4010 H   0  0  0  0  0  0  0  0  0  0  0  0
   41.5640   31.6200   41.4740 H   0  0  0  0  0  0  0  0  0  0  0  0
   40.4240   35.7480   39.9660 C   0  0  0  0  0  0  0  0  0  0  0  0
   39.2610   35.0480   39.6510 F   0  0  0  0  0  0  0  0  0  0  0  0
   40.9110   36.2270   38.7590 F   0  0  0  0  0  0  0  0  0  0  0  0
   40.1430   36.7480   40.8640 F   0  0  0  0  0  0  0  0  0  0  0  0
   46.0470   32.2150   38.6500 C   0  0  0  0  0  0  0  0  0  0  0  0
   46.9990   31.5060   38.9480 O   0  0  0  0  0  0  0  0  0  0  0  0
   45.6160   33.3700   39.3380 N   0  0  0  0  0  0  0  0  0  0  0  0
   44.7520   33.8760   38.9730 H   0  0  0  0  0  0  0  0  0  0  0  0
   43.9450   30.2860   39.3480 Cl  0  0  0  0  0  0  0  0  0  0  0  0
   44.3230   30.8770   37.7360 C   0  0  0  0  0  0  0  0  0  0  0  0
   45.3180   31.7800   37.4610 C   0  0  0  0  0  0  0  0  0  0  0  0
   45.5660   32.2110   36.1540 C   0  0  0  0  0  0  0  0  0  0  0  0
   46.3670   32.9200   36.0340 H   0  0  0  0  0  0  0  0  0  0  0  0
   44.7980   31.7180   35.1210 C   0  0  0  0  0  3  0  0  0  0  0  0
   43.8100   30.8170   35.4220 C   0  0  0  0  0  0  0  0  0  0  0  0
   42.8520   30.2100   34.0950 Cl  0  0  0  0  0  0  0  0  0  0  0  0
   43.5470   30.3780   36.7080 C   0  0  0  0  0  0  0  0  0  0  0  0
   42.7570   29.6650   36.8990 H   0  0  0  0  0  0  0  0  0  0  0  0
  1  2  1  0  0  0  0
  2  3  2  0  0  0  0
  2  7  1  0  0  0  0
  3  8  1  0  0  0  0
  4  9  1  0  0  0  0
  4  3  1  0  0  0  0
  5  4  2  0  0  0  0
  6  5  1  0  0  0  0
  6  1  2  0  0  0  0
 10  5  1  0  0  0  0
 11 12  2  0  0  0  0
 11 16  1  0  0  0  0
 12 13  1  0  0  0  0
 13  1  1  0  0  0  0
 13 14  2  0  0  0  0
 15 14  1  0  0  0  0
 15 18  1  0  0  0  0
 16 15  2  0  0  0  0
 17 12  1  0  0  0  0
 19 11  1  0  0  0  0
 19 22  1  0  0  0  0
 20 19  1  0  0  0  0
 21 19  1  0  0  0  0
 23 24  2  0  0  0  0
 23 25  1  0  0  0  0
 25  6  1  0  0  0  0
 26 25  1  0  0  0  0
 28 27  1  0  0  0  0
 29 28  1  0  0  0  0
 29 23  1  0  0  0  0
 30 29  2  0  0  0  0
 31 30  1  0  0  0  0
 32 33  2  0  0  0  0
 32 30  1  0  0  0  0
 33 35  1  0  0  0  0
 34 33  1  0  0  0  0
 35 36  1  0  0  0  0
 35 28  2  0  0  0  0
M  END
>  <minimizedAffinity>
-6.13669682

>  <minimizedRMSD>
0.758985639

$$$$
