
 OpenBabel03242519123D

 48 51  0  0  1  0  0  0  0  0999 V2000
   39.5930   31.9410   39.6050 C   0  0  0  0  0  0  0  0  0  0  0  0
   39.4500   33.3200   39.3210 C   0  0  0  0  0  0  0  0  0  0  0  0
   38.1570   33.7670   39.4350 C   0  0  0  0  0  0  0  0  0  0  0  0
   37.0640   33.0130   39.7870 C   0  0  0  0  0  0  0  0  0  0  0  0
   37.2560   31.6710   40.0550 C   0  0  0  0  0  0  0  0  0  0  0  0
   38.5410   31.1620   39.9560 C   0  0  0  0  0  0  0  0  0  0  0  0
   38.0110   34.8230   39.2240 H   0  0  0  0  0  0  0  0  0  0  0  0
   36.0650   33.4020   39.8660 H   0  0  0  0  0  0  0  0  0  0  0  0
   36.4430   31.0270   40.3350 H   0  0  0  0  0  0  0  0  0  0  0  0
   38.9390   29.3750   41.5770 C   0  0  0  0  0  0  0  0  0  0  0  0
   38.9450   30.2430   42.5250 O   0  0  0  0  0  0  0  0  0  0  0  0
   38.7030   29.7710   40.2410 N   0  0  0  0  0  0  0  0  0  0  0  0
   38.6750   28.9490   39.5870 H   0  0  0  0  0  0  0  0  0  0  0  0
   36.4140   27.9410   42.0000 Cl  0  0  0  0  0  0  0  0  0  0  0  0
   38.0300   27.2550   42.2130 C   0  0  0  0  0  0  0  0  0  0  0  0
   39.1870   28.0000   41.9930 C   0  0  0  0  0  0  0  0  0  0  0  0
   40.4370   27.4480   42.1650 C   0  0  0  0  0  0  0  0  0  0  0  0
   41.3000   28.0720   41.9810 H   0  0  0  0  0  0  0  0  0  0  0  0
   40.4910   26.1150   42.5670 C   0  0  0  0  0  3  0  0  0  0  0  0
   39.3590   25.3650   42.7880 C   0  0  0  0  0  0  0  0  0  0  0  0
   39.4620   23.7040   43.2910 Cl  0  0  0  0  0  0  0  0  0  0  0  0
   38.1060   25.9270   42.6140 C   0  0  0  0  0  0  0  0  0  0  0  0
   37.2170   25.3380   42.7880 H   0  0  0  0  0  0  0  0  0  0  0  0
   40.5150   34.1700   38.9530 N   0  0  0  0  0  0  0  0  0  0  0  0
   40.6620   34.0490   37.9240 H   0  0  0  0  0  0  0  0  0  0  0  0
   42.0730   35.8650   41.6720 N   0  0  0  0  0  0  0  0  0  0  0  0
   41.6410   34.5980   41.0870 C   0  0  0  0  0  0  0  0  0  0  0  0
   41.3210   35.0640   39.7120 C   0  0  2  0  0  0  0  0  0  0  0  0
   40.4600   36.2870   40.0140 C   0  0  0  0  0  0  0  0  0  0  0  0
   41.1310   36.8560   41.2360 C   0  0  0  0  0  0  0  0  0  0  0  0
   40.7330   34.2050   41.5540 H   0  0  0  0  0  0  0  0  0  0  0  0
   42.4710   33.8720   41.0870 H   0  0  0  0  0  0  0  0  0  0  0  0
   42.2010   35.4190   39.1420 H   0  0  0  0  0  0  0  0  0  0  0  0
   40.3560   36.9720   39.1760 H   0  0  0  0  0  0  0  0  0  0  0  0
   39.4760   35.8810   40.3830 H   0  0  0  0  0  0  0  0  0  0  0  0
   40.4220   37.0260   42.0810 H   0  0  0  0  0  0  0  0  0  0  0  0
   41.6040   37.8130   40.9360 H   0  0  0  0  0  0  0  0  0  0  0  0
   45.4730   36.0150   43.2110 C   0  0  0  0  0  0  0  0  0  0  0  0
   44.4640   35.6610   42.3100 C   0  0  0  0  0  0  0  0  0  0  0  0
   43.1650   36.1430   42.4980 C   0  0  0  0  0  0  0  0  0  0  0  0
   42.9760   36.9510   43.5810 N   0  0  0  0  0  0  0  0  0  0  0  0
   43.9300   37.2950   44.4470 C   0  0  0  0  0  0  0  0  0  0  0  0
   45.1840   36.8240   44.2590 N   0  0  0  0  0  0  0  0  0  0  0  0
   46.4550   35.6080   43.0100 H   0  0  0  0  0  0  0  0  0  0  0  0
   44.5870   35.0230   41.4430 H   0  0  0  0  0  0  0  0  0  0  0  0
   43.7310   37.9390   45.2940 H   0  0  0  0  0  0  0  0  0  0  0  0
   42.0100   30.9740   39.4360 N   0  0  0  0  0  0  0  0  0  0  0  0
   40.9360   31.3950   39.5040 C   0  0  0  0  0  0  0  0  0  0  0  0
  1  6  1  0  0  0  0
  2  3  1  0  0  0  0
  2  1  2  0  0  0  0
  3  4  2  0  0  0  0
  4  8  1  0  0  0  0
  4  5  1  0  0  0  0
  5  9  1  0  0  0  0
  6  5  2  0  0  0  0
  6 12  1  0  0  0  0
  7  3  1  0  0  0  0
 10 16  1  0  0  0  0
 10 11  2  0  0  0  0
 12 10  1  0  0  0  0
 13 12  1  0  0  0  0
 14 15  1  0  0  0  0
 15 22  1  0  0  0  0
 16 17  1  0  0  0  0
 16 15  2  0  0  0  0
 17 19  2  0  0  0  0
 18 17  1  0  0  0  0
 19 20  1  0  0  0  0
 20 21  1  0  0  0  0
 22 23  1  0  0  0  0
 22 20  2  0  0  0  0
 24  2  1  0  0  0  0
 24 28  1  0  0  0  0
 25 24  1  0  0  0  0
 26 40  1  0  0  0  0
 27 31  1  0  0  0  0
 27 26  1  0  0  0  0
 28 33  1  6  0  0  0
 28 29  1  0  0  0  0
 28 27  1  0  0  0  0
 29 35  1  0  0  0  0
 29 30  1  0  0  0  0
 30 26  1  0  0  0  0
 30 36  1  0  0  0  0
 32 27  1  0  0  0  0
 34 29  1  0  0  0  0
 37 30  1  0  0  0  0
 38 43  1  0  0  0  0
 39 40  1  0  0  0  0
 39 38  2  0  0  0  0
 40 41  2  0  0  0  0
 41 42  1  0  0  0  0
 42 46  1  0  0  0  0
 43 42  2  0  0  0  0
 44 38  1  0  0  0  0
 45 39  1  0  0  0  0
 47 48  3  0  0  0  0
 48  1  1  0  0  0  0
M  END
>  <minimizedAffinity>
-6.83443165

$$$$

 OpenBabel03242519123D

 48 51  0  0  1  0  0  0  0  0999 V2000
   39.6130   31.6580   39.7340 C   0  0  0  0  0  0  0  0  0  0  0  0
   39.4560   33.0400   39.4720 C   0  0  0  0  0  0  0  0  0  0  0  0
   38.1780   33.4910   39.6890 C   0  0  0  0  0  0  0  0  0  0  0  0
   37.1110   32.7400   40.1170 C   0  0  0  0  0  0  0  0  0  0  0  0
   37.3170   31.3950   40.3600 C   0  0  0  0  0  0  0  0  0  0  0  0
   38.5880   30.8810   40.1580 C   0  0  0  0  0  0  0  0  0  0  0  0
   38.0210   34.5500   39.4970 H   0  0  0  0  0  0  0  0  0  0  0  0
   36.1230   33.1320   40.2760 H   0  0  0  0  0  0  0  0  0  0  0  0
   36.5250   30.7510   40.6960 H   0  0  0  0  0  0  0  0  0  0  0  0
   38.0400   28.5540   39.6450 C   0  0  0  0  0  0  0  0  0  0  0  0
   37.2840   28.9480   38.6830 O   0  0  0  0  0  0  0  0  0  0  0  0
   38.7650   29.4870   40.4190 N   0  0  0  0  0  0  0  0  0  0  0  0
   39.3780   29.0140   41.1300 H   0  0  0  0  0  0  0  0  0  0  0  0
   36.3870   27.7840   41.9440 Cl  0  0  0  0  0  0  0  0  0  0  0  0
   37.3120   26.6700   40.9290 C   0  0  0  0  0  0  0  0  0  0  0  0
   38.0780   27.1110   39.8510 C   0  0  0  0  0  0  0  0  0  0  0  0
   38.7920   26.2280   39.0730 C   0  0  0  0  0  0  0  0  0  0  0  0
   39.3690   26.6240   38.2490 H   0  0  0  0  0  0  0  0  0  0  0  0
   38.7140   24.8780   39.4110 C   0  0  0  0  0  3  0  0  0  0  0  0
   37.9630   24.4270   40.4710 C   0  0  0  0  0  0  0  0  0  0  0  0
   37.8890   22.7360   40.8680 Cl  0  0  0  0  0  0  0  0  0  0  0  0
   37.2490   25.3210   41.2510 C   0  0  0  0  0  0  0  0  0  0  0  0
   36.6590   24.9660   42.0840 H   0  0  0  0  0  0  0  0  0  0  0  0
   40.4940   33.8880   39.0300 N   0  0  0  0  0  0  0  0  0  0  0  0
   40.6080   33.7240   38.0030 H   0  0  0  0  0  0  0  0  0  0  0  0
   42.0220   35.8120   41.6110 N   0  0  0  0  0  0  0  0  0  0  0  0
   41.5550   34.5060   41.1510 C   0  0  0  0  0  0  0  0  0  0  0  0
   41.3100   34.8280   39.7200 C   0  0  2  0  0  0  0  0  0  0  0  0
   40.4950   36.1120   39.8480 C   0  0  0  0  0  0  0  0  0  0  0  0
   41.1430   36.7850   41.0280 C   0  0  0  0  0  0  0  0  0  0  0  0
   40.6120   34.2050   41.6180 H   0  0  0  0  0  0  0  0  0  0  0  0
   42.3500   33.7510   41.2680 H   0  0  0  0  0  0  0  0  0  0  0  0
   42.2260   35.0800   39.1530 H   0  0  0  0  0  0  0  0  0  0  0  0
   40.4550   36.7020   38.9350 H   0  0  0  0  0  0  0  0  0  0  0  0
   39.4800   35.7910   40.2160 H   0  0  0  0  0  0  0  0  0  0  0  0
   40.4110   37.0790   41.8170 H   0  0  0  0  0  0  0  0  0  0  0  0
   41.6710   37.6830   40.6450 H   0  0  0  0  0  0  0  0  0  0  0  0
   45.3860   36.0620   43.2150 C   0  0  0  0  0  0  0  0  0  0  0  0
   44.4000   35.6600   42.3080 C   0  0  0  0  0  0  0  0  0  0  0  0
   43.0920   36.1350   42.4480 C   0  0  0  0  0  0  0  0  0  0  0  0
   42.8710   36.9850   43.4930 N   0  0  0  0  0  0  0  0  0  0  0  0
   43.8030   37.3750   44.3640 C   0  0  0  0  0  0  0  0  0  0  0  0
   45.0650   36.9100   44.2230 N   0  0  0  0  0  0  0  0  0  0  0  0
   46.3750   35.6580   43.0520 H   0  0  0  0  0  0  0  0  0  0  0  0
   44.5480   34.9890   41.4700 H   0  0  0  0  0  0  0  0  0  0  0  0
   43.5790   38.0500   45.1790 H   0  0  0  0  0  0  0  0  0  0  0  0
   42.0060   30.6870   39.3560 N   0  0  0  0  0  0  0  0  0  0  0  0
   40.9420   31.1070   39.5260 C   0  0  0  0  0  0  0  0  0  0  0  0
  1  6  1  0  0  0  0
  2  3  1  0  0  0  0
  2  1  2  0  0  0  0
  3  4  2  0  0  0  0
  4  8  1  0  0  0  0
  4  5  1  0  0  0  0
  5  9  1  0  0  0  0
  6  5  2  0  0  0  0
  6 12  1  0  0  0  0
  7  3  1  0  0  0  0
 10 16  1  0  0  0  0
 10 12  1  0  0  0  0
 11 10  2  0  0  0  0
 12 13  1  0  0  0  0
 15 22  1  0  0  0  0
 15 14  1  0  0  0  0
 16 15  2  0  0  0  0
 17 19  2  0  0  0  0
 17 16  1  0  0  0  0
 18 17  1  0  0  0  0
 19 20  1  0  0  0  0
 20 21  1  0  0  0  0
 20 22  2  0  0  0  0
 22 23  1  0  0  0  0
 24  2  1  0  0  0  0
 24 28  1  0  0  0  0
 25 24  1  0  0  0  0
 26 40  1  0  0  0  0
 27 32  1  0  0  0  0
 27 26  1  0  0  0  0
 27 31  1  0  0  0  0
 28 33  1  6  0  0  0
 28 29  1  0  0  0  0
 28 27  1  0  0  0  0
 29 35  1  0  0  0  0
 29 30  1  0  0  0  0
 30 26  1  0  0  0  0
 30 36  1  0  0  0  0
 34 29  1  0  0  0  0
 37 30  1  0  0  0  0
 38 43  1  0  0  0  0
 39 40  1  0  0  0  0
 39 38  2  0  0  0  0
 40 41  2  0  0  0  0
 41 42  1  0  0  0  0
 42 46  1  0  0  0  0
 43 42  2  0  0  0  0
 44 38  1  0  0  0  0
 45 39  1  0  0  0  0
 47 48  3  0  0  0  0
 48  1  1  0  0  0  0
M  END
>  <minimizedAffinity>
-6.7861867

$$$$

 OpenBabel03242519123D

 48 51  0  0  1  0  0  0  0  0999 V2000
   39.5020   31.8490   39.5150 C   0  0  0  0  0  0  0  0  0  0  0  0
   39.4420   33.2360   39.2380 C   0  0  0  0  0  0  0  0  0  0  0  0
   38.1750   33.7540   39.3350 C   0  0  0  0  0  0  0  0  0  0  0  0
   37.0350   33.0610   39.6630 C   0  0  0  0  0  0  0  0  0  0  0  0
   37.1470   31.7090   39.9250 C   0  0  0  0  0  0  0  0  0  0  0  0
   38.4020   31.1290   39.8430 C   0  0  0  0  0  0  0  0  0  0  0  0
   38.0920   34.8180   39.1290 H   0  0  0  0  0  0  0  0  0  0  0  0
   36.0580   33.5050   39.7280 H   0  0  0  0  0  0  0  0  0  0  0  0
   36.2940   31.1090   40.1870 H   0  0  0  0  0  0  0  0  0  0  0  0
   38.4330   29.3000   41.4660 C   0  0  0  0  0  0  0  0  0  0  0  0
   38.2580   30.1470   42.4170 O   0  0  0  0  0  0  0  0  0  0  0  0
   38.4810   29.7290   40.1210 N   0  0  0  0  0  0  0  0  0  0  0  0
   38.5750   28.9210   39.4550 H   0  0  0  0  0  0  0  0  0  0  0  0
   41.2000   28.7140   42.2460 Cl  0  0  0  0  0  0  0  0  0  0  0  0
   39.8610   27.5600   42.2780 C   0  0  0  0  0  0  0  0  0  0  0  0
   38.5690   27.9120   41.8900 C   0  0  0  0  0  0  0  0  0  0  0  0
   37.5390   26.9990   41.9220 C   0  0  0  0  0  0  0  0  0  0  0  0
   36.5570   27.3260   41.6100 H   0  0  0  0  0  0  0  0  0  0  0  0
   37.8460   25.7110   42.3570 C   0  0  0  0  0  3  0  0  0  0  0  0
   39.1150   25.3470   42.7430 C   0  0  0  0  0  0  0  0  0  0  0  0
   39.4650   23.7310   43.2800 Cl  0  0  0  0  0  0  0  0  0  0  0  0
   40.1470   26.2710   42.7080 C   0  0  0  0  0  0  0  0  0  0  0  0
   41.1430   25.9840   43.0110 H   0  0  0  0  0  0  0  0  0  0  0  0
   40.5600   34.0260   38.8950 N   0  0  0  0  0  0  0  0  0  0  0  0
   40.7750   33.8320   37.8890 H   0  0  0  0  0  0  0  0  0  0  0  0
   42.0660   35.7770   41.6080 N   0  0  0  0  0  0  0  0  0  0  0  0
   41.6670   34.4960   41.0300 C   0  0  0  0  0  0  0  0  0  0  0  0
   41.3410   34.9450   39.6500 C   0  0  2  0  0  0  0  0  0  0  0  0
   40.4490   36.1490   39.9410 C   0  0  0  0  0  0  0  0  0  0  0  0
   41.1010   36.7410   41.1620 C   0  0  0  0  0  0  0  0  0  0  0  0
   40.7670   34.0840   41.4960 H   0  0  0  0  0  0  0  0  0  0  0  0
   42.5140   33.7900   41.0380 H   0  0  0  0  0  0  0  0  0  0  0  0
   42.2130   35.3170   39.0810 H   0  0  0  0  0  0  0  0  0  0  0  0
   40.3320   36.8250   39.0980 H   0  0  0  0  0  0  0  0  0  0  0  0
   39.4740   35.7210   40.3100 H   0  0  0  0  0  0  0  0  0  0  0  0
   40.3860   36.9000   42.0030 H   0  0  0  0  0  0  0  0  0  0  0  0
   41.5520   37.7080   40.8570 H   0  0  0  0  0  0  0  0  0  0  0  0
   45.4500   35.9990   43.1720 C   0  0  0  0  0  0  0  0  0  0  0  0
   44.4530   35.6110   42.2720 C   0  0  0  0  0  0  0  0  0  0  0  0
   43.1470   36.0870   42.4350 C   0  0  0  0  0  0  0  0  0  0  0  0
   42.9410   36.9230   43.4940 N   0  0  0  0  0  0  0  0  0  0  0  0
   43.8850   37.2990   44.3590 C   0  0  0  0  0  0  0  0  0  0  0  0
   45.1440   36.8330   44.1960 N   0  0  0  0  0  0  0  0  0  0  0  0
   46.4370   35.5960   42.9910 H   0  0  0  0  0  0  0  0  0  0  0  0
   44.5890   34.9510   41.4240 H   0  0  0  0  0  0  0  0  0  0  0  0
   43.6720   37.9640   45.1860 H   0  0  0  0  0  0  0  0  0  0  0  0
   41.8620   30.7440   39.3830 N   0  0  0  0  0  0  0  0  0  0  0  0
   40.8140   31.2280   39.4320 C   0  0  0  0  0  0  0  0  0  0  0  0
  1  6  1  0  0  0  0
  2  3  1  0  0  0  0
  2  1  2  0  0  0  0
  3  4  2  0  0  0  0
  4  8  1  0  0  0  0
  4  5  1  0  0  0  0
  5  9  1  0  0  0  0
  6  5  2  0  0  0  0
  6 12  1  0  0  0  0
  7  3  1  0  0  0  0
 10 16  1  0  0  0  0
 10 11  2  0  0  0  0
 12 10  1  0  0  0  0
 13 12  1  0  0  0  0
 14 15  1  0  0  0  0
 15 22  1  0  0  0  0
 16 17  1  0  0  0  0
 16 15  2  0  0  0  0
 17 19  2  0  0  0  0
 18 17  1  0  0  0  0
 19 20  1  0  0  0  0
 20 21  1  0  0  0  0
 22 20  2  0  0  0  0
 22 23  1  0  0  0  0
 24  2  1  0  0  0  0
 24 28  1  0  0  0  0
 25 24  1  0  0  0  0
 26 40  1  0  0  0  0
 27 32  1  0  0  0  0
 27 31  1  0  0  0  0
 27 26  1  0  0  0  0
 28 33  1  6  0  0  0
 28 29  1  0  0  0  0
 28 27  1  0  0  0  0
 29 35  1  0  0  0  0
 29 30  1  0  0  0  0
 30 26  1  0  0  0  0
 30 36  1  0  0  0  0
 34 29  1  0  0  0  0
 37 30  1  0  0  0  0
 38 43  1  0  0  0  0
 39 40  1  0  0  0  0
 39 38  2  0  0  0  0
 40 41  2  0  0  0  0
 41 42  1  0  0  0  0
 42 46  1  0  0  0  0
 43 42  2  0  0  0  0
 44 38  1  0  0  0  0
 45 39  1  0  0  0  0
 47 48  3  0  0  0  0
 48  1  1  0  0  0  0
M  END
>  <minimizedAffinity>
-6.78182697

$$$$

 OpenBabel03242519123D

 48 51  0  0  1  0  0  0  0  0999 V2000
   40.0960   31.9750   38.6820 C   0  0  0  0  0  0  0  0  0  0  0  0
   40.9260   33.0340   38.2440 C   0  0  0  0  0  0  0  0  0  0  0  0
   41.9520   32.6190   37.4330 C   0  0  0  0  0  0  0  0  0  0  0  0
   42.2100   31.3270   37.0430 C   0  0  0  0  0  0  0  0  0  0  0  0
   41.3700   30.3290   37.4980 C   0  0  0  0  0  0  0  0  0  0  0  0
   40.3150   30.6870   38.3210 C   0  0  0  0  0  0  0  0  0  0  0  0
   42.6110   33.4070   37.0770 H   0  0  0  0  0  0  0  0  0  0  0  0
   43.0270   31.0420   36.4050 H   0  0  0  0  0  0  0  0  0  0  0  0
   41.5160   29.2980   37.2300 H   0  0  0  0  0  0  0  0  0  0  0  0
   39.8820   28.8460   39.8710 C   0  0  0  0  0  0  0  0  0  0  0  0
   40.9750   29.1180   40.4920 O   0  0  0  0  0  0  0  0  0  0  0  0
   39.4650   29.6300   38.7720 N   0  0  0  0  0  0  0  0  0  0  0  0
   38.5310   29.3210   38.4030 H   0  0  0  0  0  0  0  0  0  0  0  0
   38.1040   29.6500   42.0630 Cl  0  0  0  0  0  0  0  0  0  0  0  0
   38.2770   28.0060   41.4340 C   0  0  0  0  0  0  0  0  0  0  0  0
   39.1450   27.6990   40.3880 C   0  0  0  0  0  0  0  0  0  0  0  0
   39.2660   26.4120   39.9120 C   0  0  0  0  0  0  0  0  0  0  0  0
   39.9540   26.2310   39.0990 H   0  0  0  0  0  0  0  0  0  0  0  0
   38.4820   25.4350   40.5230 C   0  0  0  0  0  3  0  0  0  0  0  0
   37.6210   25.7210   41.5570 C   0  0  0  0  0  0  0  0  0  0  0  0
   36.6590   24.4770   42.2980 Cl  0  0  0  0  0  0  0  0  0  0  0  0
   37.5060   27.0170   42.0300 C   0  0  0  0  0  0  0  0  0  0  0  0
   36.8280   27.2410   42.8420 H   0  0  0  0  0  0  0  0  0  0  0  0
   40.7360   34.3880   38.5930 N   0  0  0  0  0  0  0  0  0  0  0  0
   39.9440   34.7470   38.0120 H   0  0  0  0  0  0  0  0  0  0  0  0
   42.0830   35.7240   41.6090 N   0  0  0  0  0  0  0  0  0  0  0  0
   41.8510   34.5510   40.7690 C   0  0  0  0  0  0  0  0  0  0  0  0
   41.4060   35.2310   39.5230 C   0  0  2  0  0  0  0  0  0  0  0  0
   40.3610   36.1960   40.0780 C   0  0  0  0  0  0  0  0  0  0  0  0
   40.9700   36.6050   41.3920 C   0  0  0  0  0  0  0  0  0  0  0  0
   41.0400   33.9180   41.1420 H   0  0  0  0  0  0  0  0  0  0  0  0
   42.7910   33.9960   40.6160 H   0  0  0  0  0  0  0  0  0  0  0  0
   42.1910   35.8440   39.0420 H   0  0  0  0  0  0  0  0  0  0  0  0
   40.1120   37.0110   39.4030 H   0  0  0  0  0  0  0  0  0  0  0  0
   39.4750   35.5570   40.3520 H   0  0  0  0  0  0  0  0  0  0  0  0
   40.2750   36.4700   42.2540 H   0  0  0  0  0  0  0  0  0  0  0  0
   41.2630   37.6710   41.3010 H   0  0  0  0  0  0  0  0  0  0  0  0
   45.4260   35.9120   43.2640 C   0  0  0  0  0  0  0  0  0  0  0  0
   44.4540   35.5530   42.3240 C   0  0  0  0  0  0  0  0  0  0  0  0
   43.1410   36.0100   42.4750 C   0  0  0  0  0  0  0  0  0  0  0  0
   42.9000   36.7980   43.5620 N   0  0  0  0  0  0  0  0  0  0  0  0
   43.8190   37.1470   44.4650 C   0  0  0  0  0  0  0  0  0  0  0  0
   45.0860   36.7000   44.3130 N   0  0  0  0  0  0  0  0  0  0  0  0
   46.4210   35.5250   43.0910 H   0  0  0  0  0  0  0  0  0  0  0  0
   44.6170   34.9300   41.4530 H   0  0  0  0  0  0  0  0  0  0  0  0
   43.5800   37.7740   45.3140 H   0  0  0  0  0  0  0  0  0  0  0  0
   38.1120   32.6420   40.2410 N   0  0  0  0  0  0  0  0  0  0  0  0
   38.9850   32.3380   39.5470 C   0  0  0  0  0  0  0  0  0  0  0  0
  1 48  1  0  0  0  0
  2 24  1  0  0  0  0
  2  1  2  0  0  0  0
  3  2  1  0  0  0  0
  4  3  2  0  0  0  0
  4  5  1  0  0  0  0
  5  6  2  0  0  0  0
  6  1  1  0  0  0  0
  6 12  1  0  0  0  0
  7  3  1  0  0  0  0
  8  4  1  0  0  0  0
  9  5  1  0  0  0  0
 10 16  1  0  0  0  0
 10 11  2  0  0  0  0
 12 10  1  0  0  0  0
 13 12  1  0  0  0  0
 15 22  1  0  0  0  0
 15 14  1  0  0  0  0
 16 15  2  0  0  0  0
 17 16  1  0  0  0  0
 17 19  2  0  0  0  0
 18 17  1  0  0  0  0
 19 20  1  0  0  0  0
 20 22  2  0  0  0  0
 20 21  1  0  0  0  0
 22 23  1  0  0  0  0
 24 28  1  0  0  0  0
 25 24  1  0  0  0  0
 26 40  1  0  0  0  0
 27 31  1  0  0  0  0
 27 26  1  0  0  0  0
 28 33  1  6  0  0  0
 28 29  1  0  0  0  0
 28 27  1  0  0  0  0
 29 35  1  0  0  0  0
 29 30  1  0  0  0  0
 30 26  1  0  0  0  0
 30 36  1  0  0  0  0
 32 27  1  0  0  0  0
 34 29  1  0  0  0  0
 37 30  1  0  0  0  0
 38 43  1  0  0  0  0
 39 40  1  0  0  0  0
 39 38  2  0  0  0  0
 40 41  2  0  0  0  0
 41 42  1  0  0  0  0
 42 46  1  0  0  0  0
 43 42  2  0  0  0  0
 44 38  1  0  0  0  0
 45 39  1  0  0  0  0
 48 47  3  0  0  0  0
M  END
>  <minimizedAffinity>
-6.68445015

$$$$

 OpenBabel03242519123D

 48 51  0  0  1  0  0  0  0  0999 V2000
   40.9480   33.9870   39.8330 C   0  0  0  0  0  0  0  0  0  0  0  0
   41.9550   34.8590   40.3110 C   0  0  0  0  0  0  0  0  0  0  0  0
   41.4590   36.0400   40.8040 C   0  0  0  0  0  0  0  0  0  0  0  0
   40.1370   36.4080   40.8630 C   0  0  0  0  0  0  0  0  0  0  0  0
   39.1920   35.5200   40.3840 C   0  0  0  0  0  0  0  0  0  0  0  0
   39.6320   34.3100   39.8720 C   0  0  0  0  0  0  0  0  0  0  0  0
   42.2060   36.7360   41.1800 H   0  0  0  0  0  0  0  0  0  0  0  0
   39.7890   37.3440   41.2580 H   0  0  0  0  0  0  0  0  0  0  0  0
   38.1410   35.7460   40.4000 H   0  0  0  0  0  0  0  0  0  0  0  0
   38.2020   32.3570   40.2190 C   0  0  0  0  0  0  0  0  0  0  0  0
   38.6630   32.2370   41.4130 O   0  0  0  0  0  0  0  0  0  0  0  0
   38.6280   33.4150   39.3860 N   0  0  0  0  0  0  0  0  0  0  0  0
   38.1270   33.4140   38.4630 H   0  0  0  0  0  0  0  0  0  0  0  0
   38.5160   31.6690   37.3830 Cl  0  0  0  0  0  0  0  0  0  0  0  0
   37.3270   30.9600   38.4840 C   0  0  0  0  0  0  0  0  0  0  0  0
   37.2370   31.3380   39.8220 C   0  0  0  0  0  0  0  0  0  0  0  0
   36.3040   30.7740   40.6640 C   0  0  0  0  0  0  0  0  0  0  0  0
   36.2790   31.1050   41.6920 H   0  0  0  0  0  0  0  0  0  0  0  0
   35.4580   29.8110   40.1180 C   0  0  0  0  0  3  0  0  0  0  0  0
   35.5340   29.4260   38.7990 C   0  0  0  0  0  0  0  0  0  0  0  0
   34.4610   28.2220   38.1490 Cl  0  0  0  0  0  0  0  0  0  0  0  0
   36.4730   29.9990   37.9580 C   0  0  0  0  0  0  0  0  0  0  0  0
   36.5330   29.6960   36.9230 H   0  0  0  0  0  0  0  0  0  0  0  0
   43.3350   34.5660   40.2910 N   0  0  0  0  0  0  0  0  0  0  0  0
   43.6800   34.7800   39.3270 H   0  0  0  0  0  0  0  0  0  0  0  0
   44.6370   33.4190   43.4030 N   0  0  0  0  0  0  0  0  0  0  0  0
   43.5410   33.4000   42.4360 C   0  0  0  0  0  0  0  0  0  0  0  0
   44.2150   34.0740   41.2950 C   0  0  2  0  0  0  0  0  0  0  0  0
   44.8140   35.2930   41.9930 C   0  0  0  0  0  0  0  0  0  0  0  0
   45.2210   34.7280   43.3270 C   0  0  0  0  0  0  0  0  0  0  0  0
   42.6850   34.0020   42.7550 H   0  0  0  0  0  0  0  0  0  0  0  0
   43.2660   32.3610   42.1890 H   0  0  0  0  0  0  0  0  0  0  0  0
   45.0570   33.4990   40.8660 H   0  0  0  0  0  0  0  0  0  0  0  0
   45.6070   35.7780   41.4280 H   0  0  0  0  0  0  0  0  0  0  0  0
   43.9450   35.9720   42.2160 H   0  0  0  0  0  0  0  0  0  0  0  0
   44.8200   35.3140   44.1880 H   0  0  0  0  0  0  0  0  0  0  0  0
   46.3300   34.7180   43.3560 H   0  0  0  0  0  0  0  0  0  0  0  0
   46.7420   31.1660   45.5110 C   0  0  0  0  0  0  0  0  0  0  0  0
   46.4200   32.2100   44.6370 C   0  0  0  0  0  0  0  0  0  0  0  0
   45.0880   32.4170   44.2640 C   0  0  0  0  0  0  0  0  0  0  0  0
   44.1740   31.5570   44.8010 N   0  0  0  0  0  0  0  0  0  0  0  0
   44.4700   30.5590   45.6350 C   0  0  0  0  0  0  0  0  0  0  0  0
   45.7600   30.3640   45.9900 N   0  0  0  0  0  0  0  0  0  0  0  0
   47.7890   31.0600   45.7580 H   0  0  0  0  0  0  0  0  0  0  0  0
   47.1240   32.9060   44.1970 H   0  0  0  0  0  0  0  0  0  0  0  0
   43.7090   29.9010   46.0350 H   0  0  0  0  0  0  0  0  0  0  0  0
   41.7660   31.7120   38.8520 N   0  0  0  0  0  0  0  0  0  0  0  0
   41.3970   32.7140   39.2940 C   0  0  0  0  0  0  0  0  0  0  0  0
  1  6  2  0  0  0  0
  1  2  1  0  0  0  0
  2  3  2  0  0  0  0
  3  4  1  0  0  0  0
  3  7  1  0  0  0  0
  4  8  1  0  0  0  0
  5  9  1  0  0  0  0
  5  4  2  0  0  0  0
  6  5  1  0  0  0  0
 10 11  2  0  0  0  0
 12  6  1  0  0  0  0
 12 10  1  0  0  0  0
 13 12  1  0  0  0  0
 14 15  1  0  0  0  0
 15 16  1  0  0  0  0
 16 10  1  0  0  0  0
 16 17  2  0  0  0  0
 17 18  1  0  0  0  0
 19 17  1  0  0  0  0
 20 19  2  0  0  0  0
 21 20  1  0  0  0  0
 22 15  2  0  0  0  0
 22 20  1  0  0  0  0
 23 22  1  0  0  0  0
 24  2  1  0  0  0  0
 24 28  1  0  0  0  0
 25 24  1  0  0  0  0
 26 40  1  0  0  0  0
 27 31  1  0  0  0  0
 27 26  1  0  0  0  0
 28 33  1  6  0  0  0
 28 29  1  0  0  0  0
 28 27  1  0  0  0  0
 29 35  1  0  0  0  0
 29 30  1  0  0  0  0
 30 37  1  0  0  0  0
 30 26  1  0  0  0  0
 30 36  1  0  0  0  0
 32 27  1  0  0  0  0
 34 29  1  0  0  0  0
 38 44  1  0  0  0  0
 38 43  1  0  0  0  0
 39 38  2  0  0  0  0
 40 39  1  0  0  0  0
 40 41  2  0  0  0  0
 41 42  1  0  0  0  0
 42 43  2  0  0  0  0
 42 46  1  0  0  0  0
 45 39  1  0  0  0  0
 47 48  3  0  0  0  0
 48  1  1  0  0  0  0
M  END
>  <minimizedAffinity>
-6.67833424

$$$$

 OpenBabel03242519123D

 48 51  0  0  1  0  0  0  0  0999 V2000
   40.5990   33.0150   39.7850 C   0  0  0  0  0  0  0  0  0  0  0  0
   41.0990   34.3080   40.0690 C   0  0  0  0  0  0  0  0  0  0  0  0
   40.1120   35.2410   40.2610 C   0  0  0  0  0  0  0  0  0  0  0  0
   38.7570   35.0180   40.2020 C   0  0  0  0  0  0  0  0  0  0  0  0
   38.3200   33.7370   39.9230 C   0  0  0  0  0  0  0  0  0  0  0  0
   39.2720   32.7510   39.7180 C   0  0  0  0  0  0  0  0  0  0  0  0
   40.4600   36.2470   40.4820 H   0  0  0  0  0  0  0  0  0  0  0  0
   38.0140   35.7780   40.3600 H   0  0  0  0  0  0  0  0  0  0  0  0
   37.2750   33.4950   39.8620 H   0  0  0  0  0  0  0  0  0  0  0  0
   38.5990   30.5350   40.5010 C   0  0  0  0  0  0  0  0  0  0  0  0
   38.8060   30.9060   41.7150 O   0  0  0  0  0  0  0  0  0  0  0  0
   38.7840   31.4380   39.4320 N   0  0  0  0  0  0  0  0  0  0  0  0
   38.5270   31.0100   38.5070 H   0  0  0  0  0  0  0  0  0  0  0  0
   35.6710   30.3400   40.4920 Cl  0  0  0  0  0  0  0  0  0  0  0  0
   36.7890   28.9790   40.3270 C   0  0  0  0  0  0  0  0  0  0  0  0
   38.1720   29.1500   40.3420 C   0  0  0  0  0  0  0  0  0  0  0  0
   39.0260   28.0780   40.2120 C   0  0  0  0  0  0  0  0  0  0  0  0
   40.0900   28.2680   40.2300 H   0  0  0  0  0  0  0  0  0  0  0  0
   38.4460   26.8190   40.0660 C   0  0  0  0  0  3  0  0  0  0  0  0
   37.0840   26.6330   40.0490 C   0  0  0  0  0  0  0  0  0  0  0  0
   36.3920   25.0490   39.8670 Cl  0  0  0  0  0  0  0  0  0  0  0  0
   36.2300   27.7160   40.1820 C   0  0  0  0  0  0  0  0  0  0  0  0
   35.1600   27.5690   40.1690 H   0  0  0  0  0  0  0  0  0  0  0  0
   42.4710   34.6290   40.1500 N   0  0  0  0  0  0  0  0  0  0  0  0
   42.6950   35.2280   39.3210 H   0  0  0  0  0  0  0  0  0  0  0  0
   44.8480   34.8100   42.7990 N   0  0  0  0  0  0  0  0  0  0  0  0
   43.5200   35.1640   42.2990 C   0  0  0  0  0  0  0  0  0  0  0  0
   43.4720   34.2850   41.1000 C   0  0  2  0  0  0  0  0  0  0  0  0
   44.8200   34.5990   40.4560 C   0  0  0  0  0  0  0  0  0  0  0  0
   45.7140   34.7700   41.6560 C   0  0  0  0  0  0  0  0  0  0  0  0
   43.4540   36.2090   41.9810 H   0  0  0  0  0  0  0  0  0  0  0  0
   42.7470   34.8900   43.0350 H   0  0  0  0  0  0  0  0  0  0  0  0
   43.4690   33.2030   41.3360 H   0  0  0  0  0  0  0  0  0  0  0  0
   45.1460   33.8570   39.7310 H   0  0  0  0  0  0  0  0  0  0  0  0
   44.7140   35.6320   40.0210 H   0  0  0  0  0  0  0  0  0  0  0  0
   46.2810   35.7310   41.6420 H   0  0  0  0  0  0  0  0  0  0  0  0
   46.4180   33.9120   41.6660 H   0  0  0  0  0  0  0  0  0  0  0  0
   45.3880   34.9110   46.4930 C   0  0  0  0  0  0  0  0  0  0  0  0
   44.8920   35.2760   45.2370 C   0  0  0  0  0  0  0  0  0  0  0  0
   45.2710   34.5490   44.1030 C   0  0  0  0  0  0  0  0  0  0  0  0
   46.1230   33.5050   44.3170 N   0  0  0  0  0  0  0  0  0  0  0  0
   46.6020   33.1480   45.5100 C   0  0  0  0  0  0  0  0  0  0  0  0
   46.2320   33.8560   46.6010 N   0  0  0  0  0  0  0  0  0  0  0  0
   45.0570   35.5130   47.3280 H   0  0  0  0  0  0  0  0  0  0  0  0
   44.2150   36.0990   45.0390 H   0  0  0  0  0  0  0  0  0  0  0  0
   47.2770   32.3110   45.6300 H   0  0  0  0  0  0  0  0  0  0  0  0
   42.3760   31.1480   39.3770 N   0  0  0  0  0  0  0  0  0  0  0  0
   41.5880   31.9720   39.5690 C   0  0  0  0  0  0  0  0  0  0  0  0
  1  2  1  0  0  0  0
  2 24  1  0  0  0  0
  2  3  2  0  0  0  0
  3  7  1  0  0  0  0
  4  3  1  0  0  0  0
  4  8  1  0  0  0  0
  5  4  2  0  0  0  0
  6  1  2  0  0  0  0
  6  5  1  0  0  0  0
  9  5  1  0  0  0  0
 10 11  2  0  0  0  0
 12  6  1  0  0  0  0
 12 10  1  0  0  0  0
 13 12  1  0  0  0  0
 15 16  1  0  0  0  0
 15 14  1  0  0  0  0
 16 10  1  0  0  0  0
 17 18  1  0  0  0  0
 17 16  2  0  0  0  0
 19 17  1  0  0  0  0
 20 19  2  0  0  0  0
 20 22  1  0  0  0  0
 21 20  1  0  0  0  0
 22 15  2  0  0  0  0
 23 22  1  0  0  0  0
 24 28  1  0  0  0  0
 25 24  1  0  0  0  0
 26 40  1  0  0  0  0
 27 26  1  0  0  0  0
 27 32  1  0  0  0  0
 28 33  1  1  0  0  0
 28 27  1  0  0  0  0
 29 28  1  0  0  0  0
 29 30  1  0  0  0  0
 30 37  1  0  0  0  0
 30 26  1  0  0  0  0
 31 27  1  0  0  0  0
 34 29  1  0  0  0  0
 35 29  1  0  0  0  0
 36 30  1  0  0  0  0
 38 43  1  0  0  0  0
 38 44  1  0  0  0  0
 39 38  2  0  0  0  0
 40 41  2  0  0  0  0
 40 39  1  0  0  0  0
 41 42  1  0  0  0  0
 42 46  1  0  0  0  0
 42 43  2  0  0  0  0
 45 39  1  0  0  0  0
 47 48  3  0  0  0  0
 48  1  1  0  0  0  0
M  END
>  <minimizedAffinity>
-6.32467127

$$$$

 OpenBabel03242519123D

 48 51  0  0  1  0  0  0  0  0999 V2000
   38.1050   27.7200   42.2750 C   0  0  0  0  0  0  0  0  0  0  0  0
   38.2120   26.3230   42.4750 C   0  0  0  0  0  0  0  0  0  0  0  0
   39.4130   25.9440   43.0200 C   0  0  0  0  0  0  0  0  0  0  0  0
   40.4500   26.7770   43.3650 C   0  0  0  0  0  0  0  0  0  0  0  0
   40.2950   28.1330   43.1500 C   0  0  0  0  0  0  0  0  0  0  0  0
   39.1030   28.5760   42.6010 C   0  0  0  0  0  0  0  0  0  0  0  0
   39.5310   24.8760   43.1880 H   0  0  0  0  0  0  0  0  0  0  0  0
   41.3770   26.4400   43.7910 H   0  0  0  0  0  0  0  0  0  0  0  0
   41.0680   28.8380   43.3970 H   0  0  0  0  0  0  0  0  0  0  0  0
   39.4560   30.5390   41.1860 C   0  0  0  0  0  0  0  0  0  0  0  0
   39.9390   29.7830   40.2660 O   0  0  0  0  0  0  0  0  0  0  0  0
   38.9770   29.9850   42.3940 N   0  0  0  0  0  0  0  0  0  0  0  0
   38.5640   30.7170   43.0250 H   0  0  0  0  0  0  0  0  0  0  0  0
   36.7680   31.4260   40.4080 Cl  0  0  0  0  0  0  0  0  0  0  0  0
   38.2010   32.4580   40.4990 C   0  0  0  0  0  0  0  0  0  0  0  0
   39.4490   31.9640   40.8770 C   0  0  0  0  0  0  0  0  0  0  0  0
   40.5530   32.7840   40.9420 C   0  0  0  0  0  0  0  0  0  0  0  0
   41.4960   32.3480   41.2410 H   0  0  0  0  0  0  0  0  0  0  0  0
   40.3670   34.1250   40.6130 C   0  0  0  0  0  3  0  0  0  0  0  0
   39.1430   34.6290   40.2390 C   0  0  0  0  0  0  0  0  0  0  0  0
   38.9450   36.3080   39.8330 Cl  0  0  0  0  0  0  0  0  0  0  0  0
   38.0370   33.7980   40.1750 C   0  0  0  0  0  0  0  0  0  0  0  0
   37.0760   34.1950   39.8800 H   0  0  0  0  0  0  0  0  0  0  0  0
   37.2000   25.3940   42.1520 N   0  0  0  0  0  0  0  0  0  0  0  0
   36.2890   25.8230   42.4360 H   0  0  0  0  0  0  0  0  0  0  0  0
   37.9020   22.7020   39.9250 N   0  0  0  0  0  0  0  0  0  0  0  0
   38.3870   23.8930   40.6210 C   0  0  0  0  0  0  0  0  0  0  0  0
   37.2520   24.1010   41.5600 C   0  0  2  0  0  0  0  0  0  0  0  0
   36.0650   24.0040   40.6050 C   0  0  0  0  0  0  0  0  0  0  0  0
   36.5130   22.9320   39.6480 C   0  0  0  0  0  0  0  0  0  0  0  0
   38.4730   24.7620   39.9620 H   0  0  0  0  0  0  0  0  0  0  0  0
   39.3230   23.6690   41.1590 H   0  0  0  0  0  0  0  0  0  0  0  0
   37.1340   23.2950   42.3080 H   0  0  0  0  0  0  0  0  0  0  0  0
   35.1150   23.8220   41.1000 H   0  0  0  0  0  0  0  0  0  0  0  0
   36.0810   24.9570   40.0050 H   0  0  0  0  0  0  0  0  0  0  0  0
   36.4420   23.2460   38.5790 H   0  0  0  0  0  0  0  0  0  0  0  0
   35.8740   22.0430   39.8270 H   0  0  0  0  0  0  0  0  0  0  0  0
   39.1330   19.1850   39.6780 C   0  0  0  0  0  0  0  0  0  0  0  0
   38.3840   20.2750   40.1320 C   0  0  0  0  0  0  0  0  0  0  0  0
   38.5840   21.5380   39.5640 C   0  0  0  0  0  0  0  0  0  0  0  0
   39.5230   21.6110   38.5770 N   0  0  0  0  0  0  0  0  0  0  0  0
   40.2440   20.5780   38.1370 C   0  0  0  0  0  0  0  0  0  0  0  0
   40.0460   19.3600   38.6920 N   0  0  0  0  0  0  0  0  0  0  0  0
   38.9320   18.2370   40.1590 H   0  0  0  0  0  0  0  0  0  0  0  0
   37.6330   20.2460   40.9120 H   0  0  0  0  0  0  0  0  0  0  0  0
   40.9800   20.6850   37.3520 H   0  0  0  0  0  0  0  0  0  0  0  0
   35.8590   28.5600   41.2470 N   0  0  0  0  0  0  0  0  0  0  0  0
   36.8580   28.1980   41.6990 C   0  0  0  0  0  0  0  0  0  0  0  0
  1  2  2  0  0  0  0
  1  6  1  0  0  0  0
  2  3  1  0  0  0  0
  3  7  1  0  0  0  0
  3  4  2  0  0  0  0
  4  8  1  0  0  0  0
  5  4  1  0  0  0  0
  5  9  1  0  0  0  0
  6  5  2  0  0  0  0
 10 12  1  0  0  0  0
 11 10  2  0  0  0  0
 12  6  1  0  0  0  0
 12 13  1  0  0  0  0
 14 15  1  0  0  0  0
 15 16  1  0  0  0  0
 16 17  2  0  0  0  0
 16 10  1  0  0  0  0
 17 18  1  0  0  0  0
 19 17  1  0  0  0  0
 20 19  2  0  0  0  0
 21 20  1  0  0  0  0
 22 20  1  0  0  0  0
 22 15  2  0  0  0  0
 23 22  1  0  0  0  0
 24 25  1  0  0  0  0
 24  2  1  0  0  0  0
 26 27  1  0  0  0  0
 27 32  1  0  0  0  0
 27 28  1  0  0  0  0
 28 24  1  0  0  0  0
 28 33  1  1  0  0  0
 29 34  1  0  0  0  0
 29 28  1  0  0  0  0
 30 37  1  0  0  0  0
 30 26  1  0  0  0  0
 30 29  1  0  0  0  0
 31 27  1  0  0  0  0
 35 29  1  0  0  0  0
 36 30  1  0  0  0  0
 38 39  1  0  0  0  0
 38 44  1  0  0  0  0
 39 45  1  0  0  0  0
 40 26  1  0  0  0  0
 40 39  2  0  0  0  0
 41 40  1  0  0  0  0
 42 41  2  0  0  0  0
 42 43  1  0  0  0  0
 43 38  2  0  0  0  0
 46 42  1  0  0  0  0
 47 48  3  0  0  0  0
 48  1  1  0  0  0  0
M  END
>  <minimizedAffinity>
-6.24327183

$$$$

 OpenBabel03242519123D

 48 51  0  0  1  0  0  0  0  0999 V2000
   39.4600   31.9330   39.3770 C   0  0  0  0  0  0  0  0  0  0  0  0
   38.3950   31.4930   38.5550 C   0  0  0  0  0  0  0  0  0  0  0  0
   37.2890   32.3030   38.6210 C   0  0  0  0  0  0  0  0  0  0  0  0
   37.1560   33.4400   39.3810 C   0  0  0  0  0  0  0  0  0  0  0  0
   38.2260   33.8270   40.1660 C   0  0  0  0  0  0  0  0  0  0  0  0
   39.3710   33.0480   40.1420 C   0  0  0  0  0  0  0  0  0  0  0  0
   36.4510   31.9950   38.0010 H   0  0  0  0  0  0  0  0  0  0  0  0
   36.2710   34.0480   39.4050 H   0  0  0  0  0  0  0  0  0  0  0  0
   38.1870   34.7050   40.7840 H   0  0  0  0  0  0  0  0  0  0  0  0
   41.2870   34.5250   40.5030 C   0  0  0  0  0  0  0  0  0  0  0  0
   41.0310   35.1200   39.3920 O   0  0  0  0  0  0  0  0  0  0  0  0
   40.4580   33.4780   40.9650 N   0  0  0  0  0  0  0  0  0  0  0  0
   40.7590   33.1270   41.9080 H   0  0  0  0  0  0  0  0  0  0  0  0
   43.7090   33.1570   39.5680 Cl  0  0  0  0  0  0  0  0  0  0  0  0
   43.6560   34.4080   40.8180 C   0  0  0  0  0  0  0  0  0  0  0  0
   42.4640   35.0130   41.2110 C   0  0  0  0  0  0  0  0  0  0  0  0
   42.4430   35.9850   42.1860 C   0  0  0  0  0  0  0  0  0  0  0  0
   41.4900   36.4210   42.4520 H   0  0  0  0  0  0  0  0  0  0  0  0
   43.6640   36.3340   42.7590 C   0  0  0  0  0  3  0  0  0  0  0  0
   44.8490   35.7470   42.3830 C   0  0  0  0  0  0  0  0  0  0  0  0
   46.3560   36.2040   43.1200 Cl  0  0  0  0  0  0  0  0  0  0  0  0
   44.8630   34.7690   41.4020 C   0  0  0  0  0  0  0  0  0  0  0  0
   45.7940   34.3080   41.1070 H   0  0  0  0  0  0  0  0  0  0  0  0
   38.4430   30.3410   37.7420 N   0  0  0  0  0  0  0  0  0  0  0  0
   38.9990   30.5880   36.8910 H   0  0  0  0  0  0  0  0  0  0  0  0
   38.0140   26.9310   38.6860 N   0  0  0  0  0  0  0  0  0  0  0  0
   38.4490   28.2760   39.0620 C   0  0  0  0  0  0  0  0  0  0  0  0
   37.8960   29.0380   37.9100 C   0  0  2  0  0  0  0  0  0  0  0  0
   38.3960   28.1940   36.7400 C   0  0  0  0  0  0  0  0  0  0  0  0
   38.2830   26.7950   37.2830 C   0  0  0  0  0  0  0  0  0  0  0  0
   39.5380   28.3800   39.0730 H   0  0  0  0  0  0  0  0  0  0  0  0
   37.9800   28.5790   40.0120 H   0  0  0  0  0  0  0  0  0  0  0  0
   36.7910   29.0390   37.8610 H   0  0  0  0  0  0  0  0  0  0  0  0
   37.8680   28.3780   35.8070 H   0  0  0  0  0  0  0  0  0  0  0  0
   39.5020   28.3940   36.6730 H   0  0  0  0  0  0  0  0  0  0  0  0
   39.2310   26.2150   37.1880 H   0  0  0  0  0  0  0  0  0  0  0  0
   37.4680   26.2900   36.7250 H   0  0  0  0  0  0  0  0  0  0  0  0
   36.1770   23.9050   39.8750 C   0  0  0  0  0  0  0  0  0  0  0  0
   36.6920   24.8510   38.9830 C   0  0  0  0  0  0  0  0  0  0  0  0
   37.4460   25.9240   39.4690 C   0  0  0  0  0  0  0  0  0  0  0  0
   37.6290   25.9660   40.8210 N   0  0  0  0  0  0  0  0  0  0  0  0
   37.1420   25.0700   41.6810 C   0  0  0  0  0  0  0  0  0  0  0  0
   36.4130   24.0350   41.2030 N   0  0  0  0  0  0  0  0  0  0  0  0
   35.6020   23.1010   39.4360 H   0  0  0  0  0  0  0  0  0  0  0  0
   36.5630   24.8420   37.9070 H   0  0  0  0  0  0  0  0  0  0  0  0
   37.3130   25.1460   42.7460 H   0  0  0  0  0  0  0  0  0  0  0  0
   41.6330   30.4880   39.3640 N   0  0  0  0  0  0  0  0  0  0  0  0
   40.6680   31.1240   39.3600 C   0  0  0  0  0  0  0  0  0  0  0  0
  1  6  1  0  0  0  0
  2  3  1  0  0  0  0
  2  1  2  0  0  0  0
  3  4  2  0  0  0  0
  4  8  1  0  0  0  0
  4  5  1  0  0  0  0
  5  9  1  0  0  0  0
  6  5  2  0  0  0  0
  6 12  1  0  0  0  0
  7  3  1  0  0  0  0
 10 12  1  0  0  0  0
 10 16  1  0  0  0  0
 11 10  2  0  0  0  0
 12 13  1  0  0  0  0
 14 15  1  0  0  0  0
 15 16  2  0  0  0  0
 15 22  1  0  0  0  0
 16 17  1  0  0  0  0
 17 18  1  0  0  0  0
 17 19  2  0  0  0  0
 20 19  1  0  0  0  0
 20 21  1  0  0  0  0
 22 20  2  0  0  0  0
 23 22  1  0  0  0  0
 24 28  1  0  0  0  0
 24  2  1  0  0  0  0
 25 24  1  0  0  0  0
 26 27  1  0  0  0  0
 26 40  1  0  0  0  0
 27 31  1  0  0  0  0
 27 32  1  0  0  0  0
 28 33  1  1  0  0  0
 28 27  1  0  0  0  0
 29 30  1  0  0  0  0
 29 28  1  0  0  0  0
 30 26  1  0  0  0  0
 34 29  1  0  0  0  0
 35 29  1  0  0  0  0
 36 30  1  0  0  0  0
 37 30  1  0  0  0  0
 38 43  1  0  0  0  0
 39 40  1  0  0  0  0
 39 38  2  0  0  0  0
 40 41  2  0  0  0  0
 41 42  1  0  0  0  0
 42 46  1  0  0  0  0
 43 42  2  0  0  0  0
 44 38  1  0  0  0  0
 45 39  1  0  0  0  0
 48 47  3  0  0  0  0
 48  1  1  0  0  0  0
M  END
>  <minimizedAffinity>
-6.18496656

$$$$

 OpenBabel03242519123D

 48 51  0  0  1  0  0  0  0  0999 V2000
   37.9400   27.2320   42.2760 C   0  0  0  0  0  0  0  0  0  0  0  0
   38.8650   28.0390   42.9810 C   0  0  0  0  0  0  0  0  0  0  0  0
   39.8700   27.3170   43.5760 C   0  0  0  0  0  0  0  0  0  0  0  0
   40.0280   25.9530   43.5340 C   0  0  0  0  0  0  0  0  0  0  0  0
   39.0980   25.2110   42.8310 C   0  0  0  0  0  0  0  0  0  0  0  0
   38.0590   25.8840   42.2090 C   0  0  0  0  0  0  0  0  0  0  0  0
   40.5990   27.9050   44.1280 H   0  0  0  0  0  0  0  0  0  0  0  0
   40.8310   25.4250   44.0140 H   0  0  0  0  0  0  0  0  0  0  0  0
   39.1640   24.1400   42.7590 H   0  0  0  0  0  0  0  0  0  0  0  0
   37.3840   24.7700   40.1400 C   0  0  0  0  0  0  0  0  0  0  0  0
   38.4830   25.1410   39.5860 O   0  0  0  0  0  0  0  0  0  0  0  0
   37.1160   25.0850   41.4900 N   0  0  0  0  0  0  0  0  0  0  0  0
   36.2070   24.6710   41.8170 H   0  0  0  0  0  0  0  0  0  0  0  0
   37.9310   21.8910   40.2970 Cl  0  0  0  0  0  0  0  0  0  0  0  0
   36.6780   22.6430   39.3000 C   0  0  0  0  0  0  0  0  0  0  0  0
   36.4780   24.0220   39.2760 C   0  0  0  0  0  0  0  0  0  0  0  0
   35.4970   24.5890   38.4930 C   0  0  0  0  0  0  0  0  0  0  0  0
   35.3860   25.6630   38.5130 H   0  0  0  0  0  0  0  0  0  0  0  0
   34.7180   23.7230   37.7280 C   0  0  0  0  0  3  0  0  0  0  0  0
   34.9020   22.3600   37.7400 C   0  0  0  0  0  0  0  0  0  0  0  0
   33.9130   21.3080   36.7720 Cl  0  0  0  0  0  0  0  0  0  0  0  0
   35.8910   21.7970   38.5290 C   0  0  0  0  0  0  0  0  0  0  0  0
   36.0360   20.7260   38.5380 H   0  0  0  0  0  0  0  0  0  0  0  0
   38.7820   29.4440   43.0780 N   0  0  0  0  0  0  0  0  0  0  0  0
   38.0450   29.6590   43.7880 H   0  0  0  0  0  0  0  0  0  0  0  0
   39.6620   32.0270   40.7860 N   0  0  0  0  0  0  0  0  0  0  0  0
   38.6330   31.4070   41.6200 C   0  0  0  0  0  0  0  0  0  0  0  0
   39.4880   30.4840   42.4120 C   0  0  2  0  0  0  0  0  0  0  0  0
   40.3050   29.8250   41.3030 C   0  0  0  0  0  0  0  0  0  0  0  0
   40.5190   30.9650   40.3440 C   0  0  0  0  0  0  0  0  0  0  0  0
   37.9140   30.8220   41.0380 H   0  0  0  0  0  0  0  0  0  0  0  0
   38.1500   32.1640   42.2600 H   0  0  0  0  0  0  0  0  0  0  0  0
   40.2040   30.9980   43.0810 H   0  0  0  0  0  0  0  0  0  0  0  0
   41.2090   29.3330   41.6550 H   0  0  0  0  0  0  0  0  0  0  0  0
   39.5940   29.1280   40.7770 H   0  0  0  0  0  0  0  0  0  0  0  0
   40.2160   30.7150   39.2990 H   0  0  0  0  0  0  0  0  0  0  0  0
   41.5970   31.2250   40.3760 H   0  0  0  0  0  0  0  0  0  0  0  0
   39.1770   35.6730   40.1370 C   0  0  0  0  0  0  0  0  0  0  0  0
   38.8650   34.3620   40.5130 C   0  0  0  0  0  0  0  0  0  0  0  0
   39.8450   33.3670   40.4410 C   0  0  0  0  0  0  0  0  0  0  0  0
   41.0720   33.7650   39.9960 N   0  0  0  0  0  0  0  0  0  0  0  0
   41.3810   35.0110   39.6340 C   0  0  0  0  0  0  0  0  0  0  0  0
   40.4280   35.9680   39.7060 N   0  0  0  0  0  0  0  0  0  0  0  0
   38.3750   36.3940   40.2150 H   0  0  0  0  0  0  0  0  0  0  0  0
   37.9010   34.0200   40.8690 H   0  0  0  0  0  0  0  0  0  0  0  0
   42.3700   35.2790   39.2860 H   0  0  0  0  0  0  0  0  0  0  0  0
   35.9680   28.4850   41.1130 N   0  0  0  0  0  0  0  0  0  0  0  0
   36.8460   27.9270   41.6180 C   0  0  0  0  0  0  0  0  0  0  0  0
  1  2  1  0  0  0  0
  2 24  1  0  0  0  0
  2  3  2  0  0  0  0
  3  7  1  0  0  0  0
  4  3  1  0  0  0  0
  4  8  1  0  0  0  0
  5  4  2  0  0  0  0
  6  1  2  0  0  0  0
  6  5  1  0  0  0  0
  9  5  1  0  0  0  0
 10 12  1  0  0  0  0
 11 10  2  0  0  0  0
 12 13  1  0  0  0  0
 12  6  1  0  0  0  0
 15 14  1  0  0  0  0
 16 15  1  0  0  0  0
 16 10  1  0  0  0  0
 17 18  1  0  0  0  0
 17 16  2  0  0  0  0
 19 20  2  0  0  0  0
 19 17  1  0  0  0  0
 20 22  1  0  0  0  0
 21 20  1  0  0  0  0
 22 23  1  0  0  0  0
 22 15  2  0  0  0  0
 24 25  1  0  0  0  0
 26 27  1  0  0  0  0
 27 32  1  0  0  0  0
 27 28  1  0  0  0  0
 28 24  1  0  0  0  0
 28 33  1  1  0  0  0
 29 34  1  0  0  0  0
 29 28  1  0  0  0  0
 30 37  1  0  0  0  0
 30 26  1  0  0  0  0
 30 29  1  0  0  0  0
 31 27  1  0  0  0  0
 35 29  1  0  0  0  0
 36 30  1  0  0  0  0
 38 44  1  0  0  0  0
 38 39  1  0  0  0  0
 39 45  1  0  0  0  0
 40 39  2  0  0  0  0
 40 26  1  0  0  0  0
 41 40  1  0  0  0  0
 42 43  1  0  0  0  0
 42 41  2  0  0  0  0
 43 38  2  0  0  0  0
 46 42  1  0  0  0  0
 47 48  3  0  0  0  0
 48  1  1  0  0  0  0
M  END
>  <minimizedAffinity>
-6.15920353

$$$$
