REMARK  Name = 
REMARK  6 active torsions:
REMARK  status: ('A' for Active; 'I' for Inactive)
REMARK    1  A    between atoms: N_1  and  C_8
REMARK    2  A    between atoms: C_3  and  N_12
REMARK    3  A    between atoms: N_12  and  C_14
REMARK    4  A    between atoms: C_13  and  C_23
REMARK    5  A    between atoms: C_18  and  N_21
REMARK    6  A    between atoms: C_19  and  C_41
REMARK                            x       y       z     vdW  Elec       q    Type
REMARK                         _______ _______ _______ _____ _____    ______ ____
ROOT
ATOM      1  C   UNL     1      48.818  32.270  37.035  0.00  0.00    +0.000 A 
ATOM      2  C   UNL     1      48.091  33.025  37.986  0.00  0.00    +0.000 A 
ATOM      3  C   UNL     1      46.793  33.265  37.610  0.00  0.00    +0.000 A 
ATOM      4  C   UNL     1      46.191  32.847  36.448  0.00  0.00    +0.000 A 
ATOM      5  C   UNL     1      46.944  32.112  35.552  0.00  0.00    +0.000 A 
ATOM      6  C   UNL     1      48.263  31.838  35.877  0.00  0.00    +0.000 A 
ATOM      7  H   UNL     1      46.204  33.843  38.318  0.00  0.00    +0.000 HD
ATOM      8  H   UNL     1      45.169  33.056  36.190  0.00  0.00    +0.000 HD
ATOM      9  H   UNL     1      46.534  31.755  34.625  0.00  0.00    +0.000 HD
ENDROOT
BRANCH   6  12
ATOM     10  C   UNL     1      49.470  31.713  33.754  0.00  0.00    +0.000 C 
ATOM     11  O   UNL     1      49.271  32.970  33.572  0.00  0.00    +0.000 OA
ATOM     12  N   UNL     1      49.012  31.075  34.928  0.00  0.00    +0.000 N 
ATOM     13  H   UNL     1      49.294  30.063  34.960  0.00  0.00    +0.000 HD
BRANCH  10  16
ATOM     14 CL   UNL     1      51.957  30.511  34.746  0.00  0.00    +0.000 Cl
ATOM     15  C   UNL     1      51.380  30.440  33.076  0.00  0.00    +0.000 A 
ATOM     16  C   UNL     1      50.185  31.037  32.678  0.00  0.00    +0.000 A 
ATOM     17  C   UNL     1      49.753  30.971  31.372  0.00  0.00    +0.000 A 
ATOM     18  H   UNL     1      48.819  31.452  31.119  0.00  0.00    +0.000 HD
ATOM     19  C   UNL     1      50.561  30.282  30.471  0.00  0.00    +0.000 A 
ATOM     20  C   UNL     1      51.743  29.686  30.848  0.00  0.00    +0.000 A 
ATOM     21 CL   UNL     1      52.729  28.834  29.697  0.00  0.00    +0.000 Cl
ATOM     22  C   UNL     1      52.172  29.757  32.162  0.00  0.00    +0.000 A 
ATOM     23  H   UNL     1      53.100  29.289  32.456  0.00  0.00    +0.000 HD
ENDBRANCH  10  16
ENDBRANCH   6  12
BRANCH   2  24
ATOM     24  N   UNL     1      48.626  33.495  39.204  0.00  0.00    +0.000 N 
ATOM     25  H   UNL     1      49.553  33.928  38.985  0.00  0.00    +0.000 HD
BRANCH  24  28
ATOM     26  N   UNL     1      47.514  34.480  42.443  0.00  0.00    +0.000 N 
ATOM     27  C   UNL     1      47.512  34.731  41.003  0.00  0.00    +0.000 C 
ATOM     28  C   UNL     1      48.127  33.460  40.536  0.00  0.00    +0.000 C 
ATOM     29  C   UNL     1      49.339  33.369  41.460  0.00  0.00    +0.000 C 
ATOM     30  C   UNL     1      48.795  33.913  42.754  0.00  0.00    +0.000 C 
ATOM     31  H   UNL     1      48.157  35.568  40.719  0.00  0.00    +0.000 HD
ATOM     32  H   UNL     1      46.479  34.842  40.634  0.00  0.00    +0.000 HD
ATOM     33  H   UNL     1      47.506  32.564  40.726  0.00  0.00    +0.000 HD
ATOM     34  H   UNL     1      49.776  32.375  41.517  0.00  0.00    +0.000 HD
ATOM     35  H   UNL     1      50.059  34.153  41.093  0.00  0.00    +0.000 HD
ATOM     36  H   UNL     1      49.421  34.734  43.177  0.00  0.00    +0.000 HD
ATOM     37  H   UNL     1      48.741  33.067  43.470  0.00  0.00    +0.000 HD
BRANCH  26  40
ATOM     38  C   UNL     1      44.601  35.850  44.337  0.00  0.00    +0.000 A 
ATOM     39  C   UNL     1      45.548  35.720  43.316  0.00  0.00    +0.000 A 
ATOM     40  C   UNL     1      46.518  34.715  43.393  0.00  0.00    +0.000 A 
ATOM     41  N   UNL     1      46.463  33.911  44.494  0.00  0.00    +0.000 NA
ATOM     42  C   UNL     1      45.565  34.026  45.474  0.00  0.00    +0.000 A 
ATOM     43  N   UNL     1      44.631  35.001  45.393  0.00  0.00    +0.000 NA
ATOM     44  H   UNL     1      43.880  36.647  44.218  0.00  0.00    +0.000 HD
ATOM     45  H   UNL     1      45.614  36.343  42.432  0.00  0.00    +0.000 HD
ATOM     46  H   UNL     1      45.562  33.364  46.330  0.00  0.00    +0.000 HD
ENDBRANCH  26  40
ENDBRANCH  24  28
ENDBRANCH   2  24
BRANCH   1  48
ATOM     47  N   UNL     1      51.302  31.724  37.618  0.00  0.00    +0.000 NA
ATOM     48  C   UNL     1      50.203  31.976  37.364  0.00  0.00    +0.000 C 
ENDBRANCH   1  48
TORSDOF 6
