
 OpenBabel03252502293D

 36 38  0  0  0  0  0  0  0  0999 V2000
   40.5070   30.3980   42.0770 C   0  0  0  0  0  0  0  0  0  0  0  0
   41.6700   30.7530   42.7400 C   0  0  0  0  0  0  0  0  0  0  0  0
   42.3490   31.8990   42.3340 C   0  0  0  0  0  0  0  0  0  0  0  0
   41.8630   32.6460   41.3000 C   0  0  0  0  0  0  0  0  0  0  0  0
   40.7070   32.3160   40.6230 C   0  0  0  0  0  0  0  0  0  0  0  0
   40.0480   31.1620   41.0520 C   0  0  0  0  0  0  0  0  0  0  0  0
   42.0670   30.1700   43.5600 H   0  0  0  0  0  0  0  0  0  0  0  0
   43.2520   32.1850   42.8390 H   0  0  0  0  0  0  0  0  0  0  0  0
   42.4160   33.5360   41.0050 H   0  0  0  0  0  0  0  0  0  0  0  0
   40.3000   32.8950   39.7970 H   0  0  0  0  0  0  0  0  0  0  0  0
   39.6540   26.8340   42.9800 C   0  0  0  0  0  0  0  0  0  0  0  0
   40.3870   27.9350   42.4830 C   0  0  0  0  0  0  0  0  0  0  0  0
   39.8470   29.1920   42.5540 C   0  0  0  0  0  0  0  0  0  0  0  0
   38.6150   29.3090   43.1090 N   0  0  0  0  0  0  0  0  0  0  0  0
   37.9150   28.2560   43.5850 C   0  0  0  0  0  0  0  0  0  0  0  0
   38.4310   27.0160   43.5220 N   0  0  0  0  0  0  0  0  0  0  0  0
   41.3600   27.8110   42.0490 H   0  0  0  0  0  0  0  0  0  0  0  0
   36.9280   28.3930   44.0220 H   0  0  0  0  0  0  0  0  0  0  0  0
   40.2240   25.4760   42.9110 C   0  0  0  0  0  0  0  0  0  0  0  0
   39.3400   24.6180   43.5650 F   0  0  0  0  0  0  0  0  0  0  0  0
   41.3800   25.4790   43.6790 F   0  0  0  0  0  0  0  0  0  0  0  0
   40.4380   25.0410   41.6260 F   0  0  0  0  0  0  0  0  0  0  0  0
   37.5800   31.2640   40.2020 C   0  0  0  0  0  0  0  0  0  0  0  0
   37.2230   32.4050   40.4630 O   0  0  0  0  0  0  0  0  0  0  0  0
   38.8530   30.7070   40.4570 N   0  0  0  0  0  0  0  0  0  0  0  0
   39.0270   29.7010   40.1530 H   0  0  0  0  0  0  0  0  0  0  0  0
   37.8390   31.3280   37.2780 Cl  0  0  0  0  0  0  0  0  0  0  0  0
   36.6360   30.4350   38.1970 C   0  0  0  0  0  0  0  0  0  0  0  0
   36.5560   30.4380   39.5670 C   0  0  0  0  0  0  0  0  0  0  0  0
   35.5730   29.7060   40.2380 C   0  0  0  0  0  0  0  0  0  0  0  0
   35.5870   29.7680   41.3130 H   0  0  0  0  0  0  0  0  0  0  0  0
   34.6650   28.9650   39.5110 C   0  0  0  0  0  3  0  0  0  0  0  0
   34.7650   28.9790   38.1440 C   0  0  0  0  0  0  0  0  0  0  0  0
   33.6040   28.0330   37.2490 Cl  0  0  0  0  0  0  0  0  0  0  0  0
   35.7320   29.6970   37.4590 C   0  0  0  0  0  0  0  0  0  0  0  0
   35.7730   29.6780   36.3800 H   0  0  0  0  0  0  0  0  0  0  0  0
  1 13  1  0  0  0  0
  1  2  1  0  0  0  0
  2  7  1  0  0  0  0
  3  2  2  0  0  0  0
  3  8  1  0  0  0  0
  4  3  1  0  0  0  0
  5  6  1  0  0  0  0
  5  4  2  0  0  0  0
  6  1  2  0  0  0  0
  9  4  1  0  0  0  0
 10  5  1  0  0  0  0
 11 16  1  0  0  0  0
 12 13  1  0  0  0  0
 12 11  2  0  0  0  0
 13 14  2  0  0  0  0
 14 15  1  0  0  0  0
 15 18  1  0  0  0  0
 16 15  2  0  0  0  0
 17 12  1  0  0  0  0
 19 11  1  0  0  0  0
 19 20  1  0  0  0  0
 19 21  1  0  0  0  0
 22 19  1  0  0  0  0
 23 25  1  0  0  0  0
 23 24  2  0  0  0  0
 25  6  1  0  0  0  0
 26 25  1  0  0  0  0
 27 28  1  0  0  0  0
 28 29  1  0  0  0  0
 29 23  1  0  0  0  0
 29 30  2  0  0  0  0
 30 31  1  0  0  0  0
 32 30  1  0  0  0  0
 33 32  2  0  0  0  0
 34 33  1  0  0  0  0
 35 33  1  0  0  0  0
 35 28  2  0  0  0  0
 36 35  1  0  0  0  0
M  END
>  <minimizedAffinity>
-6.16021776

$$$$

 OpenBabel03252502293D

 36 38  0  0  0  0  0  0  0  0999 V2000
   36.8710   28.6350   39.9190 C   0  0  0  0  0  0  0  0  0  0  0  0
   35.7750   28.0460   39.3090 C   0  0  0  0  0  0  0  0  0  0  0  0
   35.2820   28.6030   38.1330 C   0  0  0  0  0  0  0  0  0  0  0  0
   35.8800   29.7100   37.6030 C   0  0  0  0  0  0  0  0  0  0  0  0
   36.9730   30.3170   38.1880 C   0  0  0  0  0  0  0  0  0  0  0  0
   37.4440   29.7350   39.3670 C   0  0  0  0  0  0  0  0  0  0  0  0
   35.2910   27.1680   39.7180 H   0  0  0  0  0  0  0  0  0  0  0  0
   34.4330   28.1560   37.6510 H   0  0  0  0  0  0  0  0  0  0  0  0
   35.4730   30.1230   36.6830 H   0  0  0  0  0  0  0  0  0  0  0  0
   37.4660   31.1990   37.7860 H   0  0  0  0  0  0  0  0  0  0  0  0
   38.2730   26.2180   42.4560 C   0  0  0  0  0  0  0  0  0  0  0  0
   37.8510   26.7330   41.2090 C   0  0  0  0  0  0  0  0  0  0  0  0
   37.3350   28.0000   41.1430 C   0  0  0  0  0  0  0  0  0  0  0  0
   37.2570   28.7010   42.3010 N   0  0  0  0  0  0  0  0  0  0  0  0
   37.6610   28.2080   43.4930 C   0  0  0  0  0  0  0  0  0  0  0  0
   38.1700   26.9660   43.5740 N   0  0  0  0  0  0  0  0  0  0  0  0
   37.9250   26.1540   40.3090 H   0  0  0  0  0  0  0  0  0  0  0  0
   37.5800   28.8040   44.4000 H   0  0  0  0  0  0  0  0  0  0  0  0
   38.8320   24.8560   42.5400 C   0  0  0  0  0  0  0  0  0  0  0  0
   39.5620   24.6310   41.3740 F   0  0  0  0  0  0  0  0  0  0  0  0
   37.7630   23.9720   42.4890 F   0  0  0  0  0  0  0  0  0  0  0  0
   39.6320   24.6640   43.6400 F   0  0  0  0  0  0  0  0  0  0  0  0
   38.8390   31.4330   40.7800 C   0  0  0  0  0  0  0  0  0  0  0  0
   38.0710   32.3670   40.9660 O   0  0  0  0  0  0  0  0  0  0  0  0
   38.5560   30.2450   40.0710 N   0  0  0  0  0  0  0  0  0  0  0  0
   39.3210   29.5060   40.0090 H   0  0  0  0  0  0  0  0  0  0  0  0
   40.5260   33.1320   39.0810 Cl  0  0  0  0  0  0  0  0  0  0  0  0
   40.9910   32.4010   40.6100 C   0  0  0  0  0  0  0  0  0  0  0  0
   40.1640   31.6120   41.3690 C   0  0  0  0  0  0  0  0  0  0  0  0
   40.5960   31.0600   42.5780 C   0  0  0  0  0  0  0  0  0  0  0  0
   39.8800   30.4540   43.1050 H   0  0  0  0  0  0  0  0  0  0  0  0
   41.8780   31.3120   43.0180 C   0  0  0  0  0  3  0  0  0  0  0  0
   42.6850   32.1030   42.2420 C   0  0  0  0  0  0  0  0  0  0  0  0
   44.3030   32.4060   42.8220 Cl  0  0  0  0  0  0  0  0  0  0  0  0
   42.2770   32.6610   41.0410 C   0  0  0  0  0  0  0  0  0  0  0  0
   42.9480   33.2780   40.4620 H   0  0  0  0  0  0  0  0  0  0  0  0
  1 13  1  0  0  0  0
  2  7  1  0  0  0  0
  2  1  2  0  0  0  0
  3  2  1  0  0  0  0
  4  3  2  0  0  0  0
  4  5  1  0  0  0  0
  5  6  2  0  0  0  0
  6  1  1  0  0  0  0
  6 25  1  0  0  0  0
  8  3  1  0  0  0  0
  9  4  1  0  0  0  0
 10  5  1  0  0  0  0
 11 19  1  0  0  0  0
 11 16  1  0  0  0  0
 12 11  2  0  0  0  0
 13 12  1  0  0  0  0
 13 14  2  0  0  0  0
 14 15  1  0  0  0  0
 15 16  2  0  0  0  0
 15 18  1  0  0  0  0
 17 12  1  0  0  0  0
 19 22  1  0  0  0  0
 20 19  1  0  0  0  0
 21 19  1  0  0  0  0
 23 24  2  0  0  0  0
 23 29  1  0  0  0  0
 25 23  1  0  0  0  0
 26 25  1  0  0  0  0
 27 28  1  0  0  0  0
 28 35  2  0  0  0  0
 28 29  1  0  0  0  0
 29 30  2  0  0  0  0
 30 32  1  0  0  0  0
 30 31  1  0  0  0  0
 33 34  1  0  0  0  0
 33 32  2  0  0  0  0
 35 33  1  0  0  0  0
 36 35  1  0  0  0  0
M  END
>  <minimizedAffinity>
-6.07298088

$$$$

 OpenBabel03252502293D

 36 38  0  0  0  0  0  0  0  0999 V2000
   35.2680   28.2030   38.4350 C   0  0  0  0  0  0  0  0  0  0  0  0
   34.1880   28.4870   37.6150 C   0  0  0  0  0  0  0  0  0  0  0  0
   33.6260   27.4570   36.8660 C   0  0  0  0  0  0  0  0  0  0  0  0
   34.1420   26.1970   36.9510 C   0  0  0  0  0  0  0  0  0  0  0  0
   35.2170   25.8850   37.7590 C   0  0  0  0  0  0  0  0  0  0  0  0
   35.7590   26.9390   38.4980 C   0  0  0  0  0  0  0  0  0  0  0  0
   33.7690   29.4820   37.5380 H   0  0  0  0  0  0  0  0  0  0  0  0
   32.7890   27.6640   36.2270 H   0  0  0  0  0  0  0  0  0  0  0  0
   33.6820   25.4120   36.3530 H   0  0  0  0  0  0  0  0  0  0  0  0
   35.6460   24.8890   37.8430 H   0  0  0  0  0  0  0  0  0  0  0  0
   36.8820   31.4570   39.4620 C   0  0  0  0  0  0  0  0  0  0  0  0
   36.3970   30.4240   38.6280 C   0  0  0  0  0  0  0  0  0  0  0  0
   35.8040   29.3250   39.1910 C   0  0  0  0  0  0  0  0  0  0  0  0
   35.7140   29.2910   40.5440 N   0  0  0  0  0  0  0  0  0  0  0  0
   36.1780   30.2790   41.3410 C   0  0  0  0  0  0  0  0  0  0  0  0
   36.7630   31.3640   40.8040 N   0  0  0  0  0  0  0  0  0  0  0  0
   36.4830   30.4790   37.5600 H   0  0  0  0  0  0  0  0  0  0  0  0
   36.0860   30.2120   42.4230 H   0  0  0  0  0  0  0  0  0  0  0  0
   37.5220   32.6450   38.8690 C   0  0  0  0  0  0  0  0  0  0  0  0
   37.5970   32.4350   37.4930 F   0  0  0  0  0  0  0  0  0  0  0  0
   38.8350   32.6680   39.3160 F   0  0  0  0  0  0  0  0  0  0  0  0
   36.8480   33.8130   39.1310 F   0  0  0  0  0  0  0  0  0  0  0  0
   37.2340   25.8050   40.3310 C   0  0  0  0  0  0  0  0  0  0  0  0
   36.6180   24.7890   40.6220 O   0  0  0  0  0  0  0  0  0  0  0  0
   36.8550   26.7670   39.3690 N   0  0  0  0  0  0  0  0  0  0  0  0
   37.5070   27.5940   39.2070 H   0  0  0  0  0  0  0  0  0  0  0  0
   36.7110   27.0400   42.9430 Cl  0  0  0  0  0  0  0  0  0  0  0  0
   38.2820   26.5710   42.3100 C   0  0  0  0  0  0  0  0  0  0  0  0
   38.4750   25.9960   41.0790 C   0  0  0  0  0  0  0  0  0  0  0  0
   39.7520   25.6460   40.6330 C   0  0  0  0  0  0  0  0  0  0  0  0
   39.8070   25.2000   39.6550 H   0  0  0  0  0  0  0  0  0  0  0  0
   40.8420   25.8820   41.4450 C   0  0  0  0  0  3  0  0  0  0  0  0
   40.6230   26.4580   42.6700 C   0  0  0  0  0  0  0  0  0  0  0  0
   42.0190   26.7460   43.6770 Cl  0  0  0  0  0  0  0  0  0  0  0  0
   39.3660   26.8120   43.1310 C   0  0  0  0  0  0  0  0  0  0  0  0
   39.2400   27.2640   44.1040 H   0  0  0  0  0  0  0  0  0  0  0  0
  1  6  1  0  0  0  0
  1 13  1  0  0  0  0
  2  1  2  0  0  0  0
  3  4  2  0  0  0  0
  3  2  1  0  0  0  0
  4  5  1  0  0  0  0
  5 10  1  0  0  0  0
  5  6  2  0  0  0  0
  6 25  1  0  0  0  0
  7  2  1  0  0  0  0
  8  3  1  0  0  0  0
  9  4  1  0  0  0  0
 11 16  1  0  0  0  0
 12 13  1  0  0  0  0
 12 11  2  0  0  0  0
 13 14  2  0  0  0  0
 14 15  1  0  0  0  0
 15 18  1  0  0  0  0
 16 15  2  0  0  0  0
 17 12  1  0  0  0  0
 19 22  1  0  0  0  0
 19 21  1  0  0  0  0
 19 11  1  0  0  0  0
 20 19  1  0  0  0  0
 23 24  2  0  0  0  0
 23 29  1  0  0  0  0
 25 23  1  0  0  0  0
 26 25  1  0  0  0  0
 28 27  1  0  0  0  0
 28 35  1  0  0  0  0
 29 28  2  0  0  0  0
 30 29  1  0  0  0  0
 30 32  2  0  0  0  0
 31 30  1  0  0  0  0
 32 33  1  0  0  0  0
 33 35  2  0  0  0  0
 33 34  1  0  0  0  0
 35 36  1  0  0  0  0
M  END
>  <minimizedAffinity>
-6.05030489

$$$$

 OpenBabel03252502293D

 36 38  0  0  0  0  0  0  0  0999 V2000
   35.7050   29.1380   38.1900 C   0  0  0  0  0  0  0  0  0  0  0  0
   34.5300   28.4510   37.9290 C   0  0  0  0  0  0  0  0  0  0  0  0
   34.1160   28.3120   36.6070 C   0  0  0  0  0  0  0  0  0  0  0  0
   34.8650   28.8480   35.6010 C   0  0  0  0  0  0  0  0  0  0  0  0
   36.0390   29.5350   35.8320 C   0  0  0  0  0  0  0  0  0  0  0  0
   36.4290   29.6590   37.1670 C   0  0  0  0  0  0  0  0  0  0  0  0
   33.9260   28.0220   38.7170 H   0  0  0  0  0  0  0  0  0  0  0  0
   33.2070   27.7820   36.3920 H   0  0  0  0  0  0  0  0  0  0  0  0
   34.5160   28.7220   34.5770 H   0  0  0  0  0  0  0  0  0  0  0  0
   36.6530   29.9710   35.0470 H   0  0  0  0  0  0  0  0  0  0  0  0
   36.6500   28.3970   41.7690 C   0  0  0  0  0  0  0  0  0  0  0  0
   36.2860   28.1740   40.4210 C   0  0  0  0  0  0  0  0  0  0  0  0
   36.0800   29.2450   39.5920 C   0  0  0  0  0  0  0  0  0  0  0  0
   36.2400   30.4820   40.1230 N   0  0  0  0  0  0  0  0  0  0  0  0
   36.5890   30.6940   41.4120 C   0  0  0  0  0  0  0  0  0  0  0  0
   36.7950   29.6540   42.2380 N   0  0  0  0  0  0  0  0  0  0  0  0
   36.1660   27.1820   40.0290 H   0  0  0  0  0  0  0  0  0  0  0  0
   36.7070   31.7050   41.7990 H   0  0  0  0  0  0  0  0  0  0  0  0
   36.8760   27.2520   42.6710 C   0  0  0  0  0  0  0  0  0  0  0  0
   35.9160   27.3210   43.6800 F   0  0  0  0  0  0  0  0  0  0  0  0
   38.0950   27.4630   43.2990 F   0  0  0  0  0  0  0  0  0  0  0  0
   36.8050   26.0370   42.0360 F   0  0  0  0  0  0  0  0  0  0  0  0
   38.9850   30.0200   37.5620 C   0  0  0  0  0  0  0  0  0  0  0  0
   39.4960   28.9800   37.1700 O   0  0  0  0  0  0  0  0  0  0  0  0
   37.6080   30.3310   37.5520 N   0  0  0  0  0  0  0  0  0  0  0  0
   37.3100   31.2910   37.9070 H   0  0  0  0  0  0  0  0  0  0  0  0
   39.7760   29.3690   40.3150 Cl  0  0  0  0  0  0  0  0  0  0  0  0
   40.3340   30.7410   39.3680 C   0  0  0  0  0  0  0  0  0  0  0  0
   39.9340   31.0030   38.0820 C   0  0  0  0  0  0  0  0  0  0  0  0
   40.4160   32.1120   37.3830 C   0  0  0  0  0  0  0  0  0  0  0  0
   40.0470   32.2380   36.3800 H   0  0  0  0  0  0  0  0  0  0  0  0
   41.3130   32.9620   37.9960 C   0  0  0  0  0  3  0  0  0  0  0  0
   41.6970   32.6790   39.2820 C   0  0  0  0  0  0  0  0  0  0  0  0
   42.8320   33.7710   40.0340 Cl  0  0  0  0  0  0  0  0  0  0  0  0
   41.2320   31.5850   39.9920 C   0  0  0  0  0  0  0  0  0  0  0  0
   41.5620   31.4010   41.0040 H   0  0  0  0  0  0  0  0  0  0  0  0
  1 13  1  0  0  0  0
  2  1  1  0  0  0  0
  2  7  1  0  0  0  0
  3  2  2  0  0  0  0
  4  5  2  0  0  0  0
  4  3  1  0  0  0  0
  5  6  1  0  0  0  0
  6 25  1  0  0  0  0
  6  1  2  0  0  0  0
  8  3  1  0  0  0  0
  9  4  1  0  0  0  0
 10  5  1  0  0  0  0
 11 16  1  0  0  0  0
 11 19  1  0  0  0  0
 12 11  2  0  0  0  0
 13 14  2  0  0  0  0
 13 12  1  0  0  0  0
 14 15  1  0  0  0  0
 15 18  1  0  0  0  0
 15 16  2  0  0  0  0
 17 12  1  0  0  0  0
 19 21  1  0  0  0  0
 19 20  1  0  0  0  0
 22 19  1  0  0  0  0
 23 29  1  0  0  0  0
 24 23  2  0  0  0  0
 25 23  1  0  0  0  0
 25 26  1  0  0  0  0
 28 35  1  0  0  0  0
 28 27  1  0  0  0  0
 29 28  2  0  0  0  0
 30 32  2  0  0  0  0
 30 29  1  0  0  0  0
 31 30  1  0  0  0  0
 32 33  1  0  0  0  0
 33 35  2  0  0  0  0
 33 34  1  0  0  0  0
 35 36  1  0  0  0  0
M  END
>  <minimizedAffinity>
-5.97505951

$$$$

 OpenBabel03252502293D

 36 38  0  0  0  0  0  0  0  0999 V2000
   39.5270   29.8590   41.8330 C   0  0  0  0  0  0  0  0  0  0  0  0
   40.4740   30.1540   42.8000 C   0  0  0  0  0  0  0  0  0  0  0  0
   41.3970   31.1650   42.5460 C   0  0  0  0  0  0  0  0  0  0  0  0
   41.3540   31.8420   41.3620 C   0  0  0  0  0  0  0  0  0  0  0  0
   40.4210   31.5700   40.3820 C   0  0  0  0  0  0  0  0  0  0  0  0
   39.5090   30.5510   40.6650 C   0  0  0  0  0  0  0  0  0  0  0  0
   40.5200   29.6250   43.7430 H   0  0  0  0  0  0  0  0  0  0  0  0
   42.1360   31.4040   43.2870 H   0  0  0  0  0  0  0  0  0  0  0  0
   42.0890   32.6280   41.1920 H   0  0  0  0  0  0  0  0  0  0  0  0
   40.3670   32.0950   39.4310 H   0  0  0  0  0  0  0  0  0  0  0  0
   37.4870   26.6830   41.8430 C   0  0  0  0  0  0  0  0  0  0  0  0
   38.4260   27.6530   41.4240 C   0  0  0  0  0  0  0  0  0  0  0  0
   38.5920   28.7940   42.1640 C   0  0  0  0  0  0  0  0  0  0  0  0
   37.8310   28.9290   43.2780 N   0  0  0  0  0  0  0  0  0  0  0  0
   36.9330   28.0010   43.6780 C   0  0  0  0  0  0  0  0  0  0  0  0
   36.7590   26.8750   42.9630 N   0  0  0  0  0  0  0  0  0  0  0  0
   39.0140   27.5180   40.5380 H   0  0  0  0  0  0  0  0  0  0  0  0
   36.3410   28.1490   44.5790 H   0  0  0  0  0  0  0  0  0  0  0  0
   37.3000   25.4500   41.0560 C   0  0  0  0  0  0  0  0  0  0  0  0
   36.4610   25.7610   39.9870 F   0  0  0  0  0  0  0  0  0  0  0  0
   36.5830   24.5650   41.8490 F   0  0  0  0  0  0  0  0  0  0  0  0
   38.4770   24.9170   40.5910 F   0  0  0  0  0  0  0  0  0  0  0  0
   37.3370   30.7760   39.2310 C   0  0  0  0  0  0  0  0  0  0  0  0
   36.9400   31.9080   39.4690 O   0  0  0  0  0  0  0  0  0  0  0  0
   38.4970   30.1680   39.7590 N   0  0  0  0  0  0  0  0  0  0  0  0
   38.7300   29.1770   39.4420 H   0  0  0  0  0  0  0  0  0  0  0  0
   35.2480   29.2990   40.6710 Cl  0  0  0  0  0  0  0  0  0  0  0  0
   35.5020   29.3130   38.9320 C   0  0  0  0  0  0  0  0  0  0  0  0
   36.4960   30.0210   38.3050 C   0  0  0  0  0  0  0  0  0  0  0  0
   36.6450   29.9890   36.9160 C   0  0  0  0  0  0  0  0  0  0  0  0
   37.4520   30.5750   36.5130 H   0  0  0  0  0  0  0  0  0  0  0  0
   35.7760   29.2310   36.1590 C   0  0  0  0  0  3  0  0  0  0  0  0
   34.7920   28.5330   36.8090 C   0  0  0  0  0  0  0  0  0  0  0  0
   33.7060   27.5820   35.8270 Cl  0  0  0  0  0  0  0  0  0  0  0  0
   34.6260   28.5510   38.1840 C   0  0  0  0  0  0  0  0  0  0  0  0
   33.8350   27.9840   38.6540 H   0  0  0  0  0  0  0  0  0  0  0  0
  1 13  1  0  0  0  0
  1  2  1  0  0  0  0
  2  7  1  0  0  0  0
  3  2  2  0  0  0  0
  3  8  1  0  0  0  0
  4  3  1  0  0  0  0
  5  6  1  0  0  0  0
  5  4  2  0  0  0  0
  6  1  2  0  0  0  0
  9  4  1  0  0  0  0
 10  5  1  0  0  0  0
 11 16  1  0  0  0  0
 12 11  2  0  0  0  0
 12 13  1  0  0  0  0
 13 14  2  0  0  0  0
 14 15  1  0  0  0  0
 15 18  1  0  0  0  0
 16 15  2  0  0  0  0
 17 12  1  0  0  0  0
 19 11  1  0  0  0  0
 19 21  1  0  0  0  0
 20 19  1  0  0  0  0
 22 19  1  0  0  0  0
 23 24  2  0  0  0  0
 23 25  1  0  0  0  0
 25  6  1  0  0  0  0
 26 25  1  0  0  0  0
 28 27  1  0  0  0  0
 29 28  1  0  0  0  0
 29 23  1  0  0  0  0
 30 29  2  0  0  0  0
 31 30  1  0  0  0  0
 32 33  2  0  0  0  0
 32 30  1  0  0  0  0
 33 35  1  0  0  0  0
 34 33  1  0  0  0  0
 35 36  1  0  0  0  0
 35 28  2  0  0  0  0
M  END
>  <minimizedAffinity>
-5.9600997

$$$$

 OpenBabel03252502293D

 36 38  0  0  0  0  0  0  0  0999 V2000
   37.5100   31.2750   39.9740 C   0  0  0  0  0  0  0  0  0  0  0  0
   37.3690   32.6400   39.7820 C   0  0  0  0  0  0  0  0  0  0  0  0
   38.3490   33.4930   40.2820 C   0  0  0  0  0  0  0  0  0  0  0  0
   39.4240   32.9760   40.9460 C   0  0  0  0  0  0  0  0  0  0  0  0
   39.5910   31.6220   41.1510 C   0  0  0  0  0  0  0  0  0  0  0  0
   38.5920   30.7920   40.6390 C   0  0  0  0  0  0  0  0  0  0  0  0
   36.5220   33.0630   39.2580 H   0  0  0  0  0  0  0  0  0  0  0  0
   38.2500   34.5520   40.1400 H   0  0  0  0  0  0  0  0  0  0  0  0
   40.1740   33.6670   41.3260 H   0  0  0  0  0  0  0  0  0  0  0  0
   40.4380   31.1860   41.6770 H   0  0  0  0  0  0  0  0  0  0  0  0
   35.2380   29.3310   37.6710 C   0  0  0  0  0  0  0  0  0  0  0  0
   36.3070   30.1550   38.0930 C   0  0  0  0  0  0  0  0  0  0  0  0
   36.4510   30.4430   39.4240 C   0  0  0  0  0  0  0  0  0  0  0  0
   35.5430   29.9100   40.2780 N   0  0  0  0  0  0  0  0  0  0  0  0
   34.5210   29.1230   39.8740 C   0  0  0  0  0  0  0  0  0  0  0  0
   34.3660   28.8310   38.5710 N   0  0  0  0  0  0  0  0  0  0  0  0
   37.0110   30.5620   37.3930 H   0  0  0  0  0  0  0  0  0  0  0  0
   33.8120   28.7150   40.5930 H   0  0  0  0  0  0  0  0  0  0  0  0
   35.0720   29.0130   36.2410 C   0  0  0  0  0  0  0  0  0  0  0  0
   33.7660   29.3500   35.8880 F   0  0  0  0  0  0  0  0  0  0  0  0
   35.1480   27.6330   36.1190 F   0  0  0  0  0  0  0  0  0  0  0  0
   35.9630   29.6710   35.4300 F   0  0  0  0  0  0  0  0  0  0  0  0
   39.0450   28.4820   41.7700 C   0  0  0  0  0  0  0  0  0  0  0  0
   39.4860   28.7730   42.8740 O   0  0  0  0  0  0  0  0  0  0  0  0
   38.6330   29.3880   40.7680 N   0  0  0  0  0  0  0  0  0  0  0  0
   38.2480   28.9860   39.8600 H   0  0  0  0  0  0  0  0  0  0  0  0
   36.4830   27.3990   42.7100 Cl  0  0  0  0  0  0  0  0  0  0  0  0
   37.7740   26.4930   41.9350 C   0  0  0  0  0  0  0  0  0  0  0  0
   38.9560   27.0460   41.5130 C   0  0  0  0  0  0  0  0  0  0  0  0
   39.9440   26.2690   40.9020 C   0  0  0  0  0  0  0  0  0  0  0  0
   40.8380   26.7880   40.6030 H   0  0  0  0  0  0  0  0  0  0  0  0
   39.7270   24.9190   40.7190 C   0  0  0  0  0  3  0  0  0  0  0  0
   38.5380   24.3900   41.1490 C   0  0  0  0  0  0  0  0  0  0  0  0
   38.2900   22.6800   40.9060 Cl  0  0  0  0  0  0  0  0  0  0  0  0
   37.5460   25.1430   41.7560 C   0  0  0  0  0  0  0  0  0  0  0  0
   36.6230   24.6830   42.0800 H   0  0  0  0  0  0  0  0  0  0  0  0
  1  6  1  0  0  0  0
  2  1  2  0  0  0  0
  2  3  1  0  0  0  0
  3  4  2  0  0  0  0
  4  5  1  0  0  0  0
  4  9  1  0  0  0  0
  5 10  1  0  0  0  0
  6 25  1  0  0  0  0
  6  5  2  0  0  0  0
  7  2  1  0  0  0  0
  8  3  1  0  0  0  0
 11 12  2  0  0  0  0
 11 16  1  0  0  0  0
 12 13  1  0  0  0  0
 13  1  1  0  0  0  0
 13 14  2  0  0  0  0
 15 14  1  0  0  0  0
 15 18  1  0  0  0  0
 16 15  2  0  0  0  0
 17 12  1  0  0  0  0
 19 11  1  0  0  0  0
 20 19  1  0  0  0  0
 21 19  1  0  0  0  0
 22 19  1  0  0  0  0
 23 24  2  0  0  0  0
 25 23  1  0  0  0  0
 26 25  1  0  0  0  0
 28 27  1  0  0  0  0
 29 23  1  0  0  0  0
 29 28  2  0  0  0  0
 30 29  1  0  0  0  0
 31 30  1  0  0  0  0
 32 30  2  0  0  0  0
 32 33  1  0  0  0  0
 33 35  2  0  0  0  0
 34 33  1  0  0  0  0
 35 28  1  0  0  0  0
 35 36  1  0  0  0  0
M  END
>  <minimizedAffinity>
-5.93196726

$$$$

 OpenBabel03252502293D

 36 38  0  0  0  0  0  0  0  0999 V2000
   36.4340   25.4280   39.6230 C   0  0  0  0  0  0  0  0  0  0  0  0
   36.2070   24.0700   39.4670 C   0  0  0  0  0  0  0  0  0  0  0  0
   35.5240   23.6300   38.3370 C   0  0  0  0  0  0  0  0  0  0  0  0
   35.0920   24.5340   37.4100 C   0  0  0  0  0  0  0  0  0  0  0  0
   35.3050   25.8910   37.5390 C   0  0  0  0  0  0  0  0  0  0  0  0
   35.9930   26.3020   38.6830 C   0  0  0  0  0  0  0  0  0  0  0  0
   36.5440   23.3420   40.1940 H   0  0  0  0  0  0  0  0  0  0  0  0
   35.3410   22.5800   38.2050 H   0  0  0  0  0  0  0  0  0  0  0  0
   34.5600   24.1600   36.5370 H   0  0  0  0  0  0  0  0  0  0  0  0
   34.9710   26.6310   36.8150 H   0  0  0  0  0  0  0  0  0  0  0  0
   38.9590   25.7260   42.4130 C   0  0  0  0  0  0  0  0  0  0  0  0
   38.3450   25.2670   41.2250 C   0  0  0  0  0  0  0  0  0  0  0  0
   37.1560   25.8180   40.8250 C   0  0  0  0  0  0  0  0  0  0  0  0
   36.6270   26.7910   41.6060 N   0  0  0  0  0  0  0  0  0  0  0  0
   37.2150   27.2300   42.7410 C   0  0  0  0  0  0  0  0  0  0  0  0
   38.3820   26.7000   43.1480 N   0  0  0  0  0  0  0  0  0  0  0  0
   38.7880   24.4940   40.6270 H   0  0  0  0  0  0  0  0  0  0  0  0
   36.7560   28.0140   43.3410 H   0  0  0  0  0  0  0  0  0  0  0  0
   40.2390   25.1420   42.8550 C   0  0  0  0  0  0  0  0  0  0  0  0
   40.9790   24.8450   41.7110 F   0  0  0  0  0  0  0  0  0  0  0  0
   39.9490   23.9190   43.4410 F   0  0  0  0  0  0  0  0  0  0  0  0
   40.9590   25.9720   43.6780 F   0  0  0  0  0  0  0  0  0  0  0  0
   35.5570   28.8660   38.9220 C   0  0  0  0  0  0  0  0  0  0  0  0
   34.3690   28.9920   38.6570 O   0  0  0  0  0  0  0  0  0  0  0  0
   36.2860   27.6570   38.9440 N   0  0  0  0  0  0  0  0  0  0  0  0
   37.3160   27.7000   39.2150 H   0  0  0  0  0  0  0  0  0  0  0  0
   36.7990   30.0230   36.5260 Cl  0  0  0  0  0  0  0  0  0  0  0  0
   36.8400   30.6980   38.1480 C   0  0  0  0  0  0  0  0  0  0  0  0
   36.2420   30.1170   39.2390 C   0  0  0  0  0  0  0  0  0  0  0  0
   36.3120   30.7060   40.5040 C   0  0  0  0  0  0  0  0  0  0  0  0
   35.8140   30.1800   41.3000 H   0  0  0  0  0  0  0  0  0  0  0  0
   36.9940   31.8940   40.6620 C   0  0  0  0  0  3  0  0  0  0  0  0
   37.5830   32.4540   39.5580 C   0  0  0  0  0  0  0  0  0  0  0  0
   38.4400   33.9570   39.7860 Cl  0  0  0  0  0  0  0  0  0  0  0  0
   37.5250   31.8880   38.2950 C   0  0  0  0  0  0  0  0  0  0  0  0
   38.0050   32.3650   37.4520 H   0  0  0  0  0  0  0  0  0  0  0  0
  1 13  1  0  0  0  0
  2  1  1  0  0  0  0
  2  7  1  0  0  0  0
  3  2  2  0  0  0  0
  4  5  2  0  0  0  0
  4  3  1  0  0  0  0
  5  6  1  0  0  0  0
  6 25  1  0  0  0  0
  6  1  2  0  0  0  0
  8  3  1  0  0  0  0
  9  4  1  0  0  0  0
 10  5  1  0  0  0  0
 11 19  1  0  0  0  0
 11 16  1  0  0  0  0
 12 11  2  0  0  0  0
 13 12  1  0  0  0  0
 13 14  2  0  0  0  0
 14 15  1  0  0  0  0
 15 16  2  0  0  0  0
 15 18  1  0  0  0  0
 17 12  1  0  0  0  0
 19 21  1  0  0  0  0
 19 22  1  0  0  0  0
 20 19  1  0  0  0  0
 23 25  1  0  0  0  0
 23 29  1  0  0  0  0
 24 23  2  0  0  0  0
 25 26  1  0  0  0  0
 27 28  1  0  0  0  0
 28 35  2  0  0  0  0
 28 29  1  0  0  0  0
 29 30  2  0  0  0  0
 30 32  1  0  0  0  0
 30 31  1  0  0  0  0
 33 34  1  0  0  0  0
 33 32  2  0  0  0  0
 35 33  1  0  0  0  0
 36 35  1  0  0  0  0
M  END
>  <minimizedAffinity>
-5.92756367

$$$$

 OpenBabel03252502293D

 36 38  0  0  0  0  0  0  0  0999 V2000
   37.3390   25.5580   40.1320 C   0  0  0  0  0  0  0  0  0  0  0  0
   37.1840   24.1820   40.0890 C   0  0  0  0  0  0  0  0  0  0  0  0
   37.6910   23.4170   41.1360 C   0  0  0  0  0  0  0  0  0  0  0  0
   38.3270   24.0290   42.1770 C   0  0  0  0  0  0  0  0  0  0  0  0
   38.4940   25.3970   42.2470 C   0  0  0  0  0  0  0  0  0  0  0  0
   37.9750   26.1370   41.1830 C   0  0  0  0  0  0  0  0  0  0  0  0
   36.6830   23.6840   39.2690 H   0  0  0  0  0  0  0  0  0  0  0  0
   37.5780   22.3500   41.1140 H   0  0  0  0  0  0  0  0  0  0  0  0
   38.7130   23.4050   42.9810 H   0  0  0  0  0  0  0  0  0  0  0  0
   38.9960   25.9070   43.0660 H   0  0  0  0  0  0  0  0  0  0  0  0
   36.6120   28.1470   37.4830 C   0  0  0  0  0  0  0  0  0  0  0  0
   37.2280   27.5220   38.5910 C   0  0  0  0  0  0  0  0  0  0  0  0
   36.7830   26.2950   39.0080 C   0  0  0  0  0  0  0  0  0  0  0  0
   35.7560   25.7390   38.3180 N   0  0  0  0  0  0  0  0  0  0  0  0
   35.1680   26.3370   37.2580 C   0  0  0  0  0  0  0  0  0  0  0  0
   35.5930   27.5410   36.8370 N   0  0  0  0  0  0  0  0  0  0  0  0
   38.0390   27.9870   39.1180 H   0  0  0  0  0  0  0  0  0  0  0  0
   34.3450   25.8560   36.7320 H   0  0  0  0  0  0  0  0  0  0  0  0
   37.0830   29.4670   37.0240 C   0  0  0  0  0  0  0  0  0  0  0  0
   36.1760   30.4180   37.4910 F   0  0  0  0  0  0  0  0  0  0  0  0
   36.9650   29.4840   35.6420 F   0  0  0  0  0  0  0  0  0  0  0  0
   38.3490   29.7730   37.4570 F   0  0  0  0  0  0  0  0  0  0  0  0
   37.7820   28.6090   42.0030 C   0  0  0  0  0  0  0  0  0  0  0  0
   37.3630   28.5110   43.1480 O   0  0  0  0  0  0  0  0  0  0  0  0
   38.0680   27.5440   41.1220 N   0  0  0  0  0  0  0  0  0  0  0  0
   38.4510   27.7830   40.1560 H   0  0  0  0  0  0  0  0  0  0  0  0
   35.4030   29.6400   40.6250 Cl  0  0  0  0  0  0  0  0  0  0  0  0
   36.9050   30.5100   40.9000 C   0  0  0  0  0  0  0  0  0  0  0  0
   37.9920   29.9830   41.5510 C   0  0  0  0  0  0  0  0  0  0  0  0
   39.1590   30.7290   41.7370 C   0  0  0  0  0  0  0  0  0  0  0  0
   39.9600   30.2340   42.2580 H   0  0  0  0  0  0  0  0  0  0  0  0
   39.2210   32.0210   41.2570 C   0  0  0  0  0  3  0  0  0  0  0  0
   38.1220   32.5240   40.6100 C   0  0  0  0  0  0  0  0  0  0  0  0
   38.2270   34.1610   40.0140 Cl  0  0  0  0  0  0  0  0  0  0  0  0
   36.9560   31.8020   40.4160 C   0  0  0  0  0  0  0  0  0  0  0  0
   36.1140   32.2400   39.9000 H   0  0  0  0  0  0  0  0  0  0  0  0
  1  6  1  0  0  0  0
  2  1  2  0  0  0  0
  2  3  1  0  0  0  0
  3  4  2  0  0  0  0
  4  5  1  0  0  0  0
  4  9  1  0  0  0  0
  5 10  1  0  0  0  0
  6  5  2  0  0  0  0
  7  2  1  0  0  0  0
  8  3  1  0  0  0  0
 11 12  1  0  0  0  0
 12 13  2  0  0  0  0
 12 17  1  0  0  0  0
 13  1  1  0  0  0  0
 14 13  1  0  0  0  0
 15 14  2  0  0  0  0
 16 15  1  0  0  0  0
 16 11  2  0  0  0  0
 18 15  1  0  0  0  0
 19 22  1  0  0  0  0
 19 11  1  0  0  0  0
 19 20  1  0  0  0  0
 21 19  1  0  0  0  0
 23 24  2  0  0  0  0
 25  6  1  0  0  0  0
 25 23  1  0  0  0  0
 26 25  1  0  0  0  0
 27 28  1  0  0  0  0
 28 29  1  0  0  0  0
 29 30  2  0  0  0  0
 29 23  1  0  0  0  0
 30 31  1  0  0  0  0
 32 30  1  0  0  0  0
 33 32  2  0  0  0  0
 34 33  1  0  0  0  0
 35 33  1  0  0  0  0
 35 28  2  0  0  0  0
 36 35  1  0  0  0  0
M  END
>  <minimizedAffinity>
-5.85532475

$$$$

 OpenBabel03252502293D

 36 38  0  0  0  0  0  0  0  0999 V2000
   37.6180   31.3390   39.3070 C   0  0  0  0  0  0  0  0  0  0  0  0
   37.6410   32.7050   39.0760 C   0  0  0  0  0  0  0  0  0  0  0  0
   38.3320   33.5240   39.9650 C   0  0  0  0  0  0  0  0  0  0  0  0
   38.9690   32.9730   41.0390 C   0  0  0  0  0  0  0  0  0  0  0  0
   38.9640   31.6170   41.2930 C   0  0  0  0  0  0  0  0  0  0  0  0
   38.2620   30.8220   40.3840 C   0  0  0  0  0  0  0  0  0  0  0  0
   37.1390   33.1550   38.2290 H   0  0  0  0  0  0  0  0  0  0  0  0
   38.3570   34.5840   39.7970 H   0  0  0  0  0  0  0  0  0  0  0  0
   39.5010   33.6380   41.7160 H   0  0  0  0  0  0  0  0  0  0  0  0
   39.4640   31.1550   42.1410 H   0  0  0  0  0  0  0  0  0  0  0  0
   34.9900   29.3010   37.5210 C   0  0  0  0  0  0  0  0  0  0  0  0
   35.6110   30.0650   38.5350 C   0  0  0  0  0  0  0  0  0  0  0  0
   36.8800   30.5430   38.3380 C   0  0  0  0  0  0  0  0  0  0  0  0
   37.4780   30.2510   37.1560 N   0  0  0  0  0  0  0  0  0  0  0  0
   36.8830   29.5210   36.1870 C   0  0  0  0  0  0  0  0  0  0  0  0
   35.6390   29.0440   36.3650 N   0  0  0  0  0  0  0  0  0  0  0  0
   35.1130   30.2800   39.4600 H   0  0  0  0  0  0  0  0  0  0  0  0
   37.3990   29.3090   35.2520 H   0  0  0  0  0  0  0  0  0  0  0  0
   33.6250   28.7810   37.7200 C   0  0  0  0  0  0  0  0  0  0  0  0
   32.7620   29.5780   36.9690 F   0  0  0  0  0  0  0  0  0  0  0  0
   33.2900   29.0130   39.0470 F   0  0  0  0  0  0  0  0  0  0  0  0
   33.4860   27.4640   37.3570 F   0  0  0  0  0  0  0  0  0  0  0  0
   37.7740   28.5270   41.5320 C   0  0  0  0  0  0  0  0  0  0  0  0
   37.3480   28.8320   42.6380 O   0  0  0  0  0  0  0  0  0  0  0  0
   38.1760   29.4190   40.5140 N   0  0  0  0  0  0  0  0  0  0  0  0
   38.5070   29.0060   39.5900 H   0  0  0  0  0  0  0  0  0  0  0  0
   40.2610   27.4150   42.6280 Cl  0  0  0  0  0  0  0  0  0  0  0  0
   39.0040   26.5210   41.7860 C   0  0  0  0  0  0  0  0  0  0  0  0
   37.8570   27.0880   41.2910 C   0  0  0  0  0  0  0  0  0  0  0  0
   36.8940   26.3200   40.6300 C   0  0  0  0  0  0  0  0  0  0  0  0
   36.0270   26.8500   40.2750 H   0  0  0  0  0  0  0  0  0  0  0  0
   37.0990   24.9660   40.4720 C   0  0  0  0  0  3  0  0  0  0  0  0
   38.2530   24.4230   40.9750 C   0  0  0  0  0  0  0  0  0  0  0  0
   38.4880   22.7070   40.7610 Cl  0  0  0  0  0  0  0  0  0  0  0  0
   39.2200   25.1660   41.6340 C   0  0  0  0  0  0  0  0  0  0  0  0
   40.1150   24.6950   42.0140 H   0  0  0  0  0  0  0  0  0  0  0  0
  1  6  1  0  0  0  0
  2  1  2  0  0  0  0
  2  3  1  0  0  0  0
  3  4  2  0  0  0  0
  4  5  1  0  0  0  0
  4  9  1  0  0  0  0
  5 10  1  0  0  0  0
  6 25  1  0  0  0  0
  6  5  2  0  0  0  0
  7  2  1  0  0  0  0
  8  3  1  0  0  0  0
 11 19  1  0  0  0  0
 11 12  1  0  0  0  0
 12 17  1  0  0  0  0
 13 12  2  0  0  0  0
 13  1  1  0  0  0  0
 14 13  1  0  0  0  0
 15 16  1  0  0  0  0
 15 14  2  0  0  0  0
 16 11  2  0  0  0  0
 18 15  1  0  0  0  0
 19 21  1  0  0  0  0
 20 19  1  0  0  0  0
 22 19  1  0  0  0  0
 23 24  2  0  0  0  0
 25 23  1  0  0  0  0
 26 25  1  0  0  0  0
 28 27  1  0  0  0  0
 29 23  1  0  0  0  0
 29 28  2  0  0  0  0
 30 29  1  0  0  0  0
 31 30  1  0  0  0  0
 32 30  2  0  0  0  0
 32 33  1  0  0  0  0
 33 35  2  0  0  0  0
 34 33  1  0  0  0  0
 35 28  1  0  0  0  0
 35 36  1  0  0  0  0
M  END
>  <minimizedAffinity>
-5.84014845

$$$$
