
 OpenBabel03252502273D

 36 38  0  0  0  0  0  0  0  0999 V2000
   45.0740   34.4950   41.3120 C   0  0  0  0  0  0  0  0  0  0  0  0
   45.3920   35.2150   42.4520 C   0  0  0  0  0  0  0  0  0  0  0  0
   46.7290   35.5090   42.7080 C   0  0  0  0  0  0  0  0  0  0  0  0
   47.6940   35.0880   41.8410 C   0  0  0  0  0  0  0  0  0  0  0  0
   47.4060   34.3700   40.6980 C   0  0  0  0  0  0  0  0  0  0  0  0
   46.0580   34.0900   40.4680 C   0  0  0  0  0  0  0  0  0  0  0  0
   44.6370   35.5550   43.1480 H   0  0  0  0  0  0  0  0  0  0  0  0
   46.9880   36.0660   43.5880 H   0  0  0  0  0  0  0  0  0  0  0  0
   48.7310   35.3320   42.0680 H   0  0  0  0  0  0  0  0  0  0  0  0
   48.1580   34.0230   39.9920 H   0  0  0  0  0  0  0  0  0  0  0  0
   41.4040   34.7700   40.4720 C   0  0  0  0  0  0  0  0  0  0  0  0
   42.7580   35.1440   40.6350 C   0  0  0  0  0  0  0  0  0  0  0  0
   43.6590   34.2260   41.1050 C   0  0  0  0  0  0  0  0  0  0  0  0
   43.1920   32.9850   41.3910 N   0  0  0  0  0  0  0  0  0  0  0  0
   41.8980   32.6280   41.2330 C   0  0  0  0  0  0  0  0  0  0  0  0
   41.0010   33.5180   40.7740 N   0  0  0  0  0  0  0  0  0  0  0  0
   43.0980   36.1340   40.4010 H   0  0  0  0  0  0  0  0  0  0  0  0
   41.5630   31.6200   41.4760 H   0  0  0  0  0  0  0  0  0  0  0  0
   40.4240   35.7480   39.9660 C   0  0  0  0  0  0  0  0  0  0  0  0
   39.2610   35.0480   39.6510 F   0  0  0  0  0  0  0  0  0  0  0  0
   40.9120   36.2270   38.7590 F   0  0  0  0  0  0  0  0  0  0  0  0
   40.1430   36.7490   40.8640 F   0  0  0  0  0  0  0  0  0  0  0  0
   46.0460   32.2140   38.6510 C   0  0  0  0  0  0  0  0  0  0  0  0
   46.9980   31.5060   38.9480 O   0  0  0  0  0  0  0  0  0  0  0  0
   45.6160   33.3700   39.3380 N   0  0  0  0  0  0  0  0  0  0  0  0
   44.7520   33.8760   38.9730 H   0  0  0  0  0  0  0  0  0  0  0  0
   43.9430   30.2870   39.3480 Cl  0  0  0  0  0  0  0  0  0  0  0  0
   44.3220   30.8780   37.7370 C   0  0  0  0  0  0  0  0  0  0  0  0
   45.3170   31.7810   37.4610 C   0  0  0  0  0  0  0  0  0  0  0  0
   45.5660   32.2110   36.1550 C   0  0  0  0  0  0  0  0  0  0  0  0
   46.3660   32.9190   36.0340 H   0  0  0  0  0  0  0  0  0  0  0  0
   44.7980   31.7170   35.1220 C   0  0  0  0  0  3  0  0  0  0  0  0
   43.8090   30.8170   35.4220 C   0  0  0  0  0  0  0  0  0  0  0  0
   42.8520   30.2100   34.0950 Cl  0  0  0  0  0  0  0  0  0  0  0  0
   43.5450   30.3780   36.7090 C   0  0  0  0  0  0  0  0  0  0  0  0
   42.7550   29.6660   36.9000 H   0  0  0  0  0  0  0  0  0  0  0  0
  1  2  1  0  0  0  0
  2  3  2  0  0  0  0
  2  7  1  0  0  0  0
  3  8  1  0  0  0  0
  4  9  1  0  0  0  0
  4  3  1  0  0  0  0
  5  4  2  0  0  0  0
  6  5  1  0  0  0  0
  6  1  2  0  0  0  0
 10  5  1  0  0  0  0
 11 12  2  0  0  0  0
 11 16  1  0  0  0  0
 12 13  1  0  0  0  0
 13  1  1  0  0  0  0
 13 14  2  0  0  0  0
 15 14  1  0  0  0  0
 15 18  1  0  0  0  0
 16 15  2  0  0  0  0
 17 12  1  0  0  0  0
 19 11  1  0  0  0  0
 19 22  1  0  0  0  0
 20 19  1  0  0  0  0
 21 19  1  0  0  0  0
 23 24  2  0  0  0  0
 23 25  1  0  0  0  0
 25  6  1  0  0  0  0
 26 25  1  0  0  0  0
 28 27  1  0  0  0  0
 29 28  1  0  0  0  0
 29 23  1  0  0  0  0
 30 29  2  0  0  0  0
 31 30  1  0  0  0  0
 32 33  2  0  0  0  0
 32 30  1  0  0  0  0
 33 35  1  0  0  0  0
 34 33  1  0  0  0  0
 35 36  1  0  0  0  0
 35 28  2  0  0  0  0
M  END
>  <minimizedAffinity>
-6.13683605

>  <minimizedRMSD>
0.496762633

$$$$
