
 OpenBabel03252503313D

 42 44  0  0  1  0  0  0  0  0999 V2000
   45.5670   34.1110   42.1980 C   0  0  0  0  0  0  0  0  0  0  0  0
   46.5700   35.0000   41.7180 C   0  0  0  0  0  0  0  0  0  0  0  0
   47.8930   34.7060   42.0890 C   0  0  0  0  0  0  0  0  0  0  0  0
   48.1060   33.6180   42.8630 N   0  0  0  0  0  0  0  0  0  0  0  0
   47.1180   32.8070   43.2920 C   0  0  0  0  0  0  0  0  0  0  0  0
   45.8380   33.0620   42.9530 N   0  0  0  0  0  0  0  0  0  0  0  0
   43.9220   33.9850   40.5260 C   0  0  0  0  0  0  0  0  0  0  0  0
   44.8820   33.5570   39.7970 O   0  0  0  0  0  0  0  0  0  0  0  0
   44.1920   34.3450   41.8610 N   0  0  0  0  0  0  0  0  0  0  0  0
   42.6420   34.0630   39.9300 N   0  0  0  0  0  0  0  0  0  0  0  0
   42.5150   33.9970   38.4620 C   0  0  0  0  0  0  0  0  0  0  0  0
   41.3070   34.8450   38.2100 C   0  0  0  0  0  0  0  0  0  0  0  0
   40.7760   35.2320   39.5600 C   0  0  0  0  0  0  0  0  0  0  0  0
   41.3270   34.1770   40.4880 C   0  0  1  0  0  0  0  0  0  0  0  0
   46.2180   35.8200   41.1100 H   0  0  0  0  0  0  0  0  0  0  0  0
   47.3720   31.9440   43.9180 H   0  0  0  0  0  0  0  0  0  0  0  0
   43.4180   34.7230   42.4390 H   0  0  0  0  0  0  0  0  0  0  0  0
   43.4130   34.3220   37.9400 H   0  0  0  0  0  0  0  0  0  0  0  0
   42.2250   32.9390   38.2540 H   0  0  0  0  0  0  0  0  0  0  0  0
   41.6590   35.7240   37.6120 H   0  0  0  0  0  0  0  0  0  0  0  0
   40.5450   34.3580   37.5670 H   0  0  0  0  0  0  0  0  0  0  0  0
   41.4690   36.1070   39.8290 H   0  0  0  0  0  0  0  0  0  0  0  0
   39.8320   35.6550   39.6570 H   0  0  0  0  0  0  0  0  0  0  0  0
   41.2910   34.6140   41.4790 H   0  0  0  0  0  0  0  0  0  0  0  0
   39.3010   32.6300   40.8620 C   0  0  0  0  0  0  0  0  0  0  0  0
   38.7080   33.7190   41.0430 O   0  0  0  0  0  0  0  0  0  0  0  0
   40.6560   32.8870   40.4110 N   0  0  0  0  0  0  0  0  0  0  0  0
   41.2110   32.0760   39.9910 H   0  0  0  0  0  0  0  0  0  0  0  0
   40.6870   30.9880   43.0270 Cl  0  0  0  0  0  0  0  0  0  0  0  0
   39.4630   30.3590   41.9390 C   0  0  0  0  0  0  0  0  0  0  0  0
   38.9200   31.2170   41.0050 C   0  0  0  0  0  0  0  0  0  0  0  0
   37.9500   30.7460   40.1310 C   0  0  0  0  0  0  0  0  0  0  0  0
   37.5090   31.3920   39.3930 H   0  0  0  0  0  0  0  0  0  0  0  0
   37.5010   29.4500   40.1550 C   0  0  0  0  0  3  0  0  0  0  0  0
   38.0470   28.5990   41.0880 C   0  0  0  0  0  0  0  0  0  0  0  0
   37.5520   26.9310   41.2070 Cl  0  0  0  0  0  0  0  0  0  0  0  0
   39.0200   29.0300   41.9810 C   0  0  0  0  0  0  0  0  0  0  0  0
   39.4980   28.4280   42.7420 H   0  0  0  0  0  0  0  0  0  0  0  0
   48.8970   35.6400   41.5790 C   0  0  0  0  0  0  0  0  0  0  0  0
   50.1600   35.1870   41.9760 F   0  0  0  0  0  0  0  0  0  0  0  0
   48.7130   36.8460   42.2550 F   0  0  0  0  0  0  0  0  0  0  0  0
   48.8930   35.7640   40.2290 F   0  0  0  0  0  0  0  0  0  0  0  0
  1  6  1  0  0  0  0
  2  3  1  0  0  0  0
  2  1  2  0  0  0  0
  3  4  2  0  0  0  0
  4  5  1  0  0  0  0
  5 16  1  0  0  0  0
  6  5  2  0  0  0  0
  7  9  1  0  0  0  0
  8  7  2  0  0  0  0
  9  1  1  0  0  0  0
  9 17  1  0  0  0  0
 10 14  1  0  0  0  0
 10  7  1  0  0  0  0
 11 10  1  0  0  0  0
 12 11  1  0  0  0  0
 12 13  1  0  0  0  0
 13 23  1  0  0  0  0
 13 22  1  0  0  0  0
 13 14  1  0  0  0  0
 14 24  1  1  0  0  0
 15  2  1  0  0  0  0
 18 11  1  0  0  0  0
 19 11  1  0  0  0  0
 20 12  1  0  0  0  0
 21 12  1  0  0  0  0
 25 31  1  0  0  0  0
 25 26  2  0  0  0  0
 27 14  1  0  0  0  0
 27 25  1  0  0  0  0
 28 27  1  0  0  0  0
 30 37  1  0  0  0  0
 30 29  1  0  0  0  0
 31 30  2  0  0  0  0
 32 34  2  0  0  0  0
 32 31  1  0  0  0  0
 33 32  1  0  0  0  0
 34 35  1  0  0  0  0
 35 36  1  0  0  0  0
 35 37  2  0  0  0  0
 37 38  1  0  0  0  0
 39 40  1  0  0  0  0
 39  3  1  0  0  0  0
 39 41  1  0  0  0  0
 42 39  1  0  0  0  0
M  END
>  <minimizedAffinity>
-6.93673325

>  <minimizedRMSD>
1.28828216

$$$$
