REMARK  Name = 
REMARK  4 active torsions:
REMARK  status: ('A' for Active; 'I' for Inactive)
REMARK    1  A    between atoms: C_1  and  C_9
REMARK    2  A    between atoms: C_6  and  N_19
REMARK    3  A    between atoms: C_7  and  C_13
REMARK    4  A    between atoms: C_17  and  C_29
REMARK                            x       y       z     vdW  Elec       q    Type
REMARK                         _______ _______ _______ _____ _____    ______ ____
ROOT
ATOM      1  C   UNL     1      45.128  34.413  41.190  0.00  0.00    +0.000 A 
ATOM      2  C   UNL     1      45.548  35.021  42.362  0.00  0.00    +0.000 A 
ATOM      3  C   UNL     1      46.908  35.254  42.546  0.00  0.00    +0.000 A 
ATOM      4  C   UNL     1      47.797  34.884  41.579  0.00  0.00    +0.000 A 
ATOM      5  C   UNL     1      47.407  34.278  40.402  0.00  0.00    +0.000 A 
ATOM      6  C   UNL     1      46.037  34.057  40.246  0.00  0.00    +0.000 A 
ATOM      7  H   UNL     1      44.854  35.319  43.137  0.00  0.00    +0.000 HD
ATOM      8  H   UNL     1      47.246  35.724  43.450  0.00  0.00    +0.000 HD
ATOM      9  H   UNL     1      48.854  35.079  41.751  0.00  0.00    +0.000 HD
ATOM     10  H   UNL     1      48.096  33.974  39.617  0.00  0.00    +0.000 HD
ENDROOT
BRANCH   1  13
ATOM     11  C   UNL     1      41.429  34.845  40.575  0.00  0.00    +0.000 A 
ATOM     12  C   UNL     1      42.803  35.164  40.665  0.00  0.00    +0.000 A 
ATOM     13  C   UNL     1      43.694  34.202  41.062  0.00  0.00    +0.000 A 
ATOM     14  N   UNL     1      43.196  32.974  41.351  0.00  0.00    +0.000 NA
ATOM     15  C   UNL     1      41.882  32.670  41.264  0.00  0.00    +0.000 A 
ATOM     16  N   UNL     1      40.995  33.603  40.876  0.00  0.00    +0.000 NA
ATOM     17  H   UNL     1      43.168  36.145  40.430  0.00  0.00    +0.000 HD
ATOM     18  H   UNL     1      41.523  31.671  41.506  0.00  0.00    +0.000 HD
BRANCH  11  19
ATOM     19  C   UNL     1      40.460  35.871  40.148  0.00  0.00    +0.000 C 
ATOM     20  F   UNL     1      39.234  35.234  39.960  0.00  0.00    +0.000 F 
ATOM     21  F   UNL     1      40.853  36.305  38.890  0.00  0.00    +0.000 F 
ATOM     22  F   UNL     1      40.323  36.898  41.049  0.00  0.00    +0.000 F 
ENDBRANCH  11  19
ENDBRANCH   1  13
BRANCH   6  25
ATOM     23  C   UNL     1      45.458  32.142  38.567  0.00  0.00    +0.000 C 
ATOM     24  O   UNL     1      45.934  31.140  39.083  0.00  0.00    +0.000 OA
ATOM     25  N   UNL     1      45.494  33.452  39.093  0.00  0.00    +0.000 N 
ATOM     26  H   UNL     1      45.015  34.226  38.539  0.00  0.00    +0.000 HD
BRANCH  23  29
ATOM     27 CL   UNL     1      43.319  30.147  38.828  0.00  0.00    +0.000 Cl
ATOM     28  C   UNL     1      43.790  30.982  37.355  0.00  0.00    +0.000 A 
ATOM     29  C   UNL     1      44.799  31.908  37.284  0.00  0.00    +0.000 A 
ATOM     30  C   UNL     1      45.124  32.537  36.079  0.00  0.00    +0.000 A 
ATOM     31  H   UNL     1      45.929  33.249  36.118  0.00  0.00    +0.000 HD
ATOM     32  C   UNL     1      44.417  32.220  34.938  0.00  0.00    +0.000 A 
ATOM     33  C   UNL     1      43.413  31.292  35.034  0.00  0.00    +0.000 A 
ATOM     34 CL   UNL     1      42.535  30.911  33.575  0.00  0.00    +0.000 Cl
ATOM     35  C   UNL     1      43.075  30.658  36.218  0.00  0.00    +0.000 A 
ATOM     36  H   UNL     1      42.275  29.931  36.248  0.00  0.00    +0.000 HD
ENDBRANCH  23  29
ENDBRANCH   6  25
TORSDOF 4
