
     RDKit          3D

 29 31  0  0  0  0  0  0  0  0999 V2000
   46.2687   34.4976   43.6291 C   0  0  0  0  0  0  0  0  0  0  0  0
   47.3697   33.8838   43.1278 C   0  0  0  0  0  0  0  0  0  0  0  0
   47.7574   32.7293   43.8078 C   0  0  0  0  0  0  0  0  0  0  0  0
   47.0133   32.3257   44.8986 N   0  0  0  0  0  0  0  0  0  0  0  0
   45.9482   32.9819   45.3310 C   0  0  0  0  0  0  0  0  0  0  0  0
   45.5228   34.1259   44.6943 N   0  0  0  0  0  0  0  0  0  0  0  0
   48.1774   34.3620   42.0642 C   0  0  0  0  0  0  0  0  0  0  0  0
   48.5551   35.6250   41.7564 C   0  0  0  0  0  0  0  0  0  0  0  0
   49.6720   34.8084   42.3878 C   0  0  0  0  0  0  0  0  0  0  0  0
   45.5693   35.6411   43.0426 C   0  0  0  0  0  0  0  0  0  0  0  0
   45.1981   36.8023   43.0714 O   0  0  0  0  0  0  0  0  0  0  0  0
   48.6136   32.1591   43.4992 H   0  0  0  0  0  0  0  0  0  0  0  0
   45.5137   32.4978   46.1971 H   0  0  0  0  0  0  0  0  0  0  0  0
   48.4431   33.4408   41.3828 H   0  0  0  0  0  0  0  0  0  0  0  0
   48.8286   35.9974   40.7254 H   0  0  0  0  0  0  0  0  0  0  0  0
   48.2893   36.5184   42.3906 H   0  0  0  0  0  0  0  0  0  0  0  0
   50.4724   34.4495   41.7604 H   0  0  0  0  0  0  0  0  0  0  0  0
   49.8248   34.8858   43.4628 H   0  0  0  0  0  0  0  0  0  0  0  0
   45.3879   32.6589   42.3421 Cl  0  0  0  0  0  0  0  0  0  0  0  0
   44.8438   33.9333   41.2796 C   0  0  0  0  0  0  0  0  0  0  0  0
   44.9939   35.2197   41.7270 C   0  0  0  0  0  0  0  0  0  0  0  0
   44.5417   36.1866   40.8176 C   0  0  0  0  0  0  0  0  0  0  0  0
   44.6484   37.2331   41.1467 H   0  0  0  0  0  0  0  0  0  0  0  0
   43.9889   35.9704   39.5799 C   0  0  0  0  0  0  0  0  0  0  0  0
   43.8778   34.6464   39.2159 C   0  0  0  0  0  0  0  0  0  0  0  0
   43.1832   34.2776   37.6528 Cl  0  0  0  0  0  0  0  0  0  0  0  0
   44.2901   33.6228   40.0321 C   0  0  0  0  0  0  0  0  0  0  0  0
   44.2169   32.5868   39.7779 H   0  0  0  0  0  0  0  0  0  0  0  0
   43.6851   36.8217   38.9869 H   0  0  0  0  0  0  0  0  0  0  0  0
  1  6  2  0
  2  1  1  0
  2  3  2  0
  3  4  1  0
  4  5  2  0
  6  5  1  0
  7  9  1  0
  7  2  1  0
  8  7  1  0
  8  9  1  0
 10  1  1  0
 11 10  2  0
  3 12  1  0
  5 13  1  0
  7 14  1  0
  8 15  1  0
  8 16  1  0
  9 17  1  0
  9 18  1  0
 19 20  1  0
 20 21  2  0
 21 22  1  0
 22 23  1  0
 22 24  2  0
 24 25  1  0
 25 26  1  0
 25 27  2  0
 27 28  1  0
 27 20  1  0
 24 29  1  0
 10 21  1  0
M  ISO  8  12  14  13  14  14  13  15  13  16  13  17  13  18  13  23  16
M  ISO  1  28  15
M  END
>  <DihAtoms>  (1) 
0,9,20,19

>  <DihDeg>  (1) 
-135.1725389643335

$$$$
