
     RDKit          3D

 22 23  0  0  0  0  0  0  0  0999 V2000
   44.5169   35.9135   44.6725 C   0  0  0  0  0  0  0  0  0  0  0  0
   45.1556   35.8896   43.4289 C   0  0  0  0  0  0  0  0  0  0  0  0
   46.0740   34.8588   43.2067 C   0  0  0  0  0  0  0  0  0  0  0  0
   46.2923   33.9533   44.1915 N   0  0  0  0  0  0  0  0  0  0  0  0
   45.6511   34.0185   45.3751 C   0  0  0  0  0  0  0  0  0  0  0  0
   44.7700   34.9995   45.6008 N   0  0  0  0  0  0  0  0  0  0  0  0
   45.8835   33.0443   46.4397 C   0  0  0  0  0  0  0  0  0  0  0  0
   45.1646   33.0124   47.4839 O   0  0  0  0  0  0  0  0  0  0  0  0
   43.8232   36.7308   44.7793 H   0  0  0  0  0  0  0  0  0  0  0  0
   45.0555   36.5503   42.5917 H   0  0  0  0  0  0  0  0  0  0  0  0
   46.6791   34.6389   42.3385 H   0  0  0  0  0  0  0  0  0  0  0  0
   45.6091   30.3227   47.7114 Cl  0  0  0  0  0  0  0  0  0  0  0  0
   46.9858   30.8358   46.7746 C   0  0  0  0  0  0  0  0  0  0  0  0
   46.9974   32.0922   46.2480 C   0  0  0  0  0  0  0  0  0  0  0  0
   48.0457   32.5995   45.4864 C   0  0  0  0  0  0  0  0  0  0  0  0
   48.0316   33.6180   45.0719 H   0  0  0  0  0  0  0  0  0  0  0  0
   49.1499   31.8126   45.2314 C   0  0  0  0  0  0  0  0  0  0  0  0
   49.1569   30.5207   45.7628 C   0  0  0  0  0  0  0  0  0  0  0  0
   50.5451   29.4788   45.4641 Cl  0  0  0  0  0  0  0  0  0  0  0  0
   48.0885   30.0617   46.5151 C   0  0  0  0  0  0  0  0  0  0  0  0
   48.1033   29.0457   46.9281 H   0  0  0  0  0  0  0  0  0  0  0  0
   49.9730   32.1820   44.6453 H   0  0  0  0  0  0  0  0  0  0  0  0
  1  6  2  0
  2  1  1  0
  3  2  2  0
  3  4  1  0
  4  5  2  0
  5  6  1  0
  5  7  1  0
  7  8  2  0
  1  9  1  0
  2 10  1  0
  3 11  1  0
 12 13  1  0
 13 14  2  0
 14 15  1  0
 15 16  1  0
 15 17  2  0
 17 18  1  0
 18 19  1  0
 18 20  2  0
 20 21  1  0
 20 13  1  0
 17 22  1  0
  7 14  1  0
M  ISO  5   9  14  10  14  11  14  16  16  21  15
M  END
>  <DihAtoms>  (1) 
4,6,13,12

>  <DihDeg>  (1) 
-135.00425835234856

$$$$
