
     RDKit          3D

 29 31  0  0  0  0  0  0  0  0999 V2000
   46.2687   34.4976   43.6291 C   0  0  0  0  0  0  0  0  0  0  0  0
   47.3697   33.8838   43.1278 C   0  0  0  0  0  0  0  0  0  0  0  0
   47.7574   32.7293   43.8078 C   0  0  0  0  0  0  0  0  0  0  0  0
   47.0133   32.3257   44.8986 N   0  0  0  0  0  0  0  0  0  0  0  0
   45.9482   32.9819   45.3310 C   0  0  0  0  0  0  0  0  0  0  0  0
   45.5228   34.1259   44.6943 N   0  0  0  0  0  0  0  0  0  0  0  0
   48.1774   34.3620   42.0642 C   0  0  0  0  0  0  0  0  0  0  0  0
   48.5551   35.6250   41.7564 C   0  0  0  0  0  0  0  0  0  0  0  0
   49.6720   34.8084   42.3878 C   0  0  0  0  0  0  0  0  0  0  0  0
   45.5693   35.6411   43.0426 C   0  0  0  0  0  0  0  0  0  0  0  0
   45.1981   36.8023   43.0714 O   0  0  0  0  0  0  0  0  0  0  0  0
   48.6136   32.1591   43.4992 H   0  0  0  0  0  0  0  0  0  0  0  0
   45.5137   32.4978   46.1971 H   0  0  0  0  0  0  0  0  0  0  0  0
   48.4431   33.4408   41.3828 H   0  0  0  0  0  0  0  0  0  0  0  0
   48.8286   35.9974   40.7254 H   0  0  0  0  0  0  0  0  0  0  0  0
   48.2893   36.5184   42.3906 H   0  0  0  0  0  0  0  0  0  0  0  0
   50.4724   34.4495   41.7604 H   0  0  0  0  0  0  0  0  0  0  0  0
   49.8248   34.8858   43.4628 H   0  0  0  0  0  0  0  0  0  0  0  0
   42.5361   35.7661   42.5941 Cl  0  0  0  0  0  0  0  0  0  0  0  0
   43.6684   35.2257   41.3797 C   0  0  0  0  0  0  0  0  0  0  0  0
   44.9939   35.2197   41.7270 C   0  0  0  0  0  0  0  0  0  0  0  0
   45.8400   34.7672   40.7044 C   0  0  0  0  0  0  0  0  0  0  0  0
   46.9141   34.7495   40.9513 H   0  0  0  0  0  0  0  0  0  0  0  0
   45.4772   34.3502   39.4479 C   0  0  0  0  0  0  0  0  0  0  0  0
   44.1246   34.3914   39.1896 C   0  0  0  0  0  0  0  0  0  0  0  0
   43.5717   33.8775   37.6110 Cl  0  0  0  0  0  0  0  0  0  0  0  0
   43.2112   34.8177   40.1213 C   0  0  0  0  0  0  0  0  0  0  0  0
   42.1565   34.8610   39.9506 H   0  0  0  0  0  0  0  0  0  0  0  0
   46.2471   34.0264   38.7617 H   0  0  0  0  0  0  0  0  0  0  0  0
  1  6  2  0
  2  1  1  0
  2  3  2  0
  3  4  1  0
  4  5  2  0
  6  5  1  0
  7  9  1  0
  7  2  1  0
  8  7  1  0
  8  9  1  0
 10  1  1  0
 11 10  2  0
  3 12  1  0
  5 13  1  0
  7 14  1  0
  8 15  1  0
  8 16  1  0
  9 17  1  0
  9 18  1  0
 19 20  1  0
 20 21  2  0
 21 22  1  0
 22 23  1  0
 22 24  2  0
 24 25  1  0
 25 26  1  0
 25 27  2  0
 27 28  1  0
 27 20  1  0
 24 29  1  0
 10 21  1  0
M  ISO  8  12  14  13  14  14  13  15  13  16  13  17  13  18  13  23  16
M  ISO  1  28  15
M  END
>  <DihAtoms>  (1) 
0,9,20,19

>  <DihDeg>  (1) 
-135.1725389643335

$$$$
