REMARK  Name = 
REMARK  3 active torsions:
REMARK  status: ('A' for Active; 'I' for Inactive)
REMARK    1  A    between atoms: C_1  and  C_10
REMARK    2  A    between atoms: C_2  and  C_7
REMARK    3  A    between atoms: C_10  and  C_21
REMARK                            x       y       z     vdW  Elec       q    Type
REMARK                         _______ _______ _______ _____ _____    ______ ____
ROOT
ATOM      1  C   UNL     1      46.269  34.498  43.629  0.00  0.00    +0.000 A 
ATOM      2  C   UNL     1      47.370  33.884  43.128  0.00  0.00    +0.000 A 
ATOM      3  C   UNL     1      47.757  32.729  43.808  0.00  0.00    +0.000 A 
ATOM      4  N   UNL     1      47.013  32.326  44.899  0.00  0.00    +0.000 NA
ATOM      5  C   UNL     1      45.948  32.982  45.331  0.00  0.00    +0.000 A 
ATOM      6  N   UNL     1      45.523  34.126  44.694  0.00  0.00    +0.000 NA
ATOM      7  H   UNL     1      48.614  32.159  43.499  0.00  0.00    +0.000 HD
ATOM      8  H   UNL     1      45.514  32.498  46.197  0.00  0.00    +0.000 HD
ENDROOT
BRANCH   2   9
ATOM      9  C   UNL     1      48.177  34.362  42.064  0.00  0.00    +0.000 C 
ATOM     10  C   UNL     1      48.555  35.625  41.756  0.00  0.00    +0.000 C 
ATOM     11  C   UNL     1      49.672  34.808  42.388  0.00  0.00    +0.000 C 
ATOM     12  H   UNL     1      48.443  33.441  41.383  0.00  0.00    +0.000 HD
ATOM     13  H   UNL     1      48.829  35.997  40.725  0.00  0.00    +0.000 HD
ATOM     14  H   UNL     1      48.289  36.518  42.391  0.00  0.00    +0.000 HD
ATOM     15  H   UNL     1      50.472  34.450  41.760  0.00  0.00    +0.000 HD
ATOM     16  H   UNL     1      49.825  34.886  43.463  0.00  0.00    +0.000 HD
ENDBRANCH   2   9
BRANCH   1  17
ATOM     17  C   UNL     1      45.569  35.641  43.043  0.00  0.00    +0.000 C 
ATOM     18  O   UNL     1      45.198  36.802  43.071  0.00  0.00    +0.000 OA
BRANCH  17  21
ATOM     19 CL   UNL     1      45.388  32.659  42.342  0.00  0.00    +0.000 Cl
ATOM     20  C   UNL     1      44.844  33.933  41.280  0.00  0.00    +0.000 A 
ATOM     21  C   UNL     1      44.994  35.220  41.727  0.00  0.00    +0.000 A 
ATOM     22  C   UNL     1      44.542  36.187  40.818  0.00  0.00    +0.000 A 
ATOM     23  H   UNL     1      44.648  37.233  41.147  0.00  0.00    +0.000 HD
ATOM     24  C   UNL     1      43.989  35.970  39.580  0.00  0.00    +0.000 A 
ATOM     25  C   UNL     1      43.878  34.646  39.216  0.00  0.00    +0.000 A 
ATOM     26 CL   UNL     1      43.183  34.278  37.653  0.00  0.00    +0.000 Cl
ATOM     27  C   UNL     1      44.290  33.623  40.032  0.00  0.00    +0.000 A 
ATOM     28  H   UNL     1      44.217  32.587  39.778  0.00  0.00    +0.000 HD
ENDBRANCH  17  21
ENDBRANCH   1  17
TORSDOF 3
