
 OpenBabel03242513113D

 21 22  0  0  0  0  0  0  0  0999 V2000
   45.7430   32.7930   47.1110 C   0  0  0  0  0  0  0  0  0  0  0  0
   44.7390   33.1090   47.8170 O   0  0  0  0  0  0  0  0  0  0  0  0
   45.3130   29.9210   46.2970 Cl  0  0  0  0  0  0  0  0  0  0  0  0
   46.6400   30.4760   47.2810 C   0  0  0  0  0  0  0  0  0  0  0  0
   46.7300   31.8000   47.5850 C   0  0  0  0  0  0  0  0  0  0  0  0
   47.7480   32.3460   48.3620 C   0  0  0  0  0  0  0  0  0  0  0  0
   47.7990   33.4200   48.5930 H   0  0  0  0  0  0  0  0  0  0  0  0
   48.7350   31.5270   48.8680 C   0  0  0  0  0  3  0  0  0  0  0  0
   48.6600   30.1650   48.5690 C   0  0  0  0  0  0  0  0  0  0  0  0
   49.9000   29.0800   49.1930 Cl  0  0  0  0  0  0  0  0  0  0  0  0
   47.6270   29.6700   47.7900 C   0  0  0  0  0  0  0  0  0  0  0  0
   47.5770   28.5990   47.5600 H   0  0  0  0  0  0  0  0  0  0  0  0
   45.3370   34.9610   44.2200 C   0  0  0  0  0  0  0  0  0  0  0  0
   46.3550   34.5680   43.3470 C   0  0  0  0  0  0  0  0  0  0  0  0
   47.1930   33.5330   43.7740 C   0  0  0  0  0  0  0  0  0  0  0  0
   46.9760   32.9760   44.9900 N   0  0  0  0  0  0  0  0  0  0  0  0
   45.9800   33.3920   45.7980 C   0  0  0  0  0  0  0  0  0  0  0  0
   45.1720   34.3800   45.4020 N   0  0  0  0  0  0  0  0  0  0  0  0
   44.7280   35.7620   43.8310 H   0  0  0  0  0  0  0  0  0  0  0  0
   46.6090   34.9390   42.3750 H   0  0  0  0  0  0  0  0  0  0  0  0
   48.0330   33.0670   43.2800 H   0  0  0  0  0  0  0  0  0  0  0  0
  1  5  1  0  0  0  0
  1  2  2  0  0  0  0
  3  4  1  0  0  0  0
  4  5  2  0  0  0  0
  4 11  1  0  0  0  0
  5  6  1  0  0  0  0
  6  7  1  0  0  0  0
  6  8  2  0  0  0  0
  9  8  1  0  0  0  0
  9 10  1  0  0  0  0
 11  9  2  0  0  0  0
 12 11  1  0  0  0  0
 13 18  1  0  0  0  0
 14 15  1  0  0  0  0
 14 13  2  0  0  0  0
 15 16  2  0  0  0  0
 16 17  1  0  0  0  0
 17  1  1  0  0  0  0
 18 17  2  0  0  0  0
 19 13  1  0  0  0  0
 20 14  1  0  0  0  0
 21 15  1  0  0  0  0
M  END
>  <minimizedAffinity>
-4.53794289

>  <minimizedRMSD>
1.94073284

$$$$
