
 OpenBabel03242513113D

 21 22  0  0  0  0  0  0  0  0999 V2000
   45.7420   32.7970   47.1090 C   0  0  0  0  0  0  0  0  0  0  0  0
   44.7370   33.1130   47.8150 O   0  0  0  0  0  0  0  0  0  0  0  0
   45.3130   29.9230   46.2970 Cl  0  0  0  0  0  0  0  0  0  0  0  0
   46.6390   30.4800   47.2820 C   0  0  0  0  0  0  0  0  0  0  0  0
   46.7290   31.8050   47.5840 C   0  0  0  0  0  0  0  0  0  0  0  0
   47.7460   32.3510   48.3620 C   0  0  0  0  0  0  0  0  0  0  0  0
   47.7970   33.4250   48.5920 H   0  0  0  0  0  0  0  0  0  0  0  0
   48.7340   31.5330   48.8690 C   0  0  0  0  0  3  0  0  0  0  0  0
   48.6600   30.1700   48.5700 C   0  0  0  0  0  0  0  0  0  0  0  0
   49.8990   29.0860   49.1960 Cl  0  0  0  0  0  0  0  0  0  0  0  0
   47.6270   29.6750   47.7920 C   0  0  0  0  0  0  0  0  0  0  0  0
   47.5760   28.6040   47.5610 H   0  0  0  0  0  0  0  0  0  0  0  0
   45.3360   34.9630   44.2170 C   0  0  0  0  0  0  0  0  0  0  0  0
   46.3550   34.5700   43.3450 C   0  0  0  0  0  0  0  0  0  0  0  0
   47.1920   33.5360   43.7730 C   0  0  0  0  0  0  0  0  0  0  0  0
   46.9760   32.9790   44.9890 N   0  0  0  0  0  0  0  0  0  0  0  0
   45.9790   33.3950   45.7960 C   0  0  0  0  0  0  0  0  0  0  0  0
   45.1700   34.3820   45.3990 N   0  0  0  0  0  0  0  0  0  0  0  0
   44.7270   35.7630   43.8280 H   0  0  0  0  0  0  0  0  0  0  0  0
   46.6090   34.9400   42.3720 H   0  0  0  0  0  0  0  0  0  0  0  0
   48.0330   33.0700   43.2790 H   0  0  0  0  0  0  0  0  0  0  0  0
  1  5  1  0  0  0  0
  1  2  2  0  0  0  0
  3  4  1  0  0  0  0
  4  5  2  0  0  0  0
  4 11  1  0  0  0  0
  5  6  1  0  0  0  0
  6  7  1  0  0  0  0
  6  8  2  0  0  0  0
  9  8  1  0  0  0  0
  9 10  1  0  0  0  0
 11  9  2  0  0  0  0
 12 11  1  0  0  0  0
 13 18  1  0  0  0  0
 14 15  1  0  0  0  0
 14 13  2  0  0  0  0
 15 16  2  0  0  0  0
 16 17  1  0  0  0  0
 17  1  1  0  0  0  0
 18 17  2  0  0  0  0
 19 13  1  0  0  0  0
 20 14  1  0  0  0  0
 21 15  1  0  0  0  0
M  END
>  <minimizedAffinity>
-4.53933334

>  <minimizedRMSD>
1.867203

$$$$
