
 OpenBabel03242522133D

 19 20  0  0  0  0  0  0  0  0999 V2000
   44.4780   35.1700   46.0020 C   0  0  0  0  0  0  0  0  0  0  0  0
   44.9600   35.2300   44.6820 C   0  0  0  0  0  0  0  0  0  0  0  0
   45.7920   34.2250   44.2550 C   0  0  0  0  0  0  0  0  0  0  0  0
   46.0970   33.2250   45.1590 N   0  0  0  0  0  0  0  0  0  0  0  0
   45.6180   33.2090   46.4060 C   0  0  0  0  0  0  0  0  0  0  0  0
   44.8060   34.1870   46.8250 N   0  0  0  0  0  0  0  0  0  0  0  0
   43.8180   35.9280   46.4050 H   0  0  0  0  0  0  0  0  0  0  0  0
   45.9780   32.3400   46.9540 H   0  0  0  0  0  0  0  0  0  0  0  0
   46.3410   34.2100   42.8810 C   0  0  0  0  0  0  0  0  0  0  0  0
   45.8240   33.4160   41.8930 C   0  0  0  0  0  0  0  0  0  0  0  0
   46.9010   33.8210   40.4450 S   0  0  0  0  0  0  0  0  0  0  0  0
   47.8840   35.0400   41.5010 C   0  0  0  0  0  0  0  0  0  0  0  0
   47.3490   34.9380   42.5050 N   0  0  0  0  0  0  0  0  0  0  0  0
   44.9580   32.7170   42.0130 H   0  0  0  0  0  0  0  0  0  0  0  0
   49.0350   35.8360   40.9670 C   0  0  0  0  0  0  0  0  0  0  0  0
   49.4260   35.3300   40.0690 H   0  0  0  0  0  0  0  0  0  0  0  0
   44.5480   36.3330   43.8980 N   0  0  0  0  0  0  0  0  0  0  0  0
   45.2720   36.7840   43.2830 H   0  0  0  0  0  0  0  0  0  0  0  0
   43.5850   36.7290   43.8850 H   0  0  0  0  0  0  0  0  0  0  0  0
  1  7  1  0  0  0  0
  1  6  1  0  0  0  0
  2  1  2  0  0  0  0
  3  2  1  0  0  0  0
  3  4  2  0  0  0  0
  4  5  1  0  0  0  0
  5  6  2  0  0  0  0
  5  8  1  0  0  0  0
  9  3  1  0  0  0  0
 10 14  1  0  0  0  0
 10  9  2  0  0  0  0
 11 12  1  0  0  0  0
 11 10  1  0  0  0  0
 12 13  2  0  0  0  0
 13  9  1  0  0  0  0
 15 12  1  0  0  0  0
 16 15  1  0  0  0  0
 17  2  1  0  0  0  0
 18 17  1  0  0  0  0
 19 17  1  0  0  0  0
M  END
>  <minimizedAffinity>
-4.16434622

>  <minimizedRMSD>
1.05017686

$$$$
