
 OpenBabel03242512253D

 13 13  0  0  0  0  0  0  0  0999 V2000
   36.2960   29.6610   41.2850 C   0  0  0  0  0  0  0  0  0  0  0  0
   35.9470   28.7500   40.2740 C   0  0  0  0  0  0  0  0  0  0  0  0
   36.5120   27.4490   40.3000 C   0  0  0  0  0  0  0  0  0  0  0  0
   37.3680   27.1740   41.3240 N   0  0  0  0  0  0  0  0  0  0  0  0
   37.6740   28.0710   42.2680 C   0  0  0  0  0  0  0  0  0  0  0  0
   37.1490   29.2950   42.2520 N   0  0  0  0  0  0  0  0  0  0  0  0
   35.7370   30.9610   41.2650 N   0  0  0  0  0  0  0  0  0  0  0  0
   35.2670   28.9890   39.4700 H   0  0  0  0  0  0  0  0  0  0  0  0
   36.2670   26.7230   39.5380 H   0  0  0  0  0  0  0  0  0  0  0  0
   35.0230   31.4310   41.8250 H   0  0  0  0  0  0  0  0  0  0  0  0
   36.2410   31.4260   40.4770 H   0  0  0  0  0  0  0  0  0  0  0  0
   38.6210   27.7040   43.3660 C   0  0  0  0  0  2  0  0  0  0  0  0
   39.6660   27.6500   42.9950 H   0  0  0  0  0  0  0  0  0  0  0  0
  1  6  1  0  0  0  0
  2  3  1  0  0  0  0
  2  1  2  0  0  0  0
  3  4  2  0  0  0  0
  4  5  1  0  0  0  0
  5 12  1  0  0  0  0
  6  5  2  0  0  0  0
  7  1  1  0  0  0  0
  7 10  1  0  0  0  0
  8  2  1  0  0  0  0
  9  3  1  0  0  0  0
 11  7  1  0  0  0  0
 13 12  1  0  0  0  0
M  END
>  <minimizedAffinity>
-3.36103821

$$$$

 OpenBabel03242512253D

 13 13  0  0  0  0  0  0  0  0999 V2000
   37.6120   27.6330   43.3080 C   0  0  0  0  0  0  0  0  0  0  0  0
   38.9480   27.4100   43.6800 C   0  0  0  0  0  0  0  0  0  0  0  0
   39.5620   26.1810   43.3250 C   0  0  0  0  0  0  0  0  0  0  0  0
   38.7950   25.2900   42.6370 N   0  0  0  0  0  0  0  0  0  0  0  0
   37.5240   25.5410   42.3020 C   0  0  0  0  0  0  0  0  0  0  0  0
   36.9400   26.6910   42.6300 N   0  0  0  0  0  0  0  0  0  0  0  0
   36.9920   28.8560   43.6580 N   0  0  0  0  0  0  0  0  0  0  0  0
   39.5380   28.1310   44.2260 H   0  0  0  0  0  0  0  0  0  0  0  0
   40.5880   25.9760   43.5950 H   0  0  0  0  0  0  0  0  0  0  0  0
   36.7200   29.6860   43.1280 H   0  0  0  0  0  0  0  0  0  0  0  0
   36.8380   28.7600   44.6860 H   0  0  0  0  0  0  0  0  0  0  0  0
   36.7370   24.5180   41.5450 C   0  0  0  0  0  2  0  0  0  0  0  0
   36.4590   23.6630   42.1940 H   0  0  0  0  0  0  0  0  0  0  0  0
  1  7  1  0  0  0  0
  1  2  1  0  0  0  0
  2  8  1  0  0  0  0
  3  9  1  0  0  0  0
  3  2  2  0  0  0  0
  4  3  1  0  0  0  0
  5  6  1  0  0  0  0
  5  4  2  0  0  0  0
  6  1  2  0  0  0  0
  7 11  1  0  0  0  0
 10  7  1  0  0  0  0
 12 13  1  0  0  0  0
 12  5  1  0  0  0  0
M  END
>  <minimizedAffinity>
-3.29766297

$$$$

 OpenBabel03242512253D

 13 13  0  0  0  0  0  0  0  0999 V2000
   36.6310   31.3090   40.3180 C   0  0  0  0  0  0  0  0  0  0  0  0
   36.6280   30.6650   39.0700 C   0  0  0  0  0  0  0  0  0  0  0  0
   37.5650   31.0720   38.0870 C   0  0  0  0  0  0  0  0  0  0  0  0
   38.4170   32.0780   38.4320 N   0  0  0  0  0  0  0  0  0  0  0  0
   38.3870   32.6670   39.6330 C   0  0  0  0  0  0  0  0  0  0  0  0
   37.5110   32.2910   40.5630 N   0  0  0  0  0  0  0  0  0  0  0  0
   35.6990   30.9090   41.3050 N   0  0  0  0  0  0  0  0  0  0  0  0
   35.9430   29.8690   38.8170 H   0  0  0  0  0  0  0  0  0  0  0  0
   37.5910   30.5980   37.1150 H   0  0  0  0  0  0  0  0  0  0  0  0
   35.7760   30.3790   42.1750 H   0  0  0  0  0  0  0  0  0  0  0  0
   34.7960   31.2940   40.9500 H   0  0  0  0  0  0  0  0  0  0  0  0
   39.3510   33.7670   39.9480 C   0  0  0  0  0  2  0  0  0  0  0  0
   39.0810   34.7030   39.4170 H   0  0  0  0  0  0  0  0  0  0  0  0
  1  6  1  0  0  0  0
  1  7  1  0  0  0  0
  2  1  2  0  0  0  0
  3  4  2  0  0  0  0
  3  2  1  0  0  0  0
  4  5  1  0  0  0  0
  5 12  1  0  0  0  0
  5  6  2  0  0  0  0
  7 10  1  0  0  0  0
  8  2  1  0  0  0  0
  9  3  1  0  0  0  0
 11  7  1  0  0  0  0
 13 12  1  0  0  0  0
M  END
>  <minimizedAffinity>
-3.29680181

$$$$

 OpenBabel03242512253D

 13 13  0  0  0  0  0  0  0  0999 V2000
   37.3520   28.5900   42.5840 C   0  0  0  0  0  0  0  0  0  0  0  0
   38.6490   28.6890   43.1140 C   0  0  0  0  0  0  0  0  0  0  0  0
   39.3980   27.5020   43.3160 C   0  0  0  0  0  0  0  0  0  0  0  0
   38.7930   26.3300   42.9750 N   0  0  0  0  0  0  0  0  0  0  0  0
   37.5540   26.2780   42.4730 C   0  0  0  0  0  0  0  0  0  0  0  0
   36.8430   27.3870   42.2790 N   0  0  0  0  0  0  0  0  0  0  0  0
   36.5970   29.7690   42.3790 N   0  0  0  0  0  0  0  0  0  0  0  0
   39.1100   29.6290   43.3770 H   0  0  0  0  0  0  0  0  0  0  0  0
   40.3990   27.5410   43.7220 H   0  0  0  0  0  0  0  0  0  0  0  0
   36.3220   30.2960   41.5480 H   0  0  0  0  0  0  0  0  0  0  0  0
   36.3320   30.0540   43.3480 H   0  0  0  0  0  0  0  0  0  0  0  0
   36.9470   24.9570   42.1190 C   0  0  0  0  0  2  0  0  0  0  0  0
   36.6660   24.3870   43.0280 H   0  0  0  0  0  0  0  0  0  0  0  0
  1  2  1  0  0  0  0
  2  3  2  0  0  0  0
  2  8  1  0  0  0  0
  3  9  1  0  0  0  0
  4  3  1  0  0  0  0
  5  4  2  0  0  0  0
  6  5  1  0  0  0  0
  6  1  2  0  0  0  0
  7  1  1  0  0  0  0
  7 11  1  0  0  0  0
 10  7  1  0  0  0  0
 12  5  1  0  0  0  0
 12 13  1  0  0  0  0
M  END
>  <minimizedAffinity>
-3.23277903

$$$$

 OpenBabel03242512253D

 13 13  0  0  0  0  0  0  0  0999 V2000
   37.0150   32.1390   39.7210 C   0  0  0  0  0  0  0  0  0  0  0  0
   37.3980   31.9070   38.3900 C   0  0  0  0  0  0  0  0  0  0  0  0
   37.0910   30.6550   37.7980 C   0  0  0  0  0  0  0  0  0  0  0  0
   36.4350   29.7530   38.5800 N   0  0  0  0  0  0  0  0  0  0  0  0
   36.0870   30.0130   39.8450 C   0  0  0  0  0  0  0  0  0  0  0  0
   36.3710   31.1860   40.4100 N   0  0  0  0  0  0  0  0  0  0  0  0
   37.3180   33.3860   40.3200 N   0  0  0  0  0  0  0  0  0  0  0  0
   37.9190   32.6360   37.7880 H   0  0  0  0  0  0  0  0  0  0  0  0
   37.3720   30.4410   36.7770 H   0  0  0  0  0  0  0  0  0  0  0  0
   36.7570   34.2010   40.5760 H   0  0  0  0  0  0  0  0  0  0  0  0
   38.3480   33.3310   40.4780 H   0  0  0  0  0  0  0  0  0  0  0  0
   35.3670   28.9780   40.6490 C   0  0  0  0  0  2  0  0  0  0  0  0
   36.0470   28.1520   40.9450 H   0  0  0  0  0  0  0  0  0  0  0  0
  1  7  1  0  0  0  0
  1  6  1  0  0  0  0
  2  1  2  0  0  0  0
  3  2  1  0  0  0  0
  3  4  2  0  0  0  0
  4  5  1  0  0  0  0
  5  6  2  0  0  0  0
  5 12  1  0  0  0  0
  7 11  1  0  0  0  0
  7 10  1  0  0  0  0
  8  2  1  0  0  0  0
  9  3  1  0  0  0  0
 12 13  1  0  0  0  0
M  END
>  <minimizedAffinity>
-3.19743586

$$$$

 OpenBabel03242512253D

 13 13  0  0  0  0  0  0  0  0999 V2000
   37.6710   28.0060   43.1390 C   0  0  0  0  0  0  0  0  0  0  0  0
   36.8870   27.3960   42.1460 C   0  0  0  0  0  0  0  0  0  0  0  0
   37.3030   26.1480   41.6150 C   0  0  0  0  0  0  0  0  0  0  0  0
   38.4560   25.6230   42.1170 N   0  0  0  0  0  0  0  0  0  0  0  0
   39.1750   26.2370   43.0630 C   0  0  0  0  0  0  0  0  0  0  0  0
   38.7930   27.4090   43.5670 N   0  0  0  0  0  0  0  0  0  0  0  0
   37.2630   29.2510   43.6740 N   0  0  0  0  0  0  0  0  0  0  0  0
   35.9750   27.8300   41.7630 H   0  0  0  0  0  0  0  0  0  0  0  0
   36.7240   25.6510   40.8500 H   0  0  0  0  0  0  0  0  0  0  0  0
   36.8600   29.5370   44.5680 H   0  0  0  0  0  0  0  0  0  0  0  0
   37.4680   29.9220   42.9000 H   0  0  0  0  0  0  0  0  0  0  0  0
   40.4330   25.6060   43.5700 C   0  0  0  0  0  2  0  0  0  0  0  0
   41.2490   25.6760   42.8220 H   0  0  0  0  0  0  0  0  0  0  0  0
  1  6  1  0  0  0  0
  1  7  1  0  0  0  0
  2  1  2  0  0  0  0
  3  4  2  0  0  0  0
  3  2  1  0  0  0  0
  4  5  1  0  0  0  0
  5  6  2  0  0  0  0
  5 12  1  0  0  0  0
  7 10  1  0  0  0  0
  8  2  1  0  0  0  0
  9  3  1  0  0  0  0
 11  7  1  0  0  0  0
 13 12  1  0  0  0  0
M  END
>  <minimizedAffinity>
-3.17291069

$$$$

 OpenBabel03242512253D

 13 13  0  0  0  0  0  0  0  0999 V2000
   36.9250   28.0390   42.6170 C   0  0  0  0  0  0  0  0  0  0  0  0
   36.5580   28.4800   41.3350 C   0  0  0  0  0  0  0  0  0  0  0  0
   36.5040   27.5370   40.2770 C   0  0  0  0  0  0  0  0  0  0  0  0
   36.8180   26.2480   40.5880 N   0  0  0  0  0  0  0  0  0  0  0  0
   37.1640   25.8690   41.8230 C   0  0  0  0  0  0  0  0  0  0  0  0
   37.2170   26.7470   42.8240 N   0  0  0  0  0  0  0  0  0  0  0  0
   36.9820   28.9730   43.6790 N   0  0  0  0  0  0  0  0  0  0  0  0
   36.3130   29.5070   41.1100 H   0  0  0  0  0  0  0  0  0  0  0  0
   36.2260   27.8420   39.2780 H   0  0  0  0  0  0  0  0  0  0  0  0
   36.3900   29.1550   44.4920 H   0  0  0  0  0  0  0  0  0  0  0  0
   37.8440   29.5230   43.4670 H   0  0  0  0  0  0  0  0  0  0  0  0
   37.4970   24.4370   42.0980 C   0  0  0  0  0  2  0  0  0  0  0  0
   38.4860   24.1660   41.6750 H   0  0  0  0  0  0  0  0  0  0  0  0
  1  6  1  0  0  0  0
  1  7  1  0  0  0  0
  2  1  2  0  0  0  0
  3  4  2  0  0  0  0
  3  2  1  0  0  0  0
  4  5  1  0  0  0  0
  5 12  1  0  0  0  0
  5  6  2  0  0  0  0
  7 10  1  0  0  0  0
  8  2  1  0  0  0  0
  9  3  1  0  0  0  0
 11  7  1  0  0  0  0
 13 12  1  0  0  0  0
M  END
>  <minimizedAffinity>
-3.16293907

$$$$

 OpenBabel03242512253D

 13 13  0  0  0  0  0  0  0  0999 V2000
   38.4920   24.4570   42.3040 C   0  0  0  0  0  0  0  0  0  0  0  0
   39.6800   24.6500   43.0290 C   0  0  0  0  0  0  0  0  0  0  0  0
   39.8910   25.8920   43.6800 C   0  0  0  0  0  0  0  0  0  0  0  0
   38.9070   26.8260   43.5510 N   0  0  0  0  0  0  0  0  0  0  0  0
   37.7900   26.6030   42.8500 C   0  0  0  0  0  0  0  0  0  0  0  0
   37.5820   25.4400   42.2360 N   0  0  0  0  0  0  0  0  0  0  0  0
   38.2740   23.2200   41.6520 N   0  0  0  0  0  0  0  0  0  0  0  0
   40.4480   23.8950   43.1180 H   0  0  0  0  0  0  0  0  0  0  0  0
   40.7940   26.0750   44.2460 H   0  0  0  0  0  0  0  0  0  0  0  0
   37.6620   22.4230   41.8370 H   0  0  0  0  0  0  0  0  0  0  0  0
   38.9300   23.2590   40.8400 H   0  0  0  0  0  0  0  0  0  0  0  0
   36.7480   27.6720   42.7480 C   0  0  0  0  0  2  0  0  0  0  0  0
   37.0760   28.4910   42.0750 H   0  0  0  0  0  0  0  0  0  0  0  0
  1  2  1  0  0  0  0
  2  8  1  0  0  0  0
  2  3  2  0  0  0  0
  3  9  1  0  0  0  0
  4  3  1  0  0  0  0
  5  4  2  0  0  0  0
  6  1  2  0  0  0  0
  6  5  1  0  0  0  0
  7 10  1  0  0  0  0
  7  1  1  0  0  0  0
 11  7  1  0  0  0  0
 12  5  1  0  0  0  0
 13 12  1  0  0  0  0
M  END
>  <minimizedAffinity>
-3.10982084

$$$$

 OpenBabel03242512253D

 13 13  0  0  0  0  0  0  0  0999 V2000
   36.4100   30.9810   40.2770 C   0  0  0  0  0  0  0  0  0  0  0  0
   37.1450   32.1770   40.2260 C   0  0  0  0  0  0  0  0  0  0  0  0
   37.7340   32.5660   38.9950 C   0  0  0  0  0  0  0  0  0  0  0  0
   37.5410   31.7330   37.9340 N   0  0  0  0  0  0  0  0  0  0  0  0
   36.8340   30.6010   38.0250 C   0  0  0  0  0  0  0  0  0  0  0  0
   36.2770   30.2280   39.1760 N   0  0  0  0  0  0  0  0  0  0  0  0
   35.8190   30.5860   41.5010 N   0  0  0  0  0  0  0  0  0  0  0  0
   37.2850   32.8230   41.0800 H   0  0  0  0  0  0  0  0  0  0  0  0
   38.3060   33.4800   38.9200 H   0  0  0  0  0  0  0  0  0  0  0  0
   34.8580   30.5680   41.8470 H   0  0  0  0  0  0  0  0  0  0  0  0
   36.6360   30.2740   42.0720 H   0  0  0  0  0  0  0  0  0  0  0  0
   36.6610   29.7320   36.8210 C   0  0  0  0  0  2  0  0  0  0  0  0
   37.6000   29.1950   36.5730 H   0  0  0  0  0  0  0  0  0  0  0  0
  1  7  1  0  0  0  0
  2  1  1  0  0  0  0
  2  8  1  0  0  0  0
  3  2  2  0  0  0  0
  4  5  2  0  0  0  0
  4  3  1  0  0  0  0
  5  6  1  0  0  0  0
  6  1  2  0  0  0  0
  7 10  1  0  0  0  0
  7 11  1  0  0  0  0
  9  3  1  0  0  0  0
 12  5  1  0  0  0  0
 13 12  1  0  0  0  0
M  END
>  <minimizedAffinity>
-3.0966258

$$$$
