
 OpenBabel03242517243D

 36 38  0  0  1  0  0  0  0  0999 V2000
   38.9530   32.5190   40.7010 C   0  0  0  0  0  0  0  0  0  0  0  0
   38.0880   32.9050   39.6660 C   0  0  0  0  0  0  0  0  0  0  0  0
   36.9670   32.1010   39.3860 C   0  0  0  0  0  0  0  0  0  0  0  0
   36.7880   30.9980   40.1390 N   0  0  0  0  0  0  0  0  0  0  0  0
   37.6430   30.6430   41.1420 C   0  0  0  0  0  0  0  0  0  0  0  0
   38.7300   31.4100   41.4200 N   0  0  0  0  0  0  0  0  0  0  0  0
   37.3660   29.4520   41.8810 N   0  0  0  0  0  0  0  0  0  0  0  0
   38.1230   29.2770   43.1190 C   0  0  0  0  0  0  0  0  0  0  0  0
   38.1080   27.9140   43.6720 C   0  0  0  0  0  0  0  0  0  0  0  0
   36.8080   27.2340   43.4080 C   0  0  0  0  0  0  0  0  0  0  0  0
   36.6580   27.1400   41.9200 C   0  0  0  0  0  0  0  0  0  0  0  0
   36.3880   28.5080   41.4010 C   0  0  2  0  0  0  0  0  0  0  0  0
   39.7980   33.1750   40.8700 H   0  0  0  0  0  0  0  0  0  0  0  0
   38.1890   33.7730   39.0410 H   0  0  0  0  0  0  0  0  0  0  0  0
   36.2500   32.3240   38.6070 H   0  0  0  0  0  0  0  0  0  0  0  0
   37.6110   29.9510   43.8670 H   0  0  0  0  0  0  0  0  0  0  0  0
   39.1450   29.7060   43.0370 H   0  0  0  0  0  0  0  0  0  0  0  0
   38.9480   27.2740   43.3360 H   0  0  0  0  0  0  0  0  0  0  0  0
   38.2370   27.9870   44.7830 H   0  0  0  0  0  0  0  0  0  0  0  0
   35.9590   27.7490   43.8810 H   0  0  0  0  0  0  0  0  0  0  0  0
   36.9130   26.1910   43.7800 H   0  0  0  0  0  0  0  0  0  0  0  0
   37.6470   26.8180   41.4940 H   0  0  0  0  0  0  0  0  0  0  0  0
   35.9320   26.4030   41.5810 H   0  0  0  0  0  0  0  0  0  0  0  0
   35.4090   28.8550   41.8350 H   0  0  0  0  0  0  0  0  0  0  0  0
   33.9030   29.1200   40.1020 F   0  0  0  0  0  0  0  0  0  0  0  0
   34.9730   28.8290   39.2990 C   0  0  0  0  0  0  0  0  0  0  0  0
   36.1830   28.5330   39.9310 C   0  0  0  0  0  0  0  0  0  0  0  0
   37.2490   28.2430   39.0780 C   0  0  0  0  0  0  0  0  0  0  0  0
   37.1420   28.2410   37.7050 C   0  0  0  0  0  0  0  0  0  0  0  0
   35.9260   28.5400   37.1170 C   0  0  0  0  0  0  0  0  0  0  0  0
   34.8620   28.8290   37.9230 C   0  0  0  0  0  0  0  0  0  0  0  0
   38.2010   28.0090   39.5290 H   0  0  0  0  0  0  0  0  0  0  0  0
   37.9700   28.0160   37.0570 H   0  0  0  0  0  0  0  0  0  0  0  0
   35.7330   28.5670   36.0390 H   0  0  0  0  0  0  0  0  0  0  0  0
   33.5110   29.1630   37.3850 C   0  0  0  0  0  2  0  0  0  0  0  0
   33.0140   29.9260   38.0310 H   0  0  0  0  0  0  0  0  0  0  0  0
  1 13  1  0  0  0  0
  1  6  1  0  0  0  0
  2  1  2  0  0  0  0
  3  2  1  0  0  0  0
  3  4  2  0  0  0  0
  4  5  1  0  0  0  0
  5  6  2  0  0  0  0
  5  7  1  0  0  0  0
  7  8  1  0  0  0  0
  8  9  1  0  0  0  0
  8 16  1  0  0  0  0
  9 19  1  0  0  0  0
 10  9  1  0  0  0  0
 10 21  1  0  0  0  0
 10 20  1  0  0  0  0
 11 10  1  0  0  0  0
 12 24  1  1  0  0  0
 12  7  1  0  0  0  0
 12 11  1  0  0  0  0
 14  2  1  0  0  0  0
 15  3  1  0  0  0  0
 17  8  1  0  0  0  0
 18  9  1  0  0  0  0
 22 11  1  0  0  0  0
 23 11  1  0  0  0  0
 26 27  1  0  0  0  0
 26 25  1  0  0  0  0
 27 12  1  0  0  0  0
 28 32  1  0  0  0  0
 28 27  2  0  0  0  0
 29 28  1  0  0  0  0
 30 29  2  0  0  0  0
 30 31  1  0  0  0  0
 31 26  2  0  0  0  0
 33 29  1  0  0  0  0
 34 30  1  0  0  0  0
 35 31  1  0  0  0  0
 35 36  1  0  0  0  0
M  END
>  <minimizedAffinity>
-6.0087924

$$$$

 OpenBabel03242517243D

 36 38  0  0  1  0  0  0  0  0999 V2000
   39.0110   32.6440   40.7300 C   0  0  0  0  0  0  0  0  0  0  0  0
   38.1460   33.0700   39.7120 C   0  0  0  0  0  0  0  0  0  0  0  0
   37.0190   32.2830   39.4070 C   0  0  0  0  0  0  0  0  0  0  0  0
   36.8360   31.1550   40.1210 N   0  0  0  0  0  0  0  0  0  0  0  0
   37.6920   30.7600   41.1090 C   0  0  0  0  0  0  0  0  0  0  0  0
   38.7840   31.5120   41.4110 N   0  0  0  0  0  0  0  0  0  0  0  0
   37.4100   29.5460   41.8070 N   0  0  0  0  0  0  0  0  0  0  0  0
   38.1700   29.3230   43.0360 C   0  0  0  0  0  0  0  0  0  0  0  0
   38.1480   27.9420   43.5400 C   0  0  0  0  0  0  0  0  0  0  0  0
   36.8440   27.2790   43.2570 C   0  0  0  0  0  0  0  0  0  0  0  0
   36.6900   27.2380   41.7670 C   0  0  0  0  0  0  0  0  0  0  0  0
   36.4260   28.6250   41.2970 C   0  0  2  0  0  0  0  0  0  0  0  0
   39.8600   33.2890   40.9200 H   0  0  0  0  0  0  0  0  0  0  0  0
   38.2500   33.9600   39.1170 H   0  0  0  0  0  0  0  0  0  0  0  0
   36.3020   32.5370   38.6390 H   0  0  0  0  0  0  0  0  0  0  0  0
   37.6630   29.9740   43.8080 H   0  0  0  0  0  0  0  0  0  0  0  0
   39.1940   29.7490   42.9650 H   0  0  0  0  0  0  0  0  0  0  0  0
   38.9840   27.3100   43.1800 H   0  0  0  0  0  0  0  0  0  0  0  0
   38.2810   27.9750   44.6530 H   0  0  0  0  0  0  0  0  0  0  0  0
   35.9990   27.7810   43.7500 H   0  0  0  0  0  0  0  0  0  0  0  0
   36.9450   26.2230   43.5910 H   0  0  0  0  0  0  0  0  0  0  0  0
   37.6750   26.9260   41.3270 H   0  0  0  0  0  0  0  0  0  0  0  0
   35.9590   26.5170   41.4040 H   0  0  0  0  0  0  0  0  0  0  0  0
   35.4500   28.9620   41.7450 H   0  0  0  0  0  0  0  0  0  0  0  0
   38.4410   28.0990   39.3210 F   0  0  0  0  0  0  0  0  0  0  0  0
   37.1970   28.4480   38.8680 C   0  0  0  0  0  0  0  0  0  0  0  0
   36.2160   28.7020   39.8290 C   0  0  0  0  0  0  0  0  0  0  0  0
   34.9620   29.0520   39.3270 C   0  0  0  0  0  0  0  0  0  0  0  0
   34.6850   29.1490   37.9810 C   0  0  0  0  0  0  0  0  0  0  0  0
   35.6840   28.8890   37.0600 C   0  0  0  0  0  0  0  0  0  0  0  0
   36.9230   28.5430   37.5180 C   0  0  0  0  0  0  0  0  0  0  0  0
   34.1770   29.2570   40.0390 H   0  0  0  0  0  0  0  0  0  0  0  0
   33.7140   29.4210   37.6050 H   0  0  0  0  0  0  0  0  0  0  0  0
   35.5710   28.9360   35.9710 H   0  0  0  0  0  0  0  0  0  0  0  0
   38.0650   28.2440   36.6050 C   0  0  0  0  0  2  0  0  0  0  0  0
   38.7050   27.4370   37.0360 H   0  0  0  0  0  0  0  0  0  0  0  0
  1 13  1  0  0  0  0
  1  6  1  0  0  0  0
  2  1  2  0  0  0  0
  3  2  1  0  0  0  0
  3  4  2  0  0  0  0
  4  5  1  0  0  0  0
  5  6  2  0  0  0  0
  5  7  1  0  0  0  0
  7  8  1  0  0  0  0
  8  9  1  0  0  0  0
  8 16  1  0  0  0  0
  9 19  1  0  0  0  0
 10  9  1  0  0  0  0
 10 21  1  0  0  0  0
 10 20  1  0  0  0  0
 11 10  1  0  0  0  0
 12 24  1  1  0  0  0
 12 11  1  0  0  0  0
 12  7  1  0  0  0  0
 14  2  1  0  0  0  0
 15  3  1  0  0  0  0
 17  8  1  0  0  0  0
 18  9  1  0  0  0  0
 22 11  1  0  0  0  0
 23 11  1  0  0  0  0
 26 25  1  0  0  0  0
 26 27  1  0  0  0  0
 27 12  1  0  0  0  0
 28 27  2  0  0  0  0
 28 32  1  0  0  0  0
 29 28  1  0  0  0  0
 30 31  1  0  0  0  0
 30 29  2  0  0  0  0
 31 26  2  0  0  0  0
 33 29  1  0  0  0  0
 34 30  1  0  0  0  0
 35 36  1  0  0  0  0
 35 31  1  0  0  0  0
M  END
>  <minimizedAffinity>
-5.89157104

$$$$

 OpenBabel03242517243D

 36 38  0  0  1  0  0  0  0  0999 V2000
   42.1540   30.2180   42.8360 C   0  0  0  0  0  0  0  0  0  0  0  0
   42.1330   28.8160   42.8550 C   0  0  0  0  0  0  0  0  0  0  0  0
   41.0670   28.1460   42.2260 C   0  0  0  0  0  0  0  0  0  0  0  0
   40.1190   28.9010   41.6340 N   0  0  0  0  0  0  0  0  0  0  0  0
   40.1610   30.2650   41.6290 C   0  0  0  0  0  0  0  0  0  0  0  0
   41.1850   30.9230   42.2340 N   0  0  0  0  0  0  0  0  0  0  0  0
   39.1060   30.9740   40.9750 N   0  0  0  0  0  0  0  0  0  0  0  0
   39.3450   32.3960   40.7340 C   0  0  0  0  0  0  0  0  0  0  0  0
   38.1460   33.1820   40.4070 C   0  0  0  0  0  0  0  0  0  0  0  0
   37.1620   32.3770   39.6290 C   0  0  0  0  0  0  0  0  0  0  0  0
   36.7490   31.2310   40.5010 C   0  0  0  0  0  0  0  0  0  0  0  0
   37.8980   30.2890   40.5910 C   0  0  2  0  0  0  0  0  0  0  0  0
   42.9980   30.6780   43.3350 H   0  0  0  0  0  0  0  0  0  0  0  0
   42.8640   28.1730   43.3120 H   0  0  0  0  0  0  0  0  0  0  0  0
   40.9720   27.0690   42.1930 H   0  0  0  0  0  0  0  0  0  0  0  0
   40.0250   32.4240   39.8330 H   0  0  0  0  0  0  0  0  0  0  0  0
   39.9610   32.8490   41.5410 H   0  0  0  0  0  0  0  0  0  0  0  0
   37.6510   33.6480   41.2830 H   0  0  0  0  0  0  0  0  0  0  0  0
   38.4600   34.0490   39.7690 H   0  0  0  0  0  0  0  0  0  0  0  0
   37.5630   32.0430   38.6610 H   0  0  0  0  0  0  0  0  0  0  0  0
   36.2600   33.0150   39.5010 H   0  0  0  0  0  0  0  0  0  0  0  0
   36.5730   31.6310   41.5360 H   0  0  0  0  0  0  0  0  0  0  0  0
   35.8210   30.7450   40.2060 H   0  0  0  0  0  0  0  0  0  0  0  0
   38.1020   29.8930   39.5580 H   0  0  0  0  0  0  0  0  0  0  0  0
   37.6590   27.6240   39.5540 F   0  0  0  0  0  0  0  0  0  0  0  0
   37.4720   27.7900   40.9000 C   0  0  0  0  0  0  0  0  0  0  0  0
   37.5900   29.0870   41.4050 C   0  0  0  0  0  0  0  0  0  0  0  0
   37.3940   29.2130   42.7810 C   0  0  0  0  0  0  0  0  0  0  0  0
   37.1020   28.1490   43.6060 C   0  0  0  0  0  0  0  0  0  0  0  0
   36.9940   26.8800   43.0670 C   0  0  0  0  0  0  0  0  0  0  0  0
   37.1800   26.7210   41.7240 C   0  0  0  0  0  0  0  0  0  0  0  0
   37.4770   30.2000   43.2100 H   0  0  0  0  0  0  0  0  0  0  0  0
   36.9520   28.2590   44.6660 H   0  0  0  0  0  0  0  0  0  0  0  0
   36.7670   25.9690   43.6320 H   0  0  0  0  0  0  0  0  0  0  0  0
   37.0840   25.3930   41.0490 C   0  0  0  0  0  2  0  0  0  0  0  0
   37.8220   25.3290   40.2140 H   0  0  0  0  0  0  0  0  0  0  0  0
  1  2  1  0  0  0  0
  1 13  1  0  0  0  0
  2 14  1  0  0  0  0
  3  2  2  0  0  0  0
  4  3  1  0  0  0  0
  5  4  2  0  0  0  0
  5  6  1  0  0  0  0
  6  1  2  0  0  0  0
  7  5  1  0  0  0  0
  8  7  1  0  0  0  0
  8 17  1  0  0  0  0
  9  8  1  0  0  0  0
  9 18  1  0  0  0  0
 10  9  1  0  0  0  0
 10 11  1  0  0  0  0
 11 12  1  0  0  0  0
 11 22  1  0  0  0  0
 12 24  1  6  0  0  0
 12  7  1  0  0  0  0
 12 27  1  0  0  0  0
 15  3  1  0  0  0  0
 16  8  1  0  0  0  0
 19  9  1  0  0  0  0
 20 10  1  0  0  0  0
 21 10  1  0  0  0  0
 23 11  1  0  0  0  0
 25 26  1  0  0  0  0
 26 27  2  0  0  0  0
 26 31  1  0  0  0  0
 27 28  1  0  0  0  0
 28 32  1  0  0  0  0
 28 29  2  0  0  0  0
 29 33  1  0  0  0  0
 30 29  1  0  0  0  0
 30 34  1  0  0  0  0
 31 30  2  0  0  0  0
 35 31  1  0  0  0  0
 36 35  1  0  0  0  0
M  END
>  <minimizedAffinity>
-5.56664705

$$$$

 OpenBabel03242517243D

 36 38  0  0  1  0  0  0  0  0999 V2000
   35.3140   28.9320   38.1640 C   0  0  0  0  0  0  0  0  0  0  0  0
   36.2540   29.8490   38.6560 C   0  0  0  0  0  0  0  0  0  0  0  0
   37.3110   29.3730   39.4540 C   0  0  0  0  0  0  0  0  0  0  0  0
   37.3590   28.0480   39.6990 N   0  0  0  0  0  0  0  0  0  0  0  0
   36.4320   27.1740   39.2090 C   0  0  0  0  0  0  0  0  0  0  0  0
   35.4060   27.6230   38.4390 N   0  0  0  0  0  0  0  0  0  0  0  0
   36.5700   25.7880   39.5280 N   0  0  0  0  0  0  0  0  0  0  0  0
   35.7460   24.8670   38.7480 C   0  0  0  0  0  0  0  0  0  0  0  0
   35.6160   23.5150   39.3120 C   0  0  0  0  0  0  0  0  0  0  0  0
   36.8620   23.0980   40.0170 C   0  0  0  0  0  0  0  0  0  0  0  0
   37.0680   24.0610   41.1460 C   0  0  0  0  0  0  0  0  0  0  0  0
   37.4800   25.3670   40.5630 C   0  0  2  0  0  0  0  0  0  0  0  0
   34.5230   29.3560   37.5570 H   0  0  0  0  0  0  0  0  0  0  0  0
   36.2580   30.9110   38.4880 H   0  0  0  0  0  0  0  0  0  0  0  0
   38.0790   30.0090   39.8730 H   0  0  0  0  0  0  0  0  0  0  0  0
   36.2820   24.7710   37.7580 H   0  0  0  0  0  0  0  0  0  0  0  0
   34.7700   25.3240   38.4740 H   0  0  0  0  0  0  0  0  0  0  0  0
   34.7390   23.3780   39.9740 H   0  0  0  0  0  0  0  0  0  0  0  0
   35.4450   22.7990   38.4670 H   0  0  0  0  0  0  0  0  0  0  0  0
   37.7310   23.0500   39.3450 H   0  0  0  0  0  0  0  0  0  0  0  0
   36.6480   22.1100   40.4820 H   0  0  0  0  0  0  0  0  0  0  0  0
   36.0750   24.2260   41.6450 H   0  0  0  0  0  0  0  0  0  0  0  0
   37.7400   23.7110   41.9270 H   0  0  0  0  0  0  0  0  0  0  0  0
   38.4660   25.2150   40.0400 H   0  0  0  0  0  0  0  0  0  0  0  0
   40.0170   26.6450   40.9790 F   0  0  0  0  0  0  0  0  0  0  0  0
   38.9870   27.0170   41.8000 C   0  0  0  0  0  0  0  0  0  0  0  0
   37.7530   26.3960   41.5970 C   0  0  0  0  0  0  0  0  0  0  0  0
   36.7290   26.8040   42.4530 C   0  0  0  0  0  0  0  0  0  0  0  0
   36.8980   27.7500   43.4400 C   0  0  0  0  0  0  0  0  0  0  0  0
   38.1370   28.3420   43.6100 C   0  0  0  0  0  0  0  0  0  0  0  0
   39.1600   27.9660   42.7880 C   0  0  0  0  0  0  0  0  0  0  0  0
   35.7590   26.3470   42.3280 H   0  0  0  0  0  0  0  0  0  0  0  0
   36.1010   28.0570   44.0950 H   0  0  0  0  0  0  0  0  0  0  0  0
   38.3780   29.1020   44.3610 H   0  0  0  0  0  0  0  0  0  0  0  0
   40.5320   28.5450   42.8930 C   0  0  0  0  0  2  0  0  0  0  0  0
   40.9920   28.6360   41.8800 H   0  0  0  0  0  0  0  0  0  0  0  0
  1  6  2  0  0  0  0
  1  2  1  0  0  0  0
  2  3  2  0  0  0  0
  3  4  1  0  0  0  0
  3 15  1  0  0  0  0
  5  7  1  0  0  0  0
  5  4  2  0  0  0  0
  6  5  1  0  0  0  0
  7 12  1  0  0  0  0
  8  9  1  0  0  0  0
  8  7  1  0  0  0  0
  9 18  1  0  0  0  0
  9 10  1  0  0  0  0
 10 21  1  0  0  0  0
 10 11  1  0  0  0  0
 11 22  1  0  0  0  0
 11 23  1  0  0  0  0
 12 24  1  6  0  0  0
 12 11  1  0  0  0  0
 12 27  1  0  0  0  0
 13  1  1  0  0  0  0
 14  2  1  0  0  0  0
 16  8  1  0  0  0  0
 17  8  1  0  0  0  0
 19  9  1  0  0  0  0
 20 10  1  0  0  0  0
 25 26  1  0  0  0  0
 26 31  1  0  0  0  0
 27 26  2  0  0  0  0
 27 28  1  0  0  0  0
 28 29  2  0  0  0  0
 29 30  1  0  0  0  0
 29 33  1  0  0  0  0
 30 34  1  0  0  0  0
 31 35  1  0  0  0  0
 31 30  2  0  0  0  0
 32 28  1  0  0  0  0
 36 35  1  0  0  0  0
M  END
>  <minimizedAffinity>
-5.42046595

$$$$

 OpenBabel03242517243D

 36 38  0  0  1  0  0  0  0  0999 V2000
   36.5740   30.2830   38.2300 C   0  0  0  0  0  0  0  0  0  0  0  0
   35.4710   29.6620   38.8350 C   0  0  0  0  0  0  0  0  0  0  0  0
   35.5470   29.3260   40.2000 C   0  0  0  0  0  0  0  0  0  0  0  0
   36.6880   29.6260   40.8530 N   0  0  0  0  0  0  0  0  0  0  0  0
   37.7490   30.2310   40.2430 C   0  0  0  0  0  0  0  0  0  0  0  0
   37.6870   30.5590   38.9250 N   0  0  0  0  0  0  0  0  0  0  0  0
   38.9140   30.5060   41.0230 N   0  0  0  0  0  0  0  0  0  0  0  0
   39.8890   31.4110   40.4180 C   0  0  0  0  0  0  0  0  0  0  0  0
   41.2210   31.4000   41.0430 C   0  0  0  0  0  0  0  0  0  0  0  0
   41.1310   31.1610   42.5110 C   0  0  0  0  0  0  0  0  0  0  0  0
   40.5140   29.8090   42.6960 C   0  0  0  0  0  0  0  0  0  0  0  0
   39.0760   29.9080   42.3240 C   0  0  2  0  0  0  0  0  0  0  0  0
   36.4590   30.5170   37.1790 H   0  0  0  0  0  0  0  0  0  0  0  0
   34.5430   29.4040   38.3570 H   0  0  0  0  0  0  0  0  0  0  0  0
   34.7450   28.8460   40.7440 H   0  0  0  0  0  0  0  0  0  0  0  0
   39.4540   32.4430   40.5670 H   0  0  0  0  0  0  0  0  0  0  0  0
   39.9220   31.2970   39.3130 H   0  0  0  0  0  0  0  0  0  0  0  0
   41.9360   30.6900   40.5840 H   0  0  0  0  0  0  0  0  0  0  0  0
   41.6870   32.4080   40.8880 H   0  0  0  0  0  0  0  0  0  0  0  0
   40.5720   31.9510   43.0340 H   0  0  0  0  0  0  0  0  0  0  0  0
   42.1760   31.0830   42.8850 H   0  0  0  0  0  0  0  0  0  0  0  0
   40.9940   29.1070   41.9620 H   0  0  0  0  0  0  0  0  0  0  0  0
   40.6710   29.3660   43.6790 H   0  0  0  0  0  0  0  0  0  0  0  0
   38.5830   30.6240   43.0390 H   0  0  0  0  0  0  0  0  0  0  0  0
   39.6000   27.4990   40.8540 F   0  0  0  0  0  0  0  0  0  0  0  0
   38.6010   27.4560   41.7890 C   0  0  0  0  0  0  0  0  0  0  0  0
   38.3480   28.6280   42.5060 C   0  0  0  0  0  0  0  0  0  0  0  0
   37.3240   28.5420   43.4510 C   0  0  0  0  0  0  0  0  0  0  0  0
   36.5980   27.3940   43.6800 C   0  0  0  0  0  0  0  0  0  0  0  0
   36.8800   26.2540   42.9490 C   0  0  0  0  0  0  0  0  0  0  0  0
   37.8760   26.3030   42.0160 C   0  0  0  0  0  0  0  0  0  0  0  0
   37.0980   29.4270   44.0250 H   0  0  0  0  0  0  0  0  0  0  0  0
   35.8100   27.3400   44.4110 H   0  0  0  0  0  0  0  0  0  0  0  0
   36.3650   25.2920   43.0520 H   0  0  0  0  0  0  0  0  0  0  0  0
   38.2540   25.1280   41.1780 C   0  0  0  0  0  2  0  0  0  0  0  0
   39.3550   25.1220   40.9930 H   0  0  0  0  0  0  0  0  0  0  0  0
  1  2  2  0  0  0  0
  1  6  1  0  0  0  0
  2  3  1  0  0  0  0
  3 15  1  0  0  0  0
  3  4  2  0  0  0  0
  5  4  1  0  0  0  0
  5  7  1  0  0  0  0
  6  5  2  0  0  0  0
  7 12  1  0  0  0  0
  8 16  1  0  0  0  0
  8  7  1  0  0  0  0
  8  9  1  0  0  0  0
  9 10  1  0  0  0  0
 10 11  1  0  0  0  0
 10 21  1  0  0  0  0
 10 20  1  0  0  0  0
 11 23  1  0  0  0  0
 12 27  1  0  0  0  0
 12 11  1  0  0  0  0
 12 24  1  1  0  0  0
 13  1  1  0  0  0  0
 14  2  1  0  0  0  0
 17  8  1  0  0  0  0
 18  9  1  0  0  0  0
 19  9  1  0  0  0  0
 22 11  1  0  0  0  0
 25 26  1  0  0  0  0
 26 31  2  0  0  0  0
 26 27  1  0  0  0  0
 27 28  2  0  0  0  0
 28 29  1  0  0  0  0
 28 32  1  0  0  0  0
 29 33  1  0  0  0  0
 30 34  1  0  0  0  0
 30 29  2  0  0  0  0
 31 30  1  0  0  0  0
 35 31  1  0  0  0  0
 36 35  1  0  0  0  0
M  END
>  <minimizedAffinity>
-5.34556866

$$$$

 OpenBabel03242517243D

 36 38  0  0  1  0  0  0  0  0999 V2000
   41.1110   29.3040   42.6680 C   0  0  0  0  0  0  0  0  0  0  0  0
   40.3810   30.4890   42.4990 C   0  0  0  0  0  0  0  0  0  0  0  0
   39.0050   30.4020   42.2150 C   0  0  0  0  0  0  0  0  0  0  0  0
   38.4640   29.1710   42.1230 N   0  0  0  0  0  0  0  0  0  0  0  0
   39.1960   28.0300   42.2920 C   0  0  0  0  0  0  0  0  0  0  0  0
   40.5260   28.1030   42.5650 N   0  0  0  0  0  0  0  0  0  0  0  0
   38.5300   26.7720   42.1720 N   0  0  0  0  0  0  0  0  0  0  0  0
   39.2710   25.6070   42.6510 C   0  0  0  0  0  0  0  0  0  0  0  0
   38.7510   24.3080   42.2000 C   0  0  0  0  0  0  0  0  0  0  0  0
   37.2660   24.3320   42.0690 C   0  0  0  0  0  0  0  0  0  0  0  0
   36.9370   25.3580   41.0280 C   0  0  0  0  0  0  0  0  0  0  0  0
   37.2040   26.7010   41.6100 C   0  0  2  0  0  0  0  0  0  0  0  0
   42.1650   29.4330   42.8840 H   0  0  0  0  0  0  0  0  0  0  0  0
   40.7660   31.4910   42.5640 H   0  0  0  0  0  0  0  0  0  0  0  0
   38.3670   31.2640   42.0710 H   0  0  0  0  0  0  0  0  0  0  0  0
   39.1660   25.6420   43.7750 H   0  0  0  0  0  0  0  0  0  0  0  0
   40.3650   25.7230   42.4870 H   0  0  0  0  0  0  0  0  0  0  0  0
   39.2110   23.9310   41.2650 H   0  0  0  0  0  0  0  0  0  0  0  0
   39.0140   23.5390   42.9730 H   0  0  0  0  0  0  0  0  0  0  0  0
   36.7620   24.5300   43.0260 H   0  0  0  0  0  0  0  0  0  0  0  0
   36.9690   23.3470   41.6450 H   0  0  0  0  0  0  0  0  0  0  0  0
   37.6520   25.2240   40.1720 H   0  0  0  0  0  0  0  0  0  0  0  0
   35.9400   25.2690   40.6000 H   0  0  0  0  0  0  0  0  0  0  0  0
   36.5080   26.8440   42.4830 H   0  0  0  0  0  0  0  0  0  0  0  0
   38.5560   27.2110   39.1290 F   0  0  0  0  0  0  0  0  0  0  0  0
   37.5330   28.0550   39.4690 C   0  0  0  0  0  0  0  0  0  0  0  0
   36.8750   27.8060   40.6750 C   0  0  0  0  0  0  0  0  0  0  0  0
   35.8380   28.6870   40.9850 C   0  0  0  0  0  0  0  0  0  0  0  0
   35.4700   29.7390   40.1740 C   0  0  0  0  0  0  0  0  0  0  0  0
   36.1470   29.9530   38.9870 C   0  0  0  0  0  0  0  0  0  0  0  0
   37.1670   29.1080   38.6540 C   0  0  0  0  0  0  0  0  0  0  0  0
   35.3040   28.5280   41.9090 H   0  0  0  0  0  0  0  0  0  0  0  0
   34.6690   30.4130   40.4230 H   0  0  0  0  0  0  0  0  0  0  0  0
   35.9360   30.7560   38.2730 H   0  0  0  0  0  0  0  0  0  0  0  0
   37.9570   29.2550   37.3970 C   0  0  0  0  0  2  0  0  0  0  0  0
   38.2400   28.2520   36.9970 H   0  0  0  0  0  0  0  0  0  0  0  0
  1 13  1  0  0  0  0
  2 14  1  0  0  0  0
  2  1  2  0  0  0  0
  3  2  1  0  0  0  0
  4  3  2  0  0  0  0
  4  5  1  0  0  0  0
  5  6  2  0  0  0  0
  6  1  1  0  0  0  0
  7  5  1  0  0  0  0
  7  8  1  0  0  0  0
  8 16  1  0  0  0  0
  9  8  1  0  0  0  0
  9 19  1  0  0  0  0
 10  9  1  0  0  0  0
 10 20  1  0  0  0  0
 11 12  1  0  0  0  0
 11 10  1  0  0  0  0
 12  7  1  0  0  0  0
 12 24  1  1  0  0  0
 15  3  1  0  0  0  0
 17  8  1  0  0  0  0
 18  9  1  0  0  0  0
 21 10  1  0  0  0  0
 22 11  1  0  0  0  0
 23 11  1  0  0  0  0
 25 26  1  0  0  0  0
 26 27  1  0  0  0  0
 27 28  2  0  0  0  0
 27 12  1  0  0  0  0
 28 32  1  0  0  0  0
 29 33  1  0  0  0  0
 29 28  1  0  0  0  0
 30 29  2  0  0  0  0
 31 30  1  0  0  0  0
 31 26  2  0  0  0  0
 34 30  1  0  0  0  0
 35 31  1  0  0  0  0
 36 35  1  0  0  0  0
M  END
>  <minimizedAffinity>
-5.33484316

$$$$

 OpenBabel03242517243D

 36 38  0  0  1  0  0  0  0  0999 V2000
   36.3080   23.9320   40.2790 C   0  0  0  0  0  0  0  0  0  0  0  0
   36.2360   24.1060   38.8890 C   0  0  0  0  0  0  0  0  0  0  0  0
   36.5620   25.3620   38.3460 C   0  0  0  0  0  0  0  0  0  0  0  0
   36.9310   26.3350   39.2030 N   0  0  0  0  0  0  0  0  0  0  0  0
   36.9940   26.1430   40.5530 C   0  0  0  0  0  0  0  0  0  0  0  0
   36.6800   24.9340   41.0890 N   0  0  0  0  0  0  0  0  0  0  0  0
   37.3940   27.2390   41.3770 N   0  0  0  0  0  0  0  0  0  0  0  0
   37.7360   26.9100   42.7590 C   0  0  0  0  0  0  0  0  0  0  0  0
   37.7870   28.0560   43.6790 C   0  0  0  0  0  0  0  0  0  0  0  0
   38.2740   29.2850   42.9910 C   0  0  0  0  0  0  0  0  0  0  0  0
   37.2880   29.5960   41.9060 C   0  0  0  0  0  0  0  0  0  0  0  0
   37.4480   28.5740   40.8370 C   0  0  2  0  0  0  0  0  0  0  0  0
   36.0460   22.9450   40.6400 H   0  0  0  0  0  0  0  0  0  0  0  0
   35.9490   23.3620   38.1680 H   0  0  0  0  0  0  0  0  0  0  0  0
   36.5340   25.5820   37.2870 H   0  0  0  0  0  0  0  0  0  0  0  0
   38.7760   26.4740   42.7020 H   0  0  0  0  0  0  0  0  0  0  0  0
   37.1190   26.0670   43.1420 H   0  0  0  0  0  0  0  0  0  0  0  0
   36.8350   28.2650   44.2050 H   0  0  0  0  0  0  0  0  0  0  0  0
   38.5130   27.8130   44.4990 H   0  0  0  0  0  0  0  0  0  0  0  0
   39.2980   29.1750   42.6060 H   0  0  0  0  0  0  0  0  0  0  0  0
   38.2000   30.1130   43.7290 H   0  0  0  0  0  0  0  0  0  0  0  0
   36.2560   29.4670   42.3300 H   0  0  0  0  0  0  0  0  0  0  0  0
   37.3310   30.6180   41.5310 H   0  0  0  0  0  0  0  0  0  0  0  0
   38.4860   28.6770   40.4130 H   0  0  0  0  0  0  0  0  0  0  0  0
   38.3120   29.1930   38.1700 F   0  0  0  0  0  0  0  0  0  0  0  0
   36.9630   29.1090   38.3860 C   0  0  0  0  0  0  0  0  0  0  0  0
   36.5430   28.8060   39.6830 C   0  0  0  0  0  0  0  0  0  0  0  0
   35.1610   28.7270   39.8620 C   0  0  0  0  0  0  0  0  0  0  0  0
   34.2520   28.9300   38.8460 C   0  0  0  0  0  0  0  0  0  0  0  0
   34.7090   29.2280   37.5750 C   0  0  0  0  0  0  0  0  0  0  0  0
   36.0560   29.3130   37.3660 C   0  0  0  0  0  0  0  0  0  0  0  0
   34.7960   28.4940   40.8510 H   0  0  0  0  0  0  0  0  0  0  0  0
   33.1890   28.8670   38.9950 H   0  0  0  0  0  0  0  0  0  0  0  0
   34.0750   29.4070   36.6990 H   0  0  0  0  0  0  0  0  0  0  0  0
   36.6460   29.6290   36.0320 C   0  0  0  0  0  2  0  0  0  0  0  0
   37.6010   29.0700   35.8880 H   0  0  0  0  0  0  0  0  0  0  0  0
  1 13  1  0  0  0  0
  1  6  1  0  0  0  0
  2  1  2  0  0  0  0
  3  2  1  0  0  0  0
  3  4  2  0  0  0  0
  4  5  1  0  0  0  0
  5  6  2  0  0  0  0
  5  7  1  0  0  0  0
  7  8  1  0  0  0  0
  8 17  1  0  0  0  0
  8  9  1  0  0  0  0
  9 18  1  0  0  0  0
  9 19  1  0  0  0  0
 10  9  1  0  0  0  0
 10 21  1  0  0  0  0
 11 22  1  0  0  0  0
 11 10  1  0  0  0  0
 12 24  1  6  0  0  0
 12  7  1  0  0  0  0
 12 11  1  0  0  0  0
 14  2  1  0  0  0  0
 15  3  1  0  0  0  0
 16  8  1  0  0  0  0
 20 10  1  0  0  0  0
 23 11  1  0  0  0  0
 25 26  1  0  0  0  0
 26 27  1  0  0  0  0
 27 28  2  0  0  0  0
 27 12  1  0  0  0  0
 28 32  1  0  0  0  0
 29 33  1  0  0  0  0
 29 28  1  0  0  0  0
 30 29  2  0  0  0  0
 31 30  1  0  0  0  0
 31 26  2  0  0  0  0
 34 30  1  0  0  0  0
 35 31  1  0  0  0  0
 36 35  1  0  0  0  0
M  END
>  <minimizedAffinity>
-5.32109404

$$$$

 OpenBabel03242517243D

 36 38  0  0  1  0  0  0  0  0999 V2000
   35.3980   28.4500   37.7140 C   0  0  0  0  0  0  0  0  0  0  0  0
   36.2850   29.0530   36.8100 C   0  0  0  0  0  0  0  0  0  0  0  0
   37.5380   29.4890   37.2800 C   0  0  0  0  0  0  0  0  0  0  0  0
   37.8150   29.2970   38.5850 N   0  0  0  0  0  0  0  0  0  0  0  0
   36.9350   28.7070   39.4470 C   0  0  0  0  0  0  0  0  0  0  0  0
   35.7220   28.2830   39.0040 N   0  0  0  0  0  0  0  0  0  0  0  0
   37.3240   28.5510   40.8130 N   0  0  0  0  0  0  0  0  0  0  0  0
   36.4910   27.6580   41.6170 C   0  0  0  0  0  0  0  0  0  0  0  0
   36.6660   27.7840   43.0710 C   0  0  0  0  0  0  0  0  0  0  0  0
   38.0740   28.1230   43.4240 C   0  0  0  0  0  0  0  0  0  0  0  0
   38.3730   29.4500   42.7970 C   0  0  0  0  0  0  0  0  0  0  0  0
   38.4760   29.2490   41.3260 C   0  0  2  0  0  0  0  0  0  0  0  0
   34.4490   28.1350   37.2960 H   0  0  0  0  0  0  0  0  0  0  0  0
   36.1090   29.2270   35.7640 H   0  0  0  0  0  0  0  0  0  0  0  0
   38.2810   29.9630   36.6530 H   0  0  0  0  0  0  0  0  0  0  0  0
   36.8210   26.6180   41.3250 H   0  0  0  0  0  0  0  0  0  0  0  0
   35.4270   27.6950   41.2970 H   0  0  0  0  0  0  0  0  0  0  0  0
   35.9690   28.4970   43.5560 H   0  0  0  0  0  0  0  0  0  0  0  0
   36.4250   26.7940   43.5390 H   0  0  0  0  0  0  0  0  0  0  0  0
   38.7850   27.3440   43.1120 H   0  0  0  0  0  0  0  0  0  0  0  0
   38.0970   28.2830   44.5240 H   0  0  0  0  0  0  0  0  0  0  0  0
   37.4910   30.1230   42.9740 H   0  0  0  0  0  0  0  0  0  0  0  0
   39.2330   29.9690   43.2180 H   0  0  0  0  0  0  0  0  0  0  0  0
   39.3450   28.5600   41.1320 H   0  0  0  0  0  0  0  0  0  0  0  0
   36.7180   31.4990   41.0340 F   0  0  0  0  0  0  0  0  0  0  0  0
   37.9550   31.5930   40.4550 C   0  0  0  0  0  0  0  0  0  0  0  0
   38.8110   30.4980   40.5990 C   0  0  0  0  0  0  0  0  0  0  0  0
   40.0620   30.6340   39.9960 C   0  0  0  0  0  0  0  0  0  0  0  0
   40.4510   31.7580   39.3010 C   0  0  0  0  0  0  0  0  0  0  0  0
   39.5740   32.8210   39.1810 C   0  0  0  0  0  0  0  0  0  0  0  0
   38.3410   32.7210   39.7590 C   0  0  0  0  0  0  0  0  0  0  0  0
   40.7530   29.8090   40.0850 H   0  0  0  0  0  0  0  0  0  0  0  0
   41.4190   31.8510   38.8390 H   0  0  0  0  0  0  0  0  0  0  0  0
   39.7820   33.7570   38.6520 H   0  0  0  0  0  0  0  0  0  0  0  0
   37.3260   33.8120   39.6850 C   0  0  0  0  0  2  0  0  0  0  0  0
   36.7370   33.8590   40.6320 H   0  0  0  0  0  0  0  0  0  0  0  0
  1  6  1  0  0  0  0
  2  3  1  0  0  0  0
  2  1  2  0  0  0  0
  3  4  2  0  0  0  0
  4  5  1  0  0  0  0
  5  7  1  0  0  0  0
  6  5  2  0  0  0  0
  7 12  1  0  0  0  0
  7  8  1  0  0  0  0
  8  9  1  0  0  0  0
  9 10  1  0  0  0  0
  9 19  1  0  0  0  0
  9 18  1  0  0  0  0
 10 21  1  0  0  0  0
 11 22  1  0  0  0  0
 11 23  1  0  0  0  0
 11 10  1  0  0  0  0
 12 24  1  6  0  0  0
 12 11  1  0  0  0  0
 13  1  1  0  0  0  0
 14  2  1  0  0  0  0
 15  3  1  0  0  0  0
 16  8  1  0  0  0  0
 17  8  1  0  0  0  0
 20 10  1  0  0  0  0
 26 27  1  0  0  0  0
 26 25  1  0  0  0  0
 27 12  1  0  0  0  0
 28 32  1  0  0  0  0
 28 27  2  0  0  0  0
 29 28  1  0  0  0  0
 30 29  2  0  0  0  0
 30 31  1  0  0  0  0
 31 26  2  0  0  0  0
 33 29  1  0  0  0  0
 34 30  1  0  0  0  0
 35 31  1  0  0  0  0
 35 36  1  0  0  0  0
M  END
>  <minimizedAffinity>
-5.26721668

$$$$

 OpenBabel03242517243D

 36 38  0  0  1  0  0  0  0  0999 V2000
   37.6140   32.6530   39.9740 C   0  0  0  0  0  0  0  0  0  0  0  0
   38.6070   32.4920   40.9520 C   0  0  0  0  0  0  0  0  0  0  0  0
   39.0720   31.1940   41.2380 C   0  0  0  0  0  0  0  0  0  0  0  0
   38.5300   30.1720   40.5450 N   0  0  0  0  0  0  0  0  0  0  0  0
   37.5650   30.3540   39.5980 C   0  0  0  0  0  0  0  0  0  0  0  0
   37.1070   31.6020   39.3140 N   0  0  0  0  0  0  0  0  0  0  0  0
   37.0530   29.2040   38.9200 N   0  0  0  0  0  0  0  0  0  0  0  0
   36.2570   29.4680   37.7240 C   0  0  0  0  0  0  0  0  0  0  0  0
   35.4450   28.3360   37.2530 C   0  0  0  0  0  0  0  0  0  0  0  0
   36.1250   27.0350   37.5080 C   0  0  0  0  0  0  0  0  0  0  0  0
   36.2880   26.9120   38.9930 C   0  0  0  0  0  0  0  0  0  0  0  0
   37.3330   27.8810   39.4200 C   0  0  2  0  0  0  0  0  0  0  0  0
   37.2960   33.6730   39.7970 H   0  0  0  0  0  0  0  0  0  0  0  0
   39.0680   33.2740   41.5280 H   0  0  0  0  0  0  0  0  0  0  0  0
   39.8340   30.9800   41.9750 H   0  0  0  0  0  0  0  0  0  0  0  0
   37.0150   29.6990   36.9190 H   0  0  0  0  0  0  0  0  0  0  0  0
   35.6790   30.4130   37.8180 H   0  0  0  0  0  0  0  0  0  0  0  0
   34.4130   28.3130   37.6570 H   0  0  0  0  0  0  0  0  0  0  0  0
   35.3100   28.4400   36.1450 H   0  0  0  0  0  0  0  0  0  0  0  0
   37.0820   26.9470   36.9740 H   0  0  0  0  0  0  0  0  0  0  0  0
   35.4110   26.2380   37.2040 H   0  0  0  0  0  0  0  0  0  0  0  0
   35.3260   27.2360   39.4740 H   0  0  0  0  0  0  0  0  0  0  0  0
   36.4740   25.8990   39.3480 H   0  0  0  0  0  0  0  0  0  0  0  0
   38.3020   27.5830   38.9300 H   0  0  0  0  0  0  0  0  0  0  0  0
   39.8700   27.2110   40.5820 F   0  0  0  0  0  0  0  0  0  0  0  0
   38.8440   27.4930   41.4420 C   0  0  0  0  0  0  0  0  0  0  0  0
   37.6090   27.8210   40.8770 C   0  0  0  0  0  0  0  0  0  0  0  0
   36.5900   28.1040   41.7870 C   0  0  0  0  0  0  0  0  0  0  0  0
   36.7620   28.0690   43.1530 C   0  0  0  0  0  0  0  0  0  0  0  0
   38.0000   27.7400   43.6750 C   0  0  0  0  0  0  0  0  0  0  0  0
   39.0190   27.4570   42.8110 C   0  0  0  0  0  0  0  0  0  0  0  0
   35.6200   28.3620   41.3880 H   0  0  0  0  0  0  0  0  0  0  0  0
   35.9680   28.2880   43.8460 H   0  0  0  0  0  0  0  0  0  0  0  0
   38.2440   27.6830   44.7410 H   0  0  0  0  0  0  0  0  0  0  0  0
   40.3900   27.0910   43.2760 C   0  0  0  0  0  2  0  0  0  0  0  0
   41.1580   27.5030   42.5790 H   0  0  0  0  0  0  0  0  0  0  0  0
  1  2  1  0  0  0  0
  2  3  2  0  0  0  0
  2 14  1  0  0  0  0
  3 15  1  0  0  0  0
  4  3  1  0  0  0  0
  5  4  2  0  0  0  0
  6  5  1  0  0  0  0
  6  1  2  0  0  0  0
  7 12  1  0  0  0  0
  7  5  1  0  0  0  0
  8 17  1  0  0  0  0
  8  7  1  0  0  0  0
  9 10  1  0  0  0  0
  9 18  1  0  0  0  0
  9  8  1  0  0  0  0
 10 11  1  0  0  0  0
 11 23  1  0  0  0  0
 11 12  1  0  0  0  0
 11 22  1  0  0  0  0
 12 24  1  6  0  0  0
 12 27  1  0  0  0  0
 13  1  1  0  0  0  0
 16  8  1  0  0  0  0
 19  9  1  0  0  0  0
 20 10  1  0  0  0  0
 21 10  1  0  0  0  0
 25 26  1  0  0  0  0
 26 31  1  0  0  0  0
 27 26  2  0  0  0  0
 27 28  1  0  0  0  0
 28 29  2  0  0  0  0
 29 30  1  0  0  0  0
 29 33  1  0  0  0  0
 30 34  1  0  0  0  0
 31 35  1  0  0  0  0
 31 30  2  0  0  0  0
 32 28  1  0  0  0  0
 36 35  1  0  0  0  0
M  END
>  <minimizedAffinity>
-5.26498985

$$$$
