
 OpenBabel03242517223D

 36 38  0  0  1  0  0  0  0  0999 V2000
   44.6560   35.3760   45.3810 C   0  0  0  0  0  0  0  0  0  0  0  0
   44.5280   36.0570   44.1620 C   0  0  0  0  0  0  0  0  0  0  0  0
   45.1100   35.4970   43.0090 C   0  0  0  0  0  0  0  0  0  0  0  0
   45.7620   34.3250   43.1470 N   0  0  0  0  0  0  0  0  0  0  0  0
   45.8740   33.6800   44.3450 C   0  0  0  0  0  0  0  0  0  0  0  0
   45.3170   34.2120   45.4650 N   0  0  0  0  0  0  0  0  0  0  0  0
   46.5870   32.4430   44.3860 N   0  0  0  0  0  0  0  0  0  0  0  0
   46.4240   31.6510   45.6040 C   0  0  0  0  0  0  0  0  0  0  0  0
   47.4220   30.5870   45.7940 C   0  0  0  0  0  0  0  0  0  0  0  0
   47.8480   30.0010   44.4910 C   0  0  0  0  0  0  0  0  0  0  0  0
   48.4820   31.1060   43.7030 C   0  0  0  0  0  0  0  0  0  0  0  0
   47.4050   32.0360   43.2710 C   0  0  2  0  0  0  0  0  0  0  0  0
   44.1890   35.8540   46.2330 H   0  0  0  0  0  0  0  0  0  0  0  0
   44.0190   36.9900   44.0030 H   0  0  0  0  0  0  0  0  0  0  0  0
   45.0590   35.9540   42.0300 H   0  0  0  0  0  0  0  0  0  0  0  0
   45.4170   31.1530   45.4900 H   0  0  0  0  0  0  0  0  0  0  0  0
   46.2980   32.2990   46.4980 H   0  0  0  0  0  0  0  0  0  0  0  0
   48.3090   30.8920   46.3840 H   0  0  0  0  0  0  0  0  0  0  0  0
   46.9500   29.7700   46.3990 H   0  0  0  0  0  0  0  0  0  0  0  0
   47.0170   29.5260   43.9510 H   0  0  0  0  0  0  0  0  0  0  0  0
   48.6580   29.2740   44.7200 H   0  0  0  0  0  0  0  0  0  0  0  0
   49.1540   31.6830   44.3950 H   0  0  0  0  0  0  0  0  0  0  0  0
   49.1150   30.7740   42.8810 H   0  0  0  0  0  0  0  0  0  0  0  0
   46.7100   31.4680   42.5910 H   0  0  0  0  0  0  0  0  0  0  0  0
   46.9970   32.3040   40.4420 F   0  0  0  0  0  0  0  0  0  0  0  0
   47.7170   33.2870   41.0660 C   0  0  0  0  0  0  0  0  0  0  0  0
   47.9140   33.1580   42.4430 C   0  0  0  0  0  0  0  0  0  0  0  0
   48.6500   34.1810   43.0410 C   0  0  0  0  0  0  0  0  0  0  0  0
   49.1600   35.2550   42.3450 C   0  0  0  0  0  0  0  0  0  0  0  0
   48.9430   35.3470   40.9820 C   0  0  0  0  0  0  0  0  0  0  0  0
   48.2260   34.3630   40.3650 C   0  0  0  0  0  0  0  0  0  0  0  0
   48.8240   34.1180   44.1040 H   0  0  0  0  0  0  0  0  0  0  0  0
   49.7270   36.0390   42.8170 H   0  0  0  0  0  0  0  0  0  0  0  0
   49.3020   36.1560   40.3360 H   0  0  0  0  0  0  0  0  0  0  0  0
   47.9390   34.3720   38.9000 C   0  0  0  0  0  0  0  0  0  0  0  0
   46.9270   33.9450   38.7010 H   0  0  0  0  0  0  0  0  0  0  0  0
  1  6  1  0  0  0  0
  1 13  1  0  0  0  0
  2  1  2  0  0  0  0
  3  4  2  0  0  0  0
  3  2  1  0  0  0  0
  4  5  1  0  0  0  0
  5  7  1  0  0  0  0
  5  6  2  0  0  0  0
  7  8  1  0  0  0  0
  8  9  1  0  0  0  0
  8 17  1  0  0  0  0
  9 18  1  0  0  0  0
  9 19  1  0  0  0  0
 10 21  1  0  0  0  0
 10  9  1  0  0  0  0
 11 22  1  0  0  0  0
 11 10  1  0  0  0  0
 12 24  1  6  0  0  0
 12 11  1  0  0  0  0
 12  7  1  0  0  0  0
 14  2  1  0  0  0  0
 15  3  1  0  0  0  0
 16  8  1  0  0  0  0
 20 10  1  0  0  0  0
 23 11  1  0  0  0  0
 25 26  1  0  0  0  0
 26 27  1  0  0  0  0
 27 28  2  0  0  0  0
 27 12  1  0  0  0  0
 28 32  1  0  0  0  0
 29 33  1  0  0  0  0
 29 28  1  0  0  0  0
 30 29  2  0  0  0  0
 31 30  1  0  0  0  0
 31 26  2  0  0  0  0
 34 30  1  0  0  0  0
 35 31  1  0  0  0  0
 36 35  1  0  0  0  0
M  END
>  <minimizedAffinity>
-5.8220005

>  <minimizedRMSD>
0.352615416

$$$$
