
 OpenBabel03242513483D

 25 27  0  0  1  0  0  0  0  0999 V2000
   46.2840   34.0340   40.5250 C   0  0  1  0  0  0  0  0  0  0  0  0
   45.2830   32.9930   41.0370 C   0  0  0  0  0  0  0  0  0  0  0  0
   44.9520   34.4060   41.0340 C   0  0  1  0  0  0  0  0  0  0  0  0
   46.4460   34.1610   39.4370 H   0  0  0  0  0  0  0  0  0  0  0  0
   45.5080   32.4560   41.9640 H   0  0  0  0  0  0  0  0  0  0  0  0
   44.8380   32.3520   40.2360 H   0  0  0  0  0  0  0  0  0  0  0  0
   44.3080   34.9000   40.2680 H   0  0  0  0  0  0  0  0  0  0  0  0
   47.5240   34.1700   41.3340 C   0  0  0  0  0  0  0  0  0  0  0  0
   48.2610   35.3630   41.2120 C   0  0  0  0  0  0  0  0  0  0  0  0
   49.4350   35.4740   41.9730 C   0  0  0  0  0  0  0  0  0  0  0  0
   49.7850   34.4120   42.7830 N   0  0  0  0  0  0  0  0  0  0  0  0
   49.0360   33.2970   42.8540 C   0  0  0  0  0  0  0  0  0  0  0  0
   47.9100   33.1670   42.1370 N   0  0  0  0  0  0  0  0  0  0  0  0
   47.9900   36.1830   40.5870 H   0  0  0  0  0  0  0  0  0  0  0  0
   50.0660   36.3310   41.9570 H   0  0  0  0  0  0  0  0  0  0  0  0
   49.3230   32.4730   43.4930 H   0  0  0  0  0  0  0  0  0  0  0  0
   44.9080   35.0970   42.3640 C   0  0  0  0  0  0  0  0  0  0  0  0
   44.9120   36.4410   42.7030 C   0  0  0  0  0  0  0  0  0  0  0  0
   44.8390   36.5500   44.0480 N   0  0  0  0  0  0  0  0  0  0  0  0
   44.7900   35.3140   44.5260 C   0  0  0  0  0  0  0  0  0  0  0  0
   44.8280   34.4010   43.5480 N   0  0  0  0  0  0  0  0  0  0  0  0
   44.9680   37.2210   41.9570 H   0  0  0  0  0  0  0  0  0  0  0  0
   44.8230   37.4440   44.5970 H   0  0  0  0  0  0  0  0  0  0  0  0
   44.7010   34.8690   45.9550 C   0  0  0  0  0  0  0  0  0  0  0  0
   45.2430   33.8910   46.0970 H   0  0  0  0  0  0  0  0  0  0  0  0
  1  4  1  6  0  0  0
  1  3  1  0  0  0  0
  1  2  1  0  0  0  0
  1  8  1  0  0  0  0
  2  5  1  0  0  0  0
  3  7  1  6  0  0  0
  3  2  1  0  0  0  0
  3 17  1  0  0  0  0
  6  2  1  0  0  0  0
  8 13  1  0  0  0  0
  9  8  2  0  0  0  0
  9 10  1  0  0  0  0
 10 11  2  0  0  0  0
 11 12  1  0  0  0  0
 12 16  1  0  0  0  0
 13 12  2  0  0  0  0
 14  9  1  0  0  0  0
 15 10  1  0  0  0  0
 17 18  2  0  0  0  0
 17 21  1  0  0  0  0
 18 19  1  0  0  0  0
 19 20  1  0  0  0  0
 19 23  1  0  0  0  0
 20 24  1  0  0  0  0
 21 20  2  0  0  0  0
 22 18  1  0  0  0  0
 24 25  1  0  0  0  0
M  END
>  <minimizedAffinity>
-4.51619196

>  <minimizedRMSD>
1.38118327

$$$$
