
 OpenBabel03252502123D

 30 32  0  0  0  0  0  0  0  0999 V2000
   41.8910   34.3500   41.4160 Cl  0  0  0  0  0  0  0  0  0  0  0  0
   43.3110   33.8920   40.5130 C   0  0  0  0  0  0  0  0  0  0  0  0
   44.5490   33.9620   41.0540 C   0  0  0  0  0  0  0  0  0  0  0  0
   45.5910   33.5730   40.2400 C   0  0  0  0  0  0  0  0  0  0  0  0
   45.4340   33.1390   38.9690 C   0  0  0  0  0  0  0  0  0  0  0  0
   44.1720   33.0710   38.4250 C   0  0  0  0  0  0  0  0  0  0  0  0
   43.1190   33.4500   39.2070 C   0  0  0  0  0  0  0  0  0  0  0  0
   46.2540   32.8380   38.3400 H   0  0  0  0  0  0  0  0  0  0  0  0
   43.9570   32.7360   37.4170 H   0  0  0  0  0  0  0  0  0  0  0  0
   42.1070   33.4030   38.7950 H   0  0  0  0  0  0  0  0  0  0  0  0
   44.7140   36.1840   44.1140 C   0  0  0  0  0  0  0  0  0  0  0  0
   44.5680   35.7540   42.7820 C   0  0  0  0  0  0  0  0  0  0  0  0
   44.6950   34.4260   42.4080 C   0  0  0  0  0  0  0  0  0  0  0  0
   44.9750   33.5590   43.4290 N   0  0  0  0  0  0  0  0  0  0  0  0
   45.1150   33.9690   44.6950 C   0  0  0  0  0  0  0  0  0  0  0  0
   44.9890   35.2610   45.0490 N   0  0  0  0  0  0  0  0  0  0  0  0
   44.5850   37.2330   44.2260 H   0  0  0  0  0  0  0  0  0  0  0  0
   44.3450   36.4290   41.9560 H   0  0  0  0  0  0  0  0  0  0  0  0
   45.3360   33.3090   45.5240 H   0  0  0  0  0  0  0  0  0  0  0  0
   46.9610   33.6380   40.8020 C   0  0  0  0  0  0  0  0  0  0  0  0
   47.5670   32.4210   41.1320 C   0  0  0  0  0  0  0  0  0  0  0  0
   48.8320   32.5880   41.6440 C   0  0  0  0  0  0  0  0  0  0  0  0
   49.4830   33.7670   41.8380 C   0  0  0  0  0  0  0  0  0  0  0  0
   48.7990   34.9380   41.4790 C   0  0  0  0  0  0  0  0  0  0  0  0
   47.5620   34.8060   40.9760 N   0  0  0  0  0  0  0  0  0  0  0  0
   47.1290   31.4570   41.0130 H   0  0  0  0  0  0  0  0  0  0  0  0
   49.4090   31.6970   41.9400 H   0  0  0  0  0  0  0  0  0  0  0  0
   50.4780   33.8510   42.2430 H   0  0  0  0  0  0  0  0  0  0  0  0
   49.3880   36.2820   41.6360 C   0  0  0  0  0  0  0  0  0  0  0  0
   49.2550   36.6740   42.6610 H   0  0  0  0  0  0  0  0  0  0  0  0
  2  3  1  0  0  0  0
  2  1  1  0  0  0  0
  3 13  1  0  0  0  0
  4 20  1  0  0  0  0
  4  3  2  0  0  0  0
  5  4  1  0  0  0  0
  6  5  2  0  0  0  0
  6  7  1  0  0  0  0
  7  2  2  0  0  0  0
  8  5  1  0  0  0  0
  9  6  1  0  0  0  0
 10  7  1  0  0  0  0
 11 17  1  0  0  0  0
 11 16  1  0  0  0  0
 12 11  2  0  0  0  0
 13 12  1  0  0  0  0
 13 14  2  0  0  0  0
 14 15  1  0  0  0  0
 15 16  2  0  0  0  0
 15 19  1  0  0  0  0
 18 12  1  0  0  0  0
 20 25  2  0  0  0  0
 20 21  1  0  0  0  0
 21 22  2  0  0  0  0
 22 23  1  0  0  0  0
 22 27  1  0  0  0  0
 23 28  1  0  0  0  0
 24 29  1  0  0  0  0
 24 23  2  0  0  0  0
 25 24  1  0  0  0  0
 26 21  1  0  0  0  0
 29 30  1  0  0  0  0
M  END
>  <minimizedAffinity>
-5.21788311

>  <minimizedRMSD>
0.961273909

$$$$
