
 OpenBabel03252502403D

 39 41  0  0  1  0  0  0  0  0999 V2000
   37.2400   30.0100   39.9790 C   0  0  1  0  0  0  0  0  0  0  0  0
   38.1260   29.3710   39.6960 H   0  0  0  0  0  0  0  0  0  0  0  0
   36.2520   29.7670   38.9640 N   0  0  0  0  0  0  0  0  0  0  0  0
   36.7480   29.0020   37.8790 C   0  0  0  0  0  0  0  0  0  0  0  0
   35.7190   29.1910   36.7510 C   0  0  0  0  0  0  0  0  0  0  0  0
   34.5950   28.4130   37.2000 N   0  0  0  0  0  0  0  0  0  0  0  0
   34.0590   28.8480   38.4290 C   0  0  0  0  0  0  0  0  0  0  0  0
   35.0700   29.2320   39.4980 C   0  0  0  0  0  0  0  0  0  0  0  0
   36.7550   27.9090   38.0910 H   0  0  0  0  0  0  0  0  0  0  0  0
   37.7530   29.3290   37.5430 H   0  0  0  0  0  0  0  0  0  0  0  0
   35.4960   30.2470   36.6040 H   0  0  0  0  0  0  0  0  0  0  0  0
   36.1280   28.7290   35.8470 H   0  0  0  0  0  0  0  0  0  0  0  0
   33.8430   28.5650   36.4640 H   0  0  0  0  0  0  0  0  0  0  0  0
   33.3840   29.7120   38.2560 H   0  0  0  0  0  0  0  0  0  0  0  0
   33.3680   28.0370   38.7840 H   0  0  0  0  0  0  0  0  0  0  0  0
   34.4800   29.7350   40.2290 H   0  0  0  0  0  0  0  0  0  0  0  0
   35.3710   28.1790   39.8060 H   0  0  0  0  0  0  0  0  0  0  0  0
   38.7500   31.7570   40.9180 C   0  0  0  0  0  0  0  0  0  0  0  0
   37.6850   31.3620   40.1300 C   0  0  0  0  0  0  0  0  0  0  0  0
   37.0140   32.3910   39.4410 C   0  0  0  0  0  0  0  0  0  0  0  0
   37.4360   33.6850   39.5790 N   0  0  0  0  0  0  0  0  0  0  0  0
   38.4880   34.0000   40.3690 C   0  0  0  0  0  0  0  0  0  0  0  0
   39.1530   33.0240   41.0450 N   0  0  0  0  0  0  0  0  0  0  0  0
   39.2810   30.9840   41.4550 H   0  0  0  0  0  0  0  0  0  0  0  0
   36.1740   32.1600   38.8070 H   0  0  0  0  0  0  0  0  0  0  0  0
   38.8370   35.0160   40.4930 H   0  0  0  0  0  0  0  0  0  0  0  0
   36.6930   29.5330   41.3310 C   0  0  0  0  0  0  0  0  0  0  0  0
   35.7090   29.1150   40.9400 H   0  0  0  0  0  0  0  0  0  0  0  0
   36.3160   30.3020   41.9920 H   0  0  0  0  0  0  0  0  0  0  0  0
   37.4710   28.5540   42.0190 C   0  0  0  0  0  0  0  0  0  0  0  0
   38.5590   28.5190   42.8240 C   0  0  0  0  0  0  0  0  0  0  0  0
   39.1680   27.4130   43.3880 C   0  0  0  0  0  0  0  0  0  0  0  0
   38.6110   26.2370   43.1010 N   0  0  0  0  0  0  0  0  0  0  0  0
   37.5520   26.1890   42.3260 C   0  0  0  0  0  0  0  0  0  0  0  0
   37.0280   27.2930   41.8250 N   0  0  0  0  0  0  0  0  0  0  0  0
   38.9600   29.5360   43.0040 H   0  0  0  0  0  0  0  0  0  0  0  0
   40.0330   27.6010   44.0070 H   0  0  0  0  0  0  0  0  0  0  0  0
   37.0040   24.8130   42.0650 C   0  0  0  0  0  2  0  0  0  0  0  0
   36.1060   24.6570   42.7290 H   0  0  0  0  0  0  0  0  0  0  0  0
  1  2  1  6  0  0  0
  1 19  1  0  0  0  0
  1 27  1  0  0  0  0
  3  8  1  0  0  0  0
  3  1  1  0  0  0  0
  4  9  1  0  0  0  0
  4  3  1  0  0  0  0
  5  6  1  0  0  0  0
  5  4  1  0  0  0  0
  6  7  1  0  0  0  0
  7 15  1  0  0  0  0
  7  8  1  0  0  0  0
  8 17  1  0  0  0  0
  8 16  1  0  0  0  0
 10  4  1  0  0  0  0
 11  5  1  0  0  0  0
 12  5  1  0  0  0  0
 13  6  1  0  0  0  0
 14  7  1  0  0  0  0
 18 23  1  0  0  0  0
 18 24  1  0  0  0  0
 19 18  2  0  0  0  0
 20 21  2  0  0  0  0
 20 19  1  0  0  0  0
 21 22  1  0  0  0  0
 22 26  1  0  0  0  0
 22 23  2  0  0  0  0
 25 20  1  0  0  0  0
 27 29  1  0  0  0  0
 27 30  1  0  0  0  0
 28 27  1  0  0  0  0
 30 31  1  0  0  0  0
 31 36  1  0  0  0  0
 31 32  2  0  0  0  0
 32 37  1  0  0  0  0
 33 32  1  0  0  0  0
 34 33  2  0  0  0  0
 35 30  2  0  0  0  0
 35 34  1  0  0  0  0
 38 34  1  0  0  0  0
 38 39  1  0  0  0  0
M  END
>  <minimizedAffinity>
-5.01151896

$$$$

 OpenBabel03252502403D

 39 41  0  0  1  0  0  0  0  0999 V2000
   37.9500   30.3820   39.9250 C   0  0  1  0  0  0  0  0  0  0  0  0
   38.5680   29.7780   39.2000 H   0  0  0  0  0  0  0  0  0  0  0  0
   38.6330   31.6400   40.0560 N   0  0  0  0  0  0  0  0  0  0  0  0
   39.5830   31.8630   39.0300 C   0  0  0  0  0  0  0  0  0  0  0  0
   40.4680   33.0110   39.5460 C   0  0  0  0  0  0  0  0  0  0  0  0
   39.6090   34.1610   39.4380 N   0  0  0  0  0  0  0  0  0  0  0  0
   38.4330   34.0640   40.2090 C   0  0  0  0  0  0  0  0  0  0  0  0
   37.7390   32.7110   40.1980 C   0  0  0  0  0  0  0  0  0  0  0  0
   39.1220   32.2470   38.0910 H   0  0  0  0  0  0  0  0  0  0  0  0
   40.2020   30.9690   38.8100 H   0  0  0  0  0  0  0  0  0  0  0  0
   40.8110   32.8100   40.5590 H   0  0  0  0  0  0  0  0  0  0  0  0
   41.3020   33.1290   38.8460 H   0  0  0  0  0  0  0  0  0  0  0  0
   40.1740   34.9670   39.8360 H   0  0  0  0  0  0  0  0  0  0  0  0
   38.6550   34.3370   41.2620 H   0  0  0  0  0  0  0  0  0  0  0  0
   37.7500   34.8850   39.8600 H   0  0  0  0  0  0  0  0  0  0  0  0
   37.0380   32.7850   40.9970 H   0  0  0  0  0  0  0  0  0  0  0  0
   37.2610   32.7960   39.1690 H   0  0  0  0  0  0  0  0  0  0  0  0
   36.7150   28.7700   41.3700 C   0  0  0  0  0  0  0  0  0  0  0  0
   37.7780   29.6180   41.1230 C   0  0  0  0  0  0  0  0  0  0  0  0
   38.7430   29.7100   42.1450 C   0  0  0  0  0  0  0  0  0  0  0  0
   38.5860   28.9810   43.2920 N   0  0  0  0  0  0  0  0  0  0  0  0
   37.5180   28.1680   43.4670 C   0  0  0  0  0  0  0  0  0  0  0  0
   36.5720   28.0610   42.4940 N   0  0  0  0  0  0  0  0  0  0  0  0
   35.9630   28.6820   40.5990 H   0  0  0  0  0  0  0  0  0  0  0  0
   39.6000   30.3510   42.0240 H   0  0  0  0  0  0  0  0  0  0  0  0
   37.3750   27.5840   44.3660 H   0  0  0  0  0  0  0  0  0  0  0  0
   36.5640   30.6290   39.3130 C   0  0  0  0  0  0  0  0  0  0  0  0
   36.6090   31.7660   39.3300 H   0  0  0  0  0  0  0  0  0  0  0  0
   35.7170   30.4680   39.9680 H   0  0  0  0  0  0  0  0  0  0  0  0
   36.3480   30.1070   38.0020 C   0  0  0  0  0  0  0  0  0  0  0  0
   36.9600   30.1370   36.7950 C   0  0  0  0  0  0  0  0  0  0  0  0
   36.5490   29.5440   35.6160 C   0  0  0  0  0  0  0  0  0  0  0  0
   35.4080   28.8590   35.6790 N   0  0  0  0  0  0  0  0  0  0  0  0
   34.7560   28.7830   36.8170 C   0  0  0  0  0  0  0  0  0  0  0  0
   35.2150   29.3790   37.9020 N   0  0  0  0  0  0  0  0  0  0  0  0
   37.8940   30.7330   36.8310 H   0  0  0  0  0  0  0  0  0  0  0  0
   37.1860   29.6890   34.7550 H   0  0  0  0  0  0  0  0  0  0  0  0
   33.4810   27.9860   36.7780 C   0  0  0  0  0  2  0  0  0  0  0  0
   33.6860   26.9690   37.2190 H   0  0  0  0  0  0  0  0  0  0  0  0
  1  2  1  6  0  0  0
  1  3  1  0  0  0  0
  1 19  1  0  0  0  0
  3  8  1  0  0  0  0
  4  5  1  0  0  0  0
  4  3  1  0  0  0  0
  5 11  1  0  0  0  0
  6  5  1  0  0  0  0
  6 13  1  0  0  0  0
  6  7  1  0  0  0  0
  7 14  1  0  0  0  0
  8  7  1  0  0  0  0
  8 16  1  0  0  0  0
  9  4  1  0  0  0  0
 10  4  1  0  0  0  0
 12  5  1  0  0  0  0
 15  7  1  0  0  0  0
 17  8  1  0  0  0  0
 18 23  1  0  0  0  0
 19 18  2  0  0  0  0
 19 20  1  0  0  0  0
 20 21  2  0  0  0  0
 21 22  1  0  0  0  0
 22 26  1  0  0  0  0
 23 22  2  0  0  0  0
 24 18  1  0  0  0  0
 25 20  1  0  0  0  0
 27 28  1  0  0  0  0
 27  1  1  0  0  0  0
 27 29  1  0  0  0  0
 30 27  1  0  0  0  0
 31 36  1  0  0  0  0
 31 30  2  0  0  0  0
 32 33  2  0  0  0  0
 32 31  1  0  0  0  0
 33 34  1  0  0  0  0
 34 35  2  0  0  0  0
 35 30  1  0  0  0  0
 37 32  1  0  0  0  0
 38 34  1  0  0  0  0
 38 39  1  0  0  0  0
M  END
>  <minimizedAffinity>
-4.89448595

$$$$

 OpenBabel03252502403D

 39 41  0  0  1  0  0  0  0  0999 V2000
   36.6790   30.9780   39.6420 C   0  0  1  0  0  0  0  0  0  0  0  0
   35.9160   31.7120   39.2540 H   0  0  0  0  0  0  0  0  0  0  0  0
   37.9350   31.6750   39.6060 N   0  0  0  0  0  0  0  0  0  0  0  0
   38.3970   31.9160   38.2890 C   0  0  0  0  0  0  0  0  0  0  0  0
   39.8840   32.2810   38.4460 C   0  0  0  0  0  0  0  0  0  0  0  0
   39.8390   33.6030   39.0130 N   0  0  0  0  0  0  0  0  0  0  0  0
   39.1850   33.6620   40.2610 C   0  0  0  0  0  0  0  0  0  0  0  0
   37.9120   32.8410   40.3860 C   0  0  0  0  0  0  0  0  0  0  0  0
   37.9230   32.8100   37.8230 H   0  0  0  0  0  0  0  0  0  0  0  0
   38.2850   31.0370   37.6230 H   0  0  0  0  0  0  0  0  0  0  0  0
   40.3980   31.5500   39.0690 H   0  0  0  0  0  0  0  0  0  0  0  0
   40.3190   32.3430   37.4430 H   0  0  0  0  0  0  0  0  0  0  0  0
   40.8540   33.8650   39.1830 H   0  0  0  0  0  0  0  0  0  0  0  0
   39.8860   33.3490   41.0630 H   0  0  0  0  0  0  0  0  0  0  0  0
   39.0020   34.7490   40.4780 H   0  0  0  0  0  0  0  0  0  0  0  0
   37.7190   32.8390   41.4340 H   0  0  0  0  0  0  0  0  0  0  0  0
   37.2270   33.5370   39.8020 H   0  0  0  0  0  0  0  0  0  0  0  0
   35.4150   29.2470   38.3700 C   0  0  0  0  0  0  0  0  0  0  0  0
   36.5900   29.7770   38.8680 C   0  0  0  0  0  0  0  0  0  0  0  0
   37.7650   29.0590   38.5700 C   0  0  0  0  0  0  0  0  0  0  0  0
   37.6870   27.9120   37.8290 N   0  0  0  0  0  0  0  0  0  0  0  0
   36.5000   27.4500   37.3720 C   0  0  0  0  0  0  0  0  0  0  0  0
   35.3510   28.1260   37.6460 N   0  0  0  0  0  0  0  0  0  0  0  0
   34.5010   29.7830   38.5840 H   0  0  0  0  0  0  0  0  0  0  0  0
   38.7190   29.4110   38.9250 H   0  0  0  0  0  0  0  0  0  0  0  0
   36.4160   26.5450   36.7850 H   0  0  0  0  0  0  0  0  0  0  0  0
   36.3420   30.6320   41.0990 C   0  0  0  0  0  0  0  0  0  0  0  0
   35.3380   30.1390   40.8920 H   0  0  0  0  0  0  0  0  0  0  0  0
   36.0170   31.4560   41.7220 H   0  0  0  0  0  0  0  0  0  0  0  0
   37.2540   29.7640   41.7710 C   0  0  0  0  0  0  0  0  0  0  0  0
   38.4800   29.8400   42.3400 C   0  0  0  0  0  0  0  0  0  0  0  0
   39.2030   28.8290   42.9470 C   0  0  0  0  0  0  0  0  0  0  0  0
   38.6160   27.6340   42.9730 N   0  0  0  0  0  0  0  0  0  0  0  0
   37.4240   27.4810   42.4400 C   0  0  0  0  0  0  0  0  0  0  0  0
   36.7980   28.4980   41.8780 N   0  0  0  0  0  0  0  0  0  0  0  0
   38.8950   30.8650   42.2670 H   0  0  0  0  0  0  0  0  0  0  0  0
   40.1710   29.0990   43.3420 H   0  0  0  0  0  0  0  0  0  0  0  0
   36.8540   26.0920   42.5230 C   0  0  0  0  0  2  0  0  0  0  0  0
   36.1070   26.0650   43.3680 H   0  0  0  0  0  0  0  0  0  0  0  0
  1  2  1  6  0  0  0
  1 27  1  0  0  0  0
  3  1  1  0  0  0  0
  3  8  1  0  0  0  0
  4  5  1  0  0  0  0
  4  3  1  0  0  0  0
  5  6  1  0  0  0  0
  5 11  1  0  0  0  0
  6 13  1  0  0  0  0
  6  7  1  0  0  0  0
  7  8  1  0  0  0  0
  7 15  1  0  0  0  0
  7 14  1  0  0  0  0
  8 16  1  0  0  0  0
  9  4  1  0  0  0  0
 10  4  1  0  0  0  0
 12  5  1  0  0  0  0
 17  8  1  0  0  0  0
 18 24  1  0  0  0  0
 18 19  1  0  0  0  0
 19  1  1  0  0  0  0
 20 19  2  0  0  0  0
 20 25  1  0  0  0  0
 21 20  1  0  0  0  0
 22 23  1  0  0  0  0
 22 21  2  0  0  0  0
 23 18  2  0  0  0  0
 26 22  1  0  0  0  0
 27 29  1  0  0  0  0
 27 30  1  0  0  0  0
 28 27  1  0  0  0  0
 30 35  2  0  0  0  0
 30 31  1  0  0  0  0
 31 32  2  0  0  0  0
 32 33  1  0  0  0  0
 32 37  1  0  0  0  0
 34 38  1  0  0  0  0
 34 33  2  0  0  0  0
 35 34  1  0  0  0  0
 36 31  1  0  0  0  0
 38 39  1  0  0  0  0
M  END
>  <minimizedAffinity>
-4.89333057

$$$$

 OpenBabel03252502403D

 39 41  0  0  1  0  0  0  0  0999 V2000
   37.0650   29.9220   39.0640 C   0  0  1  0  0  0  0  0  0  0  0  0
   37.8520   29.1160   38.9960 H   0  0  0  0  0  0  0  0  0  0  0  0
   36.3220   29.8370   37.8370 N   0  0  0  0  0  0  0  0  0  0  0  0
   37.0840   29.3120   36.7640 C   0  0  0  0  0  0  0  0  0  0  0  0
   36.2900   29.6700   35.4950 C   0  0  0  0  0  0  0  0  0  0  0  0
   35.1630   28.7770   35.5510 N   0  0  0  0  0  0  0  0  0  0  0  0
   34.3600   28.9500   36.6970 C   0  0  0  0  0  0  0  0  0  0  0  0
   35.1030   29.1640   38.0050 C   0  0  0  0  0  0  0  0  0  0  0  0
   37.1330   28.1990   36.7750 H   0  0  0  0  0  0  0  0  0  0  0  0
   38.1070   29.7360   36.7110 H   0  0  0  0  0  0  0  0  0  0  0  0
   36.0190   30.7250   35.4940 H   0  0  0  0  0  0  0  0  0  0  0  0
   36.9070   29.4050   34.6300 H   0  0  0  0  0  0  0  0  0  0  0  0
   34.5650   29.0360   34.7120 H   0  0  0  0  0  0  0  0  0  0  0  0
   33.6680   29.8030   36.5410 H   0  0  0  0  0  0  0  0  0  0  0  0
   33.6770   28.0590   36.7480 H   0  0  0  0  0  0  0  0  0  0  0  0
   34.3410   29.4950   38.6730 H   0  0  0  0  0  0  0  0  0  0  0  0
   35.4180   28.0850   38.1790 H   0  0  0  0  0  0  0  0  0  0  0  0
   37.0580   32.3610   39.5730 C   0  0  0  0  0  0  0  0  0  0  0  0
   37.7140   31.1680   39.3360 C   0  0  0  0  0  0  0  0  0  0  0  0
   39.1210   31.2210   39.3740 C   0  0  0  0  0  0  0  0  0  0  0  0
   39.7470   32.4090   39.6350 N   0  0  0  0  0  0  0  0  0  0  0  0
   39.0400   33.5410   39.8590 C   0  0  0  0  0  0  0  0  0  0  0  0
   37.6800   33.5160   39.8290 N   0  0  0  0  0  0  0  0  0  0  0  0
   35.9780   32.3450   39.5510 H   0  0  0  0  0  0  0  0  0  0  0  0
   39.7010   30.3300   39.1980 H   0  0  0  0  0  0  0  0  0  0  0  0
   39.5150   34.4900   40.0670 H   0  0  0  0  0  0  0  0  0  0  0  0
   36.1270   29.6050   40.2370 C   0  0  0  0  0  0  0  0  0  0  0  0
   35.4290   28.9100   39.6680 H   0  0  0  0  0  0  0  0  0  0  0  0
   35.4280   30.3840   40.5130 H   0  0  0  0  0  0  0  0  0  0  0  0
   36.7230   28.9790   41.3730 C   0  0  0  0  0  0  0  0  0  0  0  0
   37.3460   29.3510   42.5160 C   0  0  0  0  0  0  0  0  0  0  0  0
   37.8710   28.5400   43.5040 C   0  0  0  0  0  0  0  0  0  0  0  0
   37.7470   27.2290   43.3040 N   0  0  0  0  0  0  0  0  0  0  0  0
   37.1530   26.7890   42.2170 C   0  0  0  0  0  0  0  0  0  0  0  0
   36.6770   27.6300   41.3180 N   0  0  0  0  0  0  0  0  0  0  0  0
   37.4120   30.4550   42.5970 H   0  0  0  0  0  0  0  0  0  0  0  0
   38.3310   29.0400   44.3440 H   0  0  0  0  0  0  0  0  0  0  0  0
   37.0670   25.2930   42.0900 C   0  0  0  0  0  2  0  0  0  0  0  0
   36.0250   24.9720   42.3800 H   0  0  0  0  0  0  0  0  0  0  0  0
  1  2  1  6  0  0  0
  1 19  1  0  0  0  0
  1 27  1  0  0  0  0
  3  8  1  0  0  0  0
  3  1  1  0  0  0  0
  4  9  1  0  0  0  0
  4  3  1  0  0  0  0
  5  6  1  0  0  0  0
  5  4  1  0  0  0  0
  6  7  1  0  0  0  0
  7 15  1  0  0  0  0
  7  8  1  0  0  0  0
  8 17  1  0  0  0  0
  8 16  1  0  0  0  0
 10  4  1  0  0  0  0
 11  5  1  0  0  0  0
 12  5  1  0  0  0  0
 13  6  1  0  0  0  0
 14  7  1  0  0  0  0
 18 23  1  0  0  0  0
 19 20  1  0  0  0  0
 19 18  2  0  0  0  0
 20 21  2  0  0  0  0
 21 22  1  0  0  0  0
 22 26  1  0  0  0  0
 23 22  2  0  0  0  0
 24 18  1  0  0  0  0
 25 20  1  0  0  0  0
 27 29  1  0  0  0  0
 27 30  1  0  0  0  0
 28 27  1  0  0  0  0
 30 31  1  0  0  0  0
 31 36  1  0  0  0  0
 31 32  2  0  0  0  0
 32 37  1  0  0  0  0
 33 32  1  0  0  0  0
 34 33  2  0  0  0  0
 35 30  2  0  0  0  0
 35 34  1  0  0  0  0
 38 34  1  0  0  0  0
 38 39  1  0  0  0  0
M  END
>  <minimizedAffinity>
-4.88521671

$$$$

 OpenBabel03252502403D

 39 41  0  0  1  0  0  0  0  0999 V2000
   36.9980   29.5980   40.2520 C   0  0  1  0  0  0  0  0  0  0  0  0
   38.0320   29.6400   39.8040 H   0  0  0  0  0  0  0  0  0  0  0  0
   37.0630   28.5870   41.2720 N   0  0  0  0  0  0  0  0  0  0  0  0
   37.9800   27.5510   40.9670 C   0  0  0  0  0  0  0  0  0  0  0  0
   37.6220   26.4030   41.9270 C   0  0  0  0  0  0  0  0  0  0  0  0
   38.0960   26.8810   43.2000 N   0  0  0  0  0  0  0  0  0  0  0  0
   37.4830   28.0800   43.6180 C   0  0  0  0  0  0  0  0  0  0  0  0
   37.2820   29.1360   42.5440 C   0  0  0  0  0  0  0  0  0  0  0  0
   39.0330   27.8220   41.2110 H   0  0  0  0  0  0  0  0  0  0  0  0
   37.9110   27.2080   39.9140 H   0  0  0  0  0  0  0  0  0  0  0  0
   36.5530   26.1970   41.9030 H   0  0  0  0  0  0  0  0  0  0  0  0
   38.2150   25.5290   41.6370 H   0  0  0  0  0  0  0  0  0  0  0  0
   37.8160   26.1310   43.8980 H   0  0  0  0  0  0  0  0  0  0  0  0
   36.4980   27.8530   44.0770 H   0  0  0  0  0  0  0  0  0  0  0  0
   38.0930   28.4710   44.4770 H   0  0  0  0  0  0  0  0  0  0  0  0
   36.6180   29.8330   43.0010 H   0  0  0  0  0  0  0  0  0  0  0  0
   38.3570   29.5040   42.4920 H   0  0  0  0  0  0  0  0  0  0  0  0
   34.7280   29.0420   39.3860 C   0  0  0  0  0  0  0  0  0  0  0  0
   36.0540   29.3850   39.1980 C   0  0  0  0  0  0  0  0  0  0  0  0
   36.4690   29.5280   37.8600 C   0  0  0  0  0  0  0  0  0  0  0  0
   35.5700   29.3280   36.8470 N   0  0  0  0  0  0  0  0  0  0  0  0
   34.2850   28.9940   37.1050 C   0  0  0  0  0  0  0  0  0  0  0  0
   33.8590   28.8490   38.3900 N   0  0  0  0  0  0  0  0  0  0  0  0
   34.3870   28.9280   40.4050 H   0  0  0  0  0  0  0  0  0  0  0  0
   37.4880   29.7940   37.6340 H   0  0  0  0  0  0  0  0  0  0  0  0
   33.5590   28.8300   36.3200 H   0  0  0  0  0  0  0  0  0  0  0  0
   36.6840   30.9490   40.9090 C   0  0  0  0  0  0  0  0  0  0  0  0
   36.7870   30.6020   41.9880 H   0  0  0  0  0  0  0  0  0  0  0  0
   35.6440   31.2490   40.9110 H   0  0  0  0  0  0  0  0  0  0  0  0
   37.5640   32.0270   40.5910 C   0  0  0  0  0  0  0  0  0  0  0  0
   37.4850   33.2570   40.0320 C   0  0  0  0  0  0  0  0  0  0  0  0
   38.5090   34.1580   39.8050 C   0  0  0  0  0  0  0  0  0  0  0  0
   39.7220   33.7630   40.1870 N   0  0  0  0  0  0  0  0  0  0  0  0
   39.8790   32.5820   40.7390 C   0  0  0  0  0  0  0  0  0  0  0  0
   38.8490   31.7770   40.9210 N   0  0  0  0  0  0  0  0  0  0  0  0
   36.4440   33.5000   39.7380 H   0  0  0  0  0  0  0  0  0  0  0  0
   38.2330   35.0950   39.3430 H   0  0  0  0  0  0  0  0  0  0  0  0
   41.2890   32.2350   41.1320 C   0  0  0  0  0  2  0  0  0  0  0  0
   41.3960   32.3920   42.2440 H   0  0  0  0  0  0  0  0  0  0  0  0
  1  2  1  6  0  0  0
  1 27  1  0  0  0  0
  1  3  1  0  0  0  0
  3  8  1  0  0  0  0
  4  9  1  0  0  0  0
  4  3  1  0  0  0  0
  4  5  1  0  0  0  0
  5  6  1  0  0  0  0
  6  7  1  0  0  0  0
  6 13  1  0  0  0  0
  7 14  1  0  0  0  0
  7 15  1  0  0  0  0
  8 16  1  0  0  0  0
  8  7  1  0  0  0  0
 10  4  1  0  0  0  0
 11  5  1  0  0  0  0
 12  5  1  0  0  0  0
 17  8  1  0  0  0  0
 18 24  1  0  0  0  0
 19 18  1  0  0  0  0
 19  1  1  0  0  0  0
 20 19  2  0  0  0  0
 21 22  2  0  0  0  0
 21 20  1  0  0  0  0
 22 23  1  0  0  0  0
 23 18  2  0  0  0  0
 25 20  1  0  0  0  0
 26 22  1  0  0  0  0
 27 29  1  0  0  0  0
 27 28  1  0  0  0  0
 30 27  1  0  0  0  0
 30 35  1  0  0  0  0
 31 30  2  0  0  0  0
 32 31  1  0  0  0  0
 32 33  2  0  0  0  0
 33 34  1  0  0  0  0
 34 35  2  0  0  0  0
 34 38  1  0  0  0  0
 36 31  1  0  0  0  0
 37 32  1  0  0  0  0
 38 39  1  0  0  0  0
M  END
>  <minimizedAffinity>
-4.85622454

$$$$

 OpenBabel03252502403D

 39 41  0  0  1  0  0  0  0  0999 V2000
   37.7680   30.1530   40.0170 C   0  0  1  0  0  0  0  0  0  0  0  0
   38.1980   29.6630   39.0960 H   0  0  0  0  0  0  0  0  0  0  0  0
   38.4030   31.4390   40.0990 N   0  0  0  0  0  0  0  0  0  0  0  0
   39.4290   31.6120   39.1370 C   0  0  0  0  0  0  0  0  0  0  0  0
   40.2370   32.8270   39.6260 C   0  0  0  0  0  0  0  0  0  0  0  0
   39.3580   33.9350   39.3560 N   0  0  0  0  0  0  0  0  0  0  0  0
   38.1260   33.8590   40.0360 C   0  0  0  0  0  0  0  0  0  0  0  0
   37.4720   32.4880   40.0800 C   0  0  0  0  0  0  0  0  0  0  0  0
   39.0360   31.9040   38.1360 H   0  0  0  0  0  0  0  0  0  0  0  0
   40.0880   30.7250   39.0420 H   0  0  0  0  0  0  0  0  0  0  0  0
   40.5010   32.7180   40.6770 H   0  0  0  0  0  0  0  0  0  0  0  0
   41.1220   32.9160   38.9890 H   0  0  0  0  0  0  0  0  0  0  0  0
   39.8670   34.7880   39.7310 H   0  0  0  0  0  0  0  0  0  0  0  0
   38.2530   34.2230   41.0770 H   0  0  0  0  0  0  0  0  0  0  0  0
   37.4520   34.6260   39.5670 H   0  0  0  0  0  0  0  0  0  0  0  0
   36.7060   32.6010   40.8120 H   0  0  0  0  0  0  0  0  0  0  0  0
   37.0790   32.4740   39.0130 H   0  0  0  0  0  0  0  0  0  0  0  0
   37.5220   29.5290   42.4170 C   0  0  0  0  0  0  0  0  0  0  0  0
   37.9560   29.2730   41.1300 C   0  0  0  0  0  0  0  0  0  0  0  0
   38.6250   28.0490   40.9380 C   0  0  0  0  0  0  0  0  0  0  0  0
   38.8060   27.2020   41.9980 N   0  0  0  0  0  0  0  0  0  0  0  0
   38.3540   27.5180   43.2330 C   0  0  0  0  0  0  0  0  0  0  0  0
   37.7030   28.6950   43.4450 N   0  0  0  0  0  0  0  0  0  0  0  0
   37.0040   30.4620   42.5880 H   0  0  0  0  0  0  0  0  0  0  0  0
   38.9930   27.7800   39.9620 H   0  0  0  0  0  0  0  0  0  0  0  0
   38.4870   26.8640   44.0850 H   0  0  0  0  0  0  0  0  0  0  0  0
   36.2590   30.3540   39.8160 C   0  0  0  0  0  0  0  0  0  0  0  0
   36.3060   31.4550   39.5340 H   0  0  0  0  0  0  0  0  0  0  0  0
   35.6620   30.4190   40.7170 H   0  0  0  0  0  0  0  0  0  0  0  0
   35.6430   29.5530   38.8080 C   0  0  0  0  0  0  0  0  0  0  0  0
   34.5040   28.8380   38.6490 C   0  0  0  0  0  0  0  0  0  0  0  0
   34.1050   28.1040   37.5480 C   0  0  0  0  0  0  0  0  0  0  0  0
   34.9480   28.1040   36.5160 N   0  0  0  0  0  0  0  0  0  0  0  0
   36.0740   28.7760   36.5950 C   0  0  0  0  0  0  0  0  0  0  0  0
   36.3840   29.4530   37.6840 N   0  0  0  0  0  0  0  0  0  0  0  0
   33.8680   28.8870   39.5550 H   0  0  0  0  0  0  0  0  0  0  0  0
   33.1510   27.6010   37.6230 H   0  0  0  0  0  0  0  0  0  0  0  0
   36.9520   28.7080   35.3750 C   0  0  0  0  0  2  0  0  0  0  0  0
   36.8180   29.6620   34.7890 H   0  0  0  0  0  0  0  0  0  0  0  0
  1  2  1  6  0  0  0
  1  3  1  0  0  0  0
  1 19  1  0  0  0  0
  4  5  1  0  0  0  0
  4  3  1  0  0  0  0
  5 11  1  0  0  0  0
  6  5  1  0  0  0  0
  6 13  1  0  0  0  0
  6  7  1  0  0  0  0
  7  8  1  0  0  0  0
  7 14  1  0  0  0  0
  8  3  1  0  0  0  0
  8 16  1  0  0  0  0
  9  4  1  0  0  0  0
 10  4  1  0  0  0  0
 12  5  1  0  0  0  0
 15  7  1  0  0  0  0
 17  8  1  0  0  0  0
 18 24  1  0  0  0  0
 18 23  1  0  0  0  0
 19 18  2  0  0  0  0
 20 19  1  0  0  0  0
 20 21  2  0  0  0  0
 21 22  1  0  0  0  0
 22 23  2  0  0  0  0
 22 26  1  0  0  0  0
 25 20  1  0  0  0  0
 27  1  1  0  0  0  0
 27 29  1  0  0  0  0
 28 27  1  0  0  0  0
 30 27  1  0  0  0  0
 31 30  1  0  0  0  0
 31 36  1  0  0  0  0
 32 37  1  0  0  0  0
 32 31  2  0  0  0  0
 33 34  2  0  0  0  0
 33 32  1  0  0  0  0
 34 35  1  0  0  0  0
 35 30  2  0  0  0  0
 38 34  1  0  0  0  0
 39 38  1  0  0  0  0
M  END
>  <minimizedAffinity>
-4.73597956

$$$$

 OpenBabel03252502403D

 39 41  0  0  1  0  0  0  0  0999 V2000
   37.7930   30.2340   39.3460 C   0  0  1  0  0  0  0  0  0  0  0  0
   36.7910   30.2680   39.8640 H   0  0  0  0  0  0  0  0  0  0  0  0
   38.2960   31.5790   39.3960 N   0  0  0  0  0  0  0  0  0  0  0  0
   37.5840   32.4030   40.3020 C   0  0  0  0  0  0  0  0  0  0  0  0
   37.9780   33.8430   39.9280 C   0  0  0  0  0  0  0  0  0  0  0  0
   39.3330   33.9460   40.4020 N   0  0  0  0  0  0  0  0  0  0  0  0
   40.2150   33.0250   39.8010 C   0  0  0  0  0  0  0  0  0  0  0  0
   39.6810   31.6140   39.6170 C   0  0  0  0  0  0  0  0  0  0  0  0
   37.9180   32.2720   41.3570 H   0  0  0  0  0  0  0  0  0  0  0  0
   36.4850   32.2740   40.2330 H   0  0  0  0  0  0  0  0  0  0  0  0
   37.8710   34.0070   38.8570 H   0  0  0  0  0  0  0  0  0  0  0  0
   37.3480   34.5220   40.5110 H   0  0  0  0  0  0  0  0  0  0  0  0
   39.6530   34.9160   40.1120 H   0  0  0  0  0  0  0  0  0  0  0  0
   40.5390   33.4110   38.8120 H   0  0  0  0  0  0  0  0  0  0  0  0
   41.1570   33.0370   40.4120 H   0  0  0  0  0  0  0  0  0  0  0  0
   40.3880   31.1640   38.9590 H   0  0  0  0  0  0  0  0  0  0  0  0
   39.7860   31.2710   40.6960 H   0  0  0  0  0  0  0  0  0  0  0  0
   36.5870   29.9910   37.1780 C   0  0  0  0  0  0  0  0  0  0  0  0
   37.6120   29.6640   38.0450 C   0  0  0  0  0  0  0  0  0  0  0  0
   38.5280   28.7000   37.5800 C   0  0  0  0  0  0  0  0  0  0  0  0
   38.3620   28.1530   36.3370 N   0  0  0  0  0  0  0  0  0  0  0  0
   37.3330   28.5210   35.5400 C   0  0  0  0  0  0  0  0  0  0  0  0
   36.4350   29.4510   35.9660 N   0  0  0  0  0  0  0  0  0  0  0  0
   35.8730   30.7300   37.5130 H   0  0  0  0  0  0  0  0  0  0  0  0
   39.3540   28.3940   38.2010 H   0  0  0  0  0  0  0  0  0  0  0  0
   37.1840   28.1010   34.5540 H   0  0  0  0  0  0  0  0  0  0  0  0
   38.7340   29.3190   40.1410 C   0  0  0  0  0  0  0  0  0  0  0  0
   39.5580   30.0860   40.3090 H   0  0  0  0  0  0  0  0  0  0  0  0
   39.2830   28.5830   39.5680 H   0  0  0  0  0  0  0  0  0  0  0  0
   38.2200   28.7880   41.3620 C   0  0  0  0  0  0  0  0  0  0  0  0
   37.9400   29.2290   42.6110 C   0  0  0  0  0  0  0  0  0  0  0  0
   37.4380   28.5070   43.6780 C   0  0  0  0  0  0  0  0  0  0  0  0
   37.2020   27.2170   43.4440 N   0  0  0  0  0  0  0  0  0  0  0  0
   37.4480   26.7150   42.2550 C   0  0  0  0  0  0  0  0  0  0  0  0
   37.9280   27.4720   41.2860 N   0  0  0  0  0  0  0  0  0  0  0  0
   38.1730   30.3070   42.7200 H   0  0  0  0  0  0  0  0  0  0  0  0
   37.2840   29.0510   44.5990 H   0  0  0  0  0  0  0  0  0  0  0  0
   37.1470   25.2500   42.0990 C   0  0  0  0  0  2  0  0  0  0  0  0
   36.1590   25.1470   41.5640 H   0  0  0  0  0  0  0  0  0  0  0  0
  1  3  1  0  0  0  0
  1  2  1  1  0  0  0
  1 27  1  0  0  0  0
  3  8  1  0  0  0  0
  3  4  1  0  0  0  0
  4  9  1  0  0  0  0
  5  4  1  0  0  0  0
  5  6  1  0  0  0  0
  5 12  1  0  0  0  0
  7  6  1  0  0  0  0
  7 15  1  0  0  0  0
  8  7  1  0  0  0  0
  8 17  1  0  0  0  0
 10  4  1  0  0  0  0
 11  5  1  0  0  0  0
 13  6  1  0  0  0  0
 14  7  1  0  0  0  0
 16  8  1  0  0  0  0
 18 24  1  0  0  0  0
 18 19  1  0  0  0  0
 19  1  1  0  0  0  0
 20 19  2  0  0  0  0
 20 25  1  0  0  0  0
 21 20  1  0  0  0  0
 22 23  1  0  0  0  0
 22 21  2  0  0  0  0
 23 18  2  0  0  0  0
 26 22  1  0  0  0  0
 27 28  1  0  0  0  0
 27 30  1  0  0  0  0
 29 27  1  0  0  0  0
 30 31  1  0  0  0  0
 31 36  1  0  0  0  0
 31 32  2  0  0  0  0
 32 37  1  0  0  0  0
 33 32  1  0  0  0  0
 34 33  2  0  0  0  0
 35 30  2  0  0  0  0
 35 34  1  0  0  0  0
 38 34  1  0  0  0  0
 39 38  1  0  0  0  0
M  END
>  <minimizedAffinity>
-4.70234585

$$$$

 OpenBabel03252502403D

 39 41  0  0  1  0  0  0  0  0999 V2000
   37.1120   29.1490   40.0350 C   0  0  1  0  0  0  0  0  0  0  0  0
   37.4660   28.4770   39.2020 H   0  0  0  0  0  0  0  0  0  0  0  0
   37.6570   30.4460   39.7410 N   0  0  0  0  0  0  0  0  0  0  0  0
   37.8990   30.6450   38.3590 C   0  0  0  0  0  0  0  0  0  0  0  0
   38.8280   31.8690   38.2870 C   0  0  0  0  0  0  0  0  0  0  0  0
   37.9530   32.9640   38.6160 N   0  0  0  0  0  0  0  0  0  0  0  0
   37.3760   32.8620   39.8990 C   0  0  0  0  0  0  0  0  0  0  0  0
   36.8920   31.4790   40.3030 C   0  0  0  0  0  0  0  0  0  0  0  0
   36.9810   30.9380   37.8000 H   0  0  0  0  0  0  0  0  0  0  0  0
   38.3760   29.7700   37.8730 H   0  0  0  0  0  0  0  0  0  0  0  0
   39.6700   31.7570   38.9670 H   0  0  0  0  0  0  0  0  0  0  0  0
   39.1520   31.9790   37.2470 H   0  0  0  0  0  0  0  0  0  0  0  0
   38.5770   33.8230   38.6260 H   0  0  0  0  0  0  0  0  0  0  0  0
   38.0990   33.2180   40.6610 H   0  0  0  0  0  0  0  0  0  0  0  0
   36.5490   33.6210   39.9410 H   0  0  0  0  0  0  0  0  0  0  0  0
   36.7170   31.5720   41.3500 H   0  0  0  0  0  0  0  0  0  0  0  0
   35.9370   31.4670   39.6850 H   0  0  0  0  0  0  0  0  0  0  0  0
   36.6040   28.0800   42.2280 C   0  0  0  0  0  0  0  0  0  0  0  0
   37.4910   28.5630   41.2850 C   0  0  0  0  0  0  0  0  0  0  0  0
   38.8570   28.4520   41.6100 C   0  0  0  0  0  0  0  0  0  0  0  0
   39.2260   27.8910   42.8010 N   0  0  0  0  0  0  0  0  0  0  0  0
   38.3020   27.4370   43.6800 C   0  0  0  0  0  0  0  0  0  0  0  0
   36.9750   27.5320   43.3890 N   0  0  0  0  0  0  0  0  0  0  0  0
   35.5500   28.1520   42.0000 H   0  0  0  0  0  0  0  0  0  0  0  0
   39.6070   28.8080   40.9230 H   0  0  0  0  0  0  0  0  0  0  0  0
   38.5720   26.9900   44.6270 H   0  0  0  0  0  0  0  0  0  0  0  0
   35.5800   29.2320   39.9920 C   0  0  0  0  0  0  0  0  0  0  0  0
   35.5060   30.3670   39.9640 H   0  0  0  0  0  0  0  0  0  0  0  0
   35.0640   29.0360   40.9230 H   0  0  0  0  0  0  0  0  0  0  0  0
   34.9440   28.6120   38.8740 C   0  0  0  0  0  0  0  0  0  0  0  0
   33.9280   28.8790   38.0200 C   0  0  0  0  0  0  0  0  0  0  0  0
   33.4620   28.0990   36.9780 C   0  0  0  0  0  0  0  0  0  0  0  0
   34.0940   26.9400   36.7950 N   0  0  0  0  0  0  0  0  0  0  0  0
   35.0910   26.6100   37.5850 C   0  0  0  0  0  0  0  0  0  0  0  0
   35.4770   27.4120   38.5600 N   0  0  0  0  0  0  0  0  0  0  0  0
   33.4560   29.8550   38.2480 H   0  0  0  0  0  0  0  0  0  0  0  0
   32.6340   28.4970   36.4100 H   0  0  0  0  0  0  0  0  0  0  0  0
   35.7340   25.2820   37.2920 C   0  0  0  0  0  2  0  0  0  0  0  0
   36.6900   25.4690   36.7250 H   0  0  0  0  0  0  0  0  0  0  0  0
  1  2  1  6  0  0  0
  1 19  1  0  0  0  0
  3  1  1  0  0  0  0
  3  8  1  0  0  0  0
  4  3  1  0  0  0  0
  5  4  1  0  0  0  0
  5  6  1  0  0  0  0
  5 11  1  0  0  0  0
  6 13  1  0  0  0  0
  6  7  1  0  0  0  0
  7 15  1  0  0  0  0
  7  8  1  0  0  0  0
  7 14  1  0  0  0  0
  8 16  1  0  0  0  0
  9  4  1  0  0  0  0
 10  4  1  0  0  0  0
 12  5  1  0  0  0  0
 17  8  1  0  0  0  0
 18 23  1  0  0  0  0
 19 20  1  0  0  0  0
 19 18  2  0  0  0  0
 20 21  2  0  0  0  0
 21 22  1  0  0  0  0
 22 26  1  0  0  0  0
 23 22  2  0  0  0  0
 24 18  1  0  0  0  0
 25 20  1  0  0  0  0
 27  1  1  0  0  0  0
 27 29  1  0  0  0  0
 28 27  1  0  0  0  0
 30 27  1  0  0  0  0
 31 36  1  0  0  0  0
 31 30  2  0  0  0  0
 32 31  1  0  0  0  0
 33 32  2  0  0  0  0
 33 34  1  0  0  0  0
 34 35  2  0  0  0  0
 35 30  1  0  0  0  0
 37 32  1  0  0  0  0
 38 34  1  0  0  0  0
 39 38  1  0  0  0  0
M  END
>  <minimizedAffinity>
-4.61301279

$$$$

 OpenBabel03252502403D

 39 41  0  0  1  0  0  0  0  0999 V2000
   37.2240   29.3950   39.4750 C   0  0  1  0  0  0  0  0  0  0  0  0
   37.8070   28.9610   38.6130 H   0  0  0  0  0  0  0  0  0  0  0  0
   37.7780   30.7040   39.6920 N   0  0  0  0  0  0  0  0  0  0  0  0
   36.8200   31.6410   40.1520 C   0  0  0  0  0  0  0  0  0  0  0  0
   37.4700   33.0180   39.9360 C   0  0  0  0  0  0  0  0  0  0  0  0
   38.4800   33.0680   40.9610 N   0  0  0  0  0  0  0  0  0  0  0  0
   39.4470   32.0470   40.8530 C   0  0  0  0  0  0  0  0  0  0  0  0
   38.9190   30.6640   40.5060 C   0  0  0  0  0  0  0  0  0  0  0  0
   36.6400   31.5690   41.2490 H   0  0  0  0  0  0  0  0  0  0  0  0
   35.8570   31.5800   39.6050 H   0  0  0  0  0  0  0  0  0  0  0  0
   37.8630   33.1070   38.9240 H   0  0  0  0  0  0  0  0  0  0  0  0
   36.7140   33.7810   40.1500 H   0  0  0  0  0  0  0  0  0  0  0  0
   38.9850   33.9890   40.8060 H   0  0  0  0  0  0  0  0  0  0  0  0
   40.2080   32.3340   40.0980 H   0  0  0  0  0  0  0  0  0  0  0  0
   40.0190   32.0430   41.8200 H   0  0  0  0  0  0  0  0  0  0  0  0
   39.7990   30.1200   40.2510 H   0  0  0  0  0  0  0  0  0  0  0  0
   38.5040   30.3990   41.5310 H   0  0  0  0  0  0  0  0  0  0  0  0
   36.4740   28.5290   41.6890 C   0  0  0  0  0  0  0  0  0  0  0  0
   37.2910   28.4810   40.5750 C   0  0  0  0  0  0  0  0  0  0  0  0
   38.2450   27.4450   40.5550 C   0  0  0  0  0  0  0  0  0  0  0  0
   38.3120   26.5670   41.6020 N   0  0  0  0  0  0  0  0  0  0  0  0
   37.4790   26.6730   42.6620 C   0  0  0  0  0  0  0  0  0  0  0  0
   36.5480   27.6660   42.7060 N   0  0  0  0  0  0  0  0  0  0  0  0
   35.7340   29.3150   41.7250 H   0  0  0  0  0  0  0  0  0  0  0  0
   38.9170   27.3440   39.7190 H   0  0  0  0  0  0  0  0  0  0  0  0
   37.5160   25.9900   43.5000 H   0  0  0  0  0  0  0  0  0  0  0  0
   35.7530   29.5380   39.0620 C   0  0  0  0  0  0  0  0  0  0  0  0
   35.6200   30.6160   39.4040 H   0  0  0  0  0  0  0  0  0  0  0  0
   35.0280   29.0520   39.7010 H   0  0  0  0  0  0  0  0  0  0  0  0
   35.4650   29.3620   37.6750 C   0  0  0  0  0  0  0  0  0  0  0  0
   36.1330   29.3930   36.4980 C   0  0  0  0  0  0  0  0  0  0  0  0
   35.6280   29.1950   35.2260 C   0  0  0  0  0  0  0  0  0  0  0  0
   34.3220   28.9430   35.1540 N   0  0  0  0  0  0  0  0  0  0  0  0
   33.6060   28.8970   36.2540 C   0  0  0  0  0  0  0  0  0  0  0  0
   34.1630   29.0970   37.4340 N   0  0  0  0  0  0  0  0  0  0  0  0
   37.2080   29.6150   36.6500 H   0  0  0  0  0  0  0  0  0  0  0  0
   36.3350   29.2620   34.4110 H   0  0  0  0  0  0  0  0  0  0  0  0
   32.1430   28.6070   36.0600 C   0  0  0  0  0  2  0  0  0  0  0  0
   31.9630   27.5200   36.3000 H   0  0  0  0  0  0  0  0  0  0  0  0
  1  2  1  6  0  0  0
  1  3  1  0  0  0  0
  1 19  1  0  0  0  0
  3  4  1  0  0  0  0
  3  8  1  0  0  0  0
  4  9  1  0  0  0  0
  5 12  1  0  0  0  0
  5  4  1  0  0  0  0
  5  6  1  0  0  0  0
  7  6  1  0  0  0  0
  7 15  1  0  0  0  0
  8  7  1  0  0  0  0
  8 17  1  0  0  0  0
 10  4  1  0  0  0  0
 11  5  1  0  0  0  0
 13  6  1  0  0  0  0
 14  7  1  0  0  0  0
 16  8  1  0  0  0  0
 18 24  1  0  0  0  0
 18 23  1  0  0  0  0
 19 18  2  0  0  0  0
 20 19  1  0  0  0  0
 20 21  2  0  0  0  0
 21 22  1  0  0  0  0
 22 23  2  0  0  0  0
 22 26  1  0  0  0  0
 25 20  1  0  0  0  0
 27 28  1  0  0  0  0
 27  1  1  0  0  0  0
 27 29  1  0  0  0  0
 30 27  1  0  0  0  0
 31 36  1  0  0  0  0
 31 30  2  0  0  0  0
 32 31  1  0  0  0  0
 33 32  2  0  0  0  0
 33 34  1  0  0  0  0
 34 35  2  0  0  0  0
 35 30  1  0  0  0  0
 37 32  1  0  0  0  0
 38 34  1  0  0  0  0
 38 39  1  0  0  0  0
M  END
>  <minimizedAffinity>
-4.57561874

$$$$
