REMARK  Name = 
REMARK  2 active torsions:
REMARK  status: ('A' for Active; 'I' for Inactive)
REMARK    1  A    between atoms: C_2  and  C_17
REMARK    2  A    between atoms: C_3  and  C_7
REMARK                            x       y       z     vdW  Elec       q    Type
REMARK                         _______ _______ _______ _____ _____    ______ ____
ROOT
ATOM      1  C   UNL     1      44.598  35.922  44.309  0.00  0.00    +0.000 A 
ATOM      2  C   UNL     1      45.360  35.918  43.110  0.00  0.00    +0.000 A 
ATOM      3  C   UNL     1      46.304  34.905  43.048  0.00  0.00    +0.000 A 
ATOM      4  N   UNL     1      46.486  33.983  44.061  0.00  0.00    +0.000 NA
ATOM      5  C   UNL     1      45.719  34.050  45.174  0.00  0.00    +0.000 A 
ATOM      6  N   UNL     1      44.778  35.020  45.294  0.00  0.00    +0.000 NA
ATOM      7  H   UNL     1      43.846  36.687  44.420  0.00  0.00    +0.000 HD
ATOM      8  H   UNL     1      45.992  33.265  45.848  0.00  0.00    +0.000 HD
ENDROOT
BRANCH   3   9
ATOM      9  C   UNL     1      47.074  34.787  41.747  0.00  0.00    +0.000 C 
ATOM     10  C   UNL     1      48.439  35.483  41.871  0.00  0.00    +0.000 C 
ATOM     11  C   UNL     1      48.240  33.946  41.743  0.00  0.00    +0.000 C 
ATOM     12  H   UNL     1      46.526  35.227  40.884  0.00  0.00    +0.000 HD
ATOM     13  H   UNL     1      48.754  36.012  40.971  0.00  0.00    +0.000 HD
ATOM     14  H   UNL     1      48.705  35.879  42.840  0.00  0.00    +0.000 HD
ATOM     15  H   UNL     1      48.684  33.507  40.808  0.00  0.00    +0.000 HD
ATOM     16  H   UNL     1      48.615  33.404  42.635  0.00  0.00    +0.000 HD
ENDBRANCH   3   9
BRANCH   2  17
ATOM     17  C   UNL     1      45.168  36.903  42.022  0.00  0.00    +0.000 C 
ATOM     18  H   UNL     1      44.628  37.800  42.393  0.00  0.00    +0.000 HD
ENDBRANCH   2  17
TORSDOF 2
