
 OpenBabel03242522353D

 36 38  0  0  0  0  0  0  0  0999 V2000
   43.9750   35.3820   42.2500 C   0  0  0  0  0  0  0  0  0  0  0  0
   42.8820   35.0970   41.4770 C   0  0  0  0  0  0  0  0  0  0  0  0
   43.0700   34.3580   40.3320 C   0  0  0  0  0  0  0  0  0  0  0  0
   44.3070   33.8720   39.8980 C   0  0  0  0  0  0  0  0  0  0  0  0
   45.4000   34.1750   40.7020 C   0  0  0  0  0  0  0  0  0  0  0  0
   45.2190   34.9160   41.8510 C   0  0  0  0  0  0  0  0  0  0  0  0
   42.1920   34.1330   39.7150 H   0  0  0  0  0  0  0  0  0  0  0  0
   44.3990   33.2940   38.9880 H   0  0  0  0  0  0  0  0  0  0  0  0
   46.3760   33.8120   40.3940 H   0  0  0  0  0  0  0  0  0  0  0  0
   41.5260   35.5530   41.8260 C   0  0  0  0  0  0  0  0  0  0  0  0
   41.4180   35.4320   42.9430 H   0  0  0  0  0  0  0  0  0  0  0  0
   41.3330   36.6020   41.6330 H   0  0  0  0  0  0  0  0  0  0  0  0
   39.2440   32.7020   41.1950 C   0  0  0  0  0  0  0  0  0  0  0  0
   38.4920   33.1770   40.1050 C   0  0  0  0  0  0  0  0  0  0  0  0
   38.7840   34.4390   39.6260 C   0  0  0  0  0  0  0  0  0  0  0  0
   39.7620   35.1540   40.2130 N   0  0  0  0  0  0  0  0  0  0  0  0
   40.4770   34.6830   41.2620 C   0  0  0  0  0  0  0  0  0  0  0  0
   40.1990   33.4660   41.7270 N   0  0  0  0  0  0  0  0  0  0  0  0
   38.9560   31.7080   41.5120 H   0  0  0  0  0  0  0  0  0  0  0  0
   37.6950   32.6720   39.5790 H   0  0  0  0  0  0  0  0  0  0  0  0
   38.2780   34.9180   38.7920 H   0  0  0  0  0  0  0  0  0  0  0  0
   43.8450   36.1150   43.4010 O   0  0  0  0  0  0  0  0  0  0  0  0
   44.6460   36.6430   43.7430 H   0  0  0  0  0  0  0  0  0  0  0  0
   46.3310   35.1960   42.6230 O   0  0  0  0  0  0  0  0  0  0  0  0
   47.3620   34.2710   42.6320 C   0  0  0  0  0  0  0  0  0  0  0  0
   47.0680   33.0450   43.2220 C   0  0  0  0  0  0  0  0  0  0  0  0
   48.0630   32.0800   43.2600 C   0  0  0  0  0  0  0  0  0  0  0  0
   49.3350   32.3220   42.7200 C   0  0  0  0  0  0  0  0  0  0  0  0
   49.5640   33.5700   42.1430 C   0  0  0  0  0  0  0  0  0  0  0  0
   48.6030   34.5510   42.0880 C   0  0  0  0  0  0  0  0  0  0  0  0
   46.1090   32.7960   43.6560 H   0  0  0  0  0  0  0  0  0  0  0  0
   47.8610   31.1180   43.7130 H   0  0  0  0  0  0  0  0  0  0  0  0
   50.1220   31.5780   42.7410 H   0  0  0  0  0  0  0  0  0  0  0  0
   50.5310   33.7990   41.7150 H   0  0  0  0  0  0  0  0  0  0  0  0
   48.8800   35.8610   41.4700 C   0  0  0  0  0  0  0  0  0  0  0  0
   48.5400   36.6460   42.1870 H   0  0  0  0  0  0  0  0  0  0  0  0
  1 22  1  0  0  0  0
  2 10  1  0  0  0  0
  2  1  2  0  0  0  0
  3  2  1  0  0  0  0
  4  3  2  0  0  0  0
  4  5  1  0  0  0  0
  5  6  2  0  0  0  0
  6  1  1  0  0  0  0
  6 24  1  0  0  0  0
  7  3  1  0  0  0  0
  8  4  1  0  0  0  0
  9  5  1  0  0  0  0
 10 11  1  0  0  0  0
 12 10  1  0  0  0  0
 13 19  1  0  0  0  0
 13 18  1  0  0  0  0
 14 13  2  0  0  0  0
 15 14  1  0  0  0  0
 15 16  2  0  0  0  0
 16 17  1  0  0  0  0
 17 18  2  0  0  0  0
 17 10  1  0  0  0  0
 20 14  1  0  0  0  0
 21 15  1  0  0  0  0
 22 23  1  0  0  0  0
 24 25  1  0  0  0  0
 25 26  1  0  0  0  0
 26 27  2  0  0  0  0
 26 31  1  0  0  0  0
 27 32  1  0  0  0  0
 28 33  1  0  0  0  0
 28 27  1  0  0  0  0
 29 28  2  0  0  0  0
 30 29  1  0  0  0  0
 30 25  2  0  0  0  0
 34 29  1  0  0  0  0
 35 30  1  0  0  0  0
 35 36  1  0  0  0  0
M  END
>  <minimizedAffinity>
-6.34129953

>  <minimizedRMSD>
0.995083988

$$$$
