REMARK  Name = 
REMARK  3 active torsions:
REMARK  status: ('A' for Active; 'I' for Inactive)
REMARK    1  A    between atoms: C_1  and  C_10
REMARK    2  A    between atoms: C_4  and  C_12
REMARK    3  A    between atoms: C_17  and  C_33
REMARK                            x       y       z     vdW  Elec       q    Type
REMARK                         _______ _______ _______ _____ _____    ______ ____
ROOT
ATOM      1  C   UNL     1      47.787  30.657  48.849  0.00  0.00    +0.000 C 
ATOM      2  C   UNL     1      48.169  29.496  47.999  0.00  0.00    +0.000 C 
ATOM      3  C   UNL     1      49.591  29.053  48.132  0.00  0.00    +0.000 C 
ATOM      4  C   UNL     1      50.077  29.033  49.566  0.00  0.00    +0.000 C 
ATOM      5  C   UNL     1      49.654  30.240  50.350  0.00  0.00    +0.000 C 
ATOM      6  C   UNL     1      49.085  31.293  49.394  0.00  0.00    +0.000 C 
ATOM      7  H   UNL     1      47.269  30.274  49.761  0.00  0.00    +0.000 HD
ATOM      8  H   UNL     1      48.021  29.770  46.915  0.00  0.00    +0.000 HD
ATOM      9  H   UNL     1      47.499  28.617  48.150  0.00  0.00    +0.000 HD
ATOM     10  H   UNL     1      50.231  29.651  47.478  0.00  0.00    +0.000 HD
ATOM     11  H   UNL     1      49.643  27.993  47.788  0.00  0.00    +0.000 HD
ATOM     12  H   UNL     1      51.179  28.910  49.527  0.00  0.00    +0.000 HD
ATOM     13  H   UNL     1      49.655  28.132  50.080  0.00  0.00    +0.000 HD
ATOM     14  H   UNL     1      50.585  30.723  50.758  0.00  0.00    +0.000 HD
ATOM     15  H   UNL     1      48.941  30.023  51.167  0.00  0.00    +0.000 HD
ATOM     16  H   UNL     1      49.831  31.403  48.597  0.00  0.00    +0.000 HD
ENDROOT
BRANCH   1  20
ATOM     17  C   UNL     1      45.811  33.232  46.359  0.00  0.00    +0.000 A 
ATOM     18  C   UNL     1      45.194  33.136  47.616  0.00  0.00    +0.000 A 
ATOM     19  C   UNL     1      45.763  32.315  48.529  0.00  0.00    +0.000 A 
ATOM     20  C   UNL     1      46.930  31.596  48.206  0.00  0.00    +0.000 A 
ATOM     21  S   UNL     1      47.252  32.111  46.493  0.00  0.00    +0.000 S 
ATOM     22  H   UNL     1      44.299  33.684  47.870  0.00  0.00    +0.000 HD
ATOM     23  H   UNL     1      45.450  32.107  49.530  0.00  0.00    +0.000 HD
BRANCH  17  28
ATOM     24  C   UNL     1      44.336  35.919  44.244  0.00  0.00    +0.000 A 
ATOM     25  C   UNL     1      44.492  35.335  42.976  0.00  0.00    +0.000 A 
ATOM     26  C   UNL     1      45.087  34.068  42.898  0.00  0.00    +0.000 A 
ATOM     27  N   UNL     1      45.488  33.459  44.055  0.00  0.00    +0.000 NA
ATOM     28  C   UNL     1      45.312  34.074  45.264  0.00  0.00    +0.000 A 
ATOM     29  N   UNL     1      44.740  35.292  45.346  0.00  0.00    +0.000 NA
ATOM     30  H   UNL     1      43.879  36.902  44.350  0.00  0.00    +0.000 HD
ATOM     31  H   UNL     1      44.151  35.876  42.105  0.00  0.00    +0.000 HD
ATOM     32  H   UNL     1      45.216  33.603  41.940  0.00  0.00    +0.000 HD
ENDBRANCH  17  28
ENDBRANCH   1  20
BRANCH   6  33
ATOM     33  C   UNL     1      48.831  32.599  50.065  0.00  0.00    +0.000 C 
ATOM     34  H   UNL     1      48.814  33.446  49.372  0.00  0.00    +0.000 HD
ENDBRANCH   6  33
TORSDOF 3
