
 OpenBabel03242514403D

 35 37  0  0  0  0  0  0  0  0999 V2000
   37.7440   33.0200   39.5790 C   0  0  0  0  0  0  0  0  0  0  0  0
   36.8940   33.9540   39.2950 O   0  0  0  0  0  0  0  0  0  0  0  0
   38.9930   33.7190   39.9550 C   0  0  0  0  0  0  0  0  0  0  0  0
   39.1220   35.0910   40.2600 C   0  0  0  0  0  0  0  0  0  0  0  0
   40.4170   35.4650   40.5750 C   0  0  0  0  0  0  0  0  0  0  0  0
   41.4320   34.6000   40.5850 C   0  0  0  0  0  0  0  0  0  0  0  0
   40.5730   32.9890   40.0960 S   0  0  0  0  0  0  0  0  0  0  0  0
   38.3100   35.8020   40.2570 H   0  0  0  0  0  0  0  0  0  0  0  0
   40.7270   36.4660   40.8380 H   0  0  0  0  0  0  0  0  0  0  0  0
   42.8470   34.5970   40.8490 C   0  0  0  0  0  0  0  0  0  0  0  0
   43.7160   33.8840   40.0750 C   0  0  0  0  0  0  0  0  0  0  0  0
   45.0440   33.9950   40.4780 C   0  0  0  0  0  0  0  0  0  0  0  0
   45.4000   34.7590   41.5550 C   0  0  0  0  0  0  0  0  0  0  0  0
   44.4810   35.4650   42.3090 C   0  0  0  0  0  0  0  0  0  0  0  0
   43.1800   35.3530   41.9120 N   0  0  0  0  0  0  0  0  0  0  0  0
   43.4030   33.2930   39.2340 H   0  0  0  0  0  0  0  0  0  0  0  0
   45.8200   33.4660   39.9270 H   0  0  0  0  0  0  0  0  0  0  0  0
   46.4330   34.8620   41.8900 H   0  0  0  0  0  0  0  0  0  0  0  0
   44.7550   36.0690   43.1610 H   0  0  0  0  0  0  0  0  0  0  0  0
   37.1950   31.8100   39.4300 O   0  0  0  0  0  0  0  0  0  0  0  0
   36.8180   29.3140   39.9440 O   0  0  0  0  0  0  0  0  0  0  0  0
   36.9550   30.6470   40.5990 P   0  0  2  0  0  0  0  0  0  0  0  0
   35.5230   30.9770   41.3900 O   0  0  0  0  0  0  0  0  0  0  0  0
   35.6680   31.5920   42.1620 H   0  0  0  0  0  0  0  0  0  0  0  0
   38.2940   30.6600   41.7000 O   0  0  0  0  0  0  0  0  0  0  0  0
   38.1090   28.7910   43.1560 C   0  0  0  0  0  0  0  0  0  0  0  0
   38.8160   29.4680   42.1820 C   0  0  0  0  0  0  0  0  0  0  0  0
   40.0160   28.9030   41.7440 C   0  0  0  0  0  0  0  0  0  0  0  0
   40.4250   27.7300   42.2920 N   0  0  0  0  0  0  0  0  0  0  0  0
   39.7140   27.1060   43.2320 C   0  0  0  0  0  0  0  0  0  0  0  0
   38.5680   27.6270   43.6620 N   0  0  0  0  0  0  0  0  0  0  0  0
   37.1760   29.1050   43.5850 H   0  0  0  0  0  0  0  0  0  0  0  0
   40.5250   29.4760   40.9810 H   0  0  0  0  0  0  0  0  0  0  0  0
   40.2480   25.8230   43.7690 C   0  0  0  0  0  2  0  0  0  0  0  0
   39.4420   25.0660   43.9060 H   0  0  0  0  0  0  0  0  0  0  0  0
  1  3  1  0  0  0  0
  2  1  2  0  0  0  0
  3  7  1  0  0  0  0
  3  4  2  0  0  0  0
  4  5  1  0  0  0  0
  5  6  2  0  0  0  0
  5  9  1  0  0  0  0
  6 10  1  0  0  0  0
  7  6  1  0  0  0  0
  8  4  1  0  0  0  0
 10 15  1  0  0  0  0
 11 12  1  0  0  0  0
 11 10  2  0  0  0  0
 12 13  2  0  0  0  0
 13 18  1  0  0  0  0
 13 14  1  0  0  0  0
 14 19  1  0  0  0  0
 15 14  2  0  0  0  0
 16 11  1  0  0  0  0
 17 12  1  0  0  0  0
 20  1  1  0  0  0  0
 20 22  1  0  0  0  0
 22 21  2  6  0  0  0
 22 23  1  0  0  0  0
 22 25  1  0  0  0  0
 23 24  1  0  0  0  0
 25 27  1  0  0  0  0
 26 32  1  0  0  0  0
 26 31  1  0  0  0  0
 27 26  2  0  0  0  0
 28 27  1  0  0  0  0
 28 29  2  0  0  0  0
 29 30  1  0  0  0  0
 30 31  2  0  0  0  0
 30 34  1  0  0  0  0
 33 28  1  0  0  0  0
 34 35  1  0  0  0  0
M  END
>  <minimizedAffinity>
-6.24327755

$$$$

 OpenBabel03242514403D

 35 37  0  0  0  0  0  0  0  0999 V2000
   39.6730   34.4110   39.9830 C   0  0  0  0  0  0  0  0  0  0  0  0
   38.9090   35.4430   40.1520 O   0  0  0  0  0  0  0  0  0  0  0  0
   38.8190   33.2340   40.2600 C   0  0  0  0  0  0  0  0  0  0  0  0
   37.4880   33.0490   39.8300 C   0  0  0  0  0  0  0  0  0  0  0  0
   36.9390   31.8470   40.2440 C   0  0  0  0  0  0  0  0  0  0  0  0
   37.6160   30.9630   40.9780 C   0  0  0  0  0  0  0  0  0  0  0  0
   39.2830   31.8270   41.1850 S   0  0  0  0  0  0  0  0  0  0  0  0
   36.9280   33.7550   39.2360 H   0  0  0  0  0  0  0  0  0  0  0  0
   35.9350   31.5150   40.0210 H   0  0  0  0  0  0  0  0  0  0  0  0
   37.4090   29.6680   41.5720 C   0  0  0  0  0  0  0  0  0  0  0  0
   36.7560   28.6730   40.9030 C   0  0  0  0  0  0  0  0  0  0  0  0
   36.6440   27.4910   41.6310 C   0  0  0  0  0  0  0  0  0  0  0  0
   37.1550   27.3830   42.8960 C   0  0  0  0  0  0  0  0  0  0  0  0
   37.8090   28.4220   43.5310 C   0  0  0  0  0  0  0  0  0  0  0  0
   37.9160   29.5790   42.8150 N   0  0  0  0  0  0  0  0  0  0  0  0
   36.3680   28.7910   39.9090 H   0  0  0  0  0  0  0  0  0  0  0  0
   36.1420   26.6330   41.1890 H   0  0  0  0  0  0  0  0  0  0  0  0
   37.0800   26.4690   43.4860 H   0  0  0  0  0  0  0  0  0  0  0  0
   38.2130   28.3430   44.5290 H   0  0  0  0  0  0  0  0  0  0  0  0
   40.9090   34.7810   39.6340 O   0  0  0  0  0  0  0  0  0  0  0  0
   42.9150   33.1990   39.2990 O   0  0  0  0  0  0  0  0  0  0  0  0
   41.9300   34.0340   38.5500 P   0  0  2  0  0  0  0  0  0  0  0  0
   42.7810   35.2090   37.7250 O   0  0  0  0  0  0  0  0  0  0  0  0
   42.2870   35.5100   36.9120 H   0  0  0  0  0  0  0  0  0  0  0  0
   40.9950   33.0600   37.4630 O   0  0  0  0  0  0  0  0  0  0  0  0
   42.4180   31.3840   36.5640 C   0  0  0  0  0  0  0  0  0  0  0  0
   41.2940   31.7160   37.2930 C   0  0  0  0  0  0  0  0  0  0  0  0
   40.5290   30.6700   37.8140 C   0  0  0  0  0  0  0  0  0  0  0  0
   40.9240   29.3910   37.5800 N   0  0  0  0  0  0  0  0  0  0  0  0
   42.0160   29.1100   36.8710 C   0  0  0  0  0  0  0  0  0  0  0  0
   42.7590   30.0920   36.3650 N   0  0  0  0  0  0  0  0  0  0  0  0
   43.0970   32.0790   36.1060 H   0  0  0  0  0  0  0  0  0  0  0  0
   39.6620   30.9900   38.3760 H   0  0  0  0  0  0  0  0  0  0  0  0
   42.3650   27.6750   36.6710 C   0  0  0  0  0  2  0  0  0  0  0  0
   43.4600   27.4990   36.7730 H   0  0  0  0  0  0  0  0  0  0  0  0
  1  2  2  0  0  0  0
  1  3  1  0  0  0  0
  3  7  1  0  0  0  0
  4  5  1  0  0  0  0
  4  3  2  0  0  0  0
  5  6  2  0  0  0  0
  6  7  1  0  0  0  0
  6 10  1  0  0  0  0
  8  4  1  0  0  0  0
  9  5  1  0  0  0  0
 10 15  1  0  0  0  0
 11 10  2  0  0  0  0
 11 12  1  0  0  0  0
 12 13  2  0  0  0  0
 13 18  1  0  0  0  0
 13 14  1  0  0  0  0
 14 19  1  0  0  0  0
 15 14  2  0  0  0  0
 16 11  1  0  0  0  0
 17 12  1  0  0  0  0
 20  1  1  0  0  0  0
 22 21  2  1  0  0  0
 22 20  1  0  0  0  0
 23 22  1  0  0  0  0
 24 23  1  0  0  0  0
 25 22  1  0  0  0  0
 26 27  1  0  0  0  0
 27 25  1  0  0  0  0
 27 28  2  0  0  0  0
 28 33  1  0  0  0  0
 29 28  1  0  0  0  0
 30 29  2  0  0  0  0
 31 26  2  0  0  0  0
 31 30  1  0  0  0  0
 32 26  1  0  0  0  0
 34 35  1  0  0  0  0
 34 30  1  0  0  0  0
M  END
>  <minimizedAffinity>
-6.04788017

$$$$

 OpenBabel03242514403D

 35 37  0  0  0  0  0  0  0  0999 V2000
   39.8240   34.0130   39.9830 C   0  0  0  0  0  0  0  0  0  0  0  0
   38.7650   34.7300   40.1880 O   0  0  0  0  0  0  0  0  0  0  0  0
   39.5980   32.7500   40.7220 C   0  0  0  0  0  0  0  0  0  0  0  0
   40.5200   32.1080   41.5760 C   0  0  0  0  0  0  0  0  0  0  0  0
   40.0320   30.9370   42.1290 C   0  0  0  0  0  0  0  0  0  0  0  0
   38.8080   30.4740   41.8690 C   0  0  0  0  0  0  0  0  0  0  0  0
   38.1420   31.7890   40.6860 S   0  0  0  0  0  0  0  0  0  0  0  0
   41.5120   32.4700   41.7960 H   0  0  0  0  0  0  0  0  0  0  0  0
   40.5780   30.2970   42.8070 H   0  0  0  0  0  0  0  0  0  0  0  0
   37.9760   29.3570   42.2310 C   0  0  0  0  0  0  0  0  0  0  0  0
   36.9110   28.9830   41.4630 C   0  0  0  0  0  0  0  0  0  0  0  0
   36.2170   27.8860   41.9660 C   0  0  0  0  0  0  0  0  0  0  0  0
   36.6030   27.2700   43.1260 C   0  0  0  0  0  0  0  0  0  0  0  0
   37.6910   27.6880   43.8690 C   0  0  0  0  0  0  0  0  0  0  0  0
   38.3680   28.7640   43.3740 N   0  0  0  0  0  0  0  0  0  0  0  0
   36.6350   29.4880   40.5550 H   0  0  0  0  0  0  0  0  0  0  0  0
   35.3510   27.5040   41.4290 H   0  0  0  0  0  0  0  0  0  0  0  0
   36.0760   26.4100   43.5400 H   0  0  0  0  0  0  0  0  0  0  0  0
   38.0000   27.2070   44.7850 H   0  0  0  0  0  0  0  0  0  0  0  0
   40.6980   34.6590   39.2050 O   0  0  0  0  0  0  0  0  0  0  0  0
   43.1520   34.5430   39.9820 O   0  0  0  0  0  0  0  0  0  0  0  0
   42.2590   34.2120   38.8330 P   0  0  2  0  0  0  0  0  0  0  0  0
   42.7690   35.1040   37.5180 O   0  0  0  0  0  0  0  0  0  0  0  0
   42.5330   34.6520   36.6600 H   0  0  0  0  0  0  0  0  0  0  0  0
   42.2990   32.5130   38.4900 O   0  0  0  0  0  0  0  0  0  0  0  0
   42.8100   31.1000   36.6490 C   0  0  0  0  0  0  0  0  0  0  0  0
   43.2370   31.9990   37.6060 C   0  0  0  0  0  0  0  0  0  0  0  0
   44.5930   32.3330   37.6190 C   0  0  0  0  0  0  0  0  0  0  0  0
   45.4170   31.7630   36.7010 N   0  0  0  0  0  0  0  0  0  0  0  0
   44.9660   30.8990   35.7920 C   0  0  0  0  0  0  0  0  0  0  0  0
   43.6780   30.5670   35.7630 N   0  0  0  0  0  0  0  0  0  0  0  0
   41.8020   30.7530   36.5200 H   0  0  0  0  0  0  0  0  0  0  0  0
   44.8690   33.0410   38.3890 H   0  0  0  0  0  0  0  0  0  0  0  0
   45.9490   30.3290   34.8280 C   0  0  0  0  0  2  0  0  0  0  0  0
   45.5310   30.2730   33.7970 H   0  0  0  0  0  0  0  0  0  0  0  0
  1  2  2  0  0  0  0
  1  3  1  0  0  0  0
  3  4  2  0  0  0  0
  4  8  1  0  0  0  0
  4  5  1  0  0  0  0
  5  9  1  0  0  0  0
  6  5  2  0  0  0  0
  6 10  1  0  0  0  0
  7  3  1  0  0  0  0
  7  6  1  0  0  0  0
 10 15  1  0  0  0  0
 11 12  1  0  0  0  0
 11 10  2  0  0  0  0
 12 13  2  0  0  0  0
 13 18  1  0  0  0  0
 13 14  1  0  0  0  0
 14 19  1  0  0  0  0
 15 14  2  0  0  0  0
 16 11  1  0  0  0  0
 17 12  1  0  0  0  0
 20  1  1  0  0  0  0
 22 20  1  0  0  0  0
 22 21  2  1  0  0  0
 23 22  1  0  0  0  0
 24 23  1  0  0  0  0
 25 22  1  0  0  0  0
 26 27  1  0  0  0  0
 27 28  2  0  0  0  0
 27 25  1  0  0  0  0
 28 33  1  0  0  0  0
 29 28  1  0  0  0  0
 30 29  2  0  0  0  0
 31 30  1  0  0  0  0
 31 26  2  0  0  0  0
 32 26  1  0  0  0  0
 34 30  1  0  0  0  0
 35 34  1  0  0  0  0
M  END
>  <minimizedAffinity>
-5.82662868

$$$$

 OpenBabel03242514403D

 35 37  0  0  0  0  0  0  0  0999 V2000
   38.7350   33.1310   40.1790 C   0  0  0  0  0  0  0  0  0  0  0  0
   38.7700   34.4250   40.2320 O   0  0  0  0  0  0  0  0  0  0  0  0
   40.0610   32.7180   39.6670 C   0  0  0  0  0  0  0  0  0  0  0  0
   41.2790   32.7600   40.3780 C   0  0  0  0  0  0  0  0  0  0  0  0
   42.3610   32.3110   39.6400 C   0  0  0  0  0  0  0  0  0  0  0  0
   42.2460   31.8850   38.3810 C   0  0  0  0  0  0  0  0  0  0  0  0
   40.3930   32.0940   38.0710 S   0  0  0  0  0  0  0  0  0  0  0  0
   41.3880   33.1020   41.3960 H   0  0  0  0  0  0  0  0  0  0  0  0
   43.3790   32.2630   39.9990 H   0  0  0  0  0  0  0  0  0  0  0  0
   43.0860   31.3650   37.3360 C   0  0  0  0  0  0  0  0  0  0  0  0
   44.3790   31.7780   37.1880 C   0  0  0  0  0  0  0  0  0  0  0  0
   45.0410   31.1730   36.1230 C   0  0  0  0  0  0  0  0  0  0  0  0
   44.4150   30.2540   35.3250 C   0  0  0  0  0  0  0  0  0  0  0  0
   43.1020   29.8680   35.5160 C   0  0  0  0  0  0  0  0  0  0  0  0
   42.4550   30.4630   36.5600 N   0  0  0  0  0  0  0  0  0  0  0  0
   44.8410   32.5020   37.8330 H   0  0  0  0  0  0  0  0  0  0  0  0
   46.0780   31.4310   35.9170 H   0  0  0  0  0  0  0  0  0  0  0  0
   44.9120   29.7670   34.4850 H   0  0  0  0  0  0  0  0  0  0  0  0
   42.6020   29.1440   34.8890 H   0  0  0  0  0  0  0  0  0  0  0  0
   37.5510   32.6660   40.5920 O   0  0  0  0  0  0  0  0  0  0  0  0
   36.7450   30.7190   39.1100 O   0  0  0  0  0  0  0  0  0  0  0  0
   36.9940   31.0970   40.5320 P   0  0  2  0  0  0  0  0  0  0  0  0
   35.5380   31.0190   41.3420 O   0  0  0  0  0  0  0  0  0  0  0  0
   35.6730   30.8360   42.3140 H   0  0  0  0  0  0  0  0  0  0  0  0
   38.1690   30.0460   41.2540 O   0  0  0  0  0  0  0  0  0  0  0  0
   37.2920   28.2950   42.5990 C   0  0  0  0  0  0  0  0  0  0  0  0
   37.8920   28.6970   41.4220 C   0  0  0  0  0  0  0  0  0  0  0  0
   38.1810   27.7120   40.4750 C   0  0  0  0  0  0  0  0  0  0  0  0
   37.8620   26.4220   40.7550 N   0  0  0  0  0  0  0  0  0  0  0  0
   37.2830   26.0730   41.9030 C   0  0  0  0  0  0  0  0  0  0  0  0
   36.9990   26.9960   42.8190 N   0  0  0  0  0  0  0  0  0  0  0  0
   37.0130   28.9390   43.4120 H   0  0  0  0  0  0  0  0  0  0  0  0
   38.6490   28.0850   39.5750 H   0  0  0  0  0  0  0  0  0  0  0  0
   36.9720   24.6310   42.1140 C   0  0  0  0  0  2  0  0  0  0  0  0
   35.9750   24.4890   42.5900 H   0  0  0  0  0  0  0  0  0  0  0  0
  1  2  2  0  0  0  0
  1 20  1  0  0  0  0
  3  1  1  0  0  0  0
  3  4  2  0  0  0  0
  4  8  1  0  0  0  0
  5  9  1  0  0  0  0
  5  4  1  0  0  0  0
  6  5  2  0  0  0  0
  7  6  1  0  0  0  0
  7  3  1  0  0  0  0
 10  6  1  0  0  0  0
 11 10  1  0  0  0  0
 11 16  1  0  0  0  0
 12 11  2  0  0  0  0
 13 14  2  0  0  0  0
 13 12  1  0  0  0  0
 14 15  1  0  0  0  0
 15 10  2  0  0  0  0
 17 12  1  0  0  0  0
 18 13  1  0  0  0  0
 19 14  1  0  0  0  0
 22 21  2  6  0  0  0
 22 20  1  0  0  0  0
 22 25  1  0  0  0  0
 22 23  1  0  0  0  0
 23 24  1  0  0  0  0
 25 27  1  0  0  0  0
 26 31  1  0  0  0  0
 26 32  1  0  0  0  0
 27 26  2  0  0  0  0
 28 29  2  0  0  0  0
 28 27  1  0  0  0  0
 29 30  1  0  0  0  0
 30 34  1  0  0  0  0
 30 31  2  0  0  0  0
 33 28  1  0  0  0  0
 34 35  1  0  0  0  0
M  END
>  <minimizedAffinity>
-5.79675674

$$$$

 OpenBabel03242514403D

 35 37  0  0  0  0  0  0  0  0999 V2000
   36.2240   29.0440   40.9420 C   0  0  0  0  0  0  0  0  0  0  0  0
   35.0510   29.1720   40.4080 O   0  0  0  0  0  0  0  0  0  0  0  0
   37.0010   30.2180   40.4840 C   0  0  0  0  0  0  0  0  0  0  0  0
   36.6070   31.5690   40.5840 C   0  0  0  0  0  0  0  0  0  0  0  0
   37.5390   32.4520   40.0670 C   0  0  0  0  0  0  0  0  0  0  0  0
   38.6920   32.0490   39.5310 C   0  0  0  0  0  0  0  0  0  0  0  0
   38.5700   30.1730   39.7190 S   0  0  0  0  0  0  0  0  0  0  0  0
   35.6780   31.9100   41.0150 H   0  0  0  0  0  0  0  0  0  0  0  0
   37.4300   33.5270   40.0470 H   0  0  0  0  0  0  0  0  0  0  0  0
   39.8610   32.6270   38.9230 C   0  0  0  0  0  0  0  0  0  0  0  0
   40.4070   33.7880   39.3890 C   0  0  0  0  0  0  0  0  0  0  0  0
   41.5320   34.2010   38.6790 C   0  0  0  0  0  0  0  0  0  0  0  0
   42.0090   33.4790   37.6190 C   0  0  0  0  0  0  0  0  0  0  0  0
   41.4190   32.3080   37.1840 C   0  0  0  0  0  0  0  0  0  0  0  0
   40.3170   31.9060   37.8820 N   0  0  0  0  0  0  0  0  0  0  0  0
   40.0080   34.3300   40.2260 H   0  0  0  0  0  0  0  0  0  0  0  0
   42.0460   35.1150   38.9700 H   0  0  0  0  0  0  0  0  0  0  0  0
   42.8870   33.7820   37.0470 H   0  0  0  0  0  0  0  0  0  0  0  0
   41.7900   31.7340   36.3470 H   0  0  0  0  0  0  0  0  0  0  0  0
   36.2950   27.9330   41.6830 O   0  0  0  0  0  0  0  0  0  0  0  0
   35.9280   27.2020   44.1260 O   0  0  0  0  0  0  0  0  0  0  0  0
   36.9580   27.7600   43.2020 P   0  0  2  0  0  0  0  0  0  0  0  0
   37.3880   29.2690   43.7690 O   0  0  0  0  0  0  0  0  0  0  0  0
   38.3160   29.5100   43.4910 H   0  0  0  0  0  0  0  0  0  0  0  0
   38.3350   26.7120   43.1070 O   0  0  0  0  0  0  0  0  0  0  0  0
   39.3320   25.6430   41.2330 C   0  0  0  0  0  0  0  0  0  0  0  0
   38.3520   25.6570   42.2060 C   0  0  0  0  0  0  0  0  0  0  0  0
   37.4390   24.6000   42.2170 C   0  0  0  0  0  0  0  0  0  0  0  0
   37.5570   23.6230   41.2820 N   0  0  0  0  0  0  0  0  0  0  0  0
   38.5170   23.6450   40.3580 C   0  0  0  0  0  0  0  0  0  0  0  0
   39.3980   24.6430   40.3290 N   0  0  0  0  0  0  0  0  0  0  0  0
   40.0970   26.3860   41.1040 H   0  0  0  0  0  0  0  0  0  0  0  0
   36.6960   24.6640   43.0010 H   0  0  0  0  0  0  0  0  0  0  0  0
   38.5620   22.5250   39.3760 C   0  0  0  0  0  2  0  0  0  0  0  0
   39.6060   22.1880   39.1820 H   0  0  0  0  0  0  0  0  0  0  0  0
  1 20  1  0  0  0  0
  2  1  2  0  0  0  0
  3  4  2  0  0  0  0
  3  1  1  0  0  0  0
  4  8  1  0  0  0  0
  5  4  1  0  0  0  0
  6  7  1  0  0  0  0
  6  5  2  0  0  0  0
  7  3  1  0  0  0  0
  9  5  1  0  0  0  0
 10 11  1  0  0  0  0
 10  6  1  0  0  0  0
 11 16  1  0  0  0  0
 12 17  1  0  0  0  0
 12 11  2  0  0  0  0
 13 12  1  0  0  0  0
 14 13  2  0  0  0  0
 14 15  1  0  0  0  0
 15 10  2  0  0  0  0
 18 13  1  0  0  0  0
 19 14  1  0  0  0  0
 20 22  1  0  0  0  0
 22 23  1  0  0  0  0
 22 21  2  1  0  0  0
 24 23  1  0  0  0  0
 25 22  1  0  0  0  0
 26 27  1  0  0  0  0
 27 28  2  0  0  0  0
 27 25  1  0  0  0  0
 28 33  1  0  0  0  0
 29 28  1  0  0  0  0
 30 29  2  0  0  0  0
 31 30  1  0  0  0  0
 31 26  2  0  0  0  0
 32 26  1  0  0  0  0
 34 30  1  0  0  0  0
 35 34  1  0  0  0  0
M  END
>  <minimizedAffinity>
-5.73062563

$$$$

 OpenBabel03242514403D

 35 37  0  0  0  0  0  0  0  0999 V2000
   40.4000   31.6930   40.9020 C   0  0  0  0  0  0  0  0  0  0  0  0
   41.5620   31.7820   41.4660 O   0  0  0  0  0  0  0  0  0  0  0  0
   39.7850   30.4620   41.4480 C   0  0  0  0  0  0  0  0  0  0  0  0
   39.2000   30.3170   42.7230 C   0  0  0  0  0  0  0  0  0  0  0  0
   38.7070   29.0450   42.9600 C   0  0  0  0  0  0  0  0  0  0  0  0
   38.7860   28.0640   42.0590 C   0  0  0  0  0  0  0  0  0  0  0  0
   39.6610   28.9280   40.6240 S   0  0  0  0  0  0  0  0  0  0  0  0
   39.1280   31.1010   43.4620 H   0  0  0  0  0  0  0  0  0  0  0  0
   38.2220   28.7280   43.8720 H   0  0  0  0  0  0  0  0  0  0  0  0
   38.4090   26.6820   41.9320 C   0  0  0  0  0  0  0  0  0  0  0  0
   37.1840   26.2360   42.3400 C   0  0  0  0  0  0  0  0  0  0  0  0
   36.9930   24.8710   42.1450 C   0  0  0  0  0  0  0  0  0  0  0  0
   37.9700   24.0870   41.5920 C   0  0  0  0  0  0  0  0  0  0  0  0
   39.1960   24.5860   41.1950 C   0  0  0  0  0  0  0  0  0  0  0  0
   39.3800   25.9250   41.3880 N   0  0  0  0  0  0  0  0  0  0  0  0
   36.4390   26.8790   42.7690 H   0  0  0  0  0  0  0  0  0  0  0  0
   36.0500   24.4120   42.4350 H   0  0  0  0  0  0  0  0  0  0  0  0
   37.8440   23.0160   41.4290 H   0  0  0  0  0  0  0  0  0  0  0  0
   39.9700   23.9730   40.7590 H   0  0  0  0  0  0  0  0  0  0  0  0
   40.1940   32.7140   40.0630 O   0  0  0  0  0  0  0  0  0  0  0  0
   39.6450   35.1960   39.6460 O   0  0  0  0  0  0  0  0  0  0  0  0
   39.0690   33.9340   40.1960 P   0  0  2  0  0  0  0  0  0  0  0  0
   38.7460   34.1850   41.8140 O   0  0  0  0  0  0  0  0  0  0  0  0
   38.0080   33.5930   42.1320 H   0  0  0  0  0  0  0  0  0  0  0  0
   37.6340   33.4830   39.3350 O   0  0  0  0  0  0  0  0  0  0  0  0
   37.2320   31.3730   38.3190 C   0  0  0  0  0  0  0  0  0  0  0  0
   37.1380   32.1910   39.4280 C   0  0  0  0  0  0  0  0  0  0  0  0
   36.5480   31.6570   40.5760 C   0  0  0  0  0  0  0  0  0  0  0  0
   36.0990   30.3750   40.5460 N   0  0  0  0  0  0  0  0  0  0  0  0
   36.2070   29.6170   39.4550 C   0  0  0  0  0  0  0  0  0  0  0  0
   36.7660   30.1060   38.3510 N   0  0  0  0  0  0  0  0  0  0  0  0
   37.6590   31.6470   37.3730 H   0  0  0  0  0  0  0  0  0  0  0  0
   36.5030   32.3420   41.4120 H   0  0  0  0  0  0  0  0  0  0  0  0
   35.6850   28.2230   39.5230 C   0  0  0  0  0  2  0  0  0  0  0  0
   36.3660   27.5020   39.0160 H   0  0  0  0  0  0  0  0  0  0  0  0
  1  3  1  0  0  0  0
  1  2  2  0  0  0  0
  3  4  2  0  0  0  0
  4  5  1  0  0  0  0
  4  8  1  0  0  0  0
  5  9  1  0  0  0  0
  6  5  2  0  0  0  0
  7  3  1  0  0  0  0
  7  6  1  0  0  0  0
 10  6  1  0  0  0  0
 10 11  1  0  0  0  0
 11 16  1  0  0  0  0
 12 11  2  0  0  0  0
 12 17  1  0  0  0  0
 13 12  1  0  0  0  0
 14 15  1  0  0  0  0
 14 13  2  0  0  0  0
 15 10  2  0  0  0  0
 18 13  1  0  0  0  0
 19 14  1  0  0  0  0
 20 22  1  0  0  0  0
 20  1  1  0  0  0  0
 22 21  2  6  0  0  0
 22 23  1  0  0  0  0
 23 24  1  0  0  0  0
 25 27  1  0  0  0  0
 25 22  1  0  0  0  0
 26 31  2  0  0  0  0
 26 27  1  0  0  0  0
 27 28  2  0  0  0  0
 28 33  1  0  0  0  0
 29 28  1  0  0  0  0
 30 34  1  0  0  0  0
 30 29  2  0  0  0  0
 31 30  1  0  0  0  0
 32 26  1  0  0  0  0
 35 34  1  0  0  0  0
M  END
>  <minimizedAffinity>
-5.69463778

$$$$

 OpenBabel03242514403D

 35 37  0  0  0  0  0  0  0  0999 V2000
   39.8690   33.7500   39.9900 C   0  0  0  0  0  0  0  0  0  0  0  0
   39.3590   34.8200   40.5120 O   0  0  0  0  0  0  0  0  0  0  0  0
   38.9720   32.6440   40.3930 C   0  0  0  0  0  0  0  0  0  0  0  0
   37.5890   32.5540   40.1300 C   0  0  0  0  0  0  0  0  0  0  0  0
   37.0080   31.4020   40.6320 C   0  0  0  0  0  0  0  0  0  0  0  0
   37.7030   30.4780   41.2980 C   0  0  0  0  0  0  0  0  0  0  0  0
   39.4420   31.2180   41.2840 S   0  0  0  0  0  0  0  0  0  0  0  0
   37.0130   33.2930   39.5930 H   0  0  0  0  0  0  0  0  0  0  0  0
   35.9630   31.1430   40.5390 H   0  0  0  0  0  0  0  0  0  0  0  0
   37.4760   29.2100   41.9400 C   0  0  0  0  0  0  0  0  0  0  0  0
   37.6250   29.0570   43.2880 C   0  0  0  0  0  0  0  0  0  0  0  0
   37.3680   27.7630   43.7350 C   0  0  0  0  0  0  0  0  0  0  0  0
   37.0030   26.7700   42.8680 C   0  0  0  0  0  0  0  0  0  0  0  0
   36.8650   26.9760   41.5080 C   0  0  0  0  0  0  0  0  0  0  0  0
   37.1180   28.2450   41.0730 N   0  0  0  0  0  0  0  0  0  0  0  0
   37.9130   29.8590   43.9410 H   0  0  0  0  0  0  0  0  0  0  0  0
   37.4570   27.5330   44.7950 H   0  0  0  0  0  0  0  0  0  0  0  0
   36.7960   25.7500   43.1930 H   0  0  0  0  0  0  0  0  0  0  0  0
   36.5770   26.1960   40.8180 H   0  0  0  0  0  0  0  0  0  0  0  0
   40.9810   34.0340   39.3040 O   0  0  0  0  0  0  0  0  0  0  0  0
   42.4030   34.1870   37.1610 O   0  0  0  0  0  0  0  0  0  0  0  0
   41.5950   33.2350   37.9780 P   0  0  2  0  0  0  0  0  0  0  0  0
   40.3200   32.7110   37.0370 O   0  0  0  0  0  0  0  0  0  0  0  0
   40.0060   31.8080   37.3220 H   0  0  0  0  0  0  0  0  0  0  0  0
   42.5650   31.9020   38.5130 O   0  0  0  0  0  0  0  0  0  0  0  0
   41.8600   29.6420   38.7140 C   0  0  0  0  0  0  0  0  0  0  0  0
   42.4080   30.6470   37.9420 C   0  0  0  0  0  0  0  0  0  0  0  0
   42.7690   30.3310   36.6300 C   0  0  0  0  0  0  0  0  0  0  0  0
   42.5660   29.0650   36.1830 N   0  0  0  0  0  0  0  0  0  0  0  0
   42.0340   28.1210   36.9590 C   0  0  0  0  0  0  0  0  0  0  0  0
   41.6830   28.4010   38.2120 N   0  0  0  0  0  0  0  0  0  0  0  0
   41.5380   29.7390   39.7330 H   0  0  0  0  0  0  0  0  0  0  0  0
   43.1910   31.1570   36.0740 H   0  0  0  0  0  0  0  0  0  0  0  0
   41.8520   26.7620   36.3740 C   0  0  0  0  0  2  0  0  0  0  0  0
   40.8770   26.3130   36.6710 H   0  0  0  0  0  0  0  0  0  0  0  0
  1  3  1  0  0  0  0
  1  2  2  0  0  0  0
  3  7  1  0  0  0  0
  4  3  2  0  0  0  0
  4  5  1  0  0  0  0
  5  6  2  0  0  0  0
  6 10  1  0  0  0  0
  7  6  1  0  0  0  0
  8  4  1  0  0  0  0
  9  5  1  0  0  0  0
 10 11  1  0  0  0  0
 11 12  2  0  0  0  0
 11 16  1  0  0  0  0
 12 17  1  0  0  0  0
 13 18  1  0  0  0  0
 13 12  1  0  0  0  0
 14 13  2  0  0  0  0
 15 14  1  0  0  0  0
 15 10  2  0  0  0  0
 19 14  1  0  0  0  0
 20  1  1  0  0  0  0
 22 21  2  6  0  0  0
 22 25  1  0  0  0  0
 22 20  1  0  0  0  0
 23 24  1  0  0  0  0
 23 22  1  0  0  0  0
 26 32  1  0  0  0  0
 27 25  1  0  0  0  0
 27 26  2  0  0  0  0
 28 27  1  0  0  0  0
 29 28  2  0  0  0  0
 29 30  1  0  0  0  0
 30 31  2  0  0  0  0
 31 26  1  0  0  0  0
 33 28  1  0  0  0  0
 34 35  1  0  0  0  0
 34 30  1  0  0  0  0
M  END
>  <minimizedAffinity>
-5.6610384

$$$$

 OpenBabel03242514403D

 35 37  0  0  0  0  0  0  0  0999 V2000
   38.6490   30.4060   39.8310 C   0  0  0  0  0  0  0  0  0  0  0  0
   38.8110   31.1180   40.9000 O   0  0  0  0  0  0  0  0  0  0  0  0
   39.6980   30.8570   38.8890 C   0  0  0  0  0  0  0  0  0  0  0  0
   39.6390   31.9960   38.0580 C   0  0  0  0  0  0  0  0  0  0  0  0
   40.7700   32.1660   37.2780 C   0  0  0  0  0  0  0  0  0  0  0  0
   41.8050   31.3260   37.3200 C   0  0  0  0  0  0  0  0  0  0  0  0
   41.2300   30.0670   38.6070 S   0  0  0  0  0  0  0  0  0  0  0  0
   38.8090   32.6840   38.0140 H   0  0  0  0  0  0  0  0  0  0  0  0
   40.9240   32.9740   36.5770 H   0  0  0  0  0  0  0  0  0  0  0  0
   43.0950   31.1700   36.7020 C   0  0  0  0  0  0  0  0  0  0  0  0
   43.3030   30.2590   35.7060 C   0  0  0  0  0  0  0  0  0  0  0  0
   44.6110   30.2420   35.2280 C   0  0  0  0  0  0  0  0  0  0  0  0
   45.5660   31.0790   35.7390 C   0  0  0  0  0  0  0  0  0  0  0  0
   45.3060   31.9850   36.7490 C   0  0  0  0  0  0  0  0  0  0  0  0
   44.0230   31.9990   37.2160 N   0  0  0  0  0  0  0  0  0  0  0  0
   42.5300   29.6170   35.3270 H   0  0  0  0  0  0  0  0  0  0  0  0
   44.8840   29.5530   34.4320 H   0  0  0  0  0  0  0  0  0  0  0  0
   46.5960   31.0850   35.3810 H   0  0  0  0  0  0  0  0  0  0  0  0
   46.0550   32.6470   37.1560 H   0  0  0  0  0  0  0  0  0  0  0  0
   37.6270   29.5550   39.9710 O   0  0  0  0  0  0  0  0  0  0  0  0
   35.2020   28.8630   40.4980 O   0  0  0  0  0  0  0  0  0  0  0  0
   36.3410   29.6690   41.0240 P   0  0  2  0  0  0  0  0  0  0  0  0
   35.8500   31.2630   41.0920 O   0  0  0  0  0  0  0  0  0  0  0  0
   36.3510   31.7670   41.7920 H   0  0  0  0  0  0  0  0  0  0  0  0
   36.8310   29.1000   42.5860 O   0  0  0  0  0  0  0  0  0  0  0  0
   37.1520   26.7620   42.3080 C   0  0  0  0  0  0  0  0  0  0  0  0
   37.6530   27.9870   42.7000 C   0  0  0  0  0  0  0  0  0  0  0  0
   38.9610   28.0250   43.1870 C   0  0  0  0  0  0  0  0  0  0  0  0
   39.6690   26.8670   43.2520 N   0  0  0  0  0  0  0  0  0  0  0  0
   39.1510   25.7020   42.8640 C   0  0  0  0  0  0  0  0  0  0  0  0
   37.9060   25.6450   42.3960 N   0  0  0  0  0  0  0  0  0  0  0  0
   36.1690   26.5830   41.9160 H   0  0  0  0  0  0  0  0  0  0  0  0
   39.2990   29.0100   43.4780 H   0  0  0  0  0  0  0  0  0  0  0  0
   40.0090   24.4890   42.9730 C   0  0  0  0  0  2  0  0  0  0  0  0
   39.9010   23.8260   42.0840 H   0  0  0  0  0  0  0  0  0  0  0  0
  1 20  1  0  0  0  0
  1  2  2  0  0  0  0
  3  1  1  0  0  0  0
  4  3  2  0  0  0  0
  5  6  2  0  0  0  0
  5  4  1  0  0  0  0
  6  7  1  0  0  0  0
  7  3  1  0  0  0  0
  8  4  1  0  0  0  0
  9  5  1  0  0  0  0
 10 15  1  0  0  0  0
 10  6  1  0  0  0  0
 11 10  2  0  0  0  0
 12 11  1  0  0  0  0
 12 13  2  0  0  0  0
 13 14  1  0  0  0  0
 14 19  1  0  0  0  0
 14 15  2  0  0  0  0
 16 11  1  0  0  0  0
 17 12  1  0  0  0  0
 18 13  1  0  0  0  0
 20 22  1  0  0  0  0
 22 21  2  6  0  0  0
 22 23  1  0  0  0  0
 22 25  1  0  0  0  0
 23 24  1  0  0  0  0
 25 27  1  0  0  0  0
 26 31  2  0  0  0  0
 26 27  1  0  0  0  0
 27 28  2  0  0  0  0
 28 29  1  0  0  0  0
 28 33  1  0  0  0  0
 30 34  1  0  0  0  0
 30 29  2  0  0  0  0
 31 30  1  0  0  0  0
 32 26  1  0  0  0  0
 35 34  1  0  0  0  0
M  END
>  <minimizedAffinity>
-5.60025454

$$$$

 OpenBabel03242514403D

 35 37  0  0  0  0  0  0  0  0999 V2000
   37.5250   30.7410   38.9940 C   0  0  0  0  0  0  0  0  0  0  0  0
   37.3130   31.0790   37.7620 O   0  0  0  0  0  0  0  0  0  0  0  0
   38.4920   31.7320   39.5190 C   0  0  0  0  0  0  0  0  0  0  0  0
   38.2990   33.1280   39.5900 C   0  0  0  0  0  0  0  0  0  0  0  0
   39.3800   33.8050   40.1270 C   0  0  0  0  0  0  0  0  0  0  0  0
   40.4890   33.1830   40.5320 C   0  0  0  0  0  0  0  0  0  0  0  0
   40.0780   31.3770   40.1570 S   0  0  0  0  0  0  0  0  0  0  0  0
   37.4080   33.6450   39.2680 H   0  0  0  0  0  0  0  0  0  0  0  0
   39.4340   34.8750   40.2680 H   0  0  0  0  0  0  0  0  0  0  0  0
   41.7620   33.5150   41.1150 C   0  0  0  0  0  0  0  0  0  0  0  0
   42.2760   34.7770   41.0350 C   0  0  0  0  0  0  0  0  0  0  0  0
   43.5170   34.9150   41.6520 C   0  0  0  0  0  0  0  0  0  0  0  0
   44.1270   33.8570   42.2690 C   0  0  0  0  0  0  0  0  0  0  0  0
   43.5640   32.5950   42.3240 C   0  0  0  0  0  0  0  0  0  0  0  0
   42.3480   32.4630   41.7180 N   0  0  0  0  0  0  0  0  0  0  0  0
   41.7700   35.5860   40.5430 H   0  0  0  0  0  0  0  0  0  0  0  0
   44.0160   35.8820   41.6470 H   0  0  0  0  0  0  0  0  0  0  0  0
   45.0980   33.9400   42.7590 H   0  0  0  0  0  0  0  0  0  0  0  0
   44.0400   31.7560   42.8080 H   0  0  0  0  0  0  0  0  0  0  0  0
   36.8160   29.6560   39.3230 O   0  0  0  0  0  0  0  0  0  0  0  0
   34.3410   29.2150   39.8840 O   0  0  0  0  0  0  0  0  0  0  0  0
   35.6590   29.5150   40.5140 P   0  0  2  0  0  0  0  0  0  0  0  0
   35.5270   30.9800   41.3020 O   0  0  0  0  0  0  0  0  0  0  0  0
   36.1710   31.0420   42.0620 H   0  0  0  0  0  0  0  0  0  0  0  0
   36.1210   28.2550   41.6100 O   0  0  0  0  0  0  0  0  0  0  0  0
   38.0510   29.1940   42.6290 C   0  0  0  0  0  0  0  0  0  0  0  0
   37.4440   28.1220   42.0070 C   0  0  0  0  0  0  0  0  0  0  0  0
   38.2070   26.9670   41.8200 C   0  0  0  0  0  0  0  0  0  0  0  0
   39.4950   26.9560   42.2520 N   0  0  0  0  0  0  0  0  0  0  0  0
   40.0460   28.0130   42.8490 C   0  0  0  0  0  0  0  0  0  0  0  0
   39.3360   29.1230   43.0370 N   0  0  0  0  0  0  0  0  0  0  0  0
   37.5890   30.1410   42.8390 H   0  0  0  0  0  0  0  0  0  0  0  0
   37.6790   26.1600   41.3290 H   0  0  0  0  0  0  0  0  0  0  0  0
   41.4650   27.9010   43.2880 C   0  0  0  0  0  2  0  0  0  0  0  0
   41.6250   28.3630   44.2890 H   0  0  0  0  0  0  0  0  0  0  0  0
  1 20  1  0  0  0  0
  1  3  1  0  0  0  0
  2  1  2  0  0  0  0
  3  4  2  0  0  0  0
  3  7  1  0  0  0  0
  4  5  1  0  0  0  0
  5  9  1  0  0  0  0
  5  6  2  0  0  0  0
  6 10  1  0  0  0  0
  7  6  1  0  0  0  0
  8  4  1  0  0  0  0
 10 15  1  0  0  0  0
 11 10  2  0  0  0  0
 11 12  1  0  0  0  0
 12 13  2  0  0  0  0
 13 14  1  0  0  0  0
 13 18  1  0  0  0  0
 14 19  1  0  0  0  0
 15 14  2  0  0  0  0
 16 11  1  0  0  0  0
 17 12  1  0  0  0  0
 20 22  1  0  0  0  0
 22 21  2  6  0  0  0
 22 23  1  0  0  0  0
 22 25  1  0  0  0  0
 23 24  1  0  0  0  0
 25 27  1  0  0  0  0
 26 32  1  0  0  0  0
 26 31  1  0  0  0  0
 27 26  2  0  0  0  0
 28 27  1  0  0  0  0
 28 29  2  0  0  0  0
 29 30  1  0  0  0  0
 30 31  2  0  0  0  0
 30 34  1  0  0  0  0
 33 28  1  0  0  0  0
 34 35  1  0  0  0  0
M  END
>  <minimizedAffinity>
-5.55044317

$$$$
